NCGC00256198-01
     RDKit          3D

 50 49  0  0  0  0  0  0  0  0999 V2000
   -0.1697   -0.5102   -0.1539 C   0  0  0  0  0  0  0  0  0  0  0  0
   -0.0552   -1.6083   -1.1198 C   0  0  0  0  0  0  0  0  0  0  0  0
    0.8820   -0.8683    0.9961 C   0  0  0  0  0  0  0  0  0  0  0  0
   -1.3732   -0.2840    0.6478 C   0  0  0  0  0  0  0  0  0  0  0  0
    0.4116    0.8053   -0.6961 C   0  0  0  0  0  0  0  0  0  0  0  0
   -0.8419   -1.5338   -2.3797 C   0  0  0  0  0  0  0  0  0  0  0  0
   -2.6220   -0.0728    0.1813 O   0  0  0  0  0  0  0  0  0  0  0  0
    0.2381    1.7671    0.3225 O   0  0  0  0  0  0  0  0  0  0  0  0
    2.1487   -0.9395    0.4337 O   0  0  0  0  0  0  0  0  0  0  0  0
    3.2145   -1.2407    1.2637 C   0  0  0  0  0  0  0  0  0  0  0  0
    4.6116   -1.3446    0.7810 C   0  0  0  0  0  0  0  0  0  0  0  0
    3.0060   -1.4406    2.4983 O   0  0  0  0  0  0  0  0  0  0  0  0
   -3.5945   -0.9103   -0.2733 C   0  0  0  0  0  0  0  0  0  0  0  0
   -4.9169   -0.4494   -0.7880 C   0  0  0  0  0  0  0  0  0  0  0  0
   -5.7843   -1.5874   -1.2205 C   0  0  0  0  0  0  0  0  0  0  0  0
   -6.0768   -2.6831    0.1917 S   0  0  0  0  0  0  0  0  0  0  0  0
    0.6759    3.0654    0.1078 C   0  0  0  0  0  0  0  0  0  0  0  0
    0.5176    4.1120    1.1445 C   0  0  0  0  0  0  0  0  0  0  0  0
    1.2202    3.3859   -0.9777 O   0  0  0  0  0  0  0  0  0  0  0  0
    1.0719    5.4371    0.6753 C   0  0  0  0  0  0  0  0  0  0  0  0
    0.8336    6.6446    2.0031 S   0  0  0  0  0  0  0  0  0  0  0  0
   -3.3849   -2.1499   -0.2671 O   0  0  0  0  0  0  0  0  0  0  0  0
    5.0975   -2.7678    0.6826 C   0  0  0  0  0  0  0  0  0  0  0  0
    6.8214   -2.6879    0.0762 S   0  0  0  0  0  0  0  0  0  0  0  0
   -0.2805   -2.5725   -0.5784 H   0  0  0  0  0  0  0  0  0  0  0  0
    1.0326   -1.7157   -1.4310 H   0  0  0  0  0  0  0  0  0  0  0  0
    0.6004   -1.8417    1.4279 H   0  0  0  0  0  0  0  0  0  0  0  0
    0.8446   -0.0771    1.7522 H   0  0  0  0  0  0  0  0  0  0  0  0
   -1.1204    0.6015    1.3387 H   0  0  0  0  0  0  0  0  0  0  0  0
   -1.3892   -1.1395    1.4421 H   0  0  0  0  0  0  0  0  0  0  0  0
   -0.1638    1.1522   -1.5754 H   0  0  0  0  0  0  0  0  0  0  0  0
    1.4778    0.6440   -0.8895 H   0  0  0  0  0  0  0  0  0  0  0  0
   -1.4428   -0.6051   -2.5038 H   0  0  0  0  0  0  0  0  0  0  0  0
   -1.5488   -2.3859   -2.4487 H   0  0  0  0  0  0  0  0  0  0  0  0
   -0.1791   -1.6640   -3.2943 H   0  0  0  0  0  0  0  0  0  0  0  0
    5.2507   -0.8545    1.5693 H   0  0  0  0  0  0  0  0  0  0  0  0
    4.6831   -0.8615   -0.1934 H   0  0  0  0  0  0  0  0  0  0  0  0
   -4.8371    0.2718   -1.6030 H   0  0  0  0  0  0  0  0  0  0  0  0
   -5.4504    0.0662    0.0530 H   0  0  0  0  0  0  0  0  0  0  0  0
   -6.7882   -1.1409   -1.4760 H   0  0  0  0  0  0  0  0  0  0  0  0
   -5.3814   -2.1261   -2.1031 H   0  0  0  0  0  0  0  0  0  0  0  0
   -6.3526   -3.9860   -0.2327 H   0  0  0  0  0  0  0  0  0  0  0  0
    1.0751    3.7857    2.0659 H   0  0  0  0  0  0  0  0  0  0  0  0
   -0.5434    4.2750    1.4124 H   0  0  0  0  0  0  0  0  0  0  0  0
    0.4997    5.7246   -0.2501 H   0  0  0  0  0  0  0  0  0  0  0  0
    2.1434    5.2876    0.4558 H   0  0  0  0  0  0  0  0  0  0  0  0
   -0.3962    6.4450    2.6661 H   0  0  0  0  0  0  0  0  0  0  0  0
    5.0750   -3.2976    1.6480 H   0  0  0  0  0  0  0  0  0  0  0  0
    4.4717   -3.2812   -0.0617 H   0  0  0  0  0  0  0  0  0  0  0  0
    6.7885   -2.8434   -1.3200 H   0  0  0  0  0  0  0  0  0  0  0  0
  1  2  1  0
  1  3  1  0
  1  4  1  0
  1  5  1  0
  2  6  1  0
  3  9  1  0
  4  7  1  0
  5  8  1  0
  7 13  1  0
  8 17  1  0
  9 10  1  0
 10 11  1  0
 10 12  2  0
 11 23  1  0
 13 14  1  0
 13 22  2  0
 14 15  1  0
 15 16  1  0
 17 18  1  0
 17 19  2  0
 18 20  1  0
 20 21  1  0
 23 24  1  0
  2 25  1  0
  2 26  1  0
  3 27  1  0
  3 28  1  0
  4 29  1  0
  4 30  1  0
  5 31  1  0
  5 32  1  0
  6 33  1  0
  6 34  1  0
  6 35  1  0
 11 36  1  0
 11 37  1  0
 14 38  1  0
 14 39  1  0
 15 40  1  0
 15 41  1  0
 16 42  1  0
 18 43  1  0
 18 44  1  0
 20 45  1  0
 20 46  1  0
 21 47  1  0
 23 48  1  0
 23 49  1  0
 24 50  1  0
M  END
