NCGC00260130-01
     RDKit          2D

  6  4  0  0  0  0  0  0  0  0999 V2000
    0.0000   -0.8250    0.0000 H   0  0  0  0  0  0  0  0  0  0  0  0
    2.2649   -0.8250    0.0000 B   0  0  0  0  0  0  0  0  0  0  0  0
    1.4399   -0.8250    0.0000 F   0  0  0  0  0  0  0  0  0  0  0  0
    2.2649   -1.6500    0.0000 F   0  0  0  0  0  0  0  0  0  0  0  0
    2.2649    0.0000    0.0000 F   0  0  0  0  0  0  0  0  0  0  0  0
    3.0899   -0.8250    0.0000 F   0  0  0  0  0  0  0  0  0  0  0  0
  2  3  1  0
  2  4  1  0
  2  5  1  0
  2  6  1  0
M  CHG  2   1   1   2  -1
M  END
