NCGC00255644-01
     RDKit          2D

 25 26  0  0  1  0  0  0  0  0999 V2000
    4.5831   -4.3075    0.0000 O   0  0  0  0  0  0  0  0  0  0  0  0
    5.2840   -3.9061    0.0000 C   0  0  0  0  0  0  0  0  0  0  0  0
    5.9910   -4.3075    0.0000 C   0  0  0  0  0  0  0  0  0  0  0  0
    5.2840   -3.0973    0.0000 O   0  0  0  0  0  0  0  0  0  0  0  0
    1.4379   -1.6595    0.0000 C   0  0  0  0  0  0  0  0  0  0  0  0
    1.4379   -2.4863    0.0000 C   0  0  0  0  0  0  0  0  0  0  0  0
    2.1508   -2.0609    0.0000 C   0  0  0  0  0  0  0  0  0  0  0  0
    1.4379   -3.3010    0.0000 C   0  0  0  0  0  0  0  0  0  0  0  0
    0.7070   -2.0609    0.0000 C   0  0  0  0  0  0  0  0  0  0  0  0
    2.8577   -2.4863    0.0000 C   0  0  0  0  0  0  0  0  0  0  0  0
    2.1508   -1.2342    0.0000 C   0  0  0  0  0  0  0  0  0  0  0  0
    0.7070   -3.7084    0.0000 C   0  0  0  0  0  0  0  0  0  0  0  0
    2.1508   -3.7084    0.0000 C   0  0  0  0  0  0  0  0  0  0  0  0
    0.0000   -2.4863    0.0000 C   0  0  0  0  0  0  0  0  0  0  0  0
    2.8577   -3.3010    0.0000 C   0  0  0  0  0  0  0  0  0  0  0  0
    3.5646   -2.0609    0.0000 C   0  0  0  0  0  0  0  0  0  0  0  0
    2.8577   -0.8388    0.0000 C   0  0  0  0  0  0  0  0  0  0  0  0
    1.1323   -4.4273    0.0000 C   0  0  0  0  0  0  0  0  0  0  0  0
    0.3056   -4.4273    0.0000 C   0  0  0  0  0  0  0  0  0  0  0  0
    0.0000   -3.3010    0.0000 C   0  0  0  0  0  0  0  0  0  0  0  0
    3.5646   -1.2342    0.0000 C   0  0  0  0  0  0  0  0  0  0  0  0
    0.7189   -5.1463    0.0000 N   0  0  0  0  0  0  0  0  0  0  0  0
    4.2955   -0.8388    0.0000 C   0  0  0  0  0  0  0  0  0  0  0  0
    5.0085   -1.2342    0.0000 C   0  0  0  0  0  0  0  0  0  0  0  0
    4.2955    0.0000    0.0000 C   0  0  0  0  0  0  0  0  0  0  0  0
  1  2  1  0
  2  3  1  0
  2  4  2  0
  6  5  1  1
  6  7  1  0
  6  8  1  0
  6  9  1  0
  7 10  2  0
  7 11  1  0
  8 12  1  0
  8 13  1  1
  9 14  1  0
 10 15  1  0
 10 16  1  0
 11 17  2  0
 12 18  1  0
 12 19  1  1
 12 20  1  0
 13 15  1  0
 14 20  1  0
 16 21  2  0
 17 21  1  0
 18 22  1  0
 21 23  1  0
 23 24  1  0
 23 25  1  0
M  END
