N1050-mol1050.cdx.3996
     RDKit          2D

 66 72  0  0  0  0  0  0  0  0999 V2000
    7.0109    1.1767    0.0000 C   0  0  0  0  0  0  0  0  0  0  0  0
    8.2060    0.2703    0.0000 C   0  0  0  0  0  0  0  0  0  0  0  0
    8.0185   -1.2180    0.0000 C   0  0  0  0  0  0  0  0  0  0  0  0
    6.6359   -1.7997    0.0000 C   0  0  0  0  0  0  0  0  0  0  0  0
    5.4408   -0.8932    0.0000 C   0  0  0  0  0  0  0  0  0  0  0  0
    5.6283    0.5950    0.0000 C   0  0  0  0  0  0  0  0  0  0  0  0
    3.9674   -1.1748    0.0000 O   0  0  0  0  0  0  0  0  0  0  0  0
    2.6626    1.5220    0.0000 C   0  0  0  0  0  0  0  0  0  0  0  0
    3.2444    0.1394    0.0000 C   0  0  0  0  0  0  0  0  0  0  0  0
    4.2708    1.2332    0.0000 C   0  0  0  0  0  0  0  0  0  0  0  0
    4.1709    2.7299    0.0000 O   0  0  0  0  0  0  0  0  0  0  0  0
    1.1744    1.7095    0.0000 C   0  0  0  0  0  0  0  0  0  0  0  0
    0.2679    0.5144    0.0000 C   0  0  0  0  0  0  0  0  0  0  0  0
    0.8496   -0.8682    0.0000 C   0  0  0  0  0  0  0  0  0  0  0  0
    2.3379   -1.0557    0.0000 C   0  0  0  0  0  0  0  0  0  0  0  0
    2.9196   -2.4383    0.0000 O   0  0  0  0  0  0  0  0  0  0  0  0
    0.4284    3.0108    0.0000 O   0  0  0  0  0  0  0  0  0  0  0  0
   -1.2268    0.3883    0.0000 C   0  0  0  0  0  0  0  0  0  0  0  0
   -1.5688   -1.0722    0.0000 C   0  0  0  0  0  0  0  0  0  0  0  0
   -0.2855   -1.8488    0.0000 C   0  0  0  0  0  0  0  0  0  0  0  0
   -2.0617    1.6345    0.0000 O   0  0  0  0  0  0  0  0  0  0  0  0
   -2.6757   -0.0358    0.0000 C   0  0  0  0  0  0  0  0  0  0  0  0
   -3.8708    0.8707    0.0000 O   0  0  0  0  0  0  0  0  0  0  0  0
   -5.2534    0.2889    0.0000 C   0  0  0  0  0  0  0  0  0  0  0  0
   -5.4409   -1.1993    0.0000 C   0  0  0  0  0  0  0  0  0  0  0  0
   -4.2458   -2.1058    0.0000 C   0  0  0  0  0  0  0  0  0  0  0  0
   -2.8632   -1.5240    0.0000 C   0  0  0  0  0  0  0  0  0  0  0  0
   -6.4485    1.1954    0.0000 C   0  0  0  0  0  0  0  0  0  0  0  0
   -7.8311    0.6137    0.0000 C   0  0  0  0  0  0  0  0  0  0  0  0
   -8.0186   -0.8746    0.0000 C   0  0  0  0  0  0  0  0  0  0  0  0
   -6.8235   -1.7811    0.0000 C   0  0  0  0  0  0  0  0  0  0  0  0
   -4.4333   -3.5940    0.0000 O   0  0  0  0  0  0  0  0  0  0  0  0
   -7.0110   -3.2693    0.0000 O   0  0  0  0  0  0  0  0  0  0  0  0
    7.1983    2.6650    0.0000 O   0  0  0  0  0  0  0  0  0  0  0  0
   -1.6681   -2.4305    0.0000 C   0  0  0  0  0  0  0  0  0  0  0  0
   -1.8556   -3.9188    0.0000 O   0  0  0  0  0  0  0  0  0  0  0  0
   -9.0263    1.5202    0.0000 C   0  0  0  0  0  0  0  0  0  0  0  0
   -2.6711    1.4642    0.0000 C   0  0  0  0  0  0  0  0  0  0  0  0
    9.2136   -2.1245    0.0000 C   0  0  0  0  0  0  0  0  0  0  0  0
    2.5888    3.0202    0.0000 C   0  0  0  0  0  0  0  0  0  0  0  0
    9.5886    0.8520    0.0000 H   0  0  0  0  0  0  0  0  0  0  0  0
    6.4484   -3.2880    0.0000 H   0  0  0  0  0  0  0  0  0  0  0  0
    3.9087    2.3570    0.0000 H   0  0  0  0  0  0  0  0  0  0  0  0
   -0.4552    1.8286    0.0000 H   0  0  0  0  0  0  0  0  0  0  0  0
    1.2837   -2.3041    0.0000 H   0  0  0  0  0  0  0  0  0  0  0  0
   -3.0627   -0.9368    0.0000 H   0  0  0  0  0  0  0  0  0  0  0  0
   -2.5165   -2.2349    0.0000 H   0  0  0  0  0  0  0  0  0  0  0  0
   -0.1595   -3.3435    0.0000 H   0  0  0  0  0  0  0  0  0  0  0  0
   -1.5580    2.8882    0.0000 H   0  0  0  0  0  0  0  0  0  0  0  0
   -6.2611    2.6837    0.0000 H   0  0  0  0  0  0  0  0  0  0  0  0
   -9.4012   -1.4563    0.0000 H   0  0  0  0  0  0  0  0  0  0  0  0
   -8.3936   -3.8510    0.0000 H   0  0  0  0  0  0  0  0  0  0  0  0
    8.5809    3.2467    0.0000 H   0  0  0  0  0  0  0  0  0  0  0  0
   -0.6605   -4.8252    0.0000 H   0  0  0  0  0  0  0  0  0  0  0  0
  -10.4088    0.9384    0.0000 H   0  0  0  0  0  0  0  0  0  0  0  0
   -9.8393    2.7807    0.0000 H   0  0  0  0  0  0  0  0  0  0  0  0
   -7.9260    2.5397    0.0000 H   0  0  0  0  0  0  0  0  0  0  0  0
   -3.6834    2.3589    0.0000 H   0  0  0  0  0  0  0  0  0  0  0  0
   -1.9708    2.8827    0.0000 H   0  0  0  0  0  0  0  0  0  0  0  0
   -0.9931    1.4139    0.0000 H   0  0  0  0  0  0  0  0  0  0  0  0
    9.0261   -3.6127    0.0000 H   0  0  0  0  0  0  0  0  0  0  0  0
   10.6467   -2.5675    0.0000 H   0  0  0  0  0  0  0  0  0  0  0  0
    9.8988   -0.7901    0.0000 H   0  0  0  0  0  0  0  0  0  0  0  0
    3.8494    3.8332    0.0000 H   0  0  0  0  0  0  0  0  0  0  0  0
    2.0071    4.4028    0.0000 H   0  0  0  0  0  0  0  0  0  0  0  0
    1.0965    2.8681    0.0000 H   0  0  0  0  0  0  0  0  0  0  0  0
 29 37  1  0
 22 38  1  0
  3 39  1  0
  8 40  1  0
  1  2  2  0
  2  3  1  0
  3  4  2  0
  4  5  1  0
  5  6  2  0
  1  6  1  0
  5  7  1  0
  8  9  1  0
  9 10  1  0
  6 10  1  0
 10 11  2  0
  8 12  1  0
 12 13  1  0
 13 14  1  0
 14 15  1  0
  9 15  1  0
 15 16  2  0
 12 17  2  0
 13 18  1  0
 18 19  1  0
 19 20  1  0
 14 20  1  0
 18 21  1  0
 22 23  1  0
 23 24  1  0
 24 25  2  0
 25 26  1  0
 26 27  1  0
 22 27  1  0
 24 28  1  0
 28 29  2  0
 29 30  1  0
 30 31  2  0
 25 31  1  0
 26 32  2  0
 31 33  1  0
  1 34  1  0
 27 35  2  0
 20 35  1  0
 18 22  1  0
 35 36  1  0
  7  9  1  0
  2 41  1  0
  4 42  1  0
  8 43  1  0
 13 44  1  0
 14 45  1  0
 19 46  1  0
 19 47  1  0
 20 48  1  0
 21 49  1  0
 28 50  1  0
 30 51  1  0
 33 52  1  0
 34 53  1  0
 36 54  1  0
 37 55  1  0
 37 56  1  0
 37 57  1  0
 38 58  1  0
 38 59  1  0
 38 60  1  0
 39 61  1  0
 39 62  1  0
 39 63  1  0
 40 64  1  0
 40 65  1  0
 40 66  1  0
M  END
