NCGC00168247-01
     RDKit          2D

 31 30  0  0  1  0  0  0  0  0999 V2000
    0.7146   -0.4183    0.0000 C   0  0  0  0  0  0  0  0  0  0  0  0
    0.7146   -1.2433    0.0000 C   0  0  0  0  0  0  0  0  0  0  0  0
    0.0000   -1.6500    0.0000 N   0  0  0  0  0  0  0  0  0  0  0  0
    1.4350   -1.6500    0.0000 C   0  0  0  0  0  0  0  0  0  0  0  0
    2.1496   -1.2433    0.0000 C   0  0  0  0  0  0  0  0  0  0  0  0
    2.1496   -0.4183    0.0000 C   0  0  0  0  0  0  0  0  0  0  0  0
    2.8642    0.0000    0.0000 C   0  0  0  0  0  0  0  0  0  0  0  0
    3.5788   -0.4183    0.0000 C   0  0  0  0  0  0  0  0  0  0  0  0
    3.5788   -1.2433    0.0000 C   0  0  0  0  0  0  0  0  0  0  0  0
    2.8642   -1.6500    0.0000 C   0  0  0  0  0  0  0  0  0  0  0  0
    1.4350    0.0000    0.0000 H   0  0  0  0  0  0  0  0  0  0  0  0
    0.0000    0.0000    0.0000 H   0  0  0  0  0  0  0  0  0  0  0  0
    0.0000   -0.8250    0.0000 H   0  0  0  0  0  0  0  0  0  0  0  0
    0.7146   -4.5781    0.0000 C   0  0  0  0  0  0  0  0  0  0  0  0
    0.7146   -5.4031    0.0000 C   0  0  0  0  0  0  0  0  0  0  0  0
    0.0000   -5.8098    0.0000 N   0  0  0  0  0  0  0  0  0  0  0  0
    1.4350   -5.8098    0.0000 C   0  0  0  0  0  0  0  0  0  0  0  0
    2.1496   -5.4031    0.0000 C   0  0  0  0  0  0  0  0  0  0  0  0
    2.1496   -4.5781    0.0000 C   0  0  0  0  0  0  0  0  0  0  0  0
    2.8642   -4.1598    0.0000 C   0  0  0  0  0  0  0  0  0  0  0  0
    3.5788   -4.5781    0.0000 C   0  0  0  0  0  0  0  0  0  0  0  0
    3.5788   -5.4031    0.0000 C   0  0  0  0  0  0  0  0  0  0  0  0
    2.8642   -5.8098    0.0000 C   0  0  0  0  0  0  0  0  0  0  0  0
    1.4350   -4.1598    0.0000 H   0  0  0  0  0  0  0  0  0  0  0  0
    0.0000   -4.1598    0.0000 H   0  0  0  0  0  0  0  0  0  0  0  0
    0.0000   -4.9848    0.0000 H   0  0  0  0  0  0  0  0  0  0  0  0
    1.8998   -2.8933    0.0000 S   0  0  0  0  0  0  0  0  0  0  0  0
    2.7248   -2.8933    0.0000 O   0  0  0  0  0  0  0  0  0  0  0  0
    1.0748   -2.8933    0.0000 O   0  0  0  0  0  0  0  0  0  0  0  0
    1.8998   -3.7183    0.0000 O   0  0  0  0  0  0  0  0  0  0  0  0
    1.8998   -2.0683    0.0000 O   0  0  0  0  0  0  0  0  0  0  0  0
  1  2  1  0
  1 11  1  0
  1 12  1  0
  1 13  1  0
  2  3  1  1
  2  4  1  0
  4  5  1  0
  5  6  2  0
  5 10  1  0
  6  7  1  0
  7  8  2  0
  8  9  1  0
  9 10  2  0
 14 15  1  0
 14 24  1  0
 14 25  1  0
 14 26  1  0
 15 16  1  1
 15 17  1  0
 17 18  1  0
 18 19  2  0
 18 23  1  0
 19 20  1  0
 20 21  2  0
 21 22  1  0
 22 23  2  0
 27 28  2  0
 27 29  2  0
 27 30  1  0
 27 31  1  0
M  ISO  6  11   2  12   2  13   2  24   2  25   2  26   2
M  END
