
     RDKit          2D

310318  0  0  0  0  0  0  0  0999 V2000
   24.8881   -0.7491    0.0000 C   0  0  0  0  0  0  0  0  0  0  0  0
   26.1988   -0.0197    0.0000 N   0  0  0  0  0  0  0  0  0  0  0  0
   27.4858   -0.7902    0.0000 C   0  0  0  0  0  0  0  0  0  0  0  0
   27.4621   -2.2900    0.0000 C   0  0  0  0  0  0  0  0  0  0  0  0
   28.7492   -3.0604    0.0000 C   0  0  0  0  0  0  0  0  0  0  0  0
   30.0599   -2.3310    0.0000 C   0  0  0  0  0  0  0  0  0  0  0  0
   30.0836   -0.8312    0.0000 C   0  0  0  0  0  0  0  0  0  0  0  0
   28.7966   -0.0608    0.0000 C   0  0  0  0  0  0  0  0  0  0  0  0
   31.5173   -0.3903    0.0000 C   0  0  0  0  0  0  0  0  0  0  0  0
   32.3797   -1.6176    0.0000 O   0  0  0  0  0  0  0  0  0  0  0  0
   31.4790   -2.8170    0.0000 C   0  0  0  0  0  0  0  0  0  0  0  0
   31.9199   -4.2507    0.0000 O   0  0  0  0  0  0  0  0  0  0  0  0
   32.9893   -0.1016    0.0000 C   0  0  0  0  0  0  0  0  0  0  0  0
   33.4753    1.3175    0.0000 C   0  0  0  0  0  0  0  0  0  0  0  0
   34.9472    1.6061    0.0000 C   0  0  0  0  0  0  0  0  0  0  0  0
   35.9332    0.4757    0.0000 C   0  0  0  0  0  0  0  0  0  0  0  0
   35.4472   -0.9434    0.0000 C   0  0  0  0  0  0  0  0  0  0  0  0
   33.9752   -1.2321    0.0000 C   0  0  0  0  0  0  0  0  0  0  0  0
   37.4052    0.7643    0.0000 O   0  0  0  0  0  0  0  0  0  0  0  0
   32.4893    2.4479    0.0000 O   0  0  0  0  0  0  0  0  0  0  0  0
   31.0173    2.1592    0.0000 C   0  0  0  0  0  0  0  0  0  0  0  0
   30.5313    0.7402    0.0000 C   0  0  0  0  0  0  0  0  0  0  0  0
   29.2862    1.1138    0.0000 C   0  0  0  0  0  0  0  0  0  0  0  0
   28.7603    1.7167    0.0000 C   0  0  0  0  0  0  0  0  0  0  0  0
   29.0195    2.4735    0.0000 C   0  0  0  0  0  0  0  0  0  0  0  0
   29.8046    2.6274    0.0000 C   0  0  0  0  0  0  0  0  0  0  0  0
   27.5735    4.1315    0.0000 O   0  0  0  0  0  0  0  0  0  0  0  0
   24.8644   -2.2489    0.0000 S   0  0  0  0  0  0  0  0  0  0  0  0
   23.6010    0.0213    0.0000 N   0  0  0  0  0  0  0  0  0  0  0  0
   22.2903   -0.7081    0.0000 C   0  0  0  0  0  0  0  0  0  0  0  0
   21.0033    0.0623    0.0000 C   0  0  0  0  0  0  0  0  0  0  0  0
   19.6926   -0.6670    0.0000 C   0  0  0  0  0  0  0  0  0  0  0  0
   19.6689   -2.1668    0.0000 O   0  0  0  0  0  0  0  0  0  0  0  0
   18.4055    0.1034    0.0000 N   0  0  0  0  0  0  0  0  0  0  0  0
   17.0948   -0.6260    0.0000 C   0  0  0  0  0  0  0  0  0  0  0  0
   16.1126   -1.7597    0.0000 C   0  0  0  0  0  0  0  0  0  0  0  0
   14.6397   -1.4759    0.0000 C   0  0  0  0  0  0  0  0  0  0  0  0
   13.6575   -2.6096    0.0000 C   0  0  0  0  0  0  0  0  0  0  0  0
   12.1846   -2.3258    0.0000 C   0  0  0  0  0  0  0  0  0  0  0  0
   11.2024   -3.4595    0.0000 N   0  0  0  0  0  0  0  0  0  0  0  0
   15.8078    0.1444    0.0000 C   0  0  0  0  0  0  0  0  0  0  0  0
   15.8315    1.6442    0.0000 O   0  0  0  0  0  0  0  0  0  0  0  0
   14.4971   -0.5850    0.0000 N   0  0  0  0  0  0  0  0  0  0  0  0
   13.2100    0.1855    0.0000 C   0  0  0  0  0  0  0  0  0  0  0  0
   12.2641    1.3496    0.0000 C   0  0  0  0  0  0  0  0  0  0  0  0
   12.7994    2.7509    0.0000 C   0  0  0  0  0  0  0  0  0  0  0  0
   11.8535    3.9150    0.0000 C   0  0  0  0  0  0  0  0  0  0  0  0
   12.3887    5.3163    0.0000 N   0  0  0  0  0  0  0  0  0  0  0  0
   10.3723    3.6779    0.0000 O   0  0  0  0  0  0  0  0  0  0  0  0
   11.8993   -0.5439    0.0000 C   0  0  0  0  0  0  0  0  0  0  0  0
   11.5867   -1.7180    0.0000 O   0  0  0  0  0  0  0  0  0  0  0  0
   10.6123    0.2265    0.0000 N   0  0  0  0  0  0  0  0  0  0  0  0
    9.3016   -0.5029    0.0000 C   0  0  0  0  0  0  0  0  0  0  0  0
    8.3194   -1.6366    0.0000 C   0  0  0  0  0  0  0  0  0  0  0  0
    6.8464   -1.3528    0.0000 C   0  0  0  0  0  0  0  0  0  0  0  0
    5.8642   -2.4865    0.0000 C   0  0  0  0  0  0  0  0  0  0  0  0
    4.3913   -2.2027    0.0000 C   0  0  0  0  0  0  0  0  0  0  0  0
    3.4091   -3.3364    0.0000 N   0  0  0  0  0  0  0  0  0  0  0  0
    8.0145    0.2676    0.0000 C   0  0  0  0  0  0  0  0  0  0  0  0
    8.0382    1.7674    0.0000 O   0  0  0  0  0  0  0  0  0  0  0  0
    6.7038   -0.4618    0.0000 N   0  0  0  0  0  0  0  0  0  0  0  0
    5.4168    0.3086    0.0000 C   0  0  0  0  0  0  0  0  0  0  0  0
    4.4709    1.4728    0.0000 C   0  0  0  0  0  0  0  0  0  0  0  0
    5.0061    2.8740    0.0000 C   0  0  0  0  0  0  0  0  0  0  0  0
    4.0602    4.0382    0.0000 C   0  0  0  0  0  0  0  0  0  0  0  0
    4.5954    5.4394    0.0000 N   0  0  0  0  0  0  0  0  0  0  0  0
    3.6495    6.6036    0.0000 C   0  0  0  0  0  0  0  0  0  0  0  0
    4.1848    8.0048    0.0000 N   0  0  0  0  0  0  0  0  0  0  0  0
    2.1684    6.3665    0.0000 N   0  0  0  0  0  0  0  0  0  0  0  0
    4.1061   -0.4208    0.0000 C   0  0  0  0  0  0  0  0  0  0  0  0
    3.7935   -1.5949    0.0000 O   0  0  0  0  0  0  0  0  0  0  0  0
    2.8190    0.3496    0.0000 N   0  0  0  0  0  0  0  0  0  0  0  0
    1.5083   -0.3797    0.0000 C   0  0  0  0  0  0  0  0  0  0  0  0
    0.5261   -1.5134    0.0000 C   0  0  0  0  0  0  0  0  0  0  0  0
   -0.9468   -1.2297    0.0000 C   0  0  0  0  0  0  0  0  0  0  0  0
   -1.9290   -2.3634    0.0000 C   0  0  0  0  0  0  0  0  0  0  0  0
   -3.4019   -2.0796    0.0000 C   0  0  0  0  0  0  0  0  0  0  0  0
   -4.3842   -3.2133    0.0000 N   0  0  0  0  0  0  0  0  0  0  0  0
    0.2213    0.3907    0.0000 C   0  0  0  0  0  0  0  0  0  0  0  0
    0.4276    1.8764    0.0000 O   0  0  0  0  0  0  0  0  0  0  0  0
   -1.0894   -0.3387    0.0000 N   0  0  0  0  0  0  0  0  0  0  0  0
   -2.3765    0.4317    0.0000 C   0  0  0  0  0  0  0  0  0  0  0  0
   -3.3224    1.5959    0.0000 C   0  0  0  0  0  0  0  0  0  0  0  0
   -2.7872    2.9971    0.0000 C   0  0  0  0  0  0  0  0  0  0  0  0
   -1.3060    3.2342    0.0000 C   0  0  0  0  0  0  0  0  0  0  0  0
   -0.7708    4.6355    0.0000 C   0  0  0  0  0  0  0  0  0  0  0  0
   -1.7167    5.7997    0.0000 C   0  0  0  0  0  0  0  0  0  0  0  0
   -3.1978    5.5625    0.0000 C   0  0  0  0  0  0  0  0  0  0  0  0
   -3.7331    4.1613    0.0000 C   0  0  0  0  0  0  0  0  0  0  0  0
   -3.6872   -0.2977    0.0000 C   0  0  0  0  0  0  0  0  0  0  0  0
   -3.9998   -1.4718    0.0000 O   0  0  0  0  0  0  0  0  0  0  0  0
   -4.9742    0.4728    0.0000 N   0  0  0  0  0  0  0  0  0  0  0  0
   -6.2849   -0.2566    0.0000 C   0  0  0  0  0  0  0  0  0  0  0  0
   -7.2672   -1.3903    0.0000 C   0  0  0  0  0  0  0  0  0  0  0  0
   -8.7008   -1.8314    0.0000 O   0  0  0  0  0  0  0  0  0  0  0  0
   -7.5720    0.5138    0.0000 C   0  0  0  0  0  0  0  0  0  0  0  0
   -7.3656    1.9995    0.0000 O   0  0  0  0  0  0  0  0  0  0  0  0
   -8.8827   -0.2156    0.0000 N   0  0  0  0  0  0  0  0  0  0  0  0
  -10.1697    0.5548    0.0000 C   0  0  0  0  0  0  0  0  0  0  0  0
  -10.4437    2.0296    0.0000 C   0  0  0  0  0  0  0  0  0  0  0  0
  -11.1402    3.3581    0.0000 C   0  0  0  0  0  0  0  0  0  0  0  0
  -12.1973    4.4223    0.0000 C   0  0  0  0  0  0  0  0  0  0  0  0
  -13.5211    5.1276    0.0000 C   0  0  0  0  0  0  0  0  0  0  0  0
   -8.8430    1.2546    0.0000 C   0  0  0  0  0  0  0  0  0  0  0  0
  -10.3426   -0.9352    0.0000 C   0  0  0  0  0  0  0  0  0  0  0  0
   -9.5694   -1.3672    0.0000 O   0  0  0  0  0  0  0  0  0  0  0  0
  -10.9471   -2.3080    0.0000 N   0  0  0  0  0  0  0  0  0  0  0  0
  -11.9293   -3.4417    0.0000 C   0  0  0  0  0  0  0  0  0  0  0  0
  -11.7292   -4.9283    0.0000 C   0  0  0  0  0  0  0  0  0  0  0  0
  -10.3417   -5.4983    0.0000 C   0  0  0  0  0  0  0  0  0  0  0  0
  -10.1416   -6.9849    0.0000 C   0  0  0  0  0  0  0  0  0  0  0  0
   -8.7541   -7.5549    0.0000 C   0  0  0  0  0  0  0  0  0  0  0  0
   -7.5667   -6.6383    0.0000 C   0  0  0  0  0  0  0  0  0  0  0  0
   -7.7668   -5.1517    0.0000 C   0  0  0  0  0  0  0  0  0  0  0  0
   -9.1543   -4.5817    0.0000 C   0  0  0  0  0  0  0  0  0  0  0  0
  -13.2020   -4.2355    0.0000 C   0  0  0  0  0  0  0  0  0  0  0  0
  -12.6067   -5.6123    0.0000 O   0  0  0  0  0  0  0  0  0  0  0  0
  -14.6522   -4.6189    0.0000 N   0  0  0  0  0  0  0  0  0  0  0  0
  -16.1509   -4.5578    0.0000 C   0  0  0  0  0  0  0  0  0  0  0  0
  -17.1884   -5.6411    0.0000 C   0  0  0  0  0  0  0  0  0  0  0  0
  -16.7690   -7.0813    0.0000 C   0  0  0  0  0  0  0  0  0  0  0  0
  -17.8065   -8.1646    0.0000 C   0  0  0  0  0  0  0  0  0  0  0  0
  -17.3871   -9.6048    0.0000 C   0  0  0  0  0  0  0  0  0  0  0  0
  -15.9301   -9.9616    0.0000 C   0  0  0  0  0  0  0  0  0  0  0  0
  -14.8926   -8.8783    0.0000 C   0  0  0  0  0  0  0  0  0  0  0  0
  -15.3121   -7.4382    0.0000 C   0  0  0  0  0  0  0  0  0  0  0  0
  -17.5651   -4.0577    0.0000 C   0  0  0  0  0  0  0  0  0  0  0  0
  -18.2704   -5.3815    0.0000 O   0  0  0  0  0  0  0  0  0  0  0  0
  -18.7690   -3.1629    0.0000 N   0  0  0  0  0  0  0  0  0  0  0  0
  -19.6557   -1.9531    0.0000 C   0  0  0  0  0  0  0  0  0  0  0  0
  -21.1496   -1.8174    0.0000 C   0  0  0  0  0  0  0  0  0  0  0  0
  -22.0140   -3.0432    0.0000 C   0  0  0  0  0  0  0  0  0  0  0  0
  -23.5079   -2.9075    0.0000 C   0  0  0  0  0  0  0  0  0  0  0  0
  -24.3723   -4.1334    0.0000 C   0  0  0  0  0  0  0  0  0  0  0  0
  -25.8662   -3.9977    0.0000 N   0  0  0  0  0  0  0  0  0  0  0  0
  -20.1464   -0.5356    0.0000 C   0  0  0  0  0  0  0  0  0  0  0  0
  -21.6212   -0.8096    0.0000 O   0  0  0  0  0  0  0  0  0  0  0  0
  -20.1975    0.9635    0.0000 N   0  0  0  0  0  0  0  0  0  0  0  0
  -19.8045    2.4111    0.0000 C   0  0  0  0  0  0  0  0  0  0  0  0
  -19.0022    3.6785    0.0000 C   0  0  0  0  0  0  0  0  0  0  0  0
  -17.8620    4.6532    0.0000 C   0  0  0  0  0  0  0  0  0  0  0  0
  -16.4852    5.2484    0.0000 C   0  0  0  0  0  0  0  0  0  0  0  0
  -14.9940    5.4114    0.0000 C   0  0  0  0  0  0  0  0  0  0  0  0
  -21.2856    2.1740    0.0000 C   0  0  0  0  0  0  0  0  0  0  0  0
  -20.6298    3.6636    0.0000 C   0  0  0  0  0  0  0  0  0  0  0  0
  -20.3021    5.1274    0.0000 O   0  0  0  0  0  0  0  0  0  0  0  0
  -22.1272    3.5752    0.0000 N   0  0  0  0  0  0  0  0  0  0  0  0
  -22.9525    4.8277    0.0000 C   0  0  0  0  0  0  0  0  0  0  0  0
  -23.2996    6.2870    0.0000 C   0  0  0  0  0  0  0  0  0  0  0  0
  -22.2094    7.3173    0.0000 C   0  0  0  0  0  0  0  0  0  0  0  0
  -22.5565    8.7766    0.0000 C   0  0  0  0  0  0  0  0  0  0  0  0
  -20.8325    7.9125    0.0000 C   0  0  0  0  0  0  0  0  0  0  0  0
  -24.4498    4.7393    0.0000 C   0  0  0  0  0  0  0  0  0  0  0  0
  -25.4217    5.8819    0.0000 O   0  0  0  0  0  0  0  0  0  0  0  0
  -25.1219    3.3983    0.0000 O   0  0  0  0  0  0  0  0  0  0  0  0
   26.0395    1.4718    0.0000 H   0  0  0  0  0  0  0  0  0  0  0  0
   26.1514   -3.0194    0.0000 H   0  0  0  0  0  0  0  0  0  0  0  0
   28.7255   -4.5602    0.0000 H   0  0  0  0  0  0  0  0  0  0  0  0
   28.5487    1.0043    0.0000 H   0  0  0  0  0  0  0  0  0  0  0  0
   35.4332    3.0252    0.0000 H   0  0  0  0  0  0  0  0  0  0  0  0
   36.4332   -2.0738    0.0000 H   0  0  0  0  0  0  0  0  0  0  0  0
   33.4892   -2.6511    0.0000 H   0  0  0  0  0  0  0  0  0  0  0  0
   38.3911   -0.3661    0.0000 H   0  0  0  0  0  0  0  0  0  0  0  0
   28.5734   -0.9676    0.0000 H   0  0  0  0  0  0  0  0  0  0  0  0
   26.5772    1.4749    0.0000 H   0  0  0  0  0  0  0  0  0  0  0  0
   30.5174    4.7088    0.0000 H   0  0  0  0  0  0  0  0  0  0  0  0
   28.0595    5.5505    0.0000 H   0  0  0  0  0  0  0  0  0  0  0  0
   23.6247    1.5211    0.0000 H   0  0  0  0  0  0  0  0  0  0  0  0
   21.3081   -1.8418    0.0000 H   0  0  0  0  0  0  0  0  0  0  0  0
   23.2362   -1.8722    0.0000 H   0  0  0  0  0  0  0  0  0  0  0  0
   20.0574    1.2265    0.0000 H   0  0  0  0  0  0  0  0  0  0  0  0
   21.9855    1.1960    0.0000 H   0  0  0  0  0  0  0  0  0  0  0  0
   18.4292    1.6032    0.0000 H   0  0  0  0  0  0  0  0  0  0  0  0
   18.0407   -1.7901    0.0000 H   0  0  0  0  0  0  0  0  0  0  0  0
   15.7522   -3.2157    0.0000 H   0  0  0  0  0  0  0  0  0  0  0  0
   17.3996   -2.5301    0.0000 H   0  0  0  0  0  0  0  0  0  0  0  0
   13.4562   -0.5543    0.0000 H   0  0  0  0  0  0  0  0  0  0  0  0
   14.4543    0.0126    0.0000 H   0  0  0  0  0  0  0  0  0  0  0  0
   13.2970   -4.0657    0.0000 H   0  0  0  0  0  0  0  0  0  0  0  0
   14.8410   -3.5312    0.0000 H   0  0  0  0  0  0  0  0  0  0  0  0
   10.8132   -1.7180    0.0000 H   0  0  0  0  0  0  0  0  0  0  0  0
   12.5450   -0.8698    0.0000 H   0  0  0  0  0  0  0  0  0  0  0  0
    9.7750   -2.9983    0.0000 H   0  0  0  0  0  0  0  0  0  0  0  0
   10.6671   -4.8608    0.0000 H   0  0  0  0  0  0  0  0  0  0  0  0
   12.3859   -4.3811    0.0000 H   0  0  0  0  0  0  0  0  0  0  0  0
   14.1112   -2.0345    0.0000 H   0  0  0  0  0  0  0  0  0  0  0  0
   14.3231    1.1910    0.0000 H   0  0  0  0  0  0  0  0  0  0  0  0
   11.0806    2.2712    0.0000 H   0  0  0  0  0  0  0  0  0  0  0  0
   11.0368    0.4873    0.0000 H   0  0  0  0  0  0  0  0  0  0  0  0
   13.7816    3.8846    0.0000 H   0  0  0  0  0  0  0  0  0  0  0  0
   14.1707    2.1431    0.0000 H   0  0  0  0  0  0  0  0  0  0  0  0
   11.4428    6.4805    0.0000 H   0  0  0  0  0  0  0  0  0  0  0  0
   13.8698    5.5534    0.0000 H   0  0  0  0  0  0  0  0  0  0  0  0
   10.4530    1.7180    0.0000 H   0  0  0  0  0  0  0  0  0  0  0  0
   10.0985   -1.7736    0.0000 H   0  0  0  0  0  0  0  0  0  0  0  0
    7.9589   -3.0926    0.0000 H   0  0  0  0  0  0  0  0  0  0  0  0
    9.6907   -2.2444    0.0000 H   0  0  0  0  0  0  0  0  0  0  0  0
    5.6629   -0.4312    0.0000 H   0  0  0  0  0  0  0  0  0  0  0  0
    6.6610    0.1357    0.0000 H   0  0  0  0  0  0  0  0  0  0  0  0
    5.5038   -3.9425    0.0000 H   0  0  0  0  0  0  0  0  0  0  0  0
    7.0477   -3.4080    0.0000 H   0  0  0  0  0  0  0  0  0  0  0  0
    3.0200   -1.5949    0.0000 H   0  0  0  0  0  0  0  0  0  0  0  0
    4.7517   -0.7467    0.0000 H   0  0  0  0  0  0  0  0  0  0  0  0
    1.9818   -2.8752    0.0000 H   0  0  0  0  0  0  0  0  0  0  0  0
    2.8739   -4.7377    0.0000 H   0  0  0  0  0  0  0  0  0  0  0  0
    4.5926   -4.2580    0.0000 H   0  0  0  0  0  0  0  0  0  0  0  0
    6.3179   -1.9113    0.0000 H   0  0  0  0  0  0  0  0  0  0  0  0
    6.5299    1.3141    0.0000 H   0  0  0  0  0  0  0  0  0  0  0  0
    3.1838    2.2432    0.0000 H   0  0  0  0  0  0  0  0  0  0  0  0
    3.2435    0.6104    0.0000 H   0  0  0  0  0  0  0  0  0  0  0  0
    5.9883    4.0077    0.0000 H   0  0  0  0  0  0  0  0  0  0  0  0
    6.3774    2.2662    0.0000 H   0  0  0  0  0  0  0  0  0  0  0  0
    2.7732    4.8086    0.0000 H   0  0  0  0  0  0  0  0  0  0  0  0
    2.9471    3.0327    0.0000 H   0  0  0  0  0  0  0  0  0  0  0  0
    6.0766    5.6765    0.0000 H   0  0  0  0  0  0  0  0  0  0  0  0
    3.2388    9.1690    0.0000 H   0  0  0  0  0  0  0  0  0  0  0  0
    5.6659    8.2419    0.0000 H   0  0  0  0  0  0  0  0  0  0  0  0
    1.2225    7.5306    0.0000 H   0  0  0  0  0  0  0  0  0  0  0  0
    1.6331    4.9652    0.0000 H   0  0  0  0  0  0  0  0  0  0  0  0
    2.6597    1.8412    0.0000 H   0  0  0  0  0  0  0  0  0  0  0  0
    2.3053   -1.6505    0.0000 H   0  0  0  0  0  0  0  0  0  0  0  0
    0.1657   -2.9695    0.0000 H   0  0  0  0  0  0  0  0  0  0  0  0
    1.8974   -2.1212    0.0000 H   0  0  0  0  0  0  0  0  0  0  0  0
   -2.1303   -0.3081    0.0000 H   0  0  0  0  0  0  0  0  0  0  0  0
   -1.1322    0.2588    0.0000 H   0  0  0  0  0  0  0  0  0  0  0  0
   -2.2895   -3.8194    0.0000 H   0  0  0  0  0  0  0  0  0  0  0  0
   -0.7455   -3.2849    0.0000 H   0  0  0  0  0  0  0  0  0  0  0  0
   -4.7733   -1.4718    0.0000 H   0  0  0  0  0  0  0  0  0  0  0  0
   -3.0415   -0.6235    0.0000 H   0  0  0  0  0  0  0  0  0  0  0  0
   -5.8115   -2.7521    0.0000 H   0  0  0  0  0  0  0  0  0  0  0  0
   -4.9194   -4.6145    0.0000 H   0  0  0  0  0  0  0  0  0  0  0  0
   -3.2006   -4.1348    0.0000 H   0  0  0  0  0  0  0  0  0  0  0  0
   -1.4754   -1.7882    0.0000 H   0  0  0  0  0  0  0  0  0  0  0  0
   -1.3943    1.5654    0.0000 H   0  0  0  0  0  0  0  0  0  0  0  0
   -4.5059    2.5174    0.0000 H   0  0  0  0  0  0  0  0  0  0  0  0
   -4.5497    0.7335    0.0000 H   0  0  0  0  0  0  0  0  0  0  0  0
   -0.2252    2.1941    0.0000 H   0  0  0  0  0  0  0  0  0  0  0  0
    0.7104    4.8726    0.0000 H   0  0  0  0  0  0  0  0  0  0  0  0
   -1.1815    7.2009    0.0000 H   0  0  0  0  0  0  0  0  0  0  0  0
   -4.1437    6.7267    0.0000 H   0  0  0  0  0  0  0  0  0  0  0  0
   -5.2142    3.9242    0.0000 H   0  0  0  0  0  0  0  0  0  0  0  0
   -5.1335    1.9643    0.0000 H   0  0  0  0  0  0  0  0  0  0  0  0
   -5.4880   -1.5274    0.0000 H   0  0  0  0  0  0  0  0  0  0  0  0
   -7.8024   -2.7916    0.0000 H   0  0  0  0  0  0  0  0  0  0  0  0
   -5.8958   -1.9981    0.0000 H   0  0  0  0  0  0  0  0  0  0  0  0
   -9.6648   -2.3617    0.0000 H   0  0  0  0  0  0  0  0  0  0  0  0
   -8.9064   -1.7154    0.0000 H   0  0  0  0  0  0  0  0  0  0  0  0
   -8.9541    1.8530    0.0000 H   0  0  0  0  0  0  0  0  0  0  0  0
   -9.5192    3.2109    0.0000 H   0  0  0  0  0  0  0  0  0  0  0  0
   -9.7087    3.8063    0.0000 H   0  0  0  0  0  0  0  0  0  0  0  0
  -10.4381    4.6837    0.0000 H   0  0  0  0  0  0  0  0  0  0  0  0
  -10.8671    5.1155    0.0000 H   0  0  0  0  0  0  0  0  0  0  0  0
  -12.0989    5.9191    0.0000 H   0  0  0  0  0  0  0  0  0  0  0  0
  -13.0210    6.5418    0.0000 H   0  0  0  0  0  0  0  0  0  0  0  0
   -8.6578    2.9102    0.0000 H   0  0  0  0  0  0  0  0  0  0  0  0
   -7.5639    1.9557    0.0000 H   0  0  0  0  0  0  0  0  0  0  0  0
   -8.0330    0.2146    0.0000 H   0  0  0  0  0  0  0  0  0  0  0  0
   -9.6796   -3.1103    0.0000 H   0  0  0  0  0  0  0  0  0  0  0  0
  -10.4919   -3.8707    0.0000 H   0  0  0  0  0  0  0  0  0  0  0  0
  -12.0496   -6.3937    0.0000 H   0  0  0  0  0  0  0  0  0  0  0  0
  -13.1982   -5.2317    0.0000 H   0  0  0  0  0  0  0  0  0  0  0  0
  -11.3290   -7.9015    0.0000 H   0  0  0  0  0  0  0  0  0  0  0  0
   -8.5540   -9.0415    0.0000 H   0  0  0  0  0  0  0  0  0  0  0  0
   -6.1792   -7.2083    0.0000 H   0  0  0  0  0  0  0  0  0  0  0  0
   -6.5795   -4.2351    0.0000 H   0  0  0  0  0  0  0  0  0  0  0  0
   -9.1717   -3.0818    0.0000 H   0  0  0  0  0  0  0  0  0  0  0  0
  -14.3087   -6.0790    0.0000 H   0  0  0  0  0  0  0  0  0  0  0  0
  -15.5902   -5.9491    0.0000 H   0  0  0  0  0  0  0  0  0  0  0  0
  -18.5339   -6.3043    0.0000 H   0  0  0  0  0  0  0  0  0  0  0  0
  -18.3415   -4.6818    0.0000 H   0  0  0  0  0  0  0  0  0  0  0  0
  -19.2634   -7.8078    0.0000 H   0  0  0  0  0  0  0  0  0  0  0  0
  -18.4246  -10.6881    0.0000 H   0  0  0  0  0  0  0  0  0  0  0  0
  -15.5107  -11.4018    0.0000 H   0  0  0  0  0  0  0  0  0  0  0  0
  -13.4357   -9.2352    0.0000 H   0  0  0  0  0  0  0  0  0  0  0  0
  -14.1502   -6.4894    0.0000 H   0  0  0  0  0  0  0  0  0  0  0  0
  -19.8332   -4.2201    0.0000 H   0  0  0  0  0  0  0  0  0  0  0  0
  -20.2292   -3.3392    0.0000 H   0  0  0  0  0  0  0  0  0  0  0  0
  -22.4190   -1.0182    0.0000 H   0  0  0  0  0  0  0  0  0  0  0  0
  -21.1185   -0.3177    0.0000 H   0  0  0  0  0  0  0  0  0  0  0  0
  -22.2277   -4.5279    0.0000 H   0  0  0  0  0  0  0  0  0  0  0  0
  -20.7446   -3.8424    0.0000 H   0  0  0  0  0  0  0  0  0  0  0  0
  -24.7773   -2.1084    0.0000 H   0  0  0  0  0  0  0  0  0  0  0  0
  -23.2942   -1.4228    0.0000 H   0  0  0  0  0  0  0  0  0  0  0  0
  -24.7654   -5.5810    0.0000 H   0  0  0  0  0  0  0  0  0  0  0  0
  -23.1029   -4.9325    0.0000 H   0  0  0  0  0  0  0  0  0  0  0  0
  -26.7306   -5.2235    0.0000 H   0  0  0  0  0  0  0  0  0  0  0  0
  -27.2235   -3.3592    0.0000 H   0  0  0  0  0  0  0  0  0  0  0  0
  -25.6525   -2.5130    0.0000 H   0  0  0  0  0  0  0  0  0  0  0  0
  -21.6875    1.1364    0.0000 H   0  0  0  0  0  0  0  0  0  0  0  0
  -19.4216    5.1187    0.0000 H   0  0  0  0  0  0  0  0  0  0  0  0
  -20.3925    4.2417    0.0000 H   0  0  0  0  0  0  0  0  0  0  0  0
  -18.0213    6.1447    0.0000 H   0  0  0  0  0  0  0  0  0  0  0  0
  -19.0245    5.6011    0.0000 H   0  0  0  0  0  0  0  0  0  0  0  0
  -16.0204    6.6746    0.0000 H   0  0  0  0  0  0  0  0  0  0  0  0
  -17.4626    6.3862    0.0000 H   0  0  0  0  0  0  0  0  0  0  0  0
  -14.9330    6.9101    0.0000 H   0  0  0  0  0  0  0  0  0  0  0  0
  -22.4851    3.0747    0.0000 H   0  0  0  0  0  0  0  0  0  0  0  0
  -22.4977    1.2903    0.0000 H   0  0  0  0  0  0  0  0  0  0  0  0
  -21.1525    0.6799    0.0000 H   0  0  0  0  0  0  0  0  0  0  0  0
  -22.9577    2.3261    0.0000 H   0  0  0  0  0  0  0  0  0  0  0  0
  -21.5133    5.2507    0.0000 H   0  0  0  0  0  0  0  0  0  0  0  0
  -24.2714    7.4296    0.0000 H   0  0  0  0  0  0  0  0  0  0  0  0
  -24.7387    5.8640    0.0000 H   0  0  0  0  0  0  0  0  0  0  0  0
  -21.2375    6.1747    0.0000 H   0  0  0  0  0  0  0  0  0  0  0  0
  -21.6000    9.9320    0.0000 H   0  0  0  0  0  0  0  0  0  0  0  0
  -23.3818   10.0291    0.0000 H   0  0  0  0  0  0  0  0  0  0  0  0
  -23.9956    8.3536    0.0000 H   0  0  0  0  0  0  0  0  0  0  0  0
  -20.4793    9.3704    0.0000 H   0  0  0  0  0  0  0  0  0  0  0  0
  -19.3351    8.0010    0.0000 H   0  0  0  0  0  0  0  0  0  0  0  0
  -20.4854    6.4533    0.0000 H   0  0  0  0  0  0  0  0  0  0  0  0
  1  2  1  0
  2  3  1  0
  3  4  2  0
  4  5  1  0
  5  6  2  0
  6  7  1  0
  7  8  2  0
  7  9  1  0
  9 10  1  0
 10 11  1  0
 11 12  2  0
  9 13  1  0
 13 14  1  0
 14 15  2  0
 15 16  1  0
 16 17  2  0
 17 18  1  0
 16 19  1  0
 14 20  1  0
 20 21  1  0
 21 22  2  0
 22 23  1  0
 23 24  2  0
 24 25  1  0
 25 26  2  0
 25 27  1  0
  1 28  2  0
  1 29  1  0
 29 30  1  0
 30 31  1  0
 31 32  1  0
 32 33  2  0
 32 34  1  0
 34 35  1  0
 35 36  1  0
 36 37  1  0
 37 38  1  0
 38 39  1  0
 39 40  1  0
 35 41  1  0
 41 42  2  0
 41 43  1  0
 43 44  1  0
 44 45  1  0
 45 46  1  0
 46 47  1  0
 47 48  1  0
 47 49  2  0
 44 50  1  0
 50 51  2  0
 50 52  1  0
 52 53  1  0
 53 54  1  0
 54 55  1  0
 55 56  1  0
 56 57  1  0
 57 58  1  0
 53 59  1  0
 59 60  2  0
 59 61  1  0
 61 62  1  0
 62 63  1  0
 63 64  1  0
 64 65  1  0
 65 66  1  0
 66 67  1  0
 67 68  2  3
 67 69  1  0
 62 70  1  0
 70 71  2  0
 70 72  1  0
 72 73  1  0
 73 74  1  0
 74 75  1  0
 75 76  1  0
 76 77  1  0
 77 78  1  0
 73 79  1  0
 79 80  2  0
 79 81  1  0
 81 82  1  0
 82 83  1  0
 83 84  1  0
 84 85  2  0
 85 86  1  0
 86 87  2  0
 87 88  1  0
 88 89  2  0
 82 90  1  0
 90 91  2  0
 90 92  1  0
 92 93  1  0
 93 94  1  0
 94 95  1  0
 93 96  1  0
 96 97  2  0
 96 98  1  0
 99 98  1  6
 99100  1  0
100101  1  0
101102  1  0
102103  1  0
 99104  1  0
 99105  1  0
105106  2  0
105107  1  0
107108  1  0
108109  1  0
109110  1  0
110111  2  0
111112  1  0
112113  2  0
113114  1  0
114115  2  0
108116  1  0
116117  2  0
116118  1  0
118119  1  0
119120  1  0
120121  1  0
121122  2  0
122123  1  0
123124  2  0
124125  1  0
125126  2  0
119127  1  0
127128  2  0
127129  1  0
129130  1  0
130131  1  0
131132  1  0
132133  1  0
133134  1  0
134135  1  0
130136  1  0
136137  2  0
136138  1  0
138139  1  0
139140  1  0
140141  1  0
141142  1  0
142143  1  0
139144  1  0
139145  1  6
145146  2  0
145147  1  0
147148  1  0
148149  1  0
149150  1  0
150151  1  0
150152  1  0
148153  1  0
153154  2  0
153155  1  0
  8  3  1  0
 89 84  1  0
115110  1  0
126121  1  0
 11  6  1  0
103143  2  0
 18 13  2  0
 22  9  1  0
 26 21  1  0
  2156  1  0
  4157  1  0
  5158  1  0
  8159  1  0
 15160  1  0
 17161  1  0
 18162  1  0
 19163  1  0
 23164  1  0
 24165  1  0
 26166  1  0
 27167  1  0
 29168  1  0
 30169  1  0
 30170  1  0
 31171  1  0
 31172  1  0
 34173  1  0
 35174  1  1
 36175  1  0
 36176  1  0
 37177  1  0
 37178  1  0
 38179  1  0
 38180  1  0
 39181  1  0
 39182  1  0
 40183  1  0
 40184  1  0
 40185  1  0
 43186  1  0
 44187  1  6
 45188  1  0
 45189  1  0
 46190  1  0
 46191  1  0
 48192  1  0
 48193  1  0
 52194  1  0
 53195  1  1
 54196  1  0
 54197  1  0
 55198  1  0
 55199  1  0
 56200  1  0
 56201  1  0
 57202  1  0
 57203  1  0
 58204  1  0
 58205  1  0
 58206  1  0
 61207  1  0
 62208  1  6
 63209  1  0
 63210  1  0
 64211  1  0
 64212  1  0
 65213  1  0
 65214  1  0
 66215  1  0
 68216  1  0
 68217  1  0
 69218  1  0
 69219  1  0
 72220  1  0
 73221  1  1
 74222  1  0
 74223  1  0
 75224  1  0
 75225  1  0
 76226  1  0
 76227  1  0
 77228  1  0
 77229  1  0
 78230  1  0
 78231  1  0
 78232  1  0
 81233  1  0
 82234  1  6
 83235  1  0
 83236  1  0
 85237  1  0
 86238  1  0
 87239  1  0
 88240  1  0
 89241  1  0
 92242  1  0
 93243  1  1
 94244  1  0
 94245  1  0
 95246  1  0
 98247  1  0
100248  1  0
100249  1  0
101250  1  0
101251  1  0
102252  1  0
102253  1  0
103254  1  0
104255  1  0
104256  1  0
104257  1  0
107258  1  0
108259  1  1
109260  1  0
109261  1  0
111262  1  0
112263  1  0
113264  1  0
114265  1  0
115266  1  0
118267  1  0
119268  1  1
120269  1  0
120270  1  0
122271  1  0
123272  1  0
124273  1  0
125274  1  0
126275  1  0
129276  1  0
130277  1  1
131278  1  0
131279  1  0
132280  1  0
132281  1  0
133282  1  0
133283  1  0
134284  1  0
134285  1  0
135286  1  0
135287  1  0
135288  1  0
138289  1  0
140290  1  0
140291  1  0
141292  1  0
141293  1  0
142294  1  0
142295  1  0
143296  1  0
144297  1  0
144298  1  0
144299  1  0
147300  1  0
148301  1  6
149302  1  0
149303  1  0
150304  1  0
151305  1  0
151306  1  0
151307  1  0
152308  1  0
152309  1  0
152310  1  0
M  CHG  6  40   1  58   1  68   1  78   1 135   1 155  -1
M  END
