
     RDKit          2D

377378  0  0  0  0  0  0  0  0999 V2000
  -34.2517  -11.2388    0.0000 N   0  0  0  0  0  0  0  0  0  0  0  0
  -33.0716  -10.3128    0.0000 C   0  0  0  0  0  0  0  0  0  0  0  0
  -33.2835   -8.8278    0.0000 C   0  0  0  0  0  0  0  0  0  0  0  0
  -32.1034   -7.9019    0.0000 C   0  0  0  0  0  0  0  0  0  0  0  0
  -30.7115   -8.4609    0.0000 O   0  0  0  0  0  0  0  0  0  0  0  0
  -32.3153   -6.4169    0.0000 N   0  0  0  0  0  0  0  0  0  0  0  0
  -31.1352   -5.4910    0.0000 C   0  0  0  0  0  0  0  0  0  0  0  0
  -32.2520   -4.4896    0.0000 C   0  0  0  0  0  0  0  0  0  0  0  0
  -33.7239   -4.7788    0.0000 O   0  0  0  0  0  0  0  0  0  0  0  0
  -29.7096   -5.0244    0.0000 C   0  0  0  0  0  0  0  0  0  0  0  0
  -29.4008   -3.5566    0.0000 O   0  0  0  0  0  0  0  0  0  0  0  0
  -28.5928   -6.0258    0.0000 N   0  0  0  0  0  0  0  0  0  0  0  0
  -27.1672   -5.5593    0.0000 C   0  0  0  0  0  0  0  0  0  0  0  0
  -26.9553   -7.0443    0.0000 C   0  0  0  0  0  0  0  0  0  0  0  0
  -26.2483   -8.3672    0.0000 O   0  0  0  0  0  0  0  0  0  0  0  0
  -28.1354   -7.9702    0.0000 C   0  0  0  0  0  0  0  0  0  0  0  0
  -25.9871   -4.6333    0.0000 C   0  0  0  0  0  0  0  0  0  0  0  0
  -24.6737   -5.3578    0.0000 O   0  0  0  0  0  0  0  0  0  0  0  0
  -26.1990   -3.1484    0.0000 N   0  0  0  0  0  0  0  0  0  0  0  0
  -25.0189   -2.2224    0.0000 C   0  0  0  0  0  0  0  0  0  0  0  0
  -24.3119   -3.5454    0.0000 C   0  0  0  0  0  0  0  0  0  0  0  0
  -24.2267   -0.9487    0.0000 C   0  0  0  0  0  0  0  0  0  0  0  0
  -22.7275   -0.9979    0.0000 O   0  0  0  0  0  0  0  0  0  0  0  0
  -24.9336    0.3743    0.0000 N   0  0  0  0  0  0  0  0  0  0  0  0
  -24.1414    1.6480    0.0000 C   0  0  0  0  0  0  0  0  0  0  0  0
  -25.5334    2.2070    0.0000 C   0  0  0  0  0  0  0  0  0  0  0  0
  -26.7135    1.2810    0.0000 C   0  0  0  0  0  0  0  0  0  0  0  0
  -28.1054    1.8400    0.0000 C   0  0  0  0  0  0  0  0  0  0  0  0
  -27.5057    0.0073    0.0000 C   0  0  0  0  0  0  0  0  0  0  0  0
  -22.9613    2.5740    0.0000 C   0  0  0  0  0  0  0  0  0  0  0  0
  -23.3526    4.0220    0.0000 O   0  0  0  0  0  0  0  0  0  0  0  0
  -21.5694    2.0150    0.0000 N   0  0  0  0  0  0  0  0  0  0  0  0
  -20.3893    2.9409    0.0000 C   0  0  0  0  0  0  0  0  0  0  0  0
  -21.5061    3.9423    0.0000 C   0  0  0  0  0  0  0  0  0  0  0  0
  -21.1973    5.4102    0.0000 C   0  0  0  0  0  0  0  0  0  0  0  0
  -22.3142    6.4115    0.0000 C   0  0  0  0  0  0  0  0  0  0  0  0
  -22.0054    7.8794    0.0000 N   0  0  0  0  0  0  0  0  0  0  0  0
  -23.1222    8.8808    0.0000 C   0  0  0  0  0  0  0  0  0  0  0  0
  -22.8134   10.3486    0.0000 N   0  0  0  0  0  0  0  0  0  0  0  0
  -24.5478    8.4142    0.0000 N   0  0  0  0  0  0  0  0  0  0  0  0
  -18.9637    3.4074    0.0000 C   0  0  0  0  0  0  0  0  0  0  0  0
  -18.8361    4.9020    0.0000 O   0  0  0  0  0  0  0  0  0  0  0  0
  -17.8469    2.4061    0.0000 N   0  0  0  0  0  0  0  0  0  0  0  0
  -16.4213    2.8726    0.0000 C   0  0  0  0  0  0  0  0  0  0  0  0
  -17.1283    4.1955    0.0000 C   0  0  0  0  0  0  0  0  0  0  0  0
  -16.3360    5.4693    0.0000 C   0  0  0  0  0  0  0  0  0  0  0  0
  -17.0430    6.7922    0.0000 C   0  0  0  0  0  0  0  0  0  0  0  0
  -16.2508    8.0659    0.0000 O   0  0  0  0  0  0  0  0  0  0  0  0
  -18.5422    6.8414    0.0000 O   0  0  0  0  0  0  0  0  0  0  0  0
  -14.9221    2.8234    0.0000 C   0  0  0  0  0  0  0  0  0  0  0  0
  -14.1299    4.0971    0.0000 O   0  0  0  0  0  0  0  0  0  0  0  0
  -14.2151    1.5004    0.0000 N   0  0  0  0  0  0  0  0  0  0  0  0
  -12.7159    1.4512    0.0000 C   0  0  0  0  0  0  0  0  0  0  0  0
  -13.0247   -0.0167    0.0000 C   0  0  0  0  0  0  0  0  0  0  0  0
  -14.4503   -0.4832    0.0000 C   0  0  0  0  0  0  0  0  0  0  0  0
  -14.7591   -1.9510    0.0000 C   0  0  0  0  0  0  0  0  0  0  0  0
  -15.9495   -0.4340    0.0000 C   0  0  0  0  0  0  0  0  0  0  0  0
  -11.2903    1.9177    0.0000 C   0  0  0  0  0  0  0  0  0  0  0  0
  -10.1735    0.9164    0.0000 O   0  0  0  0  0  0  0  0  0  0  0  0
  -10.9815    3.3856    0.0000 N   0  0  0  0  0  0  0  0  0  0  0  0
   -9.5559    3.8521    0.0000 C   0  0  0  0  0  0  0  0  0  0  0  0
  -10.2629    5.1750    0.0000 C   0  0  0  0  0  0  0  0  0  0  0  0
  -11.7569    5.0411    0.0000 C   0  0  0  0  0  0  0  0  0  0  0  0
  -10.4747    6.6600    0.0000 C   0  0  0  0  0  0  0  0  0  0  0  0
  -11.8667    7.2190    0.0000 C   0  0  0  0  0  0  0  0  0  0  0  0
   -8.0567    3.8029    0.0000 C   0  0  0  0  0  0  0  0  0  0  0  0
   -7.4257    5.1637    0.0000 O   0  0  0  0  0  0  0  0  0  0  0  0
   -7.3497    2.4799    0.0000 N   0  0  0  0  0  0  0  0  0  0  0  0
   -5.8505    2.4307    0.0000 C   0  0  0  0  0  0  0  0  0  0  0  0
   -6.0624    3.9157    0.0000 C   0  0  0  0  0  0  0  0  0  0  0  0
   -4.8823    4.8417    0.0000 C   0  0  0  0  0  0  0  0  0  0  0  0
   -5.0942    6.3266    0.0000 C   0  0  0  0  0  0  0  0  0  0  0  0
   -3.9141    7.2526    0.0000 O   0  0  0  0  0  0  0  0  0  0  0  0
   -6.4861    6.8856    0.0000 O   0  0  0  0  0  0  0  0  0  0  0  0
   -4.4586    1.8717    0.0000 C   0  0  0  0  0  0  0  0  0  0  0  0
   -3.4002    2.9346    0.0000 O   0  0  0  0  0  0  0  0  0  0  0  0
   -4.2467    0.3868    0.0000 N   0  0  0  0  0  0  0  0  0  0  0  0
   -2.8548   -0.1722    0.0000 C   0  0  0  0  0  0  0  0  0  0  0  0
   -2.5460    1.2956    0.0000 C   0  0  0  0  0  0  0  0  0  0  0  0
   -1.1204    1.7622    0.0000 C   0  0  0  0  0  0  0  0  0  0  0  0
   -0.8116    3.2300    0.0000 C   0  0  0  0  0  0  0  0  0  0  0  0
    0.6140    3.6965    0.0000 O   0  0  0  0  0  0  0  0  0  0  0  0
   -1.9284    4.2314    0.0000 O   0  0  0  0  0  0  0  0  0  0  0  0
   -1.7380   -1.1736    0.0000 C   0  0  0  0  0  0  0  0  0  0  0  0
   -0.3123   -0.7071    0.0000 O   0  0  0  0  0  0  0  0  0  0  0  0
   -2.0468   -2.6415    0.0000 N   0  0  0  0  0  0  0  0  0  0  0  0
   -0.9299   -3.6428    0.0000 C   0  0  0  0  0  0  0  0  0  0  0  0
   -2.1100   -4.5688    0.0000 C   0  0  0  0  0  0  0  0  0  0  0  0
   -3.5020   -4.0098    0.0000 C   0  0  0  0  0  0  0  0  0  0  0  0
   -4.6821   -4.9357    0.0000 C   0  0  0  0  0  0  0  0  0  0  0  0
   -4.6188   -3.0084    0.0000 C   0  0  0  0  0  0  0  0  0  0  0  0
    0.4620   -4.2018    0.0000 C   0  0  0  0  0  0  0  0  0  0  0  0
    0.4913   -5.7015    0.0000 O   0  0  0  0  0  0  0  0  0  0  0  0
    1.6421   -3.2759    0.0000 N   0  0  0  0  0  0  0  0  0  0  0  0
    3.0340   -3.8349    0.0000 C   0  0  0  0  0  0  0  0  0  0  0  0
    2.2418   -5.1086    0.0000 C   0  0  0  0  0  0  0  0  0  0  0  0
    2.9488   -6.4315    0.0000 C   0  0  0  0  0  0  0  0  0  0  0  0
    4.5332   -3.8841    0.0000 C   0  0  0  0  0  0  0  0  0  0  0  0
    5.0737   -5.2833    0.0000 O   0  0  0  0  0  0  0  0  0  0  0  0
    5.3254   -2.6103    0.0000 N   0  0  0  0  0  0  0  0  0  0  0  0
    6.8246   -2.6595    0.0000 C   0  0  0  0  0  0  0  0  0  0  0  0
    7.7797   -3.8162    0.0000 C   0  0  0  0  0  0  0  0  0  0  0  0
    9.0333   -4.6399    0.0000 C   0  0  0  0  0  0  0  0  0  0  0  0
   10.4740   -5.0575    0.0000 C   0  0  0  0  0  0  0  0  0  0  0  0
   11.9738   -5.0320    0.0000 C   0  0  0  0  0  0  0  0  0  0  0  0
    6.0040   -3.9152    0.0000 C   0  0  0  0  0  0  0  0  0  0  0  0
    6.2529   -1.2728    0.0000 C   0  0  0  0  0  0  0  0  0  0  0  0
    4.7636   -1.4512    0.0000 O   0  0  0  0  0  0  0  0  0  0  0  0
    6.1153    0.2209    0.0000 N   0  0  0  0  0  0  0  0  0  0  0  0
    6.4241    1.6888    0.0000 C   0  0  0  0  0  0  0  0  0  0  0  0
    4.9591    1.3665    0.0000 C   0  0  0  0  0  0  0  0  0  0  0  0
    4.0901    2.5891    0.0000 C   0  0  0  0  0  0  0  0  0  0  0  0
    3.6927    0.5627    0.0000 C   0  0  0  0  0  0  0  0  0  0  0  0
    2.3633    1.2575    0.0000 C   0  0  0  0  0  0  0  0  0  0  0  0
    7.1519    3.0004    0.0000 C   0  0  0  0  0  0  0  0  0  0  0  0
    5.9633    3.9155    0.0000 O   0  0  0  0  0  0  0  0  0  0  0  0
    8.2339    4.0393    0.0000 N   0  0  0  0  0  0  0  0  0  0  0  0
    9.5740    4.7130    0.0000 C   0  0  0  0  0  0  0  0  0  0  0  0
    8.4087    5.6575    0.0000 C   0  0  0  0  0  0  0  0  0  0  0  0
    6.9906    6.1464    0.0000 O   0  0  0  0  0  0  0  0  0  0  0  0
    8.6439    7.1389    0.0000 C   0  0  0  0  0  0  0  0  0  0  0  0
   11.0533    4.9619    0.0000 C   0  0  0  0  0  0  0  0  0  0  0  0
   11.0277    6.4616    0.0000 O   0  0  0  0  0  0  0  0  0  0  0  0
   12.5401    4.7636    0.0000 N   0  0  0  0  0  0  0  0  0  0  0  0
   13.9024    4.1359    0.0000 C   0  0  0  0  0  0  0  0  0  0  0  0
   13.9143    5.6359    0.0000 C   0  0  0  0  0  0  0  0  0  0  0  0
   15.2192    6.3756    0.0000 C   0  0  0  0  0  0  0  0  0  0  0  0
   15.2310    7.8756    0.0000 C   0  0  0  0  0  0  0  0  0  0  0  0
   16.5359    8.6153    0.0000 N   0  0  0  0  0  0  0  0  0  0  0  0
   13.9379    8.6358    0.0000 O   0  0  0  0  0  0  0  0  0  0  0  0
   15.0193    3.1346    0.0000 C   0  0  0  0  0  0  0  0  0  0  0  0
   16.1759    4.0897    0.0000 O   0  0  0  0  0  0  0  0  0  0  0  0
   15.7913    1.8485    0.0000 N   0  0  0  0  0  0  0  0  0  0  0  0
   16.1500    0.3920    0.0000 C   0  0  0  0  0  0  0  0  0  0  0  0
   16.0634   -1.1055    0.0000 C   0  0  0  0  0  0  0  0  0  0  0  0
   15.5393   -2.5109    0.0000 C   0  0  0  0  0  0  0  0  0  0  0  0
   14.6242   -3.6995    0.0000 C   0  0  0  0  0  0  0  0  0  0  0  0
   13.3994   -4.5654    0.0000 C   0  0  0  0  0  0  0  0  0  0  0  0
   17.5541   -0.1356    0.0000 C   0  0  0  0  0  0  0  0  0  0  0  0
   17.3301    1.3180    0.0000 C   0  0  0  0  0  0  0  0  0  0  0  0
   17.3008    2.8177    0.0000 O   0  0  0  0  0  0  0  0  0  0  0  0
   18.7220    0.7590    0.0000 N   0  0  0  0  0  0  0  0  0  0  0  0
   19.9021    1.6849    0.0000 C   0  0  0  0  0  0  0  0  0  0  0  0
   20.6943    2.9587    0.0000 C   0  0  0  0  0  0  0  0  0  0  0  0
   22.1935    2.9095    0.0000 C   0  0  0  0  0  0  0  0  0  0  0  0
   22.9857    4.1832    0.0000 C   0  0  0  0  0  0  0  0  0  0  0  0
   24.4677    3.9516    0.0000 N   0  0  0  0  0  0  0  0  0  0  0  0
   22.2787    5.5061    0.0000 O   0  0  0  0  0  0  0  0  0  0  0  0
   21.2940    1.1259    0.0000 C   0  0  0  0  0  0  0  0  0  0  0  0
   21.5059   -0.3590    0.0000 O   0  0  0  0  0  0  0  0  0  0  0  0
   22.4741    2.0519    0.0000 N   0  0  0  0  0  0  0  0  0  0  0  0
   23.8661    1.4929    0.0000 C   0  0  0  0  0  0  0  0  0  0  0  0
   25.3653    1.4437    0.0000 C   0  0  0  0  0  0  0  0  0  0  0  0
   26.1575    2.7174    0.0000 C   0  0  0  0  0  0  0  0  0  0  0  0
   27.6567    2.6682    0.0000 C   0  0  0  0  0  0  0  0  0  0  0  0
   28.4489    3.9420    0.0000 C   0  0  0  0  0  0  0  0  0  0  0  0
   29.9481    3.8927    0.0000 N   0  0  0  0  0  0  0  0  0  0  0  0
   24.0779    0.0080    0.0000 C   0  0  0  0  0  0  0  0  0  0  0  0
   22.8978   -0.9180    0.0000 O   0  0  0  0  0  0  0  0  0  0  0  0
   25.4699   -0.5510    0.0000 N   0  0  0  0  0  0  0  0  0  0  0  0
   25.6817   -2.0360    0.0000 C   0  0  0  0  0  0  0  0  0  0  0  0
   25.1963   -3.4553    0.0000 C   0  0  0  0  0  0  0  0  0  0  0  0
   27.0737   -2.5950    0.0000 C   0  0  0  0  0  0  0  0  0  0  0  0
   28.2538   -1.6690    0.0000 O   0  0  0  0  0  0  0  0  0  0  0  0
   27.2856   -4.0800    0.0000 N   0  0  0  0  0  0  0  0  0  0  0  0
   26.2087   -5.1242    0.0000 C   0  0  0  0  0  0  0  0  0  0  0  0
   26.8691   -6.4710    0.0000 C   0  0  0  0  0  0  0  0  0  0  0  0
   28.3541   -6.2592    0.0000 C   0  0  0  0  0  0  0  0  0  0  0  0
   28.6115   -4.7814    0.0000 C   0  0  0  0  0  0  0  0  0  0  0  0
   30.0542   -5.1918    0.0000 C   0  0  0  0  0  0  0  0  0  0  0  0
   30.5947   -6.5911    0.0000 O   0  0  0  0  0  0  0  0  0  0  0  0
   31.1310   -4.1476    0.0000 N   0  0  0  0  0  0  0  0  0  0  0  0
   32.5738   -4.5580    0.0000 C   0  0  0  0  0  0  0  0  0  0  0  0
   33.7892   -5.4372    0.0000 C   0  0  0  0  0  0  0  0  0  0  0  0
   35.1582   -4.8242    0.0000 C   0  0  0  0  0  0  0  0  0  0  0  0
   36.3736   -5.7033    0.0000 C   0  0  0  0  0  0  0  0  0  0  0  0
   36.2350   -3.7800    0.0000 C   0  0  0  0  0  0  0  0  0  0  0  0
   33.6506   -3.5138    0.0000 C   0  0  0  0  0  0  0  0  0  0  0  0
   35.1326   -3.7453    0.0000 O   0  0  0  0  0  0  0  0  0  0  0  0
   33.2847   -2.0591    0.0000 O   0  0  0  0  0  0  0  0  0  0  0  0
  -34.0399  -12.7237    0.0000 H   0  0  0  0  0  0  0  0  0  0  0  0
  -35.6437  -10.6798    0.0000 H   0  0  0  0  0  0  0  0  0  0  0  0
  -32.3647  -11.6357    0.0000 H   0  0  0  0  0  0  0  0  0  0  0  0
  -31.6460   -9.8463    0.0000 H   0  0  0  0  0  0  0  0  0  0  0  0
  -34.7091   -9.2944    0.0000 H   0  0  0  0  0  0  0  0  0  0  0  0
  -33.9905   -7.5049    0.0000 H   0  0  0  0  0  0  0  0  0  0  0  0
  -33.7650   -6.0318    0.0000 H   0  0  0  0  0  0  0  0  0  0  0  0
  -30.4282   -6.8139    0.0000 H   0  0  0  0  0  0  0  0  0  0  0  0
  -32.9590   -3.1666    0.0000 H   0  0  0  0  0  0  0  0  0  0  0  0
  -31.0720   -3.5636    0.0000 H   0  0  0  0  0  0  0  0  0  0  0  0
  -34.7945   -3.9547    0.0000 H   0  0  0  0  0  0  0  0  0  0  0  0
  -28.8508   -6.7801    0.0000 H   0  0  0  0  0  0  0  0  0  0  0  0
  -27.8742   -4.2364    0.0000 H   0  0  0  0  0  0  0  0  0  0  0  0
  -25.5297   -6.5777    0.0000 H   0  0  0  0  0  0  0  0  0  0  0  0
  -24.7491   -8.4164    0.0000 H   0  0  0  0  0  0  0  0  0  0  0  0
  -27.9235   -9.4552    0.0000 H   0  0  0  0  0  0  0  0  0  0  0  0
  -29.5610   -8.4367    0.0000 H   0  0  0  0  0  0  0  0  0  0  0  0
  -28.8051   -7.3906    0.0000 H   0  0  0  0  0  0  0  0  0  0  0  0
  -27.5909   -2.5894    0.0000 H   0  0  0  0  0  0  0  0  0  0  0  0
  -26.0053   -1.0924    0.0000 H   0  0  0  0  0  0  0  0  0  0  0  0
  -24.9430   -4.9062    0.0000 H   0  0  0  0  0  0  0  0  0  0  0  0
  -23.1951   -4.5467    0.0000 H   0  0  0  0  0  0  0  0  0  0  0  0
  -23.1318   -2.6194    0.0000 H   0  0  0  0  0  0  0  0  0  0  0  0
  -26.4277    0.2404    0.0000 H   0  0  0  0  0  0  0  0  0  0  0  0
  -23.0246    0.6466    0.0000 H   0  0  0  0  0  0  0  0  0  0  0  0
  -26.5198    3.3370    0.0000 H   0  0  0  0  0  0  0  0  0  0  0  0
  -24.7412    3.4807    0.0000 H   0  0  0  0  0  0  0  0  0  0  0  0
  -26.0298   -0.0541    0.0000 H   0  0  0  0  0  0  0  0  0  0  0  0
  -29.3896    1.0648    0.0000 H   0  0  0  0  0  0  0  0  0  0  0  0
  -29.2222    2.8414    0.0000 H   0  0  0  0  0  0  0  0  0  0  0  0
  -27.4744    3.2008    0.0000 H   0  0  0  0  0  0  0  0  0  0  0  0
  -28.9997   -0.1266    0.0000 H   0  0  0  0  0  0  0  0  0  0  0  0
  -27.8145   -1.4606    0.0000 H   0  0  0  0  0  0  0  0  0  0  0  0
  -26.0560   -0.3779    0.0000 H   0  0  0  0  0  0  0  0  0  0  0  0
  -21.3575    0.5300    0.0000 H   0  0  0  0  0  0  0  0  0  0  0  0
  -19.6823    1.6180    0.0000 H   0  0  0  0  0  0  0  0  0  0  0  0
  -22.8981    4.5013    0.0000 H   0  0  0  0  0  0  0  0  0  0  0  0
  -22.5830    2.8981    0.0000 H   0  0  0  0  0  0  0  0  0  0  0  0
  -20.4051    6.6839    0.0000 H   0  0  0  0  0  0  0  0  0  0  0  0
  -19.8054    4.8512    0.0000 H   0  0  0  0  0  0  0  0  0  0  0  0
  -23.7061    6.9705    0.0000 H   0  0  0  0  0  0  0  0  0  0  0  0
  -23.2557    5.2439    0.0000 H   0  0  0  0  0  0  0  0  0  0  0  0
  -20.5797    8.3459    0.0000 H   0  0  0  0  0  0  0  0  0  0  0  0
  -23.9302   11.3500    0.0000 H   0  0  0  0  0  0  0  0  0  0  0  0
  -21.3878   10.8151    0.0000 H   0  0  0  0  0  0  0  0  0  0  0  0
  -25.6646    9.4156    0.0000 H   0  0  0  0  0  0  0  0  0  0  0  0
  -24.8566    6.9464    0.0000 H   0  0  0  0  0  0  0  0  0  0  0  0
  -18.1557    0.9382    0.0000 H   0  0  0  0  0  0  0  0  0  0  0  0
  -16.0300    1.4245    0.0000 H   0  0  0  0  0  0  0  0  0  0  0  0
  -18.1147    5.3256    0.0000 H   0  0  0  0  0  0  0  0  0  0  0  0
  -18.4973    3.5826    0.0000 H   0  0  0  0  0  0  0  0  0  0  0  0
  -15.1560    6.3952    0.0000 H   0  0  0  0  0  0  0  0  0  0  0  0
  -15.2192    4.4679    0.0000 H   0  0  0  0  0  0  0  0  0  0  0  0
  -15.1567    0.3328    0.0000 H   0  0  0  0  0  0  0  0  0  0  0  0
  -12.9278    2.9362    0.0000 H   0  0  0  0  0  0  0  0  0  0  0  0
  -12.6334   -1.4647    0.0000 H   0  0  0  0  0  0  0  0  0  0  0  0
  -11.5255   -0.0659    0.0000 H   0  0  0  0  0  0  0  0  0  0  0  0
  -15.1804    0.8272    0.0000 H   0  0  0  0  0  0  0  0  0  0  0  0
  -16.1172   -2.5878    0.0000 H   0  0  0  0  0  0  0  0  0  0  0  0
  -14.5473   -3.4360    0.0000 H   0  0  0  0  0  0  0  0  0  0  0  0
  -13.2771   -2.1826    0.0000 H   0  0  0  0  0  0  0  0  0  0  0  0
  -16.8911   -1.6016    0.0000 H   0  0  0  0  0  0  0  0  0  0  0  0
  -17.3415    0.1250    0.0000 H   0  0  0  0  0  0  0  0  0  0  0  0
  -15.4641    0.9853    0.0000 H   0  0  0  0  0  0  0  0  0  0  0  0
  -12.2121    4.2434    0.0000 H   0  0  0  0  0  0  0  0  0  0  0  0
   -9.3440    2.3671    0.0000 H   0  0  0  0  0  0  0  0  0  0  0  0
   -8.8373    5.6416    0.0000 H   0  0  0  0  0  0  0  0  0  0  0  0
  -12.6473    6.4492    0.0000 H   0  0  0  0  0  0  0  0  0  0  0  0
  -13.1877    4.7578    0.0000 H   0  0  0  0  0  0  0  0  0  0  0  0
  -12.0966    3.7620    0.0000 H   0  0  0  0  0  0  0  0  0  0  0  0
  -10.1659    8.1279    0.0000 H   0  0  0  0  0  0  0  0  0  0  0  0
   -8.9755    6.6108    0.0000 H   0  0  0  0  0  0  0  0  0  0  0  0
  -12.0786    8.7040    0.0000 H   0  0  0  0  0  0  0  0  0  0  0  0
  -13.3659    7.2682    0.0000 H   0  0  0  0  0  0  0  0  0  0  0  0
  -12.5215    5.8695    0.0000 H   0  0  0  0  0  0  0  0  0  0  0  0
   -8.1419    1.2062    0.0000 H   0  0  0  0  0  0  0  0  0  0  0  0
   -6.1593    0.9629    0.0000 H   0  0  0  0  0  0  0  0  0  0  0  0
   -6.6028    5.3150    0.0000 H   0  0  0  0  0  0  0  0  0  0  0  0
   -7.5585    3.8080    0.0000 H   0  0  0  0  0  0  0  0  0  0  0  0
   -3.4567    5.3082    0.0000 H   0  0  0  0  0  0  0  0  0  0  0  0
   -4.1753    3.5187    0.0000 H   0  0  0  0  0  0  0  0  0  0  0  0
   -5.4268   -0.5392    0.0000 H   0  0  0  0  0  0  0  0  0  0  0  0
   -3.4858   -1.5330    0.0000 H   0  0  0  0  0  0  0  0  0  0  0  0
   -2.5753    2.7954    0.0000 H   0  0  0  0  0  0  0  0  0  0  0  0
   -3.9887    1.7062    0.0000 H   0  0  0  0  0  0  0  0  0  0  0  0
    0.3788    1.7129    0.0000 H   0  0  0  0  0  0  0  0  0  0  0  0
   -0.9085    0.2772    0.0000 H   0  0  0  0  0  0  0  0  0  0  0  0
   -3.5186   -2.9307    0.0000 H   0  0  0  0  0  0  0  0  0  0  0  0
   -0.1377   -2.3691    0.0000 H   0  0  0  0  0  0  0  0  0  0  0  0
   -2.7411   -5.9296    0.0000 H   0  0  0  0  0  0  0  0  0  0  0  0
   -0.9932   -5.5701    0.0000 H   0  0  0  0  0  0  0  0  0  0  0  0
   -3.2190   -2.5367    0.0000 H   0  0  0  0  0  0  0  0  0  0  0  0
   -6.1318   -4.5506    0.0000 H   0  0  0  0  0  0  0  0  0  0  0  0
   -5.4743   -6.2095    0.0000 H   0  0  0  0  0  0  0  0  0  0  0  0
   -3.6956   -6.0658    0.0000 H   0  0  0  0  0  0  0  0  0  0  0  0
   -6.0906   -3.2977    0.0000 H   0  0  0  0  0  0  0  0  0  0  0  0
   -5.3258   -1.6855    0.0000 H   0  0  0  0  0  0  0  0  0  0  0  0
   -3.3346   -2.2332    0.0000 H   0  0  0  0  0  0  0  0  0  0  0  0
    1.4302   -1.7909    0.0000 H   0  0  0  0  0  0  0  0  0  0  0  0
    3.3428   -2.3670    0.0000 H   0  0  0  0  0  0  0  0  0  0  0  0
    1.1834   -6.1715    0.0000 H   0  0  0  0  0  0  0  0  0  0  0  0
    0.9159   -4.4072    0.0000 H   0  0  0  0  0  0  0  0  0  0  0  0
    2.1566   -7.7053    0.0000 H   0  0  0  0  0  0  0  0  0  0  0  0
    4.0656   -7.4329    0.0000 H   0  0  0  0  0  0  0  0  0  0  0  0
    4.1289   -5.5056    0.0000 H   0  0  0  0  0  0  0  0  0  0  0  0
    4.6185   -1.2874    0.0000 H   0  0  0  0  0  0  0  0  0  0  0  0
    7.5445   -5.2976    0.0000 H   0  0  0  0  0  0  0  0  0  0  0  0
    6.3916   -4.3845    0.0000 H   0  0  0  0  0  0  0  0  0  0  0  0
    9.0626   -6.1396    0.0000 H   0  0  0  0  0  0  0  0  0  0  0  0
    7.8743   -5.5921    0.0000 H   0  0  0  0  0  0  0  0  0  0  0  0
   11.1142   -6.4141    0.0000 H   0  0  0  0  0  0  0  0  0  0  0  0
    9.6472   -6.3091    0.0000 H   0  0  0  0  0  0  0  0  0  0  0  0
   12.2226   -6.5112    0.0000 H   0  0  0  0  0  0  0  0  0  0  0  0
    4.7525   -4.4241    0.0000 H   0  0  0  0  0  0  0  0  0  0  0  0
    6.1949   -5.4856    0.0000 H   0  0  0  0  0  0  0  0  0  0  0  0
    7.3154   -4.9631    0.0000 H   0  0  0  0  0  0  0  0  0  0  0  0
    4.6184    0.1243    0.0000 H   0  0  0  0  0  0  0  0  0  0  0  0
    5.6812    2.9918    0.0000 H   0  0  0  0  0  0  0  0  0  0  0  0
    5.1783   -0.1174    0.0000 H   0  0  0  0  0  0  0  0  0  0  0  0
    2.4413    2.3511    0.0000 H   0  0  0  0  0  0  0  0  0  0  0  0
    3.3758    3.8609    0.0000 H   0  0  0  0  0  0  0  0  0  0  0  0
    5.1066    3.4263    0.0000 H   0  0  0  0  0  0  0  0  0  0  0  0
    2.7776   -0.6259    0.0000 H   0  0  0  0  0  0  0  0  0  0  0  0
    4.7043   -0.5449    0.0000 H   0  0  0  0  0  0  0  0  0  0  0  0
    1.0969    0.4536    0.0000 H   0  0  0  0  0  0  0  0  0  0  0  0
    1.3518    2.3651    0.0000 H   0  0  0  0  0  0  0  0  0  0  0  0
    2.9637    2.6321    0.0000 H   0  0  0  0  0  0  0  0  0  0  0  0
    7.3679    5.2640    0.0000 H   0  0  0  0  0  0  0  0  0  0  0  0
   10.1296    6.1064    0.0000 H   0  0  0  0  0  0  0  0  0  0  0  0
    7.3852    4.5609    0.0000 H   0  0  0  0  0  0  0  0  0  0  0  0
    6.5276    7.5732    0.0000 H   0  0  0  0  0  0  0  0  0  0  0  0
    7.6024    8.2184    0.0000 H   0  0  0  0  0  0  0  0  0  0  0  0
    9.3717    8.4506    0.0000 H   0  0  0  0  0  0  0  0  0  0  0  0
   10.1110    6.8265    0.0000 H   0  0  0  0  0  0  0  0  0  0  0  0
   12.9577    6.2043    0.0000 H   0  0  0  0  0  0  0  0  0  0  0  0
   15.3382    4.5703    0.0000 H   0  0  0  0  0  0  0  0  0  0  0  0
   13.4124    7.0494    0.0000 H   0  0  0  0  0  0  0  0  0  0  0  0
   12.4188    5.7524    0.0000 H   0  0  0  0  0  0  0  0  0  0  0  0
   16.6984    6.6244    0.0000 H   0  0  0  0  0  0  0  0  0  0  0  0
   15.8896    5.0338    0.0000 H   0  0  0  0  0  0  0  0  0  0  0  0
   16.5477   10.1153    0.0000 H   0  0  0  0  0  0  0  0  0  0  0  0
   17.8290    7.8551    0.0000 H   0  0  0  0  0  0  0  0  0  0  0  0
   17.0980    2.5850    0.0000 H   0  0  0  0  0  0  0  0  0  0  0  0
   17.5190   -0.7432    0.0000 H   0  0  0  0  0  0  0  0  0  0  0  0
   17.1289   -2.1613    0.0000 H   0  0  0  0  0  0  0  0  0  0  0  0
   17.0370   -2.5938    0.0000 H   0  0  0  0  0  0  0  0  0  0  0  0
   16.4022   -3.7378    0.0000 H   0  0  0  0  0  0  0  0  0  0  0  0
   16.0309   -4.2201    0.0000 H   0  0  0  0  0  0  0  0  0  0  0  0
   14.9098   -5.1720    0.0000 H   0  0  0  0  0  0  0  0  0  0  0  0
   14.0732   -5.9056    0.0000 H   0  0  0  0  0  0  0  0  0  0  0  0
   18.8644    0.1938    0.0000 H   0  0  0  0  0  0  0  0  0  0  0  0
   18.3285   -1.5151    0.0000 H   0  0  0  0  0  0  0  0  0  0  0  0
   17.1160   -1.7560    0.0000 H   0  0  0  0  0  0  0  0  0  0  0  0
   19.1133   -0.6891    0.0000 H   0  0  0  0  0  0  0  0  0  0  0  0
   18.7853    2.6863    0.0000 H   0  0  0  0  0  0  0  0  0  0  0  0
   21.0031    4.4266    0.0000 H   0  0  0  0  0  0  0  0  0  0  0  0
   19.3024    3.5177    0.0000 H   0  0  0  0  0  0  0  0  0  0  0  0
   23.6432    2.5243    0.0000 H   0  0  0  0  0  0  0  0  0  0  0  0
   22.6101    1.4685    0.0000 H   0  0  0  0  0  0  0  0  0  0  0  0
   25.2771    5.4077    0.0000 H   0  0  0  0  0  0  0  0  0  0  0  0
   25.0474    2.7313    0.0000 H   0  0  0  0  0  0  0  0  0  0  0  0
   22.6279    3.5440    0.0000 H   0  0  0  0  0  0  0  0  0  0  0  0
   24.1749    2.9608    0.0000 H   0  0  0  0  0  0  0  0  0  0  0  0
   26.7572    0.8847    0.0000 H   0  0  0  0  0  0  0  0  0  0  0  0
   25.4208   -0.0553    0.0000 H   0  0  0  0  0  0  0  0  0  0  0  0
   26.2850    4.2120    0.0000 H   0  0  0  0  0  0  0  0  0  0  0  0
   24.7078    3.1026    0.0000 H   0  0  0  0  0  0  0  0  0  0  0  0
   28.9701    1.9437    0.0000 H   0  0  0  0  0  0  0  0  0  0  0  0
   27.5291    1.1737    0.0000 H   0  0  0  0  0  0  0  0  0  0  0  0
   28.7577    5.4098    0.0000 H   0  0  0  0  0  0  0  0  0  0  0  0
   27.1354    4.6665    0.0000 H   0  0  0  0  0  0  0  0  0  0  0  0
   30.7403    5.1665    0.0000 H   0  0  0  0  0  0  0  0  0  0  0  0
   31.3400    3.3337    0.0000 H   0  0  0  0  0  0  0  0  0  0  0  0
   29.8205    2.3982    0.0000 H   0  0  0  0  0  0  0  0  0  0  0  0
   26.7540    0.2242    0.0000 H   0  0  0  0  0  0  0  0  0  0  0  0
   24.1826   -1.9868    0.0000 H   0  0  0  0  0  0  0  0  0  0  0  0
   25.8888   -4.9124    0.0000 H   0  0  0  0  0  0  0  0  0  0  0  0
   24.5807   -4.7776    0.0000 H   0  0  0  0  0  0  0  0  0  0  0  0
   23.9810   -2.9449    0.0000 H   0  0  0  0  0  0  0  0  0  0  0  0
   25.1458   -4.0658    0.0000 H   0  0  0  0  0  0  0  0  0  0  0  0
   24.9383   -5.9218    0.0000 H   0  0  0  0  0  0  0  0  0  0  0  0
   25.4606   -6.9870    0.0000 H   0  0  0  0  0  0  0  0  0  0  0  0
   27.2350   -7.9257    0.0000 H   0  0  0  0  0  0  0  0  0  0  0  0
   28.4096   -7.7581    0.0000 H   0  0  0  0  0  0  0  0  0  0  0  0
   29.8271   -6.5423    0.0000 H   0  0  0  0  0  0  0  0  0  0  0  0
   29.1704   -3.3895    0.0000 H   0  0  0  0  0  0  0  0  0  0  0  0
   30.7651   -2.6929    0.0000 H   0  0  0  0  0  0  0  0  0  0  0  0
   31.9191   -5.9076    0.0000 H   0  0  0  0  0  0  0  0  0  0  0  0
   34.4729   -6.7723    0.0000 H   0  0  0  0  0  0  0  0  0  0  0  0
   32.7123   -6.4814    0.0000 H   0  0  0  0  0  0  0  0  0  0  0  0
   34.8178   -3.3633    0.0000 H   0  0  0  0  0  0  0  0  0  0  0  0
   37.8071   -5.2618    0.0000 H   0  0  0  0  0  0  0  0  0  0  0  0
   37.2149   -6.9451    0.0000 H   0  0  0  0  0  0  0  0  0  0  0  0
   35.4321   -6.8711    0.0000 H   0  0  0  0  0  0  0  0  0  0  0  0
   37.7170   -4.0115    0.0000 H   0  0  0  0  0  0  0  0  0  0  0  0
   36.8898   -2.4304    0.0000 H   0  0  0  0  0  0  0  0  0  0  0  0
   35.0197   -2.9008    0.0000 H   0  0  0  0  0  0  0  0  0  0  0  0
  1  2  1  0
  2  3  1  0
  3  4  1  0
  4  5  2  0
  4  6  1  0
  6  7  1  0
  7  8  1  0
  8  9  1  0
  7 10  1  0
 10 11  2  0
 10 12  1  0
 12 13  1  0
 13 14  1  0
 14 15  1  0
 14 16  1  0
 13 17  1  0
 17 18  2  0
 17 19  1  0
 19 20  1  0
 20 21  1  0
 20 22  1  0
 22 23  2  0
 22 24  1  0
 24 25  1  0
 25 26  1  0
 26 27  1  0
 27 28  1  0
 27 29  1  0
 25 30  1  0
 30 31  2  0
 30 32  1  0
 32 33  1  0
 33 34  1  0
 34 35  1  0
 35 36  1  0
 36 37  1  0
 37 38  1  0
 38 39  2  3
 38 40  1  0
 33 41  1  0
 41 42  2  0
 41 43  1  0
 43 44  1  0
 44 45  1  0
 45 46  1  0
 46 47  1  0
 47 48  2  0
 47 49  1  0
 44 50  1  0
 50 51  2  0
 50 52  1  0
 52 53  1  0
 53 54  1  0
 54 55  1  0
 55 56  1  0
 55 57  1  0
 53 58  1  0
 58 59  2  0
 58 60  1  0
 60 61  1  0
 61 62  1  0
 62 63  1  0
 62 64  1  0
 64 65  1  0
 61 66  1  0
 66 67  2  0
 66 68  1  0
 68 69  1  0
 69 70  1  0
 70 71  1  0
 71 72  1  0
 72 73  2  0
 72 74  1  0
 69 75  1  0
 75 76  2  0
 75 77  1  0
 77 78  1  0
 78 79  1  0
 79 80  1  0
 80 81  1  0
 81 82  2  0
 81 83  1  0
 78 84  1  0
 84 85  2  0
 84 86  1  0
 86 87  1  0
 87 88  1  0
 88 89  1  0
 89 90  1  0
 89 91  1  0
 87 92  1  0
 92 93  2  0
 92 94  1  0
 94 95  1  0
 95 96  1  0
 96 97  1  0
 95 98  1  0
 98 99  2  0
 98100  1  0
101100  1  6
101102  1  0
102103  1  0
103104  1  0
104105  1  0
101106  1  0
101107  1  0
107108  2  0
107109  1  0
109110  1  0
110111  1  0
111112  1  0
111113  1  0
113114  1  0
110115  1  0
115116  2  0
115117  1  0
117118  1  0
118119  1  0
119120  1  0
119121  1  0
118122  1  0
122123  2  0
122124  1  0
124125  1  0
125126  1  0
126127  1  0
127128  1  0
128129  1  0
128130  2  0
125131  1  0
131132  2  0
131133  1  0
133134  1  0
134135  1  0
135136  1  0
136137  1  0
137138  1  0
134139  1  0
134140  1  6
140141  2  0
140142  1  0
142143  1  0
143144  1  0
144145  1  0
145146  1  0
146147  1  0
146148  2  0
143149  1  0
149150  2  0
149151  1  0
151152  1  0
152153  1  0
153154  1  0
154155  1  0
155156  1  0
156157  1  0
152158  1  0
158159  2  0
158160  1  0
160161  1  0
161162  1  0
161163  1  0
163164  2  0
163165  1  0
165166  1  0
166167  1  0
167168  1  0
168169  1  0
169170  1  0
170171  2  0
170172  1  0
172173  1  0
173174  1  0
174175  1  0
175176  1  0
175177  1  0
173178  1  0
178179  2  0
178180  1  0
169165  1  0
105138  2  0
  1181  1  0
  1182  1  0
  2183  1  0
  2184  1  0
  3185  1  0
  3186  1  0
  6187  1  0
  7188  1  1
  8189  1  0
  8190  1  0
  9191  1  0
 12192  1  0
 13193  1  6
 14194  1  1
 15195  1  0
 16196  1  0
 16197  1  0
 16198  1  0
 19199  1  0
 20200  1  6
 21201  1  0
 21202  1  0
 21203  1  0
 24204  1  0
 25205  1  1
 26206  1  0
 26207  1  0
 27208  1  0
 28209  1  0
 28210  1  0
 28211  1  0
 29212  1  0
 29213  1  0
 29214  1  0
 32215  1  0
 33216  1  1
 34217  1  0
 34218  1  0
 35219  1  0
 35220  1  0
 36221  1  0
 36222  1  0
 37223  1  0
 39224  1  0
 39225  1  0
 40226  1  0
 40227  1  0
 43228  1  0
 44229  1  1
 45230  1  0
 45231  1  0
 46232  1  0
 46233  1  0
 52234  1  0
 53235  1  6
 54236  1  0
 54237  1  0
 55238  1  0
 56239  1  0
 56240  1  0
 56241  1  0
 57242  1  0
 57243  1  0
 57244  1  0
 60245  1  0
 61246  1  1
 62247  1  6
 63248  1  0
 63249  1  0
 63250  1  0
 64251  1  0
 64252  1  0
 65253  1  0
 65254  1  0
 65255  1  0
 68256  1  0
 69257  1  1
 70258  1  0
 70259  1  0
 71260  1  0
 71261  1  0
 77262  1  0
 78263  1  1
 79264  1  0
 79265  1  0
 80266  1  0
 80267  1  0
 86268  1  0
 87269  1  6
 88270  1  0
 88271  1  0
 89272  1  0
 90273  1  0
 90274  1  0
 90275  1  0
 91276  1  0
 91277  1  0
 91278  1  0
 94279  1  0
 95280  1  6
 96281  1  0
 96282  1  0
 97283  1  0
 97284  1  0
 97285  1  0
100286  1  0
102287  1  0
102288  1  0
103289  1  0
103290  1  0
104291  1  0
104292  1  0
105293  1  0
106294  1  0
106295  1  0
106296  1  0
109297  1  0
110298  1  1
111299  1  1
112300  1  0
112301  1  0
112302  1  0
113303  1  0
113304  1  0
114305  1  0
114306  1  0
114307  1  0
117308  1  0
118309  1  1
119310  1  1
120311  1  0
121312  1  0
121313  1  0
121314  1  0
124315  1  0
125316  1  1
126317  1  0
126318  1  0
127319  1  0
127320  1  0
129321  1  0
129322  1  0
133323  1  0
135324  1  0
135325  1  0
136326  1  0
136327  1  0
137328  1  0
137329  1  0
138330  1  0
139331  1  0
139332  1  0
139333  1  0
142334  1  0
143335  1  1
144336  1  0
144337  1  0
145338  1  0
145339  1  0
147340  1  0
147341  1  0
151342  1  0
152343  1  1
153344  1  0
153345  1  0
154346  1  0
154347  1  0
155348  1  0
155349  1  0
156350  1  0
156351  1  0
157352  1  0
157353  1  0
157354  1  0
160355  1  0
161356  1  6
162357  1  0
162358  1  0
162359  1  0
166360  1  0
166361  1  0
167362  1  0
167363  1  0
168364  1  0
168365  1  0
169366  1  0
172367  1  0
173368  1  6
174369  1  0
174370  1  0
175371  1  0
176372  1  0
176373  1  0
176374  1  0
177375  1  0
177376  1  0
177377  1  0
M  CHG  6  39   1  49  -1  74  -1  83  -1 157   1 180  -1
M  END
