
     RDKit          2D

305307  0  0  0  0  0  0  0  0999 V2000
  -34.1687    9.9689    0.0000 N   0  0  0  0  0  0  0  0  0  0  0  0
  -32.6955    9.6863    0.0000 C   0  0  0  0  0  0  0  0  0  0  0  0
  -32.2036    8.2692    0.0000 C   0  0  0  0  0  0  0  0  0  0  0  0
  -30.7305    7.9867    0.0000 O   0  0  0  0  0  0  0  0  0  0  0  0
  -30.2386    6.5696    0.0000 C   0  0  0  0  0  0  0  0  0  0  0  0
  -28.7655    6.2871    0.0000 C   0  0  0  0  0  0  0  0  0  0  0  0
  -28.2736    4.8700    0.0000 O   0  0  0  0  0  0  0  0  0  0  0  0
  -26.8004    4.5875    0.0000 C   0  0  0  0  0  0  0  0  0  0  0  0
  -26.3085    3.1704    0.0000 C   0  0  0  0  0  0  0  0  0  0  0  0
  -24.8354    2.8879    0.0000 O   0  0  0  0  0  0  0  0  0  0  0  0
  -24.3435    1.4708    0.0000 C   0  0  0  0  0  0  0  0  0  0  0  0
  -22.8704    1.1883    0.0000 C   0  0  0  0  0  0  0  0  0  0  0  0
  -22.3785   -0.2288    0.0000 O   0  0  0  0  0  0  0  0  0  0  0  0
  -20.9053   -0.5113    0.0000 C   0  0  0  0  0  0  0  0  0  0  0  0
  -20.4135   -1.9284    0.0000 C   0  0  0  0  0  0  0  0  0  0  0  0
  -18.9403   -2.2109    0.0000 O   0  0  0  0  0  0  0  0  0  0  0  0
  -18.4484   -3.6280    0.0000 C   0  0  0  0  0  0  0  0  0  0  0  0
  -16.9753   -3.9106    0.0000 C   0  0  0  0  0  0  0  0  0  0  0  0
  -16.4834   -5.3276    0.0000 O   0  0  0  0  0  0  0  0  0  0  0  0
  -15.0103   -5.6102    0.0000 C   0  0  0  0  0  0  0  0  0  0  0  0
  -14.5184   -7.0272    0.0000 C   0  0  0  0  0  0  0  0  0  0  0  0
  -13.0452   -7.3098    0.0000 C   0  0  0  0  0  0  0  0  0  0  0  0
  -12.0640   -6.1753    0.0000 O   0  0  0  0  0  0  0  0  0  0  0  0
  -12.5534   -8.7268    0.0000 N   0  0  0  0  0  0  0  0  0  0  0  0
  -11.0802   -9.0094    0.0000 C   0  0  0  0  0  0  0  0  0  0  0  0
  -11.6143  -10.4111    0.0000 C   0  0  0  0  0  0  0  0  0  0  0  0
  -13.0952  -10.6494    0.0000 C   0  0  0  0  0  0  0  0  0  0  0  0
  -13.6293  -12.0511    0.0000 N   0  0  0  0  0  0  0  0  0  0  0  0
  -14.1768   -9.6101    0.0000 O   0  0  0  0  0  0  0  0  0  0  0  0
   -9.5993   -8.7710    0.0000 C   0  0  0  0  0  0  0  0  0  0  0  0
   -8.8013  -10.0411    0.0000 O   0  0  0  0  0  0  0  0  0  0  0  0
   -9.0652   -7.3693    0.0000 N   0  0  0  0  0  0  0  0  0  0  0  0
   -7.5842   -7.1310    0.0000 C   0  0  0  0  0  0  0  0  0  0  0  0
   -7.6067   -8.6308    0.0000 C   0  0  0  0  0  0  0  0  0  0  0  0
   -6.3190   -9.4002    0.0000 C   0  0  0  0  0  0  0  0  0  0  0  0
   -6.3415  -10.9000    0.0000 C   0  0  0  0  0  0  0  0  0  0  0  0
   -5.0538  -11.6694    0.0000 N   0  0  0  0  0  0  0  0  0  0  0  0
   -7.6516  -11.6305    0.0000 O   0  0  0  0  0  0  0  0  0  0  0  0
   -6.2741   -6.4005    0.0000 C   0  0  0  0  0  0  0  0  0  0  0  0
   -4.9865   -7.1699    0.0000 O   0  0  0  0  0  0  0  0  0  0  0  0
   -6.2517   -4.9007    0.0000 N   0  0  0  0  0  0  0  0  0  0  0  0
   -4.9416   -4.1702    0.0000 C   0  0  0  0  0  0  0  0  0  0  0  0
   -5.8884   -3.0068    0.0000 C   0  0  0  0  0  0  0  0  0  0  0  0
   -7.3694   -3.2452    0.0000 C   0  0  0  0  0  0  0  0  0  0  0  0
   -8.3163   -2.0818    0.0000 C   0  0  0  0  0  0  0  0  0  0  0  0
   -9.7972   -2.3201    0.0000 N   0  0  0  0  0  0  0  0  0  0  0  0
  -10.7441   -1.1568    0.0000 C   0  0  0  0  0  0  0  0  0  0  0  0
  -12.2250   -1.3951    0.0000 N   0  0  0  0  0  0  0  0  0  0  0  0
  -10.2100    0.2449    0.0000 N   0  0  0  0  0  0  0  0  0  0  0  0
   -3.4606   -3.9319    0.0000 C   0  0  0  0  0  0  0  0  0  0  0  0
   -3.1014   -2.4755    0.0000 O   0  0  0  0  0  0  0  0  0  0  0  0
   -2.5137   -5.0952    0.0000 N   0  0  0  0  0  0  0  0  0  0  0  0
   -1.0328   -4.8569    0.0000 C   0  0  0  0  0  0  0  0  0  0  0  0
    0.0537   -5.8910    0.0000 C   0  0  0  0  0  0  0  0  0  0  0  0
    1.3163   -6.7009    0.0000 C   0  0  0  0  0  0  0  0  0  0  0  0
    2.7094   -7.2571    0.0000 C   0  0  0  0  0  0  0  0  0  0  0  0
    4.1825   -7.5396    0.0000 C   0  0  0  0  0  0  0  0  0  0  0  0
    5.6825   -7.5383    0.0000 C   0  0  0  0  0  0  0  0  0  0  0  0
    7.1552   -7.2531    0.0000 C   0  0  0  0  0  0  0  0  0  0  0  0
    8.5472   -6.6943    0.0000 C   0  0  0  0  0  0  0  0  0  0  0  0
   -1.6482   -6.2248    0.0000 C   0  0  0  0  0  0  0  0  0  0  0  0
   -1.9040   -3.6358    0.0000 C   0  0  0  0  0  0  0  0  0  0  0  0
   -2.6701   -3.8562    0.0000 O   0  0  0  0  0  0  0  0  0  0  0  0
   -2.5283   -2.2719    0.0000 N   0  0  0  0  0  0  0  0  0  0  0  0
   -2.8833   -0.8145    0.0000 C   0  0  0  0  0  0  0  0  0  0  0  0
   -4.0315   -1.7798    0.0000 C   0  0  0  0  0  0  0  0  0  0  0  0
   -5.4415   -1.2680    0.0000 C   0  0  0  0  0  0  0  0  0  0  0  0
   -6.6988   -2.0861    0.0000 C   0  0  0  0  0  0  0  0  0  0  0  0
   -6.5914   -0.3048    0.0000 C   0  0  0  0  0  0  0  0  0  0  0  0
   -2.9560    0.6837    0.0000 C   0  0  0  0  0  0  0  0  0  0  0  0
   -4.4347    0.9358    0.0000 O   0  0  0  0  0  0  0  0  0  0  0  0
   -2.7439    2.1686    0.0000 N   0  0  0  0  0  0  0  0  0  0  0  0
   -2.2546    3.5866    0.0000 C   0  0  0  0  0  0  0  0  0  0  0  0
   -3.7423    3.3953    0.0000 C   0  0  0  0  0  0  0  0  0  0  0  0
   -4.6518    4.5882    0.0000 O   0  0  0  0  0  0  0  0  0  0  0  0
   -1.5057    4.8863    0.0000 C   0  0  0  0  0  0  0  0  0  0  0  0
   -2.7284    5.7553    0.0000 O   0  0  0  0  0  0  0  0  0  0  0  0
   -0.5245    6.0208    0.0000 N   0  0  0  0  0  0  0  0  0  0  0  0
    0.6538    6.9491    0.0000 C   0  0  0  0  0  0  0  0  0  0  0  0
   -0.7012    7.5926    0.0000 C   0  0  0  0  0  0  0  0  0  0  0  0
   -0.8214    9.0877    0.0000 C   0  0  0  0  0  0  0  0  0  0  0  0
    0.4133    9.9394    0.0000 C   0  0  0  0  0  0  0  0  0  0  0  0
    0.2931   11.4346    0.0000 C   0  0  0  0  0  0  0  0  0  0  0  0
   -1.0619   12.0781    0.0000 C   0  0  0  0  0  0  0  0  0  0  0  0
   -2.2966   11.2264    0.0000 C   0  0  0  0  0  0  0  0  0  0  0  0
   -2.1764    9.7312    0.0000 C   0  0  0  0  0  0  0  0  0  0  0  0
    1.9864    7.6376    0.0000 C   0  0  0  0  0  0  0  0  0  0  0  0
    1.6015    9.0874    0.0000 O   0  0  0  0  0  0  0  0  0  0  0  0
    3.4253    8.0615    0.0000 N   0  0  0  0  0  0  0  0  0  0  0  0
    4.9183    8.2055    0.0000 C   0  0  0  0  0  0  0  0  0  0  0  0
    4.1264    9.4793    0.0000 C   0  0  0  0  0  0  0  0  0  0  0  0
    4.8336   10.8022    0.0000 C   0  0  0  0  0  0  0  0  0  0  0  0
    6.3328   10.8511    0.0000 C   0  0  0  0  0  0  0  0  0  0  0  0
    7.0400   12.1739    0.0000 C   0  0  0  0  0  0  0  0  0  0  0  0
    6.2480   13.4478    0.0000 C   0  0  0  0  0  0  0  0  0  0  0  0
    4.7488   13.3988    0.0000 C   0  0  0  0  0  0  0  0  0  0  0  0
    4.0416   12.0760    0.0000 C   0  0  0  0  0  0  0  0  0  0  0  0
    6.4117    8.0642    0.0000 C   0  0  0  0  0  0  0  0  0  0  0  0
    6.8717    9.4919    0.0000 O   0  0  0  0  0  0  0  0  0  0  0  0
    7.8513    7.6429    0.0000 N   0  0  0  0  0  0  0  0  0  0  0  0
    9.1852    6.9568    0.0000 C   0  0  0  0  0  0  0  0  0  0  0  0
    9.2076    8.4566    0.0000 C   0  0  0  0  0  0  0  0  0  0  0  0
   10.3651    6.0306    0.0000 C   0  0  0  0  0  0  0  0  0  0  0  0
   11.3992    7.1171    0.0000 O   0  0  0  0  0  0  0  0  0  0  0  0
   11.3484    4.8979    0.0000 N   0  0  0  0  0  0  0  0  0  0  0  0
   12.0996    3.5995    0.0000 C   0  0  0  0  0  0  0  0  0  0  0  0
   12.9293    4.8491    0.0000 C   0  0  0  0  0  0  0  0  0  0  0  0
   14.4264    4.7553    0.0000 C   0  0  0  0  0  0  0  0  0  0  0  0
   15.2561    6.0049    0.0000 C   0  0  0  0  0  0  0  0  0  0  0  0
   15.8011    4.1552    0.0000 C   0  0  0  0  0  0  0  0  0  0  0  0
   12.5915    2.1825    0.0000 C   0  0  0  0  0  0  0  0  0  0  0  0
   14.0813    2.3571    0.0000 O   0  0  0  0  0  0  0  0  0  0  0  0
   12.8063    0.6979    0.0000 N   0  0  0  0  0  0  0  0  0  0  0  0
   12.7362   -0.8004    0.0000 C   0  0  0  0  0  0  0  0  0  0  0  0
   12.3839   -2.2585    0.0000 C   0  0  0  0  0  0  0  0  0  0  0  0
   11.7620   -3.6235    0.0000 C   0  0  0  0  0  0  0  0  0  0  0  0
   10.8930   -4.8461    0.0000 C   0  0  0  0  0  0  0  0  0  0  0  0
    9.8084   -5.8822    0.0000 C   0  0  0  0  0  0  0  0  0  0  0  0
   13.9950   -1.6162    0.0000 C   0  0  0  0  0  0  0  0  0  0  0  0
   14.1099   -0.1978    0.0000 C   0  0  0  0  0  0  0  0  0  0  0  0
   14.4553    1.2619    0.0000 O   0  0  0  0  0  0  0  0  0  0  0  0
   15.3186   -1.0861    0.0000 N   0  0  0  0  0  0  0  0  0  0  0  0
   16.6922   -0.4835    0.0000 C   0  0  0  0  0  0  0  0  0  0  0  0
   17.7769    0.5526    0.0000 C   0  0  0  0  0  0  0  0  0  0  0  0
   19.2165    0.1313    0.0000 C   0  0  0  0  0  0  0  0  0  0  0  0
   20.3011    1.1674    0.0000 O   0  0  0  0  0  0  0  0  0  0  0  0
   19.9135   -1.1969    0.0000 O   0  0  0  0  0  0  0  0  0  0  0  0
   17.9009   -1.3717    0.0000 C   0  0  0  0  0  0  0  0  0  0  0  0
   17.7360   -2.8626    0.0000 O   0  0  0  0  0  0  0  0  0  0  0  0
   19.2745   -0.7691    0.0000 N   0  0  0  0  0  0  0  0  0  0  0  0
   20.4832   -1.6574    0.0000 C   0  0  0  0  0  0  0  0  0  0  0  0
   21.3152   -2.9055    0.0000 C   0  0  0  0  0  0  0  0  0  0  0  0
   22.8121   -2.8090    0.0000 C   0  0  0  0  0  0  0  0  0  0  0  0
   23.6441   -4.0571    0.0000 C   0  0  0  0  0  0  0  0  0  0  0  0
   25.1416   -4.1438    0.0000 N   0  0  0  0  0  0  0  0  0  0  0  0
   22.9792   -5.4017    0.0000 O   0  0  0  0  0  0  0  0  0  0  0  0
   21.8568   -1.0547    0.0000 C   0  0  0  0  0  0  0  0  0  0  0  0
   22.0218    0.4362    0.0000 O   0  0  0  0  0  0  0  0  0  0  0  0
   23.0655   -1.9430    0.0000 N   0  0  0  0  0  0  0  0  0  0  0  0
   24.4392   -1.3404    0.0000 C   0  0  0  0  0  0  0  0  0  0  0  0
   25.5238   -0.3043    0.0000 C   0  0  0  0  0  0  0  0  0  0  0  0
   26.9635   -0.7256    0.0000 C   0  0  0  0  0  0  0  0  0  0  0  0
   26.1887    1.0403    0.0000 C   0  0  0  0  0  0  0  0  0  0  0  0
   25.3567    2.2884    0.0000 C   0  0  0  0  0  0  0  0  0  0  0  0
   25.6479   -2.2286    0.0000 C   0  0  0  0  0  0  0  0  0  0  0  0
   27.0847   -1.7979    0.0000 O   0  0  0  0  0  0  0  0  0  0  0  0
   25.6659   -3.7285    0.0000 O   0  0  0  0  0  0  0  0  0  0  0  0
  -34.6605   11.3859    0.0000 H   0  0  0  0  0  0  0  0  0  0  0  0
  -35.1499    8.8343    0.0000 H   0  0  0  0  0  0  0  0  0  0  0  0
  -32.6731   11.1861    0.0000 H   0  0  0  0  0  0  0  0  0  0  0  0
  -31.2146    9.9246    0.0000 H   0  0  0  0  0  0  0  0  0  0  0  0
  -33.6846    8.0309    0.0000 H   0  0  0  0  0  0  0  0  0  0  0  0
  -32.4087    6.7833    0.0000 H   0  0  0  0  0  0  0  0  0  0  0  0
  -31.6795    6.1526    0.0000 H   0  0  0  0  0  0  0  0  0  0  0  0
  -30.2611    5.0698    0.0000 H   0  0  0  0  0  0  0  0  0  0  0  0
  -28.7430    7.7869    0.0000 H   0  0  0  0  0  0  0  0  0  0  0  0
  -27.3246    6.7042    0.0000 H   0  0  0  0  0  0  0  0  0  0  0  0
  -26.5953    6.0734    0.0000 H   0  0  0  0  0  0  0  0  0  0  0  0
  -25.3195    4.8258    0.0000 H   0  0  0  0  0  0  0  0  0  0  0  0
  -27.7895    2.9321    0.0000 H   0  0  0  0  0  0  0  0  0  0  0  0
  -26.5137    1.6845    0.0000 H   0  0  0  0  0  0  0  0  0  0  0  0
  -25.7844    1.0537    0.0000 H   0  0  0  0  0  0  0  0  0  0  0  0
  -24.3660   -0.0290    0.0000 H   0  0  0  0  0  0  0  0  0  0  0  0
  -22.8479    2.6881    0.0000 H   0  0  0  0  0  0  0  0  0  0  0  0
  -21.4295    1.6054    0.0000 H   0  0  0  0  0  0  0  0  0  0  0  0
  -20.7002    0.9746    0.0000 H   0  0  0  0  0  0  0  0  0  0  0  0
  -19.4244   -0.2730    0.0000 H   0  0  0  0  0  0  0  0  0  0  0  0
  -21.8944   -2.1667    0.0000 H   0  0  0  0  0  0  0  0  0  0  0  0
  -20.6186   -3.4143    0.0000 H   0  0  0  0  0  0  0  0  0  0  0  0
  -19.8893   -4.0451    0.0000 H   0  0  0  0  0  0  0  0  0  0  0  0
  -18.4709   -5.1278    0.0000 H   0  0  0  0  0  0  0  0  0  0  0  0
  -16.9528   -2.4107    0.0000 H   0  0  0  0  0  0  0  0  0  0  0  0
  -15.5344   -3.4935    0.0000 H   0  0  0  0  0  0  0  0  0  0  0  0
  -14.8052   -4.1242    0.0000 H   0  0  0  0  0  0  0  0  0  0  0  0
  -13.5293   -5.3718    0.0000 H   0  0  0  0  0  0  0  0  0  0  0  0
  -15.9993   -7.2656    0.0000 H   0  0  0  0  0  0  0  0  0  0  0  0
  -14.5408   -8.5270    0.0000 H   0  0  0  0  0  0  0  0  0  0  0  0
  -13.6656   -9.7333    0.0000 H   0  0  0  0  0  0  0  0  0  0  0  0
  -11.0578   -7.5095    0.0000 H   0  0  0  0  0  0  0  0  0  0  0  0
  -11.6367  -11.9109    0.0000 H   0  0  0  0  0  0  0  0  0  0  0  0
  -10.1411  -10.6936    0.0000 H   0  0  0  0  0  0  0  0  0  0  0  0
  -15.1102  -12.2895    0.0000 H   0  0  0  0  0  0  0  0  0  0  0  0
  -12.6824  -13.2145    0.0000 H   0  0  0  0  0  0  0  0  0  0  0  0
  -10.0121   -6.2060    0.0000 H   0  0  0  0  0  0  0  0  0  0  0  0
   -8.0761   -5.7139    0.0000 H   0  0  0  0  0  0  0  0  0  0  0  0
   -7.9659  -10.0872    0.0000 H   0  0  0  0  0  0  0  0  0  0  0  0
   -9.1044   -8.7131    0.0000 H   0  0  0  0  0  0  0  0  0  0  0  0
   -4.8459   -9.6827    0.0000 H   0  0  0  0  0  0  0  0  0  0  0  0
   -5.7850   -7.9985    0.0000 H   0  0  0  0  0  0  0  0  0  0  0  0
   -5.0762  -13.1692    0.0000 H   0  0  0  0  0  0  0  0  0  0  0  0
   -3.7437  -10.9389    0.0000 H   0  0  0  0  0  0  0  0  0  0  0  0
   -7.6873   -4.4658    0.0000 H   0  0  0  0  0  0  0  0  0  0  0  0
   -4.4497   -5.5873    0.0000 H   0  0  0  0  0  0  0  0  0  0  0  0
   -6.3803   -1.5898    0.0000 H   0  0  0  0  0  0  0  0  0  0  0  0
   -4.3887   -2.9771    0.0000 H   0  0  0  0  0  0  0  0  0  0  0  0
   -8.6795   -3.9757    0.0000 H   0  0  0  0  0  0  0  0  0  0  0  0
   -7.4181   -4.7444    0.0000 H   0  0  0  0  0  0  0  0  0  0  0  0
   -8.9772   -0.7353    0.0000 H   0  0  0  0  0  0  0  0  0  0  0  0
   -7.1050   -1.1971    0.0000 H   0  0  0  0  0  0  0  0  0  0  0  0
  -10.3313   -3.7219    0.0000 H   0  0  0  0  0  0  0  0  0  0  0  0
  -13.1719   -0.2318    0.0000 H   0  0  0  0  0  0  0  0  0  0  0  0
  -12.7591   -2.7968    0.0000 H   0  0  0  0  0  0  0  0  0  0  0  0
  -11.1569    1.4083    0.0000 H   0  0  0  0  0  0  0  0  0  0  0  0
   -8.7291    0.4833    0.0000 H   0  0  0  0  0  0  0  0  0  0  0  0
   -3.2147   -6.4214    0.0000 H   0  0  0  0  0  0  0  0  0  0  0  0
   -0.2917   -7.3507    0.0000 H   0  0  0  0  0  0  0  0  0  0  0  0
   -1.2821   -6.5733    0.0000 H   0  0  0  0  0  0  0  0  0  0  0  0
    1.2534   -8.1995    0.0000 H   0  0  0  0  0  0  0  0  0  0  0  0
    0.1337   -7.6236    0.0000 H   0  0  0  0  0  0  0  0  0  0  0  0
    2.9312   -8.7406    0.0000 H   0  0  0  0  0  0  0  0  0  0  0  0
    1.7228   -8.3869    0.0000 H   0  0  0  0  0  0  0  0  0  0  0  0
    4.6811   -8.9544    0.0000 H   0  0  0  0  0  0  0  0  0  0  0  0
    3.4276   -8.8358    0.0000 H   0  0  0  0  0  0  0  0  0  0  0  0
    6.4399   -8.8331    0.0000 H   0  0  0  0  0  0  0  0  0  0  0  0
    5.1865   -8.9539    0.0000 H   0  0  0  0  0  0  0  0  0  0  0  0
    8.2740   -8.2522    0.0000 H   0  0  0  0  0  0  0  0  0  0  0  0
    6.9360   -8.7370    0.0000 H   0  0  0  0  0  0  0  0  0  0  0  0
    9.2358   -8.0270    0.0000 H   0  0  0  0  0  0  0  0  0  0  0  0
   -2.8818   -6.7759    0.0000 H   0  0  0  0  0  0  0  0  0  0  0  0
   -1.4042   -7.7879    0.0000 H   0  0  0  0  0  0  0  0  0  0  0  0
   -0.0994   -6.8722    0.0000 H   0  0  0  0  0  0  0  0  0  0  0  0
   -3.7843   -3.0921    0.0000 H   0  0  0  0  0  0  0  0  0  0  0  0
   -4.1746   -0.0513    0.0000 H   0  0  0  0  0  0  0  0  0  0  0  0
   -4.6163   -3.1611    0.0000 H   0  0  0  0  0  0  0  0  0  0  0  0
   -3.0075   -2.8759    0.0000 H   0  0  0  0  0  0  0  0  0  0  0  0
   -5.0294    0.1743    0.0000 H   0  0  0  0  0  0  0  0  0  0  0  0
   -7.9455   -1.5656    0.0000 H   0  0  0  0  0  0  0  0  0  0  0  0
   -7.8146   -3.2075    0.0000 H   0  0  0  0  0  0  0  0  0  0  0  0
   -5.3138   -3.0346    0.0000 H   0  0  0  0  0  0  0  0  0  0  0  0
   -8.0831   -0.4629    0.0000 H   0  0  0  0  0  0  0  0  0  0  0  0
   -7.3426    0.9935    0.0000 H   0  0  0  0  0  0  0  0  0  0  0  0
   -5.4432    0.6604    0.0000 H   0  0  0  0  0  0  0  0  0  0  0  0
   -4.2340    2.3406    0.0000 H   0  0  0  0  0  0  0  0  0  0  0  0
   -3.0866    4.8347    0.0000 H   0  0  0  0  0  0  0  0  0  0  0  0
   -5.1489    2.8744    0.0000 H   0  0  0  0  0  0  0  0  0  0  0  0
   -3.6554    1.8979    0.0000 H   0  0  0  0  0  0  0  0  0  0  0  0
   -6.1396    4.3969    0.0000 H   0  0  0  0  0  0  0  0  0  0  0  0
   -1.6851    6.9711    0.0000 H   0  0  0  0  0  0  0  0  0  0  0  0
    0.6286    8.4489    0.0000 H   0  0  0  0  0  0  0  0  0  0  0  0
   -2.1662    7.9148    0.0000 H   0  0  0  0  0  0  0  0  0  0  0  0
   -1.4377    6.2858    0.0000 H   0  0  0  0  0  0  0  0  0  0  0  0
    1.8366    9.4659    0.0000 H   0  0  0  0  0  0  0  0  0  0  0  0
    1.5279   12.2863    0.0000 H   0  0  0  0  0  0  0  0  0  0  0  0
   -1.1821   13.5733    0.0000 H   0  0  0  0  0  0  0  0  0  0  0  0
   -3.6516   11.8699    0.0000 H   0  0  0  0  0  0  0  0  0  0  0  0
   -3.4111    8.8795    0.0000 H   0  0  0  0  0  0  0  0  0  0  0  0
    2.9627    9.4884    0.0000 H   0  0  0  0  0  0  0  0  0  0  0  0
    5.7080    9.4808    0.0000 H   0  0  0  0  0  0  0  0  0  0  0  0
    3.0681   10.5424    0.0000 H   0  0  0  0  0  0  0  0  0  0  0  0
    2.8003    8.7782    0.0000 H   0  0  0  0  0  0  0  0  0  0  0  0
    7.2741    9.6833    0.0000 H   0  0  0  0  0  0  0  0  0  0  0  0
    8.5392   12.2229    0.0000 H   0  0  0  0  0  0  0  0  0  0  0  0
    6.9552   14.7706    0.0000 H   0  0  0  0  0  0  0  0  0  0  0  0
    3.9568   14.6727    0.0000 H   0  0  0  0  0  0  0  0  0  0  0  0
    2.5424   12.0271    0.0000 H   0  0  0  0  0  0  0  0  0  0  0  0
    8.2336    9.0934    0.0000 H   0  0  0  0  0  0  0  0  0  0  0  0
   10.5390    7.6027    0.0000 H   0  0  0  0  0  0  0  0  0  0  0  0
   10.5177    9.1871    0.0000 H   0  0  0  0  0  0  0  0  0  0  0  0
    8.8921    9.9231    0.0000 H   0  0  0  0  0  0  0  0  0  0  0  0
    7.7130    8.5837    0.0000 H   0  0  0  0  0  0  0  0  0  0  0  0
   12.4542    5.9114    0.0000 H   0  0  0  0  0  0  0  0  0  0  0  0
   13.5536    3.2310    0.0000 H   0  0  0  0  0  0  0  0  0  0  0  0
   13.2817    6.3072    0.0000 H   0  0  0  0  0  0  0  0  0  0  0  0
   11.7407    5.7641    0.0000 H   0  0  0  0  0  0  0  0  0  0  0  0
   14.4373    3.2554    0.0000 H   0  0  0  0  0  0  0  0  0  0  0  0
   16.7535    6.0943    0.0000 H   0  0  0  0  0  0  0  0  0  0  0  0
   15.6085    7.4630    0.0000 H   0  0  0  0  0  0  0  0  0  0  0  0
   13.9648    6.7682    0.0000 H   0  0  0  0  0  0  0  0  0  0  0  0
   17.1077    4.8918    0.0000 H   0  0  0  0  0  0  0  0  0  0  0  0
   16.8876    3.1210    0.0000 H   0  0  0  0  0  0  0  0  0  0  0  0
   14.9713    2.9056    0.0000 H   0  0  0  0  0  0  0  0  0  0  0  0
   14.2845    0.9527    0.0000 H   0  0  0  0  0  0  0  0  0  0  0  0
   13.8763   -2.1075    0.0000 H   0  0  0  0  0  0  0  0  0  0  0  0
   13.3308   -3.4219    0.0000 H   0  0  0  0  0  0  0  0  0  0  0  0
   13.2285   -3.9388    0.0000 H   0  0  0  0  0  0  0  0  0  0  0  0
   12.6274   -4.8487    0.0000 H   0  0  0  0  0  0  0  0  0  0  0  0
   12.3346   -5.2606    0.0000 H   0  0  0  0  0  0  0  0  0  0  0  0
   11.3397   -6.2781    0.0000 H   0  0  0  0  0  0  0  0  0  0  0  0
   10.7367   -7.0605    0.0000 H   0  0  0  0  0  0  0  0  0  0  0  0
   14.0311   -3.2818    0.0000 H   0  0  0  0  0  0  0  0  0  0  0  0
   15.2061   -2.4290    0.0000 H   0  0  0  0  0  0  0  0  0  0  0  0
   14.8948   -0.6530    0.0000 H   0  0  0  0  0  0  0  0  0  0  0  0
   15.3366   -2.5860    0.0000 H   0  0  0  0  0  0  0  0  0  0  0  0
   15.8602    0.7647    0.0000 H   0  0  0  0  0  0  0  0  0  0  0  0
   18.4417    1.8972    0.0000 H   0  0  0  0  0  0  0  0  0  0  0  0
   16.5681    1.4409    0.0000 H   0  0  0  0  0  0  0  0  0  0  0  0
   19.7953    0.6376    0.0000 H   0  0  0  0  0  0  0  0  0  0  0  0
   19.3986   -2.6935    0.0000 H   0  0  0  0  0  0  0  0  0  0  0  0
   21.6702   -4.3629    0.0000 H   0  0  0  0  0  0  0  0  0  0  0  0
   19.9416   -3.5081    0.0000 H   0  0  0  0  0  0  0  0  0  0  0  0
   24.1857   -2.2063    0.0000 H   0  0  0  0  0  0  0  0  0  0  0  0
   23.1831   -1.3556    0.0000 H   0  0  0  0  0  0  0  0  0  0  0  0
   25.9730   -5.2087    0.0000 H   0  0  0  0  0  0  0  0  0  0  0  0
   26.3094   -2.9556    0.0000 H   0  0  0  0  0  0  0  0  0  0  0  0
   23.2663   -3.4295    0.0000 H   0  0  0  0  0  0  0  0  0  0  0  0
   23.6072   -0.0923    0.0000 H   0  0  0  0  0  0  0  0  0  0  0  0
   24.2159    0.4300    0.0000 H   0  0  0  0  0  0  0  0  0  0  0  0
   28.1663    0.1706    0.0000 H   0  0  0  0  0  0  0  0  0  0  0  0
   28.1722   -1.6138    0.0000 H   0  0  0  0  0  0  0  0  0  0  0  0
   27.0078   -2.2249    0.0000 H   0  0  0  0  0  0  0  0  0  0  0  0
   27.2734    2.0764    0.0000 H   0  0  0  0  0  0  0  0  0  0  0  0
   27.4967    0.3060    0.0000 H   0  0  0  0  0  0  0  0  0  0  0  0
   26.0216    3.6330    0.0000 H   0  0  0  0  0  0  0  0  0  0  0  0
   24.1480    3.1767    0.0000 H   0  0  0  0  0  0  0  0  0  0  0  0
   24.1538    1.3923    0.0000 H   0  0  0  0  0  0  0  0  0  0  0  0
  1  2  1  0
  2  3  1  0
  3  4  1  0
  4  5  1  0
  5  6  1  0
  6  7  1  0
  7  8  1  0
  8  9  1  0
  9 10  1  0
 10 11  1  0
 11 12  1  0
 12 13  1  0
 13 14  1  0
 14 15  1  0
 15 16  1  0
 16 17  1  0
 17 18  1  0
 18 19  1  0
 19 20  1  0
 20 21  1  0
 21 22  1  0
 22 23  2  0
 22 24  1  0
 24 25  1  0
 25 26  1  0
 26 27  1  0
 27 28  1  0
 27 29  2  0
 25 30  1  0
 30 31  2  0
 30 32  1  0
 32 33  1  0
 33 34  1  0
 34 35  1  0
 35 36  1  0
 36 37  1  0
 36 38  2  0
 33 39  1  0
 39 40  2  0
 39 41  1  0
 41 42  1  0
 42 43  1  0
 43 44  1  0
 44 45  1  0
 45 46  1  0
 46 47  1  0
 47 48  2  3
 47 49  1  0
 42 50  1  0
 50 51  2  0
 50 52  1  0
 53 52  1  1
 53 54  1  0
 54 55  1  0
 55 56  1  0
 56 57  1  0
 57 58  1  0
 58 59  1  0
 59 60  1  0
 53 61  1  0
 53 62  1  0
 62 63  2  0
 62 64  1  0
 64 65  1  0
 65 66  1  0
 66 67  1  0
 67 68  1  0
 67 69  1  0
 65 70  1  0
 70 71  2  0
 70 72  1  0
 72 73  1  0
 73 74  1  0
 74 75  1  0
 73 76  1  0
 76 77  2  0
 76 78  1  0
 78 79  1  0
 79 80  1  0
 80 81  1  0
 81 82  2  0
 82 83  1  0
 83 84  2  0
 84 85  1  0
 85 86  2  0
 79 87  1  0
 87 88  2  0
 87 89  1  0
 89 90  1  0
 90 91  1  0
 91 92  1  0
 92 93  2  0
 93 94  1  0
 94 95  2  0
 95 96  1  0
 96 97  2  0
 90 98  1  0
 98 99  2  0
 98100  1  0
100101  1  0
101102  1  0
101103  1  0
103104  2  0
103105  1  0
105106  1  0
106107  1  0
107108  1  0
108109  1  0
108110  1  0
106111  1  0
111112  2  0
111113  1  0
113114  1  0
114115  1  0
115116  1  0
116117  1  0
117118  1  0
114119  1  0
114120  1  6
120121  2  0
120122  1  0
122123  1  0
123124  1  0
124125  1  0
125126  2  0
125127  1  0
123128  1  0
128129  2  0
128130  1  0
130131  1  0
131132  1  0
132133  1  0
133134  1  0
134135  1  0
134136  2  0
131137  1  0
137138  2  0
137139  1  0
139140  1  0
140141  1  0
141142  1  0
141143  1  0
143144  1  0
140145  1  0
145146  2  0
145147  1  0
 86 81  1  0
 97 92  1  0
 60118  2  0
  1148  1  0
  1149  1  0
  2150  1  0
  2151  1  0
  3152  1  0
  3153  1  0
  5154  1  0
  5155  1  0
  6156  1  0
  6157  1  0
  8158  1  0
  8159  1  0
  9160  1  0
  9161  1  0
 11162  1  0
 11163  1  0
 12164  1  0
 12165  1  0
 14166  1  0
 14167  1  0
 15168  1  0
 15169  1  0
 17170  1  0
 17171  1  0
 18172  1  0
 18173  1  0
 20174  1  0
 20175  1  0
 21176  1  0
 21177  1  0
 24178  1  0
 25179  1  6
 26180  1  0
 26181  1  0
 28182  1  0
 28183  1  0
 32184  1  0
 33185  1  6
 34186  1  0
 34187  1  0
 35188  1  0
 35189  1  0
 37190  1  0
 37191  1  0
 41192  1  0
 42193  1  1
 43194  1  0
 43195  1  0
 44196  1  0
 44197  1  0
 45198  1  0
 45199  1  0
 46200  1  0
 48201  1  0
 48202  1  0
 49203  1  0
 49204  1  0
 52205  1  0
 54206  1  0
 54207  1  0
 55208  1  0
 55209  1  0
 56210  1  0
 56211  1  0
 57212  1  0
 57213  1  0
 58214  1  0
 58215  1  0
 59216  1  0
 59217  1  0
 60218  1  0
 61219  1  0
 61220  1  0
 61221  1  0
 64222  1  0
 65223  1  1
 66224  1  0
 66225  1  0
 67226  1  0
 68227  1  0
 68228  1  0
 68229  1  0
 69230  1  0
 69231  1  0
 69232  1  0
 72233  1  0
 73234  1  1
 74235  1  0
 74236  1  0
 75237  1  0
 78238  1  0
 79239  1  1
 80240  1  0
 80241  1  0
 82242  1  0
 83243  1  0
 84244  1  0
 85245  1  0
 86246  1  0
 89247  1  0
 90248  1  1
 91249  1  0
 91250  1  0
 93251  1  0
 94252  1  0
 95253  1  0
 96254  1  0
 97255  1  0
100256  1  0
101257  1  1
102258  1  0
102259  1  0
102260  1  0
105261  1  0
106262  1  1
107263  1  0
107264  1  0
108265  1  0
109266  1  0
109267  1  0
109268  1  0
110269  1  0
110270  1  0
110271  1  0
113272  1  0
115273  1  0
115274  1  0
116275  1  0
116276  1  0
117277  1  0
117278  1  0
118279  1  0
119280  1  0
119281  1  0
119282  1  0
122283  1  0
123284  1  1
124285  1  0
124286  1  0
130287  1  0
131288  1  6
132289  1  0
132290  1  0
133291  1  0
133292  1  0
135293  1  0
135294  1  0
139295  1  0
140296  1  1
141297  1  1
142298  1  0
142299  1  0
142300  1  0
143301  1  0
143302  1  0
144303  1  0
144304  1  0
144305  1  0
M  CHG  3  48   1 127  -1 147  -1
M  END
