
     RDKit          2D

415421  0  0  0  0  0  0  0  0999 V2000
   40.1062   -4.3600    0.0000 C   0  0  0  0  0  0  0  0  0  0  0  0
   41.5182   -3.8537    0.0000 N   0  0  0  0  0  0  0  0  0  0  0  0
   42.6627   -4.8234    0.0000 C   0  0  0  0  0  0  0  0  0  0  0  0
   42.3951   -6.2994    0.0000 C   0  0  0  0  0  0  0  0  0  0  0  0
   43.5395   -7.2690    0.0000 C   0  0  0  0  0  0  0  0  0  0  0  0
   44.9515   -6.7628    0.0000 C   0  0  0  0  0  0  0  0  0  0  0  0
   45.2191   -5.2868    0.0000 C   0  0  0  0  0  0  0  0  0  0  0  0
   44.0746   -4.3171    0.0000 C   0  0  0  0  0  0  0  0  0  0  0  0
   46.7055   -5.0852    0.0000 C   0  0  0  0  0  0  0  0  0  0  0  0
   47.3565   -6.4365    0.0000 O   0  0  0  0  0  0  0  0  0  0  0  0
   46.2726   -7.4733    0.0000 C   0  0  0  0  0  0  0  0  0  0  0  0
   46.4742   -8.9597    0.0000 O   0  0  0  0  0  0  0  0  0  0  0  0
   48.2048   -5.0400    0.0000 C   0  0  0  0  0  0  0  0  0  0  0  0
   48.9153   -3.7190    0.0000 C   0  0  0  0  0  0  0  0  0  0  0  0
   50.4146   -3.6738    0.0000 C   0  0  0  0  0  0  0  0  0  0  0  0
   51.2034   -4.9497    0.0000 C   0  0  0  0  0  0  0  0  0  0  0  0
   50.4929   -6.2707    0.0000 C   0  0  0  0  0  0  0  0  0  0  0  0
   48.9936   -6.3159    0.0000 C   0  0  0  0  0  0  0  0  0  0  0  0
   52.7027   -4.9045    0.0000 O   0  0  0  0  0  0  0  0  0  0  0  0
   48.1266   -2.4431    0.0000 O   0  0  0  0  0  0  0  0  0  0  0  0
   46.6272   -2.4883    0.0000 C   0  0  0  0  0  0  0  0  0  0  0  0
   45.9167   -3.8093    0.0000 C   0  0  0  0  0  0  0  0  0  0  0  0
   44.7490   -3.2380    0.0000 C   0  0  0  0  0  0  0  0  0  0  0  0
   44.3283   -2.5575    0.0000 C   0  0  0  0  0  0  0  0  0  0  0  0
   44.7072   -1.8530    0.0000 C   0  0  0  0  0  0  0  0  0  0  0  0
   45.5069   -1.8289    0.0000 C   0  0  0  0  0  0  0  0  0  0  0  0
   43.5504    0.0183    0.0000 O   0  0  0  0  0  0  0  0  0  0  0  0
   39.8387   -5.8359    0.0000 S   0  0  0  0  0  0  0  0  0  0  0  0
   38.9618   -3.3903    0.0000 N   0  0  0  0  0  0  0  0  0  0  0  0
   37.5498   -3.8966    0.0000 C   0  0  0  0  0  0  0  0  0  0  0  0
   36.4054   -2.9269    0.0000 C   0  0  0  0  0  0  0  0  0  0  0  0
   34.9934   -3.4332    0.0000 C   0  0  0  0  0  0  0  0  0  0  0  0
   34.7259   -4.9091    0.0000 O   0  0  0  0  0  0  0  0  0  0  0  0
   33.8490   -2.4635    0.0000 N   0  0  0  0  0  0  0  0  0  0  0  0
   32.4370   -2.9698    0.0000 C   0  0  0  0  0  0  0  0  0  0  0  0
   31.2833   -3.9284    0.0000 C   0  0  0  0  0  0  0  0  0  0  0  0
   29.7835   -3.9475    0.0000 O   0  0  0  0  0  0  0  0  0  0  0  0
   31.2926   -2.0001    0.0000 C   0  0  0  0  0  0  0  0  0  0  0  0
   31.5601   -0.5241    0.0000 O   0  0  0  0  0  0  0  0  0  0  0  0
   29.8806   -2.5063    0.0000 N   0  0  0  0  0  0  0  0  0  0  0  0
   28.7362   -1.5367    0.0000 C   0  0  0  0  0  0  0  0  0  0  0  0
   27.9924   -0.2340    0.0000 C   0  0  0  0  0  0  0  0  0  0  0  0
   26.9747    0.8679    0.0000 O   0  0  0  0  0  0  0  0  0  0  0  0
   28.7486    1.0614    0.0000 C   0  0  0  0  0  0  0  0  0  0  0  0
   27.3242   -2.0429    0.0000 C   0  0  0  0  0  0  0  0  0  0  0  0
   27.0566   -3.5189    0.0000 O   0  0  0  0  0  0  0  0  0  0  0  0
   26.1798   -1.0733    0.0000 N   0  0  0  0  0  0  0  0  0  0  0  0
   24.7678   -1.5795    0.0000 C   0  0  0  0  0  0  0  0  0  0  0  0
   23.6141   -2.5382    0.0000 C   0  0  0  0  0  0  0  0  0  0  0  0
   23.6233   -0.6098    0.0000 C   0  0  0  0  0  0  0  0  0  0  0  0
   23.8909    0.8661    0.0000 O   0  0  0  0  0  0  0  0  0  0  0  0
   22.2114   -1.1161    0.0000 N   0  0  0  0  0  0  0  0  0  0  0  0
   21.0669   -0.1464    0.0000 C   0  0  0  0  0  0  0  0  0  0  0  0
   20.3232    1.1562    0.0000 C   0  0  0  0  0  0  0  0  0  0  0  0
   21.0794    2.4516    0.0000 C   0  0  0  0  0  0  0  0  0  0  0  0
   20.3356    3.7542    0.0000 C   0  0  0  0  0  0  0  0  0  0  0  0
   22.2331    3.4103    0.0000 C   0  0  0  0  0  0  0  0  0  0  0  0
   19.6549   -0.6527    0.0000 C   0  0  0  0  0  0  0  0  0  0  0  0
   19.3874   -2.1286    0.0000 O   0  0  0  0  0  0  0  0  0  0  0  0
   18.5105    0.3170    0.0000 N   0  0  0  0  0  0  0  0  0  0  0  0
   17.0985   -0.1893    0.0000 C   0  0  0  0  0  0  0  0  0  0  0  0
   15.9449   -1.1479    0.0000 C   0  0  0  0  0  0  0  0  0  0  0  0
   14.5378   -0.6282    0.0000 C   0  0  0  0  0  0  0  0  0  0  0  0
   13.3841   -1.5868    0.0000 C   0  0  0  0  0  0  0  0  0  0  0  0
   11.9771   -1.0670    0.0000 N   0  0  0  0  0  0  0  0  0  0  0  0
   10.8234   -2.0257    0.0000 C   0  0  0  0  0  0  0  0  0  0  0  0
    9.4902   -1.3383    0.0000 N   0  0  0  0  0  0  0  0  0  0  0  0
   11.0768   -3.5041    0.0000 N   0  0  0  0  0  0  0  0  0  0  0  0
   15.9541    0.7804    0.0000 C   0  0  0  0  0  0  0  0  0  0  0  0
   16.2217    2.2563    0.0000 O   0  0  0  0  0  0  0  0  0  0  0  0
   14.5421    0.2741    0.0000 N   0  0  0  0  0  0  0  0  0  0  0  0
   13.3977    1.2438    0.0000 C   0  0  0  0  0  0  0  0  0  0  0  0
   12.6539    2.5464    0.0000 C   0  0  0  0  0  0  0  0  0  0  0  0
   13.4101    3.8419    0.0000 C   0  0  0  0  0  0  0  0  0  0  0  0
   12.6664    5.1445    0.0000 C   0  0  0  0  0  0  0  0  0  0  0  0
   13.4226    6.4399    0.0000 O   0  0  0  0  0  0  0  0  0  0  0  0
   11.1664    5.1517    0.0000 O   0  0  0  0  0  0  0  0  0  0  0  0
   11.9857    0.7375    0.0000 C   0  0  0  0  0  0  0  0  0  0  0  0
   11.5361   -0.2592    0.0000 O   0  0  0  0  0  0  0  0  0  0  0  0
   10.8413    1.7072    0.0000 N   0  0  0  0  0  0  0  0  0  0  0  0
    9.4293    1.2010    0.0000 C   0  0  0  0  0  0  0  0  0  0  0  0
    8.2756    0.2423    0.0000 C   0  0  0  0  0  0  0  0  0  0  0  0
    6.8686    0.7621    0.0000 C   0  0  0  0  0  0  0  0  0  0  0  0
    5.7149   -0.1966    0.0000 C   0  0  0  0  0  0  0  0  0  0  0  0
    5.7241    1.7318    0.0000 C   0  0  0  0  0  0  0  0  0  0  0  0
    8.2849    2.1706    0.0000 C   0  0  0  0  0  0  0  0  0  0  0  0
    8.5524    3.6466    0.0000 O   0  0  0  0  0  0  0  0  0  0  0  0
    6.8729    1.6644    0.0000 N   0  0  0  0  0  0  0  0  0  0  0  0
    5.7284    2.6341    0.0000 C   0  0  0  0  0  0  0  0  0  0  0  0
    4.9847    3.9367    0.0000 C   0  0  0  0  0  0  0  0  0  0  0  0
    5.8932    5.1303    0.0000 C   0  0  0  0  0  0  0  0  0  0  0  0
    3.8403    4.9064    0.0000 C   0  0  0  0  0  0  0  0  0  0  0  0
    4.1078    6.3823    0.0000 C   0  0  0  0  0  0  0  0  0  0  0  0
    4.3165    2.1278    0.0000 C   0  0  0  0  0  0  0  0  0  0  0  0
    4.0489    0.6518    0.0000 O   0  0  0  0  0  0  0  0  0  0  0  0
    3.1720    3.0975    0.0000 N   0  0  0  0  0  0  0  0  0  0  0  0
    1.7601    2.5912    0.0000 C   0  0  0  0  0  0  0  0  0  0  0  0
    1.2054    1.1975    0.0000 C   0  0  0  0  0  0  0  0  0  0  0  0
    0.2645    0.0293    0.0000 C   0  0  0  0  0  0  0  0  0  0  0  0
   -0.9789   -0.8097    0.0000 C   0  0  0  0  0  0  0  0  0  0  0  0
   -2.4144   -1.2450    0.0000 C   0  0  0  0  0  0  0  0  0  0  0  0
    2.9260    1.6475    0.0000 C   0  0  0  0  0  0  0  0  0  0  0  0
    1.8793    4.0865    0.0000 C   0  0  0  0  0  0  0  0  0  0  0  0
    3.3756    4.1914    0.0000 O   0  0  0  0  0  0  0  0  0  0  0  0
    1.5526    5.5504    0.0000 N   0  0  0  0  0  0  0  0  0  0  0  0
    0.8088    6.8530    0.0000 C   0  0  0  0  0  0  0  0  0  0  0  0
    1.2933    8.2726    0.0000 C   0  0  0  0  0  0  0  0  0  0  0  0
    0.3062    9.4021    0.0000 C   0  0  0  0  0  0  0  0  0  0  0  0
    0.7907   10.8216    0.0000 C   0  0  0  0  0  0  0  0  0  0  0  0
   -0.1964   11.9511    0.0000 O   0  0  0  0  0  0  0  0  0  0  0  0
    2.2624   11.1118    0.0000 O   0  0  0  0  0  0  0  0  0  0  0  0
   -0.2859    7.8786    0.0000 C   0  0  0  0  0  0  0  0  0  0  0  0
   -0.0060    8.6250    0.0000 O   0  0  0  0  0  0  0  0  0  0  0  0
   -1.6342    8.5359    0.0000 N   0  0  0  0  0  0  0  0  0  0  0  0
   -3.1164    8.7665    0.0000 C   0  0  0  0  0  0  0  0  0  0  0  0
   -3.9241   10.0305    0.0000 C   0  0  0  0  0  0  0  0  0  0  0  0
   -3.2334   11.3620    0.0000 C   0  0  0  0  0  0  0  0  0  0  0  0
   -4.0412   12.6259    0.0000 C   0  0  0  0  0  0  0  0  0  0  0  0
   -2.1290   12.3770    0.0000 C   0  0  0  0  0  0  0  0  0  0  0  0
   -4.6007    8.5501    0.0000 C   0  0  0  0  0  0  0  0  0  0  0  0
   -5.0359    9.9856    0.0000 O   0  0  0  0  0  0  0  0  0  0  0  0
   -5.9552    7.9058    0.0000 N   0  0  0  0  0  0  0  0  0  0  0  0
   -7.0597    6.8908    0.0000 C   0  0  0  0  0  0  0  0  0  0  0  0
   -8.5515    7.0473    0.0000 C   0  0  0  0  0  0  0  0  0  0  0  0
   -9.1619    8.4175    0.0000 C   0  0  0  0  0  0  0  0  0  0  0  0
   -7.8159    5.5953    0.0000 C   0  0  0  0  0  0  0  0  0  0  0  0
   -9.2096    6.1500    0.0000 O   0  0  0  0  0  0  0  0  0  0  0  0
   -8.1567    4.1346    0.0000 N   0  0  0  0  0  0  0  0  0  0  0  0
   -8.0518    2.6382    0.0000 C   0  0  0  0  0  0  0  0  0  0  0  0
   -7.5105    1.2393    0.0000 C   0  0  0  0  0  0  0  0  0  0  0  0
   -6.5809    0.0621    0.0000 C   0  0  0  0  0  0  0  0  0  0  0  0
   -5.3456   -0.7888    0.0000 C   0  0  0  0  0  0  0  0  0  0  0  0
   -3.9143   -1.2378    0.0000 C   0  0  0  0  0  0  0  0  0  0  0  0
   -9.4588    3.1580    0.0000 C   0  0  0  0  0  0  0  0  0  0  0  0
   -9.1043    1.5695    0.0000 C   0  0  0  0  0  0  0  0  0  0  0  0
   -9.0667    0.0700    0.0000 O   0  0  0  0  0  0  0  0  0  0  0  0
  -10.5561    1.9466    0.0000 N   0  0  0  0  0  0  0  0  0  0  0  0
  -11.6086    0.8778    0.0000 C   0  0  0  0  0  0  0  0  0  0  0  0
  -12.2320   -0.4865    0.0000 C   0  0  0  0  0  0  0  0  0  0  0  0
  -13.6968   -0.8096    0.0000 C   0  0  0  0  0  0  0  0  0  0  0  0
  -12.3513   -1.9817    0.0000 C   0  0  0  0  0  0  0  0  0  0  0  0
  -11.1160   -2.8326    0.0000 C   0  0  0  0  0  0  0  0  0  0  0  0
  -13.0604    1.2549    0.0000 C   0  0  0  0  0  0  0  0  0  0  0  0
  -13.4597    2.7008    0.0000 O   0  0  0  0  0  0  0  0  0  0  0  0
  -14.1129    0.1862    0.0000 N   0  0  0  0  0  0  0  0  0  0  0  0
  -15.5647    0.5633    0.0000 C   0  0  0  0  0  0  0  0  0  0  0  0
  -16.8000    1.4142    0.0000 C   0  0  0  0  0  0  0  0  0  0  0  0
  -18.1950    1.9654    0.0000 O   0  0  0  0  0  0  0  0  0  0  0  0
  -16.6807    2.9094    0.0000 C   0  0  0  0  0  0  0  0  0  0  0  0
  -16.6172   -0.5055    0.0000 C   0  0  0  0  0  0  0  0  0  0  0  0
  -16.2179   -1.9514    0.0000 O   0  0  0  0  0  0  0  0  0  0  0  0
  -18.0690   -0.1284    0.0000 N   0  0  0  0  0  0  0  0  0  0  0  0
  -19.1215   -1.1972    0.0000 C   0  0  0  0  0  0  0  0  0  0  0  0
  -19.7450   -2.5615    0.0000 C   0  0  0  0  0  0  0  0  0  0  0  0
  -21.2382   -2.7037    0.0000 C   0  0  0  0  0  0  0  0  0  0  0  0
  -21.8617   -4.0679    0.0000 C   0  0  0  0  0  0  0  0  0  0  0  0
  -23.3265   -4.3911    0.0000 N   0  0  0  0  0  0  0  0  0  0  0  0
  -20.9920   -5.2900    0.0000 O   0  0  0  0  0  0  0  0  0  0  0  0
  -20.5733   -0.8201    0.0000 C   0  0  0  0  0  0  0  0  0  0  0  0
  -20.9727    0.6258    0.0000 O   0  0  0  0  0  0  0  0  0  0  0  0
  -21.6258   -1.8888    0.0000 N   0  0  0  0  0  0  0  0  0  0  0  0
  -23.0777   -1.5117    0.0000 C   0  0  0  0  0  0  0  0  0  0  0  0
  -24.3130   -0.6608    0.0000 C   0  0  0  0  0  0  0  0  0  0  0  0
  -24.1937    0.8344    0.0000 C   0  0  0  0  0  0  0  0  0  0  0  0
  -25.4290    1.6853    0.0000 N   0  0  0  0  0  0  0  0  0  0  0  0
  -22.8391    1.4788    0.0000 O   0  0  0  0  0  0  0  0  0  0  0  0
  -24.1302   -2.5805    0.0000 C   0  0  0  0  0  0  0  0  0  0  0  0
  -23.9100   -4.0643    0.0000 O   0  0  0  0  0  0  0  0  0  0  0  0
  -25.5820   -2.2034    0.0000 N   0  0  0  0  0  0  0  0  0  0  0  0
  -26.6345   -3.2722    0.0000 C   0  0  0  0  0  0  0  0  0  0  0  0
  -27.2579   -4.6365    0.0000 C   0  0  0  0  0  0  0  0  0  0  0  0
  -28.7512   -4.7787    0.0000 C   0  0  0  0  0  0  0  0  0  0  0  0
  -29.3747   -6.1429    0.0000 C   0  0  0  0  0  0  0  0  0  0  0  0
  -30.8394   -6.4661    0.0000 N   0  0  0  0  0  0  0  0  0  0  0  0
  -28.5049   -7.3650    0.0000 O   0  0  0  0  0  0  0  0  0  0  0  0
  -28.0863   -2.8951    0.0000 C   0  0  0  0  0  0  0  0  0  0  0  0
  -28.4856   -1.4492    0.0000 O   0  0  0  0  0  0  0  0  0  0  0  0
  -29.1388   -3.9638    0.0000 N   0  0  0  0  0  0  0  0  0  0  0  0
  -30.5906   -3.5867    0.0000 C   0  0  0  0  0  0  0  0  0  0  0  0
  -31.8259   -2.7358    0.0000 C   0  0  0  0  0  0  0  0  0  0  0  0
  -31.7066   -1.2406    0.0000 C   0  0  0  0  0  0  0  0  0  0  0  0
  -32.9419   -0.3897    0.0000 C   0  0  0  0  0  0  0  0  0  0  0  0
  -32.8227    1.1056    0.0000 C   0  0  0  0  0  0  0  0  0  0  0  0
  -34.0580    1.9565    0.0000 N   0  0  0  0  0  0  0  0  0  0  0  0
  -31.6431   -4.6555    0.0000 C   0  0  0  0  0  0  0  0  0  0  0  0
  -31.4230   -6.1393    0.0000 O   0  0  0  0  0  0  0  0  0  0  0  0
  -33.0949   -4.2784    0.0000 N   0  0  0  0  0  0  0  0  0  0  0  0
  -34.1474   -5.3472    0.0000 C   0  0  0  0  0  0  0  0  0  0  0  0
  -34.5999   -6.7773    0.0000 C   0  0  0  0  0  0  0  0  0  0  0  0
  -35.5992   -4.9701    0.0000 C   0  0  0  0  0  0  0  0  0  0  0  0
  -35.9986   -3.5242    0.0000 O   0  0  0  0  0  0  0  0  0  0  0  0
  -36.6517   -6.0388    0.0000 N   0  0  0  0  0  0  0  0  0  0  0  0
  -36.4057   -7.5185    0.0000 C   0  0  0  0  0  0  0  0  0  0  0  0
  -37.7370   -8.2097    0.0000 C   0  0  0  0  0  0  0  0  0  0  0  0
  -38.8057   -7.1573    0.0000 C   0  0  0  0  0  0  0  0  0  0  0  0
  -38.1350   -5.8156    0.0000 C   0  0  0  0  0  0  0  0  0  0  0  0
  -39.5395   -5.2888    0.0000 C   0  0  0  0  0  0  0  0  0  0  0  0
  -40.8054   -6.0933    0.0000 O   0  0  0  0  0  0  0  0  0  0  0  0
  -39.7855   -3.8091    0.0000 N   0  0  0  0  0  0  0  0  0  0  0  0
  -41.1899   -3.2823    0.0000 C   0  0  0  0  0  0  0  0  0  0  0  0
  -42.6899   -3.2676    0.0000 C   0  0  0  0  0  0  0  0  0  0  0  0
  -43.4271   -1.9613    0.0000 C   0  0  0  0  0  0  0  0  0  0  0  0
  -44.9271   -1.9466    0.0000 C   0  0  0  0  0  0  0  0  0  0  0  0
  -43.6731   -0.4816    0.0000 C   0  0  0  0  0  0  0  0  0  0  0  0
  -41.4360   -1.8026    0.0000 C   0  0  0  0  0  0  0  0  0  0  0  0
  -42.7657   -1.1085    0.0000 O   0  0  0  0  0  0  0  0  0  0  0  0
  -40.2775   -0.8497    0.0000 O   0  0  0  0  0  0  0  0  0  0  0  0
   41.6039   -2.3562    0.0000 H   0  0  0  0  0  0  0  0  0  0  0  0
   40.9831   -6.8056    0.0000 H   0  0  0  0  0  0  0  0  0  0  0  0
   43.2720   -8.7450    0.0000 H   0  0  0  0  0  0  0  0  0  0  0  0
   43.9771   -2.8203    0.0000 H   0  0  0  0  0  0  0  0  0  0  0  0
   51.1252   -2.3528    0.0000 H   0  0  0  0  0  0  0  0  0  0  0  0
   51.2816   -7.5466    0.0000 H   0  0  0  0  0  0  0  0  0  0  0  0
   48.2830   -7.6369    0.0000 H   0  0  0  0  0  0  0  0  0  0  0  0
   53.4915   -6.1804    0.0000 H   0  0  0  0  0  0  0  0  0  0  0  0
   43.7068   -5.1755    0.0000 H   0  0  0  0  0  0  0  0  0  0  0  0
   42.1350   -2.4407    0.0000 H   0  0  0  0  0  0  0  0  0  0  0  0
   46.5490    0.1086    0.0000 H   0  0  0  0  0  0  0  0  0  0  0  0
   44.2609    1.3393    0.0000 H   0  0  0  0  0  0  0  0  0  0  0  0
   39.2294   -1.9144    0.0000 H   0  0  0  0  0  0  0  0  0  0  0  0
   36.3962   -4.8552    0.0000 H   0  0  0  0  0  0  0  0  0  0  0  0
   38.2936   -5.1992    0.0000 H   0  0  0  0  0  0  0  0  0  0  0  0
   35.6616   -1.6243    0.0000 H   0  0  0  0  0  0  0  0  0  0  0  0
   37.5591   -1.9682    0.0000 H   0  0  0  0  0  0  0  0  0  0  0  0
   34.1165   -0.9875    0.0000 H   0  0  0  0  0  0  0  0  0  0  0  0
   33.1808   -4.2724    0.0000 H   0  0  0  0  0  0  0  0  0  0  0  0
   30.5271   -5.2238    0.0000 H   0  0  0  0  0  0  0  0  0  0  0  0
   32.4278   -4.8981    0.0000 H   0  0  0  0  0  0  0  0  0  0  0  0
   28.7226   -4.3673    0.0000 H   0  0  0  0  0  0  0  0  0  0  0  0
   29.4351   -3.9387    0.0000 H   0  0  0  0  0  0  0  0  0  0  0  0
   29.9981   -0.7258    0.0000 H   0  0  0  0  0  0  0  0  0  0  0  0
   26.6410   -0.8851    0.0000 H   0  0  0  0  0  0  0  0  0  0  0  0
   26.9336    2.2332    0.0000 H   0  0  0  0  0  0  0  0  0  0  0  0
   28.1692    2.4449    0.0000 H   0  0  0  0  0  0  0  0  0  0  0  0
   29.9023    2.0200    0.0000 H   0  0  0  0  0  0  0  0  0  0  0  0
   30.0027    0.2384    0.0000 H   0  0  0  0  0  0  0  0  0  0  0  0
   26.2654    0.4243    0.0000 H   0  0  0  0  0  0  0  0  0  0  0  0
   25.5115   -2.8821    0.0000 H   0  0  0  0  0  0  0  0  0  0  0  0
   22.1142   -2.5573    0.0000 H   0  0  0  0  0  0  0  0  0  0  0  0
   22.8579   -3.8336    0.0000 H   0  0  0  0  0  0  0  0  0  0  0  0
   24.7585   -3.5079    0.0000 H   0  0  0  0  0  0  0  0  0  0  0  0
   21.7659   -2.5484    0.0000 H   0  0  0  0  0  0  0  0  0  0  0  0
   22.3289    0.6645    0.0000 H   0  0  0  0  0  0  0  0  0  0  0  0
   19.1787    2.1259    0.0000 H   0  0  0  0  0  0  0  0  0  0  0  0
   18.9718    0.5052    0.0000 H   0  0  0  0  0  0  0  0  0  0  0  0
   22.3335    1.6287    0.0000 H   0  0  0  0  0  0  0  0  0  0  0  0
   20.9283    5.1322    0.0000 H   0  0  0  0  0  0  0  0  0  0  0  0
   19.1912    4.7239    0.0000 H   0  0  0  0  0  0  0  0  0  0  0  0
   19.0737    2.9434    0.0000 H   0  0  0  0  0  0  0  0  0  0  0  0
   22.1618    4.9086    0.0000 H   0  0  0  0  0  0  0  0  0  0  0  0
   23.6450    3.9165    0.0000 H   0  0  0  0  0  0  0  0  0  0  0  0
   22.9768    2.1077    0.0000 H   0  0  0  0  0  0  0  0  0  0  0  0
   18.5962    1.8145    0.0000 H   0  0  0  0  0  0  0  0  0  0  0  0
   17.8423   -1.4919    0.0000 H   0  0  0  0  0  0  0  0  0  0  0  0
   15.3522   -2.5259    0.0000 H   0  0  0  0  0  0  0  0  0  0  0  0
   17.0893   -2.1176    0.0000 H   0  0  0  0  0  0  0  0  0  0  0  0
   13.3934    0.3415    0.0000 H   0  0  0  0  0  0  0  0  0  0  0  0
   14.5972    0.8707    0.0000 H   0  0  0  0  0  0  0  0  0  0  0  0
   12.6279   -2.8822    0.0000 H   0  0  0  0  0  0  0  0  0  0  0  0
   14.4018   -2.6888    0.0000 H   0  0  0  0  0  0  0  0  0  0  0  0
   11.3734    0.3062    0.0000 H   0  0  0  0  0  0  0  0  0  0  0  0
    8.2626   -2.4646    0.0000 H   0  0  0  0  0  0  0  0  0  0  0  0
    9.3251    0.0026    0.0000 H   0  0  0  0  0  0  0  0  0  0  0  0
    9.9231   -4.4628    0.0000 H   0  0  0  0  0  0  0  0  0  0  0  0
   12.4838   -4.0239    0.0000 H   0  0  0  0  0  0  0  0  0  0  0  0
   13.9254   -1.0932    0.0000 H   0  0  0  0  0  0  0  0  0  0  0  0
   14.6596    2.0547    0.0000 H   0  0  0  0  0  0  0  0  0  0  0  0
   11.6362    3.6484    0.0000 H   0  0  0  0  0  0  0  0  0  0  0  0
   11.3026    1.8954    0.0000 H   0  0  0  0  0  0  0  0  0  0  0  0
   14.5638    4.8005    0.0000 H   0  0  0  0  0  0  0  0  0  0  0  0
   14.6642    3.0189    0.0000 H   0  0  0  0  0  0  0  0  0  0  0  0
   10.9269    3.2048    0.0000 H   0  0  0  0  0  0  0  0  0  0  0  0
   10.1731   -0.1017    0.0000 H   0  0  0  0  0  0  0  0  0  0  0  0
    7.6829   -1.1356    0.0000 H   0  0  0  0  0  0  0  0  0  0  0  0
    9.6207   -0.4216    0.0000 H   0  0  0  0  0  0  0  0  0  0  0  0
    6.9279    2.2609    0.0000 H   0  0  0  0  0  0  0  0  0  0  0  0
    4.2150   -0.2157    0.0000 H   0  0  0  0  0  0  0  0  0  0  0  0
    4.9587   -1.4920    0.0000 H   0  0  0  0  0  0  0  0  0  0  0  0
    6.7326   -1.2985    0.0000 H   0  0  0  0  0  0  0  0  0  0  0  0
    5.6266    3.2286    0.0000 H   0  0  0  0  0  0  0  0  0  0  0  0
    4.2331    1.8956    0.0000 H   0  0  0  0  0  0  0  0  0  0  0  0
    4.8156    0.5382    0.0000 H   0  0  0  0  0  0  0  0  0  0  0  0
    6.2561    0.2970    0.0000 H   0  0  0  0  0  0  0  0  0  0  0  0
    6.9904    3.4449    0.0000 H   0  0  0  0  0  0  0  0  0  0  0  0
    3.6333    3.2857    0.0000 H   0  0  0  0  0  0  0  0  0  0  0  0
    5.1750    6.6335    0.0000 H   0  0  0  0  0  0  0  0  0  0  0  0
    6.8946    6.1908    0.0000 H   0  0  0  0  0  0  0  0  0  0  0  0
    6.9950    4.4092    0.0000 H   0  0  0  0  0  0  0  0  0  0  0  0
    2.7130    5.8960    0.0000 H   0  0  0  0  0  0  0  0  0  0  0  0
    2.9318    3.7128    0.0000 H   0  0  0  0  0  0  0  0  0  0  0  0
    3.2320    7.6001    0.0000 H   0  0  0  0  0  0  0  0  0  0  0  0
    4.8640    7.6777    0.0000 H   0  0  0  0  0  0  0  0  0  0  0  0
    5.5988    6.2184    0.0000 H   0  0  0  0  0  0  0  0  0  0  0  0
    3.2577    4.5950    0.0000 H   0  0  0  0  0  0  0  0  0  0  0  0
    2.7009    1.0820    0.0000 H   0  0  0  0  0  0  0  0  0  0  0  0
    1.8833   -0.1405    0.0000 H   0  0  0  0  0  0  0  0  0  0  0  0
    1.5819   -0.6879    0.0000 H   0  0  0  0  0  0  0  0  0  0  0  0
    0.6962   -1.4072    0.0000 H   0  0  0  0  0  0  0  0  0  0  0  0
    0.1917   -1.7477    0.0000 H   0  0  0  0  0  0  0  0  0  0  0  0
   -1.1725   -2.2972    0.0000 H   0  0  0  0  0  0  0  0  0  0  0  0
   -2.1979   -2.7293    0.0000 H   0  0  0  0  0  0  0  0  0  0  0  0
    2.7866   -0.0126    0.0000 H   0  0  0  0  0  0  0  0  0  0  0  0
    3.9224    0.5823    0.0000 H   0  0  0  0  0  0  0  0  0  0  0  0
    3.9222    2.5107    0.0000 H   0  0  0  0  0  0  0  0  0  0  0  0
    2.8751    6.2582    0.0000 H   0  0  0  0  0  0  0  0  0  0  0  0
    2.3020    6.9952    0.0000 H   0  0  0  0  0  0  0  0  0  0  0  0
    2.2342    9.4409    0.0000 H   0  0  0  0  0  0  0  0  0  0  0  0
    2.7433    7.8884    0.0000 H   0  0  0  0  0  0  0  0  0  0  0  0
   -0.9097   10.2805    0.0000 H   0  0  0  0  0  0  0  0  0  0  0  0
   -0.8894    8.4962    0.0000 H   0  0  0  0  0  0  0  0  0  0  0  0
   -1.3630   10.0111    0.0000 H   0  0  0  0  0  0  0  0  0  0  0  0
   -2.1495    9.9134    0.0000 H   0  0  0  0  0  0  0  0  0  0  0  0
   -5.2177   10.7899    0.0000 H   0  0  0  0  0  0  0  0  0  0  0  0
   -5.2414    9.3129    0.0000 H   0  0  0  0  0  0  0  0  0  0  0  0
   -1.9399   10.6026    0.0000 H   0  0  0  0  0  0  0  0  0  0  0  0
   -3.5179   14.0317    0.0000 H   0  0  0  0  0  0  0  0  0  0  0  0
   -5.2325   13.5373    0.0000 H   0  0  0  0  0  0  0  0  0  0  0  0
   -5.2611   11.7531    0.0000 H   0  0  0  0  0  0  0  0  0  0  0  0
   -2.2748   13.8698    0.0000 H   0  0  0  0  0  0  0  0  0  0  0  0
   -0.7440   12.9530    0.0000 H   0  0  0  0  0  0  0  0  0  0  0  0
   -1.3212   11.1130    0.0000 H   0  0  0  0  0  0  0  0  0  0  0  0
   -6.7942    9.1491    0.0000 H   0  0  0  0  0  0  0  0  0  0  0  0
   -7.3535    8.3617    0.0000 H   0  0  0  0  0  0  0  0  0  0  0  0
  -10.0069    6.6841    0.0000 H   0  0  0  0  0  0  0  0  0  0  0  0
   -8.8118    5.5700    0.0000 H   0  0  0  0  0  0  0  0  0  0  0  0
  -10.6537    8.5740    0.0000 H   0  0  0  0  0  0  0  0  0  0  0  0
   -9.2668    9.9138    0.0000 H   0  0  0  0  0  0  0  0  0  0  0  0
   -7.7616    8.9553    0.0000 H   0  0  0  0  0  0  0  0  0  0  0  0
   -9.6519    4.2538    0.0000 H   0  0  0  0  0  0  0  0  0  0  0  0
   -8.2012   -0.0922    0.0000 H   0  0  0  0  0  0  0  0  0  0  0  0
   -8.9835    0.9564    0.0000 H   0  0  0  0  0  0  0  0  0  0  0  0
   -7.0263   -1.3702    0.0000 H   0  0  0  0  0  0  0  0  0  0  0  0
   -7.9051   -0.6424    0.0000 H   0  0  0  0  0  0  0  0  0  0  0  0
   -5.1662   -2.2780    0.0000 H   0  0  0  0  0  0  0  0  0  0  0  0
   -6.5251   -1.7155    0.0000 H   0  0  0  0  0  0  0  0  0  0  0  0
   -4.1450   -2.7200    0.0000 H   0  0  0  0  0  0  0  0  0  0  0  0
  -10.8102    2.5070    0.0000 H   0  0  0  0  0  0  0  0  0  0  0  0
  -10.4765    4.2600    0.0000 H   0  0  0  0  0  0  0  0  0  0  0  0
   -9.0385    4.5979    0.0000 H   0  0  0  0  0  0  0  0  0  0  0  0
  -11.1287    3.3330    0.0000 H   0  0  0  0  0  0  0  0  0  0  0  0
  -10.3733    0.0269    0.0000 H   0  0  0  0  0  0  0  0  0  0  0  0
  -10.7451   -0.6838    0.0000 H   0  0  0  0  0  0  0  0  0  0  0  0
  -14.5104   -1.9068    0.0000 H   0  0  0  0  0  0  0  0  0  0  0  0
  -15.1771   -0.2516    0.0000 H   0  0  0  0  0  0  0  0  0  0  0  0
  -14.3221    0.7475    0.0000 H   0  0  0  0  0  0  0  0  0  0  0  0
  -12.9748   -3.3460    0.0000 H   0  0  0  0  0  0  0  0  0  0  0  0
  -13.8512   -1.9671    0.0000 H   0  0  0  0  0  0  0  0  0  0  0  0
  -11.2353   -4.3279    0.0000 H   0  0  0  0  0  0  0  0  0  0  0  0
   -9.6642   -3.2097    0.0000 H   0  0  0  0  0  0  0  0  0  0  0  0
  -10.3309   -1.5545    0.0000 H   0  0  0  0  0  0  0  0  0  0  0  0
  -14.0753   -1.3134    0.0000 H   0  0  0  0  0  0  0  0  0  0  0  0
  -14.7796    1.8414    0.0000 H   0  0  0  0  0  0  0  0  0  0  0  0
  -17.7351    0.2413    0.0000 H   0  0  0  0  0  0  0  0  0  0  0  0
  -18.8244    3.1777    0.0000 H   0  0  0  0  0  0  0  0  0  0  0  0
  -17.8031    3.9046    0.0000 H   0  0  0  0  0  0  0  0  0  0  0  0
  -16.0573    4.2737    0.0000 H   0  0  0  0  0  0  0  0  0  0  0  0
  -15.1938    2.7121    0.0000 H   0  0  0  0  0  0  0  0  0  0  0  0
  -18.6416    1.2580    0.0000 H   0  0  0  0  0  0  0  0  0  0  0  0
  -17.8862   -2.0481    0.0000 H   0  0  0  0  0  0  0  0  0  0  0  0
  -19.8643   -4.0567    0.0000 H   0  0  0  0  0  0  0  0  0  0  0  0
  -18.2932   -2.9386    0.0000 H   0  0  0  0  0  0  0  0  0  0  0  0
  -22.6901   -2.3266    0.0000 H   0  0  0  0  0  0  0  0  0  0  0  0
  -21.8351   -1.3275    0.0000 H   0  0  0  0  0  0  0  0  0  0  0  0
  -23.9784   -5.5744    0.0000 H   0  0  0  0  0  0  0  0  0  0  0  0
  -24.5375   -3.2471    0.0000 H   0  0  0  0  0  0  0  0  0  0  0  0
  -21.5882   -3.3884    0.0000 H   0  0  0  0  0  0  0  0  0  0  0  0
  -22.4542   -0.1475    0.0000 H   0  0  0  0  0  0  0  0  0  0  0  0
  -25.7080   -0.1096    0.0000 H   0  0  0  0  0  0  0  0  0  0  0  0
  -25.2480   -1.8337    0.0000 H   0  0  0  0  0  0  0  0  0  0  0  0
  -25.3097    3.1806    0.0000 H   0  0  0  0  0  0  0  0  0  0  0  0
  -26.7835    1.0410    0.0000 H   0  0  0  0  0  0  0  0  0  0  0  0
  -26.1546   -0.8170    0.0000 H   0  0  0  0  0  0  0  0  0  0  0  0
  -25.3992   -4.1231    0.0000 H   0  0  0  0  0  0  0  0  0  0  0  0
  -27.3772   -6.1317    0.0000 H   0  0  0  0  0  0  0  0  0  0  0  0
  -25.8061   -5.0136    0.0000 H   0  0  0  0  0  0  0  0  0  0  0  0
  -30.2030   -4.4016    0.0000 H   0  0  0  0  0  0  0  0  0  0  0  0
  -29.3480   -3.4025    0.0000 H   0  0  0  0  0  0  0  0  0  0  0  0
  -31.4914   -7.6494    0.0000 H   0  0  0  0  0  0  0  0  0  0  0  0
  -32.0505   -5.3221    0.0000 H   0  0  0  0  0  0  0  0  0  0  0  0
  -29.1012   -5.4634    0.0000 H   0  0  0  0  0  0  0  0  0  0  0  0
  -29.8055   -2.3086    0.0000 H   0  0  0  0  0  0  0  0  0  0  0  0
  -33.2777   -2.3587    0.0000 H   0  0  0  0  0  0  0  0  0  0  0  0
  -32.7610   -3.9087    0.0000 H   0  0  0  0  0  0  0  0  0  0  0  0
  -30.9215    0.0375    0.0000 H   0  0  0  0  0  0  0  0  0  0  0  0
  -30.2197   -1.4379    0.0000 H   0  0  0  0  0  0  0  0  0  0  0  0
  -34.4289   -0.1923    0.0000 H   0  0  0  0  0  0  0  0  0  0  0  0
  -33.7271   -1.6678    0.0000 H   0  0  0  0  0  0  0  0  0  0  0  0
  -32.1992    2.4699    0.0000 H   0  0  0  0  0  0  0  0  0  0  0  0
  -31.3357    0.9083    0.0000 H   0  0  0  0  0  0  0  0  0  0  0  0
  -33.9387    3.4518    0.0000 H   0  0  0  0  0  0  0  0  0  0  0  0
  -35.5098    2.3336    0.0000 H   0  0  0  0  0  0  0  0  0  0  0  0
  -34.8431    0.6784    0.0000 H   0  0  0  0  0  0  0  0  0  0  0  0
  -33.6675   -2.8920    0.0000 H   0  0  0  0  0  0  0  0  0  0  0  0
  -32.9121   -6.1981    0.0000 H   0  0  0  0  0  0  0  0  0  0  0  0
  -36.0225   -7.5382    0.0000 H   0  0  0  0  0  0  0  0  0  0  0  0
  -34.8902   -8.2067    0.0000 H   0  0  0  0  0  0  0  0  0  0  0  0
  -33.3191   -7.0886    0.0000 H   0  0  0  0  0  0  0  0  0  0  0  0
  -34.9220   -7.2984    0.0000 H   0  0  0  0  0  0  0  0  0  0  0  0
  -35.8574   -8.9147    0.0000 H   0  0  0  0  0  0  0  0  0  0  0  0
  -36.9104   -9.4614    0.0000 H   0  0  0  0  0  0  0  0  0  0  0  0
  -38.8954   -9.1626    0.0000 H   0  0  0  0  0  0  0  0  0  0  0  0
  -39.7407   -8.3302    0.0000 H   0  0  0  0  0  0  0  0  0  0  0  0
  -40.1589   -6.5101    0.0000 H   0  0  0  0  0  0  0  0  0  0  0  0
  -37.7579   -4.3637    0.0000 H   0  0  0  0  0  0  0  0  0  0  0  0
  -38.6270   -2.8562    0.0000 H   0  0  0  0  0  0  0  0  0  0  0  0
  -41.4648   -4.7569    0.0000 H   0  0  0  0  0  0  0  0  0  0  0  0
  -44.0330   -3.9355    0.0000 H   0  0  0  0  0  0  0  0  0  0  0  0
  -42.4439   -4.7473    0.0000 H   0  0  0  0  0  0  0  0  0  0  0  0
  -42.2856   -0.9882    0.0000 H   0  0  0  0  0  0  0  0  0  0  0  0
  -45.8180   -0.7399    0.0000 H   0  0  0  0  0  0  0  0  0  0  0  0
  -46.3415   -2.4458    0.0000 H   0  0  0  0  0  0  0  0  0  0  0  0
  -44.8632   -3.4453    0.0000 H   0  0  0  0  0  0  0  0  0  0  0  0
  -45.0029    0.2124    0.0000 H   0  0  0  0  0  0  0  0  0  0  0  0
  -43.3982    0.9930    0.0000 H   0  0  0  0  0  0  0  0  0  0  0  0
  -42.1732   -0.4963    0.0000 H   0  0  0  0  0  0  0  0  0  0  0  0
  1  2  1  0
  2  3  1  0
  3  4  2  0
  4  5  1  0
  5  6  2  0
  6  7  1  0
  7  8  2  0
  7  9  1  0
  9 10  1  0
 10 11  1  0
 11 12  2  0
  9 13  1  0
 13 14  1  0
 14 15  2  0
 15 16  1  0
 16 17  2  0
 17 18  1  0
 16 19  1  0
 14 20  1  0
 20 21  1  0
 21 22  2  0
 22 23  1  0
 23 24  2  0
 24 25  1  0
 25 26  2  0
 25 27  1  0
  1 28  2  0
  1 29  1  0
 29 30  1  0
 30 31  1  0
 31 32  1  0
 32 33  2  0
 32 34  1  0
 34 35  1  0
 35 36  1  0
 36 37  1  0
 35 38  1  0
 38 39  2  0
 38 40  1  0
 40 41  1  0
 41 42  1  0
 42 43  1  0
 42 44  1  0
 41 45  1  0
 45 46  2  0
 45 47  1  0
 47 48  1  0
 48 49  1  0
 48 50  1  0
 50 51  2  0
 50 52  1  0
 52 53  1  0
 53 54  1  0
 54 55  1  0
 55 56  1  0
 55 57  1  0
 53 58  1  0
 58 59  2  0
 58 60  1  0
 60 61  1  0
 61 62  1  0
 62 63  1  0
 63 64  1  0
 64 65  1  0
 65 66  1  0
 66 67  2  3
 66 68  1  0
 61 69  1  0
 69 70  2  0
 69 71  1  0
 71 72  1  0
 72 73  1  0
 73 74  1  0
 74 75  1  0
 75 76  2  0
 75 77  1  0
 72 78  1  0
 78 79  2  0
 78 80  1  0
 80 81  1  0
 81 82  1  0
 82 83  1  0
 83 84  1  0
 83 85  1  0
 81 86  1  0
 86 87  2  0
 86 88  1  0
 88 89  1  0
 89 90  1  0
 90 91  1  0
 90 92  1  0
 92 93  1  0
 89 94  1  0
 94 95  2  0
 94 96  1  0
 97 96  1  1
 97 98  1  0
 98 99  1  0
 99100  1  0
100101  1  0
 97102  1  0
 97103  1  0
103104  2  0
103105  1  0
105106  1  0
106107  1  0
107108  1  0
108109  1  0
109110  2  0
109111  1  0
106112  1  0
112113  2  0
112114  1  0
114115  1  0
115116  1  0
116117  1  0
117118  1  0
117119  1  0
115120  1  0
120121  2  0
120122  1  0
122123  1  0
123124  1  0
124125  1  0
123126  1  0
126127  2  0
126128  1  0
128129  1  0
129130  1  0
130131  1  0
131132  1  0
132133  1  0
129134  1  0
129135  1  1
135136  2  0
135137  1  0
137138  1  0
138139  1  0
139140  1  0
139141  1  0
141142  1  0
138143  1  0
143144  2  0
143145  1  0
145146  1  0
146147  1  0
147148  1  0
147149  1  0
146150  1  0
150151  2  0
150152  1  0
152153  1  0
153154  1  0
154155  1  0
155156  1  0
156157  1  0
156158  2  0
153159  1  0
159160  2  0
159161  1  0
161162  1  0
162163  1  0
163164  1  0
164165  1  0
164166  2  0
162167  1  0
167168  2  0
167169  1  0
169170  1  0
170171  1  0
171172  1  0
172173  1  0
173174  1  0
173175  2  0
170176  1  0
176177  2  0
176178  1  0
178179  1  0
179180  1  0
180181  1  0
181182  1  0
182183  1  0
183184  1  0
179185  1  0
185186  2  0
185187  1  0
187188  1  0
188189  1  0
188190  1  0
190191  2  0
190192  1  0
192193  1  0
193194  1  0
194195  1  0
195196  1  0
196197  1  0
197198  2  0
197199  1  0
199200  1  0
200201  1  0
201202  1  0
202203  1  0
202204  1  0
200205  1  0
205206  2  0
205207  1  0
  8  3  1  0
196192  1  0
 11  6  1  0
101133  2  0
 18 13  2  0
 22  9  1  0
 26 21  1  0
  2208  1  0
  4209  1  0
  5210  1  0
  8211  1  0
 15212  1  0
 17213  1  0
 18214  1  0
 19215  1  0
 23216  1  0
 24217  1  0
 26218  1  0
 27219  1  0
 29220  1  0
 30221  1  0
 30222  1  0
 31223  1  0
 31224  1  0
 34225  1  0
 35226  1  1
 36227  1  0
 36228  1  0
 37229  1  0
 40230  1  0
 41231  1  6
 42232  1  1
 43233  1  0
 44234  1  0
 44235  1  0
 44236  1  0
 47237  1  0
 48238  1  1
 49239  1  0
 49240  1  0
 49241  1  0
 52242  1  0
 53243  1  6
 54244  1  0
 54245  1  0
 55246  1  0
 56247  1  0
 56248  1  0
 56249  1  0
 57250  1  0
 57251  1  0
 57252  1  0
 60253  1  0
 61254  1  1
 62255  1  0
 62256  1  0
 63257  1  0
 63258  1  0
 64259  1  0
 64260  1  0
 65261  1  0
 67262  1  0
 67263  1  0
 68264  1  0
 68265  1  0
 71266  1  0
 72267  1  6
 73268  1  0
 73269  1  0
 74270  1  0
 74271  1  0
 80272  1  0
 81273  1  1
 82274  1  0
 82275  1  0
 83276  1  0
 84277  1  0
 84278  1  0
 84279  1  0
 85280  1  0
 85281  1  0
 85282  1  0
 88283  1  0
 89284  1  6
 90285  1  1
 91286  1  0
 91287  1  0
 91288  1  0
 92289  1  0
 92290  1  0
 93291  1  0
 93292  1  0
 93293  1  0
 96294  1  0
 98295  1  0
 98296  1  0
 99297  1  0
 99298  1  0
100299  1  0
100300  1  0
101301  1  0
102302  1  0
102303  1  0
102304  1  0
105305  1  0
106306  1  6
107307  1  0
107308  1  0
108309  1  0
108310  1  0
114311  1  0
115312  1  6
116313  1  0
116314  1  0
117315  1  0
118316  1  0
118317  1  0
118318  1  0
119319  1  0
119320  1  0
119321  1  0
122322  1  0
123323  1  6
124324  1  0
124325  1  0
125326  1  0
125327  1  0
125328  1  0
128329  1  0
130330  1  0
130331  1  0
131332  1  0
131333  1  0
132334  1  0
132335  1  0
133336  1  0
134337  1  0
134338  1  0
134339  1  0
137340  1  0
138341  1  1
139342  1  1
140343  1  0
140344  1  0
140345  1  0
141346  1  0
141347  1  0
142348  1  0
142349  1  0
142350  1  0
145351  1  0
146352  1  6
147353  1  1
148354  1  0
149355  1  0
149356  1  0
149357  1  0
152358  1  0
153359  1  1
154360  1  0
154361  1  0
155362  1  0
155363  1  0
157364  1  0
157365  1  0
161366  1  0
162367  1  6
163368  1  0
163369  1  0
165370  1  0
165371  1  0
169372  1  0
170373  1  1
171374  1  0
171375  1  0
172376  1  0
172377  1  0
174378  1  0
174379  1  0
178380  1  0
179381  1  6
180382  1  0
180383  1  0
181384  1  0
181385  1  0
182386  1  0
182387  1  0
183388  1  0
183389  1  0
184390  1  0
184391  1  0
184392  1  0
187393  1  0
188394  1  1
189395  1  0
189396  1  0
189397  1  0
193398  1  0
193399  1  0
194400  1  0
194401  1  0
195402  1  0
195403  1  0
196404  1  0
199405  1  0
200406  1  1
201407  1  0
201408  1  0
202409  1  0
203410  1  0
203411  1  0
203412  1  0
204413  1  0
204414  1  0
204415  1  0
M  CHG  5  67   1  77  -1 111  -1 184   1 207  -1
M  END
