
     RDKit          2D

305311  0  0  0  0  0  0  0  0999 V2000
  -21.6394   -0.1484    0.0000 C   0  0  0  0  0  0  0  0  0  0  0  0
  -22.7332    0.8781    0.0000 N   0  0  0  0  0  0  0  0  0  0  0  0
  -24.1690    0.4442    0.0000 C   0  0  0  0  0  0  0  0  0  0  0  0
  -24.5112   -1.0162    0.0000 C   0  0  0  0  0  0  0  0  0  0  0  0
  -25.9471   -1.4501    0.0000 C   0  0  0  0  0  0  0  0  0  0  0  0
  -27.0408   -0.4236    0.0000 C   0  0  0  0  0  0  0  0  0  0  0  0
  -26.6986    1.0369    0.0000 C   0  0  0  0  0  0  0  0  0  0  0  0
  -25.2627    1.4708    0.0000 C   0  0  0  0  0  0  0  0  0  0  0  0
  -27.9818    1.8136    0.0000 C   0  0  0  0  0  0  0  0  0  0  0  0
  -29.1171    0.8332    0.0000 O   0  0  0  0  0  0  0  0  0  0  0  0
  -28.5355   -0.5495    0.0000 C   0  0  0  0  0  0  0  0  0  0  0  0
  -29.3122   -1.8327    0.0000 O   0  0  0  0  0  0  0  0  0  0  0  0
  -29.3392    2.4519    0.0000 C   0  0  0  0  0  0  0  0  0  0  0  0
  -29.4651    3.9467    0.0000 C   0  0  0  0  0  0  0  0  0  0  0  0
  -30.8225    4.5850    0.0000 C   0  0  0  0  0  0  0  0  0  0  0  0
  -32.0540    3.7286    0.0000 C   0  0  0  0  0  0  0  0  0  0  0  0
  -31.9281    2.2339    0.0000 C   0  0  0  0  0  0  0  0  0  0  0  0
  -30.5708    1.5956    0.0000 C   0  0  0  0  0  0  0  0  0  0  0  0
  -33.4114    4.3670    0.0000 O   0  0  0  0  0  0  0  0  0  0  0  0
  -28.2336    4.8030    0.0000 O   0  0  0  0  0  0  0  0  0  0  0  0
  -26.8762    4.1647    0.0000 C   0  0  0  0  0  0  0  0  0  0  0  0
  -26.7503    2.6700    0.0000 C   0  0  0  0  0  0  0  0  0  0  0  0
  -25.4517    2.7292    0.0000 C   0  0  0  0  0  0  0  0  0  0  0  0
  -24.7949    3.1859    0.0000 C   0  0  0  0  0  0  0  0  0  0  0  0
  -24.8620    3.9831    0.0000 C   0  0  0  0  0  0  0  0  0  0  0  0
  -25.5859    4.3235    0.0000 C   0  0  0  0  0  0  0  0  0  0  0  0
  -23.0558    5.2391    0.0000 O   0  0  0  0  0  0  0  0  0  0  0  0
  -22.1571   -1.5563    0.0000 S   0  0  0  0  0  0  0  0  0  0  0  0
  -20.2036    0.2855    0.0000 N   0  0  0  0  0  0  0  0  0  0  0  0
  -19.1099   -0.7411    0.0000 C   0  0  0  0  0  0  0  0  0  0  0  0
  -17.6740   -0.3072    0.0000 C   0  0  0  0  0  0  0  0  0  0  0  0
  -16.5803   -1.3337    0.0000 C   0  0  0  0  0  0  0  0  0  0  0  0
  -16.9445   -2.0428    0.0000 O   0  0  0  0  0  0  0  0  0  0  0  0
  -15.1444   -0.8998    0.0000 N   0  0  0  0  0  0  0  0  0  0  0  0
  -14.0507   -1.9264    0.0000 C   0  0  0  0  0  0  0  0  0  0  0  0
  -15.2516   -2.8252    0.0000 C   0  0  0  0  0  0  0  0  0  0  0  0
  -16.6304   -2.2346    0.0000 C   0  0  0  0  0  0  0  0  0  0  0  0
  -16.8084   -0.7452    0.0000 C   0  0  0  0  0  0  0  0  0  0  0  0
  -18.1873   -0.1547    0.0000 C   0  0  0  0  0  0  0  0  0  0  0  0
  -19.3881   -1.0535    0.0000 C   0  0  0  0  0  0  0  0  0  0  0  0
  -20.7670   -0.4629    0.0000 O   0  0  0  0  0  0  0  0  0  0  0  0
  -19.2102   -2.5429    0.0000 C   0  0  0  0  0  0  0  0  0  0  0  0
  -17.8313   -3.1335    0.0000 C   0  0  0  0  0  0  0  0  0  0  0  0
  -12.6719   -2.5170    0.0000 C   0  0  0  0  0  0  0  0  0  0  0  0
  -12.4939   -4.0064    0.0000 O   0  0  0  0  0  0  0  0  0  0  0  0
  -11.4710   -1.6181    0.0000 N   0  0  0  0  0  0  0  0  0  0  0  0
  -10.0921   -2.2087    0.0000 C   0  0  0  0  0  0  0  0  0  0  0  0
   -8.8913   -1.3099    0.0000 C   0  0  0  0  0  0  0  0  0  0  0  0
   -9.4243    0.0922    0.0000 O   0  0  0  0  0  0  0  0  0  0  0  0
   -7.5124   -1.9005    0.0000 N   0  0  0  0  0  0  0  0  0  0  0  0
   -6.3115   -1.0016    0.0000 C   0  0  0  0  0  0  0  0  0  0  0  0
   -7.4052    0.0249    0.0000 C   0  0  0  0  0  0  0  0  0  0  0  0
   -8.8411   -0.4090    0.0000 C   0  0  0  0  0  0  0  0  0  0  0  0
   -9.9348    0.6176    0.0000 C   0  0  0  0  0  0  0  0  0  0  0  0
  -11.3707    0.1837    0.0000 N   0  0  0  0  0  0  0  0  0  0  0  0
  -12.4644    1.2102    0.0000 C   0  0  0  0  0  0  0  0  0  0  0  0
  -13.9003    0.7763    0.0000 N   0  0  0  0  0  0  0  0  0  0  0  0
  -12.1222    2.6707    0.0000 N   0  0  0  0  0  0  0  0  0  0  0  0
   -4.8757   -0.5677    0.0000 C   0  0  0  0  0  0  0  0  0  0  0  0
   -4.8971    0.9321    0.0000 O   0  0  0  0  0  0  0  0  0  0  0  0
   -3.7820   -1.5943    0.0000 N   0  0  0  0  0  0  0  0  0  0  0  0
   -2.3461   -1.1604    0.0000 C   0  0  0  0  0  0  0  0  0  0  0  0
   -3.0227    0.1783    0.0000 C   0  0  0  0  0  0  0  0  0  0  0  0
   -4.5204    0.2617    0.0000 C   0  0  0  0  0  0  0  0  0  0  0  0
   -5.1971    1.6004    0.0000 C   0  0  0  0  0  0  0  0  0  0  0  0
   -6.6947    1.6838    0.0000 C   0  0  0  0  0  0  0  0  0  0  0  0
   -7.3714    3.0225    0.0000 N   0  0  0  0  0  0  0  0  0  0  0  0
   -0.8484   -1.2437    0.0000 C   0  0  0  0  0  0  0  0  0  0  0  0
   -0.3555    0.1730    0.0000 O   0  0  0  0  0  0  0  0  0  0  0  0
   -0.1718   -2.5825    0.0000 N   0  0  0  0  0  0  0  0  0  0  0  0
    1.3259   -2.6658    0.0000 C   0  0  0  0  0  0  0  0  0  0  0  0
    0.7355   -1.2869    0.0000 C   0  0  0  0  0  0  0  0  0  0  0  0
    0.4168    0.1789    0.0000 C   0  0  0  0  0  0  0  0  0  0  0  0
    0.3812    1.6784    0.0000 C   0  0  0  0  0  0  0  0  0  0  0  0
    0.6301    3.1576    0.0000 C   0  0  0  0  0  0  0  0  0  0  0  0
    0.5861   -3.9707    0.0000 C   0  0  0  0  0  0  0  0  0  0  0  0
    2.1666   -3.9081    0.0000 C   0  0  0  0  0  0  0  0  0  0  0  0
    1.1349   -4.9969    0.0000 O   0  0  0  0  0  0  0  0  0  0  0  0
    3.2272   -4.9688    0.0000 N   0  0  0  0  0  0  0  0  0  0  0  0
    4.4693   -5.8097    0.0000 C   0  0  0  0  0  0  0  0  0  0  0  0
    4.5525   -7.3074    0.0000 C   0  0  0  0  0  0  0  0  0  0  0  0
    3.2970   -8.1282    0.0000 C   0  0  0  0  0  0  0  0  0  0  0  0
    3.3802   -9.6259    0.0000 C   0  0  0  0  0  0  0  0  0  0  0  0
    2.1247  -10.4468    0.0000 N   0  0  0  0  0  0  0  0  0  0  0  0
    2.2078  -11.9445    0.0000 C   0  0  0  0  0  0  0  0  0  0  0  0
    0.9524  -12.7653    0.0000 N   0  0  0  0  0  0  0  0  0  0  0  0
    3.5465  -12.6213    0.0000 N   0  0  0  0  0  0  0  0  0  0  0  0
    5.8482   -6.4003    0.0000 C   0  0  0  0  0  0  0  0  0  0  0  0
    5.5689   -7.8740    0.0000 O   0  0  0  0  0  0  0  0  0  0  0  0
    7.3139   -6.7192    0.0000 N   0  0  0  0  0  0  0  0  0  0  0  0
    8.8134   -6.7550    0.0000 C   0  0  0  0  0  0  0  0  0  0  0  0
    9.6931   -7.9700    0.0000 C   0  0  0  0  0  0  0  0  0  0  0  0
    9.0807   -9.3393    0.0000 C   0  0  0  0  0  0  0  0  0  0  0  0
    9.9604  -10.5543    0.0000 C   0  0  0  0  0  0  0  0  0  0  0  0
    9.3480  -11.9236    0.0000 N   0  0  0  0  0  0  0  0  0  0  0  0
   10.2277  -13.1386    0.0000 C   0  0  0  0  0  0  0  0  0  0  0  0
    9.6153  -14.5079    0.0000 N   0  0  0  0  0  0  0  0  0  0  0  0
   11.7197  -12.9843    0.0000 N   0  0  0  0  0  0  0  0  0  0  0  0
   10.2927   -6.5064    0.0000 C   0  0  0  0  0  0  0  0  0  0  0  0
   10.8545   -7.8972    0.0000 O   0  0  0  0  0  0  0  0  0  0  0  0
   11.6982   -5.9823    0.0000 N   0  0  0  0  0  0  0  0  0  0  0  0
   12.9790   -5.2017    0.0000 C   0  0  0  0  0  0  0  0  0  0  0  0
   14.3759   -5.7482    0.0000 C   0  0  0  0  0  0  0  0  0  0  0  0
   14.6011   -7.2312    0.0000 C   0  0  0  0  0  0  0  0  0  0  0  0
   15.9980   -7.7778    0.0000 C   0  0  0  0  0  0  0  0  0  0  0  0
   16.2231   -9.2608    0.0000 N   0  0  0  0  0  0  0  0  0  0  0  0
   17.1697   -6.8413    0.0000 O   0  0  0  0  0  0  0  0  0  0  0  0
   14.0890   -4.1928    0.0000 C   0  0  0  0  0  0  0  0  0  0  0  0
   15.3136   -5.0590    0.0000 O   0  0  0  0  0  0  0  0  0  0  0  0
   14.9880   -2.9920    0.0000 N   0  0  0  0  0  0  0  0  0  0  0  0
   15.6436   -1.6429    0.0000 C   0  0  0  0  0  0  0  0  0  0  0  0
   17.1142   -1.3474    0.0000 C   0  0  0  0  0  0  0  0  0  0  0  0
   18.1053   -2.4733    0.0000 C   0  0  0  0  0  0  0  0  0  0  0  0
   19.5760   -2.1778    0.0000 C   0  0  0  0  0  0  0  0  0  0  0  0
   20.5671   -3.3037    0.0000 N   0  0  0  0  0  0  0  0  0  0  0  0
   22.0378   -3.0083    0.0000 C   0  0  0  0  0  0  0  0  0  0  0  0
   23.0289   -4.1341    0.0000 N   0  0  0  0  0  0  0  0  0  0  0  0
   22.5172   -1.5869    0.0000 N   0  0  0  0  0  0  0  0  0  0  0  0
   16.0319   -0.1940    0.0000 C   0  0  0  0  0  0  0  0  0  0  0  0
   17.5304   -0.2607    0.0000 O   0  0  0  0  0  0  0  0  0  0  0  0
   16.1390    1.3022    0.0000 N   0  0  0  0  0  0  0  0  0  0  0  0
   15.9610    2.7916    0.0000 C   0  0  0  0  0  0  0  0  0  0  0  0
   17.0385    3.8352    0.0000 C   0  0  0  0  0  0  0  0  0  0  0  0
   18.4810    3.4239    0.0000 C   0  0  0  0  0  0  0  0  0  0  0  0
   19.5584    4.4676    0.0000 C   0  0  0  0  0  0  0  0  0  0  0  0
   21.0009    4.0563    0.0000 N   0  0  0  0  0  0  0  0  0  0  0  0
   22.0784    5.0999    0.0000 C   0  0  0  0  0  0  0  0  0  0  0  0
   23.5209    4.6886    0.0000 N   0  0  0  0  0  0  0  0  0  0  0  0
   21.7133    6.5548    0.0000 N   0  0  0  0  0  0  0  0  0  0  0  0
   15.5044    4.2204    0.0000 C   0  0  0  0  0  0  0  0  0  0  0  0
   16.8011    4.9745    0.0000 O   0  0  0  0  0  0  0  0  0  0  0  0
   14.7856    5.5370    0.0000 N   0  0  0  0  0  0  0  0  0  0  0  0
   13.8307    6.6937    0.0000 C   0  0  0  0  0  0  0  0  0  0  0  0
   14.1729    8.1542    0.0000 C   0  0  0  0  0  0  0  0  0  0  0  0
   15.6087    8.5881    0.0000 C   0  0  0  0  0  0  0  0  0  0  0  0
   15.9509   10.0485    0.0000 C   0  0  0  0  0  0  0  0  0  0  0  0
   17.3868   10.4824    0.0000 N   0  0  0  0  0  0  0  0  0  0  0  0
   17.7289   11.9429    0.0000 C   0  0  0  0  0  0  0  0  0  0  0  0
   19.1648   12.3768    0.0000 N   0  0  0  0  0  0  0  0  0  0  0  0
   16.6352   12.9694    0.0000 N   0  0  0  0  0  0  0  0  0  0  0  0
   12.6741    7.6488    0.0000 C   0  0  0  0  0  0  0  0  0  0  0  0
   13.3572    8.9842    0.0000 O   0  0  0  0  0  0  0  0  0  0  0  0
   11.3576    8.3678    0.0000 N   0  0  0  0  0  0  0  0  0  0  0  0
    9.9289    8.8246    0.0000 C   0  0  0  0  0  0  0  0  0  0  0  0
    8.4395    9.0028    0.0000 C   0  0  0  0  0  0  0  0  0  0  0  0
    6.9433    8.8959    0.0000 C   0  0  0  0  0  0  0  0  0  0  0  0
    5.4944    8.5078    0.0000 C   0  0  0  0  0  0  0  0  0  0  0  0
    4.1451    7.8525    0.0000 C   0  0  0  0  0  0  0  0  0  0  0  0
    2.9442    6.9536    0.0000 C   0  0  0  0  0  0  0  0  0  0  0  0
    1.9352    5.8438    0.0000 C   0  0  0  0  0  0  0  0  0  0  0  0
    1.1544    4.5630    0.0000 C   0  0  0  0  0  0  0  0  0  0  0  0
   10.9726    9.9019    0.0000 C   0  0  0  0  0  0  0  0  0  0  0  0
    9.4271   10.2382    0.0000 C   0  0  0  0  0  0  0  0  0  0  0  0
   10.2541   11.4897    0.0000 O   0  0  0  0  0  0  0  0  0  0  0  0
    8.0618   10.8594    0.0000 O   0  0  0  0  0  0  0  0  0  0  0  0
  -22.2155    2.2860    0.0000 H   0  0  0  0  0  0  0  0  0  0  0  0
  -23.4175   -2.0428    0.0000 H   0  0  0  0  0  0  0  0  0  0  0  0
  -26.2892   -2.9106    0.0000 H   0  0  0  0  0  0  0  0  0  0  0  0
  -24.5773    2.8050    0.0000 H   0  0  0  0  0  0  0  0  0  0  0  0
  -30.9484    6.0797    0.0000 H   0  0  0  0  0  0  0  0  0  0  0  0
  -33.1597    1.3775    0.0000 H   0  0  0  0  0  0  0  0  0  0  0  0
  -30.4449    0.1009    0.0000 H   0  0  0  0  0  0  0  0  0  0  0  0
  -34.6429    3.5106    0.0000 H   0  0  0  0  0  0  0  0  0  0  0  0
  -25.2670    0.5369    0.0000 H   0  0  0  0  0  0  0  0  0  0  0  0
  -22.7363    2.4199    0.0000 H   0  0  0  0  0  0  0  0  0  0  0  0
  -25.7706    6.5158    0.0000 H   0  0  0  0  0  0  0  0  0  0  0  0
  -23.1817    6.7338    0.0000 H   0  0  0  0  0  0  0  0  0  0  0  0
  -19.8614    1.7459    0.0000 H   0  0  0  0  0  0  0  0  0  0  0  0
  -20.3107   -1.6399    0.0000 H   0  0  0  0  0  0  0  0  0  0  0  0
  -18.4332   -2.0798    0.0000 H   0  0  0  0  0  0  0  0  0  0  0  0
  -18.1824    1.1040    0.0000 H   0  0  0  0  0  0  0  0  0  0  0  0
  -16.4731    0.5916    0.0000 H   0  0  0  0  0  0  0  0  0  0  0  0
  -14.6268    0.5080    0.0000 H   0  0  0  0  0  0  0  0  0  0  0  0
  -13.2297   -0.6710    0.0000 H   0  0  0  0  0  0  0  0  0  0  0  0
  -16.0726   -4.0806    0.0000 H   0  0  0  0  0  0  0  0  0  0  0  0
  -14.1579   -3.8518    0.0000 H   0  0  0  0  0  0  0  0  0  0  0  0
  -15.7261    0.2933    0.0000 H   0  0  0  0  0  0  0  0  0  0  0  0
  -18.5455    1.3019    0.0000 H   0  0  0  0  0  0  0  0  0  0  0  0
  -21.8493   -1.5014    0.0000 H   0  0  0  0  0  0  0  0  0  0  0  0
  -20.4110   -3.4417    0.0000 H   0  0  0  0  0  0  0  0  0  0  0  0
  -17.6533   -4.6229    0.0000 H   0  0  0  0  0  0  0  0  0  0  0  0
  -12.0041   -0.2161    0.0000 H   0  0  0  0  0  0  0  0  0  0  0  0
  -10.9132   -3.4641    0.0000 H   0  0  0  0  0  0  0  0  0  0  0  0
   -8.9984   -3.2353    0.0000 H   0  0  0  0  0  0  0  0  0  0  0  0
   -7.3344   -3.3899    0.0000 H   0  0  0  0  0  0  0  0  0  0  0  0
   -5.6349   -2.3403    0.0000 H   0  0  0  0  0  0  0  0  0  0  0  0
   -8.0819    1.3636    0.0000 H   0  0  0  0  0  0  0  0  0  0  0  0
   -6.1038    0.7707    0.0000 H   0  0  0  0  0  0  0  0  0  0  0  0
  -10.0420   -1.3078    0.0000 H   0  0  0  0  0  0  0  0  0  0  0  0
   -8.5085   -1.8716    0.0000 H   0  0  0  0  0  0  0  0  0  0  0  0
  -10.6115    1.9563    0.0000 H   0  0  0  0  0  0  0  0  0  0  0  0
   -8.9871    1.7803    0.0000 H   0  0  0  0  0  0  0  0  0  0  0  0
  -12.0561   -1.1506    0.0000 H   0  0  0  0  0  0  0  0  0  0  0  0
  -14.9940    1.8029    0.0000 H   0  0  0  0  0  0  0  0  0  0  0  0
  -13.2159    3.6972    0.0000 H   0  0  0  0  0  0  0  0  0  0  0  0
  -10.6864    3.1046    0.0000 H   0  0  0  0  0  0  0  0  0  0  0  0
   -4.1241   -3.0547    0.0000 H   0  0  0  0  0  0  0  0  0  0  0  0
   -2.1681   -2.6498    0.0000 H   0  0  0  0  0  0  0  0  0  0  0  0
   -3.0178    1.6783    0.0000 H   0  0  0  0  0  0  0  0  0  0  0  0
   -1.5869    0.6122    0.0000 H   0  0  0  0  0  0  0  0  0  0  0  0
   -5.8927   -0.3440    0.0000 H   0  0  0  0  0  0  0  0  0  0  0  0
   -4.7081   -1.2265    0.0000 H   0  0  0  0  0  0  0  0  0  0  0  0
   -5.3750    3.0898    0.0000 H   0  0  0  0  0  0  0  0  0  0  0  0
   -3.8248    2.2061    0.0000 H   0  0  0  0  0  0  0  0  0  0  0  0
   -8.1929    1.6102    0.0000 H   0  0  0  0  0  0  0  0  0  0  0  0
   -6.5168    0.1944    0.0000 H   0  0  0  0  0  0  0  0  0  0  0  0
   -8.8691    3.1059    0.0000 H   0  0  0  0  0  0  0  0  0  0  0  0
   -6.5503    4.2778    0.0000 H   0  0  0  0  0  0  0  0  0  0  0  0
   -1.1397   -3.7284    0.0000 H   0  0  0  0  0  0  0  0  0  0  0  0
   -0.4851   -2.1588    0.0000 H   0  0  0  0  0  0  0  0  0  0  0  0
   -0.6639   -0.7470    0.0000 H   0  0  0  0  0  0  0  0  0  0  0  0
   -1.0128   -0.2754    0.0000 H   0  0  0  0  0  0  0  0  0  0  0  0
   -0.9426    0.8129    0.0000 H   0  0  0  0  0  0  0  0  0  0  0  0
   -0.9466    0.9806    0.0000 H   0  0  0  0  0  0  0  0  0  0  0  0
   -0.8336    2.5583    0.0000 H   0  0  0  0  0  0  0  0  0  0  0  0
   -0.8188    3.5460    0.0000 H   0  0  0  0  0  0  0  0  0  0  0  0
   -0.9012   -4.1653    0.0000 H   0  0  0  0  0  0  0  0  0  0  0  0
    0.1588   -5.4086    0.0000 H   0  0  0  0  0  0  0  0  0  0  0  0
    1.8362   -4.7998    0.0000 H   0  0  0  0  0  0  0  0  0  0  0  0
    2.1382   -6.0004    0.0000 H   0  0  0  0  0  0  0  0  0  0  0  0
    3.0839   -6.3847    0.0000 H   0  0  0  0  0  0  0  0  0  0  0  0
    5.1429   -8.6863    0.0000 H   0  0  0  0  0  0  0  0  0  0  0  0
    6.0523   -7.3290    0.0000 H   0  0  0  0  0  0  0  0  0  0  0  0
    1.8365   -8.4702    0.0000 H   0  0  0  0  0  0  0  0  0  0  0  0
    2.3905   -6.9331    0.0000 H   0  0  0  0  0  0  0  0  0  0  0  0
    3.9705  -11.0049    0.0000 H   0  0  0  0  0  0  0  0  0  0  0  0
    4.8715   -9.4646    0.0000 H   0  0  0  0  0  0  0  0  0  0  0  0
    0.7861   -9.7700    0.0000 H   0  0  0  0  0  0  0  0  0  0  0  0
    1.0355  -14.2630    0.0000 H   0  0  0  0  0  0  0  0  0  0  0  0
    3.6296  -14.1190    0.0000 H   0  0  0  0  0  0  0  0  0  0  0  0
    4.8019  -11.8005    0.0000 H   0  0  0  0  0  0  0  0  0  0  0  0
    6.9555   -8.1758    0.0000 H   0  0  0  0  0  0  0  0  0  0  0  0
    7.9588   -7.9878    0.0000 H   0  0  0  0  0  0  0  0  0  0  0  0
   10.9353   -8.8109    0.0000 H   0  0  0  0  0  0  0  0  0  0  0  0
   10.9665   -7.1773    0.0000 H   0  0  0  0  0  0  0  0  0  0  0  0
    8.0370  -10.4166    0.0000 H   0  0  0  0  0  0  0  0  0  0  0  0
    7.6720   -8.8240    0.0000 H   0  0  0  0  0  0  0  0  0  0  0  0
   11.2026  -11.3952    0.0000 H   0  0  0  0  0  0  0  0  0  0  0  0
   11.1277   -9.6123    0.0000 H   0  0  0  0  0  0  0  0  0  0  0  0
    7.8560  -12.0779    0.0000 H   0  0  0  0  0  0  0  0  0  0  0  0
   10.4950  -15.7229    0.0000 H   0  0  0  0  0  0  0  0  0  0  0  0
   12.5994  -14.1993    0.0000 H   0  0  0  0  0  0  0  0  0  0  0  0
   12.3321  -11.6150    0.0000 H   0  0  0  0  0  0  0  0  0  0  0  0
   12.1841   -7.4014    0.0000 H   0  0  0  0  0  0  0  0  0  0  0  0
   12.9265   -6.7008    0.0000 H   0  0  0  0  0  0  0  0  0  0  0  0
   15.8600   -5.9666    0.0000 H   0  0  0  0  0  0  0  0  0  0  0  0
   15.0186   -4.3929    0.0000 H   0  0  0  0  0  0  0  0  0  0  0  0
   14.3054   -8.7018    0.0000 H   0  0  0  0  0  0  0  0  0  0  0  0
   13.1374   -7.5593    0.0000 H   0  0  0  0  0  0  0  0  0  0  0  0
   17.6200   -9.8073    0.0000 H   0  0  0  0  0  0  0  0  0  0  0  0
   15.0513  -10.1972    0.0000 H   0  0  0  0  0  0  0  0  0  0  0  0
   16.1641   -3.9231    0.0000 H   0  0  0  0  0  0  0  0  0  0  0  0
   16.4099   -2.9323    0.0000 H   0  0  0  0  0  0  0  0  0  0  0  0
   18.3951   -0.5668    0.0000 H   0  0  0  0  0  0  0  0  0  0  0  0
   16.9221    0.1402    0.0000 H   0  0  0  0  0  0  0  0  0  0  0  0
   18.6517   -3.8702    0.0000 H   0  0  0  0  0  0  0  0  0  0  0  0
   17.0514   -3.5406    0.0000 H   0  0  0  0  0  0  0  0  0  0  0  0
   20.8568   -1.3972    0.0000 H   0  0  0  0  0  0  0  0  0  0  0  0
   19.2040   -0.7247    0.0000 H   0  0  0  0  0  0  0  0  0  0  0  0
   20.0877   -4.7250    0.0000 H   0  0  0  0  0  0  0  0  0  0  0  0
   24.4995   -3.8387    0.0000 H   0  0  0  0  0  0  0  0  0  0  0  0
   23.9878   -1.2915    0.0000 H   0  0  0  0  0  0  0  0  0  0  0  0
   21.5260   -0.4611    0.0000 H   0  0  0  0  0  0  0  0  0  0  0  0
   17.6317    1.1547    0.0000 H   0  0  0  0  0  0  0  0  0  0  0  0
   17.3028    2.1211    0.0000 H   0  0  0  0  0  0  0  0  0  0  0  0
   17.6940    5.1844    0.0000 H   0  0  0  0  0  0  0  0  0  0  0  0
   16.0726    4.9829    0.0000 H   0  0  0  0  0  0  0  0  0  0  0  0
   19.6958    2.5441    0.0000 H   0  0  0  0  0  0  0  0  0  0  0  0
   18.1714    1.9562    0.0000 H   0  0  0  0  0  0  0  0  0  0  0  0
   20.2139    5.8167    0.0000 H   0  0  0  0  0  0  0  0  0  0  0  0
   18.4599    5.4889    0.0000 H   0  0  0  0  0  0  0  0  0  0  0  0
   21.3660    2.6014    0.0000 H   0  0  0  0  0  0  0  0  0  0  0  0
   24.5983    5.7322    0.0000 H   0  0  0  0  0  0  0  0  0  0  0  0
   22.7907    7.5984    0.0000 H   0  0  0  0  0  0  0  0  0  0  0  0
   20.2708    6.9661    0.0000 H   0  0  0  0  0  0  0  0  0  0  0  0
   16.1211    6.2199    0.0000 H   0  0  0  0  0  0  0  0  0  0  0  0
   15.3220    6.8551    0.0000 H   0  0  0  0  0  0  0  0  0  0  0  0
   13.9949    9.6436    0.0000 H   0  0  0  0  0  0  0  0  0  0  0  0
   12.7399    8.5975    0.0000 H   0  0  0  0  0  0  0  0  0  0  0  0
   17.1064    8.5047    0.0000 H   0  0  0  0  0  0  0  0  0  0  0  0
   16.1418    7.1860    0.0000 H   0  0  0  0  0  0  0  0  0  0  0  0
   15.7729   11.5379    0.0000 H   0  0  0  0  0  0  0  0  0  0  0  0
   14.4745   10.3138    0.0000 H   0  0  0  0  0  0  0  0  0  0  0  0
   18.4805    9.4559    0.0000 H   0  0  0  0  0  0  0  0  0  0  0  0
   19.5070   13.8372    0.0000 H   0  0  0  0  0  0  0  0  0  0  0  0
   16.9774   14.4299    0.0000 H   0  0  0  0  0  0  0  0  0  0  0  0
   15.1994   12.5355    0.0000 H   0  0  0  0  0  0  0  0  0  0  0  0
   12.1119    9.6644    0.0000 H   0  0  0  0  0  0  0  0  0  0  0  0
    7.6793   10.2959    0.0000 H   0  0  0  0  0  0  0  0  0  0  0  0
    8.9324   10.4195    0.0000 H   0  0  0  0  0  0  0  0  0  0  0  0
    6.0968   10.1342    0.0000 H   0  0  0  0  0  0  0  0  0  0  0  0
    7.1592   10.3803    0.0000 H   0  0  0  0  0  0  0  0  0  0  0  0
    4.4288    9.5635    0.0000 H   0  0  0  0  0  0  0  0  0  0  0  0
    5.6086   10.0034    0.0000 H   0  0  0  0  0  0  0  0  0  0  0  0
    2.8990    8.6874    0.0000 H   0  0  0  0  0  0  0  0  0  0  0  0
    3.9742    9.3427    0.0000 H   0  0  0  0  0  0  0  0  0  0  0  0
    1.5626    7.5377    0.0000 H   0  0  0  0  0  0  0  0  0  0  0  0
    2.4944    8.3846    0.0000 H   0  0  0  0  0  0  0  0  0  0  0  0
    0.4409    5.9746    0.0000 H   0  0  0  0  0  0  0  0  0  0  0  0
    1.2226    7.1638    0.0000 H   0  0  0  0  0  0  0  0  0  0  0  0
   -0.1948    5.2185    0.0000 H   0  0  0  0  0  0  0  0  0  0  0  0
   10.7405   11.3838    0.0000 H   0  0  0  0  0  0  0  0  0  0  0  0
   12.2320   10.7168    0.0000 H   0  0  0  0  0  0  0  0  0  0  0  0
   12.1202    8.9359    0.0000 H   0  0  0  0  0  0  0  0  0  0  0  0
    7.4503   11.9241    0.0000 H   0  0  0  0  0  0  0  0  0  0  0  0
  1  2  1  0
  2  3  1  0
  3  4  2  0
  4  5  1  0
  5  6  2  0
  6  7  1  0
  7  8  2  0
  7  9  1  0
  9 10  1  0
 10 11  1  0
 11 12  2  0
  9 13  1  0
 13 14  1  0
 14 15  2  0
 15 16  1  0
 16 17  2  0
 17 18  1  0
 16 19  1  0
 14 20  1  0
 20 21  1  0
 21 22  2  0
 22 23  1  0
 23 24  2  0
 24 25  1  0
 25 26  2  0
 25 27  1  0
  1 28  2  0
  1 29  1  0
 29 30  1  0
 30 31  1  0
 31 32  1  0
 32 33  2  0
 32 34  1  0
 34 35  1  0
 35 36  1  0
 36 37  1  0
 37 38  2  0
 38 39  1  0
 39 40  2  0
 40 41  1  0
 40 42  1  0
 42 43  2  0
 35 44  1  0
 44 45  2  0
 44 46  1  0
 46 47  1  0
 47 48  1  0
 48 49  2  0
 48 50  1  0
 50 51  1  0
 51 52  1  0
 52 53  1  0
 53 54  1  0
 54 55  1  0
 55 56  1  0
 56 57  2  3
 56 58  1  0
 51 59  1  0
 59 60  2  0
 59 61  1  0
 61 62  1  0
 62 63  1  0
 63 64  1  0
 64 65  1  0
 65 66  1  0
 66 67  1  0
 62 68  1  0
 68 69  2  0
 68 70  1  0
 71 70  1  6
 71 72  1  0
 72 73  1  0
 73 74  1  0
 74 75  1  0
 71 76  1  0
 71 77  1  0
 77 78  2  0
 77 79  1  0
 79 80  1  0
 80 81  1  0
 81 82  1  0
 82 83  1  0
 83 84  1  0
 84 85  1  0
 85 86  2  3
 85 87  1  0
 80 88  1  0
 88 89  2  0
 88 90  1  0
 90 91  1  0
 91 92  1  0
 92 93  1  0
 93 94  1  0
 94 95  1  0
 95 96  1  0
 96 97  2  3
 96 98  1  0
 91 99  1  0
 99100  2  0
 99101  1  0
101102  1  0
102103  1  0
103104  1  0
104105  1  0
105106  1  0
105107  2  0
102108  1  0
108109  2  0
108110  1  0
110111  1  0
111112  1  0
112113  1  0
113114  1  0
114115  1  0
115116  1  0
116117  2  3
116118  1  0
111119  1  0
119120  2  0
119121  1  0
121122  1  0
122123  1  0
123124  1  0
124125  1  0
125126  1  0
126127  1  0
127128  2  3
127129  1  0
122130  1  0
130131  2  0
130132  1  0
132133  1  0
133134  1  0
134135  1  0
135136  1  0
136137  1  0
137138  1  0
138139  2  3
138140  1  0
133141  1  0
141142  2  0
141143  1  0
143144  1  0
144145  1  0
145146  1  0
146147  1  0
147148  1  0
148149  1  0
149150  1  0
150151  1  0
144152  1  0
144153  1  1
153154  2  0
153155  1  0
  8  3  1  0
 43 37  1  0
 11  6  1  0
 75151  2  0
 18 13  2  0
 22  9  1  0
 26 21  1  0
  2156  1  0
  4157  1  0
  5158  1  0
  8159  1  0
 15160  1  0
 17161  1  0
 18162  1  0
 19163  1  0
 23164  1  0
 24165  1  0
 26166  1  0
 27167  1  0
 29168  1  0
 30169  1  0
 30170  1  0
 31171  1  0
 31172  1  0
 34173  1  0
 35174  1  6
 36175  1  0
 36176  1  0
 38177  1  0
 39178  1  0
 41179  1  0
 42180  1  0
 43181  1  0
 46182  1  0
 47183  1  0
 47184  1  0
 50185  1  0
 51186  1  1
 52187  1  0
 52188  1  0
 53189  1  0
 53190  1  0
 54191  1  0
 54192  1  0
 55193  1  0
 57194  1  0
 58195  1  0
 58196  1  0
 61197  1  0
 62198  1  1
 63199  1  0
 63200  1  0
 64201  1  0
 64202  1  0
 65203  1  0
 65204  1  0
 66205  1  0
 66206  1  0
 67207  1  0
 67208  1  0
 70209  1  0
 72210  1  0
 72211  1  0
 73212  1  0
 73213  1  0
 74214  1  0
 74215  1  0
 75216  1  0
 76217  1  0
 76218  1  0
 76219  1  0
 79220  1  0
 80221  1  6
 81222  1  0
 81223  1  0
 82224  1  0
 82225  1  0
 83226  1  0
 83227  1  0
 84228  1  0
 86229  1  0
 87230  1  0
 87231  1  0
 90232  1  0
 91233  1  6
 92234  1  0
 92235  1  0
 93236  1  0
 93237  1  0
 94238  1  0
 94239  1  0
 95240  1  0
 97241  1  0
 98242  1  0
 98243  1  0
101244  1  0
102245  1  6
103246  1  0
103247  1  0
104248  1  0
104249  1  0
106250  1  0
106251  1  0
110252  1  0
111253  1  6
112254  1  0
112255  1  0
113256  1  0
113257  1  0
114258  1  0
114259  1  0
115260  1  0
117261  1  0
118262  1  0
118263  1  0
121264  1  0
122265  1  6
123266  1  0
123267  1  0
124268  1  0
124269  1  0
125270  1  0
125271  1  0
126272  1  0
128273  1  0
129274  1  0
129275  1  0
132276  1  0
133277  1  6
134278  1  0
134279  1  0
135280  1  0
135281  1  0
136282  1  0
136283  1  0
137284  1  0
139285  1  0
140286  1  0
140287  1  0
143288  1  0
145289  1  0
145290  1  0
146291  1  0
146292  1  0
147293  1  0
147294  1  0
148295  1  0
148296  1  0
149297  1  0
149298  1  0
150299  1  0
150300  1  0
151301  1  0
152302  1  0
152303  1  0
152304  1  0
155305  1  0
M  END
