
     RDKit          2D

250258  0  0  0  0  0  0  0  0999 V2000
  -17.7722   -0.5007    0.0000 C   0  0  0  0  0  0  0  0  0  0  0  0
  -19.0361   -1.3086    0.0000 N   0  0  0  0  0  0  0  0  0  0  0  0
  -20.3677   -0.6180    0.0000 C   0  0  0  0  0  0  0  0  0  0  0  0
  -20.4353    0.8805    0.0000 C   0  0  0  0  0  0  0  0  0  0  0  0
  -21.7669    1.5711    0.0000 C   0  0  0  0  0  0  0  0  0  0  0  0
  -23.0308    0.7633    0.0000 C   0  0  0  0  0  0  0  0  0  0  0  0
  -22.9631   -0.7352    0.0000 C   0  0  0  0  0  0  0  0  0  0  0  0
  -21.6315   -1.4258    0.0000 C   0  0  0  0  0  0  0  0  0  0  0  0
  -24.3673   -1.2626    0.0000 C   0  0  0  0  0  0  0  0  0  0  0  0
  -25.3028   -0.0901    0.0000 O   0  0  0  0  0  0  0  0  0  0  0  0
  -24.4768    1.1619    0.0000 C   0  0  0  0  0  0  0  0  0  0  0  0
  -25.0043    2.5662    0.0000 O   0  0  0  0  0  0  0  0  0  0  0  0
  -25.8190   -1.6404    0.0000 C   0  0  0  0  0  0  0  0  0  0  0  0
  -26.2176   -3.0864    0.0000 C   0  0  0  0  0  0  0  0  0  0  0  0
  -27.6693   -3.4642    0.0000 C   0  0  0  0  0  0  0  0  0  0  0  0
  -28.7223   -2.3959    0.0000 C   0  0  0  0  0  0  0  0  0  0  0  0
  -28.3236   -0.9499    0.0000 C   0  0  0  0  0  0  0  0  0  0  0  0
  -26.8719   -0.5721    0.0000 C   0  0  0  0  0  0  0  0  0  0  0  0
  -30.1739   -2.7737    0.0000 O   0  0  0  0  0  0  0  0  0  0  0  0
  -25.1647   -4.1547    0.0000 O   0  0  0  0  0  0  0  0  0  0  0  0
  -23.7130   -3.7770    0.0000 C   0  0  0  0  0  0  0  0  0  0  0  0
  -23.3143   -2.3309    0.0000 C   0  0  0  0  0  0  0  0  0  0  0  0
  -22.0487   -2.6280    0.0000 C   0  0  0  0  0  0  0  0  0  0  0  0
  -21.4871   -3.1977    0.0000 C   0  0  0  0  0  0  0  0  0  0  0  0
  -21.6998   -3.9690    0.0000 C   0  0  0  0  0  0  0  0  0  0  0  0
  -22.4740   -4.1704    0.0000 C   0  0  0  0  0  0  0  0  0  0  0  0
  -20.1554   -5.5358    0.0000 O   0  0  0  0  0  0  0  0  0  0  0  0
  -17.8399    0.9977    0.0000 S   0  0  0  0  0  0  0  0  0  0  0  0
  -16.4407   -1.1913    0.0000 N   0  0  0  0  0  0  0  0  0  0  0  0
  -15.1768   -0.3835    0.0000 C   0  0  0  0  0  0  0  0  0  0  0  0
  -13.8452   -1.0741    0.0000 C   0  0  0  0  0  0  0  0  0  0  0  0
  -12.5814   -0.2663    0.0000 C   0  0  0  0  0  0  0  0  0  0  0  0
  -12.6491    1.2322    0.0000 O   0  0  0  0  0  0  0  0  0  0  0  0
  -11.2498   -0.9569    0.0000 N   0  0  0  0  0  0  0  0  0  0  0  0
   -9.9859   -0.1490    0.0000 C   0  0  0  0  0  0  0  0  0  0  0  0
   -9.0746    1.0424    0.0000 C   0  0  0  0  0  0  0  0  0  0  0  0
   -7.5871    0.8488    0.0000 C   0  0  0  0  0  0  0  0  0  0  0  0
   -6.6758    2.0402    0.0000 C   0  0  0  0  0  0  0  0  0  0  0  0
   -5.1883    1.8467    0.0000 N   0  0  0  0  0  0  0  0  0  0  0  0
   -4.2770    3.0381    0.0000 C   0  0  0  0  0  0  0  0  0  0  0  0
   -2.8242    2.6647    0.0000 N   0  0  0  0  0  0  0  0  0  0  0  0
   -4.8531    4.4231    0.0000 N   0  0  0  0  0  0  0  0  0  0  0  0
   -8.6544   -0.8396    0.0000 C   0  0  0  0  0  0  0  0  0  0  0  0
   -8.5867   -2.3381    0.0000 O   0  0  0  0  0  0  0  0  0  0  0  0
   -7.3905   -0.0318    0.0000 N   0  0  0  0  0  0  0  0  0  0  0  0
   -6.0590   -0.7224    0.0000 C   0  0  0  0  0  0  0  0  0  0  0  0
   -5.0439   -1.8268    0.0000 C   0  0  0  0  0  0  0  0  0  0  0  0
   -5.4928   -3.2580    0.0000 C   0  0  0  0  0  0  0  0  0  0  0  0
   -4.4778   -4.3624    0.0000 C   0  0  0  0  0  0  0  0  0  0  0  0
   -4.9267   -5.7937    0.0000 C   0  0  0  0  0  0  0  0  0  0  0  0
   -3.9116   -6.8981    0.0000 N   0  0  0  0  0  0  0  0  0  0  0  0
   -4.7951    0.0855    0.0000 C   0  0  0  0  0  0  0  0  0  0  0  0
   -4.5786    1.1573    0.0000 O   0  0  0  0  0  0  0  0  0  0  0  0
   -3.4635   -0.6052    0.0000 N   0  0  0  0  0  0  0  0  0  0  0  0
   -2.1997    0.2027    0.0000 C   0  0  0  0  0  0  0  0  0  0  0  0
   -1.2883    1.3941    0.0000 C   0  0  0  0  0  0  0  0  0  0  0  0
    0.1992    1.2006    0.0000 C   0  0  0  0  0  0  0  0  0  0  0  0
    0.7753   -0.1844    0.0000 C   0  0  0  0  0  0  0  0  0  0  0  0
   -0.1745   -0.9421    0.0000 F   0  0  0  0  0  0  0  0  0  0  0  0
    2.2627   -0.3779    0.0000 C   0  0  0  0  0  0  0  0  0  0  0  0
    3.1568   -1.5823    0.0000 F   0  0  0  0  0  0  0  0  0  0  0  0
    3.1741    0.8135    0.0000 C   0  0  0  0  0  0  0  0  0  0  0  0
    4.6615    0.6199    0.0000 F   0  0  0  0  0  0  0  0  0  0  0  0
    2.5980    2.1984    0.0000 C   0  0  0  0  0  0  0  0  0  0  0  0
    3.7705    3.1339    0.0000 F   0  0  0  0  0  0  0  0  0  0  0  0
    1.1105    2.3920    0.0000 C   0  0  0  0  0  0  0  0  0  0  0  0
    0.2164    3.5963    0.0000 F   0  0  0  0  0  0  0  0  0  0  0  0
   -0.8681   -0.4879    0.0000 C   0  0  0  0  0  0  0  0  0  0  0  0
   -1.1650   -1.9582    0.0000 O   0  0  0  0  0  0  0  0  0  0  0  0
    0.3958    0.3199    0.0000 N   0  0  0  0  0  0  0  0  0  0  0  0
    1.7273   -0.3707    0.0000 C   0  0  0  0  0  0  0  0  0  0  0  0
    2.0906   -1.8260    0.0000 C   0  0  0  0  0  0  0  0  0  0  0  0
    2.8667   -3.1097    0.0000 C   0  0  0  0  0  0  0  0  0  0  0  0
    3.9867   -4.1075    0.0000 C   0  0  0  0  0  0  0  0  0  0  0  0
    5.3510   -4.7309    0.0000 C   0  0  0  0  0  0  0  0  0  0  0  0
    0.5502   -1.3004    0.0000 C   0  0  0  0  0  0  0  0  0  0  0  0
    1.8092    1.1271    0.0000 C   0  0  0  0  0  0  0  0  0  0  0  0
    0.5470    1.9375    0.0000 O   0  0  0  0  0  0  0  0  0  0  0  0
    2.3289    2.5342    0.0000 N   0  0  0  0  0  0  0  0  0  0  0  0
    3.2402    3.7256    0.0000 C   0  0  0  0  0  0  0  0  0  0  0  0
    2.9500    5.1972    0.0000 C   0  0  0  0  0  0  0  0  0  0  0  0
    1.5303    5.6817    0.0000 C   0  0  0  0  0  0  0  0  0  0  0  0
    1.2401    7.1533    0.0000 C   0  0  0  0  0  0  0  0  0  0  0  0
   -0.1795    7.6378    0.0000 N   0  0  0  0  0  0  0  0  0  0  0  0
   -0.4698    9.1094    0.0000 C   0  0  0  0  0  0  0  0  0  0  0  0
   -1.8894    9.5939    0.0000 N   0  0  0  0  0  0  0  0  0  0  0  0
    0.6595   10.0966    0.0000 N   0  0  0  0  0  0  0  0  0  0  0  0
    4.4623    4.5954    0.0000 C   0  0  0  0  0  0  0  0  0  0  0  0
    3.7843    5.9335    0.0000 O   0  0  0  0  0  0  0  0  0  0  0  0
    5.8864    5.0664    0.0000 N   0  0  0  0  0  0  0  0  0  0  0  0
    7.3861    5.0967    0.0000 C   0  0  0  0  0  0  0  0  0  0  0  0
    8.3557    6.2412    0.0000 C   0  0  0  0  0  0  0  0  0  0  0  0
    7.8493    7.6532    0.0000 C   0  0  0  0  0  0  0  0  0  0  0  0
    8.8189    8.7977    0.0000 C   0  0  0  0  0  0  0  0  0  0  0  0
    6.8906    8.8068    0.0000 C   0  0  0  0  0  0  0  0  0  0  0  0
    8.8281    4.6837    0.0000 C   0  0  0  0  0  0  0  0  0  0  0  0
    9.4515    6.0480    0.0000 O   0  0  0  0  0  0  0  0  0  0  0  0
   10.0843    3.8639    0.0000 N   0  0  0  0  0  0  0  0  0  0  0  0
   11.0430    2.7103    0.0000 C   0  0  0  0  0  0  0  0  0  0  0  0
   12.5423    2.6658    0.0000 C   0  0  0  0  0  0  0  0  0  0  0  0
   13.3305    3.9420    0.0000 C   0  0  0  0  0  0  0  0  0  0  0  0
   14.8299    3.8975    0.0000 C   0  0  0  0  0  0  0  0  0  0  0  0
   15.6181    5.1738    0.0000 C   0  0  0  0  0  0  0  0  0  0  0  0
   14.9069    6.4945    0.0000 C   0  0  0  0  0  0  0  0  0  0  0  0
   13.4076    6.5390    0.0000 C   0  0  0  0  0  0  0  0  0  0  0  0
   12.6194    5.2627    0.0000 C   0  0  0  0  0  0  0  0  0  0  0  0
   11.6191    1.3253    0.0000 C   0  0  0  0  0  0  0  0  0  0  0  0
   13.0745    1.6886    0.0000 O   0  0  0  0  0  0  0  0  0  0  0  0
   11.7614   -0.1679    0.0000 N   0  0  0  0  0  0  0  0  0  0  0  0
   11.4572   -1.6367    0.0000 C   0  0  0  0  0  0  0  0  0  0  0  0
   10.7336   -2.9507    0.0000 C   0  0  0  0  0  0  0  0  0  0  0  0
    9.6549   -3.9929    0.0000 C   0  0  0  0  0  0  0  0  0  0  0  0
    8.3169   -4.6709    0.0000 C   0  0  0  0  0  0  0  0  0  0  0  0
    6.8384   -4.9244    0.0000 C   0  0  0  0  0  0  0  0  0  0  0  0
   12.9212   -1.3099    0.0000 C   0  0  0  0  0  0  0  0  0  0  0  0
   12.3573   -2.8367    0.0000 C   0  0  0  0  0  0  0  0  0  0  0  0
   12.1194   -4.3177    0.0000 O   0  0  0  0  0  0  0  0  0  0  0  0
   13.8465   -2.6572    0.0000 N   0  0  0  0  0  0  0  0  0  0  0  0
   14.7466   -3.8572    0.0000 C   0  0  0  0  0  0  0  0  0  0  0  0
   15.1819   -5.2926    0.0000 C   0  0  0  0  0  0  0  0  0  0  0  0
   14.1565   -6.3874    0.0000 O   0  0  0  0  0  0  0  0  0  0  0  0
   16.2358   -3.6777    0.0000 C   0  0  0  0  0  0  0  0  0  0  0  0
   16.8250   -2.2983    0.0000 O   0  0  0  0  0  0  0  0  0  0  0  0
   17.1358   -4.8777    0.0000 N   0  0  0  0  0  0  0  0  0  0  0  0
   18.6250   -4.6982    0.0000 C   0  0  0  0  0  0  0  0  0  0  0  0
   19.9631   -4.0202    0.0000 C   0  0  0  0  0  0  0  0  0  0  0  0
   21.2193   -4.8400    0.0000 C   0  0  0  0  0  0  0  0  0  0  0  0
   21.1374   -6.3377    0.0000 C   0  0  0  0  0  0  0  0  0  0  0  0
   22.3936   -7.1575    0.0000 C   0  0  0  0  0  0  0  0  0  0  0  0
   23.7316   -6.4795    0.0000 C   0  0  0  0  0  0  0  0  0  0  0  0
   24.9878   -7.2993    0.0000 O   0  0  0  0  0  0  0  0  0  0  0  0
   23.8135   -4.9817    0.0000 C   0  0  0  0  0  0  0  0  0  0  0  0
   22.5573   -4.1620    0.0000 C   0  0  0  0  0  0  0  0  0  0  0  0
   19.5251   -5.8982    0.0000 C   0  0  0  0  0  0  0  0  0  0  0  0
   21.0135   -6.0844    0.0000 O   0  0  0  0  0  0  0  0  0  0  0  0
   18.7722   -7.1955    0.0000 O   0  0  0  0  0  0  0  0  0  0  0  0
  -18.7863   -2.7876    0.0000 H   0  0  0  0  0  0  0  0  0  0  0  0
  -19.1715    1.6884    0.0000 H   0  0  0  0  0  0  0  0  0  0  0  0
  -21.8346    3.0696    0.0000 H   0  0  0  0  0  0  0  0  0  0  0  0
  -21.2033   -2.8634    0.0000 H   0  0  0  0  0  0  0  0  0  0  0  0
  -28.0680   -4.9102    0.0000 H   0  0  0  0  0  0  0  0  0  0  0  0
  -29.3766    0.1184    0.0000 H   0  0  0  0  0  0  0  0  0  0  0  0
  -26.4733    0.8740    0.0000 H   0  0  0  0  0  0  0  0  0  0  0  0
  -31.2269   -1.7054    0.0000 H   0  0  0  0  0  0  0  0  0  0  0  0
  -21.4640   -0.5071    0.0000 H   0  0  0  0  0  0  0  0  0  0  0  0
  -19.3228   -2.8235    0.0000 H   0  0  0  0  0  0  0  0  0  0  0  0
  -23.0587   -6.2913    0.0000 H   0  0  0  0  0  0  0  0  0  0  0  0
  -20.5541   -6.9818    0.0000 H   0  0  0  0  0  0  0  0  0  0  0  0
  -16.3730   -2.6898    0.0000 H   0  0  0  0  0  0  0  0  0  0  0  0
  -14.2655    0.8079    0.0000 H   0  0  0  0  0  0  0  0  0  0  0  0
  -16.1919    0.7209    0.0000 H   0  0  0  0  0  0  0  0  0  0  0  0
  -12.8302   -2.1785    0.0000 H   0  0  0  0  0  0  0  0  0  0  0  0
  -14.7566   -2.2655    0.0000 H   0  0  0  0  0  0  0  0  0  0  0  0
  -11.1821   -2.4553    0.0000 H   0  0  0  0  0  0  0  0  0  0  0  0
  -11.0010    0.9554    0.0000 H   0  0  0  0  0  0  0  0  0  0  0  0
   -8.8035    2.5177    0.0000 H   0  0  0  0  0  0  0  0  0  0  0  0
  -10.4062    1.7330    0.0000 H   0  0  0  0  0  0  0  0  0  0  0  0
   -6.2556    0.1582    0.0000 H   0  0  0  0  0  0  0  0  0  0  0  0
   -7.3114   -0.6256    0.0000 H   0  0  0  0  0  0  0  0  0  0  0  0
   -6.2269    3.4715    0.0000 H   0  0  0  0  0  0  0  0  0  0  0  0
   -7.9132    2.8880    0.0000 H   0  0  0  0  0  0  0  0  0  0  0  0
   -4.2942    0.6423    0.0000 H   0  0  0  0  0  0  0  0  0  0  0  0
   -1.8782    4.0360    0.0000 H   0  0  0  0  0  0  0  0  0  0  0  0
   -3.9417    5.6145    0.0000 H   0  0  0  0  0  0  0  0  0  0  0  0
   -6.3406    4.6166    0.0000 H   0  0  0  0  0  0  0  0  0  0  0  0
   -7.0936    1.4385    0.0000 H   0  0  0  0  0  0  0  0  0  0  0  0
   -7.1087   -1.7938    0.0000 H   0  0  0  0  0  0  0  0  0  0  0  0
   -3.7123   -2.5174    0.0000 H   0  0  0  0  0  0  0  0  0  0  0  0
   -3.8713   -0.8913    0.0000 H   0  0  0  0  0  0  0  0  0  0  0  0
   -6.5426   -4.3295    0.0000 H   0  0  0  0  0  0  0  0  0  0  0  0
   -6.8986   -2.7349    0.0000 H   0  0  0  0  0  0  0  0  0  0  0  0
   -3.1462   -5.0530    0.0000 H   0  0  0  0  0  0  0  0  0  0  0  0
   -3.4280   -3.2910    0.0000 H   0  0  0  0  0  0  0  0  0  0  0  0
   -5.8380   -6.9851    0.0000 H   0  0  0  0  0  0  0  0  0  0  0  0
   -6.3325   -5.2705    0.0000 H   0  0  0  0  0  0  0  0  0  0  0  0
   -4.3605   -8.3293    0.0000 H   0  0  0  0  0  0  0  0  0  0  0  0
   -2.4477   -6.5712    0.0000 H   0  0  0  0  0  0  0  0  0  0  0  0
   -3.2137   -2.0842    0.0000 H   0  0  0  0  0  0  0  0  0  0  0  0
   -3.2147    1.3071    0.0000 H   0  0  0  0  0  0  0  0  0  0  0  0
   -0.8394    2.8254    0.0000 H   0  0  0  0  0  0  0  0  0  0  0  0
   -2.6941    1.9173    0.0000 H   0  0  0  0  0  0  0  0  0  0  0  0
    0.5113    1.8155    0.0000 H   0  0  0  0  0  0  0  0  0  0  0  0
    0.5938   -1.9237    0.0000 H   0  0  0  0  0  0  0  0  0  0  0  0
    1.2398   -3.0614    0.0000 H   0  0  0  0  0  0  0  0  0  0  0  0
    1.4652   -3.6442    0.0000 H   0  0  0  0  0  0  0  0  0  0  0  0
    2.2467   -4.4755    0.0000 H   0  0  0  0  0  0  0  0  0  0  0  0
    2.7011   -4.8804    0.0000 H   0  0  0  0  0  0  0  0  0  0  0  0
    3.9796   -5.6075    0.0000 H   0  0  0  0  0  0  0  0  0  0  0  0
    4.9379   -6.1729    0.0000 H   0  0  0  0  0  0  0  0  0  0  0  0
    0.4011   -2.7929    0.0000 H   0  0  0  0  0  0  0  0  0  0  0  0
   -0.7177   -2.1020    0.0000 H   0  0  0  0  0  0  0  0  0  0  0  0
   -0.4594   -0.1910    0.0000 H   0  0  0  0  0  0  0  0  0  0  0  0
    1.1129    3.4125    0.0000 H   0  0  0  0  0  0  0  0  0  0  0  0
    1.7488    3.8857    0.0000 H   0  0  0  0  0  0  0  0  0  0  0  0
    3.3595    6.6402    0.0000 H   0  0  0  0  0  0  0  0  0  0  0  0
    4.3977    5.5895    0.0000 H   0  0  0  0  0  0  0  0  0  0  0  0
    0.0306    5.6514    0.0000 H   0  0  0  0  0  0  0  0  0  0  0  0
    0.9480    4.2993    0.0000 H   0  0  0  0  0  0  0  0  0  0  0  0
    1.4706    8.6355    0.0000 H   0  0  0  0  0  0  0  0  0  0  0  0
    2.7249    7.3662    0.0000 H   0  0  0  0  0  0  0  0  0  0  0  0
   -1.3089    6.6506    0.0000 H   0  0  0  0  0  0  0  0  0  0  0  0
   -2.1797   11.0655    0.0000 H   0  0  0  0  0  0  0  0  0  0  0  0
    0.3693   11.5683    0.0000 H   0  0  0  0  0  0  0  0  0  0  0  0
    2.0792    9.6122    0.0000 H   0  0  0  0  0  0  0  0  0  0  0  0
    5.6329    6.5449    0.0000 H   0  0  0  0  0  0  0  0  0  0  0  0
    6.5813    6.3626    0.0000 H   0  0  0  0  0  0  0  0  0  0  0  0
    9.7392    6.8208    0.0000 H   0  0  0  0  0  0  0  0  0  0  0  0
    9.5651    5.3539    0.0000 H   0  0  0  0  0  0  0  0  0  0  0  0
    6.4658    7.0737    0.0000 H   0  0  0  0  0  0  0  0  0  0  0  0
    8.4884   10.2608    0.0000 H   0  0  0  0  0  0  0  0  0  0  0  0
   10.1215    9.5415    0.0000 H   0  0  0  0  0  0  0  0  0  0  0  0
    9.9111    7.7695    0.0000 H   0  0  0  0  0  0  0  0  0  0  0  0
    7.2349   10.2668    0.0000 H   0  0  0  0  0  0  0  0  0  0  0  0
    5.5951    9.5629    0.0000 H   0  0  0  0  0  0  0  0  0  0  0  0
    5.9210    7.6623    0.0000 H   0  0  0  0  0  0  0  0  0  0  0  0
   10.9381    5.0971    0.0000 H   0  0  0  0  0  0  0  0  0  0  0  0
   11.7002    4.0586    0.0000 H   0  0  0  0  0  0  0  0  0  0  0  0
   13.9360    2.1112    0.0000 H   0  0  0  0  0  0  0  0  0  0  0  0
   12.6026    1.1670    0.0000 H   0  0  0  0  0  0  0  0  0  0  0  0
   15.5410    2.5768    0.0000 H   0  0  0  0  0  0  0  0  0  0  0  0
   17.1174    5.1293    0.0000 H   0  0  0  0  0  0  0  0  0  0  0  0
   15.6951    7.7707    0.0000 H   0  0  0  0  0  0  0  0  0  0  0  0
   12.6964    7.8597    0.0000 H   0  0  0  0  0  0  0  0  0  0  0  0
   11.1366    5.4897    0.0000 H   0  0  0  0  0  0  0  0  0  0  0  0
   13.2592   -0.2498    0.0000 H   0  0  0  0  0  0  0  0  0  0  0  0
   11.2400   -4.3626    0.0000 H   0  0  0  0  0  0  0  0  0  0  0  0
   12.1556   -3.4281    0.0000 H   0  0  0  0  0  0  0  0  0  0  0  0
    9.9047   -5.4720    0.0000 H   0  0  0  0  0  0  0  0  0  0  0  0
   10.8730   -4.8683    0.0000 H   0  0  0  0  0  0  0  0  0  0  0  0
    7.9399   -6.1228    0.0000 H   0  0  0  0  0  0  0  0  0  0  0  0
    9.3618   -5.7471    0.0000 H   0  0  0  0  0  0  0  0  0  0  0  0
    6.8688   -6.4241    0.0000 H   0  0  0  0  0  0  0  0  0  0  0  0
   14.1733   -2.1358    0.0000 H   0  0  0  0  0  0  0  0  0  0  0  0
   14.0772   -0.3540    0.0000 H   0  0  0  0  0  0  0  0  0  0  0  0
   12.6973    0.1733    0.0000 H   0  0  0  0  0  0  0  0  0  0  0  0
   14.5994   -1.3599    0.0000 H   0  0  0  0  0  0  0  0  0  0  0  0
   13.4085   -4.5352    0.0000 H   0  0  0  0  0  0  0  0  0  0  0  0
   15.9290   -6.5934    0.0000 H   0  0  0  0  0  0  0  0  0  0  0  0
   16.6442   -4.9585    0.0000 H   0  0  0  0  0  0  0  0  0  0  0  0
   14.5918   -7.8228    0.0000 H   0  0  0  0  0  0  0  0  0  0  0  0
   16.7192   -6.3187    0.0000 H   0  0  0  0  0  0  0  0  0  0  0  0
   18.1897   -3.2628    0.0000 H   0  0  0  0  0  0  0  0  0  0  0  0
   20.9885   -2.9255    0.0000 H   0  0  0  0  0  0  0  0  0  0  0  0
   19.0630   -2.8202    0.0000 H   0  0  0  0  0  0  0  0  0  0  0  0
   19.8920   -7.1738    0.0000 H   0  0  0  0  0  0  0  0  0  0  0  0
   22.3117   -8.6553    0.0000 H   0  0  0  0  0  0  0  0  0  0  0  0
   26.3258   -6.6213    0.0000 H   0  0  0  0  0  0  0  0  0  0  0  0
   25.1515   -4.3037    0.0000 H   0  0  0  0  0  0  0  0  0  0  0  0
   22.6391   -2.6642    0.0000 H   0  0  0  0  0  0  0  0  0  0  0  0
   19.8360   -8.4776    0.0000 H   0  0  0  0  0  0  0  0  0  0  0  0
  1  2  1  0
  2  3  1  0
  3  4  2  0
  4  5  1  0
  5  6  2  0
  6  7  1  0
  7  8  2  0
  7  9  1  0
  9 10  1  0
 10 11  1  0
 11 12  2  0
  9 13  1  0
 13 14  1  0
 14 15  2  0
 15 16  1  0
 16 17  2  0
 17 18  1  0
 16 19  1  0
 14 20  1  0
 20 21  1  0
 21 22  2  0
 22 23  1  0
 23 24  2  0
 24 25  1  0
 25 26  2  0
 25 27  1  0
  1 28  2  0
  1 29  1  0
 29 30  1  0
 30 31  1  0
 31 32  1  0
 32 33  2  0
 32 34  1  0
 34 35  1  0
 35 36  1  0
 36 37  1  0
 37 38  1  0
 38 39  1  0
 39 40  1  0
 40 41  2  3
 40 42  1  0
 35 43  1  0
 43 44  2  0
 43 45  1  0
 45 46  1  0
 46 47  1  0
 47 48  1  0
 48 49  1  0
 49 50  1  0
 50 51  1  0
 46 52  1  0
 52 53  2  0
 52 54  1  0
 54 55  1  0
 55 56  1  0
 56 57  1  0
 57 58  2  0
 58 59  1  0
 58 60  1  0
 60 61  1  0
 60 62  2  0
 62 63  1  0
 62 64  1  0
 64 65  1  0
 64 66  2  0
 66 67  1  0
 55 68  1  0
 68 69  2  0
 68 70  1  0
 71 70  1  6
 71 72  1  0
 72 73  1  0
 73 74  1  0
 74 75  1  0
 71 76  1  0
 71 77  1  0
 77 78  2  0
 77 79  1  0
 79 80  1  0
 80 81  1  0
 81 82  1  0
 82 83  1  0
 83 84  1  0
 84 85  1  0
 85 86  2  3
 85 87  1  0
 80 88  1  0
 88 89  2  0
 88 90  1  0
 90 91  1  0
 91 92  1  0
 92 93  1  0
 93 94  1  0
 93 95  1  0
 91 96  1  0
 96 97  2  0
 96 98  1  0
 98 99  1  0
 99100  1  0
100101  1  0
101102  2  0
102103  1  0
103104  2  0
104105  1  0
105106  2  0
 99107  1  0
107108  2  0
107109  1  0
109110  1  0
110111  1  0
111112  1  0
112113  1  0
113114  1  0
110115  1  0
110116  1  6
116117  2  0
116118  1  0
118119  1  0
119120  1  0
120121  1  0
119122  1  0
122123  2  0
122124  1  0
124125  1  0
125126  1  0
126127  1  0
127128  2  0
128129  1  0
129130  2  0
130131  1  0
130132  1  0
132133  2  0
125134  1  0
134135  2  0
134136  1  0
  8  3  1  0
 66 57  1  0
106101  1  0
133127  1  0
 11  6  1  0
 75114  2  0
 18 13  2  0
 22  9  1  0
 26 21  1  0
  2137  1  0
  4138  1  0
  5139  1  0
  8140  1  0
 15141  1  0
 17142  1  0
 18143  1  0
 19144  1  0
 23145  1  0
 24146  1  0
 26147  1  0
 27148  1  0
 29149  1  0
 30150  1  0
 30151  1  0
 31152  1  0
 31153  1  0
 34154  1  0
 35155  1  1
 36156  1  0
 36157  1  0
 37158  1  0
 37159  1  0
 38160  1  0
 38161  1  0
 39162  1  0
 41163  1  0
 42164  1  0
 42165  1  0
 45166  1  0
 46167  1  6
 47168  1  0
 47169  1  0
 48170  1  0
 48171  1  0
 49172  1  0
 49173  1  0
 50174  1  0
 50175  1  0
 51176  1  0
 51177  1  0
 54178  1  0
 55179  1  6
 56180  1  0
 56181  1  0
 70182  1  0
 72183  1  0
 72184  1  0
 73185  1  0
 73186  1  0
 74187  1  0
 74188  1  0
 75189  1  0
 76190  1  0
 76191  1  0
 76192  1  0
 79193  1  0
 80194  1  1
 81195  1  0
 81196  1  0
 82197  1  0
 82198  1  0
 83199  1  0
 83200  1  0
 84201  1  0
 86202  1  0
 87203  1  0
 87204  1  0
 90205  1  0
 91206  1  1
 92207  1  0
 92208  1  0
 93209  1  0
 94210  1  0
 94211  1  0
 94212  1  0
 95213  1  0
 95214  1  0
 95215  1  0
 98216  1  0
 99217  1  1
100218  1  0
100219  1  0
102220  1  0
103221  1  0
104222  1  0
105223  1  0
106224  1  0
109225  1  0
111226  1  0
111227  1  0
112228  1  0
112229  1  0
113230  1  0
113231  1  0
114232  1  0
115233  1  0
115234  1  0
115235  1  0
118236  1  0
119237  1  6
120238  1  0
120239  1  0
121240  1  0
124241  1  0
125242  1  1
126243  1  0
126244  1  0
128245  1  0
129246  1  0
131247  1  0
132248  1  0
133249  1  0
136250  1  0
M  END
