
     RDKit          2D

215218  0  0  0  0  0  0  0  0999 V2000
  -15.6225    5.0473    0.0000 N   0  0  0  0  0  0  0  0  0  0  0  0
  -14.3888    4.1939    0.0000 C   0  0  0  0  0  0  0  0  0  0  0  0
  -13.0330    4.8356    0.0000 C   0  0  0  0  0  0  0  0  0  0  0  0
  -11.7994    3.9823    0.0000 C   0  0  0  0  0  0  0  0  0  0  0  0
  -11.9216    2.4873    0.0000 O   0  0  0  0  0  0  0  0  0  0  0  0
  -10.4436    4.6240    0.0000 N   0  0  0  0  0  0  0  0  0  0  0  0
   -9.2099    3.7707    0.0000 C   0  0  0  0  0  0  0  0  0  0  0  0
   -8.5838    5.1338    0.0000 C   0  0  0  0  0  0  0  0  0  0  0  0
   -9.4512    6.3575    0.0000 C   0  0  0  0  0  0  0  0  0  0  0  0
   -8.8250    7.7206    0.0000 C   0  0  0  0  0  0  0  0  0  0  0  0
   -9.6924    8.9444    0.0000 N   0  0  0  0  0  0  0  0  0  0  0  0
   -9.0663   10.3075    0.0000 C   0  0  0  0  0  0  0  0  0  0  0  0
   -9.9337   11.5312    0.0000 N   0  0  0  0  0  0  0  0  0  0  0  0
   -7.5728   10.4467    0.0000 N   0  0  0  0  0  0  0  0  0  0  0  0
   -8.3426    2.5469    0.0000 C   0  0  0  0  0  0  0  0  0  0  0  0
   -6.8491    2.6862    0.0000 O   0  0  0  0  0  0  0  0  0  0  0  0
   -8.9687    1.1838    0.0000 N   0  0  0  0  0  0  0  0  0  0  0  0
   -8.1013   -0.0399    0.0000 C   0  0  0  0  0  0  0  0  0  0  0  0
   -9.4571   -0.6816    0.0000 C   0  0  0  0  0  0  0  0  0  0  0  0
  -10.6908    0.1717    0.0000 C   0  0  0  0  0  0  0  0  0  0  0  0
  -12.0466   -0.4700    0.0000 C   0  0  0  0  0  0  0  0  0  0  0  0
  -13.2802    0.3833    0.0000 N   0  0  0  0  0  0  0  0  0  0  0  0
  -14.6360   -0.2584    0.0000 C   0  0  0  0  0  0  0  0  0  0  0  0
  -15.8697    0.5949    0.0000 N   0  0  0  0  0  0  0  0  0  0  0  0
  -14.7582   -1.7534    0.0000 N   0  0  0  0  0  0  0  0  0  0  0  0
   -6.8677   -0.8933    0.0000 C   0  0  0  0  0  0  0  0  0  0  0  0
   -5.5119   -0.2516    0.0000 O   0  0  0  0  0  0  0  0  0  0  0  0
   -6.9899   -2.3883    0.0000 N   0  0  0  0  0  0  0  0  0  0  0  0
   -5.7563   -3.2416    0.0000 C   0  0  0  0  0  0  0  0  0  0  0  0
   -6.8108   -4.3083    0.0000 C   0  0  0  0  0  0  0  0  0  0  0  0
   -8.2619   -3.9284    0.0000 C   0  0  0  0  0  0  0  0  0  0  0  0
   -8.6584   -2.4817    0.0000 C   0  0  0  0  0  0  0  0  0  0  0  0
   -7.6039   -1.4150    0.0000 F   0  0  0  0  0  0  0  0  0  0  0  0
  -10.1095   -2.1018    0.0000 C   0  0  0  0  0  0  0  0  0  0  0  0
  -10.5060   -0.6552    0.0000 F   0  0  0  0  0  0  0  0  0  0  0  0
  -11.1641   -3.1685    0.0000 C   0  0  0  0  0  0  0  0  0  0  0  0
  -12.6152   -2.7886    0.0000 F   0  0  0  0  0  0  0  0  0  0  0  0
  -10.7676   -4.6152    0.0000 C   0  0  0  0  0  0  0  0  0  0  0  0
  -11.8222   -5.6819    0.0000 F   0  0  0  0  0  0  0  0  0  0  0  0
   -9.3165   -4.9951    0.0000 C   0  0  0  0  0  0  0  0  0  0  0  0
   -8.9200   -6.4417    0.0000 F   0  0  0  0  0  0  0  0  0  0  0  0
   -4.3052   -3.6215    0.0000 C   0  0  0  0  0  0  0  0  0  0  0  0
   -4.0880   -5.1057    0.0000 O   0  0  0  0  0  0  0  0  0  0  0  0
   -3.2506   -2.5548    0.0000 N   0  0  0  0  0  0  0  0  0  0  0  0
   -1.7995   -2.9348    0.0000 C   0  0  0  0  0  0  0  0  0  0  0  0
   -2.0500   -1.4558    0.0000 C   0  0  0  0  0  0  0  0  0  0  0  0
   -1.8535    0.0312    0.0000 C   0  0  0  0  0  0  0  0  0  0  0  0
   -1.2273    1.3943    0.0000 C   0  0  0  0  0  0  0  0  0  0  0  0
   -0.2272    2.5123    0.0000 C   0  0  0  0  0  0  0  0  0  0  0  0
   -2.7426   -4.1012    0.0000 C   0  0  0  0  0  0  0  0  0  0  0  0
   -1.1242   -4.2742    0.0000 C   0  0  0  0  0  0  0  0  0  0  0  0
   -2.3480   -5.1415    0.0000 O   0  0  0  0  0  0  0  0  0  0  0  0
   -0.0841   -5.3550    0.0000 N   0  0  0  0  0  0  0  0  0  0  0  0
    1.2283   -6.0813    0.0000 C   0  0  0  0  0  0  0  0  0  0  0  0
    1.5522   -7.5459    0.0000 C   0  0  0  0  0  0  0  0  0  0  0  0
    0.4458   -8.5587    0.0000 C   0  0  0  0  0  0  0  0  0  0  0  0
    0.7697  -10.0233    0.0000 C   0  0  0  0  0  0  0  0  0  0  0  0
   -0.3367  -11.0361    0.0000 N   0  0  0  0  0  0  0  0  0  0  0  0
   -0.0128  -12.5007    0.0000 C   0  0  0  0  0  0  0  0  0  0  0  0
   -1.1192  -13.5135    0.0000 N   0  0  0  0  0  0  0  0  0  0  0  0
    1.4175  -12.9525    0.0000 N   0  0  0  0  0  0  0  0  0  0  0  0
    2.6966   -6.3884    0.0000 C   0  0  0  0  0  0  0  0  0  0  0  0
    2.6117   -7.8860    0.0000 O   0  0  0  0  0  0  0  0  0  0  0  0
    4.1901   -6.2491    0.0000 N   0  0  0  0  0  0  0  0  0  0  0  0
    5.5762   -5.6758    0.0000 C   0  0  0  0  0  0  0  0  0  0  0  0
    6.9232   -6.3357    0.0000 C   0  0  0  0  0  0  0  0  0  0  0  0
    7.0252   -7.8322    0.0000 C   0  0  0  0  0  0  0  0  0  0  0  0
    8.3723   -8.4922    0.0000 C   0  0  0  0  0  0  0  0  0  0  0  0
    6.6092   -9.2734    0.0000 C   0  0  0  0  0  0  0  0  0  0  0  0
    6.7317   -4.7194    0.0000 C   0  0  0  0  0  0  0  0  0  0  0  0
    7.8497   -5.7195    0.0000 O   0  0  0  0  0  0  0  0  0  0  0  0
    7.5540   -3.4649    0.0000 N   0  0  0  0  0  0  0  0  0  0  0  0
    7.9700   -2.0237    0.0000 C   0  0  0  0  0  0  0  0  0  0  0  0
    9.3258   -1.3820    0.0000 C   0  0  0  0  0  0  0  0  0  0  0  0
   10.5595   -2.2353    0.0000 C   0  0  0  0  0  0  0  0  0  0  0  0
   10.4373   -3.7303    0.0000 C   0  0  0  0  0  0  0  0  0  0  0  0
   11.6709   -4.5837    0.0000 C   0  0  0  0  0  0  0  0  0  0  0  0
   13.0267   -3.9420    0.0000 C   0  0  0  0  0  0  0  0  0  0  0  0
   13.1489   -2.4470    0.0000 C   0  0  0  0  0  0  0  0  0  0  0  0
   11.9153   -1.5936    0.0000 C   0  0  0  0  0  0  0  0  0  0  0  0
    7.9428   -0.5239    0.0000 C   0  0  0  0  0  0  0  0  0  0  0  0
    9.4217   -0.2734    0.0000 O   0  0  0  0  0  0  0  0  0  0  0  0
    7.4746    0.9011    0.0000 N   0  0  0  0  0  0  0  0  0  0  0  0
    6.6072    2.1249    0.0000 C   0  0  0  0  0  0  0  0  0  0  0  0
    5.4177    3.0387    0.0000 C   0  0  0  0  0  0  0  0  0  0  0  0
    4.0116    3.5612    0.0000 C   0  0  0  0  0  0  0  0  0  0  0  0
    2.5140    3.6461    0.0000 C   0  0  0  0  0  0  0  0  0  0  0  0
    1.0580    3.2858    0.0000 C   0  0  0  0  0  0  0  0  0  0  0  0
    8.0795    2.4122    0.0000 C   0  0  0  0  0  0  0  0  0  0  0  0
    6.9509    3.5850    0.0000 C   0  0  0  0  0  0  0  0  0  0  0  0
    6.1394    4.8465    0.0000 O   0  0  0  0  0  0  0  0  0  0  0  0
    8.3872    4.0175    0.0000 N   0  0  0  0  0  0  0  0  0  0  0  0
    8.7308    5.4776    0.0000 C   0  0  0  0  0  0  0  0  0  0  0  0
    8.5544    6.9672    0.0000 C   0  0  0  0  0  0  0  0  0  0  0  0
    9.6378    8.0046    0.0000 O   0  0  0  0  0  0  0  0  0  0  0  0
   10.1671    5.9100    0.0000 C   0  0  0  0  0  0  0  0  0  0  0  0
   10.5108    7.3701    0.0000 O   0  0  0  0  0  0  0  0  0  0  0  0
   11.2598    4.8824    0.0000 N   0  0  0  0  0  0  0  0  0  0  0  0
   12.6961    5.3148    0.0000 C   0  0  0  0  0  0  0  0  0  0  0  0
   13.8979    6.2125    0.0000 C   0  0  0  0  0  0  0  0  0  0  0  0
   13.7214    7.7020    0.0000 C   0  0  0  0  0  0  0  0  0  0  0  0
   12.3432    8.2940    0.0000 C   0  0  0  0  0  0  0  0  0  0  0  0
   12.1667    9.7836    0.0000 C   0  0  0  0  0  0  0  0  0  0  0  0
   13.3685   10.6812    0.0000 C   0  0  0  0  0  0  0  0  0  0  0  0
   13.1920   12.1708    0.0000 O   0  0  0  0  0  0  0  0  0  0  0  0
   14.7467   10.0892    0.0000 C   0  0  0  0  0  0  0  0  0  0  0  0
   14.9232    8.5997    0.0000 C   0  0  0  0  0  0  0  0  0  0  0  0
   13.7888    4.2872    0.0000 C   0  0  0  0  0  0  0  0  0  0  0  0
   15.2671    4.5413    0.0000 O   0  0  0  0  0  0  0  0  0  0  0  0
   13.4452    2.8271    0.0000 O   0  0  0  0  0  0  0  0  0  0  0  0
  -16.9783    4.4056    0.0000 H   0  0  0  0  0  0  0  0  0  0  0  0
  -15.5003    6.5423    0.0000 H   0  0  0  0  0  0  0  0  0  0  0  0
  -15.4434    3.1272    0.0000 H   0  0  0  0  0  0  0  0  0  0  0  0
  -13.5215    2.9702    0.0000 H   0  0  0  0  0  0  0  0  0  0  0  0
  -13.9004    6.0594    0.0000 H   0  0  0  0  0  0  0  0  0  0  0  0
  -11.9784    5.9024    0.0000 H   0  0  0  0  0  0  0  0  0  0  0  0
  -10.4760    5.4205    0.0000 H   0  0  0  0  0  0  0  0  0  0  0  0
  -10.2645    2.7040    0.0000 H   0  0  0  0  0  0  0  0  0  0  0  0
   -7.4071    6.0640    0.0000 H   0  0  0  0  0  0  0  0  0  0  0  0
   -7.3502    4.2804    0.0000 H   0  0  0  0  0  0  0  0  0  0  0  0
  -10.6848    7.2109    0.0000 H   0  0  0  0  0  0  0  0  0  0  0  0
  -10.2583    5.9927    0.0000 H   0  0  0  0  0  0  0  0  0  0  0  0
   -7.7705    8.7873    0.0000 H   0  0  0  0  0  0  0  0  0  0  0  0
   -7.4966    7.0240    0.0000 H   0  0  0  0  0  0  0  0  0  0  0  0
  -11.1859    8.8051    0.0000 H   0  0  0  0  0  0  0  0  0  0  0  0
   -9.3075   12.8943    0.0000 H   0  0  0  0  0  0  0  0  0  0  0  0
  -11.4272   11.3920    0.0000 H   0  0  0  0  0  0  0  0  0  0  0  0
   -6.9466   11.8098    0.0000 H   0  0  0  0  0  0  0  0  0  0  0  0
   -6.7054    9.2230    0.0000 H   0  0  0  0  0  0  0  0  0  0  0  0
  -10.4681    1.2277    0.0000 H   0  0  0  0  0  0  0  0  0  0  0  0
   -7.0468    1.0268    0.0000 H   0  0  0  0  0  0  0  0  0  0  0  0
  -10.6339   -1.6118    0.0000 H   0  0  0  0  0  0  0  0  0  0  0  0
   -8.3194   -1.6592    0.0000 H   0  0  0  0  0  0  0  0  0  0  0  0
  -11.5582    1.3955    0.0000 H   0  0  0  0  0  0  0  0  0  0  0  0
  -10.0886    1.5455    0.0000 H   0  0  0  0  0  0  0  0  0  0  0  0
  -13.1012   -1.5367    0.0000 H   0  0  0  0  0  0  0  0  0  0  0  0
  -11.3349   -1.7904    0.0000 H   0  0  0  0  0  0  0  0  0  0  0  0
  -13.1580    1.8783    0.0000 H   0  0  0  0  0  0  0  0  0  0  0  0
  -17.2255   -0.0468    0.0000 H   0  0  0  0  0  0  0  0  0  0  0  0
  -15.7475    2.0900    0.0000 H   0  0  0  0  0  0  0  0  0  0  0  0
  -16.1140   -2.3951    0.0000 H   0  0  0  0  0  0  0  0  0  0  0  0
  -13.5246   -2.6067    0.0000 H   0  0  0  0  0  0  0  0  0  0  0  0
   -8.4607   -2.6828    0.0000 H   0  0  0  0  0  0  0  0  0  0  0  0
   -5.1301   -1.8785    0.0000 H   0  0  0  0  0  0  0  0  0  0  0  0
   -7.4370   -5.6714    0.0000 H   0  0  0  0  0  0  0  0  0  0  0  0
   -5.5772   -5.1616    0.0000 H   0  0  0  0  0  0  0  0  0  0  0  0
   -3.9854   -1.2471    0.0000 H   0  0  0  0  0  0  0  0  0  0  0  0
   -3.4605   -1.9663    0.0000 H   0  0  0  0  0  0  0  0  0  0  0  0
   -3.3246   -0.6651    0.0000 H   0  0  0  0  0  0  0  0  0  0  0  0
   -3.3517   -0.0408    0.0000 H   0  0  0  0  0  0  0  0  0  0  0  0
   -2.9689    1.0341    0.0000 H   0  0  0  0  0  0  0  0  0  0  0  0
   -2.7149    1.5872    0.0000 H   0  0  0  0  0  0  0  0  0  0  0  0
   -1.8350    2.7657    0.0000 H   0  0  0  0  0  0  0  0  0  0  0  0
   -1.1836    3.6678    0.0000 H   0  0  0  0  0  0  0  0  0  0  0  0
   -4.2368   -4.2331    0.0000 H   0  0  0  0  0  0  0  0  0  0  0  0
   -3.0534   -5.5686    0.0000 H   0  0  0  0  0  0  0  0  0  0  0  0
   -1.6449   -5.1234    0.0000 H   0  0  0  0  0  0  0  0  0  0  0  0
   -0.9979   -6.5446    0.0000 H   0  0  0  0  0  0  0  0  0  0  0  0
   -0.0739   -6.8257    0.0000 H   0  0  0  0  0  0  0  0  0  0  0  0
    2.5058   -8.7038    0.0000 H   0  0  0  0  0  0  0  0  0  0  0  0
    3.0359   -7.3250    0.0000 H   0  0  0  0  0  0  0  0  0  0  0  0
   -0.9403   -9.1320    0.0000 H   0  0  0  0  0  0  0  0  0  0  0  0
   -0.5077   -7.4008    0.0000 H   0  0  0  0  0  0  0  0  0  0  0  0
    1.5750  -11.2888    0.0000 H   0  0  0  0  0  0  0  0  0  0  0  0
    2.2154   -9.6232    0.0000 H   0  0  0  0  0  0  0  0  0  0  0  0
   -1.7671  -10.5843    0.0000 H   0  0  0  0  0  0  0  0  0  0  0  0
   -0.7953  -14.9781    0.0000 H   0  0  0  0  0  0  0  0  0  0  0  0
   -2.5496  -13.0617    0.0000 H   0  0  0  0  0  0  0  0  0  0  0  0
    1.7414  -14.4171    0.0000 H   0  0  0  0  0  0  0  0  0  0  0  0
    2.5240  -11.9397    0.0000 H   0  0  0  0  0  0  0  0  0  0  0  0
    4.5504   -7.7052    0.0000 H   0  0  0  0  0  0  0  0  0  0  0  0
    5.3463   -7.1581    0.0000 H   0  0  0  0  0  0  0  0  0  0  0  0
    8.4230   -6.3121    0.0000 H   0  0  0  0  0  0  0  0  0  0  0  0
    7.6756   -5.0380    0.0000 H   0  0  0  0  0  0  0  0  0  0  0  0
    5.5254   -7.8558    0.0000 H   0  0  0  0  0  0  0  0  0  0  0  0
    8.6559   -9.9651    0.0000 H   0  0  0  0  0  0  0  0  0  0  0  0
    9.8638   -8.6516    0.0000 H   0  0  0  0  0  0  0  0  0  0  0  0
    8.9608   -7.1125    0.0000 H   0  0  0  0  0  0  0  0  0  0  0  0
    7.5098  -10.4730    0.0000 H   0  0  0  0  0  0  0  0  0  0  0  0
    5.7254  -10.4854    0.0000 H   0  0  0  0  0  0  0  0  0  0  0  0
    5.2622   -8.6135    0.0000 H   0  0  0  0  0  0  0  0  0  0  0  0
    8.8306   -4.2525    0.0000 H   0  0  0  0  0  0  0  0  0  0  0  0
    9.1126   -2.9956    0.0000 H   0  0  0  0  0  0  0  0  0  0  0  0
   10.3804   -0.3153    0.0000 H   0  0  0  0  0  0  0  0  0  0  0  0
    8.7804    0.0153    0.0000 H   0  0  0  0  0  0  0  0  0  0  0  0
    9.1698   -4.5325    0.0000 H   0  0  0  0  0  0  0  0  0  0  0  0
   11.5487   -6.0787    0.0000 H   0  0  0  0  0  0  0  0  0  0  0  0
   14.2604   -4.7953    0.0000 H   0  0  0  0  0  0  0  0  0  0  0  0
   14.5047   -1.8053    0.0000 H   0  0  0  0  0  0  0  0  0  0  0  0
   12.0375   -0.0986    0.0000 H   0  0  0  0  0  0  0  0  0  0  0  0
    8.8140    1.5764    0.0000 H   0  0  0  0  0  0  0  0  0  0  0  0
    5.3157    4.5352    0.0000 H   0  0  0  0  0  0  0  0  0  0  0  0
    6.5291    4.0460    0.0000 H   0  0  0  0  0  0  0  0  0  0  0  0
    3.6477    5.0164    0.0000 H   0  0  0  0  0  0  0  0  0  0  0  0
    4.7768    4.8514    0.0000 H   0  0  0  0  0  0  0  0  0  0  0  0
    1.5867    4.8251    0.0000 H   0  0  0  0  0  0  0  0  0  0  0  0
    3.0400    5.0508    0.0000 H   0  0  0  0  0  0  0  0  0  0  0  0
    0.4846    4.6719    0.0000 H   0  0  0  0  0  0  0  0  0  0  0  0
    8.8956    3.6708    0.0000 H   0  0  0  0  0  0  0  0  0  0  0  0
    9.5217    1.9998    0.0000 H   0  0  0  0  0  0  0  0  0  0  0  0
    8.4688    0.9636    0.0000 H   0  0  0  0  0  0  0  0  0  0  0  0
    9.5970    3.1307    0.0000 H   0  0  0  0  0  0  0  0  0  0  0  0
    7.2332    5.5625    0.0000 H   0  0  0  0  0  0  0  0  0  0  0  0
    7.8791    8.3066    0.0000 H   0  0  0  0  0  0  0  0  0  0  0  0
    7.1181    6.5347    0.0000 H   0  0  0  0  0  0  0  0  0  0  0  0
    9.5797    9.3544    0.0000 H   0  0  0  0  0  0  0  0  0  0  0  0
   10.9162    3.4223    0.0000 H   0  0  0  0  0  0  0  0  0  0  0  0
   12.0208    6.6542    0.0000 H   0  0  0  0  0  0  0  0  0  0  0  0
   15.3342    6.6449    0.0000 H   0  0  0  0  0  0  0  0  0  0  0  0
   14.7314    4.9654    0.0000 H   0  0  0  0  0  0  0  0  0  0  0  0
   11.0409    7.5496    0.0000 H   0  0  0  0  0  0  0  0  0  0  0  0
   10.7885   10.3756    0.0000 H   0  0  0  0  0  0  0  0  0  0  0  0
   14.3938   13.0684    0.0000 H   0  0  0  0  0  0  0  0  0  0  0  0
   15.9485   10.9869    0.0000 H   0  0  0  0  0  0  0  0  0  0  0  0
   16.3015    8.0077    0.0000 H   0  0  0  0  0  0  0  0  0  0  0  0
  1  2  1  0
  2  3  1  0
  3  4  1  0
  4  5  2  0
  4  6  1  0
  6  7  1  0
  7  8  1  0
  8  9  1  0
  9 10  1  0
 10 11  1  0
 11 12  1  0
 12 13  2  3
 12 14  1  0
  7 15  1  0
 15 16  2  0
 15 17  1  0
 17 18  1  0
 18 19  1  0
 19 20  1  0
 20 21  1  0
 21 22  1  0
 22 23  1  0
 23 24  2  3
 23 25  1  0
 18 26  1  0
 26 27  2  0
 26 28  1  0
 28 29  1  0
 29 30  1  0
 30 31  1  0
 31 32  2  0
 32 33  1  0
 32 34  1  0
 34 35  1  0
 34 36  2  0
 36 37  1  0
 36 38  1  0
 38 39  1  0
 38 40  2  0
 40 41  1  0
 29 42  1  0
 42 43  2  0
 42 44  1  0
 45 44  1  1
 45 46  1  0
 46 47  1  0
 47 48  1  0
 48 49  1  0
 45 50  1  0
 45 51  1  0
 51 52  2  0
 51 53  1  0
 53 54  1  0
 54 55  1  0
 55 56  1  0
 56 57  1  0
 57 58  1  0
 58 59  1  0
 59 60  2  3
 59 61  1  0
 54 62  1  0
 62 63  2  0
 62 64  1  0
 64 65  1  0
 65 66  1  0
 66 67  1  0
 67 68  1  0
 67 69  1  0
 65 70  1  0
 70 71  2  0
 70 72  1  0
 72 73  1  0
 73 74  1  0
 74 75  1  0
 75 76  2  0
 76 77  1  0
 77 78  2  0
 78 79  1  0
 79 80  2  0
 73 81  1  0
 81 82  2  0
 81 83  1  0
 83 84  1  0
 84 85  1  0
 85 86  1  0
 86 87  1  0
 87 88  1  0
 84 89  1  0
 84 90  1  1
 90 91  2  0
 90 92  1  0
 92 93  1  0
 93 94  1  0
 94 95  1  0
 93 96  1  0
 96 97  2  0
 96 98  1  0
 98 99  1  0
 99100  1  0
100101  1  0
101102  2  0
102103  1  0
103104  2  0
104105  1  0
104106  1  0
106107  2  0
 99108  1  0
108109  2  0
108110  1  0
 40 31  1  0
 80 75  1  0
107101  1  0
 49 88  2  0
  1111  1  0
  1112  1  0
  2113  1  0
  2114  1  0
  3115  1  0
  3116  1  0
  6117  1  0
  7118  1  1
  8119  1  0
  8120  1  0
  9121  1  0
  9122  1  0
 10123  1  0
 10124  1  0
 11125  1  0
 13126  1  0
 13127  1  0
 14128  1  0
 14129  1  0
 17130  1  0
 18131  1  6
 19132  1  0
 19133  1  0
 20134  1  0
 20135  1  0
 21136  1  0
 21137  1  0
 22138  1  0
 24139  1  0
 24140  1  0
 25141  1  0
 25142  1  0
 28143  1  0
 29144  1  1
 30145  1  0
 30146  1  0
 44147  1  0
 46148  1  0
 46149  1  0
 47150  1  0
 47151  1  0
 48152  1  0
 48153  1  0
 49154  1  0
 50155  1  0
 50156  1  0
 50157  1  0
 53158  1  0
 54159  1  6
 55160  1  0
 55161  1  0
 56162  1  0
 56163  1  0
 57164  1  0
 57165  1  0
 58166  1  0
 60167  1  0
 60168  1  0
 61169  1  0
 61170  1  0
 64171  1  0
 65172  1  6
 66173  1  0
 66174  1  0
 67175  1  0
 68176  1  0
 68177  1  0
 68178  1  0
 69179  1  0
 69180  1  0
 69181  1  0
 72182  1  0
 73183  1  6
 74184  1  0
 74185  1  0
 76186  1  0
 77187  1  0
 78188  1  0
 79189  1  0
 80190  1  0
 83191  1  0
 85192  1  0
 85193  1  0
 86194  1  0
 86195  1  0
 87196  1  0
 87197  1  0
 88198  1  0
 89199  1  0
 89200  1  0
 89201  1  0
 92202  1  0
 93203  1  1
 94204  1  0
 94205  1  0
 95206  1  0
 98207  1  0
 99208  1  1
100209  1  0
100210  1  0
102211  1  0
103212  1  0
105213  1  0
106214  1  0
107215  1  0
M  CHG  4  13   1  24   1  60   1 110  -1
M  END
