
     RDKit          2D

451456  0  0  0  0  0  0  0  0999 V2000
   47.4431   -6.4237    0.0000 C   0  0  0  0  0  0  0  0  0  0  0  0
   48.8924   -6.0368    0.0000 N   0  0  0  0  0  0  0  0  0  0  0  0
   49.9521   -7.0983    0.0000 C   0  0  0  0  0  0  0  0  0  0  0  0
   49.5627   -8.5469    0.0000 C   0  0  0  0  0  0  0  0  0  0  0  0
   50.6224   -9.6084    0.0000 C   0  0  0  0  0  0  0  0  0  0  0  0
   52.0716   -9.2215    0.0000 C   0  0  0  0  0  0  0  0  0  0  0  0
   52.4611   -7.7729    0.0000 C   0  0  0  0  0  0  0  0  0  0  0  0
   51.4013   -6.7113    0.0000 C   0  0  0  0  0  0  0  0  0  0  0  0
   53.9591   -7.6957    0.0000 C   0  0  0  0  0  0  0  0  0  0  0  0
   54.4955   -9.0965    0.0000 O   0  0  0  0  0  0  0  0  0  0  0  0
   53.3289  -10.0395    0.0000 C   0  0  0  0  0  0  0  0  0  0  0  0
   53.4062  -11.5375    0.0000 O   0  0  0  0  0  0  0  0  0  0  0  0
   55.4570   -7.7755    0.0000 C   0  0  0  0  0  0  0  0  0  0  0  0
   56.2750   -6.5181    0.0000 C   0  0  0  0  0  0  0  0  0  0  0  0
   57.7729   -6.5979    0.0000 C   0  0  0  0  0  0  0  0  0  0  0  0
   58.4527   -7.9350    0.0000 C   0  0  0  0  0  0  0  0  0  0  0  0
   57.6347   -9.1923    0.0000 C   0  0  0  0  0  0  0  0  0  0  0  0
   56.1368   -9.1125    0.0000 C   0  0  0  0  0  0  0  0  0  0  0  0
   59.9506   -8.0148    0.0000 O   0  0  0  0  0  0  0  0  0  0  0  0
   55.5952   -5.1811    0.0000 O   0  0  0  0  0  0  0  0  0  0  0  0
   54.0973   -5.1013    0.0000 C   0  0  0  0  0  0  0  0  0  0  0  0
   53.2793   -6.3586    0.0000 C   0  0  0  0  0  0  0  0  0  0  0  0
   52.1631   -5.6921    0.0000 C   0  0  0  0  0  0  0  0  0  0  0  0
   51.8005   -4.9789    0.0000 C   0  0  0  0  0  0  0  0  0  0  0  0
   52.2368   -4.3084    0.0000 C   0  0  0  0  0  0  0  0  0  0  0  0
   53.0357   -4.3509    0.0000 C   0  0  0  0  0  0  0  0  0  0  0  0
   51.2397   -2.3473    0.0000 O   0  0  0  0  0  0  0  0  0  0  0  0
   47.0537   -7.8723    0.0000 S   0  0  0  0  0  0  0  0  0  0  0  0
   46.3834   -5.3622    0.0000 N   0  0  0  0  0  0  0  0  0  0  0  0
   44.9342   -5.7492    0.0000 C   0  0  0  0  0  0  0  0  0  0  0  0
   43.8744   -4.6876    0.0000 C   0  0  0  0  0  0  0  0  0  0  0  0
   42.4252   -5.0746    0.0000 C   0  0  0  0  0  0  0  0  0  0  0  0
   42.0357   -6.5232    0.0000 O   0  0  0  0  0  0  0  0  0  0  0  0
   41.3654   -4.0130    0.0000 N   0  0  0  0  0  0  0  0  0  0  0  0
   39.9162   -4.4000    0.0000 C   0  0  0  0  0  0  0  0  0  0  0  0
   38.6868   -5.2593    0.0000 C   0  0  0  0  0  0  0  0  0  0  0  0
   37.1905   -5.1536    0.0000 O   0  0  0  0  0  0  0  0  0  0  0  0
   38.8565   -3.3385    0.0000 C   0  0  0  0  0  0  0  0  0  0  0  0
   39.2459   -1.8899    0.0000 O   0  0  0  0  0  0  0  0  0  0  0  0
   37.4073   -3.7255    0.0000 N   0  0  0  0  0  0  0  0  0  0  0  0
   36.3475   -2.6639    0.0000 C   0  0  0  0  0  0  0  0  0  0  0  0
   35.7147   -1.3039    0.0000 C   0  0  0  0  0  0  0  0  0  0  0  0
   36.5761   -0.0759    0.0000 C   0  0  0  0  0  0  0  0  0  0  0  0
   35.9434    1.2841    0.0000 C   0  0  0  0  0  0  0  0  0  0  0  0
   36.8048    2.5121    0.0000 O   0  0  0  0  0  0  0  0  0  0  0  0
   34.4492    1.4161    0.0000 O   0  0  0  0  0  0  0  0  0  0  0  0
   34.8983   -3.0509    0.0000 C   0  0  0  0  0  0  0  0  0  0  0  0
   34.5088   -4.4994    0.0000 O   0  0  0  0  0  0  0  0  0  0  0  0
   33.8385   -1.9893    0.0000 N   0  0  0  0  0  0  0  0  0  0  0  0
   32.3893   -2.3763    0.0000 C   0  0  0  0  0  0  0  0  0  0  0  0
   31.1598   -3.2356    0.0000 C   0  0  0  0  0  0  0  0  0  0  0  0
   29.8009   -2.6005    0.0000 C   0  0  0  0  0  0  0  0  0  0  0  0
   28.5715   -3.4598    0.0000 C   0  0  0  0  0  0  0  0  0  0  0  0
   27.4162   -3.0834    0.0000 O   0  0  0  0  0  0  0  0  0  0  0  0
   28.7009   -4.9543    0.0000 O   0  0  0  0  0  0  0  0  0  0  0  0
   31.3295   -1.3147    0.0000 C   0  0  0  0  0  0  0  0  0  0  0  0
   31.7190    0.1338    0.0000 O   0  0  0  0  0  0  0  0  0  0  0  0
   29.8803   -1.7017    0.0000 N   0  0  0  0  0  0  0  0  0  0  0  0
   28.8206   -0.6402    0.0000 C   0  0  0  0  0  0  0  0  0  0  0  0
   28.1878    0.7198    0.0000 C   0  0  0  0  0  0  0  0  0  0  0  0
   29.0492    1.9478    0.0000 C   0  0  0  0  0  0  0  0  0  0  0  0
   28.4165    3.3078    0.0000 C   0  0  0  0  0  0  0  0  0  0  0  0
   30.2787    2.8071    0.0000 C   0  0  0  0  0  0  0  0  0  0  0  0
   27.3714   -1.0272    0.0000 C   0  0  0  0  0  0  0  0  0  0  0  0
   26.9152   -2.1533    0.0000 O   0  0  0  0  0  0  0  0  0  0  0  0
   26.3116    0.0344    0.0000 N   0  0  0  0  0  0  0  0  0  0  0  0
   24.8624   -0.3526    0.0000 C   0  0  0  0  0  0  0  0  0  0  0  0
   23.6329   -1.2119    0.0000 C   0  0  0  0  0  0  0  0  0  0  0  0
   22.2067   -0.7472    0.0000 C   0  0  0  0  0  0  0  0  0  0  0  0
   23.8026    0.7090    0.0000 C   0  0  0  0  0  0  0  0  0  0  0  0
   24.1921    2.1575    0.0000 O   0  0  0  0  0  0  0  0  0  0  0  0
   22.3534    0.3220    0.0000 N   0  0  0  0  0  0  0  0  0  0  0  0
   21.2937    1.3836    0.0000 C   0  0  0  0  0  0  0  0  0  0  0  0
   20.6609    2.7436    0.0000 C   0  0  0  0  0  0  0  0  0  0  0  0
   19.8444    0.9966    0.0000 C   0  0  0  0  0  0  0  0  0  0  0  0
   19.4550   -0.4520    0.0000 O   0  0  0  0  0  0  0  0  0  0  0  0
   18.7847    2.0581    0.0000 N   0  0  0  0  0  0  0  0  0  0  0  0
   17.3355    1.6711    0.0000 C   0  0  0  0  0  0  0  0  0  0  0  0
   16.1060    0.8118    0.0000 C   0  0  0  0  0  0  0  0  0  0  0  0
   14.7471    1.4469    0.0000 C   0  0  0  0  0  0  0  0  0  0  0  0
   13.5176    0.5876    0.0000 C   0  0  0  0  0  0  0  0  0  0  0  0
   12.5270    1.0506    0.0000 O   0  0  0  0  0  0  0  0  0  0  0  0
   13.6471   -0.9068    0.0000 O   0  0  0  0  0  0  0  0  0  0  0  0
   16.2757    2.7327    0.0000 C   0  0  0  0  0  0  0  0  0  0  0  0
   16.6652    4.1813    0.0000 O   0  0  0  0  0  0  0  0  0  0  0  0
   14.8265    2.3457    0.0000 N   0  0  0  0  0  0  0  0  0  0  0  0
   13.7667    3.4073    0.0000 C   0  0  0  0  0  0  0  0  0  0  0  0
   13.1340    4.7673    0.0000 C   0  0  0  0  0  0  0  0  0  0  0  0
   12.3175    3.0203    0.0000 C   0  0  0  0  0  0  0  0  0  0  0  0
   12.0336    1.9643    0.0000 O   0  0  0  0  0  0  0  0  0  0  0  0
   11.2578    4.0819    0.0000 N   0  0  0  0  0  0  0  0  0  0  0  0
    9.8085    3.6949    0.0000 C   0  0  0  0  0  0  0  0  0  0  0  0
    9.1398    2.3522    0.0000 C   0  0  0  0  0  0  0  0  0  0  0  0
    8.1050    1.2663    0.0000 C   0  0  0  0  0  0  0  0  0  0  0  0
    6.7960    0.5337    0.0000 C   0  0  0  0  0  0  0  0  0  0  0  0
    5.3293    0.2194    0.0000 C   0  0  0  0  0  0  0  0  0  0  0  0
   10.8919    2.6574    0.0000 C   0  0  0  0  0  0  0  0  0  0  0  0
   10.0518    5.1750    0.0000 C   0  0  0  0  0  0  0  0  0  0  0  0
   11.5120    5.5185    0.0000 O   0  0  0  0  0  0  0  0  0  0  0  0
    9.8481    6.6611    0.0000 N   0  0  0  0  0  0  0  0  0  0  0  0
    9.2153    8.0211    0.0000 C   0  0  0  0  0  0  0  0  0  0  0  0
    9.8163    9.3954    0.0000 C   0  0  0  0  0  0  0  0  0  0  0  0
   11.3070    9.5621    0.0000 C   0  0  0  0  0  0  0  0  0  0  0  0
   11.9080   10.9364    0.0000 N   0  0  0  0  0  0  0  0  0  0  0  0
   12.1967    8.3544    0.0000 O   0  0  0  0  0  0  0  0  0  0  0  0
    8.2098    9.1342    0.0000 C   0  0  0  0  0  0  0  0  0  0  0  0
    9.1605   10.2943    0.0000 O   0  0  0  0  0  0  0  0  0  0  0  0
    6.9208    9.9014    0.0000 N   0  0  0  0  0  0  0  0  0  0  0  0
    5.4630   10.2546    0.0000 C   0  0  0  0  0  0  0  0  0  0  0  0
    4.7632   11.5814    0.0000 C   0  0  0  0  0  0  0  0  0  0  0  0
    5.5624   12.8508    0.0000 C   0  0  0  0  0  0  0  0  0  0  0  0
    4.8626   14.1776    0.0000 C   0  0  0  0  0  0  0  0  0  0  0  0
    6.7475   13.7703    0.0000 C   0  0  0  0  0  0  0  0  0  0  0  0
    3.9658   10.1625    0.0000 C   0  0  0  0  0  0  0  0  0  0  0  0
    3.6516   11.6292    0.0000 O   0  0  0  0  0  0  0  0  0  0  0  0
    2.5624    9.6331    0.0000 N   0  0  0  0  0  0  0  0  0  0  0  0
    1.3773    8.7136    0.0000 C   0  0  0  0  0  0  0  0  0  0  0  0
   -0.0964    8.9937    0.0000 C   0  0  0  0  0  0  0  0  0  0  0  0
   -0.5906   10.4099    0.0000 S   0  0  0  0  0  0  0  0  0  0  0  0
    0.5158    7.4856    0.0000 C   0  0  0  0  0  0  0  0  0  0  0  0
   -0.8268    8.1543    0.0000 O   0  0  0  0  0  0  0  0  0  0  0  0
    0.0547    6.0582    0.0000 N   0  0  0  0  0  0  0  0  0  0  0  0
    0.0347    4.5584    0.0000 C   0  0  0  0  0  0  0  0  0  0  0  0
    0.4577    3.1192    0.0000 C   0  0  0  0  0  0  0  0  0  0  0  0
    1.2861    1.8687    0.0000 C   0  0  0  0  0  0  0  0  0  0  0  0
    2.4463    0.9180    0.0000 C   0  0  0  0  0  0  0  0  0  0  0  0
    3.8352    0.3514    0.0000 C   0  0  0  0  0  0  0  0  0  0  0  0
   -1.3242    5.1935    0.0000 C   0  0  0  0  0  0  0  0  0  0  0  0
   -1.1031    3.5809    0.0000 C   0  0  0  0  0  0  0  0  0  0  0  0
   -1.1904    2.0835    0.0000 O   0  0  0  0  0  0  0  0  0  0  0  0
   -2.5185    4.0775    0.0000 N   0  0  0  0  0  0  0  0  0  0  0  0
   -3.6563    3.1001    0.0000 C   0  0  0  0  0  0  0  0  0  0  0  0
   -4.3912    1.7924    0.0000 C   0  0  0  0  0  0  0  0  0  0  0  0
   -5.8911    1.7750    0.0000 C   0  0  0  0  0  0  0  0  0  0  0  0
   -6.6259    0.4673    0.0000 C   0  0  0  0  0  0  0  0  0  0  0  0
   -7.3065    2.2716    0.0000 C   0  0  0  0  0  0  0  0  0  0  0  0
   -5.0717    3.5967    0.0000 C   0  0  0  0  0  0  0  0  0  0  0  0
   -5.3493    5.0708    0.0000 O   0  0  0  0  0  0  0  0  0  0  0  0
   -6.2095    2.6192    0.0000 N   0  0  0  0  0  0  0  0  0  0  0  0
   -7.6249    3.1159    0.0000 C   0  0  0  0  0  0  0  0  0  0  0  0
   -8.7851    4.0666    0.0000 C   0  0  0  0  0  0  0  0  0  0  0  0
   -8.5418    5.5468    0.0000 C   0  0  0  0  0  0  0  0  0  0  0  0
   -9.7020    6.4976    0.0000 C   0  0  0  0  0  0  0  0  0  0  0  0
   -7.8069    6.8544    0.0000 C   0  0  0  0  0  0  0  0  0  0  0  0
   -8.7627    2.1384    0.0000 C   0  0  0  0  0  0  0  0  0  0  0  0
   -8.6668    0.6415    0.0000 O   0  0  0  0  0  0  0  0  0  0  0  0
  -10.1781    2.6350    0.0000 N   0  0  0  0  0  0  0  0  0  0  0  0
  -11.3159    1.6576    0.0000 C   0  0  0  0  0  0  0  0  0  0  0  0
  -12.0508    0.3499    0.0000 C   0  0  0  0  0  0  0  0  0  0  0  0
  -13.5507    0.3325    0.0000 C   0  0  0  0  0  0  0  0  0  0  0  0
  -14.2855   -0.9752    0.0000 C   0  0  0  0  0  0  0  0  0  0  0  0
  -15.4897   -1.1373    0.0000 O   0  0  0  0  0  0  0  0  0  0  0  0
  -13.5205   -2.2654    0.0000 O   0  0  0  0  0  0  0  0  0  0  0  0
  -12.7313    2.1542    0.0000 C   0  0  0  0  0  0  0  0  0  0  0  0
  -13.0089    3.6283    0.0000 O   0  0  0  0  0  0  0  0  0  0  0  0
  -13.8691    1.1767    0.0000 N   0  0  0  0  0  0  0  0  0  0  0  0
  -15.2845    1.6734    0.0000 C   0  0  0  0  0  0  0  0  0  0  0  0
  -16.4447    2.6241    0.0000 C   0  0  0  0  0  0  0  0  0  0  0  0
  -16.2014    4.1043    0.0000 C   0  0  0  0  0  0  0  0  0  0  0  0
  -17.3616    5.0551    0.0000 N   0  0  0  0  0  0  0  0  0  0  0  0
  -14.7979    4.6336    0.0000 O   0  0  0  0  0  0  0  0  0  0  0  0
  -16.4223    0.6959    0.0000 C   0  0  0  0  0  0  0  0  0  0  0  0
  -16.3446   -0.5166    0.0000 O   0  0  0  0  0  0  0  0  0  0  0  0
  -17.8377    1.1925    0.0000 N   0  0  0  0  0  0  0  0  0  0  0  0
  -18.9755    0.2151    0.0000 C   0  0  0  0  0  0  0  0  0  0  0  0
  -19.7103   -1.0926    0.0000 C   0  0  0  0  0  0  0  0  0  0  0  0
  -20.3909    0.7117    0.0000 C   0  0  0  0  0  0  0  0  0  0  0  0
  -20.6685    2.1858    0.0000 O   0  0  0  0  0  0  0  0  0  0  0  0
  -21.5287   -0.2658    0.0000 N   0  0  0  0  0  0  0  0  0  0  0  0
  -22.9441    0.2309    0.0000 C   0  0  0  0  0  0  0  0  0  0  0  0
  -24.1043    1.1816    0.0000 C   0  0  0  0  0  0  0  0  0  0  0  0
  -23.6823    2.6211    0.0000 C   0  0  0  0  0  0  0  0  0  0  0  0
  -25.5197    1.6783    0.0000 C   0  0  0  0  0  0  0  0  0  0  0  0
  -25.7973    3.1524    0.0000 C   0  0  0  0  0  0  0  0  0  0  0  0
  -24.0819   -0.7466    0.0000 C   0  0  0  0  0  0  0  0  0  0  0  0
  -23.8042   -2.2207    0.0000 O   0  0  0  0  0  0  0  0  0  0  0  0
  -25.4973   -0.2500    0.0000 N   0  0  0  0  0  0  0  0  0  0  0  0
  -26.6351   -1.2274    0.0000 C   0  0  0  0  0  0  0  0  0  0  0  0
  -27.3699   -2.5351    0.0000 C   0  0  0  0  0  0  0  0  0  0  0  0
  -28.8698   -2.5525    0.0000 C   0  0  0  0  0  0  0  0  0  0  0  0
  -29.6047   -3.8602    0.0000 C   0  0  0  0  0  0  0  0  0  0  0  0
  -31.0913   -4.0603    0.0000 N   0  0  0  0  0  0  0  0  0  0  0  0
  -28.8396   -5.1504    0.0000 O   0  0  0  0  0  0  0  0  0  0  0  0
  -28.0505   -0.7308    0.0000 C   0  0  0  0  0  0  0  0  0  0  0  0
  -28.3281    0.7433    0.0000 O   0  0  0  0  0  0  0  0  0  0  0  0
  -29.1882   -1.7083    0.0000 N   0  0  0  0  0  0  0  0  0  0  0  0
  -30.6036   -1.2116    0.0000 C   0  0  0  0  0  0  0  0  0  0  0  0
  -31.7638   -0.2609    0.0000 C   0  0  0  0  0  0  0  0  0  0  0  0
  -31.5205    1.2193    0.0000 C   0  0  0  0  0  0  0  0  0  0  0  0
  -32.6807    2.1701    0.0000 O   0  0  0  0  0  0  0  0  0  0  0  0
  -30.1170    1.7486    0.0000 O   0  0  0  0  0  0  0  0  0  0  0  0
  -31.7414   -2.1891    0.0000 C   0  0  0  0  0  0  0  0  0  0  0  0
  -31.6716   -3.2803    0.0000 O   0  0  0  0  0  0  0  0  0  0  0  0
  -33.1568   -1.6925    0.0000 N   0  0  0  0  0  0  0  0  0  0  0  0
  -34.2946   -2.6699    0.0000 C   0  0  0  0  0  0  0  0  0  0  0  0
  -35.0295   -3.9776    0.0000 C   0  0  0  0  0  0  0  0  0  0  0  0
  -35.2728   -5.4577    0.0000 O   0  0  0  0  0  0  0  0  0  0  0  0
  -36.5161   -4.1777    0.0000 C   0  0  0  0  0  0  0  0  0  0  0  0
  -35.7100   -2.1733    0.0000 C   0  0  0  0  0  0  0  0  0  0  0  0
  -35.9876   -0.6992    0.0000 O   0  0  0  0  0  0  0  0  0  0  0  0
  -36.8478   -3.1508    0.0000 N   0  0  0  0  0  0  0  0  0  0  0  0
  -38.2632   -2.6541    0.0000 C   0  0  0  0  0  0  0  0  0  0  0  0
  -39.4234   -1.7034    0.0000 C   0  0  0  0  0  0  0  0  0  0  0  0
  -39.1801   -0.2232    0.0000 C   0  0  0  0  0  0  0  0  0  0  0  0
  -39.4010   -3.6316    0.0000 C   0  0  0  0  0  0  0  0  0  0  0  0
  -39.1234   -5.1057    0.0000 O   0  0  0  0  0  0  0  0  0  0  0  0
  -40.8164   -3.1350    0.0000 N   0  0  0  0  0  0  0  0  0  0  0  0
  -41.9542   -4.1124    0.0000 C   0  0  0  0  0  0  0  0  0  0  0  0
  -42.6891   -5.4201    0.0000 C   0  0  0  0  0  0  0  0  0  0  0  0
  -44.1890   -5.4375    0.0000 C   0  0  0  0  0  0  0  0  0  0  0  0
  -44.9238   -6.7452    0.0000 C   0  0  0  0  0  0  0  0  0  0  0  0
  -46.4237   -6.7626    0.0000 N   0  0  0  0  0  0  0  0  0  0  0  0
  -47.1586   -8.0702    0.0000 C   0  0  0  0  0  0  0  0  0  0  0  0
  -48.6494   -7.9047    0.0000 N   0  0  0  0  0  0  0  0  0  0  0  0
  -46.3936   -9.3605    0.0000 N   0  0  0  0  0  0  0  0  0  0  0  0
  -43.3696   -3.6158    0.0000 C   0  0  0  0  0  0  0  0  0  0  0  0
  -43.6472   -2.1417    0.0000 O   0  0  0  0  0  0  0  0  0  0  0  0
  -44.5074   -4.5932    0.0000 N   0  0  0  0  0  0  0  0  0  0  0  0
  -45.9228   -4.0966    0.0000 C   0  0  0  0  0  0  0  0  0  0  0  0
  -47.0830   -3.1458    0.0000 C   0  0  0  0  0  0  0  0  0  0  0  0
  -46.8397   -1.6657    0.0000 C   0  0  0  0  0  0  0  0  0  0  0  0
  -47.9999   -0.7149    0.0000 C   0  0  0  0  0  0  0  0  0  0  0  0
  -47.7566    0.7652    0.0000 O   0  0  0  0  0  0  0  0  0  0  0  0
  -49.4034   -1.2443    0.0000 O   0  0  0  0  0  0  0  0  0  0  0  0
  -47.0606   -5.0741    0.0000 C   0  0  0  0  0  0  0  0  0  0  0  0
  -47.1243   -6.1657    0.0000 O   0  0  0  0  0  0  0  0  0  0  0  0
  -48.4760   -4.5775    0.0000 N   0  0  0  0  0  0  0  0  0  0  0  0
  -49.6138   -5.5549    0.0000 C   0  0  0  0  0  0  0  0  0  0  0  0
  -50.3487   -6.8626    0.0000 C   0  0  0  0  0  0  0  0  0  0  0  0
  -51.8486   -6.8800    0.0000 C   0  0  0  0  0  0  0  0  0  0  0  0
  -52.5834   -8.1877    0.0000 C   0  0  0  0  0  0  0  0  0  0  0  0
  -54.0833   -8.2051    0.0000 N   0  0  0  0  0  0  0  0  0  0  0  0
  -51.8184   -9.4779    0.0000 O   0  0  0  0  0  0  0  0  0  0  0  0
  -51.0292   -5.0583    0.0000 C   0  0  0  0  0  0  0  0  0  0  0  0
  -52.2777   -5.8898    0.0000 O   0  0  0  0  0  0  0  0  0  0  0  0
  -51.3068   -3.5842    0.0000 O   0  0  0  0  0  0  0  0  0  0  0  0
   49.1024   -4.5515    0.0000 H   0  0  0  0  0  0  0  0  0  0  0  0
   48.1134   -8.9339    0.0000 H   0  0  0  0  0  0  0  0  0  0  0  0
   50.2329  -11.0570    0.0000 H   0  0  0  0  0  0  0  0  0  0  0  0
   51.4260   -5.3616    0.0000 H   0  0  0  0  0  0  0  0  0  0  0  0
   58.5909   -5.3406    0.0000 H   0  0  0  0  0  0  0  0  0  0  0  0
   58.3145  -10.5294    0.0000 H   0  0  0  0  0  0  0  0  0  0  0  0
   55.3188  -10.3699    0.0000 H   0  0  0  0  0  0  0  0  0  0  0  0
   60.6305   -9.3519    0.0000 H   0  0  0  0  0  0  0  0  0  0  0  0
   50.9634   -7.5361    0.0000 H   0  0  0  0  0  0  0  0  0  0  0  0
   49.6246   -4.6799    0.0000 H   0  0  0  0  0  0  0  0  0  0  0  0
   54.2355   -2.5069    0.0000 H   0  0  0  0  0  0  0  0  0  0  0  0
   52.0578   -1.0900    0.0000 H   0  0  0  0  0  0  0  0  0  0  0  0
   46.7729   -3.9136    0.0000 H   0  0  0  0  0  0  0  0  0  0  0  0
   43.7047   -6.6085    0.0000 H   0  0  0  0  0  0  0  0  0  0  0  0
   45.5669   -7.1092    0.0000 H   0  0  0  0  0  0  0  0  0  0  0  0
   43.2417   -3.3276    0.0000 H   0  0  0  0  0  0  0  0  0  0  0  0
   45.1039   -3.8283    0.0000 H   0  0  0  0  0  0  0  0  0  0  0  0
   41.7549   -2.5645    0.0000 H   0  0  0  0  0  0  0  0  0  0  0  0
   40.5490   -5.7600    0.0000 H   0  0  0  0  0  0  0  0  0  0  0  0
   37.8253   -6.4873    0.0000 H   0  0  0  0  0  0  0  0  0  0  0  0
   39.7465   -6.3209    0.0000 H   0  0  0  0  0  0  0  0  0  0  0  0
   36.0984   -5.4836    0.0000 H   0  0  0  0  0  0  0  0  0  0  0  0
   36.8441   -5.1157    0.0000 H   0  0  0  0  0  0  0  0  0  0  0  0
   37.6725   -1.9608    0.0000 H   0  0  0  0  0  0  0  0  0  0  0  0
   34.7923   -0.1211    0.0000 H   0  0  0  0  0  0  0  0  0  0  0  0
   34.3139   -1.8402    0.0000 H   0  0  0  0  0  0  0  0  0  0  0  0
   37.8056    0.7834    0.0000 H   0  0  0  0  0  0  0  0  0  0  0  0
   37.7574   -1.0004    0.0000 H   0  0  0  0  0  0  0  0  0  0  0  0
   34.0485   -0.5041    0.0000 H   0  0  0  0  0  0  0  0  0  0  0  0
   33.0221   -3.7363    0.0000 H   0  0  0  0  0  0  0  0  0  0  0  0
   30.2984   -4.4636    0.0000 H   0  0  0  0  0  0  0  0  0  0  0  0
   32.2196   -4.2972    0.0000 H   0  0  0  0  0  0  0  0  0  0  0  0
   28.7412   -1.5390    0.0000 H   0  0  0  0  0  0  0  0  0  0  0  0
   29.9848   -1.1119    0.0000 H   0  0  0  0  0  0  0  0  0  0  0  0
   29.1519   -3.0130    0.0000 H   0  0  0  0  0  0  0  0  0  0  0  0
   30.1456    0.0629    0.0000 H   0  0  0  0  0  0  0  0  0  0  0  0
   27.1281    1.7814    0.0000 H   0  0  0  0  0  0  0  0  0  0  0  0
   26.7870    0.1836    0.0000 H   0  0  0  0  0  0  0  0  0  0  0  0
   30.2305    1.0234    0.0000 H   0  0  0  0  0  0  0  0  0  0  0  0
   29.1218    4.6317    0.0000 H   0  0  0  0  0  0  0  0  0  0  0  0
   27.3567    4.3694    0.0000 H   0  0  0  0  0  0  0  0  0  0  0  0
   27.0914    2.6048    0.0000 H   0  0  0  0  0  0  0  0  0  0  0  0
   30.3324    4.3062    0.0000 H   0  0  0  0  0  0  0  0  0  0  0  0
   31.7279    3.1941    0.0000 H   0  0  0  0  0  0  0  0  0  0  0  0
   30.9115    1.4471    0.0000 H   0  0  0  0  0  0  0  0  0  0  0  0
   26.5216    1.5196    0.0000 H   0  0  0  0  0  0  0  0  0  0  0  0
   25.4951   -1.7126    0.0000 H   0  0  0  0  0  0  0  0  0  0  0  0
   22.7715   -2.4399    0.0000 H   0  0  0  0  0  0  0  0  0  0  0  0
   24.6927   -2.2735    0.0000 H   0  0  0  0  0  0  0  0  0  0  0  0
   21.0445   -1.4361    0.0000 H   0  0  0  0  0  0  0  0  0  0  0  0
   21.2142    0.4848    0.0000 H   0  0  0  0  0  0  0  0  0  0  0  0
   22.4579    0.9119    0.0000 H   0  0  0  0  0  0  0  0  0  0  0  0
   21.7903   -1.0683    0.0000 H   0  0  0  0  0  0  0  0  0  0  0  0
   22.5231    2.2429    0.0000 H   0  0  0  0  0  0  0  0  0  0  0  0
   21.5223    3.9716    0.0000 H   0  0  0  0  0  0  0  0  0  0  0  0
   19.7384    3.9264    0.0000 H   0  0  0  0  0  0  0  0  0  0  0  0
   19.2600    2.2073    0.0000 H   0  0  0  0  0  0  0  0  0  0  0  0
   18.9947    3.5434    0.0000 H   0  0  0  0  0  0  0  0  0  0  0  0
   17.9682    0.3111    0.0000 H   0  0  0  0  0  0  0  0  0  0  0  0
   15.2446   -0.4162    0.0000 H   0  0  0  0  0  0  0  0  0  0  0  0
   17.1658   -0.2497    0.0000 H   0  0  0  0  0  0  0  0  0  0  0  0
   13.6873    2.5085    0.0000 H   0  0  0  0  0  0  0  0  0  0  0  0
   14.9310    2.9356    0.0000 H   0  0  0  0  0  0  0  0  0  0  0  0
   14.0981    1.0344    0.0000 H   0  0  0  0  0  0  0  0  0  0  0  0
   14.9962    4.2666    0.0000 H   0  0  0  0  0  0  0  0  0  0  0  0
   13.9954    5.9953    0.0000 H   0  0  0  0  0  0  0  0  0  0  0  0
   12.3626    6.0537    0.0000 H   0  0  0  0  0  0  0  0  0  0  0  0
   11.8089    4.0642    0.0000 H   0  0  0  0  0  0  0  0  0  0  0  0
   11.6472    5.5304    0.0000 H   0  0  0  0  0  0  0  0  0  0  0  0
   10.6205    2.1125    0.0000 H   0  0  0  0  0  0  0  0  0  0  0  0
    9.7040    0.9623    0.0000 H   0  0  0  0  0  0  0  0  0  0  0  0
    9.3581    0.4419    0.0000 H   0  0  0  0  0  0  0  0  0  0  0  0
    8.4156   -0.2012    0.0000 H   0  0  0  0  0  0  0  0  0  0  0  0
    7.8845   -0.4985    0.0000 H   0  0  0  0  0  0  0  0  0  0  0  0
    6.4793   -0.9325    0.0000 H   0  0  0  0  0  0  0  0  0  0  0  0
    5.4215   -1.2778    0.0000 H   0  0  0  0  0  0  0  0  0  0  0  0
   10.6148    1.0146    0.0000 H   0  0  0  0  0  0  0  0  0  0  0  0
   12.0463    1.7658    0.0000 H   0  0  0  0  0  0  0  0  0  0  0  0
   12.0433    3.2991    0.0000 H   0  0  0  0  0  0  0  0  0  0  0  0
   11.2872    7.0841    0.0000 H   0  0  0  0  0  0  0  0  0  0  0  0
   10.7152    8.0385    0.0000 H   0  0  0  0  0  0  0  0  0  0  0  0
    9.9110   10.8924    0.0000 H   0  0  0  0  0  0  0  0  0  0  0  0
    8.4873   10.0909    0.0000 H   0  0  0  0  0  0  0  0  0  0  0  0
   13.3987   11.1031    0.0000 H   0  0  0  0  0  0  0  0  0  0  0  0
   11.0183   12.1441    0.0000 H   0  0  0  0  0  0  0  0  0  0  0  0
    7.4874   11.2903    0.0000 H   0  0  0  0  0  0  0  0  0  0  0  0
    6.5220   11.3170    0.0000 H   0  0  0  0  0  0  0  0  0  0  0  0
    3.5374   12.4458    0.0000 H   0  0  0  0  0  0  0  0  0  0  0  0
    3.3909   10.9760    0.0000 H   0  0  0  0  0  0  0  0  0  0  0  0
    6.7882   11.9864    0.0000 H   0  0  0  0  0  0  0  0  0  0  0  0
    5.5010   15.5349    0.0000 H   0  0  0  0  0  0  0  0  0  0  0  0
    3.7513   15.1850    0.0000 H   0  0  0  0  0  0  0  0  0  0  0  0
    3.5743   13.4094    0.0000 H   0  0  0  0  0  0  0  0  0  0  0  0
    6.7264   15.2702    0.0000 H   0  0  0  0  0  0  0  0  0  0  0  0
    8.1756   14.2291    0.0000 H   0  0  0  0  0  0  0  0  0  0  0  0
    7.4472   12.4436    0.0000 H   0  0  0  0  0  0  0  0  0  0  0  0
    1.8297   10.9420    0.0000 H   0  0  0  0  0  0  0  0  0  0  0  0
    1.0265   10.1720    0.0000 H   0  0  0  0  0  0  0  0  0  0  0  0
   -1.5769    8.7529    0.0000 H   0  0  0  0  0  0  0  0  0  0  0  0
   -0.4787    7.5432    0.0000 H   0  0  0  0  0  0  0  0  0  0  0  0
   -2.0642   10.6901    0.0000 H   0  0  0  0  0  0  0  0  0  0  0  0
   -1.4255    6.3015    0.0000 H   0  0  0  0  0  0  0  0  0  0  0  0
   -0.3414    1.8498    0.0000 H   0  0  0  0  0  0  0  0  0  0  0  0
   -1.0338    2.9599    0.0000 H   0  0  0  0  0  0  0  0  0  0  0  0
    0.7229    0.4785    0.0000 H   0  0  0  0  0  0  0  0  0  0  0  0
   -0.0922    1.2769    0.0000 H   0  0  0  0  0  0  0  0  0  0  0  0
    2.5011   -0.5810    0.0000 H   0  0  0  0  0  0  0  0  0  0  0  0
    1.1937    0.0927    0.0000 H   0  0  0  0  0  0  0  0  0  0  0  0
    3.4819   -1.1064    0.0000 H   0  0  0  0  0  0  0  0  0  0  0  0
   -2.7251    4.6572    0.0000 H   0  0  0  0  0  0  0  0  0  0  0  0
   -2.2467    6.3763    0.0000 H   0  0  0  0  0  0  0  0  0  0  0  0
   -0.7856    6.5934    0.0000 H   0  0  0  0  0  0  0  0  0  0  0  0
   -2.9737    5.5068    0.0000 H   0  0  0  0  0  0  0  0  0  0  0  0
   -2.4961    2.1493    0.0000 H   0  0  0  0  0  0  0  0  0  0  0  0
   -4.4522    0.2937    0.0000 H   0  0  0  0  0  0  0  0  0  0  0  0
   -2.9758    1.2958    0.0000 H   0  0  0  0  0  0  0  0  0  0  0  0
   -6.3713    3.1961    0.0000 H   0  0  0  0  0  0  0  0  0  0  0  0
   -8.0770    0.0875    0.0000 H   0  0  0  0  0  0  0  0  0  0  0  0
   -6.8692   -1.0128    0.0000 H   0  0  0  0  0  0  0  0  0  0  0  0
   -5.2816   -0.1981    0.0000 H   0  0  0  0  0  0  0  0  0  0  0  0
   -7.9325    3.6347    0.0000 H   0  0  0  0  0  0  0  0  0  0  0  0
   -8.7005    1.7177    0.0000 H   0  0  0  0  0  0  0  0  0  0  0  0
   -7.7284    0.8322    0.0000 H   0  0  0  0  0  0  0  0  0  0  0  0
   -6.2968    1.1218    0.0000 H   0  0  0  0  0  0  0  0  0  0  0  0
   -6.7361    4.3242    0.0000 H   0  0  0  0  0  0  0  0  0  0  0  0
  -10.2005    4.5633    0.0000 H   0  0  0  0  0  0  0  0  0  0  0  0
   -9.9398    3.1093    0.0000 H   0  0  0  0  0  0  0  0  0  0  0  0
   -7.0764    5.2264    0.0000 H   0  0  0  0  0  0  0  0  0  0  0  0
   -9.6409    7.9963    0.0000 H   0  0  0  0  0  0  0  0  0  0  0  0
  -11.1174    6.9942    0.0000 H   0  0  0  0  0  0  0  0  0  0  0  0
  -10.5908    5.2892    0.0000 H   0  0  0  0  0  0  0  0  0  0  0  0
   -8.4090    8.2283    0.0000 H   0  0  0  0  0  0  0  0  0  0  0  0
   -6.6691    7.8319    0.0000 H   0  0  0  0  0  0  0  0  0  0  0  0
   -6.6467    5.9037    0.0000 H   0  0  0  0  0  0  0  0  0  0  0  0
  -10.6333    4.0643    0.0000 H   0  0  0  0  0  0  0  0  0  0  0  0
  -10.1557    0.7068    0.0000 H   0  0  0  0  0  0  0  0  0  0  0  0
  -12.2941   -1.1302    0.0000 H   0  0  0  0  0  0  0  0  0  0  0  0
  -10.6353   -0.1467    0.0000 H   0  0  0  0  0  0  0  0  0  0  0  0
  -14.9661    0.8291    0.0000 H   0  0  0  0  0  0  0  0  0  0  0  0
  -14.0309    1.7536    0.0000 H   0  0  0  0  0  0  0  0  0  0  0  0
  -13.9564   -0.3207    0.0000 H   0  0  0  0  0  0  0  0  0  0  0  0
  -14.5496    2.9810    0.0000 H   0  0  0  0  0  0  0  0  0  0  0  0
  -17.7890    3.2896    0.0000 H   0  0  0  0  0  0  0  0  0  0  0  0
  -17.4741    1.5332    0.0000 H   0  0  0  0  0  0  0  0  0  0  0  0
  -17.1183    6.5352    0.0000 H   0  0  0  0  0  0  0  0  0  0  0  0
  -18.7650    4.5257    0.0000 H   0  0  0  0  0  0  0  0  0  0  0  0
  -18.2929    2.6218    0.0000 H   0  0  0  0  0  0  0  0  0  0  0  0
  -17.8153   -0.7357    0.0000 H   0  0  0  0  0  0  0  0  0  0  0  0
  -21.1043   -1.6465    0.0000 H   0  0  0  0  0  0  0  0  0  0  0  0
  -19.9536   -2.5727    0.0000 H   0  0  0  0  0  0  0  0  0  0  0  0
  -18.2949   -1.5892    0.0000 H   0  0  0  0  0  0  0  0  0  0  0  0
  -21.4328   -1.7627    0.0000 H   0  0  0  0  0  0  0  0  0  0  0  0
  -22.0553    1.4392    0.0000 H   0  0  0  0  0  0  0  0  0  0  0  0
  -25.1337    0.0907    0.0000 H   0  0  0  0  0  0  0  0  0  0  0  0
  -24.8903    3.7684    0.0000 H   0  0  0  0  0  0  0  0  0  0  0  0
  -23.1261    3.9694    0.0000 H   0  0  0  0  0  0  0  0  0  0  0  0
  -22.3956    2.3414    0.0000 H   0  0  0  0  0  0  0  0  0  0  0  0
  -27.0196    1.6609    0.0000 H   0  0  0  0  0  0  0  0  0  0  0  0
  -26.1139    0.3010    0.0000 H   0  0  0  0  0  0  0  0  0  0  0  0
  -27.2127    3.6490    0.0000 H   0  0  0  0  0  0  0  0  0  0  0  0
  -25.5540    4.6325    0.0000 H   0  0  0  0  0  0  0  0  0  0  0  0
  -24.3462    3.5322    0.0000 H   0  0  0  0  0  0  0  0  0  0  0  0
  -26.1233    1.1131    0.0000 H   0  0  0  0  0  0  0  0  0  0  0  0
  -25.4749   -2.1782    0.0000 H   0  0  0  0  0  0  0  0  0  0  0  0
  -27.6132   -4.0152    0.0000 H   0  0  0  0  0  0  0  0  0  0  0  0
  -25.9545   -3.0317    0.0000 H   0  0  0  0  0  0  0  0  0  0  0  0
  -30.2852   -2.0559    0.0000 H   0  0  0  0  0  0  0  0  0  0  0  0
  -29.3500   -1.1314    0.0000 H   0  0  0  0  0  0  0  0  0  0  0  0
  -31.8394   -5.1852    0.0000 H   0  0  0  0  0  0  0  0  0  0  0  0
  -32.2029   -2.8194    0.0000 H   0  0  0  0  0  0  0  0  0  0  0  0
  -29.2756   -3.2057    0.0000 H   0  0  0  0  0  0  0  0  0  0  0  0
  -29.8688    0.0960    0.0000 H   0  0  0  0  0  0  0  0  0  0  0  0
  -33.1081    0.4046    0.0000 H   0  0  0  0  0  0  0  0  0  0  0  0
  -32.7933   -1.3518    0.0000 H   0  0  0  0  0  0  0  0  0  0  0  0
  -33.6121   -0.2632    0.0000 H   0  0  0  0  0  0  0  0  0  0  0  0
  -33.1344   -3.6207    0.0000 H   0  0  0  0  0  0  0  0  0  0  0  0
  -33.6141   -4.4742    0.0000 H   0  0  0  0  0  0  0  0  0  0  0  0
  -36.6013   -6.1542    0.0000 H   0  0  0  0  0  0  0  0  0  0  0  0
  -37.4182   -5.2033    0.0000 H   0  0  0  0  0  0  0  0  0  0  0  0
  -37.9448   -3.4984    0.0000 H   0  0  0  0  0  0  0  0  0  0  0  0
  -37.0096   -2.5739    0.0000 H   0  0  0  0  0  0  0  0  0  0  0  0
  -36.7520   -4.6477    0.0000 H   0  0  0  0  0  0  0  0  0  0  0  0
  -37.3744   -1.4458    0.0000 H   0  0  0  0  0  0  0  0  0  0  0  0
  -40.7677   -1.0379    0.0000 H   0  0  0  0  0  0  0  0  0  0  0  0
  -40.4529   -2.7943    0.0000 H   0  0  0  0  0  0  0  0  0  0  0  0
  -40.3403    0.7276    0.0000 H   0  0  0  0  0  0  0  0  0  0  0  0
  -38.4453    1.0844    0.0000 H   0  0  0  0  0  0  0  0  0  0  0  0
  -37.7147   -0.5436    0.0000 H   0  0  0  0  0  0  0  0  0  0  0  0
  -41.2716   -1.7057    0.0000 H   0  0  0  0  0  0  0  0  0  0  0  0
  -40.7940   -5.0632    0.0000 H   0  0  0  0  0  0  0  0  0  0  0  0
  -42.7501   -6.9188    0.0000 H   0  0  0  0  0  0  0  0  0  0  0  0
  -41.2737   -5.9167    0.0000 H   0  0  0  0  0  0  0  0  0  0  0  0
  -45.6044   -4.9409    0.0000 H   0  0  0  0  0  0  0  0  0  0  0  0
  -44.6692   -4.0164    0.0000 H   0  0  0  0  0  0  0  0  0  0  0  0
  -45.1671   -8.2253    0.0000 H   0  0  0  0  0  0  0  0  0  0  0  0
  -43.5795   -7.4106    0.0000 H   0  0  0  0  0  0  0  0  0  0  0  0
  -47.4782   -5.6958    0.0000 H   0  0  0  0  0  0  0  0  0  0  0  0
  -49.3934   -9.3953    0.0000 H   0  0  0  0  0  0  0  0  0  0  0  0
  -49.2828   -6.7113    0.0000 H   0  0  0  0  0  0  0  0  0  0  0  0
  -47.1284  -10.6681    0.0000 H   0  0  0  0  0  0  0  0  0  0  0  0
  -44.8937   -9.3431    0.0000 H   0  0  0  0  0  0  0  0  0  0  0  0
  -44.5947   -6.0907    0.0000 H   0  0  0  0  0  0  0  0  0  0  0  0
  -45.0340   -2.8883    0.0000 H   0  0  0  0  0  0  0  0  0  0  0  0
  -48.4273   -2.4804    0.0000 H   0  0  0  0  0  0  0  0  0  0  0  0
  -48.1124   -4.2368    0.0000 H   0  0  0  0  0  0  0  0  0  0  0  0
  -46.1048   -0.3581    0.0000 H   0  0  0  0  0  0  0  0  0  0  0  0
  -45.3743   -1.9861    0.0000 H   0  0  0  0  0  0  0  0  0  0  0  0
  -48.9312   -3.1482    0.0000 H   0  0  0  0  0  0  0  0  0  0  0  0
  -48.4536   -6.5057    0.0000 H   0  0  0  0  0  0  0  0  0  0  0  0
  -50.5920   -8.3427    0.0000 H   0  0  0  0  0  0  0  0  0  0  0  0
  -48.8552   -7.0020    0.0000 H   0  0  0  0  0  0  0  0  0  0  0  0
  -53.2640   -6.3834    0.0000 H   0  0  0  0  0  0  0  0  0  0  0  0
  -52.1520   -5.4110    0.0000 H   0  0  0  0  0  0  0  0  0  0  0  0
  -54.8182   -9.5127    0.0000 H   0  0  0  0  0  0  0  0  0  0  0  0
  -54.8484   -6.9148    0.0000 H   0  0  0  0  0  0  0  0  0  0  0  0
  1  2  1  0
  2  3  1  0
  3  4  2  0
  4  5  1  0
  5  6  2  0
  6  7  1  0
  7  8  2  0
  7  9  1  0
  9 10  1  0
 10 11  1  0
 11 12  2  0
  9 13  1  0
 13 14  1  0
 14 15  2  0
 15 16  1  0
 16 17  2  0
 17 18  1  0
 16 19  1  0
 14 20  1  0
 20 21  1  0
 21 22  2  0
 22 23  1  0
 23 24  2  0
 24 25  1  0
 25 26  2  0
 25 27  1  0
  1 28  2  0
  1 29  1  0
 29 30  1  0
 30 31  1  0
 31 32  1  0
 32 33  2  0
 32 34  1  0
 34 35  1  0
 35 36  1  0
 36 37  1  0
 35 38  1  0
 38 39  2  0
 38 40  1  0
 40 41  1  0
 41 42  1  0
 42 43  1  0
 43 44  1  0
 44 45  2  0
 44 46  1  0
 41 47  1  0
 47 48  2  0
 47 49  1  0
 49 50  1  0
 50 51  1  0
 51 52  1  0
 52 53  1  0
 53 54  2  0
 53 55  1  0
 50 56  1  0
 56 57  2  0
 56 58  1  0
 58 59  1  0
 59 60  1  0
 60 61  1  0
 61 62  1  0
 61 63  1  0
 59 64  1  0
 64 65  2  0
 64 66  1  0
 66 67  1  0
 67 68  1  0
 68 69  1  0
 67 70  1  0
 70 71  2  0
 70 72  1  0
 72 73  1  0
 73 74  1  0
 73 75  1  0
 75 76  2  0
 75 77  1  0
 77 78  1  0
 78 79  1  0
 79 80  1  0
 80 81  1  0
 81 82  2  0
 81 83  1  0
 78 84  1  0
 84 85  2  0
 84 86  1  0
 86 87  1  0
 87 88  1  0
 87 89  1  0
 89 90  2  0
 89 91  1  0
 92 91  1  1
 92 93  1  0
 93 94  1  0
 94 95  1  0
 95 96  1  0
 92 97  1  0
 92 98  1  0
 98 99  2  0
 98100  1  0
100101  1  0
101102  1  0
102103  1  0
103104  1  0
103105  2  0
101106  1  0
106107  2  0
106108  1  0
108109  1  0
109110  1  0
110111  1  0
111112  1  0
111113  1  0
109114  1  0
114115  2  0
114116  1  0
116117  1  0
117118  1  0
118119  1  0
117120  1  0
120121  2  0
120122  1  0
122123  1  0
123124  1  0
124125  1  0
125126  1  0
126127  1  0
123128  1  0
123129  1  1
129130  2  0
129131  1  0
131132  1  0
132133  1  0
133134  1  0
134135  1  0
134136  1  0
132137  1  0
137138  2  0
137139  1  0
139140  1  0
140141  1  0
141142  1  0
142143  1  0
142144  1  0
140145  1  0
145146  2  0
145147  1  0
147148  1  0
148149  1  0
149150  1  0
150151  1  0
151152  2  0
151153  1  0
148154  1  0
154155  2  0
154156  1  0
156157  1  0
157158  1  0
158159  1  0
159160  1  0
159161  2  0
157162  1  0
162163  2  0
162164  1  0
164165  1  0
165166  1  0
165167  1  0
167168  2  0
167169  1  0
169170  1  0
170171  1  0
171172  1  0
171173  1  0
173174  1  0
170175  1  0
175176  2  0
175177  1  0
177178  1  0
178179  1  0
179180  1  0
180181  1  0
181182  1  0
181183  2  0
178184  1  0
184185  2  0
184186  1  0
186187  1  0
187188  1  0
188189  1  0
189190  2  0
189191  1  0
187192  1  0
192193  2  0
192194  1  0
194195  1  0
195196  1  0
196197  1  0
196198  1  0
195199  1  0
199200  2  0
199201  1  0
201202  1  0
202203  1  0
203204  1  0
202205  1  0
205206  2  0
205207  1  0
207208  1  0
208209  1  0
209210  1  0
210211  1  0
211212  1  0
212213  1  0
213214  2  3
213215  1  0
208216  1  0
216217  2  0
216218  1  0
218219  1  0
219220  1  0
220221  1  0
221222  1  0
222223  2  0
222224  1  0
219225  1  0
225226  2  0
225227  1  0
227228  1  0
228229  1  0
229230  1  0
230231  1  0
231232  1  0
231233  2  0
228234  1  0
234235  2  0
234236  1  0
  8  3  1  0
 11  6  1  0
 18 13  2  0
 96127  2  0
 22  9  1  0
 26 21  1  0
  2237  1  0
  4238  1  0
  5239  1  0
  8240  1  0
 15241  1  0
 17242  1  0
 18243  1  0
 19244  1  0
 23245  1  0
 24246  1  0
 26247  1  0
 27248  1  0
 29249  1  0
 30250  1  0
 30251  1  0
 31252  1  0
 31253  1  0
 34254  1  0
 35255  1  1
 36256  1  0
 36257  1  0
 37258  1  0
 40259  1  0
 41260  1  6
 42261  1  0
 42262  1  0
 43263  1  0
 43264  1  0
 49265  1  0
 50266  1  1
 51267  1  0
 51268  1  0
 52269  1  0
 52270  1  0
 58271  1  0
 59272  1  6
 60273  1  0
 60274  1  0
 61275  1  0
 62276  1  0
 62277  1  0
 62278  1  0
 63279  1  0
 63280  1  0
 63281  1  0
 66282  1  0
 67283  1  1
 68284  1  0
 68285  1  0
 69286  1  0
 69287  1  0
 69288  1  0
 72289  1  0
 73290  1  6
 74291  1  0
 74292  1  0
 74293  1  0
 77294  1  0
 78295  1  1
 79296  1  0
 79297  1  0
 80298  1  0
 80299  1  0
 86300  1  0
 87301  1  6
 88302  1  0
 88303  1  0
 88304  1  0
 91305  1  0
 93306  1  0
 93307  1  0
 94308  1  0
 94309  1  0
 95310  1  0
 95311  1  0
 96312  1  0
 97313  1  0
 97314  1  0
 97315  1  0
100316  1  0
101317  1  6
102318  1  0
102319  1  0
104320  1  0
104321  1  0
108322  1  0
109323  1  6
110324  1  0
110325  1  0
111326  1  0
112327  1  0
112328  1  0
112329  1  0
113330  1  0
113331  1  0
113332  1  0
116333  1  0
117334  1  6
118335  1  0
118336  1  0
119337  1  0
122338  1  0
124339  1  0
124340  1  0
125341  1  0
125342  1  0
126343  1  0
126344  1  0
127345  1  0
128346  1  0
128347  1  0
128348  1  0
131349  1  0
132350  1  1
133351  1  0
133352  1  0
134353  1  0
135354  1  0
135355  1  0
135356  1  0
136357  1  0
136358  1  0
136359  1  0
139360  1  0
140361  1  6
141362  1  0
141363  1  0
142364  1  0
143365  1  0
143366  1  0
143367  1  0
144368  1  0
144369  1  0
144370  1  0
147371  1  0
148372  1  1
149373  1  0
149374  1  0
150375  1  0
150376  1  0
156377  1  0
157378  1  6
158379  1  0
158380  1  0
160381  1  0
160382  1  0
164383  1  0
165384  1  1
166385  1  0
166386  1  0
166387  1  0
169388  1  0
170389  1  6
171390  1  1
172391  1  0
172392  1  0
172393  1  0
173394  1  0
173395  1  0
174396  1  0
174397  1  0
174398  1  0
177399  1  0
178400  1  1
179401  1  0
179402  1  0
180403  1  0
180404  1  0
182405  1  0
182406  1  0
186407  1  0
187408  1  6
188409  1  0
188410  1  0
194411  1  0
195412  1  1
196413  1  1
197414  1  0
198415  1  0
198416  1  0
198417  1  0
201418  1  0
202419  1  6
203420  1  0
203421  1  0
204422  1  0
204423  1  0
204424  1  0
207425  1  0
208426  1  1
209427  1  0
209428  1  0
210429  1  0
210430  1  0
211431  1  0
211432  1  0
212433  1  0
214434  1  0
214435  1  0
215436  1  0
215437  1  0
218438  1  0
219439  1  6
220440  1  0
220441  1  0
221442  1  0
221443  1  0
227444  1  0
228445  1  1
229446  1  0
229447  1  0
230448  1  0
230449  1  0
232450  1  0
232451  1  0
M  CHG  8  46  -1  55  -1  83  -1 153  -1 191  -1 214   1 224  -1 236  -1
M  END
