
     RDKit          2D

 42 46  0  0  0  0  0  0  0  0999 V2000
   -5.3995   -0.6430    0.0000 C   0  0  0  0  0  0  0  0  0  0  0  0
   -4.0732    0.0578    0.0000 N   0  0  0  0  0  0  0  0  0  0  0  0
   -2.8032   -0.7404    0.0000 C   0  0  0  0  0  0  0  0  0  0  0  0
   -2.8595   -2.2394    0.0000 C   0  0  0  0  0  0  0  0  0  0  0  0
   -1.5895   -3.0376    0.0000 C   0  0  0  0  0  0  0  0  0  0  0  0
   -0.2633   -2.3368    0.0000 C   0  0  0  0  0  0  0  0  0  0  0  0
   -0.2070   -0.8379    0.0000 C   0  0  0  0  0  0  0  0  0  0  0  0
   -1.4770   -0.0397    0.0000 C   0  0  0  0  0  0  0  0  0  0  0  0
    1.2360   -0.4282    0.0000 C   0  0  0  0  0  0  0  0  0  0  0  0
    2.0715   -1.6740    0.0000 O   0  0  0  0  0  0  0  0  0  0  0  0
    1.1449   -2.8536    0.0000 C   0  0  0  0  0  0  0  0  0  0  0  0
    1.5546   -4.2965    0.0000 O   0  0  0  0  0  0  0  0  0  0  0  0
    2.7139   -0.1716    0.0000 C   0  0  0  0  0  0  0  0  0  0  0  0
    3.2306    1.2366    0.0000 C   0  0  0  0  0  0  0  0  0  0  0  0
    4.7085    1.4932    0.0000 C   0  0  0  0  0  0  0  0  0  0  0  0
    5.6697    0.3416    0.0000 C   0  0  0  0  0  0  0  0  0  0  0  0
    5.1529   -1.0666    0.0000 C   0  0  0  0  0  0  0  0  0  0  0  0
    3.6750   -1.3232    0.0000 C   0  0  0  0  0  0  0  0  0  0  0  0
    7.1475    0.5982    0.0000 O   0  0  0  0  0  0  0  0  0  0  0  0
    2.2694    2.3882    0.0000 O   0  0  0  0  0  0  0  0  0  0  0  0
    0.7915    2.1316    0.0000 C   0  0  0  0  0  0  0  0  0  0  0  0
    0.2748    0.7234    0.0000 C   0  0  0  0  0  0  0  0  0  0  0  0
   -0.9619    1.1239    0.0000 C   0  0  0  0  0  0  0  0  0  0  0  0
   -1.4746    1.7381    0.0000 C   0  0  0  0  0  0  0  0  0  0  0  0
   -1.1990    2.4891    0.0000 C   0  0  0  0  0  0  0  0  0  0  0  0
   -0.4108    2.6260    0.0000 C   0  0  0  0  0  0  0  0  0  0  0  0
   -2.6087    4.1781    0.0000 O   0  0  0  0  0  0  0  0  0  0  0  0
   -5.4557   -2.1419    0.0000 S   0  0  0  0  0  0  0  0  0  0  0  0
   -6.6695    0.1553    0.0000 O   0  0  0  0  0  0  0  0  0  0  0  0
   -4.2001    1.5524    0.0000 H   0  0  0  0  0  0  0  0  0  0  0  0
   -4.1858   -2.9401    0.0000 H   0  0  0  0  0  0  0  0  0  0  0  0
   -1.6458   -4.5365    0.0000 H   0  0  0  0  0  0  0  0  0  0  0  0
   -1.6407    0.7405    0.0000 H   0  0  0  0  0  0  0  0  0  0  0  0
    5.2252    2.9014    0.0000 H   0  0  0  0  0  0  0  0  0  0  0  0
    6.1141   -2.2182    0.0000 H   0  0  0  0  0  0  0  0  0  0  0  0
    3.1583   -2.7314    0.0000 H   0  0  0  0  0  0  0  0  0  0  0  0
    8.1087   -0.5534    0.0000 H   0  0  0  0  0  0  0  0  0  0  0  0
   -1.7198   -0.9414    0.0000 H   0  0  0  0  0  0  0  0  0  0  0  0
   -3.6624    1.5438    0.0000 H   0  0  0  0  0  0  0  0  0  0  0  0
    0.3471    4.6913    0.0000 H   0  0  0  0  0  0  0  0  0  0  0  0
   -2.0920    5.5863    0.0000 H   0  0  0  0  0  0  0  0  0  0  0  0
   -7.9957   -0.5455    0.0000 H   0  0  0  0  0  0  0  0  0  0  0  0
  1  2  1  0
  2  3  1  0
  3  4  2  0
  4  5  1  0
  5  6  2  0
  6  7  1  0
  7  8  2  0
  7  9  1  0
  9 10  1  0
 10 11  1  0
 11 12  2  0
  9 13  1  0
 13 14  1  0
 14 15  2  0
 15 16  1  0
 16 17  2  0
 17 18  1  0
 16 19  1  0
 14 20  1  0
 20 21  1  0
 21 22  2  0
 22 23  1  0
 23 24  2  0
 24 25  1  0
 25 26  2  0
 25 27  1  0
  1 28  2  0
  1 29  1  0
  8  3  1  0
 11  6  1  0
 18 13  2  0
 22  9  1  0
 26 21  1  0
  2 30  1  0
  4 31  1  0
  5 32  1  0
  8 33  1  0
 15 34  1  0
 17 35  1  0
 18 36  1  0
 19 37  1  0
 23 38  1  0
 24 39  1  0
 26 40  1  0
 27 41  1  0
 29 42  1  0
M  END
