
     RDKit          2D

263265  0  0  0  0  0  0  0  0999 V2000
  -21.1853   -0.7788    0.0000 N   0  0  0  0  0  0  0  0  0  0  0  0
  -19.7920   -1.3345    0.0000 C   0  0  0  0  0  0  0  0  0  0  0  0
  -19.5766   -2.8189    0.0000 C   0  0  0  0  0  0  0  0  0  0  0  0
  -18.1834   -3.3747    0.0000 C   0  0  0  0  0  0  0  0  0  0  0  0
  -17.0055   -2.4459    0.0000 O   0  0  0  0  0  0  0  0  0  0  0  0
  -17.9680   -4.8591    0.0000 N   0  0  0  0  0  0  0  0  0  0  0  0
  -16.5747   -5.4148    0.0000 C   0  0  0  0  0  0  0  0  0  0  0  0
  -17.3640   -6.6904    0.0000 C   0  0  0  0  0  0  0  0  0  0  0  0
  -18.8633   -6.6447    0.0000 C   0  0  0  0  0  0  0  0  0  0  0  0
  -19.6525   -7.9203    0.0000 N   0  0  0  0  0  0  0  0  0  0  0  0
  -19.7291   -5.4199    0.0000 O   0  0  0  0  0  0  0  0  0  0  0  0
  -15.0754   -5.4605    0.0000 C   0  0  0  0  0  0  0  0  0  0  0  0
  -14.5317   -6.8585    0.0000 O   0  0  0  0  0  0  0  0  0  0  0  0
  -14.2862   -4.1849    0.0000 N   0  0  0  0  0  0  0  0  0  0  0  0
  -12.7869   -4.2306    0.0000 C   0  0  0  0  0  0  0  0  0  0  0  0
  -13.0923   -5.6992    0.0000 C   0  0  0  0  0  0  0  0  0  0  0  0
  -11.9731   -6.6979    0.0000 C   0  0  0  0  0  0  0  0  0  0  0  0
  -12.2784   -8.1665    0.0000 C   0  0  0  0  0  0  0  0  0  0  0  0
  -11.1593   -9.1652    0.0000 N   0  0  0  0  0  0  0  0  0  0  0  0
  -13.7029   -8.6364    0.0000 O   0  0  0  0  0  0  0  0  0  0  0  0
  -11.3624   -3.7607    0.0000 C   0  0  0  0  0  0  0  0  0  0  0  0
  -10.2432   -4.7595    0.0000 O   0  0  0  0  0  0  0  0  0  0  0  0
  -11.0571   -2.2921    0.0000 N   0  0  0  0  0  0  0  0  0  0  0  0
   -9.6326   -1.8223    0.0000 C   0  0  0  0  0  0  0  0  0  0  0  0
  -10.3427   -0.5010    0.0000 C   0  0  0  0  0  0  0  0  0  0  0  0
  -11.8420   -0.4553    0.0000 C   0  0  0  0  0  0  0  0  0  0  0  0
  -12.5520    0.8660    0.0000 C   0  0  0  0  0  0  0  0  0  0  0  0
  -14.0514    0.9116    0.0000 N   0  0  0  0  0  0  0  0  0  0  0  0
  -14.7614    2.2329    0.0000 C   0  0  0  0  0  0  0  0  0  0  0  0
  -16.2607    2.2786    0.0000 N   0  0  0  0  0  0  0  0  0  0  0  0
  -13.9722    3.5085    0.0000 N   0  0  0  0  0  0  0  0  0  0  0  0
   -8.1333   -1.8679    0.0000 C   0  0  0  0  0  0  0  0  0  0  0  0
   -7.5054   -0.5057    0.0000 O   0  0  0  0  0  0  0  0  0  0  0  0
   -7.4232   -3.1892    0.0000 N   0  0  0  0  0  0  0  0  0  0  0  0
   -5.9239   -3.2349    0.0000 C   0  0  0  0  0  0  0  0  0  0  0  0
   -5.0522   -4.4557    0.0000 C   0  0  0  0  0  0  0  0  0  0  0  0
   -3.9653   -5.4894    0.0000 C   0  0  0  0  0  0  0  0  0  0  0  0
   -2.7024   -6.2987    0.0000 C   0  0  0  0  0  0  0  0  0  0  0  0
   -1.3091   -6.8545    0.0000 C   0  0  0  0  0  0  0  0  0  0  0  0
    0.1641   -7.1365    0.0000 C   0  0  0  0  0  0  0  0  0  0  0  0
    1.6641   -7.1346    0.0000 C   0  0  0  0  0  0  0  0  0  0  0  0
    3.1367   -6.8488    0.0000 C   0  0  0  0  0  0  0  0  0  0  0  0
   -6.7866   -4.4620    0.0000 C   0  0  0  0  0  0  0  0  0  0  0  0
   -6.5487   -1.8713    0.0000 C   0  0  0  0  0  0  0  0  0  0  0  0
   -7.3427   -1.9430    0.0000 O   0  0  0  0  0  0  0  0  0  0  0  0
   -6.9042   -0.4140    0.0000 N   0  0  0  0  0  0  0  0  0  0  0  0
   -6.9775    1.0842    0.0000 C   0  0  0  0  0  0  0  0  0  0  0  0
   -8.2873    0.3533    0.0000 C   0  0  0  0  0  0  0  0  0  0  0  0
   -9.5753    1.1221    0.0000 C   0  0  0  0  0  0  0  0  0  0  0  0
  -10.9645    0.5563    0.0000 C   0  0  0  0  0  0  0  0  0  0  0  0
  -10.5226    2.2851    0.0000 C   0  0  0  0  0  0  0  0  0  0  0  0
   -6.7659    2.5692    0.0000 C   0  0  0  0  0  0  0  0  0  0  0  0
   -8.1703    3.0961    0.0000 O   0  0  0  0  0  0  0  0  0  0  0  0
   -6.2771    3.9873    0.0000 N   0  0  0  0  0  0  0  0  0  0  0  0
   -5.5288    5.2873    0.0000 C   0  0  0  0  0  0  0  0  0  0  0  0
   -7.0259    5.3806    0.0000 C   0  0  0  0  0  0  0  0  0  0  0  0
   -7.6937    6.7237    0.0000 O   0  0  0  0  0  0  0  0  0  0  0  0
   -4.5479    6.4222    0.0000 C   0  0  0  0  0  0  0  0  0  0  0  0
   -5.5844    7.5065    0.0000 O   0  0  0  0  0  0  0  0  0  0  0  0
   -3.3700    7.3510    0.0000 N   0  0  0  0  0  0  0  0  0  0  0  0
   -2.0377    8.0400    0.0000 C   0  0  0  0  0  0  0  0  0  0  0  0
   -3.2467    8.9278    0.0000 C   0  0  0  0  0  0  0  0  0  0  0  0
   -3.0823   10.4188    0.0000 C   0  0  0  0  0  0  0  0  0  0  0  0
   -1.7090   11.0219    0.0000 C   0  0  0  0  0  0  0  0  0  0  0  0
   -1.5446   12.5129    0.0000 C   0  0  0  0  0  0  0  0  0  0  0  0
   -2.7536   13.4007    0.0000 C   0  0  0  0  0  0  0  0  0  0  0  0
   -4.1270   12.7976    0.0000 C   0  0  0  0  0  0  0  0  0  0  0  0
   -4.2914   11.3066    0.0000 C   0  0  0  0  0  0  0  0  0  0  0  0
   -0.5990    8.4644    0.0000 C   0  0  0  0  0  0  0  0  0  0  0  0
   -0.7031    9.9608    0.0000 O   0  0  0  0  0  0  0  0  0  0  0  0
    0.8941    8.6089    0.0000 N   0  0  0  0  0  0  0  0  0  0  0  0
    2.3874    8.4682    0.0000 C   0  0  0  0  0  0  0  0  0  0  0  0
    1.8503    9.8688    0.0000 C   0  0  0  0  0  0  0  0  0  0  0  0
    2.7947   11.0342    0.0000 C   0  0  0  0  0  0  0  0  0  0  0  0
    4.2761   10.7991    0.0000 C   0  0  0  0  0  0  0  0  0  0  0  0
    5.2205   11.9645    0.0000 C   0  0  0  0  0  0  0  0  0  0  0  0
    4.6834   13.3650    0.0000 C   0  0  0  0  0  0  0  0  0  0  0  0
    3.2019   13.6002    0.0000 C   0  0  0  0  0  0  0  0  0  0  0  0
    2.2576   12.4347    0.0000 C   0  0  0  0  0  0  0  0  0  0  0  0
    3.8272    8.0475    0.0000 C   0  0  0  0  0  0  0  0  0  0  0  0
    4.5486    9.3626    0.0000 O   0  0  0  0  0  0  0  0  0  0  0  0
    5.1614    7.3618    0.0000 N   0  0  0  0  0  0  0  0  0  0  0  0
    6.3416    6.4361    0.0000 C   0  0  0  0  0  0  0  0  0  0  0  0
    6.6470    7.9047    0.0000 C   0  0  0  0  0  0  0  0  0  0  0  0
    7.3253    5.3037    0.0000 C   0  0  0  0  0  0  0  0  0  0  0  0
    8.5461    6.1754    0.0000 O   0  0  0  0  0  0  0  0  0  0  0  0
    8.0770    4.0056    0.0000 N   0  0  0  0  0  0  0  0  0  0  0  0
    8.5694    2.5888    0.0000 C   0  0  0  0  0  0  0  0  0  0  0  0
    9.6203    3.6592    0.0000 C   0  0  0  0  0  0  0  0  0  0  0  0
   11.0727    3.2843    0.0000 C   0  0  0  0  0  0  0  0  0  0  0  0
   12.1235    4.3547    0.0000 C   0  0  0  0  0  0  0  0  0  0  0  0
   12.3093    2.4353    0.0000 C   0  0  0  0  0  0  0  0  0  0  0  0
    8.7848    1.1043    0.0000 C   0  0  0  0  0  0  0  0  0  0  0  0
   10.2807    0.9944    0.0000 O   0  0  0  0  0  0  0  0  0  0  0  0
    8.7153   -0.3941    0.0000 N   0  0  0  0  0  0  0  0  0  0  0  0
    8.3635   -1.8522    0.0000 C   0  0  0  0  0  0  0  0  0  0  0  0
    7.7422   -3.2175    0.0000 C   0  0  0  0  0  0  0  0  0  0  0  0
    6.8736   -4.4405    0.0000 C   0  0  0  0  0  0  0  0  0  0  0  0
    5.7893   -5.4770    0.0000 C   0  0  0  0  0  0  0  0  0  0  0  0
    4.5285   -6.2895    0.0000 C   0  0  0  0  0  0  0  0  0  0  0  0
    9.4455   -2.8911    0.0000 C   0  0  0  0  0  0  0  0  0  0  0  0
    9.8263   -1.5199    0.0000 C   0  0  0  0  0  0  0  0  0  0  0  0
   10.4412   -0.1517    0.0000 O   0  0  0  0  0  0  0  0  0  0  0  0
   10.8454   -2.6205    0.0000 N   0  0  0  0  0  0  0  0  0  0  0  0
   12.3081   -2.2882    0.0000 C   0  0  0  0  0  0  0  0  0  0  0  0
   13.5690   -1.4756    0.0000 C   0  0  0  0  0  0  0  0  0  0  0  0
   14.9031   -2.1612    0.0000 C   0  0  0  0  0  0  0  0  0  0  0  0
   16.1640   -1.3487    0.0000 O   0  0  0  0  0  0  0  0  0  0  0  0
   15.3368   -3.5972    0.0000 O   0  0  0  0  0  0  0  0  0  0  0  0
   13.3273   -3.3888    0.0000 C   0  0  0  0  0  0  0  0  0  0  0  0
   12.8838   -4.8217    0.0000 O   0  0  0  0  0  0  0  0  0  0  0  0
   14.7900   -3.0564    0.0000 N   0  0  0  0  0  0  0  0  0  0  0  0
   15.8092   -4.1570    0.0000 C   0  0  0  0  0  0  0  0  0  0  0  0
   16.3905   -5.5398    0.0000 C   0  0  0  0  0  0  0  0  0  0  0  0
   17.8787   -5.7278    0.0000 C   0  0  0  0  0  0  0  0  0  0  0  0
   18.4599   -7.1106    0.0000 C   0  0  0  0  0  0  0  0  0  0  0  0
   19.9141   -7.4786    0.0000 N   0  0  0  0  0  0  0  0  0  0  0  0
   17.5530   -8.3054    0.0000 O   0  0  0  0  0  0  0  0  0  0  0  0
   17.2719   -3.8247    0.0000 C   0  0  0  0  0  0  0  0  0  0  0  0
   17.7155   -2.3918    0.0000 O   0  0  0  0  0  0  0  0  0  0  0  0
   18.2911   -4.9253    0.0000 N   0  0  0  0  0  0  0  0  0  0  0  0
   19.7538   -4.5930    0.0000 C   0  0  0  0  0  0  0  0  0  0  0  0
   21.0147   -3.7804    0.0000 C   0  0  0  0  0  0  0  0  0  0  0  0
   22.3488   -4.4660    0.0000 C   0  0  0  0  0  0  0  0  0  0  0  0
   21.9216   -2.5856    0.0000 C   0  0  0  0  0  0  0  0  0  0  0  0
   21.3403   -1.2028    0.0000 C   0  0  0  0  0  0  0  0  0  0  0  0
   20.7730   -5.6935    0.0000 C   0  0  0  0  0  0  0  0  0  0  0  0
   22.2653   -5.5420    0.0000 O   0  0  0  0  0  0  0  0  0  0  0  0
   20.5074   -7.1698    0.0000 O   0  0  0  0  0  0  0  0  0  0  0  0
  -21.4006    0.7057    0.0000 H   0  0  0  0  0  0  0  0  0  0  0  0
  -22.3631   -1.7075    0.0000 H   0  0  0  0  0  0  0  0  0  0  0  0
  -19.4867    0.1341    0.0000 H   0  0  0  0  0  0  0  0  0  0  0  0
  -18.2927   -1.3802    0.0000 H   0  0  0  0  0  0  0  0  0  0  0  0
  -21.0759   -2.7733    0.0000 H   0  0  0  0  0  0  0  0  0  0  0  0
  -19.8820   -4.2875    0.0000 H   0  0  0  0  0  0  0  0  0  0  0  0
  -19.2503   -5.6373    0.0000 H   0  0  0  0  0  0  0  0  0  0  0  0
  -16.2694   -3.9462    0.0000 H   0  0  0  0  0  0  0  0  0  0  0  0
  -17.6693   -8.1590    0.0000 H   0  0  0  0  0  0  0  0  0  0  0  0
  -15.9707   -7.2461    0.0000 H   0  0  0  0  0  0  0  0  0  0  0  0
  -21.1518   -7.8747    0.0000 H   0  0  0  0  0  0  0  0  0  0  0  0
  -18.9424   -9.2416    0.0000 H   0  0  0  0  0  0  0  0  0  0  0  0
  -14.9963   -2.8636    0.0000 H   0  0  0  0  0  0  0  0  0  0  0  0
  -13.0023   -2.7461    0.0000 H   0  0  0  0  0  0  0  0  0  0  0  0
  -13.7201   -7.0615    0.0000 H   0  0  0  0  0  0  0  0  0  0  0  0
  -14.5786   -5.4971    0.0000 H   0  0  0  0  0  0  0  0  0  0  0  0
  -10.5798   -7.2536    0.0000 H   0  0  0  0  0  0  0  0  0  0  0  0
  -11.1839   -5.4223    0.0000 H   0  0  0  0  0  0  0  0  0  0  0  0
  -11.4646  -10.6338    0.0000 H   0  0  0  0  0  0  0  0  0  0  0  0
   -9.7347   -8.6954    0.0000 H   0  0  0  0  0  0  0  0  0  0  0  0
  -12.3846   -1.5939    0.0000 H   0  0  0  0  0  0  0  0  0  0  0  0
   -9.4172   -3.3067    0.0000 H   0  0  0  0  0  0  0  0  0  0  0  0
  -10.5580    0.9835    0.0000 H   0  0  0  0  0  0  0  0  0  0  0  0
   -8.8643   -0.7551    0.0000 H   0  0  0  0  0  0  0  0  0  0  0  0
  -13.2665   -0.9252    0.0000 H   0  0  0  0  0  0  0  0  0  0  0  0
  -12.1730   -1.9183    0.0000 H   0  0  0  0  0  0  0  0  0  0  0  0
  -12.9468    2.3131    0.0000 H   0  0  0  0  0  0  0  0  0  0  0  0
  -11.1954    1.5060    0.0000 H   0  0  0  0  0  0  0  0  0  0  0  0
  -14.8406   -0.3639    0.0000 H   0  0  0  0  0  0  0  0  0  0  0  0
  -16.9708    3.5999    0.0000 H   0  0  0  0  0  0  0  0  0  0  0  0
  -17.0500    1.0030    0.0000 H   0  0  0  0  0  0  0  0  0  0  0  0
  -14.6823    4.8298    0.0000 H   0  0  0  0  0  0  0  0  0  0  0  0
  -12.4729    3.4628    0.0000 H   0  0  0  0  0  0  0  0  0  0  0  0
   -8.3620   -4.3591    0.0000 H   0  0  0  0  0  0  0  0  0  0  0  0
   -5.6671   -5.8238    0.0000 H   0  0  0  0  0  0  0  0  0  0  0  0
   -6.4929   -4.8733    0.0000 H   0  0  0  0  0  0  0  0  0  0  0  0
   -4.3102   -6.9492    0.0000 H   0  0  0  0  0  0  0  0  0  0  0  0
   -5.3009   -6.1721    0.0000 H   0  0  0  0  0  0  0  0  0  0  0  0
   -2.7648   -7.7974    0.0000 H   0  0  0  0  0  0  0  0  0  0  0  0
   -3.8847   -7.2219    0.0000 H   0  0  0  0  0  0  0  0  0  0  0  0
   -1.0867   -8.3379    0.0000 H   0  0  0  0  0  0  0  0  0  0  0  0
   -2.2953   -7.9847    0.0000 H   0  0  0  0  0  0  0  0  0  0  0  0
    0.6632   -8.5510    0.0000 H   0  0  0  0  0  0  0  0  0  0  0  0
   -0.5904   -8.4329    0.0000 H   0  0  0  0  0  0  0  0  0  0  0  0
    2.5741   -8.3270    0.0000 H   0  0  0  0  0  0  0  0  0  0  0  0
    1.1686   -8.5503    0.0000 H   0  0  0  0  0  0  0  0  0  0  0  0
    3.5611   -8.2875    0.0000 H   0  0  0  0  0  0  0  0  0  0  0  0
   -8.1020   -4.7701    0.0000 H   0  0  0  0  0  0  0  0  0  0  0  0
   -6.8422   -6.0430    0.0000 H   0  0  0  0  0  0  0  0  0  0  0  0
   -5.3879   -5.3902    0.0000 H   0  0  0  0  0  0  0  0  0  0  0  0
   -8.2925   -0.9822    0.0000 H   0  0  0  0  0  0  0  0  0  0  0  0
   -8.1014    2.0776    0.0000 H   0  0  0  0  0  0  0  0  0  0  0  0
   -9.1225   -0.8927    0.0000 H   0  0  0  0  0  0  0  0  0  0  0  0
   -7.4889   -0.9166    0.0000 H   0  0  0  0  0  0  0  0  0  0  0  0
   -8.8982    2.4606    0.0000 H   0  0  0  0  0  0  0  0  0  0  0  0
  -12.0905    1.3029    0.0000 H   0  0  0  0  0  0  0  0  0  0  0  0
  -12.2721   -0.3342    0.0000 H   0  0  0  0  0  0  0  0  0  0  0  0
   -9.7836   -0.6368    0.0000 H   0  0  0  0  0  0  0  0  0  0  0  0
  -12.0173    2.4117    0.0000 H   0  0  0  0  0  0  0  0  0  0  0  0
  -11.0150    3.7020    0.0000 H   0  0  0  0  0  0  0  0  0  0  0  0
   -9.2128    3.0161    0.0000 H   0  0  0  0  0  0  0  0  0  0  0  0
   -7.7079    4.4377    0.0000 H   0  0  0  0  0  0  0  0  0  0  0  0
   -6.1101    6.6701    0.0000 H   0  0  0  0  0  0  0  0  0  0  0  0
   -8.5056    5.1347    0.0000 H   0  0  0  0  0  0  0  0  0  0  0  0
   -7.2234    3.8936    0.0000 H   0  0  0  0  0  0  0  0  0  0  0  0
   -9.1908    6.8169    0.0000 H   0  0  0  0  0  0  0  0  0  0  0  0
   -4.3302    8.5034    0.0000 H   0  0  0  0  0  0  0  0  0  0  0  0
   -1.7791    9.5175    0.0000 H   0  0  0  0  0  0  0  0  0  0  0  0
   -4.6245    9.5209    0.0000 H   0  0  0  0  0  0  0  0  0  0  0  0
   -4.2168    7.7837    0.0000 H   0  0  0  0  0  0  0  0  0  0  0  0
   -0.4007   10.2881    0.0000 H   0  0  0  0  0  0  0  0  0  0  0  0
   -0.1712   13.1160    0.0000 H   0  0  0  0  0  0  0  0  0  0  0  0
   -2.5893   14.8917    0.0000 H   0  0  0  0  0  0  0  0  0  0  0  0
   -5.3361   13.6854    0.0000 H   0  0  0  0  0  0  0  0  0  0  0  0
   -5.6648   10.7035    0.0000 H   0  0  0  0  0  0  0  0  0  0  0  0
    0.7093   10.0975    0.0000 H   0  0  0  0  0  0  0  0  0  0  0  0
    3.4038    9.5714    0.0000 H   0  0  0  0  0  0  0  0  0  0  0  0
    1.0120   11.1126    0.0000 H   0  0  0  0  0  0  0  0  0  0  0  0
    0.4157    9.4307    0.0000 H   0  0  0  0  0  0  0  0  0  0  0  0
    4.9800    9.4745    0.0000 H   0  0  0  0  0  0  0  0  0  0  0  0
    6.7019   11.7294    0.0000 H   0  0  0  0  0  0  0  0  0  0  0  0
    5.6277   14.5305    0.0000 H   0  0  0  0  0  0  0  0  0  0  0  0
    2.6648   15.0007    0.0000 H   0  0  0  0  0  0  0  0  0  0  0  0
    0.7761   12.6699    0.0000 H   0  0  0  0  0  0  0  0  0  0  0  0
    5.8107    8.7140    0.0000 H   0  0  0  0  0  0  0  0  0  0  0  0
    7.7931    6.8147    0.0000 H   0  0  0  0  0  0  0  0  0  0  0  0
    8.0715    8.3746    0.0000 H   0  0  0  0  0  0  0  0  0  0  0  0
    6.6141    9.4043    0.0000 H   0  0  0  0  0  0  0  0  0  0  0  0
    5.2033    8.3118    0.0000 H   0  0  0  0  0  0  0  0  0  0  0  0
    9.3543    4.7921    0.0000 H   0  0  0  0  0  0  0  0  0  0  0  0
    9.9277    1.9522    0.0000 H   0  0  0  0  0  0  0  0  0  0  0  0
   10.2416    5.0244    0.0000 H   0  0  0  0  0  0  0  0  0  0  0  0
    8.6259    4.7822    0.0000 H   0  0  0  0  0  0  0  0  0  0  0  0
   10.8001    1.8093    0.0000 H   0  0  0  0  0  0  0  0  0  0  0  0
   13.6108    4.1596    0.0000 H   0  0  0  0  0  0  0  0  0  0  0  0
   12.7449    5.7199    0.0000 H   0  0  0  0  0  0  0  0  0  0  0  0
   10.9996    5.3481    0.0000 H   0  0  0  0  0  0  0  0  0  0  0  0
   13.7315    2.9119    0.0000 H   0  0  0  0  0  0  0  0  0  0  0  0
   13.1809    1.2145    0.0000 H   0  0  0  0  0  0  0  0  0  0  0  0
   11.2584    1.3649    0.0000 H   0  0  0  0  0  0  0  0  0  0  0  0
   10.2150   -0.4231    0.0000 H   0  0  0  0  0  0  0  0  0  0  0  0
    9.2362   -3.3511    0.0000 H   0  0  0  0  0  0  0  0  0  0  0  0
    8.4522   -4.5388    0.0000 H   0  0  0  0  0  0  0  0  0  0  0  0
    8.2542   -5.0271    0.0000 H   0  0  0  0  0  0  0  0  0  0  0  0
    7.4920   -5.8071    0.0000 H   0  0  0  0  0  0  0  0  0  0  0  0
    7.1267   -6.1563    0.0000 H   0  0  0  0  0  0  0  0  0  0  0  0
    5.9575   -6.9675    0.0000 H   0  0  0  0  0  0  0  0  0  0  0  0
    5.2175   -7.6219    0.0000 H   0  0  0  0  0  0  0  0  0  0  0  0
    9.1664   -4.5335    0.0000 H   0  0  0  0  0  0  0  0  0  0  0  0
   10.4813   -3.9181    0.0000 H   0  0  0  0  0  0  0  0  0  0  0  0
   10.5111   -2.1152    0.0000 H   0  0  0  0  0  0  0  0  0  0  0  0
   10.5798   -4.0968    0.0000 H   0  0  0  0  0  0  0  0  0  0  0  0
   11.7269   -0.9054    0.0000 H   0  0  0  0  0  0  0  0  0  0  0  0
   14.4759   -0.2808    0.0000 H   0  0  0  0  0  0  0  0  0  0  0  0
   12.5498   -0.3750    0.0000 H   0  0  0  0  0  0  0  0  0  0  0  0
   15.5671   -1.7734    0.0000 H   0  0  0  0  0  0  0  0  0  0  0  0
   14.5484   -4.9696    0.0000 H   0  0  0  0  0  0  0  0  0  0  0  0
   16.4638   -7.0380    0.0000 H   0  0  0  0  0  0  0  0  0  0  0  0
   14.9278   -5.8721    0.0000 H   0  0  0  0  0  0  0  0  0  0  0  0
   19.3414   -5.3955    0.0000 H   0  0  0  0  0  0  0  0  0  0  0  0
   18.5175   -4.3706    0.0000 H   0  0  0  0  0  0  0  0  0  0  0  0
   20.5294   -8.6814    0.0000 H   0  0  0  0  0  0  0  0  0  0  0  0
   21.2853   -6.5324    0.0000 H   0  0  0  0  0  0  0  0  0  0  0  0
   18.2075   -6.4229    0.0000 H   0  0  0  0  0  0  0  0  0  0  0  0
   19.1725   -3.2102    0.0000 H   0  0  0  0  0  0  0  0  0  0  0  0
   19.8689   -2.8122    0.0000 H   0  0  0  0  0  0  0  0  0  0  0  0
   23.6993   -3.8132    0.0000 H   0  0  0  0  0  0  0  0  0  0  0  0
   23.3680   -5.5666    0.0000 H   0  0  0  0  0  0  0  0  0  0  0  0
   22.1091   -5.9468    0.0000 H   0  0  0  0  0  0  0  0  0  0  0  0
   23.1824   -1.7730    0.0000 H   0  0  0  0  0  0  0  0  0  0  0  0
   23.0673   -3.5537    0.0000 H   0  0  0  0  0  0  0  0  0  0  0  0
   22.2472   -0.0080    0.0000 H   0  0  0  0  0  0  0  0  0  0  0  0
   20.3211   -0.1022    0.0000 H   0  0  0  0  0  0  0  0  0  0  0  0
   19.9898   -1.8556    0.0000 H   0  0  0  0  0  0  0  0  0  0  0  0
  1  2  1  0
  2  3  1  0
  3  4  1  0
  4  5  2  0
  4  6  1  0
  6  7  1  0
  7  8  1  0
  8  9  1  0
  9 10  1  0
  9 11  2  0
  7 12  1  0
 12 13  2  0
 12 14  1  0
 14 15  1  0
 15 16  1  0
 16 17  1  0
 17 18  1  0
 18 19  1  0
 18 20  2  0
 15 21  1  0
 21 22  2  0
 21 23  1  0
 23 24  1  0
 24 25  1  0
 25 26  1  0
 26 27  1  0
 27 28  1  0
 28 29  1  0
 29 30  2  3
 29 31  1  0
 24 32  1  0
 32 33  2  0
 32 34  1  0
 35 34  1  1
 35 36  1  0
 36 37  1  0
 37 38  1  0
 38 39  1  0
 39 40  1  0
 40 41  1  0
 41 42  1  0
 35 43  1  0
 35 44  1  0
 44 45  2  0
 44 46  1  0
 46 47  1  0
 47 48  1  0
 48 49  1  0
 49 50  1  0
 49 51  1  0
 47 52  1  0
 52 53  2  0
 52 54  1  0
 54 55  1  0
 55 56  1  0
 56 57  1  0
 55 58  1  0
 58 59  2  0
 58 60  1  0
 60 61  1  0
 61 62  1  0
 62 63  1  0
 63 64  2  0
 64 65  1  0
 65 66  2  0
 66 67  1  0
 67 68  2  0
 61 69  1  0
 69 70  2  0
 69 71  1  0
 71 72  1  0
 72 73  1  0
 73 74  1  0
 74 75  2  0
 75 76  1  0
 76 77  2  0
 77 78  1  0
 78 79  2  0
 72 80  1  0
 80 81  2  0
 80 82  1  0
 82 83  1  0
 83 84  1  0
 83 85  1  0
 85 86  2  0
 85 87  1  0
 87 88  1  0
 88 89  1  0
 89 90  1  0
 90 91  1  0
 90 92  1  0
 88 93  1  0
 93 94  2  0
 93 95  1  0
 95 96  1  0
 96 97  1  0
 97 98  1  0
 98 99  1  0
 99100  1  0
 96101  1  0
 96102  1  6
102103  2  0
102104  1  0
104105  1  0
105106  1  0
106107  1  0
107108  2  0
107109  1  0
105110  1  0
110111  2  0
110112  1  0
112113  1  0
113114  1  0
114115  1  0
115116  1  0
116117  1  0
116118  2  0
113119  1  0
119120  2  0
119121  1  0
121122  1  0
122123  1  0
123124  1  0
123125  1  0
125126  1  0
122127  1  0
127128  2  0
127129  1  0
 68 63  1  0
 79 74  1  0
 42100  2  0
  1130  1  0
  1131  1  0
  2132  1  0
  2133  1  0
  3134  1  0
  3135  1  0
  6136  1  0
  7137  1  6
  8138  1  0
  8139  1  0
 10140  1  0
 10141  1  0
 14142  1  0
 15143  1  6
 16144  1  0
 16145  1  0
 17146  1  0
 17147  1  0
 19148  1  0
 19149  1  0
 23150  1  0
 24151  1  1
 25152  1  0
 25153  1  0
 26154  1  0
 26155  1  0
 27156  1  0
 27157  1  0
 28158  1  0
 30159  1  0
 30160  1  0
 31161  1  0
 31162  1  0
 34163  1  0
 36164  1  0
 36165  1  0
 37166  1  0
 37167  1  0
 38168  1  0
 38169  1  0
 39170  1  0
 39171  1  0
 40172  1  0
 40173  1  0
 41174  1  0
 41175  1  0
 42176  1  0
 43177  1  0
 43178  1  0
 43179  1  0
 46180  1  0
 47181  1  1
 48182  1  0
 48183  1  0
 49184  1  0
 50185  1  0
 50186  1  0
 50187  1  0
 51188  1  0
 51189  1  0
 51190  1  0
 54191  1  0
 55192  1  1
 56193  1  0
 56194  1  0
 57195  1  0
 60196  1  0
 61197  1  1
 62198  1  0
 62199  1  0
 64200  1  0
 65201  1  0
 66202  1  0
 67203  1  0
 68204  1  0
 71205  1  0
 72206  1  1
 73207  1  0
 73208  1  0
 75209  1  0
 76210  1  0
 77211  1  0
 78212  1  0
 79213  1  0
 82214  1  0
 83215  1  1
 84216  1  0
 84217  1  0
 84218  1  0
 87219  1  0
 88220  1  1
 89221  1  0
 89222  1  0
 90223  1  0
 91224  1  0
 91225  1  0
 91226  1  0
 92227  1  0
 92228  1  0
 92229  1  0
 95230  1  0
 97231  1  0
 97232  1  0
 98233  1  0
 98234  1  0
 99235  1  0
 99236  1  0
100237  1  0
101238  1  0
101239  1  0
101240  1  0
104241  1  0
105242  1  1
106243  1  0
106244  1  0
112245  1  0
113246  1  6
114247  1  0
114248  1  0
115249  1  0
115250  1  0
117251  1  0
117252  1  0
121253  1  0
122254  1  1
123255  1  1
124256  1  0
124257  1  0
124258  1  0
125259  1  0
125260  1  0
126261  1  0
126262  1  0
126263  1  0
M  CHG  3  30   1 109  -1 129  -1
M  END
