
     RDKit          2D

259260  0  0  0  0  0  0  0  0999 V2000
   23.0627   -6.1519    0.0000 N   0  0  0  0  0  0  0  0  0  0  0  0
   22.5268   -4.7509    0.0000 C   0  0  0  0  0  0  0  0  0  0  0  0
   23.4722   -3.5863    0.0000 C   0  0  0  0  0  0  0  0  0  0  0  0
   22.9362   -2.1853    0.0000 C   0  0  0  0  0  0  0  0  0  0  0  0
   22.1396   -2.1566    0.0000 O   0  0  0  0  0  0  0  0  0  0  0  0
   23.8816   -1.0207    0.0000 N   0  0  0  0  0  0  0  0  0  0  0  0
   23.3457    0.3803    0.0000 C   0  0  0  0  0  0  0  0  0  0  0  0
   23.3213    1.8801    0.0000 C   0  0  0  0  0  0  0  0  0  0  0  0
   24.6079    2.6511    0.0000 C   0  0  0  0  0  0  0  0  0  0  0  0
   24.5835    4.1509    0.0000 C   0  0  0  0  0  0  0  0  0  0  0  0
   25.8701    4.9220    0.0000 C   0  0  0  0  0  0  0  0  0  0  0  0
   27.1812    4.1932    0.0000 C   0  0  0  0  0  0  0  0  0  0  0  0
   28.4679    4.9643    0.0000 O   0  0  0  0  0  0  0  0  0  0  0  0
   27.2056    2.6934    0.0000 C   0  0  0  0  0  0  0  0  0  0  0  0
   25.9190    1.9224    0.0000 C   0  0  0  0  0  0  0  0  0  0  0  0
   22.0590   -0.3908    0.0000 C   0  0  0  0  0  0  0  0  0  0  0  0
   21.9747   -1.1835    0.0000 O   0  0  0  0  0  0  0  0  0  0  0  0
   20.7479    0.3380    0.0000 N   0  0  0  0  0  0  0  0  0  0  0  0
   19.4613   -0.4331    0.0000 C   0  0  0  0  0  0  0  0  0  0  0  0
   18.1502    0.2957    0.0000 C   0  0  0  0  0  0  0  0  0  0  0  0
   18.1258    1.7955    0.0000 O   0  0  0  0  0  0  0  0  0  0  0  0
   16.8636   -0.4754    0.0000 N   0  0  0  0  0  0  0  0  0  0  0  0
   15.5525    0.2534    0.0000 C   0  0  0  0  0  0  0  0  0  0  0  0
   14.5697    1.3866    0.0000 C   0  0  0  0  0  0  0  0  0  0  0  0
   13.0969    1.1021    0.0000 C   0  0  0  0  0  0  0  0  0  0  0  0
   12.1142    2.2353    0.0000 C   0  0  0  0  0  0  0  0  0  0  0  0
   10.6414    1.9508    0.0000 N   0  0  0  0  0  0  0  0  0  0  0  0
    9.6586    3.0840    0.0000 C   0  0  0  0  0  0  0  0  0  0  0  0
    8.2315    2.6221    0.0000 N   0  0  0  0  0  0  0  0  0  0  0  0
   10.1487    4.5017    0.0000 N   0  0  0  0  0  0  0  0  0  0  0  0
   14.2658   -0.5177    0.0000 C   0  0  0  0  0  0  0  0  0  0  0  0
   14.2903   -2.0175    0.0000 O   0  0  0  0  0  0  0  0  0  0  0  0
   12.9548    0.2111    0.0000 N   0  0  0  0  0  0  0  0  0  0  0  0
   11.6681   -0.5600    0.0000 C   0  0  0  0  0  0  0  0  0  0  0  0
   10.7228   -1.7246    0.0000 C   0  0  0  0  0  0  0  0  0  0  0  0
    9.2415   -1.4882    0.0000 C   0  0  0  0  0  0  0  0  0  0  0  0
    8.2962   -2.6528    0.0000 C   0  0  0  0  0  0  0  0  0  0  0  0
    6.8149   -2.4164    0.0000 C   0  0  0  0  0  0  0  0  0  0  0  0
    5.8696   -3.5811    0.0000 N   0  0  0  0  0  0  0  0  0  0  0  0
   10.3570    0.1688    0.0000 C   0  0  0  0  0  0  0  0  0  0  0  0
    9.9704    1.6181    0.0000 O   0  0  0  0  0  0  0  0  0  0  0  0
    9.0704   -0.6023    0.0000 N   0  0  0  0  0  0  0  0  0  0  0  0
    7.7593    0.1265    0.0000 C   0  0  0  0  0  0  0  0  0  0  0  0
    6.7765    1.2597    0.0000 C   0  0  0  0  0  0  0  0  0  0  0  0
    5.3037    0.9752    0.0000 C   0  0  0  0  0  0  0  0  0  0  0  0
    4.3210    2.1084    0.0000 C   0  0  0  0  0  0  0  0  0  0  0  0
    2.8482    1.8239    0.0000 C   0  0  0  0  0  0  0  0  0  0  0  0
    1.8654    2.9571    0.0000 N   0  0  0  0  0  0  0  0  0  0  0  0
    6.4726   -0.6446    0.0000 C   0  0  0  0  0  0  0  0  0  0  0  0
    6.1334   -2.1057    0.0000 O   0  0  0  0  0  0  0  0  0  0  0  0
    5.1616    0.0842    0.0000 N   0  0  0  0  0  0  0  0  0  0  0  0
    3.8749   -0.6869    0.0000 C   0  0  0  0  0  0  0  0  0  0  0  0
    2.9296   -1.8515    0.0000 C   0  0  0  0  0  0  0  0  0  0  0  0
    1.4483   -1.6151    0.0000 C   0  0  0  0  0  0  0  0  0  0  0  0
    0.5030   -2.7797    0.0000 C   0  0  0  0  0  0  0  0  0  0  0  0
   -0.9783   -2.5433    0.0000 N   0  0  0  0  0  0  0  0  0  0  0  0
   -1.9236   -3.7080    0.0000 C   0  0  0  0  0  0  0  0  0  0  0  0
   -3.3650   -3.2928    0.0000 N   0  0  0  0  0  0  0  0  0  0  0  0
   -1.3877   -5.1090    0.0000 N   0  0  0  0  0  0  0  0  0  0  0  0
    2.5638    0.0419    0.0000 C   0  0  0  0  0  0  0  0  0  0  0  0
    2.1772    1.4912    0.0000 O   0  0  0  0  0  0  0  0  0  0  0  0
    1.2772   -0.7292    0.0000 N   0  0  0  0  0  0  0  0  0  0  0  0
   -0.0339   -0.0004    0.0000 C   0  0  0  0  0  0  0  0  0  0  0  0
   -1.0167    1.1328    0.0000 C   0  0  0  0  0  0  0  0  0  0  0  0
   -2.4894    0.8483    0.0000 C   0  0  0  0  0  0  0  0  0  0  0  0
   -3.4722    1.9815    0.0000 C   0  0  0  0  0  0  0  0  0  0  0  0
   -4.9450    1.6970    0.0000 N   0  0  0  0  0  0  0  0  0  0  0  0
   -5.9277    2.8302    0.0000 C   0  0  0  0  0  0  0  0  0  0  0  0
   -7.3549    2.3683    0.0000 N   0  0  0  0  0  0  0  0  0  0  0  0
   -5.4377    4.2479    0.0000 N   0  0  0  0  0  0  0  0  0  0  0  0
   -1.3206   -0.7715    0.0000 C   0  0  0  0  0  0  0  0  0  0  0  0
   -1.6598   -2.2326    0.0000 O   0  0  0  0  0  0  0  0  0  0  0  0
   -2.6316   -0.0427    0.0000 N   0  0  0  0  0  0  0  0  0  0  0  0
   -3.9183   -0.8138    0.0000 C   0  0  0  0  0  0  0  0  0  0  0  0
   -4.8636   -1.9784    0.0000 C   0  0  0  0  0  0  0  0  0  0  0  0
   -6.3449   -1.7420    0.0000 C   0  0  0  0  0  0  0  0  0  0  0  0
   -7.2902   -2.9066    0.0000 C   0  0  0  0  0  0  0  0  0  0  0  0
   -8.7893   -2.8526    0.0000 N   0  0  0  0  0  0  0  0  0  0  0  0
   -6.7543   -4.3076    0.0000 O   0  0  0  0  0  0  0  0  0  0  0  0
   -5.2294   -0.0850    0.0000 C   0  0  0  0  0  0  0  0  0  0  0  0
   -5.6160    1.3643    0.0000 O   0  0  0  0  0  0  0  0  0  0  0  0
   -6.5160   -0.8561    0.0000 N   0  0  0  0  0  0  0  0  0  0  0  0
   -7.8271   -0.1274    0.0000 C   0  0  0  0  0  0  0  0  0  0  0  0
   -8.8099    1.0059    0.0000 C   0  0  0  0  0  0  0  0  0  0  0  0
  -10.2826    0.7214    0.0000 C   0  0  0  0  0  0  0  0  0  0  0  0
  -11.2654    1.8546    0.0000 C   0  0  0  0  0  0  0  0  0  0  0  0
  -12.7382    1.5701    0.0000 N   0  0  0  0  0  0  0  0  0  0  0  0
  -13.7209    2.7033    0.0000 C   0  0  0  0  0  0  0  0  0  0  0  0
  -15.1481    2.2414    0.0000 N   0  0  0  0  0  0  0  0  0  0  0  0
  -13.2309    4.1210    0.0000 N   0  0  0  0  0  0  0  0  0  0  0  0
   -9.1138   -0.8984    0.0000 C   0  0  0  0  0  0  0  0  0  0  0  0
   -9.2723   -2.3900    0.0000 O   0  0  0  0  0  0  0  0  0  0  0  0
  -10.4248   -0.1697    0.0000 N   0  0  0  0  0  0  0  0  0  0  0  0
  -11.7115   -0.9407    0.0000 C   0  0  0  0  0  0  0  0  0  0  0  0
  -12.6568   -2.1053    0.0000 C   0  0  0  0  0  0  0  0  0  0  0  0
  -14.1381   -1.8689    0.0000 C   0  0  0  0  0  0  0  0  0  0  0  0
  -15.0834   -3.0335    0.0000 C   0  0  0  0  0  0  0  0  0  0  0  0
  -16.5647   -2.7972    0.0000 N   0  0  0  0  0  0  0  0  0  0  0  0
  -17.5100   -3.9618    0.0000 C   0  0  0  0  0  0  0  0  0  0  0  0
  -18.9913   -3.7254    0.0000 N   0  0  0  0  0  0  0  0  0  0  0  0
  -16.9741   -5.3628    0.0000 N   0  0  0  0  0  0  0  0  0  0  0  0
  -13.0226   -0.2120    0.0000 C   0  0  0  0  0  0  0  0  0  0  0  0
  -13.4092    1.2374    0.0000 O   0  0  0  0  0  0  0  0  0  0  0  0
  -14.3092   -0.9830    0.0000 N   0  0  0  0  0  0  0  0  0  0  0  0
  -15.6203   -0.2543    0.0000 C   0  0  0  0  0  0  0  0  0  0  0  0
  -16.6031    0.8790    0.0000 C   0  0  0  0  0  0  0  0  0  0  0  0
  -18.0758    0.5945    0.0000 C   0  0  0  0  0  0  0  0  0  0  0  0
  -19.0586    1.7277    0.0000 C   0  0  0  0  0  0  0  0  0  0  0  0
  -20.5314    1.4432    0.0000 N   0  0  0  0  0  0  0  0  0  0  0  0
  -21.5141    2.5764    0.0000 C   0  0  0  0  0  0  0  0  0  0  0  0
  -22.9869    2.2919    0.0000 N   0  0  0  0  0  0  0  0  0  0  0  0
  -21.0241    3.9941    0.0000 N   0  0  0  0  0  0  0  0  0  0  0  0
  -16.9070   -1.0253    0.0000 C   0  0  0  0  0  0  0  0  0  0  0  0
  -17.2462   -2.4865    0.0000 O   0  0  0  0  0  0  0  0  0  0  0  0
  -18.2180   -0.2966    0.0000 N   0  0  0  0  0  0  0  0  0  0  0  0
  -19.5782   -0.9289    0.0000 C   0  0  0  0  0  0  0  0  0  0  0  0
  -20.5999    0.1693    0.0000 C   0  0  0  0  0  0  0  0  0  0  0  0
  -19.8712    1.4804    0.0000 C   0  0  0  0  0  0  0  0  0  0  0  0
  -18.3991    1.1925    0.0000 C   0  0  0  0  0  0  0  0  0  0  0  0
  -18.2666    2.6866    0.0000 C   0  0  0  0  0  0  0  0  0  0  0  0
  -19.1038    3.9312    0.0000 O   0  0  0  0  0  0  0  0  0  0  0  0
  -16.9936    3.4800    0.0000 O   0  0  0  0  0  0  0  0  0  0  0  0
   22.1174   -7.3166    0.0000 H   0  0  0  0  0  0  0  0  0  0  0  0
   24.5440   -6.3883    0.0000 H   0  0  0  0  0  0  0  0  0  0  0  0
   21.2402   -5.5220    0.0000 H   0  0  0  0  0  0  0  0  0  0  0  0
   21.5441   -3.6177    0.0000 H   0  0  0  0  0  0  0  0  0  0  0  0
   24.4549   -4.7195    0.0000 H   0  0  0  0  0  0  0  0  0  0  0  0
   24.7588   -2.8153    0.0000 H   0  0  0  0  0  0  0  0  0  0  0  0
   25.3628   -1.2571    0.0000 H   0  0  0  0  0  0  0  0  0  0  0  0
   24.8185    0.6648    0.0000 H   0  0  0  0  0  0  0  0  0  0  0  0
   21.8485    1.5956    0.0000 H   0  0  0  0  0  0  0  0  0  0  0  0
   22.7853    3.2811    0.0000 H   0  0  0  0  0  0  0  0  0  0  0  0
   23.2724    4.8797    0.0000 H   0  0  0  0  0  0  0  0  0  0  0  0
   25.8457    6.4218    0.0000 H   0  0  0  0  0  0  0  0  0  0  0  0
   29.7789    4.2355    0.0000 H   0  0  0  0  0  0  0  0  0  0  0  0
   28.5167    1.9647    0.0000 H   0  0  0  0  0  0  0  0  0  0  0  0
   25.9434    0.4226    0.0000 H   0  0  0  0  0  0  0  0  0  0  0  0
   20.7235    1.8378    0.0000 H   0  0  0  0  0  0  0  0  0  0  0  0
   18.5159   -1.5977    0.0000 H   0  0  0  0  0  0  0  0  0  0  0  0
   20.4441   -1.5663    0.0000 H   0  0  0  0  0  0  0  0  0  0  0  0
   16.8880   -1.9752    0.0000 H   0  0  0  0  0  0  0  0  0  0  0  0
   16.4978    1.4180    0.0000 H   0  0  0  0  0  0  0  0  0  0  0  0
   14.2086    2.8425    0.0000 H   0  0  0  0  0  0  0  0  0  0  0  0
   15.8564    2.1576    0.0000 H   0  0  0  0  0  0  0  0  0  0  0  0
   11.8103    0.3310    0.0000 H   0  0  0  0  0  0  0  0  0  0  0  0
   12.9122   -0.3865    0.0000 H   0  0  0  0  0  0  0  0  0  0  0  0
   11.5783    3.6363    0.0000 H   0  0  0  0  0  0  0  0  0  0  0  0
   13.2973    3.1575    0.0000 H   0  0  0  0  0  0  0  0  0  0  0  0
    9.6758    0.8030    0.0000 H   0  0  0  0  0  0  0  0  0  0  0  0
    7.2031    3.9328    0.0000 H   0  0  0  0  0  0  0  0  0  0  0  0
    7.8510    1.3258    0.0000 H   0  0  0  0  0  0  0  0  0  0  0  0
    9.1659    5.6350    0.0000 H   0  0  0  0  0  0  0  0  0  0  0  0
   11.6214    4.7862    0.0000 H   0  0  0  0  0  0  0  0  0  0  0  0
   12.5681    1.6604    0.0000 H   0  0  0  0  0  0  0  0  0  0  0  0
   12.6509   -1.6932    0.0000 H   0  0  0  0  0  0  0  0  0  0  0  0
   10.4092   -3.1915    0.0000 H   0  0  0  0  0  0  0  0  0  0  0  0
   12.0338   -2.4533    0.0000 H   0  0  0  0  0  0  0  0  0  0  0  0
    8.0290   -0.6051    0.0000 H   0  0  0  0  0  0  0  0  0  0  0  0
    8.8295   -0.0459    0.0000 H   0  0  0  0  0  0  0  0  0  0  0  0
    7.9826   -4.1197    0.0000 H   0  0  0  0  0  0  0  0  0  0  0  0
    9.5086   -3.5360    0.0000 H   0  0  0  0  0  0  0  0  0  0  0  0
    5.4248   -1.8529    0.0000 H   0  0  0  0  0  0  0  0  0  0  0  0
    7.1284   -0.9496    0.0000 H   0  0  0  0  0  0  0  0  0  0  0  0
    4.4282   -3.1659    0.0000 H   0  0  0  0  0  0  0  0  0  0  0  0
    5.3795   -4.9988    0.0000 H   0  0  0  0  0  0  0  0  0  0  0  0
    7.0820   -4.4642    0.0000 H   0  0  0  0  0  0  0  0  0  0  0  0
    8.7311   -2.0634    0.0000 H   0  0  0  0  0  0  0  0  0  0  0  0
    8.7046    1.2911    0.0000 H   0  0  0  0  0  0  0  0  0  0  0  0
    6.4154    2.7156    0.0000 H   0  0  0  0  0  0  0  0  0  0  0  0
    8.2115    1.6965    0.0000 H   0  0  0  0  0  0  0  0  0  0  0  0
    4.1207    0.0531    0.0000 H   0  0  0  0  0  0  0  0  0  0  0  0
    5.1190   -0.5134    0.0000 H   0  0  0  0  0  0  0  0  0  0  0  0
    3.9598    3.5643    0.0000 H   0  0  0  0  0  0  0  0  0  0  0  0
    5.5041    3.0305    0.0000 H   0  0  0  0  0  0  0  0  0  0  0  0
    1.4772    1.2155    0.0000 H   0  0  0  0  0  0  0  0  0  0  0  0
    3.2094    0.3680    0.0000 H   0  0  0  0  0  0  0  0  0  0  0  0
    0.4383    2.4952    0.0000 H   0  0  0  0  0  0  0  0  0  0  0  0
    1.3295    4.3581    0.0000 H   0  0  0  0  0  0  0  0  0  0  0  0
    3.0485    3.8793    0.0000 H   0  0  0  0  0  0  0  0  0  0  0  0
    4.7749    1.5335    0.0000 H   0  0  0  0  0  0  0  0  0  0  0  0
    4.7122   -1.9314    0.0000 H   0  0  0  0  0  0  0  0  0  0  0  0
    2.6160   -3.3184    0.0000 H   0  0  0  0  0  0  0  0  0  0  0  0
    4.3197   -2.4150    0.0000 H   0  0  0  0  0  0  0  0  0  0  0  0
    0.1372   -0.8864    0.0000 H   0  0  0  0  0  0  0  0  0  0  0  0
    1.2152   -0.1333    0.0000 H   0  0  0  0  0  0  0  0  0  0  0  0
    0.0129   -4.1974    0.0000 H   0  0  0  0  0  0  0  0  0  0  0  0
    1.7154   -3.6629    0.0000 H   0  0  0  0  0  0  0  0  0  0  0  0
   -1.9808   -1.4275    0.0000 H   0  0  0  0  0  0  0  0  0  0  0  0
   -4.3502   -4.6362    0.0000 H   0  0  0  0  0  0  0  0  0  0  0  0
   -3.7875   -2.0095    0.0000 H   0  0  0  0  0  0  0  0  0  0  0  0
   -2.3331   -6.2736    0.0000 H   0  0  0  0  0  0  0  0  0  0  0  0
    0.0935   -5.3453    0.0000 H   0  0  0  0  0  0  0  0  0  0  0  0
    0.9380   -2.1903    0.0000 H   0  0  0  0  0  0  0  0  0  0  0  0
    0.7624    1.2707    0.0000 H   0  0  0  0  0  0  0  0  0  0  0  0
   -1.3778    2.5886    0.0000 H   0  0  0  0  0  0  0  0  0  0  0  0
    0.3544    1.7412    0.0000 H   0  0  0  0  0  0  0  0  0  0  0  0
   -3.7761    0.0772    0.0000 H   0  0  0  0  0  0  0  0  0  0  0  0
   -2.8542   -0.6067    0.0000 H   0  0  0  0  0  0  0  0  0  0  0  0
   -4.0081    3.3825    0.0000 H   0  0  0  0  0  0  0  0  0  0  0  0
   -2.2891    2.9036    0.0000 H   0  0  0  0  0  0  0  0  0  0  0  0
   -5.9106    0.5491    0.0000 H   0  0  0  0  0  0  0  0  0  0  0  0
   -8.3833    3.6789    0.0000 H   0  0  0  0  0  0  0  0  0  0  0  0
   -7.7354    1.0720    0.0000 H   0  0  0  0  0  0  0  0  0  0  0  0
   -6.4205    5.3811    0.0000 H   0  0  0  0  0  0  0  0  0  0  0  0
   -3.9650    4.5324    0.0000 H   0  0  0  0  0  0  0  0  0  0  0  0
   -3.0183    1.4066    0.0000 H   0  0  0  0  0  0  0  0  0  0  0  0
   -2.9355   -1.9470    0.0000 H   0  0  0  0  0  0  0  0  0  0  0  0
   -5.3536   -3.3961    0.0000 H   0  0  0  0  0  0  0  0  0  0  0  0
   -3.4152   -2.3683    0.0000 H   0  0  0  0  0  0  0  0  0  0  0  0
   -7.6560   -1.0133    0.0000 H   0  0  0  0  0  0  0  0  0  0  0  0
   -6.7569   -0.2997    0.0000 H   0  0  0  0  0  0  0  0  0  0  0  0
   -9.7168   -3.8349    0.0000 H   0  0  0  0  0  0  0  0  0  0  0  0
   -9.8405   -1.5602    0.0000 H   0  0  0  0  0  0  0  0  0  0  0  0
   -6.8552   -2.3172    0.0000 H   0  0  0  0  0  0  0  0  0  0  0  0
   -6.8818    1.0373    0.0000 H   0  0  0  0  0  0  0  0  0  0  0  0
   -9.1710    2.4617    0.0000 H   0  0  0  0  0  0  0  0  0  0  0  0
   -7.3749    1.4427    0.0000 H   0  0  0  0  0  0  0  0  0  0  0  0
  -11.5693   -0.0497    0.0000 H   0  0  0  0  0  0  0  0  0  0  0  0
  -10.6474   -0.7336    0.0000 H   0  0  0  0  0  0  0  0  0  0  0  0
  -11.8013    3.2556    0.0000 H   0  0  0  0  0  0  0  0  0  0  0  0
  -10.0823    2.7767    0.0000 H   0  0  0  0  0  0  0  0  0  0  0  0
  -13.7038    0.4222    0.0000 H   0  0  0  0  0  0  0  0  0  0  0  0
  -16.0310    3.6634    0.0000 H   0  0  0  0  0  0  0  0  0  0  0  0
  -15.5285    0.9451    0.0000 H   0  0  0  0  0  0  0  0  0  0  0  0
  -14.2137    5.2542    0.0000 H   0  0  0  0  0  0  0  0  0  0  0  0
  -11.7582    4.4055    0.0000 H   0  0  0  0  0  0  0  0  0  0  0  0
  -10.8114    1.2797    0.0000 H   0  0  0  0  0  0  0  0  0  0  0  0
  -10.7287   -2.0739    0.0000 H   0  0  0  0  0  0  0  0  0  0  0  0
  -12.9704   -3.5722    0.0000 H   0  0  0  0  0  0  0  0  0  0  0  0
  -11.3458   -2.8341    0.0000 H   0  0  0  0  0  0  0  0  0  0  0  0
  -15.4492   -1.1402    0.0000 H   0  0  0  0  0  0  0  0  0  0  0  0
  -14.5501   -0.4266    0.0000 H   0  0  0  0  0  0  0  0  0  0  0  0
  -15.5734   -4.4513    0.0000 H   0  0  0  0  0  0  0  0  0  0  0  0
  -13.8710   -3.9167    0.0000 H   0  0  0  0  0  0  0  0  0  0  0  0
  -17.5672   -1.6814    0.0000 H   0  0  0  0  0  0  0  0  0  0  0  0
  -19.9366   -4.8900    0.0000 H   0  0  0  0  0  0  0  0  0  0  0  0
  -19.3524   -2.2695    0.0000 H   0  0  0  0  0  0  0  0  0  0  0  0
  -17.9195   -6.5274    0.0000 H   0  0  0  0  0  0  0  0  0  0  0  0
  -15.4929   -5.5992    0.0000 H   0  0  0  0  0  0  0  0  0  0  0  0
  -14.6484   -2.4441    0.0000 H   0  0  0  0  0  0  0  0  0  0  0  0
  -14.6750    0.9104    0.0000 H   0  0  0  0  0  0  0  0  0  0  0  0
  -16.9642    2.3348    0.0000 H   0  0  0  0  0  0  0  0  0  0  0  0
  -15.1681    1.3158    0.0000 H   0  0  0  0  0  0  0  0  0  0  0  0
  -19.5108    0.1577    0.0000 H   0  0  0  0  0  0  0  0  0  0  0  0
  -18.4406   -0.8605    0.0000 H   0  0  0  0  0  0  0  0  0  0  0  0
  -19.5945    3.1287    0.0000 H   0  0  0  0  0  0  0  0  0  0  0  0
  -18.1338    2.9087    0.0000 H   0  0  0  0  0  0  0  0  0  0  0  0
  -21.3499    0.1862    0.0000 H   0  0  0  0  0  0  0  0  0  0  0  0
  -23.9697    3.4251    0.0000 H   0  0  0  0  0  0  0  0  0  0  0  0
  -23.4769    0.8742    0.0000 H   0  0  0  0  0  0  0  0  0  0  0  0
  -22.0069    5.1273    0.0000 H   0  0  0  0  0  0  0  0  0  0  0  0
  -19.5970    4.4560    0.0000 H   0  0  0  0  0  0  0  0  0  0  0  0
  -18.6561   -2.1120    0.0000 H   0  0  0  0  0  0  0  0  0  0  0  0
  -20.7772   -1.8302    0.0000 H   0  0  0  0  0  0  0  0  0  0  0  0
  -21.5854   -0.9616    0.0000 H   0  0  0  0  0  0  0  0  0  0  0  0
  -21.8277    1.0311    0.0000 H   0  0  0  0  0  0  0  0  0  0  0  0
  -21.0680    2.3846    0.0000 H   0  0  0  0  0  0  0  0  0  0  0  0
  -19.7910    2.9783    0.0000 H   0  0  0  0  0  0  0  0  0  0  0  0
  -16.9498    1.5791    0.0000 H   0  0  0  0  0  0  0  0  0  0  0  0
  1  2  1  0
  2  3  1  0
  3  4  1  0
  4  5  2  0
  4  6  1  0
  6  7  1  0
  7  8  1  0
  8  9  1  0
  9 10  2  0
 10 11  1  0
 11 12  2  0
 12 13  1  0
 12 14  1  0
 14 15  2  0
  7 16  1  0
 16 17  2  0
 16 18  1  0
 18 19  1  0
 19 20  1  0
 20 21  2  0
 20 22  1  0
 22 23  1  0
 23 24  1  0
 24 25  1  0
 25 26  1  0
 26 27  1  0
 27 28  1  0
 28 29  2  3
 28 30  1  0
 23 31  1  0
 31 32  2  0
 31 33  1  0
 33 34  1  0
 34 35  1  0
 35 36  1  0
 36 37  1  0
 37 38  1  0
 38 39  1  0
 34 40  1  0
 40 41  2  0
 40 42  1  0
 42 43  1  0
 43 44  1  0
 44 45  1  0
 45 46  1  0
 46 47  1  0
 47 48  1  0
 43 49  1  0
 49 50  2  0
 49 51  1  0
 51 52  1  0
 52 53  1  0
 53 54  1  0
 54 55  1  0
 55 56  1  0
 56 57  1  0
 57 58  2  3
 57 59  1  0
 52 60  1  0
 60 61  2  0
 60 62  1  0
 62 63  1  0
 63 64  1  0
 64 65  1  0
 65 66  1  0
 66 67  1  0
 67 68  1  0
 68 69  2  3
 68 70  1  0
 63 71  1  0
 71 72  2  0
 71 73  1  0
 73 74  1  0
 74 75  1  0
 75 76  1  0
 76 77  1  0
 77 78  1  0
 77 79  2  0
 74 80  1  0
 80 81  2  0
 80 82  1  0
 82 83  1  0
 83 84  1  0
 84 85  1  0
 85 86  1  0
 86 87  1  0
 87 88  1  0
 88 89  2  3
 88 90  1  0
 83 91  1  0
 91 92  2  0
 91 93  1  0
 93 94  1  0
 94 95  1  0
 95 96  1  0
 96 97  1  0
 97 98  1  0
 98 99  1  0
 99100  2  3
 99101  1  0
 94102  1  0
102103  2  0
102104  1  0
104105  1  0
105106  1  0
106107  1  0
107108  1  0
108109  1  0
109110  1  0
110111  2  3
110112  1  0
105113  1  0
113114  2  0
113115  1  0
115116  1  0
116117  1  0
117118  1  0
118119  1  0
119120  1  0
120121  2  0
120122  1  0
 15  9  1  0
119115  1  0
  1123  1  0
  1124  1  0
  2125  1  0
  2126  1  0
  3127  1  0
  3128  1  0
  6129  1  0
  7130  1  6
  8131  1  0
  8132  1  0
 10133  1  0
 11134  1  0
 13135  1  0
 14136  1  0
 15137  1  0
 18138  1  0
 19139  1  0
 19140  1  0
 22141  1  0
 23142  1  6
 24143  1  0
 24144  1  0
 25145  1  0
 25146  1  0
 26147  1  0
 26148  1  0
 27149  1  0
 29150  1  0
 29151  1  0
 30152  1  0
 30153  1  0
 33154  1  0
 34155  1  1
 35156  1  0
 35157  1  0
 36158  1  0
 36159  1  0
 37160  1  0
 37161  1  0
 38162  1  0
 38163  1  0
 39164  1  0
 39165  1  0
 39166  1  0
 42167  1  0
 43168  1  6
 44169  1  0
 44170  1  0
 45171  1  0
 45172  1  0
 46173  1  0
 46174  1  0
 47175  1  0
 47176  1  0
 48177  1  0
 48178  1  0
 48179  1  0
 51180  1  0
 52181  1  1
 53182  1  0
 53183  1  0
 54184  1  0
 54185  1  0
 55186  1  0
 55187  1  0
 56188  1  0
 58189  1  0
 58190  1  0
 59191  1  0
 59192  1  0
 62193  1  0
 63194  1  6
 64195  1  0
 64196  1  0
 65197  1  0
 65198  1  0
 66199  1  0
 66200  1  0
 67201  1  0
 69202  1  0
 69203  1  0
 70204  1  0
 70205  1  0
 73206  1  0
 74207  1  1
 75208  1  0
 75209  1  0
 76210  1  0
 76211  1  0
 78212  1  0
 78213  1  0
 82214  1  0
 83215  1  6
 84216  1  0
 84217  1  0
 85218  1  0
 85219  1  0
 86220  1  0
 86221  1  0
 87222  1  0
 89223  1  0
 89224  1  0
 90225  1  0
 90226  1  0
 93227  1  0
 94228  1  1
 95229  1  0
 95230  1  0
 96231  1  0
 96232  1  0
 97233  1  0
 97234  1  0
 98235  1  0
100236  1  0
100237  1  0
101238  1  0
101239  1  0
104240  1  0
105241  1  6
106242  1  0
106243  1  0
107244  1  0
107245  1  0
108246  1  0
108247  1  0
109248  1  0
111249  1  0
111250  1  0
112251  1  0
112252  1  0
116253  1  0
116254  1  0
117255  1  0
117256  1  0
118257  1  0
118258  1  0
119259  1  0
M  CHG  8  29   1  39   1  48   1  58   1  69   1  89   1 100   1 111   1
M  CHG  1 122  -1
M  END
