
     RDKit          2D

248251  0  0  0  0  0  0  0  0999 V2000
  -23.4417   -9.1003    0.0000 N   0  0  0  0  0  0  0  0  0  0  0  0
  -21.9504   -9.2615    0.0000 C   0  0  0  0  0  0  0  0  0  0  0  0
  -21.0651   -8.0506    0.0000 C   0  0  0  0  0  0  0  0  0  0  0  0
  -19.5738   -8.2119    0.0000 C   0  0  0  0  0  0  0  0  0  0  0  0
  -19.3430   -8.9749    0.0000 O   0  0  0  0  0  0  0  0  0  0  0  0
  -18.6885   -7.0009    0.0000 N   0  0  0  0  0  0  0  0  0  0  0  0
  -17.1972   -7.1622    0.0000 C   0  0  0  0  0  0  0  0  0  0  0  0
  -17.6149   -8.6028    0.0000 C   0  0  0  0  0  0  0  0  0  0  0  0
  -15.7407   -6.8036    0.0000 C   0  0  0  0  0  0  0  0  0  0  0  0
  -14.8416   -8.0042    0.0000 O   0  0  0  0  0  0  0  0  0  0  0  0
  -15.3230   -5.3629    0.0000 N   0  0  0  0  0  0  0  0  0  0  0  0
  -13.8665   -5.0043    0.0000 C   0  0  0  0  0  0  0  0  0  0  0  0
  -12.6339   -5.8592    0.0000 C   0  0  0  0  0  0  0  0  0  0  0  0
  -11.2041   -6.3127    0.0000 C   0  0  0  0  0  0  0  0  0  0  0  0
   -9.7041   -6.3246    0.0000 C   0  0  0  0  0  0  0  0  0  0  0  0
   -8.2673   -5.8939    0.0000 C   0  0  0  0  0  0  0  0  0  0  0  0
  -14.3165   -6.4353    0.0000 C   0  0  0  0  0  0  0  0  0  0  0  0
  -14.7924   -3.8242    0.0000 C   0  0  0  0  0  0  0  0  0  0  0  0
  -16.1777   -4.3993    0.0000 O   0  0  0  0  0  0  0  0  0  0  0  0
  -15.3293   -2.4236    0.0000 N   0  0  0  0  0  0  0  0  0  0  0  0
  -15.4295   -0.9269    0.0000 C   0  0  0  0  0  0  0  0  0  0  0  0
  -16.7524   -1.6338    0.0000 C   0  0  0  0  0  0  0  0  0  0  0  0
  -17.7539   -2.7506    0.0000 O   0  0  0  0  0  0  0  0  0  0  0  0
  -18.0261   -0.8415    0.0000 C   0  0  0  0  0  0  0  0  0  0  0  0
  -15.0841    0.5328    0.0000 C   0  0  0  0  0  0  0  0  0  0  0  0
  -16.4760    1.0919    0.0000 O   0  0  0  0  0  0  0  0  0  0  0  0
  -14.3238    1.8258    0.0000 N   0  0  0  0  0  0  0  0  0  0  0  0
  -13.2161    2.8373    0.0000 C   0  0  0  0  0  0  0  0  0  0  0  0
  -14.5936    3.4309    0.0000 C   0  0  0  0  0  0  0  0  0  0  0  0
  -14.7683    4.9207    0.0000 C   0  0  0  0  0  0  0  0  0  0  0  0
  -16.1459    5.5143    0.0000 C   0  0  0  0  0  0  0  0  0  0  0  0
  -14.4229    6.3804    0.0000 C   0  0  0  0  0  0  0  0  0  0  0  0
  -11.8595    3.4773    0.0000 C   0  0  0  0  0  0  0  0  0  0  0  0
  -12.2902    4.9142    0.0000 O   0  0  0  0  0  0  0  0  0  0  0  0
  -10.3745    3.6891    0.0000 N   0  0  0  0  0  0  0  0  0  0  0  0
   -8.8931    3.4538    0.0000 C   0  0  0  0  0  0  0  0  0  0  0  0
   -9.2879    4.9009    0.0000 C   0  0  0  0  0  0  0  0  0  0  0  0
   -8.2320    5.9663    0.0000 C   0  0  0  0  0  0  0  0  0  0  0  0
   -6.7814    5.5846    0.0000 C   0  0  0  0  0  0  0  0  0  0  0  0
   -5.7256    6.6501    0.0000 C   0  0  0  0  0  0  0  0  0  0  0  0
   -6.1203    8.0972    0.0000 C   0  0  0  0  0  0  0  0  0  0  0  0
   -7.5710    8.4789    0.0000 C   0  0  0  0  0  0  0  0  0  0  0  0
   -8.6268    7.4134    0.0000 C   0  0  0  0  0  0  0  0  0  0  0  0
   -7.5469    2.7922    0.0000 C   0  0  0  0  0  0  0  0  0  0  0  0
   -6.5482    3.9114    0.0000 O   0  0  0  0  0  0  0  0  0  0  0  0
   -6.4555    1.7633    0.0000 N   0  0  0  0  0  0  0  0  0  0  0  0
   -5.7158    0.4583    0.0000 C   0  0  0  0  0  0  0  0  0  0  0  0
   -5.3937   -1.0067    0.0000 C   0  0  0  0  0  0  0  0  0  0  0  0
   -5.5176   -2.5016    0.0000 C   0  0  0  0  0  0  0  0  0  0  0  0
   -6.0767   -3.8935    0.0000 C   0  0  0  0  0  0  0  0  0  0  0  0
   -7.0213   -5.0588    0.0000 C   0  0  0  0  0  0  0  0  0  0  0  0
   -4.2212    0.3306    0.0000 C   0  0  0  0  0  0  0  0  0  0  0  0
   -4.8305    1.6692    0.0000 C   0  0  0  0  0  0  0  0  0  0  0  0
   -5.2648    3.1050    0.0000 O   0  0  0  0  0  0  0  0  0  0  0  0
   -3.3392    1.5080    0.0000 N   0  0  0  0  0  0  0  0  0  0  0  0
   -2.4540    2.7189    0.0000 C   0  0  0  0  0  0  0  0  0  0  0  0
   -2.0362    4.1596    0.0000 C   0  0  0  0  0  0  0  0  0  0  0  0
   -2.1364    5.6562    0.0000 O   0  0  0  0  0  0  0  0  0  0  0  0
   -0.6343    4.6930    0.0000 C   0  0  0  0  0  0  0  0  0  0  0  0
   -0.9626    2.5577    0.0000 C   0  0  0  0  0  0  0  0  0  0  0  0
   -0.5284    1.1219    0.0000 O   0  0  0  0  0  0  0  0  0  0  0  0
   -0.0774    3.7686    0.0000 N   0  0  0  0  0  0  0  0  0  0  0  0
    1.4139    3.6074    0.0000 C   0  0  0  0  0  0  0  0  0  0  0  0
    2.7602    2.9458    0.0000 C   0  0  0  0  0  0  0  0  0  0  0  0
    2.8604    1.4492    0.0000 C   0  0  0  0  0  0  0  0  0  0  0  0
    1.6143    0.6141    0.0000 C   0  0  0  0  0  0  0  0  0  0  0  0
    1.7145   -0.8826    0.0000 C   0  0  0  0  0  0  0  0  0  0  0  0
    3.0608   -1.5441    0.0000 C   0  0  0  0  0  0  0  0  0  0  0  0
    4.3068   -0.7090    0.0000 C   0  0  0  0  0  0  0  0  0  0  0  0
    4.2066    0.7876    0.0000 C   0  0  0  0  0  0  0  0  0  0  0  0
    2.2992    4.8183    0.0000 C   0  0  0  0  0  0  0  0  0  0  0  0
    1.5304    6.1063    0.0000 O   0  0  0  0  0  0  0  0  0  0  0  0
    3.7905    4.6571    0.0000 N   0  0  0  0  0  0  0  0  0  0  0  0
    4.6758    5.8680    0.0000 C   0  0  0  0  0  0  0  0  0  0  0  0
    5.0935    7.3087    0.0000 C   0  0  0  0  0  0  0  0  0  0  0  0
    4.0547    8.3907    0.0000 C   0  0  0  0  0  0  0  0  0  0  0  0
    2.5982    8.0322    0.0000 C   0  0  0  0  0  0  0  0  0  0  0  0
    1.5594    9.1143    0.0000 C   0  0  0  0  0  0  0  0  0  0  0  0
    1.9772   10.5549    0.0000 C   0  0  0  0  0  0  0  0  0  0  0  0
    0.9384   11.6370    0.0000 O   0  0  0  0  0  0  0  0  0  0  0  0
    3.4337   10.9135    0.0000 C   0  0  0  0  0  0  0  0  0  0  0  0
    4.4725    9.8314    0.0000 C   0  0  0  0  0  0  0  0  0  0  0  0
    6.1671    5.7068    0.0000 C   0  0  0  0  0  0  0  0  0  0  0  0
    7.1934    6.8008    0.0000 O   0  0  0  0  0  0  0  0  0  0  0  0
    6.7731    4.3347    0.0000 N   0  0  0  0  0  0  0  0  0  0  0  0
    8.2645    4.1735    0.0000 C   0  0  0  0  0  0  0  0  0  0  0  0
    9.7210    4.5320    0.0000 C   0  0  0  0  0  0  0  0  0  0  0  0
   10.1387    5.9727    0.0000 C   0  0  0  0  0  0  0  0  0  0  0  0
   11.5952    6.3313    0.0000 C   0  0  0  0  0  0  0  0  0  0  0  0
   10.0385    7.4693    0.0000 C   0  0  0  0  0  0  0  0  0  0  0  0
    8.8705    2.8013    0.0000 C   0  0  0  0  0  0  0  0  0  0  0  0
    7.9852    1.5904    0.0000 O   0  0  0  0  0  0  0  0  0  0  0  0
   10.3618    2.6401    0.0000 N   0  0  0  0  0  0  0  0  0  0  0  0
   10.9679    1.2680    0.0000 C   0  0  0  0  0  0  0  0  0  0  0  0
   12.4592    1.1068    0.0000 C   0  0  0  0  0  0  0  0  0  0  0  0
   13.3444    2.3177    0.0000 O   0  0  0  0  0  0  0  0  0  0  0  0
   13.0652   -0.2653    0.0000 N   0  0  0  0  0  0  0  0  0  0  0  0
   14.5565   -0.4265    0.0000 C   0  0  0  0  0  0  0  0  0  0  0  0
   15.1626   -1.7987    0.0000 C   0  0  0  0  0  0  0  0  0  0  0  0
   14.2773   -3.0096    0.0000 O   0  0  0  0  0  0  0  0  0  0  0  0
   16.6539   -1.9599    0.0000 N   0  0  0  0  0  0  0  0  0  0  0  0
   17.2599   -3.3320    0.0000 C   0  0  0  0  0  0  0  0  0  0  0  0
   17.3601   -4.8286    0.0000 C   0  0  0  0  0  0  0  0  0  0  0  0
   18.7064   -5.4902    0.0000 C   0  0  0  0  0  0  0  0  0  0  0  0
   18.8066   -6.9868    0.0000 C   0  0  0  0  0  0  0  0  0  0  0  0
   20.1977   -5.6514    0.0000 C   0  0  0  0  0  0  0  0  0  0  0  0
   18.7512   -3.4932    0.0000 C   0  0  0  0  0  0  0  0  0  0  0  0
   19.6365   -2.2823    0.0000 O   0  0  0  0  0  0  0  0  0  0  0  0
   19.3573   -4.8653    0.0000 N   0  0  0  0  0  0  0  0  0  0  0  0
   20.8486   -5.0265    0.0000 C   0  0  0  0  0  0  0  0  0  0  0  0
   22.3051   -4.6680    0.0000 C   0  0  0  0  0  0  0  0  0  0  0  0
   22.7228   -3.2273    0.0000 C   0  0  0  0  0  0  0  0  0  0  0  0
   24.1793   -2.8687    0.0000 C   0  0  0  0  0  0  0  0  0  0  0  0
   22.6226   -1.7306    0.0000 C   0  0  0  0  0  0  0  0  0  0  0  0
   21.4546   -6.3986    0.0000 C   0  0  0  0  0  0  0  0  0  0  0  0
   20.7236   -7.7084    0.0000 O   0  0  0  0  0  0  0  0  0  0  0  0
   22.9459   -6.5599    0.0000 N   0  0  0  0  0  0  0  0  0  0  0  0
   23.5520   -7.9320    0.0000 C   0  0  0  0  0  0  0  0  0  0  0  0
   25.0433   -8.0932    0.0000 C   0  0  0  0  0  0  0  0  0  0  0  0
   25.6493   -9.4653    0.0000 O   0  0  0  0  0  0  0  0  0  0  0  0
   25.9286   -6.8823    0.0000 O   0  0  0  0  0  0  0  0  0  0  0  0
  -24.3270  -10.3112    0.0000 H   0  0  0  0  0  0  0  0  0  0  0  0
  -24.0477   -7.7282    0.0000 H   0  0  0  0  0  0  0  0  0  0  0  0
  -22.3681  -10.7022    0.0000 H   0  0  0  0  0  0  0  0  0  0  0  0
  -20.6041   -9.9231    0.0000 H   0  0  0  0  0  0  0  0  0  0  0  0
  -22.4114   -7.3891    0.0000 H   0  0  0  0  0  0  0  0  0  0  0  0
  -20.6474   -6.6100    0.0000 H   0  0  0  0  0  0  0  0  0  0  0  0
  -19.2946   -5.6288    0.0000 H   0  0  0  0  0  0  0  0  0  0  0  0
  -17.2974   -5.6655    0.0000 H   0  0  0  0  0  0  0  0  0  0  0  0
  -18.3600   -8.8863    0.0000 H   0  0  0  0  0  0  0  0  0  0  0  0
  -17.5147  -10.0995    0.0000 H   0  0  0  0  0  0  0  0  0  0  0  0
  -16.1236   -8.7640    0.0000 H   0  0  0  0  0  0  0  0  0  0  0  0
  -16.4859   -4.4155    0.0000 H   0  0  0  0  0  0  0  0  0  0  0  0
  -12.4592   -7.3489    0.0000 H   0  0  0  0  0  0  0  0  0  0  0  0
  -13.8163   -6.7821    0.0000 H   0  0  0  0  0  0  0  0  0  0  0  0
  -10.7698   -7.7484    0.0000 H   0  0  0  0  0  0  0  0  0  0  0  0
  -12.0619   -7.5432    0.0000 H   0  0  0  0  0  0  0  0  0  0  0  0
   -8.7206   -7.4571    0.0000 H   0  0  0  0  0  0  0  0  0  0  0  0
  -10.1612   -7.7533    0.0000 H   0  0  0  0  0  0  0  0  0  0  0  0
   -7.6272   -7.2504    0.0000 H   0  0  0  0  0  0  0  0  0  0  0  0
  -15.3834   -7.2641    0.0000 H   0  0  0  0  0  0  0  0  0  0  0  0
  -13.7074   -7.8953    0.0000 H   0  0  0  0  0  0  0  0  0  0  0  0
  -12.7703   -7.0890    0.0000 H   0  0  0  0  0  0  0  0  0  0  0  0
  -16.7943   -2.7457    0.0000 H   0  0  0  0  0  0  0  0  0  0  0  0
  -16.4975    0.1263    0.0000 H   0  0  0  0  0  0  0  0  0  0  0  0
  -16.1396   -3.0029    0.0000 H   0  0  0  0  0  0  0  0  0  0  0  0
  -19.2484   -2.6229    0.0000 H   0  0  0  0  0  0  0  0  0  0  0  0
  -19.4254   -1.3819    0.0000 H   0  0  0  0  0  0  0  0  0  0  0  0
  -18.9520    0.3386    0.0000 H   0  0  0  0  0  0  0  0  0  0  0  0
  -17.1683    0.3890    0.0000 H   0  0  0  0  0  0  0  0  0  0  0  0
  -15.4890    2.7703    0.0000 H   0  0  0  0  0  0  0  0  0  0  0  0
  -13.0586    4.3290    0.0000 H   0  0  0  0  0  0  0  0  0  0  0  0
  -16.0905    3.3344    0.0000 H   0  0  0  0  0  0  0  0  0  0  0  0
  -15.2820    2.0982    0.0000 H   0  0  0  0  0  0  0  0  0  0  0  0
  -13.2714    5.0172    0.0000 H   0  0  0  0  0  0  0  0  0  0  0  0
  -16.5008    6.9717    0.0000 H   0  0  0  0  0  0  0  0  0  0  0  0
  -17.6434    5.6010    0.0000 H   0  0  0  0  0  0  0  0  0  0  0  0
  -16.6666    4.1076    0.0000 H   0  0  0  0  0  0  0  0  0  0  0  0
  -15.3808    7.5347    0.0000 H   0  0  0  0  0  0  0  0  0  0  0  0
  -13.5991    7.6339    0.0000 H   0  0  0  0  0  0  0  0  0  0  0  0
  -13.0454    5.7868    0.0000 H   0  0  0  0  0  0  0  0  0  0  0  0
  -10.3626    5.1891    0.0000 H   0  0  0  0  0  0  0  0  0  0  0  0
   -7.7364    4.4088    0.0000 H   0  0  0  0  0  0  0  0  0  0  0  0
  -10.1538    6.1257    0.0000 H   0  0  0  0  0  0  0  0  0  0  0  0
  -10.7590    4.6081    0.0000 H   0  0  0  0  0  0  0  0  0  0  0  0
   -6.2132    4.1964    0.0000 H   0  0  0  0  0  0  0  0  0  0  0  0
   -4.2749    6.2684    0.0000 H   0  0  0  0  0  0  0  0  0  0  0  0
   -5.0645    9.1627    0.0000 H   0  0  0  0  0  0  0  0  0  0  0  0
   -7.9657    9.9260    0.0000 H   0  0  0  0  0  0  0  0  0  0  0  0
  -10.0774    7.7951    0.0000 H   0  0  0  0  0  0  0  0  0  0  0  0
   -5.3970    2.8261    0.0000 H   0  0  0  0  0  0  0  0  0  0  0  0
   -4.0905   -0.2638    0.0000 H   0  0  0  0  0  0  0  0  0  0  0  0
   -4.0821   -1.7345    0.0000 H   0  0  0  0  0  0  0  0  0  0  0  0
   -4.0534   -2.1758    0.0000 H   0  0  0  0  0  0  0  0  0  0  0  0
   -4.3547   -3.4490    0.0000 H   0  0  0  0  0  0  0  0  0  0  0  0
   -4.5816   -4.0138    0.0000 H   0  0  0  0  0  0  0  0  0  0  0  0
   -5.4030   -5.2337    0.0000 H   0  0  0  0  0  0  0  0  0  0  0  0
   -6.0098   -6.1664    0.0000 H   0  0  0  0  0  0  0  0  0  0  0  0
   -3.0491    1.0025    0.0000 H   0  0  0  0  0  0  0  0  0  0  0  0
   -3.1022   -0.7876    0.0000 H   0  0  0  0  0  0  0  0  0  0  0  0
   -4.2042   -1.3480    0.0000 H   0  0  0  0  0  0  0  0  0  0  0  0
   -2.5704    0.2200    0.0000 H   0  0  0  0  0  0  0  0  0  0  0  0
   -3.8002    3.3804    0.0000 H   0  0  0  0  0  0  0  0  0  0  0  0
   -3.5275    4.3208    0.0000 H   0  0  0  0  0  0  0  0  0  0  0  0
   -1.0015    6.6370    0.0000 H   0  0  0  0  0  0  0  0  0  0  0  0
    0.0105    5.8971    0.0000 H   0  0  0  0  0  0  0  0  0  0  0  0
    0.9116    4.3569    0.0000 H   0  0  0  0  0  0  0  0  0  0  0  0
    0.2115    3.2438    0.0000 H   0  0  0  0  0  0  0  0  0  0  0  0
   -0.5116    5.2044    0.0000 H   0  0  0  0  0  0  0  0  0  0  0  0
    0.9962    2.1667    0.0000 H   0  0  0  0  0  0  0  0  0  0  0  0
    4.2207    2.6040    0.0000 H   0  0  0  0  0  0  0  0  0  0  0  0
    3.5141    4.2426    0.0000 H   0  0  0  0  0  0  0  0  0  0  0  0
    0.1975    1.1066    0.0000 H   0  0  0  0  0  0  0  0  0  0  0  0
    0.4685   -1.7177    0.0000 H   0  0  0  0  0  0  0  0  0  0  0  0
    3.1610   -3.0408    0.0000 H   0  0  0  0  0  0  0  0  0  0  0  0
    5.6531   -1.3706    0.0000 H   0  0  0  0  0  0  0  0  0  0  0  0
    5.4527    1.6227    0.0000 H   0  0  0  0  0  0  0  0  0  0  0  0
    4.5593    3.3691    0.0000 H   0  0  0  0  0  0  0  0  0  0  0  0
    3.3296    6.5295    0.0000 H   0  0  0  0  0  0  0  0  0  0  0  0
    5.9788    8.5196    0.0000 H   0  0  0  0  0  0  0  0  0  0  0  0
    6.5104    6.8161    0.0000 H   0  0  0  0  0  0  0  0  0  0  0  0
    2.0080    6.6532    0.0000 H   0  0  0  0  0  0  0  0  0  0  0  0
    0.1029    8.7557    0.0000 H   0  0  0  0  0  0  0  0  0  0  0  0
    1.3561   13.0777    0.0000 H   0  0  0  0  0  0  0  0  0  0  0  0
    3.8514   12.3542    0.0000 H   0  0  0  0  0  0  0  0  0  0  0  0
    5.9290   10.1900    0.0000 H   0  0  0  0  0  0  0  0  0  0  0  0
    5.8879    3.1238    0.0000 H   0  0  0  0  0  0  0  0  0  0  0  0
    7.9826    5.6467    0.0000 H   0  0  0  0  0  0  0  0  0  0  0  0
   11.2123    4.3708    0.0000 H   0  0  0  0  0  0  0  0  0  0  0  0
   10.1803    3.1041    0.0000 H   0  0  0  0  0  0  0  0  0  0  0  0
    8.6782    6.3145    0.0000 H   0  0  0  0  0  0  0  0  0  0  0  0
   12.1854    7.7103    0.0000 H   0  0  0  0  0  0  0  0  0  0  0  0
   13.0865    6.1700    0.0000 H   0  0  0  0  0  0  0  0  0  0  0  0
   11.8771    4.8580    0.0000 H   0  0  0  0  0  0  0  0  0  0  0  0
   11.1734    8.4501    0.0000 H   0  0  0  0  0  0  0  0  0  0  0  0
    9.4324    8.8415    0.0000 H   0  0  0  0  0  0  0  0  0  0  0  0
    8.5820    7.1108    0.0000 H   0  0  0  0  0  0  0  0  0  0  0  0
   11.3881    3.7341    0.0000 H   0  0  0  0  0  0  0  0  0  0  0  0
   11.0681   -0.2286    0.0000 H   0  0  0  0  0  0  0  0  0  0  0  0
    9.5113    0.9094    0.0000 H   0  0  0  0  0  0  0  0  0  0  0  0
   12.1799   -1.4762    0.0000 H   0  0  0  0  0  0  0  0  0  0  0  0
   16.0130   -0.0680    0.0000 H   0  0  0  0  0  0  0  0  0  0  0  0
   14.4563    1.0701    0.0000 H   0  0  0  0  0  0  0  0  0  0  0  0
   17.5391   -0.7490    0.0000 H   0  0  0  0  0  0  0  0  0  0  0  0
   15.8034   -3.6906    0.0000 H   0  0  0  0  0  0  0  0  0  0  0  0
   16.7699   -6.2076    0.0000 H   0  0  0  0  0  0  0  0  0  0  0  0
   15.8688   -4.6674    0.0000 H   0  0  0  0  0  0  0  0  0  0  0  0
   19.7517   -4.4144    0.0000 H   0  0  0  0  0  0  0  0  0  0  0  0
   19.9527   -7.9545    0.0000 H   0  0  0  0  0  0  0  0  0  0  0  0
   18.3888   -8.4275    0.0000 H   0  0  0  0  0  0  0  0  0  0  0  0
   17.3067   -7.0086    0.0000 H   0  0  0  0  0  0  0  0  0  0  0  0
   21.3496   -4.6907    0.0000 H   0  0  0  0  0  0  0  0  0  0  0  0
   21.2173   -6.7515    0.0000 H   0  0  0  0  0  0  0  0  0  0  0  0
   19.9587   -7.1322    0.0000 H   0  0  0  0  0  0  0  0  0  0  0  0
   18.7913   -6.2544    0.0000 H   0  0  0  0  0  0  0  0  0  0  0  0
   20.5667   -3.5532    0.0000 H   0  0  0  0  0  0  0  0  0  0  0  0
   23.7964   -4.8292    0.0000 H   0  0  0  0  0  0  0  0  0  0  0  0
   22.9351   -6.0292    0.0000 H   0  0  0  0  0  0  0  0  0  0  0  0
   21.2623   -2.8855    0.0000 H   0  0  0  0  0  0  0  0  0  0  0  0
   24.7696   -1.4897    0.0000 H   0  0  0  0  0  0  0  0  0  0  0  0
   25.6706   -3.0299    0.0000 H   0  0  0  0  0  0  0  0  0  0  0  0
   24.4612   -4.3420    0.0000 H   0  0  0  0  0  0  0  0  0  0  0  0
   23.7576   -0.7499    0.0000 H   0  0  0  0  0  0  0  0  0  0  0  0
   22.0166   -0.3585    0.0000 H   0  0  0  0  0  0  0  0  0  0  0  0
   21.1661   -2.0892    0.0000 H   0  0  0  0  0  0  0  0  0  0  0  0
   23.9722   -5.4659    0.0000 H   0  0  0  0  0  0  0  0  0  0  0  0
   23.6522   -9.4286    0.0000 H   0  0  0  0  0  0  0  0  0  0  0  0
   22.0955   -8.2905    0.0000 H   0  0  0  0  0  0  0  0  0  0  0  0
  1  2  1  0
  2  3  1  0
  3  4  1  0
  4  5  2  0
  4  6  1  0
  6  7  1  0
  7  8  1  0
  7  9  1  0
  9 10  2  0
  9 11  1  0
 12 11  1  6
 12 13  1  0
 13 14  1  0
 14 15  1  0
 15 16  1  0
 12 17  1  0
 12 18  1  0
 18 19  2  0
 18 20  1  0
 20 21  1  0
 21 22  1  0
 22 23  1  0
 22 24  1  0
 21 25  1  0
 25 26  2  0
 25 27  1  0
 27 28  1  0
 28 29  1  0
 29 30  1  0
 30 31  1  0
 30 32  1  0
 28 33  1  0
 33 34  2  0
 33 35  1  0
 35 36  1  0
 36 37  1  0
 37 38  1  0
 38 39  2  0
 39 40  1  0
 40 41  2  0
 41 42  1  0
 42 43  2  0
 36 44  1  0
 44 45  2  0
 44 46  1  0
 46 47  1  0
 47 48  1  0
 48 49  1  0
 49 50  1  0
 50 51  1  0
 47 52  1  0
 47 53  1  6
 53 54  2  0
 53 55  1  0
 55 56  1  0
 56 57  1  0
 57 58  1  0
 57 59  1  0
 56 60  1  0
 60 61  2  0
 60 62  1  0
 62 63  1  0
 63 64  1  0
 64 65  1  0
 65 66  2  0
 66 67  1  0
 67 68  2  0
 68 69  1  0
 69 70  2  0
 63 71  1  0
 71 72  2  0
 71 73  1  0
 73 74  1  0
 74 75  1  0
 75 76  1  0
 76 77  2  0
 77 78  1  0
 78 79  2  0
 79 80  1  0
 79 81  1  0
 81 82  2  0
 74 83  1  0
 83 84  2  0
 83 85  1  0
 85 86  1  0
 86 87  1  0
 87 88  1  0
 88 89  1  0
 88 90  1  0
 86 91  1  0
 91 92  2  0
 91 93  1  0
 93 94  1  0
 94 95  1  0
 95 96  2  0
 95 97  1  0
 97 98  1  0
 98 99  1  0
 99100  2  0
 99101  1  0
101102  1  0
102103  1  0
103104  1  0
104105  1  0
104106  1  0
102107  1  0
107108  2  0
107109  1  0
109110  1  0
110111  1  0
111112  1  0
112113  1  0
112114  1  0
110115  1  0
115116  2  0
115117  1  0
117118  1  0
118119  1  0
119120  2  0
119121  1  0
 43 38  1  0
 70 65  1  0
 82 76  1  0
 16 51  2  0
  1122  1  0
  1123  1  0
  2124  1  0
  2125  1  0
  3126  1  0
  3127  1  0
  6128  1  0
  7129  1  6
  8130  1  0
  8131  1  0
  8132  1  0
 11133  1  0
 13134  1  0
 13135  1  0
 14136  1  0
 14137  1  0
 15138  1  0
 15139  1  0
 16140  1  0
 17141  1  0
 17142  1  0
 17143  1  0
 20144  1  0
 21145  1  1
 22146  1  1
 23147  1  0
 24148  1  0
 24149  1  0
 24150  1  0
 27151  1  0
 28152  1  1
 29153  1  0
 29154  1  0
 30155  1  0
 31156  1  0
 31157  1  0
 31158  1  0
 32159  1  0
 32160  1  0
 32161  1  0
 35162  1  0
 36163  1  1
 37164  1  0
 37165  1  0
 39166  1  0
 40167  1  0
 41168  1  0
 42169  1  0
 43170  1  0
 46171  1  0
 48172  1  0
 48173  1  0
 49174  1  0
 49175  1  0
 50176  1  0
 50177  1  0
 51178  1  0
 52179  1  0
 52180  1  0
 52181  1  0
 55182  1  0
 56183  1  1
 57184  1  1
 58185  1  0
 59186  1  0
 59187  1  0
 59188  1  0
 62189  1  0
 63190  1  6
 64191  1  0
 64192  1  0
 66193  1  0
 67194  1  0
 68195  1  0
 69196  1  0
 70197  1  0
 73198  1  0
 74199  1  1
 75200  1  0
 75201  1  0
 77202  1  0
 78203  1  0
 80204  1  0
 81205  1  0
 82206  1  0
 85207  1  0
 86208  1  1
 87209  1  0
 87210  1  0
 88211  1  0
 89212  1  0
 89213  1  0
 89214  1  0
 90215  1  0
 90216  1  0
 90217  1  0
 93218  1  0
 94219  1  0
 94220  1  0
 97221  1  0
 98222  1  0
 98223  1  0
101224  1  0
102225  1  6
103226  1  0
103227  1  0
104228  1  0
105229  1  0
105230  1  0
105231  1  0
106232  1  0
106233  1  0
106234  1  0
109235  1  0
110236  1  1
111237  1  0
111238  1  0
112239  1  0
113240  1  0
113241  1  0
113242  1  0
114243  1  0
114244  1  0
114245  1  0
117246  1  0
118247  1  0
118248  1  0
M  CHG  1 121  -1
M  END
