
     RDKit          2D

282283  0  0  0  0  0  0  0  0999 V2000
   19.5095  -10.4157    0.0000 N   0  0  0  0  0  0  0  0  0  0  0  0
   18.2057   -9.6740    0.0000 C   0  0  0  0  0  0  0  0  0  0  0  0
   16.9115  -10.4322    0.0000 C   0  0  0  0  0  0  0  0  0  0  0  0
   15.6077   -9.6904    0.0000 C   0  0  0  0  0  0  0  0  0  0  0  0
   15.5982   -8.1905    0.0000 O   0  0  0  0  0  0  0  0  0  0  0  0
   14.3135  -10.4487    0.0000 N   0  0  0  0  0  0  0  0  0  0  0  0
   13.0097   -9.7069    0.0000 C   0  0  0  0  0  0  0  0  0  0  0  0
   12.5056  -11.1197    0.0000 C   0  0  0  0  0  0  0  0  0  0  0  0
   11.0301  -11.3895    0.0000 C   0  0  0  0  0  0  0  0  0  0  0  0
   10.5260  -12.8023    0.0000 C   0  0  0  0  0  0  0  0  0  0  0  0
    9.0505  -13.0721    0.0000 C   0  0  0  0  0  0  0  0  0  0  0  0
    8.0790  -11.9292    0.0000 C   0  0  0  0  0  0  0  0  0  0  0  0
    8.5831  -10.5164    0.0000 C   0  0  0  0  0  0  0  0  0  0  0  0
   10.0586  -10.2466    0.0000 C   0  0  0  0  0  0  0  0  0  0  0  0
   12.0382   -8.5640    0.0000 C   0  0  0  0  0  0  0  0  0  0  0  0
   11.2541   -8.7074    0.0000 O   0  0  0  0  0  0  0  0  0  0  0  0
   12.5423   -7.1512    0.0000 N   0  0  0  0  0  0  0  0  0  0  0  0
   11.5709   -6.0083    0.0000 C   0  0  0  0  0  0  0  0  0  0  0  0
   10.6140   -7.1635    0.0000 C   0  0  0  0  0  0  0  0  0  0  0  0
    9.1352   -6.9124    0.0000 C   0  0  0  0  0  0  0  0  0  0  0  0
    8.1783   -8.0675    0.0000 N   0  0  0  0  0  0  0  0  0  0  0  0
    8.6132   -5.5061    0.0000 O   0  0  0  0  0  0  0  0  0  0  0  0
   11.0489   -4.6021    0.0000 C   0  0  0  0  0  0  0  0  0  0  0  0
    9.5701   -4.3510    0.0000 O   0  0  0  0  0  0  0  0  0  0  0  0
   12.0058   -3.4469    0.0000 N   0  0  0  0  0  0  0  0  0  0  0  0
   11.4838   -2.0406    0.0000 C   0  0  0  0  0  0  0  0  0  0  0  0
   12.9593   -1.7708    0.0000 C   0  0  0  0  0  0  0  0  0  0  0  0
   13.7842   -3.0236    0.0000 C   0  0  0  0  0  0  0  0  0  0  0  0
   14.2536   -1.0126    0.0000 C   0  0  0  0  0  0  0  0  0  0  0  0
   15.5574   -1.7543    0.0000 C   0  0  0  0  0  0  0  0  0  0  0  0
   10.5123   -0.8977    0.0000 C   0  0  0  0  0  0  0  0  0  0  0  0
   11.1849    0.4431    0.0000 O   0  0  0  0  0  0  0  0  0  0  0  0
    9.0368   -1.1676    0.0000 N   0  0  0  0  0  0  0  0  0  0  0  0
    8.0654   -0.0246    0.0000 C   0  0  0  0  0  0  0  0  0  0  0  0
    7.4727   -1.4026    0.0000 C   0  0  0  0  0  0  0  0  0  0  0  0
    6.6300   -2.6435    0.0000 C   0  0  0  0  0  0  0  0  0  0  0  0
    5.5676   -3.7024    0.0000 C   0  0  0  0  0  0  0  0  0  0  0  0
    4.3241   -4.5412    0.0000 C   0  0  0  0  0  0  0  0  0  0  0  0
    2.9442   -5.1295    0.0000 C   0  0  0  0  0  0  0  0  0  0  0  0
    1.4780   -5.4460    0.0000 C   0  0  0  0  0  0  0  0  0  0  0  0
   -0.0216   -5.4793    0.0000 C   0  0  0  0  0  0  0  0  0  0  0  0
    9.5208    0.3383    0.0000 C   0  0  0  0  0  0  0  0  0  0  0  0
    8.3865    1.4406    0.0000 C   0  0  0  0  0  0  0  0  0  0  0  0
    9.8865    1.4430    0.0000 O   0  0  0  0  0  0  0  0  0  0  0  0
    8.4246    2.9401    0.0000 N   0  0  0  0  0  0  0  0  0  0  0  0
    8.1782    4.4197    0.0000 C   0  0  0  0  0  0  0  0  0  0  0  0
    9.2064    5.5119    0.0000 C   0  0  0  0  0  0  0  0  0  0  0  0
   10.6664    5.1675    0.0000 C   0  0  0  0  0  0  0  0  0  0  0  0
   11.6946    6.2596    0.0000 O   0  0  0  0  0  0  0  0  0  0  0  0
   11.0981    3.7310    0.0000 O   0  0  0  0  0  0  0  0  0  0  0  0
    7.6563    5.8260    0.0000 C   0  0  0  0  0  0  0  0  0  0  0  0
    8.9168    6.6390    0.0000 O   0  0  0  0  0  0  0  0  0  0  0  0
    6.8776    7.1080    0.0000 N   0  0  0  0  0  0  0  0  0  0  0  0
    5.8704    8.2196    0.0000 C   0  0  0  0  0  0  0  0  0  0  0  0
    6.1449    9.6942    0.0000 C   0  0  0  0  0  0  0  0  0  0  0  0
    7.5593   10.1938    0.0000 C   0  0  0  0  0  0  0  0  0  0  0  0
    7.8338   11.6685    0.0000 C   0  0  0  0  0  0  0  0  0  0  0  0
    9.2481   12.1681    0.0000 N   0  0  0  0  0  0  0  0  0  0  0  0
    9.5227   13.6427    0.0000 C   0  0  0  0  0  0  0  0  0  0  0  0
   10.9370   14.1423    0.0000 N   0  0  0  0  0  0  0  0  0  0  0  0
    8.3828   14.6178    0.0000 N   0  0  0  0  0  0  0  0  0  0  0  0
    4.6710    9.1204    0.0000 C   0  0  0  0  0  0  0  0  0  0  0  0
    5.2919   10.4858    0.0000 O   0  0  0  0  0  0  0  0  0  0  0  0
    3.3228    9.7780    0.0000 N   0  0  0  0  0  0  0  0  0  0  0  0
    1.8745   10.1685    0.0000 C   0  0  0  0  0  0  0  0  0  0  0  0
    1.3082   11.5575    0.0000 C   0  0  0  0  0  0  0  0  0  0  0  0
    2.3655   12.6215    0.0000 C   0  0  0  0  0  0  0  0  0  0  0  0
    0.3010   12.6690    0.0000 C   0  0  0  0  0  0  0  0  0  0  0  0
    0.7600   14.0970    0.0000 C   0  0  0  0  0  0  0  0  0  0  0  0
    0.3785   10.2779    0.0000 C   0  0  0  0  0  0  0  0  0  0  0  0
    0.3452   11.7775    0.0000 O   0  0  0  0  0  0  0  0  0  0  0  0
   -1.1112   10.1022    0.0000 N   0  0  0  0  0  0  0  0  0  0  0  0
   -2.5407    9.6477    0.0000 C   0  0  0  0  0  0  0  0  0  0  0  0
   -3.7680   10.5100    0.0000 C   0  0  0  0  0  0  0  0  0  0  0  0
   -3.6349   12.0041    0.0000 C   0  0  0  0  0  0  0  0  0  0  0  0
   -4.8623   12.8664    0.0000 C   0  0  0  0  0  0  0  0  0  0  0  0
   -4.7292   14.3605    0.0000 C   0  0  0  0  0  0  0  0  0  0  0  0
   -5.9565   15.2228    0.0000 N   0  0  0  0  0  0  0  0  0  0  0  0
   -3.8583    8.9309    0.0000 C   0  0  0  0  0  0  0  0  0  0  0  0
   -4.8424   10.0630    0.0000 O   0  0  0  0  0  0  0  0  0  0  0  0
   -5.0165    7.9777    0.0000 N   0  0  0  0  0  0  0  0  0  0  0  0
   -5.9734    6.8226    0.0000 C   0  0  0  0  0  0  0  0  0  0  0  0
   -7.4721    6.8844    0.0000 C   0  0  0  0  0  0  0  0  0  0  0  0
   -8.1679    8.2133    0.0000 C   0  0  0  0  0  0  0  0  0  0  0  0
   -9.6666    8.2751    0.0000 C   0  0  0  0  0  0  0  0  0  0  0  0
  -10.3624    9.6040    0.0000 O   0  0  0  0  0  0  0  0  0  0  0  0
  -10.4695    7.0081    0.0000 O   0  0  0  0  0  0  0  0  0  0  0  0
   -6.6943    5.5072    0.0000 C   0  0  0  0  0  0  0  0  0  0  0  0
   -8.1343    5.9275    0.0000 O   0  0  0  0  0  0  0  0  0  0  0  0
   -7.1533    4.0791    0.0000 N   0  0  0  0  0  0  0  0  0  0  0  0
   -7.3338    2.5900    0.0000 C   0  0  0  0  0  0  0  0  0  0  0  0
   -8.6280    1.8318    0.0000 C   0  0  0  0  0  0  0  0  0  0  0  0
   -9.9318    2.5735    0.0000 C   0  0  0  0  0  0  0  0  0  0  0  0
  -11.2261    1.8153    0.0000 C   0  0  0  0  0  0  0  0  0  0  0  0
  -10.9033    3.7165    0.0000 C   0  0  0  0  0  0  0  0  0  0  0  0
   -7.2291    1.0937    0.0000 C   0  0  0  0  0  0  0  0  0  0  0  0
   -8.6677    0.6688    0.0000 O   0  0  0  0  0  0  0  0  0  0  0  0
   -6.8432   -0.3558    0.0000 N   0  0  0  0  0  0  0  0  0  0  0  0
   -6.1899   -1.7061    0.0000 C   0  0  0  0  0  0  0  0  0  0  0  0
   -5.2929   -2.9083    0.0000 C   0  0  0  0  0  0  0  0  0  0  0  0
   -4.1846   -3.9191    0.0000 C   0  0  0  0  0  0  0  0  0  0  0  0
   -2.9050   -4.7018    0.0000 C   0  0  0  0  0  0  0  0  0  0  0  0
   -1.5004   -5.2283    0.0000 C   0  0  0  0  0  0  0  0  0  0  0  0
   -7.6899   -1.6918    0.0000 C   0  0  0  0  0  0  0  0  0  0  0  0
   -6.8688   -3.0437    0.0000 C   0  0  0  0  0  0  0  0  0  0  0  0
   -6.3783   -4.4612    0.0000 O   0  0  0  0  0  0  0  0  0  0  0  0
   -8.3666   -3.1246    0.0000 N   0  0  0  0  0  0  0  0  0  0  0  0
   -9.0455   -4.4622    0.0000 C   0  0  0  0  0  0  0  0  0  0  0  0
   -9.2259   -5.9513    0.0000 C   0  0  0  0  0  0  0  0  0  0  0  0
   -8.8862   -7.4123    0.0000 O   0  0  0  0  0  0  0  0  0  0  0  0
  -10.5238   -6.7034    0.0000 C   0  0  0  0  0  0  0  0  0  0  0  0
  -10.5433   -4.5430    0.0000 C   0  0  0  0  0  0  0  0  0  0  0  0
  -11.3623   -3.2863    0.0000 O   0  0  0  0  0  0  0  0  0  0  0  0
  -11.2222   -5.8806    0.0000 N   0  0  0  0  0  0  0  0  0  0  0  0
  -12.7200   -5.9615    0.0000 C   0  0  0  0  0  0  0  0  0  0  0  0
  -14.1552   -5.5252    0.0000 C   0  0  0  0  0  0  0  0  0  0  0  0
  -14.4949   -4.0642    0.0000 C   0  0  0  0  0  0  0  0  0  0  0  0
  -15.9300   -3.6279    0.0000 C   0  0  0  0  0  0  0  0  0  0  0  0
  -16.2698   -2.1669    0.0000 N   0  0  0  0  0  0  0  0  0  0  0  0
  -17.7049   -1.7306    0.0000 C   0  0  0  0  0  0  0  0  0  0  0  0
  -18.0447   -0.2696    0.0000 N   0  0  0  0  0  0  0  0  0  0  0  0
  -18.8003   -2.7553    0.0000 N   0  0  0  0  0  0  0  0  0  0  0  0
  -13.3989   -7.2991    0.0000 C   0  0  0  0  0  0  0  0  0  0  0  0
  -12.5799   -8.5558    0.0000 O   0  0  0  0  0  0  0  0  0  0  0  0
  -14.8967   -7.3800    0.0000 N   0  0  0  0  0  0  0  0  0  0  0  0
  -15.5756   -8.7175    0.0000 C   0  0  0  0  0  0  0  0  0  0  0  0
  -15.7560  -10.2067    0.0000 C   0  0  0  0  0  0  0  0  0  0  0  0
  -17.1358  -10.7949    0.0000 C   0  0  0  0  0  0  0  0  0  0  0  0
  -15.4163  -11.6677    0.0000 C   0  0  0  0  0  0  0  0  0  0  0  0
  -13.9811  -12.1040    0.0000 C   0  0  0  0  0  0  0  0  0  0  0  0
  -17.0734   -8.7984    0.0000 C   0  0  0  0  0  0  0  0  0  0  0  0
  -17.9102  -10.0433    0.0000 O   0  0  0  0  0  0  0  0  0  0  0  0
  -17.8923   -7.5417    0.0000 O   0  0  0  0  0  0  0  0  0  0  0  0
   20.8038   -9.6575    0.0000 H   0  0  0  0  0  0  0  0  0  0  0  0
   19.5190  -11.9157    0.0000 H   0  0  0  0  0  0  0  0  0  0  0  0
   19.1626   -8.5188    0.0000 H   0  0  0  0  0  0  0  0  0  0  0  0
   17.2343   -8.5310    0.0000 H   0  0  0  0  0  0  0  0  0  0  0  0
   17.8829  -11.5751    0.0000 H   0  0  0  0  0  0  0  0  0  0  0  0
   15.9546  -11.5873    0.0000 H   0  0  0  0  0  0  0  0  0  0  0  0
   14.4396  -11.4247    0.0000 H   0  0  0  0  0  0  0  0  0  0  0  0
   13.9666   -8.5518    0.0000 H   0  0  0  0  0  0  0  0  0  0  0  0
   12.5151  -12.6197    0.0000 H   0  0  0  0  0  0  0  0  0  0  0  0
   13.4486  -11.4015    0.0000 H   0  0  0  0  0  0  0  0  0  0  0  0
   11.4975  -13.9452    0.0000 H   0  0  0  0  0  0  0  0  0  0  0  0
    8.5464  -14.4849    0.0000 H   0  0  0  0  0  0  0  0  0  0  0  0
    6.6035  -12.1991    0.0000 H   0  0  0  0  0  0  0  0  0  0  0  0
    7.6116   -9.3735    0.0000 H   0  0  0  0  0  0  0  0  0  0  0  0
   10.1552   -9.2672    0.0000 H   0  0  0  0  0  0  0  0  0  0  0  0
   14.0178   -6.8814    0.0000 H   0  0  0  0  0  0  0  0  0  0  0  0
   12.8651   -5.2501    0.0000 H   0  0  0  0  0  0  0  0  0  0  0  0
    9.7830   -8.4123    0.0000 H   0  0  0  0  0  0  0  0  0  0  0  0
   11.2550   -7.7747    0.0000 H   0  0  0  0  0  0  0  0  0  0  0  0
    6.6994   -7.8164    0.0000 H   0  0  0  0  0  0  0  0  0  0  0  0
    8.7002   -9.4738    0.0000 H   0  0  0  0  0  0  0  0  0  0  0  0
   13.4430   -3.8764    0.0000 H   0  0  0  0  0  0  0  0  0  0  0  0
   10.1895   -2.7989    0.0000 H   0  0  0  0  0  0  0  0  0  0  0  0
   12.4374   -0.3645    0.0000 H   0  0  0  0  0  0  0  0  0  0  0  0
   15.4405   -2.8444    0.0000 H   0  0  0  0  0  0  0  0  0  0  0  0
   14.4527   -4.3200    0.0000 H   0  0  0  0  0  0  0  0  0  0  0  0
   12.9943   -4.0855    0.0000 H   0  0  0  0  0  0  0  0  0  0  0  0
   15.2105    0.1426    0.0000 H   0  0  0  0  0  0  0  0  0  0  0  0
   13.2821    0.1304    0.0000 H   0  0  0  0  0  0  0  0  0  0  0  0
   16.8516   -0.9961    0.0000 H   0  0  0  0  0  0  0  0  0  0  0  0
   16.5288   -2.8972    0.0000 H   0  0  0  0  0  0  0  0  0  0  0  0
   14.9084   -3.1067    0.0000 H   0  0  0  0  0  0  0  0  0  0  0  0
    8.8896   -2.6603    0.0000 H   0  0  0  0  0  0  0  0  0  0  0  0
    8.9456   -1.6865    0.0000 H   0  0  0  0  0  0  0  0  0  0  0  0
    8.2103   -2.7087    0.0000 H   0  0  0  0  0  0  0  0  0  0  0  0
    8.0225   -3.2010    0.0000 H   0  0  0  0  0  0  0  0  0  0  0  0
    7.2768   -3.9968    0.0000 H   0  0  0  0  0  0  0  0  0  0  0  0
    6.9189   -4.3536    0.0000 H   0  0  0  0  0  0  0  0  0  0  0  0
    5.9467   -5.1538    0.0000 H   0  0  0  0  0  0  0  0  0  0  0  0
    5.5277   -5.4364    0.0000 H   0  0  0  0  0  0  0  0  0  0  0  0
    4.4216   -6.0380    0.0000 H   0  0  0  0  0  0  0  0  0  0  0  0
    3.9567   -6.2363    0.0000 H   0  0  0  0  0  0  0  0  0  0  0  0
    2.7568   -6.6177    0.0000 H   0  0  0  0  0  0  0  0  0  0  0  0
    2.2627   -6.7244    0.0000 H   0  0  0  0  0  0  0  0  0  0  0  0
    0.8419   -6.8045    0.0000 H   0  0  0  0  0  0  0  0  0  0  0  0
   -0.1310   -6.9754    0.0000 H   0  0  0  0  0  0  0  0  0  0  0  0
   10.7929   -0.4566    0.0000 H   0  0  0  0  0  0  0  0  0  0  0  0
   10.7644    1.1770    0.0000 H   0  0  0  0  0  0  0  0  0  0  0  0
    9.2604    1.8155    0.0000 H   0  0  0  0  0  0  0  0  0  0  0  0
    9.9210    3.0447    0.0000 H   0  0  0  0  0  0  0  0  0  0  0  0
    9.6134    3.9834    0.0000 H   0  0  0  0  0  0  0  0  0  0  0  0
    9.9626    6.8073    0.0000 H   0  0  0  0  0  0  0  0  0  0  0  0
    8.1887    6.6138    0.0000 H   0  0  0  0  0  0  0  0  0  0  0  0
    8.1802    7.8518    0.0000 H   0  0  0  0  0  0  0  0  0  0  0  0
    7.3526    8.4495    0.0000 H   0  0  0  0  0  0  0  0  0  0  0  0
    5.8985   11.1739    0.0000 H   0  0  0  0  0  0  0  0  0  0  0  0
    4.6930   10.0710    0.0000 H   0  0  0  0  0  0  0  0  0  0  0  0
    9.0592   10.1795    0.0000 H   0  0  0  0  0  0  0  0  0  0  0  0
    8.1564    8.8178    0.0000 H   0  0  0  0  0  0  0  0  0  0  0  0
    7.5874   13.1481    0.0000 H   0  0  0  0  0  0  0  0  0  0  0  0
    6.3468   11.8655    0.0000 H   0  0  0  0  0  0  0  0  0  0  0  0
   10.3880   11.1930    0.0000 H   0  0  0  0  0  0  0  0  0  0  0  0
   11.2115   15.6170    0.0000 H   0  0  0  0  0  0  0  0  0  0  0  0
   12.0769   13.1672    0.0000 H   0  0  0  0  0  0  0  0  0  0  0  0
    8.6574   16.0925    0.0000 H   0  0  0  0  0  0  0  0  0  0  0  0
    6.9685   14.1182    0.0000 H   0  0  0  0  0  0  0  0  0  0  0  0
    4.0165   11.1079    0.0000 H   0  0  0  0  0  0  0  0  0  0  0  0
    2.9972   11.1633    0.0000 H   0  0  0  0  0  0  0  0  0  0  0  0
   -0.1169   11.0895    0.0000 H   0  0  0  0  0  0  0  0  0  0  0  0
    1.8509   14.2059    0.0000 H   0  0  0  0  0  0  0  0  0  0  0  0
    3.4975   13.5413    0.0000 H   0  0  0  0  0  0  0  0  0  0  0  0
    3.4742   11.9076    0.0000 H   0  0  0  0  0  0  0  0  0  0  0  0
   -1.0257   13.3690    0.0000 H   0  0  0  0  0  0  0  0  0  0  0  0
   -0.7563   11.6050    0.0000 H   0  0  0  0  0  0  0  0  0  0  0  0
   -0.2472   15.2086    0.0000 H   0  0  0  0  0  0  0  0  0  0  0  0
    1.6797   15.2820    0.0000 H   0  0  0  0  0  0  0  0  0  0  0  0
    2.2166   13.7389    0.0000 H   0  0  0  0  0  0  0  0  0  0  0  0
   -1.4277   11.5684    0.0000 H   0  0  0  0  0  0  0  0  0  0  0  0
   -2.1340   11.0915    0.0000 H   0  0  0  0  0  0  0  0  0  0  0  0
   -5.2163   10.9005    0.0000 H   0  0  0  0  0  0  0  0  0  0  0  0
   -4.7139    9.3458    0.0000 H   0  0  0  0  0  0  0  0  0  0  0  0
   -2.8380   13.2749    0.0000 H   0  0  0  0  0  0  0  0  0  0  0  0
   -2.1352   11.9756    0.0000 H   0  0  0  0  0  0  0  0  0  0  0  0
   -6.3473   13.0775    0.0000 H   0  0  0  0  0  0  0  0  0  0  0  0
   -5.6592   11.5956    0.0000 H   0  0  0  0  0  0  0  0  0  0  0  0
   -4.0931   15.7189    0.0000 H   0  0  0  0  0  0  0  0  0  0  0  0
   -3.2441   14.1494    0.0000 H   0  0  0  0  0  0  0  0  0  0  0  0
   -5.8234   16.7169    0.0000 H   0  0  0  0  0  0  0  0  0  0  0  0
   -7.4048   15.6133    0.0000 H   0  0  0  0  0  0  0  0  0  0  0  0
   -6.7535   13.9520    0.0000 H   0  0  0  0  0  0  0  0  0  0  0  0
   -5.9381    9.1612    0.0000 H   0  0  0  0  0  0  0  0  0  0  0  0
   -6.4119    8.2570    0.0000 H   0  0  0  0  0  0  0  0  0  0  0  0
   -8.9463    6.6076    0.0000 H   0  0  0  0  0  0  0  0  0  0  0  0
   -7.6384    5.3937    0.0000 H   0  0  0  0  0  0  0  0  0  0  0  0
   -8.3672    9.7000    0.0000 H   0  0  0  0  0  0  0  0  0  0  0  0
   -6.8908    9.0001    0.0000 H   0  0  0  0  0  0  0  0  0  0  0  0
   -8.5685    4.5765    0.0000 H   0  0  0  0  0  0  0  0  0  0  0  0
   -8.4782    3.5597    0.0000 H   0  0  0  0  0  0  0  0  0  0  0  0
   -9.5849    0.6766    0.0000 H   0  0  0  0  0  0  0  0  0  0  0  0
   -7.9620    0.4878    0.0000 H   0  0  0  0  0  0  0  0  0  0  0  0
   -9.2829    3.9259    0.0000 H   0  0  0  0  0  0  0  0  0  0  0  0
  -12.6105    2.3926    0.0000 H   0  0  0  0  0  0  0  0  0  0  0  0
  -12.1829    0.6601    0.0000 H   0  0  0  0  0  0  0  0  0  0  0  0
  -10.4012    0.5625    0.0000 H   0  0  0  0  0  0  0  0  0  0  0  0
  -12.4007    3.6285    0.0000 H   0  0  0  0  0  0  0  0  0  0  0  0
  -11.4252    5.1227    0.0000 H   0  0  0  0  0  0  0  0  0  0  0  0
   -9.6090    4.4747    0.0000 H   0  0  0  0  0  0  0  0  0  0  0  0
   -8.3026   -0.7025    0.0000 H   0  0  0  0  0  0  0  0  0  0  0  0
   -5.7064   -4.3502    0.0000 H   0  0  0  0  0  0  0  0  0  0  0  0
   -6.6593   -3.5272    0.0000 H   0  0  0  0  0  0  0  0  0  0  0  0
   -4.4989   -5.3858    0.0000 H   0  0  0  0  0  0  0  0  0  0  0  0
   -5.4092   -4.7854    0.0000 H   0  0  0  0  0  0  0  0  0  0  0  0
   -2.7530   -6.1941    0.0000 H   0  0  0  0  0  0  0  0  0  0  0  0
   -4.0677   -5.6495    0.0000 H   0  0  0  0  0  0  0  0  0  0  0  0
   -1.8910   -6.6765    0.0000 H   0  0  0  0  0  0  0  0  0  0  0  0
   -8.7422   -2.7608    0.0000 H   0  0  0  0  0  0  0  0  0  0  0  0
   -9.0945   -1.1654    0.0000 H   0  0  0  0  0  0  0  0  0  0  0  0
   -7.7803   -0.1945    0.0000 H   0  0  0  0  0  0  0  0  0  0  0  0
   -9.3327   -1.9771    0.0000 H   0  0  0  0  0  0  0  0  0  0  0  0
   -7.6103   -4.8984    0.0000 H   0  0  0  0  0  0  0  0  0  0  0  0
   -7.7281   -5.8704    0.0000 H   0  0  0  0  0  0  0  0  0  0  0  0
   -7.4510   -7.8486    0.0000 H   0  0  0  0  0  0  0  0  0  0  0  0
  -10.7862   -8.0287    0.0000 H   0  0  0  0  0  0  0  0  0  0  0  0
  -12.1036   -6.6204    0.0000 H   0  0  0  0  0  0  0  0  0  0  0  0
  -11.5918   -5.4091    0.0000 H   0  0  0  0  0  0  0  0  0  0  0  0
  -10.5625   -7.2278    0.0000 H   0  0  0  0  0  0  0  0  0  0  0  0
  -12.3594   -4.5055    0.0000 H   0  0  0  0  0  0  0  0  0  0  0  0
  -15.6530   -5.6061    0.0000 H   0  0  0  0  0  0  0  0  0  0  0  0
  -14.6906   -6.9264    0.0000 H   0  0  0  0  0  0  0  0  0  0  0  0
  -14.3145   -2.5751    0.0000 H   0  0  0  0  0  0  0  0  0  0  0  0
  -13.0181   -3.8013    0.0000 H   0  0  0  0  0  0  0  0  0  0  0  0
  -17.4279   -3.7088    0.0000 H   0  0  0  0  0  0  0  0  0  0  0  0
  -16.2907   -5.0839    0.0000 H   0  0  0  0  0  0  0  0  0  0  0  0
  -15.1744   -1.1422    0.0000 H   0  0  0  0  0  0  0  0  0  0  0  0
  -19.4798    0.1667    0.0000 H   0  0  0  0  0  0  0  0  0  0  0  0
  -16.9493    0.7551    0.0000 H   0  0  0  0  0  0  0  0  0  0  0  0
  -20.2355   -2.3191    0.0000 H   0  0  0  0  0  0  0  0  0  0  0  0
  -18.4606   -4.2164    0.0000 H   0  0  0  0  0  0  0  0  0  0  0  0
  -15.8627   -6.2325    0.0000 H   0  0  0  0  0  0  0  0  0  0  0  0
  -14.1404   -9.1538    0.0000 H   0  0  0  0  0  0  0  0  0  0  0  0
  -14.2792   -9.9438    0.0000 H   0  0  0  0  0  0  0  0  0  0  0  0
  -17.4964  -12.2509    0.0000 H   0  0  0  0  0  0  0  0  0  0  0  0
  -18.6336  -10.8758    0.0000 H   0  0  0  0  0  0  0  0  0  0  0  0
  -17.9767   -9.5528    0.0000 H   0  0  0  0  0  0  0  0  0  0  0  0
  -15.5967  -13.1568    0.0000 H   0  0  0  0  0  0  0  0  0  0  0  0
  -16.8930  -11.9305    0.0000 H   0  0  0  0  0  0  0  0  0  0  0  0
  -13.6414  -13.5650    0.0000 H   0  0  0  0  0  0  0  0  0  0  0  0
  -12.4833  -12.0231    0.0000 H   0  0  0  0  0  0  0  0  0  0  0  0
  -13.6205  -10.6480    0.0000 H   0  0  0  0  0  0  0  0  0  0  0  0
  1  2  1  0
  2  3  1  0
  3  4  1  0
  4  5  2  0
  4  6  1  0
  6  7  1  0
  7  8  1  0
  8  9  1  0
  9 10  2  0
 10 11  1  0
 11 12  2  0
 12 13  1  0
 13 14  2  0
  7 15  1  0
 15 16  2  0
 15 17  1  0
 17 18  1  0
 18 19  1  0
 19 20  1  0
 20 21  1  0
 20 22  2  0
 18 23  1  0
 23 24  2  0
 23 25  1  0
 25 26  1  0
 26 27  1  0
 27 28  1  0
 27 29  1  0
 29 30  1  0
 26 31  1  0
 31 32  2  0
 31 33  1  0
 34 33  1  6
 34 35  1  0
 35 36  1  0
 36 37  1  0
 37 38  1  0
 38 39  1  0
 39 40  1  0
 40 41  1  0
 34 42  1  0
 34 43  1  0
 43 44  2  0
 43 45  1  0
 45 46  1  0
 46 47  1  0
 47 48  1  0
 48 49  2  0
 48 50  1  0
 46 51  1  0
 51 52  2  0
 51 53  1  0
 53 54  1  0
 54 55  1  0
 55 56  1  0
 56 57  1  0
 57 58  1  0
 58 59  1  0
 59 60  2  3
 59 61  1  0
 54 62  1  0
 62 63  2  0
 62 64  1  0
 64 65  1  0
 65 66  1  0
 66 67  1  0
 66 68  1  0
 68 69  1  0
 65 70  1  0
 70 71  2  0
 70 72  1  0
 72 73  1  0
 73 74  1  0
 74 75  1  0
 75 76  1  0
 76 77  1  0
 77 78  1  0
 73 79  1  0
 79 80  2  0
 79 81  1  0
 81 82  1  0
 82 83  1  0
 83 84  1  0
 84 85  1  0
 85 86  2  0
 85 87  1  0
 82 88  1  0
 88 89  2  0
 88 90  1  0
 90 91  1  0
 91 92  1  0
 92 93  1  0
 93 94  1  0
 93 95  1  0
 91 96  1  0
 96 97  2  0
 96 98  1  0
 98 99  1  0
 99100  1  0
100101  1  0
101102  1  0
102103  1  0
 99104  1  0
 99105  1  1
105106  2  0
105107  1  0
107108  1  0
108109  1  0
109110  1  0
109111  1  0
108112  1  0
112113  2  0
112114  1  0
114115  1  0
115116  1  0
116117  1  0
117118  1  0
118119  1  0
119120  1  0
120121  2  3
120122  1  0
115123  1  0
123124  2  0
123125  1  0
125126  1  0
126127  1  0
127128  1  0
127129  1  0
129130  1  0
126131  1  0
131132  2  0
131133  1  0
 14  9  1  0
 41103  2  0
  1134  1  0
  1135  1  0
  2136  1  0
  2137  1  0
  3138  1  0
  3139  1  0
  6140  1  0
  7141  1  1
  8142  1  0
  8143  1  0
 10144  1  0
 11145  1  0
 12146  1  0
 13147  1  0
 14148  1  0
 17149  1  0
 18150  1  1
 19151  1  0
 19152  1  0
 21153  1  0
 21154  1  0
 25155  1  0
 26156  1  6
 27157  1  1
 28158  1  0
 28159  1  0
 28160  1  0
 29161  1  0
 29162  1  0
 30163  1  0
 30164  1  0
 30165  1  0
 33166  1  0
 35167  1  0
 35168  1  0
 36169  1  0
 36170  1  0
 37171  1  0
 37172  1  0
 38173  1  0
 38174  1  0
 39175  1  0
 39176  1  0
 40177  1  0
 40178  1  0
 41179  1  0
 42180  1  0
 42181  1  0
 42182  1  0
 45183  1  0
 46184  1  6
 47185  1  0
 47186  1  0
 53187  1  0
 54188  1  6
 55189  1  0
 55190  1  0
 56191  1  0
 56192  1  0
 57193  1  0
 57194  1  0
 58195  1  0
 60196  1  0
 60197  1  0
 61198  1  0
 61199  1  0
 64200  1  0
 65201  1  6
 66202  1  1
 67203  1  0
 67204  1  0
 67205  1  0
 68206  1  0
 68207  1  0
 69208  1  0
 69209  1  0
 69210  1  0
 72211  1  0
 73212  1  6
 74213  1  0
 74214  1  0
 75215  1  0
 75216  1  0
 76217  1  0
 76218  1  0
 77219  1  0
 77220  1  0
 78221  1  0
 78222  1  0
 78223  1  0
 81224  1  0
 82225  1  6
 83226  1  0
 83227  1  0
 84228  1  0
 84229  1  0
 90230  1  0
 91231  1  6
 92232  1  0
 92233  1  0
 93234  1  0
 94235  1  0
 94236  1  0
 94237  1  0
 95238  1  0
 95239  1  0
 95240  1  0
 98241  1  0
100242  1  0
100243  1  0
101244  1  0
101245  1  0
102246  1  0
102247  1  0
103248  1  0
104249  1  0
104250  1  0
104251  1  0
107252  1  0
108253  1  1
109254  1  1
110255  1  0
111256  1  0
111257  1  0
111258  1  0
114259  1  0
115260  1  6
116261  1  0
116262  1  0
117263  1  0
117264  1  0
118265  1  0
118266  1  0
119267  1  0
121268  1  0
121269  1  0
122270  1  0
122271  1  0
125272  1  0
126273  1  1
127274  1  1
128275  1  0
128276  1  0
128277  1  0
129278  1  0
129279  1  0
130280  1  0
130281  1  0
130282  1  0
M  CHG  6  50  -1  60   1  78   1  87  -1 121   1 133  -1
M  END
