
     RDKit          2D

322330  0  0  0  0  0  0  0  0999 V2000
  -29.8345   -0.6977    0.0000 C   0  0  0  0  0  0  0  0  0  0  0  0
  -31.0755   -1.5403    0.0000 N   0  0  0  0  0  0  0  0  0  0  0  0
  -32.4257   -0.8868    0.0000 C   0  0  0  0  0  0  0  0  0  0  0  0
  -32.5349    0.6092    0.0000 C   0  0  0  0  0  0  0  0  0  0  0  0
  -33.8851    1.2626    0.0000 C   0  0  0  0  0  0  0  0  0  0  0  0
  -35.1261    0.4200    0.0000 C   0  0  0  0  0  0  0  0  0  0  0  0
  -35.0169   -1.0760    0.0000 C   0  0  0  0  0  0  0  0  0  0  0  0
  -33.6667   -1.7294    0.0000 C   0  0  0  0  0  0  0  0  0  0  0  0
  -36.4060   -1.6421    0.0000 C   0  0  0  0  0  0  0  0  0  0  0  0
  -37.3736   -0.4960    0.0000 O   0  0  0  0  0  0  0  0  0  0  0  0
  -36.5826    0.7785    0.0000 C   0  0  0  0  0  0  0  0  0  0  0  0
  -37.1488    2.1675    0.0000 O   0  0  0  0  0  0  0  0  0  0  0  0
  -37.8466   -2.0600    0.0000 C   0  0  0  0  0  0  0  0  0  0  0  0
  -38.2050   -3.5165    0.0000 C   0  0  0  0  0  0  0  0  0  0  0  0
  -39.6456   -3.9344    0.0000 C   0  0  0  0  0  0  0  0  0  0  0  0
  -40.7278   -2.8957    0.0000 C   0  0  0  0  0  0  0  0  0  0  0  0
  -40.3694   -1.4391    0.0000 C   0  0  0  0  0  0  0  0  0  0  0  0
  -38.9288   -1.0213    0.0000 C   0  0  0  0  0  0  0  0  0  0  0  0
  -42.1685   -3.3135    0.0000 O   0  0  0  0  0  0  0  0  0  0  0  0
  -37.1228   -4.5552    0.0000 O   0  0  0  0  0  0  0  0  0  0  0  0
  -35.6822   -4.1374    0.0000 C   0  0  0  0  0  0  0  0  0  0  0  0
  -35.3238   -2.6808    0.0000 C   0  0  0  0  0  0  0  0  0  0  0  0
  -34.0504   -2.9427    0.0000 C   0  0  0  0  0  0  0  0  0  0  0  0
  -33.4733   -3.4967    0.0000 C   0  0  0  0  0  0  0  0  0  0  0  0
  -33.6644   -4.2735    0.0000 C   0  0  0  0  0  0  0  0  0  0  0  0
  -34.4328   -4.4963    0.0000 C   0  0  0  0  0  0  0  0  0  0  0  0
  -32.0772   -5.7969    0.0000 O   0  0  0  0  0  0  0  0  0  0  0  0
  -29.9437    0.7983    0.0000 S   0  0  0  0  0  0  0  0  0  0  0  0
  -28.4843   -1.3511    0.0000 N   0  0  0  0  0  0  0  0  0  0  0  0
  -27.2433   -0.5086    0.0000 C   0  0  0  0  0  0  0  0  0  0  0  0
  -25.8932   -1.1620    0.0000 C   0  0  0  0  0  0  0  0  0  0  0  0
  -24.6522   -0.3194    0.0000 C   0  0  0  0  0  0  0  0  0  0  0  0
  -24.7614    1.1766    0.0000 O   0  0  0  0  0  0  0  0  0  0  0  0
  -23.3020   -0.9729    0.0000 N   0  0  0  0  0  0  0  0  0  0  0  0
  -22.0610   -0.1303    0.0000 C   0  0  0  0  0  0  0  0  0  0  0  0
  -21.1830    1.0859    0.0000 C   0  0  0  0  0  0  0  0  0  0  0  0
  -19.7353    1.4787    0.0000 O   0  0  0  0  0  0  0  0  0  0  0  0
  -20.7108   -0.7837    0.0000 C   0  0  0  0  0  0  0  0  0  0  0  0
  -20.7848   -2.2819    0.0000 O   0  0  0  0  0  0  0  0  0  0  0  0
  -19.4698    0.0588    0.0000 N   0  0  0  0  0  0  0  0  0  0  0  0
  -18.1196   -0.5946    0.0000 C   0  0  0  0  0  0  0  0  0  0  0  0
  -17.0743   -1.6704    0.0000 C   0  0  0  0  0  0  0  0  0  0  0  0
  -17.4834   -3.1136    0.0000 C   0  0  0  0  0  0  0  0  0  0  0  0
  -18.9377   -3.4809    0.0000 C   0  0  0  0  0  0  0  0  0  0  0  0
  -19.3468   -4.9240    0.0000 C   0  0  0  0  0  0  0  0  0  0  0  0
  -18.3015   -5.9999    0.0000 C   0  0  0  0  0  0  0  0  0  0  0  0
  -18.7106   -7.4430    0.0000 O   0  0  0  0  0  0  0  0  0  0  0  0
  -16.8472   -5.6326    0.0000 C   0  0  0  0  0  0  0  0  0  0  0  0
  -16.4381   -4.1894    0.0000 C   0  0  0  0  0  0  0  0  0  0  0  0
  -16.8786    0.2480    0.0000 C   0  0  0  0  0  0  0  0  0  0  0  0
  -16.9878    1.7440    0.0000 O   0  0  0  0  0  0  0  0  0  0  0  0
  -15.5284   -0.4055    0.0000 N   0  0  0  0  0  0  0  0  0  0  0  0
  -14.2874    0.4371    0.0000 C   0  0  0  0  0  0  0  0  0  0  0  0
  -13.4095    1.6533    0.0000 C   0  0  0  0  0  0  0  0  0  0  0  0
  -11.9172    1.5011    0.0000 C   0  0  0  0  0  0  0  0  0  0  0  0
  -11.0392    2.7173    0.0000 C   0  0  0  0  0  0  0  0  0  0  0  0
   -9.5470    2.5650    0.0000 N   0  0  0  0  0  0  0  0  0  0  0  0
   -8.6690    3.7812    0.0000 C   0  0  0  0  0  0  0  0  0  0  0  0
   -7.2064    3.4482    0.0000 N   0  0  0  0  0  0  0  0  0  0  0  0
   -9.2833    5.1497    0.0000 N   0  0  0  0  0  0  0  0  0  0  0  0
  -12.9372   -0.2163    0.0000 C   0  0  0  0  0  0  0  0  0  0  0  0
  -12.8280   -1.7124    0.0000 O   0  0  0  0  0  0  0  0  0  0  0  0
  -11.6963    0.6262    0.0000 N   0  0  0  0  0  0  0  0  0  0  0  0
  -10.3461   -0.0272    0.0000 C   0  0  0  0  0  0  0  0  0  0  0  0
   -9.1051    0.8154    0.0000 C   0  0  0  0  0  0  0  0  0  0  0  0
   -8.9184    1.8928    0.0000 O   0  0  0  0  0  0  0  0  0  0  0  0
   -7.7549    0.1619    0.0000 N   0  0  0  0  0  0  0  0  0  0  0  0
   -6.5139    1.0045    0.0000 C   0  0  0  0  0  0  0  0  0  0  0  0
   -5.6359    2.2207    0.0000 C   0  0  0  0  0  0  0  0  0  0  0  0
   -5.1637    0.3511    0.0000 C   0  0  0  0  0  0  0  0  0  0  0  0
   -5.2377   -1.1471    0.0000 O   0  0  0  0  0  0  0  0  0  0  0  0
   -3.9227    1.1936    0.0000 N   0  0  0  0  0  0  0  0  0  0  0  0
   -2.5725    0.5402    0.0000 C   0  0  0  0  0  0  0  0  0  0  0  0
   -1.5272   -0.5356    0.0000 C   0  0  0  0  0  0  0  0  0  0  0  0
   -1.9363   -1.9788    0.0000 C   0  0  0  0  0  0  0  0  0  0  0  0
   -3.3906   -2.3461    0.0000 C   0  0  0  0  0  0  0  0  0  0  0  0
   -3.7997   -3.7892    0.0000 C   0  0  0  0  0  0  0  0  0  0  0  0
   -2.7544   -4.8651    0.0000 C   0  0  0  0  0  0  0  0  0  0  0  0
   -1.3001   -4.4977    0.0000 C   0  0  0  0  0  0  0  0  0  0  0  0
   -0.8910   -3.0546    0.0000 C   0  0  0  0  0  0  0  0  0  0  0  0
   -1.3315    1.3828    0.0000 C   0  0  0  0  0  0  0  0  0  0  0  0
   -1.4407    2.8788    0.0000 O   0  0  0  0  0  0  0  0  0  0  0  0
    0.0187    0.7293    0.0000 N   0  0  0  0  0  0  0  0  0  0  0  0
    1.2597    1.5719    0.0000 C   0  0  0  0  0  0  0  0  0  0  0  0
    2.1376    2.7881    0.0000 C   0  0  0  0  0  0  0  0  0  0  0  0
    3.6299    2.6359    0.0000 C   0  0  0  0  0  0  0  0  0  0  0  0
    4.5079    3.8521    0.0000 C   0  0  0  0  0  0  0  0  0  0  0  0
    5.9926    4.0655    0.0000 N   0  0  0  0  0  0  0  0  0  0  0  0
    3.4439    4.9094    0.0000 O   0  0  0  0  0  0  0  0  0  0  0  0
    2.6099    0.9185    0.0000 C   0  0  0  0  0  0  0  0  0  0  0  0
    2.5359   -0.5797    0.0000 O   0  0  0  0  0  0  0  0  0  0  0  0
    3.8508    1.7611    0.0000 N   0  0  0  0  0  0  0  0  0  0  0  0
    5.2010    1.1076    0.0000 C   0  0  0  0  0  0  0  0  0  0  0  0
    5.6045   -0.3371    0.0000 C   0  0  0  0  0  0  0  0  0  0  0  0
    6.4159   -1.5987    0.0000 C   0  0  0  0  0  0  0  0  0  0  0  0
    7.5631   -2.5651    0.0000 C   0  0  0  0  0  0  0  0  0  0  0  0
    8.9442   -3.1505    0.0000 C   0  0  0  0  0  0  0  0  0  0  0  0
    3.9414    0.2931    0.0000 C   0  0  0  0  0  0  0  0  0  0  0  0
    5.2413    2.6071    0.0000 C   0  0  0  0  0  0  0  0  0  0  0  0
    4.5589    3.0190    0.0000 O   0  0  0  0  0  0  0  0  0  0  0  0
    5.7218    4.0280    0.0000 N   0  0  0  0  0  0  0  0  0  0  0  0
    6.5998    5.2442    0.0000 C   0  0  0  0  0  0  0  0  0  0  0  0
    6.2688    6.7073    0.0000 C   0  0  0  0  0  0  0  0  0  0  0  0
    4.8363    7.1522    0.0000 C   0  0  0  0  0  0  0  0  0  0  0  0
    4.5054    8.6152    0.0000 C   0  0  0  0  0  0  0  0  0  0  0  0
    3.3381    7.0803    0.0000 C   0  0  0  0  0  0  0  0  0  0  0  0
    7.7972    6.1476    0.0000 C   0  0  0  0  0  0  0  0  0  0  0  0
    7.0824    7.4663    0.0000 O   0  0  0  0  0  0  0  0  0  0  0  0
    9.2078    6.6579    0.0000 N   0  0  0  0  0  0  0  0  0  0  0  0
   10.7061    6.7298    0.0000 C   0  0  0  0  0  0  0  0  0  0  0  0
   11.6436    7.9007    0.0000 C   0  0  0  0  0  0  0  0  0  0  0  0
   11.0983    9.2981    0.0000 C   0  0  0  0  0  0  0  0  0  0  0  0
   12.0358   10.4690    0.0000 C   0  0  0  0  0  0  0  0  0  0  0  0
   11.4905   11.8664    0.0000 C   0  0  0  0  0  0  0  0  0  0  0  0
   10.0076   12.0928    0.0000 C   0  0  0  0  0  0  0  0  0  0  0  0
    9.0701   10.9219    0.0000 C   0  0  0  0  0  0  0  0  0  0  0  0
    9.6154    9.5245    0.0000 C   0  0  0  0  0  0  0  0  0  0  0  0
   12.1589    6.3568    0.0000 C   0  0  0  0  0  0  0  0  0  0  0  0
   12.7443    7.7379    0.0000 O   0  0  0  0  0  0  0  0  0  0  0  0
   13.4374    5.5722    0.0000 N   0  0  0  0  0  0  0  0  0  0  0  0
   14.4277    4.4456    0.0000 C   0  0  0  0  0  0  0  0  0  0  0  0
   15.9277    4.4427    0.0000 C   0  0  0  0  0  0  0  0  0  0  0  0
   16.6802    5.7403    0.0000 C   0  0  0  0  0  0  0  0  0  0  0  0
   18.1802    5.7374    0.0000 C   0  0  0  0  0  0  0  0  0  0  0  0
   18.9327    7.0350    0.0000 N   0  0  0  0  0  0  0  0  0  0  0  0
   18.9277    4.4369    0.0000 O   0  0  0  0  0  0  0  0  0  0  0  0
   15.0420    3.0772    0.0000 C   0  0  0  0  0  0  0  0  0  0  0  0
   16.4867    3.4806    0.0000 O   0  0  0  0  0  0  0  0  0  0  0  0
   15.2256    1.5884    0.0000 N   0  0  0  0  0  0  0  0  0  0  0  0
   14.9623    0.1117    0.0000 C   0  0  0  0  0  0  0  0  0  0  0  0
   14.2754   -1.2217    0.0000 C   0  0  0  0  0  0  0  0  0  0  0  0
   13.2260   -2.2935    0.0000 C   0  0  0  0  0  0  0  0  0  0  0  0
   11.9072   -3.0083    0.0000 C   0  0  0  0  0  0  0  0  0  0  0  0
   10.4364   -3.3027    0.0000 C   0  0  0  0  0  0  0  0  0  0  0  0
   16.4166    0.4791    0.0000 C   0  0  0  0  0  0  0  0  0  0  0  0
   15.8953   -1.0628    0.0000 C   0  0  0  0  0  0  0  0  0  0  0  0
   15.6985   -2.5499    0.0000 O   0  0  0  0  0  0  0  0  0  0  0  0
   17.3789   -0.8421    0.0000 N   0  0  0  0  0  0  0  0  0  0  0  0
   18.3119   -2.0167    0.0000 C   0  0  0  0  0  0  0  0  0  0  0  0
   18.7869   -3.4395    0.0000 C   0  0  0  0  0  0  0  0  0  0  0  0
   17.7922   -4.5622    0.0000 C   0  0  0  0  0  0  0  0  0  0  0  0
   19.7956   -1.7960    0.0000 C   0  0  0  0  0  0  0  0  0  0  0  0
   20.3463   -0.4007    0.0000 O   0  0  0  0  0  0  0  0  0  0  0  0
   20.7285   -2.9705    0.0000 N   0  0  0  0  0  0  0  0  0  0  0  0
   22.2122   -2.7499    0.0000 C   0  0  0  0  0  0  0  0  0  0  0  0
   23.5309   -2.0350    0.0000 C   0  0  0  0  0  0  0  0  0  0  0  0
   24.8093   -2.8197    0.0000 C   0  0  0  0  0  0  0  0  0  0  0  0
   26.1281   -2.1048    0.0000 C   0  0  0  0  0  0  0  0  0  0  0  0
   27.4065   -2.8895    0.0000 N   0  0  0  0  0  0  0  0  0  0  0  0
   28.7252   -2.1746    0.0000 C   0  0  0  0  0  0  0  0  0  0  0  0
   29.8984   -3.1092    0.0000 N   0  0  0  0  0  0  0  0  0  0  0  0
   28.7655   -0.6752    0.0000 N   0  0  0  0  0  0  0  0  0  0  0  0
   23.1452   -3.9244    0.0000 C   0  0  0  0  0  0  0  0  0  0  0  0
   22.5945   -5.3197    0.0000 O   0  0  0  0  0  0  0  0  0  0  0  0
   24.6288   -3.7037    0.0000 N   0  0  0  0  0  0  0  0  0  0  0  0
   25.5618   -4.8783    0.0000 C   0  0  0  0  0  0  0  0  0  0  0  0
   26.0368   -6.3011    0.0000 C   0  0  0  0  0  0  0  0  0  0  0  0
   25.0421   -7.4238    0.0000 C   0  0  0  0  0  0  0  0  0  0  0  0
   25.5170   -8.8467    0.0000 C   0  0  0  0  0  0  0  0  0  0  0  0
   24.5223   -9.9694    0.0000 O   0  0  0  0  0  0  0  0  0  0  0  0
   26.9867   -9.1467    0.0000 O   0  0  0  0  0  0  0  0  0  0  0  0
   27.0455   -4.6576    0.0000 C   0  0  0  0  0  0  0  0  0  0  0  0
   27.9174   -3.4371    0.0000 O   0  0  0  0  0  0  0  0  0  0  0  0
   27.9784   -5.8321    0.0000 N   0  0  0  0  0  0  0  0  0  0  0  0
   29.4621   -5.6115    0.0000 C   0  0  0  0  0  0  0  0  0  0  0  0
   30.7808   -4.8966    0.0000 C   0  0  0  0  0  0  0  0  0  0  0  0
   32.0593   -5.6813    0.0000 C   0  0  0  0  0  0  0  0  0  0  0  0
   30.3951   -6.7860    0.0000 C   0  0  0  0  0  0  0  0  0  0  0  0
   31.8946   -6.7478    0.0000 O   0  0  0  0  0  0  0  0  0  0  0  0
   29.8444   -8.1813    0.0000 O   0  0  0  0  0  0  0  0  0  0  0  0
  -30.7848   -3.0118    0.0000 H   0  0  0  0  0  0  0  0  0  0  0  0
  -31.2939    1.4518    0.0000 H   0  0  0  0  0  0  0  0  0  0  0  0
  -33.9943    2.7586    0.0000 H   0  0  0  0  0  0  0  0  0  0  0  0
  -33.1988   -3.1546    0.0000 H   0  0  0  0  0  0  0  0  0  0  0  0
  -40.0041   -5.3909    0.0000 H   0  0  0  0  0  0  0  0  0  0  0  0
  -41.4516   -0.4004    0.0000 H   0  0  0  0  0  0  0  0  0  0  0  0
  -38.5703    0.4353    0.0000 H   0  0  0  0  0  0  0  0  0  0  0  0
  -43.2506   -2.2748    0.0000 H   0  0  0  0  0  0  0  0  0  0  0  0
  -33.5247   -0.8064    0.0000 H   0  0  0  0  0  0  0  0  0  0  0  0
  -31.3201   -3.0625    0.0000 H   0  0  0  0  0  0  0  0  0  0  0  0
  -34.9585   -6.6326    0.0000 H   0  0  0  0  0  0  0  0  0  0  0  0
  -32.4357   -7.2534    0.0000 H   0  0  0  0  0  0  0  0  0  0  0  0
  -28.3751   -2.8472    0.0000 H   0  0  0  0  0  0  0  0  0  0  0  0
  -26.3654    0.7076    0.0000 H   0  0  0  0  0  0  0  0  0  0  0  0
  -28.2886    0.5673    0.0000 H   0  0  0  0  0  0  0  0  0  0  0  0
  -24.8479   -2.2378    0.0000 H   0  0  0  0  0  0  0  0  0  0  0  0
  -26.7711   -2.3782    0.0000 H   0  0  0  0  0  0  0  0  0  0  0  0
  -23.1928   -2.4689    0.0000 H   0  0  0  0  0  0  0  0  0  0  0  0
  -23.1063    0.9455    0.0000 H   0  0  0  0  0  0  0  0  0  0  0  0
  -20.7740    2.5291    0.0000 H   0  0  0  0  0  0  0  0  0  0  0  0
  -22.5332    1.7394    0.0000 H   0  0  0  0  0  0  0  0  0  0  0  0
  -18.8128    2.1499    0.0000 H   0  0  0  0  0  0  0  0  0  0  0  0
  -19.3958    1.5570    0.0000 H   0  0  0  0  0  0  0  0  0  0  0  0
  -18.9976   -1.8108    0.0000 H   0  0  0  0  0  0  0  0  0  0  0  0
  -15.8139   -2.4836    0.0000 H   0  0  0  0  0  0  0  0  0  0  0  0
  -15.9282   -0.7028    0.0000 H   0  0  0  0  0  0  0  0  0  0  0  0
  -20.1063   -2.5405    0.0000 H   0  0  0  0  0  0  0  0  0  0  0  0
  -20.8011   -5.2914    0.0000 H   0  0  0  0  0  0  0  0  0  0  0  0
  -17.6653   -8.5188    0.0000 H   0  0  0  0  0  0  0  0  0  0  0  0
  -15.8019   -6.7084    0.0000 H   0  0  0  0  0  0  0  0  0  0  0  0
  -14.9838   -3.8221    0.0000 H   0  0  0  0  0  0  0  0  0  0  0  0
  -15.2377   -1.8770    0.0000 H   0  0  0  0  0  0  0  0  0  0  0  0
  -15.3327    1.5129    0.0000 H   0  0  0  0  0  0  0  0  0  0  0  0
  -13.1794    3.1356    0.0000 H   0  0  0  0  0  0  0  0  0  0  0  0
  -14.7597    2.3068    0.0000 H   0  0  0  0  0  0  0  0  0  0  0  0
  -10.5670    0.8476    0.0000 H   0  0  0  0  0  0  0  0  0  0  0  0
  -11.6007    0.0348    0.0000 H   0  0  0  0  0  0  0  0  0  0  0  0
  -10.6302    4.1604    0.0000 H   0  0  0  0  0  0  0  0  0  0  0  0
  -12.2997    3.5304    0.0000 H   0  0  0  0  0  0  0  0  0  0  0  0
   -8.6198    1.3859    0.0000 H   0  0  0  0  0  0  0  0  0  0  0  0
   -6.2988    4.8452    0.0000 H   0  0  0  0  0  0  0  0  0  0  0  0
   -8.4053    6.3659    0.0000 H   0  0  0  0  0  0  0  0  0  0  0  0
  -10.7755    5.3019    0.0000 H   0  0  0  0  0  0  0  0  0  0  0  0
  -11.4402    2.1042    0.0000 H   0  0  0  0  0  0  0  0  0  0  0  0
   -9.3008   -1.1030    0.0000 H   0  0  0  0  0  0  0  0  0  0  0  0
  -11.2240   -1.2434    0.0000 H   0  0  0  0  0  0  0  0  0  0  0  0
   -7.6457   -1.3341    0.0000 H   0  0  0  0  0  0  0  0  0  0  0  0
   -7.5592    2.0803    0.0000 H   0  0  0  0  0  0  0  0  0  0  0  0
   -4.1882    2.6135    0.0000 H   0  0  0  0  0  0  0  0  0  0  0  0
   -5.2269    3.6639    0.0000 H   0  0  0  0  0  0  0  0  0  0  0  0
   -7.0557    2.7047    0.0000 H   0  0  0  0  0  0  0  0  0  0  0  0
   -3.8487    2.6918    0.0000 H   0  0  0  0  0  0  0  0  0  0  0  0
   -3.4505   -0.6760    0.0000 H   0  0  0  0  0  0  0  0  0  0  0  0
   -0.2668   -1.3488    0.0000 H   0  0  0  0  0  0  0  0  0  0  0  0
   -0.3811    0.4320    0.0000 H   0  0  0  0  0  0  0  0  0  0  0  0
   -4.5592   -1.4057    0.0000 H   0  0  0  0  0  0  0  0  0  0  0  0
   -5.2540   -4.1566    0.0000 H   0  0  0  0  0  0  0  0  0  0  0  0
   -3.1635   -6.3082    0.0000 H   0  0  0  0  0  0  0  0  0  0  0  0
   -0.2548   -5.5736    0.0000 H   0  0  0  0  0  0  0  0  0  0  0  0
    0.5633   -2.6873    0.0000 H   0  0  0  0  0  0  0  0  0  0  0  0
    0.3094   -0.7422    0.0000 H   0  0  0  0  0  0  0  0  0  0  0  0
    0.2144    2.6477    0.0000 H   0  0  0  0  0  0  0  0  0  0  0  0
    2.5467    4.2313    0.0000 H   0  0  0  0  0  0  0  0  0  0  0  0
    0.7874    3.4416    0.0000 H   0  0  0  0  0  0  0  0  0  0  0  0
    5.0981    2.3286    0.0000 H   0  0  0  0  0  0  0  0  0  0  0  0
    3.7653    1.1420    0.0000 H   0  0  0  0  0  0  0  0  0  0  0  0
    7.0576    4.6765    0.0000 H   0  0  0  0  0  0  0  0  0  0  0  0
    6.6144    2.3314    0.0000 H   0  0  0  0  0  0  0  0  0  0  0  0
    3.9248    3.2592    0.0000 H   0  0  0  0  0  0  0  0  0  0  0  0
    4.1051   -0.2931    0.0000 H   0  0  0  0  0  0  0  0  0  0  0  0
    4.7882   -1.5956    0.0000 H   0  0  0  0  0  0  0  0  0  0  0  0
    5.0297   -2.1719    0.0000 H   0  0  0  0  0  0  0  0  0  0  0  0
    5.8340   -2.9812    0.0000 H   0  0  0  0  0  0  0  0  0  0  0  0
    6.2995   -3.3734    0.0000 H   0  0  0  0  0  0  0  0  0  0  0  0
    7.5976   -4.0647    0.0000 H   0  0  0  0  0  0  0  0  0  0  0  0
    8.5712   -4.6034    0.0000 H   0  0  0  0  0  0  0  0  0  0  0  0
    3.9036   -1.3724    0.0000 H   0  0  0  0  0  0  0  0  0  0  0  0
    2.7295   -0.5184    0.0000 H   0  0  0  0  0  0  0  0  0  0  0  0
    2.9318    1.1406    0.0000 H   0  0  0  0  0  0  0  0  0  0  0  0
    4.4820    4.8724    0.0000 H   0  0  0  0  0  0  0  0  0  0  0  0
    5.1045    5.3629    0.0000 H   0  0  0  0  0  0  0  0  0  0  0  0
    6.6382    8.1611    0.0000 H   0  0  0  0  0  0  0  0  0  0  0  0
    7.7052    7.1396    0.0000 H   0  0  0  0  0  0  0  0  0  0  0  0
    4.2925    5.7542    0.0000 H   0  0  0  0  0  0  0  0  0  0  0  0
    3.1378    9.2314    0.0000 H   0  0  0  0  0  0  0  0  0  0  0  0
    4.6948   10.1032    0.0000 H   0  0  0  0  0  0  0  0  0  0  0  0
    5.9837    8.8692    0.0000 H   0  0  0  0  0  0  0  0  0  0  0  0
    2.3790    8.2336    0.0000 H   0  0  0  0  0  0  0  0  0  0  0  0
    1.9547    6.5003    0.0000 H   0  0  0  0  0  0  0  0  0  0  0  0
    3.4882    5.5879    0.0000 H   0  0  0  0  0  0  0  0  0  0  0  0
    8.7363    8.0819    0.0000 H   0  0  0  0  0  0  0  0  0  0  0  0
   10.0243    8.0659    0.0000 H   0  0  0  0  0  0  0  0  0  0  0  0
   12.9250    8.6804    0.0000 H   0  0  0  0  0  0  0  0  0  0  0  0
   12.8771    7.0473    0.0000 H   0  0  0  0  0  0  0  0  0  0  0  0
   13.5186   10.2426    0.0000 H   0  0  0  0  0  0  0  0  0  0  0  0
   12.4280   13.0373    0.0000 H   0  0  0  0  0  0  0  0  0  0  0  0
    9.4623   13.4902    0.0000 H   0  0  0  0  0  0  0  0  0  0  0  0
    7.5873   11.1483    0.0000 H   0  0  0  0  0  0  0  0  0  0  0  0
    8.5422    8.4766    0.0000 H   0  0  0  0  0  0  0  0  0  0  0  0
   14.4038    6.7194    0.0000 H   0  0  0  0  0  0  0  0  0  0  0  0
   14.8762    5.8770    0.0000 H   0  0  0  0  0  0  0  0  0  0  0  0
   17.3363    3.9270    0.0000 H   0  0  0  0  0  0  0  0  0  0  0  0
   16.0295    2.9462    0.0000 H   0  0  0  0  0  0  0  0  0  0  0  0
   16.9436    7.2170    0.0000 H   0  0  0  0  0  0  0  0  0  0  0  0
   15.3451    6.4239    0.0000 H   0  0  0  0  0  0  0  0  0  0  0  0
   20.4327    7.0321    0.0000 H   0  0  0  0  0  0  0  0  0  0  0  0
   18.1853    8.3355    0.0000 H   0  0  0  0  0  0  0  0  0  0  0  0
   16.7251    1.5481    0.0000 H   0  0  0  0  0  0  0  0  0  0  0  0
   14.8207   -2.6191    0.0000 H   0  0  0  0  0  0  0  0  0  0  0  0
   15.7101   -1.6596    0.0000 H   0  0  0  0  0  0  0  0  0  0  0  0
   13.5167   -3.7651    0.0000 H   0  0  0  0  0  0  0  0  0  0  0  0
   14.4678   -3.1348    0.0000 H   0  0  0  0  0  0  0  0  0  0  0  0
   11.5706   -4.4701    0.0000 H   0  0  0  0  0  0  0  0  0  0  0  0
   12.9816   -4.0551    0.0000 H   0  0  0  0  0  0  0  0  0  0  0  0
   10.5083   -4.8010    0.0000 H   0  0  0  0  0  0  0  0  0  0  0  0
   17.6912   -0.3119    0.0000 H   0  0  0  0  0  0  0  0  0  0  0  0
   17.5457    1.4666    0.0000 H   0  0  0  0  0  0  0  0  0  0  0  0
   16.1517    1.9555    0.0000 H   0  0  0  0  0  0  0  0  0  0  0  0
   18.0956    0.4756    0.0000 H   0  0  0  0  0  0  0  0  0  0  0  0
   16.9159   -2.5654    0.0000 H   0  0  0  0  0  0  0  0  0  0  0  0
   19.5697   -4.7190    0.0000 H   0  0  0  0  0  0  0  0  0  0  0  0
   20.2394   -3.0650    0.0000 H   0  0  0  0  0  0  0  0  0  0  0  0
   18.2671   -5.9851    0.0000 H   0  0  0  0  0  0  0  0  0  0  0  0
   16.4734   -5.2771    0.0000 H   0  0  0  0  0  0  0  0  0  0  0  0
   16.7230   -3.5102    0.0000 H   0  0  0  0  0  0  0  0  0  0  0  0
   20.3520   -4.4225    0.0000 H   0  0  0  0  0  0  0  0  0  0  0  0
   21.7372   -1.3270    0.0000 H   0  0  0  0  0  0  0  0  0  0  0  0
   24.3814   -0.7994    0.0000 H   0  0  0  0  0  0  0  0  0  0  0  0
   22.5980   -0.8605    0.0000 H   0  0  0  0  0  0  0  0  0  0  0  0
   25.7423   -3.9942    0.0000 H   0  0  0  0  0  0  0  0  0  0  0  0
   24.4583   -4.2780    0.0000 H   0  0  0  0  0  0  0  0  0  0  0  0
   27.1228   -0.9821    0.0000 H   0  0  0  0  0  0  0  0  0  0  0  0
   25.3452   -0.8253    0.0000 H   0  0  0  0  0  0  0  0  0  0  0  0
   27.7302   -4.3541    0.0000 H   0  0  0  0  0  0  0  0  0  0  0  0
   31.3223   -2.2444    0.0000 H   0  0  0  0  0  0  0  0  0  0  0  0
   30.0842    0.0397    0.0000 H   0  0  0  0  0  0  0  0  0  0  0  0
   27.4871    0.1095    0.0000 H   0  0  0  0  0  0  0  0  0  0  0  0
   25.5008   -2.4832    0.0000 H   0  0  0  0  0  0  0  0  0  0  0  0
   24.1658   -5.4270    0.0000 H   0  0  0  0  0  0  0  0  0  0  0  0
   26.8196   -7.5806    0.0000 H   0  0  0  0  0  0  0  0  0  0  0  0
   27.4893   -5.9266    0.0000 H   0  0  0  0  0  0  0  0  0  0  0  0
   23.7234   -8.1387    0.0000 H   0  0  0  0  0  0  0  0  0  0  0  0
   23.9729   -6.3718    0.0000 H   0  0  0  0  0  0  0  0  0  0  0  0
   27.4617  -10.5695    0.0000 H   0  0  0  0  0  0  0  0  0  0  0  0
   27.6019   -7.2841    0.0000 H   0  0  0  0  0  0  0  0  0  0  0  0
   28.9871   -4.1886    0.0000 H   0  0  0  0  0  0  0  0  0  0  0  0
   31.7755   -3.7739    0.0000 H   0  0  0  0  0  0  0  0  0  0  0  0
   29.7117   -3.8446    0.0000 H   0  0  0  0  0  0  0  0  0  0  0  0
   33.3780   -4.9664    0.0000 H   0  0  0  0  0  0  0  0  0  0  0  0
   32.9922   -6.8558    0.0000 H   0  0  0  0  0  0  0  0  0  0  0  0
   31.5331   -7.0859    0.0000 H   0  0  0  0  0  0  0  0  0  0  0  0
   30.7773   -9.3558    0.0000 H   0  0  0  0  0  0  0  0  0  0  0  0
  1  2  1  0
  2  3  1  0
  3  4  2  0
  4  5  1  0
  5  6  2  0
  6  7  1  0
  7  8  2  0
  7  9  1  0
  9 10  1  0
 10 11  1  0
 11 12  2  0
  9 13  1  0
 13 14  1  0
 14 15  2  0
 15 16  1  0
 16 17  2  0
 17 18  1  0
 16 19  1  0
 14 20  1  0
 20 21  1  0
 21 22  2  0
 22 23  1  0
 23 24  2  0
 24 25  1  0
 25 26  2  0
 25 27  1  0
  1 28  2  0
  1 29  1  0
 29 30  1  0
 30 31  1  0
 31 32  1  0
 32 33  2  0
 32 34  1  0
 34 35  1  0
 35 36  1  0
 36 37  1  0
 35 38  1  0
 38 39  2  0
 38 40  1  0
 40 41  1  0
 41 42  1  0
 42 43  1  0
 43 44  2  0
 44 45  1  0
 45 46  2  0
 46 47  1  0
 46 48  1  0
 48 49  2  0
 41 50  1  0
 50 51  2  0
 50 52  1  0
 52 53  1  0
 53 54  1  0
 54 55  1  0
 55 56  1  0
 56 57  1  0
 57 58  1  0
 58 59  2  3
 58 60  1  0
 53 61  1  0
 61 62  2  0
 61 63  1  0
 63 64  1  0
 64 65  1  0
 65 66  2  0
 65 67  1  0
 67 68  1  0
 68 69  1  0
 68 70  1  0
 70 71  2  0
 70 72  1  0
 72 73  1  0
 73 74  1  0
 74 75  1  0
 75 76  2  0
 76 77  1  0
 77 78  2  0
 78 79  1  0
 79 80  2  0
 73 81  1  0
 81 82  2  0
 81 83  1  0
 83 84  1  0
 84 85  1  0
 85 86  1  0
 86 87  1  0
 87 88  1  0
 87 89  2  0
 84 90  1  0
 90 91  2  0
 90 92  1  0
 93 92  1  6
 93 94  1  0
 94 95  1  0
 95 96  1  0
 96 97  1  0
 93 98  1  0
 93 99  1  0
 99100  2  0
 99101  1  0
101102  1  0
102103  1  0
103104  1  0
104105  1  0
104106  1  0
102107  1  0
107108  2  0
107109  1  0
109110  1  0
110111  1  0
111112  1  0
112113  2  0
113114  1  0
114115  2  0
115116  1  0
116117  2  0
110118  1  0
118119  2  0
118120  1  0
120121  1  0
121122  1  0
122123  1  0
123124  1  0
124125  1  0
124126  2  0
121127  1  0
127128  2  0
127129  1  0
129130  1  0
130131  1  0
131132  1  0
132133  1  0
133134  1  0
130135  1  0
130136  1  6
136137  2  0
136138  1  0
138139  1  0
139140  1  0
140141  1  0
139142  1  0
142143  2  0
142144  1  0
144145  1  0
145146  1  0
146147  1  0
147148  1  0
148149  1  0
149150  1  0
150151  2  3
150152  1  0
145153  1  0
153154  2  0
153155  1  0
155156  1  0
156157  1  0
157158  1  0
158159  1  0
159160  2  0
159161  1  0
156162  1  0
162163  2  0
162164  1  0
164165  1  0
165166  1  0
166167  1  0
165168  1  0
168169  2  0
168170  1  0
  8  3  1  0
 49 43  1  0
 80 75  1  0
117112  1  0
 11  6  1  0
 97134  2  0
 18 13  2  0
 22  9  1  0
 26 21  1  0
  2171  1  0
  4172  1  0
  5173  1  0
  8174  1  0
 15175  1  0
 17176  1  0
 18177  1  0
 19178  1  0
 23179  1  0
 24180  1  0
 26181  1  0
 27182  1  0
 29183  1  0
 30184  1  0
 30185  1  0
 31186  1  0
 31187  1  0
 34188  1  0
 35189  1  1
 36190  1  0
 36191  1  0
 37192  1  0
 40193  1  0
 41194  1  6
 42195  1  0
 42196  1  0
 44197  1  0
 45198  1  0
 47199  1  0
 48200  1  0
 49201  1  0
 52202  1  0
 53203  1  1
 54204  1  0
 54205  1  0
 55206  1  0
 55207  1  0
 56208  1  0
 56209  1  0
 57210  1  0
 59211  1  0
 60212  1  0
 60213  1  0
 63214  1  0
 64215  1  0
 64216  1  0
 67217  1  0
 68218  1  1
 69219  1  0
 69220  1  0
 69221  1  0
 72222  1  0
 73223  1  6
 74224  1  0
 74225  1  0
 76226  1  0
 77227  1  0
 78228  1  0
 79229  1  0
 80230  1  0
 83231  1  0
 84232  1  1
 85233  1  0
 85234  1  0
 86235  1  0
 86236  1  0
 88237  1  0
 88238  1  0
 92239  1  0
 94240  1  0
 94241  1  0
 95242  1  0
 95243  1  0
 96244  1  0
 96245  1  0
 97246  1  0
 98247  1  0
 98248  1  0
 98249  1  0
101250  1  0
102251  1  1
103252  1  0
103253  1  0
104254  1  0
105255  1  0
105256  1  0
105257  1  0
106258  1  0
106259  1  0
106260  1  0
109261  1  0
110262  1  1
111263  1  0
111264  1  0
113265  1  0
114266  1  0
115267  1  0
116268  1  0
117269  1  0
120270  1  0
121271  1  1
122272  1  0
122273  1  0
123274  1  0
123275  1  0
125276  1  0
125277  1  0
129278  1  0
131279  1  0
131280  1  0
132281  1  0
132282  1  0
133283  1  0
133284  1  0
134285  1  0
135286  1  0
135287  1  0
135288  1  0
138289  1  0
139290  1  6
140291  1  0
140292  1  0
141293  1  0
141294  1  0
141295  1  0
144296  1  0
145297  1  1
146298  1  0
146299  1  0
147300  1  0
147301  1  0
148302  1  0
148303  1  0
149304  1  0
151305  1  0
152306  1  0
152307  1  0
155308  1  0
156309  1  6
157310  1  0
157311  1  0
158312  1  0
158313  1  0
161314  1  0
164315  1  0
165316  1  1
166317  1  0
166318  1  0
167319  1  0
167320  1  0
167321  1  0
170322  1  0
M  END
