
     RDKit          2D

341347  0  0  0  0  0  0  0  0999 V2000
   44.1323   -0.5705    0.0000 C   0  0  0  0  0  0  0  0  0  0  0  0
   45.4315    0.1791    0.0000 N   0  0  0  0  0  0  0  0  0  0  0  0
   46.7303   -0.5713    0.0000 C   0  0  0  0  0  0  0  0  0  0  0  0
   46.7299   -2.0713    0.0000 C   0  0  0  0  0  0  0  0  0  0  0  0
   48.0287   -2.8216    0.0000 C   0  0  0  0  0  0  0  0  0  0  0  0
   49.3280   -2.0720    0.0000 C   0  0  0  0  0  0  0  0  0  0  0  0
   49.3284   -0.5720    0.0000 C   0  0  0  0  0  0  0  0  0  0  0  0
   48.0296    0.1784    0.0000 C   0  0  0  0  0  0  0  0  0  0  0  0
   50.7551   -0.1088    0.0000 C   0  0  0  0  0  0  0  0  0  0  0  0
   51.6365   -1.3226    0.0000 O   0  0  0  0  0  0  0  0  0  0  0  0
   50.7544   -2.5359    0.0000 C   0  0  0  0  0  0  0  0  0  0  0  0
   51.2176   -3.9626    0.0000 O   0  0  0  0  0  0  0  0  0  0  0  0
   52.2224    0.2026    0.0000 C   0  0  0  0  0  0  0  0  0  0  0  0
   52.6863    1.6291    0.0000 C   0  0  0  0  0  0  0  0  0  0  0  0
   54.1536    1.9405    0.0000 C   0  0  0  0  0  0  0  0  0  0  0  0
   55.1570    0.8255    0.0000 C   0  0  0  0  0  0  0  0  0  0  0  0
   54.6931   -0.6009    0.0000 C   0  0  0  0  0  0  0  0  0  0  0  0
   53.2258   -0.9124    0.0000 C   0  0  0  0  0  0  0  0  0  0  0  0
   56.6243    1.1370    0.0000 O   0  0  0  0  0  0  0  0  0  0  0  0
   51.6830    2.7441    0.0000 O   0  0  0  0  0  0  0  0  0  0  0  0
   50.2156    2.4326    0.0000 C   0  0  0  0  0  0  0  0  0  0  0  0
   49.7517    1.0062    0.0000 C   0  0  0  0  0  0  0  0  0  0  0  0
   48.5009    1.3604    0.0000 C   0  0  0  0  0  0  0  0  0  0  0  0
   47.9658    1.9550    0.0000 C   0  0  0  0  0  0  0  0  0  0  0  0
   48.2132    2.7158    0.0000 C   0  0  0  0  0  0  0  0  0  0  0  0
   48.9958    2.8819    0.0000 C   0  0  0  0  0  0  0  0  0  0  0  0
   46.7416    4.3511    0.0000 O   0  0  0  0  0  0  0  0  0  0  0  0
   44.1318   -2.0705    0.0000 S   0  0  0  0  0  0  0  0  0  0  0  0
   42.8334    0.1798    0.0000 N   0  0  0  0  0  0  0  0  0  0  0  0
   41.5342   -0.5698    0.0000 C   0  0  0  0  0  0  0  0  0  0  0  0
   40.2353    0.1805    0.0000 C   0  0  0  0  0  0  0  0  0  0  0  0
   38.9361   -0.5691    0.0000 O   0  0  0  0  0  0  0  0  0  0  0  0
   37.6373    0.1812    0.0000 C   0  0  0  0  0  0  0  0  0  0  0  0
   36.3380   -0.5684    0.0000 C   0  0  0  0  0  0  0  0  0  0  0  0
   35.0392    0.1820    0.0000 O   0  0  0  0  0  0  0  0  0  0  0  0
   33.7399   -0.5677    0.0000 C   0  0  0  0  0  0  0  0  0  0  0  0
   32.4411    0.1827    0.0000 C   0  0  0  0  0  0  0  0  0  0  0  0
   31.1419   -0.5670    0.0000 O   0  0  0  0  0  0  0  0  0  0  0  0
   29.8430    0.1834    0.0000 C   0  0  0  0  0  0  0  0  0  0  0  0
   28.5438   -0.5663    0.0000 C   0  0  0  0  0  0  0  0  0  0  0  0
   27.2450    0.1841    0.0000 O   0  0  0  0  0  0  0  0  0  0  0  0
   25.9457   -0.5655    0.0000 C   0  0  0  0  0  0  0  0  0  0  0  0
   24.6469    0.1848    0.0000 C   0  0  0  0  0  0  0  0  0  0  0  0
   23.3476   -0.5648    0.0000 O   0  0  0  0  0  0  0  0  0  0  0  0
   22.0488    0.1855    0.0000 C   0  0  0  0  0  0  0  0  0  0  0  0
   20.7496   -0.5641    0.0000 C   0  0  0  0  0  0  0  0  0  0  0  0
   19.4507    0.1863    0.0000 O   0  0  0  0  0  0  0  0  0  0  0  0
   18.1515   -0.5634    0.0000 C   0  0  0  0  0  0  0  0  0  0  0  0
   16.8527    0.1870    0.0000 C   0  0  0  0  0  0  0  0  0  0  0  0
   15.5534   -0.5627    0.0000 C   0  0  0  0  0  0  0  0  0  0  0  0
   15.5530   -2.0627    0.0000 O   0  0  0  0  0  0  0  0  0  0  0  0
   14.2546    0.1877    0.0000 N   0  0  0  0  0  0  0  0  0  0  0  0
   12.9553   -0.5620    0.0000 C   0  0  0  0  0  0  0  0  0  0  0  0
   11.9908   -1.7108    0.0000 C   0  0  0  0  0  0  0  0  0  0  0  0
   10.5137   -1.4499    0.0000 C   0  0  0  0  0  0  0  0  0  0  0  0
    9.5492   -2.5987    0.0000 N   0  0  0  0  0  0  0  0  0  0  0  0
   10.0681   -0.7889    0.0000 O   0  0  0  0  0  0  0  0  0  0  0  0
   11.6565    0.1884    0.0000 C   0  0  0  0  0  0  0  0  0  0  0  0
   11.6569    1.6884    0.0000 O   0  0  0  0  0  0  0  0  0  0  0  0
   10.3573   -0.5612    0.0000 N   0  0  0  0  0  0  0  0  0  0  0  0
    9.0584    0.1891    0.0000 C   0  0  0  0  0  0  0  0  0  0  0  0
    8.0946    1.3384    0.0000 C   0  0  0  0  0  0  0  0  0  0  0  0
    6.6173    1.0784    0.0000 C   0  0  0  0  0  0  0  0  0  0  0  0
    5.6534    2.2277    0.0000 C   0  0  0  0  0  0  0  0  0  0  0  0
    4.1554    2.1497    0.0000 N   0  0  0  0  0  0  0  0  0  0  0  0
    6.1668    3.6371    0.0000 O   0  0  0  0  0  0  0  0  0  0  0  0
    7.7592   -0.5605    0.0000 C   0  0  0  0  0  0  0  0  0  0  0  0
    7.5759   -2.0493    0.0000 O   0  0  0  0  0  0  0  0  0  0  0  0
    6.4604    0.1898    0.0000 N   0  0  0  0  0  0  0  0  0  0  0  0
    5.1611   -0.5598    0.0000 C   0  0  0  0  0  0  0  0  0  0  0  0
    4.1966   -1.7086    0.0000 C   0  0  0  0  0  0  0  0  0  0  0  0
    2.7195   -1.4477    0.0000 C   0  0  0  0  0  0  0  0  0  0  0  0
    1.7550   -2.5965    0.0000 C   0  0  0  0  0  0  0  0  0  0  0  0
    1.4206   -0.6974    0.0000 C   0  0  0  0  0  0  0  0  0  0  0  0
    3.8623    0.1905    0.0000 C   0  0  0  0  0  0  0  0  0  0  0  0
    3.6798    1.6794    0.0000 O   0  0  0  0  0  0  0  0  0  0  0  0
    2.5630   -0.5591    0.0000 N   0  0  0  0  0  0  0  0  0  0  0  0
    1.2642    0.1913    0.0000 C   0  0  0  0  0  0  0  0  0  0  0  0
    0.3003    1.3406    0.0000 C   0  0  0  0  0  0  0  0  0  0  0  0
   -1.1769    1.0805    0.0000 C   0  0  0  0  0  0  0  0  0  0  0  0
   -2.1408    2.2299    0.0000 C   0  0  0  0  0  0  0  0  0  0  0  0
   -3.6181    1.9698    0.0000 C   0  0  0  0  0  0  0  0  0  0  0  0
   -4.5820    3.1191    0.0000 N   0  0  0  0  0  0  0  0  0  0  0  0
   -0.0350   -0.5584    0.0000 C   0  0  0  0  0  0  0  0  0  0  0  0
   -0.3984   -2.0137    0.0000 O   0  0  0  0  0  0  0  0  0  0  0  0
   -1.3339    0.1920    0.0000 N   0  0  0  0  0  0  0  0  0  0  0  0
   -2.6331   -0.5577    0.0000 C   0  0  0  0  0  0  0  0  0  0  0  0
   -3.5976   -1.7065    0.0000 C   0  0  0  0  0  0  0  0  0  0  0  0
   -5.0748   -1.4456    0.0000 C   0  0  0  0  0  0  0  0  0  0  0  0
   -6.0393   -2.5944    0.0000 C   0  0  0  0  0  0  0  0  0  0  0  0
   -7.5164   -2.3335    0.0000 N   0  0  0  0  0  0  0  0  0  0  0  0
   -8.4809   -3.4823    0.0000 C   0  0  0  0  0  0  0  0  0  0  0  0
   -9.9152   -3.0433    0.0000 N   0  0  0  0  0  0  0  0  0  0  0  0
   -7.9682   -4.8920    0.0000 N   0  0  0  0  0  0  0  0  0  0  0  0
   -3.9319    0.1927    0.0000 C   0  0  0  0  0  0  0  0  0  0  0  0
   -4.2945    1.6482    0.0000 O   0  0  0  0  0  0  0  0  0  0  0  0
   -5.2312   -0.5570    0.0000 N   0  0  0  0  0  0  0  0  0  0  0  0
   -6.5300    0.1934    0.0000 C   0  0  0  0  0  0  0  0  0  0  0  0
   -7.4939    1.3427    0.0000 C   0  0  0  0  0  0  0  0  0  0  0  0
   -8.9662    1.6295    0.0000 O   0  0  0  0  0  0  0  0  0  0  0  0
   -7.8293   -0.5562    0.0000 C   0  0  0  0  0  0  0  0  0  0  0  0
   -8.1926   -2.0116    0.0000 O   0  0  0  0  0  0  0  0  0  0  0  0
   -9.1281    0.1941    0.0000 N   0  0  0  0  0  0  0  0  0  0  0  0
  -10.4273   -0.5555    0.0000 C   0  0  0  0  0  0  0  0  0  0  0  0
  -11.3918   -1.7043    0.0000 C   0  0  0  0  0  0  0  0  0  0  0  0
  -12.8690   -1.4434    0.0000 C   0  0  0  0  0  0  0  0  0  0  0  0
  -13.3816   -0.0338    0.0000 C   0  0  0  0  0  0  0  0  0  0  0  0
  -14.8588    0.2271    0.0000 C   0  0  0  0  0  0  0  0  0  0  0  0
  -15.8233   -0.9217    0.0000 C   0  0  0  0  0  0  0  0  0  0  0  0
  -15.3106   -2.3314    0.0000 C   0  0  0  0  0  0  0  0  0  0  0  0
  -13.8335   -2.5922    0.0000 C   0  0  0  0  0  0  0  0  0  0  0  0
  -11.7262    0.1948    0.0000 C   0  0  0  0  0  0  0  0  0  0  0  0
  -11.3628    1.6502    0.0000 O   0  0  0  0  0  0  0  0  0  0  0  0
  -13.0254   -0.5548    0.0000 N   0  0  0  0  0  0  0  0  0  0  0  0
  -14.3243    0.1956    0.0000 C   0  0  0  0  0  0  0  0  0  0  0  0
  -15.2881    1.3449    0.0000 C   0  0  0  0  0  0  0  0  0  0  0  0
  -14.7747    2.7543    0.0000 C   0  0  0  0  0  0  0  0  0  0  0  0
  -13.2974    3.0143    0.0000 C   0  0  0  0  0  0  0  0  0  0  0  0
  -12.7840    4.4237    0.0000 C   0  0  0  0  0  0  0  0  0  0  0  0
  -13.7479    5.5731    0.0000 C   0  0  0  0  0  0  0  0  0  0  0  0
  -15.2251    5.3130    0.0000 C   0  0  0  0  0  0  0  0  0  0  0  0
  -15.7386    3.9036    0.0000 C   0  0  0  0  0  0  0  0  0  0  0  0
  -15.6235   -0.5541    0.0000 C   0  0  0  0  0  0  0  0  0  0  0  0
  -15.9869   -2.0094    0.0000 O   0  0  0  0  0  0  0  0  0  0  0  0
  -16.9223    0.1963    0.0000 N   0  0  0  0  0  0  0  0  0  0  0  0
  -18.2216   -0.5534    0.0000 C   0  0  0  0  0  0  0  0  0  0  0  0
  -19.1861   -1.7022    0.0000 C   0  0  0  0  0  0  0  0  0  0  0  0
  -19.5204    0.1970    0.0000 C   0  0  0  0  0  0  0  0  0  0  0  0
  -19.5200    1.6970    0.0000 O   0  0  0  0  0  0  0  0  0  0  0  0
  -20.8197   -0.5527    0.0000 N   0  0  0  0  0  0  0  0  0  0  0  0
  -22.1185    0.1977    0.0000 C   0  0  0  0  0  0  0  0  0  0  0  0
  -23.0823    1.3470    0.0000 C   0  0  0  0  0  0  0  0  0  0  0  0
  -22.5689    2.7564    0.0000 C   0  0  0  0  0  0  0  0  0  0  0  0
  -23.5328    3.9058    0.0000 C   0  0  0  0  0  0  0  0  0  0  0  0
  -21.6044    3.9052    0.0000 C   0  0  0  0  0  0  0  0  0  0  0  0
  -23.4177   -0.5519    0.0000 C   0  0  0  0  0  0  0  0  0  0  0  0
  -23.4181   -2.0519    0.0000 O   0  0  0  0  0  0  0  0  0  0  0  0
  -24.7166    0.1984    0.0000 N   0  0  0  0  0  0  0  0  0  0  0  0
  -26.0158   -0.5512    0.0000 C   0  0  0  0  0  0  0  0  0  0  0  0
  -26.9803   -1.7000    0.0000 C   0  0  0  0  0  0  0  0  0  0  0  0
  -28.4574   -1.4392    0.0000 C   0  0  0  0  0  0  0  0  0  0  0  0
  -29.4219   -2.5880    0.0000 C   0  0  0  0  0  0  0  0  0  0  0  0
  -30.8991   -2.3271    0.0000 N   0  0  0  0  0  0  0  0  0  0  0  0
  -31.8636   -3.4759    0.0000 C   0  0  0  0  0  0  0  0  0  0  0  0
  -33.2979   -3.0369    0.0000 N   0  0  0  0  0  0  0  0  0  0  0  0
  -31.3509   -4.8856    0.0000 N   0  0  0  0  0  0  0  0  0  0  0  0
  -27.3146    0.1991    0.0000 C   0  0  0  0  0  0  0  0  0  0  0  0
  -27.3142    1.6991    0.0000 O   0  0  0  0  0  0  0  0  0  0  0  0
  -28.6139   -0.5505    0.0000 N   0  0  0  0  0  0  0  0  0  0  0  0
  -29.9127    0.1998    0.0000 C   0  0  0  0  0  0  0  0  0  0  0  0
  -30.8766    1.3492    0.0000 C   0  0  0  0  0  0  0  0  0  0  0  0
  -30.3632    2.7586    0.0000 C   0  0  0  0  0  0  0  0  0  0  0  0
  -31.3270    3.9079    0.0000 O   0  0  0  0  0  0  0  0  0  0  0  0
  -28.8859    3.0186    0.0000 O   0  0  0  0  0  0  0  0  0  0  0  0
  -31.2120   -0.5498    0.0000 C   0  0  0  0  0  0  0  0  0  0  0  0
  -31.5753   -2.0051    0.0000 O   0  0  0  0  0  0  0  0  0  0  0  0
  -32.5108    0.2006    0.0000 N   0  0  0  0  0  0  0  0  0  0  0  0
  -33.8100   -0.5491    0.0000 C   0  0  0  0  0  0  0  0  0  0  0  0
  -34.7745   -1.6979    0.0000 C   0  0  0  0  0  0  0  0  0  0  0  0
  -36.2517   -1.4370    0.0000 C   0  0  0  0  0  0  0  0  0  0  0  0
  -37.2162   -2.5858    0.0000 C   0  0  0  0  0  0  0  0  0  0  0  0
  -38.7141   -2.5069    0.0000 N   0  0  0  0  0  0  0  0  0  0  0  0
  -36.7035   -3.9955    0.0000 O   0  0  0  0  0  0  0  0  0  0  0  0
  -35.1089    0.2013    0.0000 C   0  0  0  0  0  0  0  0  0  0  0  0
  -35.1085    1.7013    0.0000 O   0  0  0  0  0  0  0  0  0  0  0  0
  -36.4081   -0.5484    0.0000 N   0  0  0  0  0  0  0  0  0  0  0  0
  -37.7069    0.2020    0.0000 C   0  0  0  0  0  0  0  0  0  0  0  0
  -38.6708    1.3513    0.0000 C   0  0  0  0  0  0  0  0  0  0  0  0
  -37.9894    2.6876    0.0000 C   0  0  0  0  0  0  0  0  0  0  0  0
  -39.9696    2.1017    0.0000 C   0  0  0  0  0  0  0  0  0  0  0  0
  -39.9692    3.6017    0.0000 C   0  0  0  0  0  0  0  0  0  0  0  0
  -39.0062   -0.5477    0.0000 C   0  0  0  0  0  0  0  0  0  0  0  0
  -40.4480   -0.1339    0.0000 O   0  0  0  0  0  0  0  0  0  0  0  0
  -39.1894   -2.0364    0.0000 O   0  0  0  0  0  0  0  0  0  0  0  0
   45.2491    1.6680    0.0000 H   0  0  0  0  0  0  0  0  0  0  0  0
   45.4307   -2.8209    0.0000 H   0  0  0  0  0  0  0  0  0  0  0  0
   48.0283   -4.3216    0.0000 H   0  0  0  0  0  0  0  0  0  0  0  0
   47.6670    1.6339    0.0000 H   0  0  0  0  0  0  0  0  0  0  0  0
   54.6176    3.3670    0.0000 H   0  0  0  0  0  0  0  0  0  0  0  0
   55.6965   -1.7159    0.0000 H   0  0  0  0  0  0  0  0  0  0  0  0
   52.7619   -2.3388    0.0000 H   0  0  0  0  0  0  0  0  0  0  0  0
   57.6277    0.0220    0.0000 H   0  0  0  0  0  0  0  0  0  0  0  0
   47.8205   -0.7318    0.0000 H   0  0  0  0  0  0  0  0  0  0  0  0
   45.7867    1.6794    0.0000 H   0  0  0  0  0  0  0  0  0  0  0  0
   49.6762    4.9741    0.0000 H   0  0  0  0  0  0  0  0  0  0  0  0
   47.2055    5.7776    0.0000 H   0  0  0  0  0  0  0  0  0  0  0  0
   42.8338    1.6798    0.0000 H   0  0  0  0  0  0  0  0  0  0  0  0
   40.5697   -1.7186    0.0000 H   0  0  0  0  0  0  0  0  0  0  0  0
   42.4980   -1.7192    0.0000 H   0  0  0  0  0  0  0  0  0  0  0  0
   39.4188    1.4388    0.0000 H   0  0  0  0  0  0  0  0  0  0  0  0
   41.1998    1.3293    0.0000 H   0  0  0  0  0  0  0  0  0  0  0  0
   36.6734    1.3306    0.0000 H   0  0  0  0  0  0  0  0  0  0  0  0
   38.4545    1.4390    0.0000 H   0  0  0  0  0  0  0  0  0  0  0  0
   35.5208   -1.8262    0.0000 H   0  0  0  0  0  0  0  0  0  0  0  0
   37.3019   -1.7177    0.0000 H   0  0  0  0  0  0  0  0  0  0  0  0
   32.7754   -1.7165    0.0000 H   0  0  0  0  0  0  0  0  0  0  0  0
   34.5565   -1.8259    0.0000 H   0  0  0  0  0  0  0  0  0  0  0  0
   31.6245    1.4409    0.0000 H   0  0  0  0  0  0  0  0  0  0  0  0
   33.4056    1.3315    0.0000 H   0  0  0  0  0  0  0  0  0  0  0  0
   28.8792    1.3327    0.0000 H   0  0  0  0  0  0  0  0  0  0  0  0
   30.6603    1.4412    0.0000 H   0  0  0  0  0  0  0  0  0  0  0  0
   27.7265   -1.8241    0.0000 H   0  0  0  0  0  0  0  0  0  0  0  0
   29.5077   -1.7156    0.0000 H   0  0  0  0  0  0  0  0  0  0  0  0
   24.9812   -1.7143    0.0000 H   0  0  0  0  0  0  0  0  0  0  0  0
   26.7623   -1.8238    0.0000 H   0  0  0  0  0  0  0  0  0  0  0  0
   23.8303    1.4431    0.0000 H   0  0  0  0  0  0  0  0  0  0  0  0
   25.6114    1.3336    0.0000 H   0  0  0  0  0  0  0  0  0  0  0  0
   21.0849    1.3349    0.0000 H   0  0  0  0  0  0  0  0  0  0  0  0
   22.8661    1.4433    0.0000 H   0  0  0  0  0  0  0  0  0  0  0  0
   19.9323   -1.8219    0.0000 H   0  0  0  0  0  0  0  0  0  0  0  0
   21.7134   -1.7134    0.0000 H   0  0  0  0  0  0  0  0  0  0  0  0
   17.1870   -1.7122    0.0000 H   0  0  0  0  0  0  0  0  0  0  0  0
   18.9681   -1.8216    0.0000 H   0  0  0  0  0  0  0  0  0  0  0  0
   15.8888    1.3363    0.0000 H   0  0  0  0  0  0  0  0  0  0  0  0
   17.8172    1.3358    0.0000 H   0  0  0  0  0  0  0  0  0  0  0  0
   14.2550    1.6877    0.0000 H   0  0  0  0  0  0  0  0  0  0  0  0
   13.9192   -1.7113    0.0000 H   0  0  0  0  0  0  0  0  0  0  0  0
   11.4774   -3.1202    0.0000 H   0  0  0  0  0  0  0  0  0  0  0  0
   13.2897   -2.4611    0.0000 H   0  0  0  0  0  0  0  0  0  0  0  0
    8.0513   -2.5198    0.0000 H   0  0  0  0  0  0  0  0  0  0  0  0
   10.0618   -4.0084    0.0000 H   0  0  0  0  0  0  0  0  0  0  0  0
    9.9939   -2.0166    0.0000 H   0  0  0  0  0  0  0  0  0  0  0  0
   10.0229    1.3379    0.0000 H   0  0  0  0  0  0  0  0  0  0  0  0
    7.5819    2.7481    0.0000 H   0  0  0  0  0  0  0  0  0  0  0  0
    9.3938    2.0881    0.0000 H   0  0  0  0  0  0  0  0  0  0  0  0
    5.3180    0.3287    0.0000 H   0  0  0  0  0  0  0  0  0  0  0  0
    6.4080   -0.4069    0.0000 H   0  0  0  0  0  0  0  0  0  0  0  0
    3.2123    3.1170    0.0000 H   0  0  0  0  0  0  0  0  0  0  0  0
    3.1250    0.8406    0.0000 H   0  0  0  0  0  0  0  0  0  0  0  0
    6.0978    1.6454    0.0000 H   0  0  0  0  0  0  0  0  0  0  0  0
    6.1250   -1.7091    0.0000 H   0  0  0  0  0  0  0  0  0  0  0  0
    3.8588   -3.1701    0.0000 H   0  0  0  0  0  0  0  0  0  0  0  0
    5.4954   -2.4590    0.0000 H   0  0  0  0  0  0  0  0  0  0  0  0
    2.3314    0.0012    0.0000 H   0  0  0  0  0  0  0  0  0  0  0  0
    0.2586   -2.7008    0.0000 H   0  0  0  0  0  0  0  0  0  0  0  0
    1.2416   -4.0059    0.0000 H   0  0  0  0  0  0  0  0  0  0  0  0
    2.9527   -3.4996    0.0000 H   0  0  0  0  0  0  0  0  0  0  0  0
    0.1214   -1.4470    0.0000 H   0  0  0  0  0  0  0  0  0  0  0  0
    0.4568    0.4520    0.0000 H   0  0  0  0  0  0  0  0  0  0  0  0
    2.5180    0.3253    0.0000 H   0  0  0  0  0  0  0  0  0  0  0  0
    2.1997   -2.0144    0.0000 H   0  0  0  0  0  0  0  0  0  0  0  0
    2.0815    1.4491    0.0000 H   0  0  0  0  0  0  0  0  0  0  0  0
   -0.0366    2.8022    0.0000 H   0  0  0  0  0  0  0  0  0  0  0  0
    1.5996    2.0902    0.0000 H   0  0  0  0  0  0  0  0  0  0  0  0
   -2.3751    0.1781    0.0000 H   0  0  0  0  0  0  0  0  0  0  0  0
   -1.3863   -0.4048    0.0000 H   0  0  0  0  0  0  0  0  0  0  0  0
   -2.4778    3.6915    0.0000 H   0  0  0  0  0  0  0  0  0  0  0  0
   -0.9426    3.1323    0.0000 H   0  0  0  0  0  0  0  0  0  0  0  0
   -4.9990    1.3841    0.0000 H   0  0  0  0  0  0  0  0  0  0  0  0
   -3.2811    0.5081    0.0000 H   0  0  0  0  0  0  0  0  0  0  0  0
   -6.0165    2.6809    0.0000 H   0  0  0  0  0  0  0  0  0  0  0  0
   -5.0946    4.5288    0.0000 H   0  0  0  0  0  0  0  0  0  0  0  0
   -3.3838    4.0215    0.0000 H   0  0  0  0  0  0  0  0  0  0  0  0
   -1.6964    1.6475    0.0000 H   0  0  0  0  0  0  0  0  0  0  0  0
   -1.6693   -1.7070    0.0000 H   0  0  0  0  0  0  0  0  0  0  0  0
   -3.9354   -3.1679    0.0000 H   0  0  0  0  0  0  0  0  0  0  0  0
   -2.2988   -2.4568    0.0000 H   0  0  0  0  0  0  0  0  0  0  0  0
   -6.3736   -0.6952    0.0000 H   0  0  0  0  0  0  0  0  0  0  0  0
   -5.2833    0.0398    0.0000 H   0  0  0  0  0  0  0  0  0  0  0  0
   -6.5527   -4.0038    0.0000 H   0  0  0  0  0  0  0  0  0  0  0  0
   -4.8416   -3.4975    0.0000 H   0  0  0  0  0  0  0  0  0  0  0  0
   -8.3549   -1.0898    0.0000 H   0  0  0  0  0  0  0  0  0  0  0  0
  -10.9225   -4.3702    0.0000 H   0  0  0  0  0  0  0  0  0  0  0  0
  -10.3164   -1.7532    0.0000 H   0  0  0  0  0  0  0  0  0  0  0  0
   -8.9327   -6.0408    0.0000 H   0  0  0  0  0  0  0  0  0  0  0  0
   -6.4911   -5.1529    0.0000 H   0  0  0  0  0  0  0  0  0  0  0  0
   -5.5946   -2.0123    0.0000 H   0  0  0  0  0  0  0  0  0  0  0  0
   -5.7128    1.4512    0.0000 H   0  0  0  0  0  0  0  0  0  0  0  0
   -8.0065    2.7524    0.0000 H   0  0  0  0  0  0  0  0  0  0  0  0
   -6.1130    1.9284    0.0000 H   0  0  0  0  0  0  0  0  0  0  0  0
   -9.9350    2.2320    0.0000 H   0  0  0  0  0  0  0  0  0  0  0  0
   -9.3105    1.6830    0.0000 H   0  0  0  0  0  0  0  0  0  0  0  0
   -9.4635   -1.7049    0.0000 H   0  0  0  0  0  0  0  0  0  0  0  0
  -11.9053   -3.1137    0.0000 H   0  0  0  0  0  0  0  0  0  0  0  0
   -9.9500   -2.1181    0.0000 H   0  0  0  0  0  0  0  0  0  0  0  0
  -12.4171    1.1150    0.0000 H   0  0  0  0  0  0  0  0  0  0  0  0
  -15.6973    1.4709    0.0000 H   0  0  0  0  0  0  0  0  0  0  0  0
  -17.3004   -0.6608    0.0000 H   0  0  0  0  0  0  0  0  0  0  0  0
  -16.2751   -3.4802    0.0000 H   0  0  0  0  0  0  0  0  0  0  0  0
  -13.3208   -4.0019    0.0000 H   0  0  0  0  0  0  0  0  0  0  0  0
  -13.3888   -2.0101    0.0000 H   0  0  0  0  0  0  0  0  0  0  0  0
  -13.3598    1.3444    0.0000 H   0  0  0  0  0  0  0  0  0  0  0  0
  -16.4858    2.2480    0.0000 H   0  0  0  0  0  0  0  0  0  0  0  0
  -16.5019    0.4636    0.0000 H   0  0  0  0  0  0  0  0  0  0  0  0
  -12.0841    2.1324    0.0000 H   0  0  0  0  0  0  0  0  0  0  0  0
  -11.3067    4.6838    0.0000 H   0  0  0  0  0  0  0  0  0  0  0  0
  -13.2344    6.9825    0.0000 H   0  0  0  0  0  0  0  0  0  0  0  0
  -16.1890    6.4623    0.0000 H   0  0  0  0  0  0  0  0  0  0  0  0
  -17.2158    3.6435    0.0000 H   0  0  0  0  0  0  0  0  0  0  0  0
  -17.1048    1.6851    0.0000 H   0  0  0  0  0  0  0  0  0  0  0  0
  -17.2577   -1.7027    0.0000 H   0  0  0  0  0  0  0  0  0  0  0  0
  -20.6586   -1.9881    0.0000 H   0  0  0  0  0  0  0  0  0  0  0  0
  -19.6995   -3.1116    0.0000 H   0  0  0  0  0  0  0  0  0  0  0  0
  -17.8872   -2.4525    0.0000 H   0  0  0  0  0  0  0  0  0  0  0  0
  -21.0029   -2.0414    0.0000 H   0  0  0  0  0  0  0  0  0  0  0  0
  -21.0211    1.2204    0.0000 H   0  0  0  0  0  0  0  0  0  0  0  0
  -24.3812    2.0974    0.0000 H   0  0  0  0  0  0  0  0  0  0  0  0
  -24.2962    0.4658    0.0000 H   0  0  0  0  0  0  0  0  0  0  0  0
  -21.1883    2.1700    0.0000 H   0  0  0  0  0  0  0  0  0  0  0  0
  -23.1950    5.3672    0.0000 H   0  0  0  0  0  0  0  0  0  0  0  0
  -24.8316    4.6561    0.0000 H   0  0  0  0  0  0  0  0  0  0  0  0
  -24.6301    2.8831    0.0000 H   0  0  0  0  0  0  0  0  0  0  0  0
  -21.9414    5.3669    0.0000 H   0  0  0  0  0  0  0  0  0  0  0  0
  -20.3052    4.6549    0.0000 H   0  0  0  0  0  0  0  0  0  0  0  0
  -20.6406    2.7559    0.0000 H   0  0  0  0  0  0  0  0  0  0  0  0
  -24.8990    1.6873    0.0000 H   0  0  0  0  0  0  0  0  0  0  0  0
  -25.0519   -1.7006    0.0000 H   0  0  0  0  0  0  0  0  0  0  0  0
  -27.3181   -3.1615    0.0000 H   0  0  0  0  0  0  0  0  0  0  0  0
  -25.6815   -2.4504    0.0000 H   0  0  0  0  0  0  0  0  0  0  0  0
  -29.7563   -0.6888    0.0000 H   0  0  0  0  0  0  0  0  0  0  0  0
  -28.6660    0.0463    0.0000 H   0  0  0  0  0  0  0  0  0  0  0  0
  -29.9354   -3.9974    0.0000 H   0  0  0  0  0  0  0  0  0  0  0  0
  -28.2243   -3.4910    0.0000 H   0  0  0  0  0  0  0  0  0  0  0  0
  -31.7376   -1.0833    0.0000 H   0  0  0  0  0  0  0  0  0  0  0  0
  -34.3052   -4.3638    0.0000 H   0  0  0  0  0  0  0  0  0  0  0  0
  -33.6991   -1.7468    0.0000 H   0  0  0  0  0  0  0  0  0  0  0  0
  -32.3154   -6.0344    0.0000 H   0  0  0  0  0  0  0  0  0  0  0  0
  -29.8738   -5.1464    0.0000 H   0  0  0  0  0  0  0  0  0  0  0  0
  -28.9772   -2.0058    0.0000 H   0  0  0  0  0  0  0  0  0  0  0  0
  -28.9482    1.3486    0.0000 H   0  0  0  0  0  0  0  0  0  0  0  0
  -32.0743    2.2523    0.0000 H   0  0  0  0  0  0  0  0  0  0  0  0
  -32.0904    0.4679    0.0000 H   0  0  0  0  0  0  0  0  0  0  0  0
  -32.6932    1.6894    0.0000 H   0  0  0  0  0  0  0  0  0  0  0  0
  -32.8462   -1.6984    0.0000 H   0  0  0  0  0  0  0  0  0  0  0  0
  -35.2879   -3.1073    0.0000 H   0  0  0  0  0  0  0  0  0  0  0  0
  -33.3327   -2.1117    0.0000 H   0  0  0  0  0  0  0  0  0  0  0  0
  -37.5505   -0.6866    0.0000 H   0  0  0  0  0  0  0  0  0  0  0  0
  -36.4602    0.0484    0.0000 H   0  0  0  0  0  0  0  0  0  0  0  0
  -39.6578   -3.4737    0.0000 H   0  0  0  0  0  0  0  0  0  0  0  0
  -39.5765   -1.0816    0.0000 H   0  0  0  0  0  0  0  0  0  0  0  0
  -36.7715   -2.0037    0.0000 H   0  0  0  0  0  0  0  0  0  0  0  0
  -36.6096    1.2247    0.0000 H   0  0  0  0  0  0  0  0  0  0  0  0
  -39.7681    0.3287    0.0000 H   0  0  0  0  0  0  0  0  0  0  0  0
  -38.9638    4.0389    0.0000 H   0  0  0  0  0  0  0  0  0  0  0  0
  -37.1929    3.9095    0.0000 H   0  0  0  0  0  0  0  0  0  0  0  0
  -36.7768    2.1743    0.0000 H   0  0  0  0  0  0  0  0  0  0  0  0
  -41.4468    2.3626    0.0000 H   0  0  0  0  0  0  0  0  0  0  0  0
  -40.6510    0.7654    0.0000 H   0  0  0  0  0  0  0  0  0  0  0  0
  -41.2681    4.3520    0.0000 H   0  0  0  0  0  0  0  0  0  0  0  0
  -39.4558    5.0111    0.0000 H   0  0  0  0  0  0  0  0  0  0  0  0
  -38.4729    3.7060    0.0000 H   0  0  0  0  0  0  0  0  0  0  0  0
  1  2  1  0
  2  3  1  0
  3  4  2  0
  4  5  1  0
  5  6  2  0
  6  7  1  0
  7  8  2  0
  7  9  1  0
  9 10  1  0
 10 11  1  0
 11 12  2  0
  9 13  1  0
 13 14  1  0
 14 15  2  0
 15 16  1  0
 16 17  2  0
 17 18  1  0
 16 19  1  0
 14 20  1  0
 20 21  1  0
 21 22  2  0
 22 23  1  0
 23 24  2  0
 24 25  1  0
 25 26  2  0
 25 27  1  0
  1 28  2  0
  1 29  1  0
 29 30  1  0
 30 31  1  0
 31 32  1  0
 32 33  1  0
 33 34  1  0
 34 35  1  0
 35 36  1  0
 36 37  1  0
 37 38  1  0
 38 39  1  0
 39 40  1  0
 40 41  1  0
 41 42  1  0
 42 43  1  0
 43 44  1  0
 44 45  1  0
 45 46  1  0
 46 47  1  0
 47 48  1  0
 48 49  1  0
 49 50  1  0
 50 51  2  0
 50 52  1  0
 52 53  1  0
 53 54  1  0
 54 55  1  0
 55 56  1  0
 55 57  2  0
 53 58  1  0
 58 59  2  0
 58 60  1  0
 60 61  1  0
 61 62  1  0
 62 63  1  0
 63 64  1  0
 64 65  1  0
 64 66  2  0
 61 67  1  0
 67 68  2  0
 67 69  1  0
 69 70  1  0
 70 71  1  0
 71 72  1  0
 72 73  1  0
 72 74  1  0
 70 75  1  0
 75 76  2  0
 75 77  1  0
 77 78  1  0
 78 79  1  0
 79 80  1  0
 80 81  1  0
 81 82  1  0
 82 83  1  0
 78 84  1  0
 84 85  2  0
 84 86  1  0
 86 87  1  0
 87 88  1  0
 88 89  1  0
 89 90  1  0
 90 91  1  0
 91 92  1  0
 92 93  2  3
 92 94  1  0
 87 95  1  0
 95 96  2  0
 95 97  1  0
 97 98  1  0
 98 99  1  0
 99100  1  0
 98101  1  0
101102  2  0
101103  1  0
103104  1  0
104105  1  0
105106  1  0
106107  2  0
107108  1  0
108109  2  0
109110  1  0
110111  2  0
104112  1  0
112113  2  0
112114  1  0
114115  1  0
115116  1  0
116117  1  0
117118  2  0
118119  1  0
119120  2  0
120121  1  0
121122  2  0
115123  1  0
123124  2  0
123125  1  0
125126  1  0
126127  1  0
126128  1  0
128129  2  0
128130  1  0
130131  1  0
131132  1  0
132133  1  0
133134  1  0
133135  1  0
131136  1  0
136137  2  0
136138  1  0
138139  1  0
139140  1  0
140141  1  0
141142  1  0
142143  1  0
143144  1  0
144145  2  3
144146  1  0
139147  1  0
147148  2  0
147149  1  0
149150  1  0
150151  1  0
151152  1  0
152153  2  0
152154  1  0
150155  1  0
155156  2  0
155157  1  0
157158  1  0
158159  1  0
159160  1  0
160161  1  0
161162  1  0
161163  2  0
158164  1  0
164165  2  0
164166  1  0
166167  1  0
167168  1  0
168169  1  0
168170  1  0
170171  1  0
167172  1  0
172173  2  0
172174  1  0
  8  3  1  0
111106  1  0
122117  1  0
 11  6  1  0
 18 13  2  0
 22  9  1  0
 26 21  1  0
  2175  1  0
  4176  1  0
  5177  1  0
  8178  1  0
 15179  1  0
 17180  1  0
 18181  1  0
 19182  1  0
 23183  1  0
 24184  1  0
 26185  1  0
 27186  1  0
 29187  1  0
 30188  1  0
 30189  1  0
 31190  1  0
 31191  1  0
 33192  1  0
 33193  1  0
 34194  1  0
 34195  1  0
 36196  1  0
 36197  1  0
 37198  1  0
 37199  1  0
 39200  1  0
 39201  1  0
 40202  1  0
 40203  1  0
 42204  1  0
 42205  1  0
 43206  1  0
 43207  1  0
 45208  1  0
 45209  1  0
 46210  1  0
 46211  1  0
 48212  1  0
 48213  1  0
 49214  1  0
 49215  1  0
 52216  1  0
 53217  1  1
 54218  1  0
 54219  1  0
 56220  1  0
 56221  1  0
 60222  1  0
 61223  1  6
 62224  1  0
 62225  1  0
 63226  1  0
 63227  1  0
 65228  1  0
 65229  1  0
 69230  1  0
 70231  1  1
 71232  1  0
 71233  1  0
 72234  1  0
 73235  1  0
 73236  1  0
 73237  1  0
 74238  1  0
 74239  1  0
 74240  1  0
 77241  1  0
 78242  1  6
 79243  1  0
 79244  1  0
 80245  1  0
 80246  1  0
 81247  1  0
 81248  1  0
 82249  1  0
 82250  1  0
 83251  1  0
 83252  1  0
 83253  1  0
 86254  1  0
 87255  1  1
 88256  1  0
 88257  1  0
 89258  1  0
 89259  1  0
 90260  1  0
 90261  1  0
 91262  1  0
 93263  1  0
 93264  1  0
 94265  1  0
 94266  1  0
 97267  1  0
 98268  1  6
 99269  1  0
 99270  1  0
100271  1  0
103272  1  0
104273  1  1
105274  1  0
105275  1  0
107276  1  0
108277  1  0
109278  1  0
110279  1  0
111280  1  0
114281  1  0
115282  1  6
116283  1  0
116284  1  0
118285  1  0
119286  1  0
120287  1  0
121288  1  0
122289  1  0
125290  1  0
126291  1  1
127292  1  0
127293  1  0
127294  1  0
130295  1  0
131296  1  6
132297  1  0
132298  1  0
133299  1  0
134300  1  0
134301  1  0
134302  1  0
135303  1  0
135304  1  0
135305  1  0
138306  1  0
139307  1  1
140308  1  0
140309  1  0
141310  1  0
141311  1  0
142312  1  0
142313  1  0
143314  1  0
145315  1  0
145316  1  0
146317  1  0
146318  1  0
149319  1  0
150320  1  6
151321  1  0
151322  1  0
157323  1  0
158324  1  1
159325  1  0
159326  1  0
160327  1  0
160328  1  0
162329  1  0
162330  1  0
166331  1  0
167332  1  6
168333  1  1
169334  1  0
169335  1  0
169336  1  0
170337  1  0
170338  1  0
171339  1  0
171340  1  0
171341  1  0
M  CHG  5  83   1  93   1 145   1 154  -1 174  -1
M  END
