
     RDKit          2D

337338  0  0  0  0  0  0  0  0999 V2000
  -29.6321    7.1738    0.0000 N   0  0  0  0  0  0  0  0  0  0  0  0
  -28.2769    6.5308    0.0000 C   0  0  0  0  0  0  0  0  0  0  0  0
  -28.1561    5.0357    0.0000 C   0  0  0  0  0  0  0  0  0  0  0  0
  -26.8009    4.3927    0.0000 C   0  0  0  0  0  0  0  0  0  0  0  0
  -25.6796    5.3889    0.0000 O   0  0  0  0  0  0  0  0  0  0  0  0
  -26.6802    2.8976    0.0000 N   0  0  0  0  0  0  0  0  0  0  0  0
  -25.3250    2.2545    0.0000 C   0  0  0  0  0  0  0  0  0  0  0  0
  -24.9271    3.7008    0.0000 C   0  0  0  0  0  0  0  0  0  0  0  0
  -23.4756    4.0793    0.0000 C   0  0  0  0  0  0  0  0  0  0  0  0
  -23.0777    5.5256    0.0000 C   0  0  0  0  0  0  0  0  0  0  0  0
  -21.6263    5.9041    0.0000 N   0  0  0  0  0  0  0  0  0  0  0  0
  -21.2284    7.3504    0.0000 C   0  0  0  0  0  0  0  0  0  0  0  0
  -19.7769    7.7289    0.0000 N   0  0  0  0  0  0  0  0  0  0  0  0
  -22.2819    8.4181    0.0000 N   0  0  0  0  0  0  0  0  0  0  0  0
  -24.2715    1.1868    0.0000 C   0  0  0  0  0  0  0  0  0  0  0  0
  -22.8200    1.5654    0.0000 O   0  0  0  0  0  0  0  0  0  0  0  0
  -24.6694   -0.2594    0.0000 N   0  0  0  0  0  0  0  0  0  0  0  0
  -23.6158   -1.3272    0.0000 C   0  0  0  0  0  0  0  0  0  0  0  0
  -24.8503   -2.1793    0.0000 C   0  0  0  0  0  0  0  0  0  0  0  0
  -26.2055   -1.5363    0.0000 C   0  0  0  0  0  0  0  0  0  0  0  0
  -27.4399   -2.3884    0.0000 C   0  0  0  0  0  0  0  0  0  0  0  0
  -28.7951   -1.7454    0.0000 N   0  0  0  0  0  0  0  0  0  0  0  0
  -30.0296   -2.5976    0.0000 C   0  0  0  0  0  0  0  0  0  0  0  0
  -31.3847   -1.9546    0.0000 N   0  0  0  0  0  0  0  0  0  0  0  0
  -29.9088   -4.0927    0.0000 N   0  0  0  0  0  0  0  0  0  0  0  0
  -22.2606   -1.9702    0.0000 C   0  0  0  0  0  0  0  0  0  0  0  0
  -22.1399   -3.4653    0.0000 O   0  0  0  0  0  0  0  0  0  0  0  0
  -21.0262   -1.1180    0.0000 N   0  0  0  0  0  0  0  0  0  0  0  0
  -19.6710   -1.7610    0.0000 C   0  0  0  0  0  0  0  0  0  0  0  0
  -18.4365   -0.9089    0.0000 C   0  0  0  0  0  0  0  0  0  0  0  0
  -18.5971   -0.1281    0.0000 O   0  0  0  0  0  0  0  0  0  0  0  0
  -17.0813   -1.5519    0.0000 N   0  0  0  0  0  0  0  0  0  0  0  0
  -15.8469   -0.6998    0.0000 C   0  0  0  0  0  0  0  0  0  0  0  0
  -16.9004    0.3679    0.0000 C   0  0  0  0  0  0  0  0  0  0  0  0
  -18.3872    0.1692    0.0000 O   0  0  0  0  0  0  0  0  0  0  0  0
  -14.3954   -0.3212    0.0000 C   0  0  0  0  0  0  0  0  0  0  0  0
  -13.9975    1.1250    0.0000 O   0  0  0  0  0  0  0  0  0  0  0  0
  -13.3419   -1.3890    0.0000 N   0  0  0  0  0  0  0  0  0  0  0  0
  -11.8904   -1.0104    0.0000 C   0  0  0  0  0  0  0  0  0  0  0  0
  -11.7697   -2.5056    0.0000 C   0  0  0  0  0  0  0  0  0  0  0  0
  -13.0041   -3.3577    0.0000 C   0  0  0  0  0  0  0  0  0  0  0  0
  -12.8834   -4.8528    0.0000 C   0  0  0  0  0  0  0  0  0  0  0  0
  -14.1178   -5.7050    0.0000 N   0  0  0  0  0  0  0  0  0  0  0  0
  -13.9971   -7.2001    0.0000 C   0  0  0  0  0  0  0  0  0  0  0  0
  -15.2316   -8.0522    0.0000 N   0  0  0  0  0  0  0  0  0  0  0  0
  -12.6419   -7.8431    0.0000 N   0  0  0  0  0  0  0  0  0  0  0  0
  -10.6560   -0.1583    0.0000 C   0  0  0  0  0  0  0  0  0  0  0  0
   -9.4966   -1.1101    0.0000 O   0  0  0  0  0  0  0  0  0  0  0  0
  -10.7767    1.3368    0.0000 N   0  0  0  0  0  0  0  0  0  0  0  0
  -12.0573    2.1180    0.0000 C   0  0  0  0  0  0  0  0  0  0  0  0
  -11.7101    3.5772    0.0000 C   0  0  0  0  0  0  0  0  0  0  0  0
  -10.2149    3.6980    0.0000 C   0  0  0  0  0  0  0  0  0  0  0  0
   -9.6381    2.3133    0.0000 C   0  0  0  0  0  0  0  0  0  0  0  0
   -8.7860    1.0789    0.0000 C   0  0  0  0  0  0  0  0  0  0  0  0
   -7.2908    1.1996    0.0000 O   0  0  0  0  0  0  0  0  0  0  0  0
   -9.4290   -0.2763    0.0000 N   0  0  0  0  0  0  0  0  0  0  0  0
   -8.5768   -1.5108    0.0000 C   0  0  0  0  0  0  0  0  0  0  0  0
   -9.9405   -2.1356    0.0000 C   0  0  0  0  0  0  0  0  0  0  0  0
  -11.3935   -1.7631    0.0000 O   0  0  0  0  0  0  0  0  0  0  0  0
   -7.3539   -2.3793    0.0000 C   0  0  0  0  0  0  0  0  0  0  0  0
   -7.4946   -3.8727    0.0000 O   0  0  0  0  0  0  0  0  0  0  0  0
   -5.9902   -1.7545    0.0000 N   0  0  0  0  0  0  0  0  0  0  0  0
   -4.7673   -2.6231    0.0000 C   0  0  0  0  0  0  0  0  0  0  0  0
   -3.4036   -1.9982    0.0000 C   0  0  0  0  0  0  0  0  0  0  0  0
   -3.4460   -0.4988    0.0000 O   0  0  0  0  0  0  0  0  0  0  0  0
   -2.1807   -2.8668    0.0000 N   0  0  0  0  0  0  0  0  0  0  0  0
   -0.8170   -2.2420    0.0000 C   0  0  0  0  0  0  0  0  0  0  0  0
   -1.6691   -1.0075    0.0000 C   0  0  0  0  0  0  0  0  0  0  0  0
    0.6782   -2.1212    0.0000 C   0  0  0  0  0  0  0  0  0  0  0  0
    0.9741   -0.6507    0.0000 O   0  0  0  0  0  0  0  0  0  0  0  0
    1.5303   -3.3557    0.0000 N   0  0  0  0  0  0  0  0  0  0  0  0
    3.0254   -3.2350    0.0000 C   0  0  0  0  0  0  0  0  0  0  0  0
    2.2533   -1.9489    0.0000 C   0  0  0  0  0  0  0  0  0  0  0  0
    1.7385   -0.5400    0.0000 C   0  0  0  0  0  0  0  0  0  0  0  0
    1.4997    0.9408    0.0000 C   0  0  0  0  0  0  0  0  0  0  0  0
    1.5454    2.4401    0.0000 C   0  0  0  0  0  0  0  0  0  0  0  0
    1.8740    3.9037    0.0000 C   0  0  0  0  0  0  0  0  0  0  0  0
    2.4737    5.2786    0.0000 C   0  0  0  0  0  0  0  0  0  0  0  0
    3.3227    6.5152    0.0000 C   0  0  0  0  0  0  0  0  0  0  0  0
    2.4697   -4.6282    0.0000 C   0  0  0  0  0  0  0  0  0  0  0  0
    4.0270   -4.3516    0.0000 C   0  0  0  0  0  0  0  0  0  0  0  0
    3.1526   -5.5704    0.0000 O   0  0  0  0  0  0  0  0  0  0  0  0
    5.2217   -5.2585    0.0000 N   0  0  0  0  0  0  0  0  0  0  0  0
    6.5666   -5.9229    0.0000 C   0  0  0  0  0  0  0  0  0  0  0  0
    6.8523   -7.3955    0.0000 C   0  0  0  0  0  0  0  0  0  0  0  0
    5.7199   -8.3792    0.0000 C   0  0  0  0  0  0  0  0  0  0  0  0
    6.0056   -9.8517    0.0000 C   0  0  0  0  0  0  0  0  0  0  0  0
    4.8732  -10.8354    0.0000 N   0  0  0  0  0  0  0  0  0  0  0  0
    5.1589  -12.3080    0.0000 C   0  0  0  0  0  0  0  0  0  0  0  0
    4.0265  -13.2917    0.0000 N   0  0  0  0  0  0  0  0  0  0  0  0
    6.5770  -12.7968    0.0000 N   0  0  0  0  0  0  0  0  0  0  0  0
    8.0128   -6.3209    0.0000 C   0  0  0  0  0  0  0  0  0  0  0  0
    7.9362   -7.8189    0.0000 O   0  0  0  0  0  0  0  0  0  0  0  0
    9.5082   -6.4379    0.0000 N   0  0  0  0  0  0  0  0  0  0  0  0
   10.9988   -6.2697    0.0000 C   0  0  0  0  0  0  0  0  0  0  0  0
   12.0353   -7.3541    0.0000 C   0  0  0  0  0  0  0  0  0  0  0  0
   11.6145   -8.7938    0.0000 C   0  0  0  0  0  0  0  0  0  0  0  0
   12.6509   -9.8781    0.0000 C   0  0  0  0  0  0  0  0  0  0  0  0
   12.2301  -11.3179    0.0000 N   0  0  0  0  0  0  0  0  0  0  0  0
   13.2666  -12.4022    0.0000 C   0  0  0  0  0  0  0  0  0  0  0  0
   12.8458  -13.8420    0.0000 N   0  0  0  0  0  0  0  0  0  0  0  0
   14.7239  -12.0467    0.0000 N   0  0  0  0  0  0  0  0  0  0  0  0
   12.4306   -5.8226    0.0000 C   0  0  0  0  0  0  0  0  0  0  0  0
   13.1761   -7.1242    0.0000 O   0  0  0  0  0  0  0  0  0  0  0  0
   13.7519   -5.1125    0.0000 N   0  0  0  0  0  0  0  0  0  0  0  0
   14.9149   -4.1652    0.0000 C   0  0  0  0  0  0  0  0  0  0  0  0
   16.3731   -4.5171    0.0000 C   0  0  0  0  0  0  0  0  0  0  0  0
   16.7975   -5.9558    0.0000 C   0  0  0  0  0  0  0  0  0  0  0  0
   18.2556   -6.3076    0.0000 C   0  0  0  0  0  0  0  0  0  0  0  0
   18.6800   -7.7463    0.0000 N   0  0  0  0  0  0  0  0  0  0  0  0
   20.1382   -8.0981    0.0000 C   0  0  0  0  0  0  0  0  0  0  0  0
   20.5626   -9.5368    0.0000 N   0  0  0  0  0  0  0  0  0  0  0  0
   21.1720   -7.0112    0.0000 N   0  0  0  0  0  0  0  0  0  0  0  0
   15.8777   -3.0150    0.0000 C   0  0  0  0  0  0  0  0  0  0  0  0
   17.2085   -3.7070    0.0000 O   0  0  0  0  0  0  0  0  0  0  0  0
   16.6053   -1.7033    0.0000 N   0  0  0  0  0  0  0  0  0  0  0  0
   17.0716   -0.2776    0.0000 C   0  0  0  0  0  0  0  0  0  0  0  0
   18.4885    0.2148    0.0000 C   0  0  0  0  0  0  0  0  0  0  0  0
   19.6233   -0.7661    0.0000 C   0  0  0  0  0  0  0  0  0  0  0  0
   21.0402   -0.2737    0.0000 C   0  0  0  0  0  0  0  0  0  0  0  0
   22.1751   -1.2546    0.0000 N   0  0  0  0  0  0  0  0  0  0  0  0
   23.5920   -0.7622    0.0000 C   0  0  0  0  0  0  0  0  0  0  0  0
   24.7268   -1.7431    0.0000 N   0  0  0  0  0  0  0  0  0  0  0  0
   23.8740    0.7110    0.0000 N   0  0  0  0  0  0  0  0  0  0  0  0
   17.2596    1.2106    0.0000 C   0  0  0  0  0  0  0  0  0  0  0  0
   18.7533    1.3480    0.0000 O   0  0  0  0  0  0  0  0  0  0  0  0
   17.1626    2.7074    0.0000 N   0  0  0  0  0  0  0  0  0  0  0  0
   16.7841    4.1589    0.0000 C   0  0  0  0  0  0  0  0  0  0  0  0
   17.7099    5.3391    0.0000 C   0  0  0  0  0  0  0  0  0  0  0  0
   19.1949    5.1275    0.0000 C   0  0  0  0  0  0  0  0  0  0  0  0
   20.1206    6.3077    0.0000 C   0  0  0  0  0  0  0  0  0  0  0  0
   21.6056    6.0961    0.0000 N   0  0  0  0  0  0  0  0  0  0  0  0
   22.5314    7.2764    0.0000 C   0  0  0  0  0  0  0  0  0  0  0  0
   24.0164    7.0647    0.0000 N   0  0  0  0  0  0  0  0  0  0  0  0
   21.9722    8.6682    0.0000 N   0  0  0  0  0  0  0  0  0  0  0  0
   16.1377    5.5125    0.0000 C   0  0  0  0  0  0  0  0  0  0  0  0
   17.3200    6.4356    0.0000 O   0  0  0  0  0  0  0  0  0  0  0  0
   15.2468    6.7193    0.0000 N   0  0  0  0  0  0  0  0  0  0  0  0
   14.1437    7.7357    0.0000 C   0  0  0  0  0  0  0  0  0  0  0  0
   14.2844    9.2290    0.0000 C   0  0  0  0  0  0  0  0  0  0  0  0
   15.6481    9.8539    0.0000 C   0  0  0  0  0  0  0  0  0  0  0  0
   15.7888   11.3472    0.0000 C   0  0  0  0  0  0  0  0  0  0  0  0
   17.1525   11.9721    0.0000 N   0  0  0  0  0  0  0  0  0  0  0  0
   17.2932   13.4655    0.0000 C   0  0  0  0  0  0  0  0  0  0  0  0
   18.6569   14.0903    0.0000 N   0  0  0  0  0  0  0  0  0  0  0  0
   16.0702   14.3340    0.0000 N   0  0  0  0  0  0  0  0  0  0  0  0
   12.8681    8.5249    0.0000 C   0  0  0  0  0  0  0  0  0  0  0  0
   13.3637    9.9407    0.0000 O   0  0  0  0  0  0  0  0  0  0  0  0
   11.4662    9.0585    0.0000 N   0  0  0  0  0  0  0  0  0  0  0  0
    9.9887    9.3171    0.0000 C   0  0  0  0  0  0  0  0  0  0  0  0
    8.4889    9.2914    0.0000 C   0  0  0  0  0  0  0  0  0  0  0  0
    7.0211    8.9824    0.0000 C   0  0  0  0  0  0  0  0  0  0  0  0
    5.6383    8.4012    0.0000 C   0  0  0  0  0  0  0  0  0  0  0  0
    4.3905    7.5687    0.0000 C   0  0  0  0  0  0  0  0  0  0  0  0
   10.8765   10.5261    0.0000 C   0  0  0  0  0  0  0  0  0  0  0  0
    9.2997   10.6495    0.0000 C   0  0  0  0  0  0  0  0  0  0  0  0
    9.9491   12.0016    0.0000 O   0  0  0  0  0  0  0  0  0  0  0  0
    7.8626   11.0795    0.0000 O   0  0  0  0  0  0  0  0  0  0  0  0
  -29.7528    8.6690    0.0000 H   0  0  0  0  0  0  0  0  0  0  0  0
  -30.8665    6.3217    0.0000 H   0  0  0  0  0  0  0  0  0  0  0  0
  -27.8790    7.9771    0.0000 H   0  0  0  0  0  0  0  0  0  0  0  0
  -26.7835    6.3901    0.0000 H   0  0  0  0  0  0  0  0  0  0  0  0
  -29.6495    5.1764    0.0000 H   0  0  0  0  0  0  0  0  0  0  0  0
  -28.5540    3.5894    0.0000 H   0  0  0  0  0  0  0  0  0  0  0  0
  -27.9146    2.0454    0.0000 H   0  0  0  0  0  0  0  0  0  0  0  0
  -26.1936    1.0316    0.0000 H   0  0  0  0  0  0  0  0  0  0  0  0
  -25.0478    5.1959    0.0000 H   0  0  0  0  0  0  0  0  0  0  0  0
  -26.3420    4.1987    0.0000 H   0  0  0  0  0  0  0  0  0  0  0  0
  -21.9823    3.9386    0.0000 H   0  0  0  0  0  0  0  0  0  0  0  0
  -23.3549    2.5842    0.0000 H   0  0  0  0  0  0  0  0  0  0  0  0
  -23.1985    7.0207    0.0000 H   0  0  0  0  0  0  0  0  0  0  0  0
  -24.5428    5.8473    0.0000 H   0  0  0  0  0  0  0  0  0  0  0  0
  -20.5727    4.8364    0.0000 H   0  0  0  0  0  0  0  0  0  0  0  0
  -19.3790    9.1752    0.0000 H   0  0  0  0  0  0  0  0  0  0  0  0
  -18.7234    6.6612    0.0000 H   0  0  0  0  0  0  0  0  0  0  0  0
  -21.8840    9.8644    0.0000 H   0  0  0  0  0  0  0  0  0  0  0  0
  -23.7334    8.0396    0.0000 H   0  0  0  0  0  0  0  0  0  0  0  0
  -26.1561   -0.4582    0.0000 H   0  0  0  0  0  0  0  0  0  0  0  0
  -22.7473   -0.1042    0.0000 H   0  0  0  0  0  0  0  0  0  0  0  0
  -25.5633   -3.4990    0.0000 H   0  0  0  0  0  0  0  0  0  0  0  0
  -23.7967   -3.2470    0.0000 H   0  0  0  0  0  0  0  0  0  0  0  0
  -27.2590   -0.4686    0.0000 H   0  0  0  0  0  0  0  0  0  0  0  0
  -25.8330   -0.0833    0.0000 H   0  0  0  0  0  0  0  0  0  0  0  0
  -28.3085   -3.6114    0.0000 H   0  0  0  0  0  0  0  0  0  0  0  0
  -26.5244   -3.5766    0.0000 H   0  0  0  0  0  0  0  0  0  0  0  0
  -28.9158   -0.2503    0.0000 H   0  0  0  0  0  0  0  0  0  0  0  0
  -32.6192   -2.8067    0.0000 H   0  0  0  0  0  0  0  0  0  0  0  0
  -31.5055   -0.4594    0.0000 H   0  0  0  0  0  0  0  0  0  0  0  0
  -31.1433   -4.9448    0.0000 H   0  0  0  0  0  0  0  0  0  0  0  0
  -28.5536   -4.7357    0.0000 H   0  0  0  0  0  0  0  0  0  0  0  0
  -21.1469    0.3771    0.0000 H   0  0  0  0  0  0  0  0  0  0  0  0
  -20.5395   -2.9840    0.0000 H   0  0  0  0  0  0  0  0  0  0  0  0
  -18.6174   -2.8288    0.0000 H   0  0  0  0  0  0  0  0  0  0  0  0
  -16.9606   -3.0470    0.0000 H   0  0  0  0  0  0  0  0  0  0  0  0
  -15.2221   -2.0634    0.0000 H   0  0  0  0  0  0  0  0  0  0  0  0
  -17.5252    1.7316    0.0000 H   0  0  0  0  0  0  0  0  0  0  0  0
  -15.6660    1.2201    0.0000 H   0  0  0  0  0  0  0  0  0  0  0  0
  -19.4054    1.0571    0.0000 H   0  0  0  0  0  0  0  0  0  0  0  0
  -13.9131   -2.7759    0.0000 H   0  0  0  0  0  0  0  0  0  0  0  0
  -12.6768    0.2669    0.0000 H   0  0  0  0  0  0  0  0  0  0  0  0
  -11.1449   -3.8692    0.0000 H   0  0  0  0  0  0  0  0  0  0  0  0
  -10.2698   -2.4895    0.0000 H   0  0  0  0  0  0  0  0  0  0  0  0
  -14.4556   -3.7362    0.0000 H   0  0  0  0  0  0  0  0  0  0  0  0
  -14.0762   -2.3086    0.0000 H   0  0  0  0  0  0  0  0  0  0  0  0
  -12.2586   -6.2165    0.0000 H   0  0  0  0  0  0  0  0  0  0  0  0
  -11.3966   -4.6541    0.0000 H   0  0  0  0  0  0  0  0  0  0  0  0
  -15.4730   -5.0620    0.0000 H   0  0  0  0  0  0  0  0  0  0  0  0
  -15.1108   -9.5474    0.0000 H   0  0  0  0  0  0  0  0  0  0  0  0
  -16.5868   -7.4092    0.0000 H   0  0  0  0  0  0  0  0  0  0  0  0
  -12.5212   -9.3382    0.0000 H   0  0  0  0  0  0  0  0  0  0  0  0
  -11.4075   -6.9910    0.0000 H   0  0  0  0  0  0  0  0  0  0  0  0
  -13.4723    2.6158    0.0000 H   0  0  0  0  0  0  0  0  0  0  0  0
  -12.8607    0.8513    0.0000 H   0  0  0  0  0  0  0  0  0  0  0  0
  -11.6739    5.0768    0.0000 H   0  0  0  0  0  0  0  0  0  0  0  0
  -13.1976    3.7700    0.0000 H   0  0  0  0  0  0  0  0  0  0  0  0
   -8.7776    4.1269    0.0000 H   0  0  0  0  0  0  0  0  0  0  0  0
  -10.4913    5.1723    0.0000 H   0  0  0  0  0  0  0  0  0  0  0  0
   -8.3213    3.0318    0.0000 H   0  0  0  0  0  0  0  0  0  0  0  0
  -10.8982   -0.5784    0.0000 H   0  0  0  0  0  0  0  0  0  0  0  0
   -7.5091   -0.4572    0.0000 H   0  0  0  0  0  0  0  0  0  0  0  0
  -10.8718   -3.3114    0.0000 H   0  0  0  0  0  0  0  0  0  0  0  0
   -9.0884   -3.3701    0.0000 H   0  0  0  0  0  0  0  0  0  0  0  0
  -12.5271   -1.8919    0.0000 H   0  0  0  0  0  0  0  0  0  0  0  0
   -5.8495   -0.2611    0.0000 H   0  0  0  0  0  0  0  0  0  0  0  0
   -5.8350   -3.6766    0.0000 H   0  0  0  0  0  0  0  0  0  0  0  0
   -3.9151   -3.8575    0.0000 H   0  0  0  0  0  0  0  0  0  0  0  0
   -2.3214   -4.3602    0.0000 H   0  0  0  0  0  0  0  0  0  0  0  0
   -0.4384   -3.6934    0.0000 H   0  0  0  0  0  0  0  0  0  0  0  0
   -3.1678   -0.9451    0.0000 H   0  0  0  0  0  0  0  0  0  0  0  0
   -2.0476    0.4439    0.0000 H   0  0  0  0  0  0  0  0  0  0  0  0
   -0.3054   -0.3827    0.0000 H   0  0  0  0  0  0  0  0  0  0  0  0
    0.7269   -4.6224    0.0000 H   0  0  0  0  0  0  0  0  0  0  0  0
    1.1624   -2.9784    0.0000 H   0  0  0  0  0  0  0  0  0  0  0  0
    0.7935   -1.6040    0.0000 H   0  0  0  0  0  0  0  0  0  0  0  0
    0.3838   -1.1842    0.0000 H   0  0  0  0  0  0  0  0  0  0  0  0
    0.3056   -0.0964    0.0000 H   0  0  0  0  0  0  0  0  0  0  0  0
    0.2789    0.0692    0.0000 H   0  0  0  0  0  0  0  0  0  0  0  0
    0.1003    1.4810    0.0000 H   0  0  0  0  0  0  0  0  0  0  0  0
    0.1157    1.9862    0.0000 H   0  0  0  0  0  0  0  0  0  0  0  0
    0.2736    3.2354    0.0000 H   0  0  0  0  0  0  0  0  0  0  0  0
    0.3843    3.7285    0.0000 H   0  0  0  0  0  0  0  0  0  0  0  0
    0.7757    4.9253    0.0000 H   0  0  0  0  0  0  0  0  0  0  0  0
    0.9777    5.3885    0.0000 H   0  0  0  0  0  0  0  0  0  0  0  0
    1.7428    6.5885    0.0000 H   0  0  0  0  0  0  0  0  0  0  0  0
    2.1725    7.4779    0.0000 H   0  0  0  0  0  0  0  0  0  0  0  0
    1.0225   -5.0229    0.0000 H   0  0  0  0  0  0  0  0  0  0  0  0
    2.2415   -6.1107    0.0000 H   0  0  0  0  0  0  0  0  0  0  0  0
    3.8207   -5.2799    0.0000 H   0  0  0  0  0  0  0  0  0  0  0  0
    4.2829   -6.4284    0.0000 H   0  0  0  0  0  0  0  0  0  0  0  0
    5.2720   -6.6807    0.0000 H   0  0  0  0  0  0  0  0  0  0  0  0
    7.6244   -8.6815    0.0000 H   0  0  0  0  0  0  0  0  0  0  0  0
    8.3412   -7.2133    0.0000 H   0  0  0  0  0  0  0  0  0  0  0  0
    4.3193   -8.9163    0.0000 H   0  0  0  0  0  0  0  0  0  0  0  0
    4.6595   -7.3182    0.0000 H   0  0  0  0  0  0  0  0  0  0  0  0
    6.7777  -11.1377    0.0000 H   0  0  0  0  0  0  0  0  0  0  0  0
    7.4612   -9.4894    0.0000 H   0  0  0  0  0  0  0  0  0  0  0  0
    3.4551  -10.3466    0.0000 H   0  0  0  0  0  0  0  0  0  0  0  0
    4.3122  -14.7642    0.0000 H   0  0  0  0  0  0  0  0  0  0  0  0
    2.6084  -12.8028    0.0000 H   0  0  0  0  0  0  0  0  0  0  0  0
    6.8627  -14.2693    0.0000 H   0  0  0  0  0  0  0  0  0  0  0  0
    7.7094  -11.8131    0.0000 H   0  0  0  0  0  0  0  0  0  0  0  0
    9.3509   -7.9296    0.0000 H   0  0  0  0  0  0  0  0  0  0  0  0
   10.3194   -7.6071    0.0000 H   0  0  0  0  0  0  0  0  0  0  0  0
   13.3801   -8.0185    0.0000 H   0  0  0  0  0  0  0  0  0  0  0  0
   13.1893   -6.3958    0.0000 H   0  0  0  0  0  0  0  0  0  0  0  0
   10.7266  -10.0028    0.0000 H   0  0  0  0  0  0  0  0  0  0  0  0
   10.1488   -8.4746    0.0000 H   0  0  0  0  0  0  0  0  0  0  0  0
   13.9958  -10.5425    0.0000 H   0  0  0  0  0  0  0  0  0  0  0  0
   13.6795   -8.7864    0.0000 H   0  0  0  0  0  0  0  0  0  0  0  0
   10.7729  -11.6733    0.0000 H   0  0  0  0  0  0  0  0  0  0  0  0
   13.8823  -14.9263    0.0000 H   0  0  0  0  0  0  0  0  0  0  0  0
   11.3885  -14.1974    0.0000 H   0  0  0  0  0  0  0  0  0  0  0  0
   15.7604  -13.1311    0.0000 H   0  0  0  0  0  0  0  0  0  0  0  0
   15.1447  -10.6070    0.0000 H   0  0  0  0  0  0  0  0  0  0  0  0
   14.4260   -6.4525    0.0000 H   0  0  0  0  0  0  0  0  0  0  0  0
   15.0664   -5.6576    0.0000 H   0  0  0  0  0  0  0  0  0  0  0  0
   17.8636   -4.3489    0.0000 H   0  0  0  0  0  0  0  0  0  0  0  0
   16.8258   -3.0870    0.0000 H   0  0  0  0  0  0  0  0  0  0  0  0
   16.7042   -7.4529    0.0000 H   0  0  0  0  0  0  0  0  0  0  0  0
   15.3919   -6.4796    0.0000 H   0  0  0  0  0  0  0  0  0  0  0  0
   19.7462   -6.1395    0.0000 H   0  0  0  0  0  0  0  0  0  0  0  0
   18.5307   -4.8330    0.0000 H   0  0  0  0  0  0  0  0  0  0  0  0
   17.6463   -8.8332    0.0000 H   0  0  0  0  0  0  0  0  0  0  0  0
   22.0207   -9.8886    0.0000 H   0  0  0  0  0  0  0  0  0  0  0  0
   19.5288  -10.6237    0.0000 H   0  0  0  0  0  0  0  0  0  0  0  0
   22.6301   -7.3630    0.0000 H   0  0  0  0  0  0  0  0  0  0  0  0
   20.7476   -5.5725    0.0000 H   0  0  0  0  0  0  0  0  0  0  0  0
   17.8969   -2.4661    0.0000 H   0  0  0  0  0  0  0  0  0  0  0  0
   18.0059   -1.4511    0.0000 H   0  0  0  0  0  0  0  0  0  0  0  0
   19.6515    1.1621    0.0000 H   0  0  0  0  0  0  0  0  0  0  0  0
   18.0962    1.6626    0.0000 H   0  0  0  0  0  0  0  0  0  0  0  0
   20.3543   -2.0760    0.0000 H   0  0  0  0  0  0  0  0  0  0  0  0
   18.7241   -1.9667    0.0000 H   0  0  0  0  0  0  0  0  0  0  0  0
   22.2033    0.6735    0.0000 H   0  0  0  0  0  0  0  0  0  0  0  0
   20.4744    1.1155    0.0000 H   0  0  0  0  0  0  0  0  0  0  0  0
   21.8930   -2.7279    0.0000 H   0  0  0  0  0  0  0  0  0  0  0  0
   26.1437   -1.2507    0.0000 H   0  0  0  0  0  0  0  0  0  0  0  0
   24.4448   -3.2164    0.0000 H   0  0  0  0  0  0  0  0  0  0  0  0
   25.2909    1.2034    0.0000 H   0  0  0  0  0  0  0  0  0  0  0  0
   22.7392    1.6919    0.0000 H   0  0  0  0  0  0  0  0  0  0  0  0
   18.6616    2.7640    0.0000 H   0  0  0  0  0  0  0  0  0  0  0  0
   18.2045    3.6768    0.0000 H   0  0  0  0  0  0  0  0  0  0  0  0
   18.1761    6.7648    0.0000 H   0  0  0  0  0  0  0  0  0  0  0  0
   16.5971    6.3450    0.0000 H   0  0  0  0  0  0  0  0  0  0  0  0
   20.5179    4.4207    0.0000 H   0  0  0  0  0  0  0  0  0  0  0  0
   19.0874    3.6314    0.0000 H   0  0  0  0  0  0  0  0  0  0  0  0
   20.5869    7.7334    0.0000 H   0  0  0  0  0  0  0  0  0  0  0  0
   18.8936    7.1705    0.0000 H   0  0  0  0  0  0  0  0  0  0  0  0
   22.1649    4.7043    0.0000 H   0  0  0  0  0  0  0  0  0  0  0  0
   24.9422    8.2450    0.0000 H   0  0  0  0  0  0  0  0  0  0  0  0
   24.5756    5.6729    0.0000 H   0  0  0  0  0  0  0  0  0  0  0  0
   22.8979    9.8484    0.0000 H   0  0  0  0  0  0  0  0  0  0  0  0
   20.4872    8.8798    0.0000 H   0  0  0  0  0  0  0  0  0  0  0  0
   16.4773    7.5772    0.0000 H   0  0  0  0  0  0  0  0  0  0  0  0
   15.5993    8.0980    0.0000 H   0  0  0  0  0  0  0  0  0  0  0  0
   13.9059   10.6805    0.0000 H   0  0  0  0  0  0  0  0  0  0  0  0
   12.8045    9.4737    0.0000 H   0  0  0  0  0  0  0  0  0  0  0  0
   17.1432    9.9746    0.0000 H   0  0  0  0  0  0  0  0  0  0  0  0
   16.3666    8.5371    0.0000 H   0  0  0  0  0  0  0  0  0  0  0  0
   15.4103   12.7987    0.0000 H   0  0  0  0  0  0  0  0  0  0  0  0
   14.2901   11.4097    0.0000 H   0  0  0  0  0  0  0  0  0  0  0  0
   18.3754   11.1035    0.0000 H   0  0  0  0  0  0  0  0  0  0  0  0
   18.7976   15.5837    0.0000 H   0  0  0  0  0  0  0  0  0  0  0  0
   19.8798   13.2217    0.0000 H   0  0  0  0  0  0  0  0  0  0  0  0
   16.2110   15.8274    0.0000 H   0  0  0  0  0  0  0  0  0  0  0  0
   14.7066   13.7092    0.0000 H   0  0  0  0  0  0  0  0  0  0  0  0
   12.0375   10.4455    0.0000 H   0  0  0  0  0  0  0  0  0  0  0  0
    7.5602   10.4694    0.0000 H   0  0  0  0  0  0  0  0  0  0  0  0
    8.7849   10.7619    0.0000 H   0  0  0  0  0  0  0  0  0  0  0  0
    6.0143   10.0943    0.0000 H   0  0  0  0  0  0  0  0  0  0  0  0
    7.0334   10.4823    0.0000 H   0  0  0  0  0  0  0  0  0  0  0  0
    4.3383    9.1495    0.0000 H   0  0  0  0  0  0  0  0  0  0  0  0
    5.5484    9.8985    0.0000 H   0  0  0  0  0  0  0  0  0  0  0  0
    3.4432    8.7318    0.0000 H   0  0  0  0  0  0  0  0  0  0  0  0
   10.4453   11.9628    0.0000 H   0  0  0  0  0  0  0  0  0  0  0  0
   12.0136   11.5045    0.0000 H   0  0  0  0  0  0  0  0  0  0  0  0
   12.1446    9.7248    0.0000 H   0  0  0  0  0  0  0  0  0  0  0  0
  1  2  1  0
  2  3  1  0
  3  4  1  0
  4  5  2  0
  4  6  1  0
  6  7  1  0
  7  8  1  0
  8  9  1  0
  9 10  1  0
 10 11  1  0
 11 12  1  0
 12 13  2  3
 12 14  1  0
  7 15  1  0
 15 16  2  0
 15 17  1  0
 17 18  1  0
 18 19  1  0
 19 20  1  0
 20 21  1  0
 21 22  1  0
 22 23  1  0
 23 24  2  3
 23 25  1  0
 18 26  1  0
 26 27  2  0
 26 28  1  0
 28 29  1  0
 29 30  1  0
 30 31  2  0
 30 32  1  0
 32 33  1  0
 33 34  1  0
 34 35  1  0
 33 36  1  0
 36 37  2  0
 36 38  1  0
 38 39  1  0
 39 40  1  0
 40 41  1  0
 41 42  1  0
 42 43  1  0
 43 44  1  0
 44 45  2  3
 44 46  1  0
 39 47  1  0
 47 48  2  0
 47 49  1  0
 49 50  1  0
 50 51  1  0
 51 52  1  0
 52 53  1  0
 53 54  1  0
 54 55  2  0
 54 56  1  0
 56 57  1  0
 57 58  1  0
 58 59  1  0
 57 60  1  0
 60 61  2  0
 60 62  1  0
 62 63  1  0
 63 64  1  0
 64 65  2  0
 64 66  1  0
 66 67  1  0
 67 68  1  0
 67 69  1  0
 69 70  2  0
 69 71  1  0
 72 71  1  6
 72 73  1  0
 73 74  1  0
 74 75  1  0
 75 76  1  0
 76 77  1  0
 77 78  1  0
 78 79  1  0
 72 80  1  0
 72 81  1  0
 81 82  2  0
 81 83  1  0
 83 84  1  0
 84 85  1  0
 85 86  1  0
 86 87  1  0
 87 88  1  0
 88 89  1  0
 89 90  2  3
 89 91  1  0
 84 92  1  0
 92 93  2  0
 92 94  1  0
 94 95  1  0
 95 96  1  0
 96 97  1  0
 97 98  1  0
 98 99  1  0
 99100  1  0
100101  2  3
100102  1  0
 95103  1  0
103104  2  0
103105  1  0
105106  1  0
106107  1  0
107108  1  0
108109  1  0
109110  1  0
110111  1  0
111112  2  3
111113  1  0
106114  1  0
114115  2  0
114116  1  0
116117  1  0
117118  1  0
118119  1  0
119120  1  0
120121  1  0
121122  1  0
122123  2  3
122124  1  0
117125  1  0
125126  2  0
125127  1  0
127128  1  0
128129  1  0
129130  1  0
130131  1  0
131132  1  0
132133  1  0
133134  2  3
133135  1  0
128136  1  0
136137  2  0
136138  1  0
138139  1  0
139140  1  0
140141  1  0
141142  1  0
142143  1  0
143144  1  0
144145  2  3
144146  1  0
139147  1  0
147148  2  0
147149  1  0
149150  1  0
150151  1  0
151152  1  0
152153  1  0
153154  1  0
150155  1  0
150156  1  1
156157  2  0
156158  1  0
 53 49  1  0
 79154  2  0
  1159  1  0
  1160  1  0
  2161  1  0
  2162  1  0
  3163  1  0
  3164  1  0
  6165  1  0
  7166  1  1
  8167  1  0
  8168  1  0
  9169  1  0
  9170  1  0
 10171  1  0
 10172  1  0
 11173  1  0
 13174  1  0
 13175  1  0
 14176  1  0
 14177  1  0
 17178  1  0
 18179  1  6
 19180  1  0
 19181  1  0
 20182  1  0
 20183  1  0
 21184  1  0
 21185  1  0
 22186  1  0
 24187  1  0
 24188  1  0
 25189  1  0
 25190  1  0
 28191  1  0
 29192  1  0
 29193  1  0
 32194  1  0
 33195  1  1
 34196  1  0
 34197  1  0
 35198  1  0
 38199  1  0
 39200  1  6
 40201  1  0
 40202  1  0
 41203  1  0
 41204  1  0
 42205  1  0
 42206  1  0
 43207  1  0
 45208  1  0
 45209  1  0
 46210  1  0
 46211  1  0
 50212  1  0
 50213  1  0
 51214  1  0
 51215  1  0
 52216  1  0
 52217  1  0
 53218  1  0
 56219  1  0
 57220  1  6
 58221  1  0
 58222  1  0
 59223  1  0
 62224  1  0
 63225  1  0
 63226  1  0
 66227  1  0
 67228  1  1
 68229  1  0
 68230  1  0
 68231  1  0
 71232  1  0
 73233  1  0
 73234  1  0
 74235  1  0
 74236  1  0
 75237  1  0
 75238  1  0
 76239  1  0
 76240  1  0
 77241  1  0
 77242  1  0
 78243  1  0
 78244  1  0
 79245  1  0
 80246  1  0
 80247  1  0
 80248  1  0
 83249  1  0
 84250  1  6
 85251  1  0
 85252  1  0
 86253  1  0
 86254  1  0
 87255  1  0
 87256  1  0
 88257  1  0
 90258  1  0
 90259  1  0
 91260  1  0
 91261  1  0
 94262  1  0
 95263  1  6
 96264  1  0
 96265  1  0
 97266  1  0
 97267  1  0
 98268  1  0
 98269  1  0
 99270  1  0
101271  1  0
101272  1  0
102273  1  0
102274  1  0
105275  1  0
106276  1  6
107277  1  0
107278  1  0
108279  1  0
108280  1  0
109281  1  0
109282  1  0
110283  1  0
112284  1  0
112285  1  0
113286  1  0
113287  1  0
116288  1  0
117289  1  6
118290  1  0
118291  1  0
119292  1  0
119293  1  0
120294  1  0
120295  1  0
121296  1  0
123297  1  0
123298  1  0
124299  1  0
124300  1  0
127301  1  0
128302  1  6
129303  1  0
129304  1  0
130305  1  0
130306  1  0
131307  1  0
131308  1  0
132309  1  0
134310  1  0
134311  1  0
135312  1  0
135313  1  0
138314  1  0
139315  1  6
140316  1  0
140317  1  0
141318  1  0
141319  1  0
142320  1  0
142321  1  0
143322  1  0
145323  1  0
145324  1  0
146325  1  0
146326  1  0
149327  1  0
151328  1  0
151329  1  0
152330  1  0
152331  1  0
153332  1  0
153333  1  0
154334  1  0
155335  1  0
155336  1  0
155337  1  0
M  CHG  8  13   1  24   1  45   1  90   1 101   1 112   1 123   1 134   1
M  CHG  2 145   1 158  -1
M  END
