
     RDKit          2D

214223  0  0  0  0  0  0  0  0999 V2000
  -12.8493    0.1425    0.0000 C   0  0  0  0  0  0  0  0  0  0  0  0
  -13.6401   -1.1321    0.0000 N   0  0  0  0  0  0  0  0  0  0  0  0
  -15.1393   -1.0845    0.0000 C   0  0  0  0  0  0  0  0  0  0  0  0
  -15.8478    0.2377    0.0000 C   0  0  0  0  0  0  0  0  0  0  0  0
  -17.3470    0.2853    0.0000 C   0  0  0  0  0  0  0  0  0  0  0  0
  -18.1378   -0.9893    0.0000 C   0  0  0  0  0  0  0  0  0  0  0  0
  -17.4294   -2.3115    0.0000 C   0  0  0  0  0  0  0  0  0  0  0  0
  -15.9302   -2.3591    0.0000 C   0  0  0  0  0  0  0  0  0  0  0  0
  -18.4680   -3.3938    0.0000 C   0  0  0  0  0  0  0  0  0  0  0  0
  -19.8182   -2.7406    0.0000 O   0  0  0  0  0  0  0  0  0  0  0  0
  -19.6142   -1.2545    0.0000 C   0  0  0  0  0  0  0  0  0  0  0  0
  -20.6965   -0.2159    0.0000 O   0  0  0  0  0  0  0  0  0  0  0  0
  -19.6140   -4.3617    0.0000 C   0  0  0  0  0  0  0  0  0  0  0  0
  -19.3488   -5.8380    0.0000 C   0  0  0  0  0  0  0  0  0  0  0  0
  -20.4948   -6.8059    0.0000 C   0  0  0  0  0  0  0  0  0  0  0  0
  -21.9060   -6.2973    0.0000 C   0  0  0  0  0  0  0  0  0  0  0  0
  -22.1711   -4.8209    0.0000 C   0  0  0  0  0  0  0  0  0  0  0  0
  -21.0251   -3.8531    0.0000 C   0  0  0  0  0  0  0  0  0  0  0  0
  -23.0520   -7.2651    0.0000 O   0  0  0  0  0  0  0  0  0  0  0  0
  -17.9376   -6.3466    0.0000 O   0  0  0  0  0  0  0  0  0  0  0  0
  -16.7916   -5.3787    0.0000 C   0  0  0  0  0  0  0  0  0  0  0  0
  -17.0568   -3.9024    0.0000 C   0  0  0  0  0  0  0  0  0  0  0  0
  -15.7871   -3.6235    0.0000 C   0  0  0  0  0  0  0  0  0  0  0  0
  -15.0345   -3.8947    0.0000 C   0  0  0  0  0  0  0  0  0  0  0  0
  -14.8930   -4.6821    0.0000 C   0  0  0  0  0  0  0  0  0  0  0  0
  -15.5042   -5.1983    0.0000 C   0  0  0  0  0  0  0  0  0  0  0  0
  -12.8233   -5.4280    0.0000 O   0  0  0  0  0  0  0  0  0  0  0  0
  -13.5577    1.4647    0.0000 S   0  0  0  0  0  0  0  0  0  0  0  0
  -11.3500    0.0949    0.0000 N   0  0  0  0  0  0  0  0  0  0  0  0
  -10.5592    1.3695    0.0000 C   0  0  0  0  0  0  0  0  0  0  0  0
   -9.0599    1.3219    0.0000 C   0  0  0  0  0  0  0  0  0  0  0  0
   -8.2691    2.5965    0.0000 C   0  0  0  0  0  0  0  0  0  0  0  0
   -8.8044    3.1872    0.0000 O   0  0  0  0  0  0  0  0  0  0  0  0
   -6.7699    2.5489    0.0000 N   0  0  0  0  0  0  0  0  0  0  0  0
   -5.9790    3.8235    0.0000 C   0  0  0  0  0  0  0  0  0  0  0  0
   -7.3716    4.3810    0.0000 C   0  0  0  0  0  0  0  0  0  0  0  0
   -8.5507    3.4538    0.0000 C   0  0  0  0  0  0  0  0  0  0  0  0
   -9.9432    4.0113    0.0000 C   0  0  0  0  0  0  0  0  0  0  0  0
  -11.1223    3.0840    0.0000 C   0  0  0  0  0  0  0  0  0  0  0  0
  -10.9088    1.5993    0.0000 C   0  0  0  0  0  0  0  0  0  0  0  0
   -9.5163    1.0418    0.0000 C   0  0  0  0  0  0  0  0  0  0  0  0
   -8.3372    1.9690    0.0000 C   0  0  0  0  0  0  0  0  0  0  0  0
   -4.8000    4.7508    0.0000 C   0  0  0  0  0  0  0  0  0  0  0  0
   -5.3664    6.1397    0.0000 O   0  0  0  0  0  0  0  0  0  0  0  0
   -3.4074    4.1933    0.0000 N   0  0  0  0  0  0  0  0  0  0  0  0
   -2.2283    5.1205    0.0000 C   0  0  0  0  0  0  0  0  0  0  0  0
   -3.3462    6.1207    0.0000 C   0  0  0  0  0  0  0  0  0  0  0  0
   -4.7713    5.6526    0.0000 C   0  0  0  0  0  0  0  0  0  0  0  0
   -5.8892    6.6528    0.0000 S   0  0  0  0  0  0  0  0  0  0  0  0
   -7.3143    6.1847    0.0000 C   0  0  0  0  0  0  0  0  0  0  0  0
   -0.8032    5.5886    0.0000 C   0  0  0  0  0  0  0  0  0  0  0  0
   -0.6773    7.0833    0.0000 O   0  0  0  0  0  0  0  0  0  0  0  0
    0.3147    4.5884    0.0000 N   0  0  0  0  0  0  0  0  0  0  0  0
    1.7398    5.0565    0.0000 C   0  0  0  0  0  0  0  0  0  0  0  0
    2.4165    6.3951    0.0000 C   0  0  0  0  0  0  0  0  0  0  0  0
    3.5540    7.3729    0.0000 C   0  0  0  0  0  0  0  0  0  0  0  0
    4.9791    7.8410    0.0000 C   0  0  0  0  0  0  0  0  0  0  0  0
    6.4749    7.7281    0.0000 C   0  0  0  0  0  0  0  0  0  0  0  0
    0.6306    6.0663    0.0000 C   0  0  0  0  0  0  0  0  0  0  0  0
    1.6269    3.5607    0.0000 C   0  0  0  0  0  0  0  0  0  0  0  0
    0.1710    3.1995    0.0000 O   0  0  0  0  0  0  0  0  0  0  0  0
    2.0949    2.1356    0.0000 N   0  0  0  0  0  0  0  0  0  0  0  0
    3.0727    0.9981    0.0000 C   0  0  0  0  0  0  0  0  0  0  0  0
    1.6476    0.5301    0.0000 C   0  0  0  0  0  0  0  0  0  0  0  0
    1.3404   -0.9381    0.0000 C   0  0  0  0  0  0  0  0  0  0  0  0
   -0.0847   -1.4062    0.0000 C   0  0  0  0  0  0  0  0  0  0  0  0
   -0.3919   -2.8744    0.0000 C   0  0  0  0  0  0  0  0  0  0  0  0
    0.7260   -3.8745    0.0000 C   0  0  0  0  0  0  0  0  0  0  0  0
    0.4188   -5.3428    0.0000 O   0  0  0  0  0  0  0  0  0  0  0  0
    2.1511   -3.4065    0.0000 C   0  0  0  0  0  0  0  0  0  0  0  0
    2.4583   -1.9383    0.0000 C   0  0  0  0  0  0  0  0  0  0  0  0
    4.4114    0.3214    0.0000 C   0  0  0  0  0  0  0  0  0  0  0  0
    4.1879   -1.1619    0.0000 O   0  0  0  0  0  0  0  0  0  0  0  0
    5.9071    0.2085    0.0000 N   0  0  0  0  0  0  0  0  0  0  0  0
    7.3771    1.2707    0.0000 C   0  0  0  0  0  0  0  0  0  0  0  0
    8.0484    2.6121    0.0000 C   0  0  0  0  0  0  0  0  0  0  0  0
    9.2353    3.5293    0.0000 C   0  0  0  0  0  0  0  0  0  0  0  0
    7.9111    4.2339    0.0000 C   0  0  0  0  0  0  0  0  0  0  0  0
    7.3496    5.6249    0.0000 N   0  0  0  0  0  0  0  0  0  0  0  0
    7.8135    7.0513    0.0000 C   0  0  0  0  0  0  0  0  0  0  0  0
    9.0859    7.8458    0.0000 C   0  0  0  0  0  0  0  0  0  0  0  0
   10.5712    7.6366    0.0000 C   0  0  0  0  0  0  0  0  0  0  0  0
   11.5746    6.5216    0.0000 C   0  0  0  0  0  0  0  0  0  0  0  0
   11.6265    5.0225    0.0000 C   0  0  0  0  0  0  0  0  0  0  0  0
   10.7026    3.8408    0.0000 C   0  0  0  0  0  0  0  0  0  0  0  0
    7.3542   -0.2291    0.0000 C   0  0  0  0  0  0  0  0  0  0  0  0
    6.0960   -1.0458    0.0000 O   0  0  0  0  0  0  0  0  0  0  0  0
    7.9843   -1.5903    0.0000 N   0  0  0  0  0  0  0  0  0  0  0  0
    9.1427   -2.5433    0.0000 C   0  0  0  0  0  0  0  0  0  0  0  0
    7.8324   -3.2734    0.0000 C   0  0  0  0  0  0  0  0  0  0  0  0
    7.8095   -4.7733    0.0000 C   0  0  0  0  0  0  0  0  0  0  0  0
    6.4991   -5.5034    0.0000 C   0  0  0  0  0  0  0  0  0  0  0  0
    6.4763   -7.0032    0.0000 C   0  0  0  0  0  0  0  0  0  0  0  0
    5.1659   -7.7333    0.0000 N   0  0  0  0  0  0  0  0  0  0  0  0
   10.5998   -2.8994    0.0000 C   0  0  0  0  0  0  0  0  0  0  0  0
   10.5769   -4.3992    0.0000 O   0  0  0  0  0  0  0  0  0  0  0  0
   12.0671   -2.5879    0.0000 N   0  0  0  0  0  0  0  0  0  0  0  0
   13.2540   -1.6707    0.0000 C   0  0  0  0  0  0  0  0  0  0  0  0
   13.9254   -0.3293    0.0000 C   0  0  0  0  0  0  0  0  0  0  0  0
   13.9482    1.1705    0.0000 C   0  0  0  0  0  0  0  0  0  0  0  0
   13.3181    2.5317    0.0000 C   0  0  0  0  0  0  0  0  0  0  0  0
   12.1598    3.4847    0.0000 C   0  0  0  0  0  0  0  0  0  0  0  0
   14.7203   -1.9867    0.0000 C   0  0  0  0  0  0  0  0  0  0  0  0
   13.6742   -3.1106    0.0000 C   0  0  0  0  0  0  0  0  0  0  0  0
   12.7772   -4.3128    0.0000 O   0  0  0  0  0  0  0  0  0  0  0  0
   15.1314   -3.4667    0.0000 N   0  0  0  0  0  0  0  0  0  0  0  0
   15.5516   -4.9066    0.0000 C   0  0  0  0  0  0  0  0  0  0  0  0
   15.4540   -6.4035    0.0000 C   0  0  0  0  0  0  0  0  0  0  0  0
   14.1089   -7.0673    0.0000 C   0  0  0  0  0  0  0  0  0  0  0  0
   14.0113   -8.5641    0.0000 C   0  0  0  0  0  0  0  0  0  0  0  0
   12.6178   -7.2311    0.0000 C   0  0  0  0  0  0  0  0  0  0  0  0
   17.0087   -5.2627    0.0000 C   0  0  0  0  0  0  0  0  0  0  0  0
   17.6013   -6.6407    0.0000 O   0  0  0  0  0  0  0  0  0  0  0  0
   18.0456   -4.1788    0.0000 O   0  0  0  0  0  0  0  0  0  0  0  0
  -12.7758   -2.3581    0.0000 H   0  0  0  0  0  0  0  0  0  0  0  0
  -15.0569    1.5123    0.0000 H   0  0  0  0  0  0  0  0  0  0  0  0
  -18.0554    1.6074    0.0000 H   0  0  0  0  0  0  0  0  0  0  0  0
  -14.9229   -3.4706    0.0000 H   0  0  0  0  0  0  0  0  0  0  0  0
  -20.2296   -8.2822    0.0000 H   0  0  0  0  0  0  0  0  0  0  0  0
  -23.5823   -4.3124    0.0000 H   0  0  0  0  0  0  0  0  0  0  0  0
  -21.2903   -2.3767    0.0000 H   0  0  0  0  0  0  0  0  0  0  0  0
  -24.4631   -6.7566    0.0000 H   0  0  0  0  0  0  0  0  0  0  0  0
  -16.1760   -1.4582    0.0000 H   0  0  0  0  0  0  0  0  0  0  0  0
  -13.2442   -2.6222    0.0000 H   0  0  0  0  0  0  0  0  0  0  0  0
  -15.1153   -7.3637    0.0000 H   0  0  0  0  0  0  0  0  0  0  0  0
  -12.5582   -6.9044    0.0000 H   0  0  0  0  0  0  0  0  0  0  0  0
  -10.6416   -1.2273    0.0000 H   0  0  0  0  0  0  0  0  0  0  0  0
  -11.9517    1.9270    0.0000 H   0  0  0  0  0  0  0  0  0  0  0  0
  -10.2520    2.8377    0.0000 H   0  0  0  0  0  0  0  0  0  0  0  0
   -9.1859   -0.1728    0.0000 H   0  0  0  0  0  0  0  0  0  0  0  0
   -7.6674    0.7644    0.0000 H   0  0  0  0  0  0  0  0  0  0  0  0
   -5.9056    1.3230    0.0000 H   0  0  0  0  0  0  0  0  0  0  0  0
   -4.8611    2.8234    0.0000 H   0  0  0  0  0  0  0  0  0  0  0  0
   -8.6031    5.2374    0.0000 H   0  0  0  0  0  0  0  0  0  0  0  0
   -6.4313    5.5497    0.0000 H   0  0  0  0  0  0  0  0  0  0  0  0
  -10.1567    5.4960    0.0000 H   0  0  0  0  0  0  0  0  0  0  0  0
  -12.5148    3.6415    0.0000 H   0  0  0  0  0  0  0  0  0  0  0  0
  -12.0879    0.6720    0.0000 H   0  0  0  0  0  0  0  0  0  0  0  0
   -9.4854   -0.4579    0.0000 H   0  0  0  0  0  0  0  0  0  0  0  0
   -7.0230    1.2460    0.0000 H   0  0  0  0  0  0  0  0  0  0  0  0
   -3.1939    2.7085    0.0000 H   0  0  0  0  0  0  0  0  0  0  0  0
   -1.5199    3.7983    0.0000 H   0  0  0  0  0  0  0  0  0  0  0  0
   -4.0546    7.4428    0.0000 H   0  0  0  0  0  0  0  0  0  0  0  0
   -2.1671    7.0479    0.0000 H   0  0  0  0  0  0  0  0  0  0  0  0
   -5.8286    4.5886    0.0000 H   0  0  0  0  0  0  0  0  0  0  0  0
   -4.4039    4.1983    0.0000 H   0  0  0  0  0  0  0  0  0  0  0  0
   -8.4322    7.1849    0.0000 H   0  0  0  0  0  0  0  0  0  0  0  0
   -8.5976    5.4081    0.0000 H   0  0  0  0  0  0  0  0  0  0  0  0
   -6.6059    4.8625    0.0000 H   0  0  0  0  0  0  0  0  0  0  0  0
   -0.1692    3.1686    0.0000 H   0  0  0  0  0  0  0  0  0  0  0  0
    1.9485    7.8202    0.0000 H   0  0  0  0  0  0  0  0  0  0  0  0
    0.9457    6.6896    0.0000 H   0  0  0  0  0  0  0  0  0  0  0  0
    3.4838    8.8713    0.0000 H   0  0  0  0  0  0  0  0  0  0  0  0
    2.3078    8.2078    0.0000 H   0  0  0  0  0  0  0  0  0  0  0  0
    5.6559    9.1797    0.0000 H   0  0  0  0  0  0  0  0  0  0  0  0
    4.1473    9.0892    0.0000 H   0  0  0  0  0  0  0  0  0  0  0  0
    6.8775    9.1730    0.0000 H   0  0  0  0  0  0  0  0  0  0  0  0
   -0.7085    6.2453    0.0000 H   0  0  0  0  0  0  0  0  0  0  0  0
    0.4218    7.6345    0.0000 H   0  0  0  0  0  0  0  0  0  0  0  0
    1.6374    7.4095    0.0000 H   0  0  0  0  0  0  0  0  0  0  0  0
    0.7084    1.5633    0.0000 H   0  0  0  0  0  0  0  0  0  0  0  0
    2.9598   -0.4976    0.0000 H   0  0  0  0  0  0  0  0  0  0  0  0
    0.1483    0.5777    0.0000 H   0  0  0  0  0  0  0  0  0  0  0  0
    0.9161    1.8396    0.0000 H   0  0  0  0  0  0  0  0  0  0  0  0
   -1.2026   -0.4060    0.0000 H   0  0  0  0  0  0  0  0  0  0  0  0
   -1.8170   -3.3425    0.0000 H   0  0  0  0  0  0  0  0  0  0  0  0
    1.5367   -6.3429    0.0000 H   0  0  0  0  0  0  0  0  0  0  0  0
    3.2690   -4.4066    0.0000 H   0  0  0  0  0  0  0  0  0  0  0  0
    3.9298   -1.6474    0.0000 H   0  0  0  0  0  0  0  0  0  0  0  0
    5.9053   -1.2915    0.0000 H   0  0  0  0  0  0  0  0  0  0  0  0
    5.9199    1.6268    0.0000 H   0  0  0  0  0  0  0  0  0  0  0  0
    7.2923    3.9076    0.0000 H   0  0  0  0  0  0  0  0  0  0  0  0
    6.5492    2.5639    0.0000 H   0  0  0  0  0  0  0  0  0  0  0  0
    6.6821    3.3740    0.0000 H   0  0  0  0  0  0  0  0  0  0  0  0
    5.8505    5.5730    0.0000 H   0  0  0  0  0  0  0  0  0  0  0  0
    8.7744    9.3131    0.0000 H   0  0  0  0  0  0  0  0  0  0  0  0
   11.2758    8.9608    0.0000 H   0  0  0  0  0  0  0  0  0  0  0  0
   12.9655    7.0831    0.0000 H   0  0  0  0  0  0  0  0  0  0  0  0
   13.0988    4.7359    0.0000 H   0  0  0  0  0  0  0  0  0  0  0  0
    6.6945   -2.3560    0.0000 H   0  0  0  0  0  0  0  0  0  0  0  0
    9.5233   -3.9942    0.0000 H   0  0  0  0  0  0  0  0  0  0  0  0
    6.3334   -3.3290    0.0000 H   0  0  0  0  0  0  0  0  0  0  0  0
    6.8656   -2.1266    0.0000 H   0  0  0  0  0  0  0  0  0  0  0  0
    8.4700   -6.1200    0.0000 H   0  0  0  0  0  0  0  0  0  0  0  0
    9.3084   -4.7177    0.0000 H   0  0  0  0  0  0  0  0  0  0  0  0
    5.0181   -5.7413    0.0000 H   0  0  0  0  0  0  0  0  0  0  0  0
    5.8386   -4.1566    0.0000 H   0  0  0  0  0  0  0  0  0  0  0  0
    6.9677   -8.4204    0.0000 H   0  0  0  0  0  0  0  0  0  0  0  0
    7.9752   -6.9476    0.0000 H   0  0  0  0  0  0  0  0  0  0  0  0
    5.1431   -9.2331    0.0000 H   0  0  0  0  0  0  0  0  0  0  0  0
    3.8785   -6.9636    0.0000 H   0  0  0  0  0  0  0  0  0  0  0  0
   12.5266   -4.0158    0.0000 H   0  0  0  0  0  0  0  0  0  0  0  0
   15.0572   -1.3137    0.0000 H   0  0  0  0  0  0  0  0  0  0  0  0
   15.3299    0.1973    0.0000 H   0  0  0  0  0  0  0  0  0  0  0  0
   15.3951    0.7747    0.0000 H   0  0  0  0  0  0  0  0  0  0  0  0
   15.1095    2.1199    0.0000 H   0  0  0  0  0  0  0  0  0  0  0  0
   14.7934    2.8028    0.0000 H   0  0  0  0  0  0  0  0  0  0  0  0
   13.7821    3.9582    0.0000 H   0  0  0  0  0  0  0  0  0  0  0  0
   12.9896    4.7343    0.0000 H   0  0  0  0  0  0  0  0  0  0  0  0
   15.6441   -2.9726    0.0000 H   0  0  0  0  0  0  0  0  0  0  0  0
   16.1979   -1.4214    0.0000 H   0  0  0  0  0  0  0  0  0  0  0  0
   15.2286   -0.3868    0.0000 H   0  0  0  0  0  0  0  0  0  0  0  0
   16.1683   -2.3828    0.0000 H   0  0  0  0  0  0  0  0  0  0  0  0
   14.0517   -4.8874    0.0000 H   0  0  0  0  0  0  0  0  0  0  0  0
   16.0466   -7.7814    0.0000 H   0  0  0  0  0  0  0  0  0  0  0  0
   16.9538   -6.4226    0.0000 H   0  0  0  0  0  0  0  0  0  0  0  0
   13.5163   -5.6894    0.0000 H   0  0  0  0  0  0  0  0  0  0  0  0
   12.7571   -9.3870    0.0000 H   0  0  0  0  0  0  0  0  0  0  0  0
   14.4315  -10.0041    0.0000 H   0  0  0  0  0  0  0  0  0  0  0  0
   15.5111   -8.5833    0.0000 H   0  0  0  0  0  0  0  0  0  0  0  0
   11.8513   -8.5205    0.0000 H   0  0  0  0  0  0  0  0  0  0  0  0
   11.1607   -6.8751    0.0000 H   0  0  0  0  0  0  0  0  0  0  0  0
   12.7154   -5.7343    0.0000 H   0  0  0  0  0  0  0  0  0  0  0  0
   19.5027   -4.5348    0.0000 H   0  0  0  0  0  0  0  0  0  0  0  0
  1  2  1  0
  2  3  1  0
  3  4  2  0
  4  5  1  0
  5  6  2  0
  6  7  1  0
  7  8  2  0
  7  9  1  0
  9 10  1  0
 10 11  1  0
 11 12  2  0
  9 13  1  0
 13 14  1  0
 14 15  2  0
 15 16  1  0
 16 17  2  0
 17 18  1  0
 16 19  1  0
 14 20  1  0
 20 21  1  0
 21 22  2  0
 22 23  1  0
 23 24  2  0
 24 25  1  0
 25 26  2  0
 25 27  1  0
  1 28  2  0
  1 29  1  0
 29 30  1  0
 30 31  1  0
 31 32  1  0
 32 33  2  0
 32 34  1  0
 34 35  1  0
 35 36  1  0
 36 37  1  0
 37 38  2  0
 38 39  1  0
 39 40  2  0
 40 41  1  0
 41 42  2  0
 35 43  1  0
 43 44  2  0
 43 45  1  0
 45 46  1  0
 46 47  1  0
 47 48  1  0
 48 49  1  0
 49 50  1  0
 46 51  1  0
 51 52  2  0
 51 53  1  0
 54 53  1  1
 54 55  1  0
 55 56  1  0
 56 57  1  0
 57 58  1  0
 54 59  1  0
 54 60  1  0
 60 61  2  0
 60 62  1  0
 62 63  1  0
 63 64  1  0
 64 65  1  0
 65 66  2  0
 66 67  1  0
 67 68  2  0
 68 69  1  0
 68 70  1  0
 70 71  2  0
 63 72  1  0
 72 73  2  0
 72 74  1  0
 74 75  1  0
 75 76  1  0
 76 77  1  0
 77 78  2  0
 78 79  1  0
 79 80  1  0
 80 81  1  0
 81 82  2  0
 82 83  1  0
 83 84  2  0
 84 85  1  0
 75 86  1  0
 86 87  2  0
 86 88  1  0
 88 89  1  0
 89 90  1  0
 90 91  1  0
 91 92  1  0
 92 93  1  0
 93 94  1  0
 89 95  1  0
 95 96  2  0
 95 97  1  0
 97 98  1  0
 98 99  1  0
 99100  1  0
100101  1  0
101102  1  0
 98103  1  0
 98104  1  1
104105  2  0
104106  1  0
106107  1  0
107108  1  0
108109  1  0
109110  1  0
109111  1  0
107112  1  0
112113  2  0
112114  1  0
  8  3  1  0
 42 37  1  0
 71 65  1  0
 85 77  1  0
 11  6  1  0
 58 80  2  0
102 85  2  0
 18 13  2  0
 22  9  1  0
 26 21  1  0
  2115  1  0
  4116  1  0
  5117  1  0
  8118  1  0
 15119  1  0
 17120  1  0
 18121  1  0
 19122  1  0
 23123  1  0
 24124  1  0
 26125  1  0
 27126  1  0
 29127  1  0
 30128  1  0
 30129  1  0
 31130  1  0
 31131  1  0
 34132  1  0
 35133  1  1
 36134  1  0
 36135  1  0
 38136  1  0
 39137  1  0
 40138  1  0
 41139  1  0
 42140  1  0
 45141  1  0
 46142  1  1
 47143  1  0
 47144  1  0
 48145  1  0
 48146  1  0
 50147  1  0
 50148  1  0
 50149  1  0
 53150  1  0
 55151  1  0
 55152  1  0
 56153  1  0
 56154  1  0
 57155  1  0
 57156  1  0
 58157  1  0
 59158  1  0
 59159  1  0
 59160  1  0
 62161  1  0
 63162  1  6
 64163  1  0
 64164  1  0
 66165  1  0
 67166  1  0
 69167  1  0
 70168  1  0
 71169  1  0
 74170  1  0
 75171  1  1
 76172  1  0
 76173  1  0
 78174  1  0
 79175  1  0
 81176  1  0
 82177  1  0
 83178  1  0
 84179  1  0
 88180  1  0
 89181  1  6
 90182  1  0
 90183  1  0
 91184  1  0
 91185  1  0
 92186  1  0
 92187  1  0
 93188  1  0
 93189  1  0
 94190  1  0
 94191  1  0
 97192  1  0
 99193  1  0
 99194  1  0
100195  1  0
100196  1  0
101197  1  0
101198  1  0
102199  1  0
103200  1  0
103201  1  0
103202  1  0
106203  1  0
107204  1  6
108205  1  0
108206  1  0
109207  1  0
110208  1  0
110209  1  0
110210  1  0
111211  1  0
111212  1  0
111213  1  0
114214  1  0
M  END
