
     RDKit          2D

299299  0  0  0  0  0  0  0  0999 V2000
  -22.8739   -6.4155    0.0000 N   0  0  0  0  0  0  0  0  0  0  0  0
  -22.0232   -5.1801    0.0000 C   0  0  0  0  0  0  0  0  0  0  0  0
  -22.6678   -3.8257    0.0000 C   0  0  0  0  0  0  0  0  0  0  0  0
  -21.8170   -2.5902    0.0000 C   0  0  0  0  0  0  0  0  0  0  0  0
  -20.3218   -2.7093    0.0000 O   0  0  0  0  0  0  0  0  0  0  0  0
  -22.4616   -1.2358    0.0000 N   0  0  0  0  0  0  0  0  0  0  0  0
  -21.6109   -0.0003    0.0000 C   0  0  0  0  0  0  0  0  0  0  0  0
  -22.9753    0.6229    0.0000 C   0  0  0  0  0  0  0  0  0  0  0  0
  -24.4705    0.7420    0.0000 O   0  0  0  0  0  0  0  0  0  0  0  0
  -23.1177    2.1161    0.0000 C   0  0  0  0  0  0  0  0  0  0  0  0
  -20.3889    0.8696    0.0000 C   0  0  0  0  0  0  0  0  0  0  0  0
  -20.6509    2.0560    0.0000 O   0  0  0  0  0  0  0  0  0  0  0  0
  -19.0245    0.2464    0.0000 N   0  0  0  0  0  0  0  0  0  0  0  0
  -17.8026    1.1163    0.0000 C   0  0  0  0  0  0  0  0  0  0  0  0
  -18.8715    2.1686    0.0000 C   0  0  0  0  0  0  0  0  0  0  0  0
  -18.4946    3.6205    0.0000 C   0  0  0  0  0  0  0  0  0  0  0  0
  -19.5636    4.6728    0.0000 C   0  0  0  0  0  0  0  0  0  0  0  0
  -19.1867    6.1247    0.0000 N   0  0  0  0  0  0  0  0  0  0  0  0
  -20.2556    7.1771    0.0000 C   0  0  0  0  0  0  0  0  0  0  0  0
  -19.8788    8.6289    0.0000 N   0  0  0  0  0  0  0  0  0  0  0  0
  -21.7014    6.7775    0.0000 N   0  0  0  0  0  0  0  0  0  0  0  0
  -16.3568    1.5159    0.0000 C   0  0  0  0  0  0  0  0  0  0  0  0
  -16.1794    2.8542    0.0000 O   0  0  0  0  0  0  0  0  0  0  0  0
  -15.2878    0.4636    0.0000 N   0  0  0  0  0  0  0  0  0  0  0  0
  -13.8420    0.8631    0.0000 C   0  0  0  0  0  0  0  0  0  0  0  0
  -14.4866    2.2176    0.0000 C   0  0  0  0  0  0  0  0  0  0  0  0
  -13.6359    3.4530    0.0000 C   0  0  0  0  0  0  0  0  0  0  0  0
  -14.2804    4.8075    0.0000 C   0  0  0  0  0  0  0  0  0  0  0  0
  -13.4297    6.0429    0.0000 N   0  0  0  0  0  0  0  0  0  0  0  0
  -15.7757    4.9265    0.0000 O   0  0  0  0  0  0  0  0  0  0  0  0
  -12.3468    0.7441    0.0000 C   0  0  0  0  0  0  0  0  0  0  0  0
  -11.6530    2.0740    0.0000 O   0  0  0  0  0  0  0  0  0  0  0  0
  -11.7022   -0.6104    0.0000 N   0  0  0  0  0  0  0  0  0  0  0  0
  -10.2069   -0.7294    0.0000 C   0  0  0  0  0  0  0  0  0  0  0  0
  -10.3494    0.7638    0.0000 C   0  0  0  0  0  0  0  0  0  0  0  0
   -8.8426   -1.3527    0.0000 C   0  0  0  0  0  0  0  0  0  0  0  0
   -7.6206   -0.4827    0.0000 O   0  0  0  0  0  0  0  0  0  0  0  0
   -8.7001   -2.8459    0.0000 N   0  0  0  0  0  0  0  0  0  0  0  0
   -7.3358   -3.4691    0.0000 C   0  0  0  0  0  0  0  0  0  0  0  0
   -8.1865   -4.7046    0.0000 C   0  0  0  0  0  0  0  0  0  0  0  0
   -9.6817   -4.5855    0.0000 C   0  0  0  0  0  0  0  0  0  0  0  0
  -10.5325   -5.8210    0.0000 C   0  0  0  0  0  0  0  0  0  0  0  0
  -12.0277   -5.7019    0.0000 N   0  0  0  0  0  0  0  0  0  0  0  0
  -12.8784   -6.9374    0.0000 C   0  0  0  0  0  0  0  0  0  0  0  0
  -14.3737   -6.8183    0.0000 N   0  0  0  0  0  0  0  0  0  0  0  0
  -12.2339   -8.2918    0.0000 N   0  0  0  0  0  0  0  0  0  0  0  0
   -5.8405   -3.5882    0.0000 C   0  0  0  0  0  0  0  0  0  0  0  0
   -5.1959   -4.9426    0.0000 O   0  0  0  0  0  0  0  0  0  0  0  0
   -4.9898   -2.3527    0.0000 N   0  0  0  0  0  0  0  0  0  0  0  0
   -3.4945   -2.4718    0.0000 C   0  0  0  0  0  0  0  0  0  0  0  0
   -3.6369   -0.9785    0.0000 C   0  0  0  0  0  0  0  0  0  0  0  0
   -5.0013   -0.3553    0.0000 C   0  0  0  0  0  0  0  0  0  0  0  0
   -5.1437    1.1379    0.0000 C   0  0  0  0  0  0  0  0  0  0  0  0
   -6.5081    1.7612    0.0000 N   0  0  0  0  0  0  0  0  0  0  0  0
   -6.6506    3.2544    0.0000 C   0  0  0  0  0  0  0  0  0  0  0  0
   -8.0149    3.8777    0.0000 N   0  0  0  0  0  0  0  0  0  0  0  0
   -5.4286    4.1244    0.0000 N   0  0  0  0  0  0  0  0  0  0  0  0
   -2.1301   -3.0950    0.0000 C   0  0  0  0  0  0  0  0  0  0  0  0
   -0.9082   -2.2251    0.0000 O   0  0  0  0  0  0  0  0  0  0  0  0
   -1.9877   -4.5883    0.0000 N   0  0  0  0  0  0  0  0  0  0  0  0
   -0.6233   -5.2115    0.0000 C   0  0  0  0  0  0  0  0  0  0  0  0
   -1.4740   -6.4469    0.0000 C   0  0  0  0  0  0  0  0  0  0  0  0
   -2.9693   -6.3279    0.0000 C   0  0  0  0  0  0  0  0  0  0  0  0
   -3.8200   -7.5633    0.0000 N   0  0  0  0  0  0  0  0  0  0  0  0
   -3.7741   -5.0621    0.0000 O   0  0  0  0  0  0  0  0  0  0  0  0
    0.8720   -5.3305    0.0000 C   0  0  0  0  0  0  0  0  0  0  0  0
    1.3466   -6.7535    0.0000 O   0  0  0  0  0  0  0  0  0  0  0  0
    1.7227   -4.0951    0.0000 N   0  0  0  0  0  0  0  0  0  0  0  0
    3.2180   -4.2141    0.0000 C   0  0  0  0  0  0  0  0  0  0  0  0
    4.1181   -5.4140    0.0000 C   0  0  0  0  0  0  0  0  0  0  0  0
    5.3319   -6.2953    0.0000 C   0  0  0  0  0  0  0  0  0  0  0  0
    6.7516   -6.7796    0.0000 C   0  0  0  0  0  0  0  0  0  0  0  0
    8.2510   -6.8240    0.0000 C   0  0  0  0  0  0  0  0  0  0  0  0
    2.3397   -5.4302    0.0000 C   0  0  0  0  0  0  0  0  0  0  0  0
    2.7115   -2.8022    0.0000 C   0  0  0  0  0  0  0  0  0  0  0  0
    1.2154   -2.9111    0.0000 O   0  0  0  0  0  0  0  0  0  0  0  0
    2.6436   -1.3038    0.0000 N   0  0  0  0  0  0  0  0  0  0  0  0
    3.0205    0.1481    0.0000 C   0  0  0  0  0  0  0  0  0  0  0  0
    1.5421   -0.1055    0.0000 C   0  0  0  0  0  0  0  0  0  0  0  0
    0.5833    1.0480    0.0000 C   0  0  0  0  0  0  0  0  0  0  0  0
   -0.8951    0.7944    0.0000 C   0  0  0  0  0  0  0  0  0  0  0  0
   -1.8540    1.9479    0.0000 N   0  0  0  0  0  0  0  0  0  0  0  0
   -3.3324    1.6943    0.0000 C   0  0  0  0  0  0  0  0  0  0  0  0
   -3.9836    3.0455    0.0000 N   0  0  0  0  0  0  0  0  0  0  0  0
   -3.4960    0.2032    0.0000 N   0  0  0  0  0  0  0  0  0  0  0  0
    3.8086    1.4244    0.0000 C   0  0  0  0  0  0  0  0  0  0  0  0
    2.6640    2.3939    0.0000 O   0  0  0  0  0  0  0  0  0  0  0  0
    4.9379    2.4117    0.0000 N   0  0  0  0  0  0  0  0  0  0  0  0
    6.3080    3.0223    0.0000 C   0  0  0  0  0  0  0  0  0  0  0  0
    5.1879    4.0200    0.0000 C   0  0  0  0  0  0  0  0  0  0  0  0
    5.4919    5.4889    0.0000 C   0  0  0  0  0  0  0  0  0  0  0  0
    4.3719    6.4866    0.0000 C   0  0  0  0  0  0  0  0  0  0  0  0
    4.6759    7.9555    0.0000 N   0  0  0  0  0  0  0  0  0  0  0  0
    3.5559    8.9532    0.0000 C   0  0  0  0  0  0  0  0  0  0  0  0
    3.8599   10.4221    0.0000 N   0  0  0  0  0  0  0  0  0  0  0  0
    2.1318    8.4821    0.0000 N   0  0  0  0  0  0  0  0  0  0  0  0
    7.7972    3.2019    0.0000 C   0  0  0  0  0  0  0  0  0  0  0  0
    7.8415    4.7012    0.0000 O   0  0  0  0  0  0  0  0  0  0  0  0
    9.2732    2.9346    0.0000 N   0  0  0  0  0  0  0  0  0  0  0  0
   10.6048    2.2441    0.0000 C   0  0  0  0  0  0  0  0  0  0  0  0
   10.6865    3.7419    0.0000 C   0  0  0  0  0  0  0  0  0  0  0  0
   12.0245    4.4200    0.0000 C   0  0  0  0  0  0  0  0  0  0  0  0
   12.1062    5.9178    0.0000 C   0  0  0  0  0  0  0  0  0  0  0  0
   13.4441    6.5959    0.0000 N   0  0  0  0  0  0  0  0  0  0  0  0
   13.5259    8.0936    0.0000 C   0  0  0  0  0  0  0  0  0  0  0  0
   14.8638    8.7718    0.0000 N   0  0  0  0  0  0  0  0  0  0  0  0
   12.2696    8.9133    0.0000 N   0  0  0  0  0  0  0  0  0  0  0  0
   11.6737    1.1918    0.0000 C   0  0  0  0  0  0  0  0  0  0  0  0
   12.8736    2.0919    0.0000 O   0  0  0  0  0  0  0  0  0  0  0  0
   12.3850   -0.1289    0.0000 N   0  0  0  0  0  0  0  0  0  0  0  0
   12.6754   -1.6005    0.0000 C   0  0  0  0  0  0  0  0  0  0  0  0
   12.5191   -3.0923    0.0000 C   0  0  0  0  0  0  0  0  0  0  0  0
   11.9301   -4.4718    0.0000 C   0  0  0  0  0  0  0  0  0  0  0  0
   10.9606   -5.6164    0.0000 C   0  0  0  0  0  0  0  0  0  0  0  0
    9.6968   -6.4244    0.0000 C   0  0  0  0  0  0  0  0  0  0  0  0
   14.0534   -2.1930    0.0000 C   0  0  0  0  0  0  0  0  0  0  0  0
   13.8973   -0.7305    0.0000 C   0  0  0  0  0  0  0  0  0  0  0  0
   13.9380    0.7689    0.0000 O   0  0  0  0  0  0  0  0  0  0  0  0
   15.2617   -1.3538    0.0000 N   0  0  0  0  0  0  0  0  0  0  0  0
   16.4837   -0.4838    0.0000 C   0  0  0  0  0  0  0  0  0  0  0  0
   17.3344    0.7516    0.0000 C   0  0  0  0  0  0  0  0  0  0  0  0
   18.8297    0.6326    0.0000 C   0  0  0  0  0  0  0  0  0  0  0  0
   19.6804    1.8680    0.0000 C   0  0  0  0  0  0  0  0  0  0  0  0
   21.1756    1.7490    0.0000 N   0  0  0  0  0  0  0  0  0  0  0  0
   22.0264    2.9844    0.0000 C   0  0  0  0  0  0  0  0  0  0  0  0
   23.5216    2.8654    0.0000 N   0  0  0  0  0  0  0  0  0  0  0  0
   21.3818    4.3388    0.0000 N   0  0  0  0  0  0  0  0  0  0  0  0
   17.8481   -1.1071    0.0000 C   0  0  0  0  0  0  0  0  0  0  0  0
   19.1669   -0.3926    0.0000 O   0  0  0  0  0  0  0  0  0  0  0  0
   17.9905   -2.6003    0.0000 N   0  0  0  0  0  0  0  0  0  0  0  0
   19.3549   -3.2236    0.0000 C   0  0  0  0  0  0  0  0  0  0  0  0
   20.8501   -3.3426    0.0000 C   0  0  0  0  0  0  0  0  0  0  0  0
   21.7009   -2.1072    0.0000 C   0  0  0  0  0  0  0  0  0  0  0  0
   23.1961   -2.2262    0.0000 C   0  0  0  0  0  0  0  0  0  0  0  0
   24.0468   -0.9908    0.0000 N   0  0  0  0  0  0  0  0  0  0  0  0
   25.5421   -1.1098    0.0000 C   0  0  0  0  0  0  0  0  0  0  0  0
   26.3928    0.1256    0.0000 N   0  0  0  0  0  0  0  0  0  0  0  0
   26.1867   -2.4643    0.0000 N   0  0  0  0  0  0  0  0  0  0  0  0
   19.4973   -4.7168    0.0000 C   0  0  0  0  0  0  0  0  0  0  0  0
   20.7755   -5.5017    0.0000 O   0  0  0  0  0  0  0  0  0  0  0  0
   18.2753   -5.5868    0.0000 O   0  0  0  0  0  0  0  0  0  0  0  0
  -22.2294   -7.7700    0.0000 H   0  0  0  0  0  0  0  0  0  0  0  0
  -24.3692   -6.2965    0.0000 H   0  0  0  0  0  0  0  0  0  0  0  0
  -20.9543   -6.2324    0.0000 H   0  0  0  0  0  0  0  0  0  0  0  0
  -20.8012   -4.3101    0.0000 H   0  0  0  0  0  0  0  0  0  0  0  0
  -23.8897   -4.6956    0.0000 H   0  0  0  0  0  0  0  0  0  0  0  0
  -23.7367   -2.7733    0.0000 H   0  0  0  0  0  0  0  0  0  0  0  0
  -23.4448   -1.2778    0.0000 H   0  0  0  0  0  0  0  0  0  0  0  0
  -20.5419   -1.0527    0.0000 H   0  0  0  0  0  0  0  0  0  0  0  0
  -23.3368   -0.2924    0.0000 H   0  0  0  0  0  0  0  0  0  0  0  0
  -24.9986    1.5724    0.0000 H   0  0  0  0  0  0  0  0  0  0  0  0
  -21.8957    2.9861    0.0000 H   0  0  0  0  0  0  0  0  0  0  0  0
  -23.7622    3.4706    0.0000 H   0  0  0  0  0  0  0  0  0  0  0  0
  -24.0912    1.9716    0.0000 H   0  0  0  0  0  0  0  0  0  0  0  0
  -18.8821   -1.2469    0.0000 H   0  0  0  0  0  0  0  0  0  0  0  0
  -17.1580   -0.2381    0.0000 H   0  0  0  0  0  0  0  0  0  0  0  0
  -19.9767    2.6735    0.0000 H   0  0  0  0  0  0  0  0  0  0  0  0
  -19.6912    1.4448    0.0000 H   0  0  0  0  0  0  0  0  0  0  0  0
  -17.6439    4.8559    0.0000 H   0  0  0  0  0  0  0  0  0  0  0  0
  -17.1303    2.9973    0.0000 H   0  0  0  0  0  0  0  0  0  0  0  0
  -20.9280    5.2961    0.0000 H   0  0  0  0  0  0  0  0  0  0  0  0
  -20.5585    3.5503    0.0000 H   0  0  0  0  0  0  0  0  0  0  0  0
  -17.7409    6.5243    0.0000 H   0  0  0  0  0  0  0  0  0  0  0  0
  -20.9477    9.6813    0.0000 H   0  0  0  0  0  0  0  0  0  0  0  0
  -18.4330    9.0285    0.0000 H   0  0  0  0  0  0  0  0  0  0  0  0
  -22.7704    7.8298    0.0000 H   0  0  0  0  0  0  0  0  0  0  0  0
  -22.0783    5.3256    0.0000 H   0  0  0  0  0  0  0  0  0  0  0  0
  -15.6647   -0.9883    0.0000 H   0  0  0  0  0  0  0  0  0  0  0  0
  -13.6996   -0.6301    0.0000 H   0  0  0  0  0  0  0  0  0  0  0  0
  -15.3260    3.2749    0.0000 H   0  0  0  0  0  0  0  0  0  0  0  0
  -15.7431    1.7240    0.0000 H   0  0  0  0  0  0  0  0  0  0  0  0
  -12.4139    4.3230    0.0000 H   0  0  0  0  0  0  0  0  0  0  0  0
  -12.5669    2.4007    0.0000 H   0  0  0  0  0  0  0  0  0  0  0  0
  -14.0743    7.3973    0.0000 H   0  0  0  0  0  0  0  0  0  0  0  0
  -11.9344    5.9239    0.0000 H   0  0  0  0  0  0  0  0  0  0  0  0
  -12.5529   -1.8458    0.0000 H   0  0  0  0  0  0  0  0  0  0  0  0
  -10.5838   -2.1813    0.0000 H   0  0  0  0  0  0  0  0  0  0  0  0
  -11.6276    1.5488    0.0000 H   0  0  0  0  0  0  0  0  0  0  0  0
   -9.9725    2.2157    0.0000 H   0  0  0  0  0  0  0  0  0  0  0  0
   -8.8541    0.6448    0.0000 H   0  0  0  0  0  0  0  0  0  0  0  0
  -10.0190   -3.5604    0.0000 H   0  0  0  0  0  0  0  0  0  0  0  0
   -6.9589   -2.0173    0.0000 H   0  0  0  0  0  0  0  0  0  0  0  0
   -8.3835   -6.1916    0.0000 H   0  0  0  0  0  0  0  0  0  0  0  0
   -6.8221   -5.3278    0.0000 H   0  0  0  0  0  0  0  0  0  0  0  0
  -11.0461   -3.9623    0.0000 H   0  0  0  0  0  0  0  0  0  0  0  0
   -9.8503   -3.0950    0.0000 H   0  0  0  0  0  0  0  0  0  0  0  0
  -10.9093   -7.2729    0.0000 H   0  0  0  0  0  0  0  0  0  0  0  0
   -9.2542   -6.6059    0.0000 H   0  0  0  0  0  0  0  0  0  0  0  0
  -12.6723   -4.3475    0.0000 H   0  0  0  0  0  0  0  0  0  0  0  0
  -15.2244   -8.0538    0.0000 H   0  0  0  0  0  0  0  0  0  0  0  0
  -15.0183   -5.4639    0.0000 H   0  0  0  0  0  0  0  0  0  0  0  0
  -13.0846   -9.5273    0.0000 H   0  0  0  0  0  0  0  0  0  0  0  0
  -10.7386   -8.4109    0.0000 H   0  0  0  0  0  0  0  0  0  0  0  0
   -5.7946   -1.0870    0.0000 H   0  0  0  0  0  0  0  0  0  0  0  0
   -3.8714   -3.9237    0.0000 H   0  0  0  0  0  0  0  0  0  0  0  0
   -2.9199    0.3390    0.0000 H   0  0  0  0  0  0  0  0  0  0  0  0
   -2.1673   -1.2790    0.0000 H   0  0  0  0  0  0  0  0  0  0  0  0
   -6.4966   -0.2363    0.0000 H   0  0  0  0  0  0  0  0  0  0  0  0
   -5.8736   -1.5756    0.0000 H   0  0  0  0  0  0  0  0  0  0  0  0
   -4.9467    2.6249    0.0000 H   0  0  0  0  0  0  0  0  0  0  0  0
   -3.7217    0.6606    0.0000 H   0  0  0  0  0  0  0  0  0  0  0  0
   -7.7301    0.8912    0.0000 H   0  0  0  0  0  0  0  0  0  0  0  0
   -8.1574    5.3709    0.0000 H   0  0  0  0  0  0  0  0  0  0  0  0
   -9.2369    3.0077    0.0000 H   0  0  0  0  0  0  0  0  0  0  0  0
   -5.5710    5.6176    0.0000 H   0  0  0  0  0  0  0  0  0  0  0  0
   -3.9539    3.8498    0.0000 H   0  0  0  0  0  0  0  0  0  0  0  0
   -3.3066   -5.3028    0.0000 H   0  0  0  0  0  0  0  0  0  0  0  0
   -0.2464   -3.7596    0.0000 H   0  0  0  0  0  0  0  0  0  0  0  0
   -1.8509   -7.8988    0.0000 H   0  0  0  0  0  0  0  0  0  0  0  0
   -0.1096   -7.0702    0.0000 H   0  0  0  0  0  0  0  0  0  0  0  0
   -5.3153   -7.4443    0.0000 H   0  0  0  0  0  0  0  0  0  0  0  0
   -3.1754   -8.9178    0.0000 H   0  0  0  0  0  0  0  0  0  0  0  0
    0.9178   -2.8293    0.0000 H   0  0  0  0  0  0  0  0  0  0  0  0
    3.8141   -6.8829    0.0000 H   0  0  0  0  0  0  0  0  0  0  0  0
    2.7050   -5.9170    0.0000 H   0  0  0  0  0  0  0  0  0  0  0  0
    5.2913   -7.7947    0.0000 H   0  0  0  0  0  0  0  0  0  0  0  0
    4.1298   -7.1925    0.0000 H   0  0  0  0  0  0  0  0  0  0  0  0
    7.3278   -8.1645    0.0000 H   0  0  0  0  0  0  0  0  0  0  0  0
    5.8674   -7.9913    0.0000 H   0  0  0  0  0  0  0  0  0  0  0  0
    8.4306   -8.3132    0.0000 H   0  0  0  0  0  0  0  0  0  0  0  0
    1.0658   -5.8802    0.0000 H   0  0  0  0  0  0  0  0  0  0  0  0
    2.4572   -7.0078    0.0000 H   0  0  0  0  0  0  0  0  0  0  0  0
    3.6008   -6.5381    0.0000 H   0  0  0  0  0  0  0  0  0  0  0  0
    1.1518   -1.1475    0.0000 H   0  0  0  0  0  0  0  0  0  0  0  0
    2.3391    1.4844    0.0000 H   0  0  0  0  0  0  0  0  0  0  0  0
    0.3400   -1.0027    0.0000 H   0  0  0  0  0  0  0  0  0  0  0  0
    1.6919   -1.5980    0.0000 H   0  0  0  0  0  0  0  0  0  0  0  0
    0.0768    2.4599    0.0000 H   0  0  0  0  0  0  0  0  0  0  0  0
    1.7854    1.9452    0.0000 H   0  0  0  0  0  0  0  0  0  0  0  0
   -2.1976    0.0504    0.0000 H   0  0  0  0  0  0  0  0  0  0  0  0
   -0.5645   -0.6687    0.0000 H   0  0  0  0  0  0  0  0  0  0  0  0
   -1.3344    3.3551    0.0000 H   0  0  0  0  0  0  0  0  0  0  0  0
   -5.7696    2.5942    0.0000 H   0  0  0  0  0  0  0  0  0  0  0  0
   -3.6258    4.2201    0.0000 H   0  0  0  0  0  0  0  0  0  0  0  0
   -5.3169    0.4824    0.0000 H   0  0  0  0  0  0  0  0  0  0  0  0
   -2.5498   -0.5792    0.0000 H   0  0  0  0  0  0  0  0  0  0  0  0
    4.1299    3.6755    0.0000 H   0  0  0  0  0  0  0  0  0  0  0  0
    6.9279    4.3882    0.0000 H   0  0  0  0  0  0  0  0  0  0  0  0
    3.7370    4.4005    0.0000 H   0  0  0  0  0  0  0  0  0  0  0  0
    4.1144    2.9723    0.0000 H   0  0  0  0  0  0  0  0  0  0  0  0
    6.2800    6.7652    0.0000 H   0  0  0  0  0  0  0  0  0  0  0  0
    6.9429    5.1084    0.0000 H   0  0  0  0  0  0  0  0  0  0  0  0
    2.9781    7.0411    0.0000 H   0  0  0  0  0  0  0  0  0  0  0  0
    3.4341    5.3159    0.0000 H   0  0  0  0  0  0  0  0  0  0  0  0
    6.1000    8.4266    0.0000 H   0  0  0  0  0  0  0  0  0  0  0  0
    2.7398   11.4198    0.0000 H   0  0  0  0  0  0  0  0  0  0  0  0
    5.2840   10.8932    0.0000 H   0  0  0  0  0  0  0  0  0  0  0  0
    1.0117    9.4798    0.0000 H   0  0  0  0  0  0  0  0  0  0  0  0
    1.8277    7.0132    0.0000 H   0  0  0  0  0  0  0  0  0  0  0  0
    9.7575    4.3542    0.0000 H   0  0  0  0  0  0  0  0  0  0  0  0
   12.0592    2.6111    0.0000 H   0  0  0  0  0  0  0  0  0  0  0  0
   10.0793    5.1135    0.0000 H   0  0  0  0  0  0  0  0  0  0  0  0
    9.1981    3.9279    0.0000 H   0  0  0  0  0  0  0  0  0  0  0  0
   13.5137    4.5996    0.0000 H   0  0  0  0  0  0  0  0  0  0  0  0
   12.6317    3.0484    0.0000 H   0  0  0  0  0  0  0  0  0  0  0  0
   11.6707    7.3531    0.0000 H   0  0  0  0  0  0  0  0  0  0  0  0
   10.6062    5.9210    0.0000 H   0  0  0  0  0  0  0  0  0  0  0  0
   14.7004    5.7762    0.0000 H   0  0  0  0  0  0  0  0  0  0  0  0
   14.9455   10.2695    0.0000 H   0  0  0  0  0  0  0  0  0  0  0  0
   16.1201    7.9521    0.0000 H   0  0  0  0  0  0  0  0  0  0  0  0
   12.3513   10.4111    0.0000 H   0  0  0  0  0  0  0  0  0  0  0  0
   10.9316    8.2352    0.0000 H   0  0  0  0  0  0  0  0  0  0  0  0
   13.7246    0.5459    0.0000 H   0  0  0  0  0  0  0  0  0  0  0  0
   13.9900   -2.7983    0.0000 H   0  0  0  0  0  0  0  0  0  0  0  0
   13.5343   -4.1966    0.0000 H   0  0  0  0  0  0  0  0  0  0  0  0
   13.4223   -4.6244    0.0000 H   0  0  0  0  0  0  0  0  0  0  0  0
   12.7349   -5.7376    0.0000 H   0  0  0  0  0  0  0  0  0  0  0  0
   12.3415   -6.2021    0.0000 H   0  0  0  0  0  0  0  0  0  0  0  0
   11.1772   -7.1007    0.0000 H   0  0  0  0  0  0  0  0  0  0  0  0
   10.3073   -7.7945    0.0000 H   0  0  0  0  0  0  0  0  0  0  0  0
   15.3776   -1.9250    0.0000 H   0  0  0  0  0  0  0  0  0  0  0  0
   14.7627   -3.6070    0.0000 H   0  0  0  0  0  0  0  0  0  0  0  0
   13.5402   -3.7913    0.0000 H   0  0  0  0  0  0  0  0  0  0  0  0
   15.5851   -2.8185    0.0000 H   0  0  0  0  0  0  0  0  0  0  0  0
   15.4147    0.5685    0.0000 H   0  0  0  0  0  0  0  0  0  0  0  0
   17.5315    2.2386    0.0000 H   0  0  0  0  0  0  0  0  0  0  0  0
   15.9700    1.3748    0.0000 H   0  0  0  0  0  0  0  0  0  0  0  0
   20.1940    0.0093    0.0000 H   0  0  0  0  0  0  0  0  0  0  0  0
   18.9982   -0.8579    0.0000 H   0  0  0  0  0  0  0  0  0  0  0  0
   20.0572    3.3199    0.0000 H   0  0  0  0  0  0  0  0  0  0  0  0
   18.4021    2.6529    0.0000 H   0  0  0  0  0  0  0  0  0  0  0  0
   21.8202    0.3945    0.0000 H   0  0  0  0  0  0  0  0  0  0  0  0
   24.3723    4.1008    0.0000 H   0  0  0  0  0  0  0  0  0  0  0  0
   24.1662    1.5109    0.0000 H   0  0  0  0  0  0  0  0  0  0  0  0
   22.2325    5.5743    0.0000 H   0  0  0  0  0  0  0  0  0  0  0  0
   19.8865    4.4579    0.0000 H   0  0  0  0  0  0  0  0  0  0  0  0
   16.7685   -3.4703    0.0000 H   0  0  0  0  0  0  0  0  0  0  0  0
   19.5519   -1.7366    0.0000 H   0  0  0  0  0  0  0  0  0  0  0  0
   22.1284   -4.1275    0.0000 H   0  0  0  0  0  0  0  0  0  0  0  0
   20.6531   -4.8296    0.0000 H   0  0  0  0  0  0  0  0  0  0  0  0
   22.0777   -0.6553    0.0000 H   0  0  0  0  0  0  0  0  0  0  0  0
   20.4226   -1.3223    0.0000 H   0  0  0  0  0  0  0  0  0  0  0  0
   24.5605   -2.8495    0.0000 H   0  0  0  0  0  0  0  0  0  0  0  0
   22.9990   -3.7132    0.0000 H   0  0  0  0  0  0  0  0  0  0  0  0
   23.4023    0.3637    0.0000 H   0  0  0  0  0  0  0  0  0  0  0  0
   27.8881    0.0066    0.0000 H   0  0  0  0  0  0  0  0  0  0  0  0
   25.7483    1.4801    0.0000 H   0  0  0  0  0  0  0  0  0  0  0  0
   27.6819   -2.5833    0.0000 H   0  0  0  0  0  0  0  0  0  0  0  0
   25.3359   -3.6997    0.0000 H   0  0  0  0  0  0  0  0  0  0  0  0
  1  2  1  0
  2  3  1  0
  3  4  1  0
  4  5  2  0
  4  6  1  0
  6  7  1  0
  7  8  1  0
  8  9  1  0
  8 10  1  0
  7 11  1  0
 11 12  2  0
 11 13  1  0
 13 14  1  0
 14 15  1  0
 15 16  1  0
 16 17  1  0
 17 18  1  0
 18 19  1  0
 19 20  2  3
 19 21  1  0
 14 22  1  0
 22 23  2  0
 22 24  1  0
 24 25  1  0
 25 26  1  0
 26 27  1  0
 27 28  1  0
 28 29  1  0
 28 30  2  0
 25 31  1  0
 31 32  2  0
 31 33  1  0
 33 34  1  0
 34 35  1  0
 34 36  1  0
 36 37  2  0
 36 38  1  0
 38 39  1  0
 39 40  1  0
 40 41  1  0
 41 42  1  0
 42 43  1  0
 43 44  1  0
 44 45  2  3
 44 46  1  0
 39 47  1  0
 47 48  2  0
 47 49  1  0
 49 50  1  0
 50 51  1  0
 51 52  1  0
 52 53  1  0
 53 54  1  0
 54 55  1  0
 55 56  2  3
 55 57  1  0
 50 58  1  0
 58 59  2  0
 58 60  1  0
 60 61  1  0
 61 62  1  0
 62 63  1  0
 63 64  1  0
 63 65  2  0
 61 66  1  0
 66 67  2  0
 66 68  1  0
 69 68  1  6
 69 70  1  0
 70 71  1  0
 71 72  1  0
 72 73  1  0
 69 74  1  0
 69 75  1  0
 75 76  2  0
 75 77  1  0
 77 78  1  0
 78 79  1  0
 79 80  1  0
 80 81  1  0
 81 82  1  0
 82 83  1  0
 83 84  2  3
 83 85  1  0
 78 86  1  0
 86 87  2  0
 86 88  1  0
 88 89  1  0
 89 90  1  0
 90 91  1  0
 91 92  1  0
 92 93  1  0
 93 94  1  0
 94 95  2  3
 94 96  1  0
 89 97  1  0
 97 98  2  0
 97 99  1  0
 99100  1  0
100101  1  0
101102  1  0
102103  1  0
103104  1  0
104105  1  0
105106  2  3
105107  1  0
100108  1  0
108109  2  0
108110  1  0
110111  1  0
111112  1  0
112113  1  0
113114  1  0
114115  1  0
111116  1  0
111117  1  6
117118  2  0
117119  1  0
119120  1  0
120121  1  0
121122  1  0
122123  1  0
123124  1  0
124125  1  0
125126  2  3
125127  1  0
120128  1  0
128129  2  0
128130  1  0
130131  1  0
131132  1  0
132133  1  0
133134  1  0
134135  1  0
135136  1  0
136137  2  3
136138  1  0
131139  1  0
139140  2  0
139141  1  0
 73115  2  0
  1142  1  0
  1143  1  0
  2144  1  0
  2145  1  0
  3146  1  0
  3147  1  0
  6148  1  0
  7149  1  1
  8150  1  1
  9151  1  0
 10152  1  0
 10153  1  0
 10154  1  0
 13155  1  0
 14156  1  1
 15157  1  0
 15158  1  0
 16159  1  0
 16160  1  0
 17161  1  0
 17162  1  0
 18163  1  0
 20164  1  0
 20165  1  0
 21166  1  0
 21167  1  0
 24168  1  0
 25169  1  1
 26170  1  0
 26171  1  0
 27172  1  0
 27173  1  0
 29174  1  0
 29175  1  0
 33176  1  0
 34177  1  1
 35178  1  0
 35179  1  0
 35180  1  0
 38181  1  0
 39182  1  6
 40183  1  0
 40184  1  0
 41185  1  0
 41186  1  0
 42187  1  0
 42188  1  0
 43189  1  0
 45190  1  0
 45191  1  0
 46192  1  0
 46193  1  0
 49194  1  0
 50195  1  1
 51196  1  0
 51197  1  0
 52198  1  0
 52199  1  0
 53200  1  0
 53201  1  0
 54202  1  0
 56203  1  0
 56204  1  0
 57205  1  0
 57206  1  0
 60207  1  0
 61208  1  6
 62209  1  0
 62210  1  0
 64211  1  0
 64212  1  0
 68213  1  0
 70214  1  0
 70215  1  0
 71216  1  0
 71217  1  0
 72218  1  0
 72219  1  0
 73220  1  0
 74221  1  0
 74222  1  0
 74223  1  0
 77224  1  0
 78225  1  1
 79226  1  0
 79227  1  0
 80228  1  0
 80229  1  0
 81230  1  0
 81231  1  0
 82232  1  0
 84233  1  0
 84234  1  0
 85235  1  0
 85236  1  0
 88237  1  0
 89238  1  1
 90239  1  0
 90240  1  0
 91241  1  0
 91242  1  0
 92243  1  0
 92244  1  0
 93245  1  0
 95246  1  0
 95247  1  0
 96248  1  0
 96249  1  0
 99250  1  0
100251  1  1
101252  1  0
101253  1  0
102254  1  0
102255  1  0
103256  1  0
103257  1  0
104258  1  0
106259  1  0
106260  1  0
107261  1  0
107262  1  0
110263  1  0
112264  1  0
112265  1  0
113266  1  0
113267  1  0
114268  1  0
114269  1  0
115270  1  0
116271  1  0
116272  1  0
116273  1  0
119274  1  0
120275  1  1
121276  1  0
121277  1  0
122278  1  0
122279  1  0
123280  1  0
123281  1  0
124282  1  0
126283  1  0
126284  1  0
127285  1  0
127286  1  0
130287  1  0
131288  1  1
132289  1  0
132290  1  0
133291  1  0
133292  1  0
134293  1  0
134294  1  0
135295  1  0
137296  1  0
137297  1  0
138298  1  0
138299  1  0
M  CHG  8  20   1  45   1  56   1  84   1  95   1 106   1 126   1 137   1
M  CHG  1 141  -1
M  END
