
     RDKit          2D

340346  0  0  0  0  0  0  0  0999 V2000
   28.4808   -3.5016    0.0000 C   0  0  0  0  0  0  0  0  0  0  0  0
   29.9471   -3.1855    0.0000 N   0  0  0  0  0  0  0  0  0  0  0  0
   30.9541   -4.2973    0.0000 C   0  0  0  0  0  0  0  0  0  0  0  0
   30.4947   -5.7252    0.0000 C   0  0  0  0  0  0  0  0  0  0  0  0
   31.5016   -6.8370    0.0000 C   0  0  0  0  0  0  0  0  0  0  0  0
   32.9679   -6.5209    0.0000 C   0  0  0  0  0  0  0  0  0  0  0  0
   33.4273   -5.0929    0.0000 C   0  0  0  0  0  0  0  0  0  0  0  0
   32.4204   -3.9811    0.0000 C   0  0  0  0  0  0  0  0  0  0  0  0
   34.9273   -5.0886    0.0000 C   0  0  0  0  0  0  0  0  0  0  0  0
   35.3950   -6.5138    0.0000 O   0  0  0  0  0  0  0  0  0  0  0  0
   34.1840   -7.3990    0.0000 C   0  0  0  0  0  0  0  0  0  0  0  0
   34.1884   -8.8990    0.0000 O   0  0  0  0  0  0  0  0  0  0  0  0
   36.4195   -5.2410    0.0000 C   0  0  0  0  0  0  0  0  0  0  0  0
   37.2977   -4.0249    0.0000 C   0  0  0  0  0  0  0  0  0  0  0  0
   38.7899   -4.1774    0.0000 C   0  0  0  0  0  0  0  0  0  0  0  0
   39.4040   -5.5459    0.0000 C   0  0  0  0  0  0  0  0  0  0  0  0
   38.5259   -6.7620    0.0000 C   0  0  0  0  0  0  0  0  0  0  0  0
   37.0336   -6.6095    0.0000 C   0  0  0  0  0  0  0  0  0  0  0  0
   40.8962   -5.6983    0.0000 O   0  0  0  0  0  0  0  0  0  0  0  0
   36.6836   -2.6564    0.0000 O   0  0  0  0  0  0  0  0  0  0  0  0
   35.1913   -2.5039    0.0000 C   0  0  0  0  0  0  0  0  0  0  0  0
   34.3132   -3.7200    0.0000 C   0  0  0  0  0  0  0  0  0  0  0  0
   33.2308   -3.0001    0.0000 C   0  0  0  0  0  0  0  0  0  0  0  0
   32.9033   -2.2702    0.0000 C   0  0  0  0  0  0  0  0  0  0  0  0
   33.3716   -1.6216    0.0000 C   0  0  0  0  0  0  0  0  0  0  0  0
   34.1674   -1.7029    0.0000 C   0  0  0  0  0  0  0  0  0  0  0  0
   32.4709    0.3856    0.0000 O   0  0  0  0  0  0  0  0  0  0  0  0
   28.0215   -4.9296    0.0000 S   0  0  0  0  0  0  0  0  0  0  0  0
   27.4739   -2.3899    0.0000 N   0  0  0  0  0  0  0  0  0  0  0  0
   26.0076   -2.7060    0.0000 C   0  0  0  0  0  0  0  0  0  0  0  0
   25.0006   -1.5942    0.0000 C   0  0  0  0  0  0  0  0  0  0  0  0
   23.5343   -1.9104    0.0000 C   0  0  0  0  0  0  0  0  0  0  0  0
   23.0750   -3.3383    0.0000 O   0  0  0  0  0  0  0  0  0  0  0  0
   22.5274   -0.7986    0.0000 N   0  0  0  0  0  0  0  0  0  0  0  0
   21.0611   -1.1147    0.0000 C   0  0  0  0  0  0  0  0  0  0  0  0
   19.7913   -1.9133    0.0000 C   0  0  0  0  0  0  0  0  0  0  0  0
   18.3894   -1.3799    0.0000 C   0  0  0  0  0  0  0  0  0  0  0  0
   18.8713   -3.0980    0.0000 C   0  0  0  0  0  0  0  0  0  0  0  0
   19.4372   -4.4871    0.0000 C   0  0  0  0  0  0  0  0  0  0  0  0
   20.0541   -0.0029    0.0000 C   0  0  0  0  0  0  0  0  0  0  0  0
   20.5135    1.4250    0.0000 O   0  0  0  0  0  0  0  0  0  0  0  0
   18.5878   -0.3191    0.0000 N   0  0  0  0  0  0  0  0  0  0  0  0
   17.5809    0.7927    0.0000 C   0  0  0  0  0  0  0  0  0  0  0  0
   17.0149    2.1818    0.0000 C   0  0  0  0  0  0  0  0  0  0  0  0
   17.9350    3.3665    0.0000 C   0  0  0  0  0  0  0  0  0  0  0  0
   17.3690    4.7557    0.0000 C   0  0  0  0  0  0  0  0  0  0  0  0
   19.2047    4.1651    0.0000 C   0  0  0  0  0  0  0  0  0  0  0  0
   16.1146    0.4766    0.0000 C   0  0  0  0  0  0  0  0  0  0  0  0
   15.8327   -0.9967    0.0000 O   0  0  0  0  0  0  0  0  0  0  0  0
   15.1076    1.5884    0.0000 N   0  0  0  0  0  0  0  0  0  0  0  0
   13.6413    1.2722    0.0000 C   0  0  0  0  0  0  0  0  0  0  0  0
   12.9081   -0.0364    0.0000 C   0  0  0  0  0  0  0  0  0  0  0  0
   11.8218   -1.0707    0.0000 C   0  0  0  0  0  0  0  0  0  0  0  0
   10.4788   -1.7389    0.0000 C   0  0  0  0  0  0  0  0  0  0  0  0
    8.9986   -1.9816    0.0000 C   0  0  0  0  0  0  0  0  0  0  0  0
   14.6730    0.1833    0.0000 C   0  0  0  0  0  0  0  0  0  0  0  0
   13.9562    2.7388    0.0000 C   0  0  0  0  0  0  0  0  0  0  0  0
   15.4313    3.0110    0.0000 O   0  0  0  0  0  0  0  0  0  0  0  0
   13.8249    4.2330    0.0000 N   0  0  0  0  0  0  0  0  0  0  0  0
   13.2589    5.6222    0.0000 C   0  0  0  0  0  0  0  0  0  0  0  0
   13.9260    6.9657    0.0000 C   0  0  0  0  0  0  0  0  0  0  0  0
   12.3086    6.7827    0.0000 C   0  0  0  0  0  0  0  0  0  0  0  0
   13.3146    7.8954    0.0000 O   0  0  0  0  0  0  0  0  0  0  0  0
   11.0585    7.6117    0.0000 N   0  0  0  0  0  0  0  0  0  0  0  0
    9.6196    8.0353    0.0000 C   0  0  0  0  0  0  0  0  0  0  0  0
    8.9851    9.3945    0.0000 C   0  0  0  0  0  0  0  0  0  0  0  0
    9.8449   10.6236    0.0000 O   0  0  0  0  0  0  0  0  0  0  0  0
    8.1197    8.0160    0.0000 C   0  0  0  0  0  0  0  0  0  0  0  0
    7.8770    9.4962    0.0000 O   0  0  0  0  0  0  0  0  0  0  0  0
    6.6921    7.5554    0.0000 N   0  0  0  0  0  0  0  0  0  0  0  0
    5.4638    6.6945    0.0000 C   0  0  0  0  0  0  0  0  0  0  0  0
    4.0055    7.0459    0.0000 C   0  0  0  0  0  0  0  0  0  0  0  0
    3.5807    8.4845    0.0000 C   0  0  0  0  0  0  0  0  0  0  0  0
    4.5437    5.5098    0.0000 C   0  0  0  0  0  0  0  0  0  0  0  0
    3.2351    6.2430    0.0000 O   0  0  0  0  0  0  0  0  0  0  0  0
    4.0138    4.1066    0.0000 N   0  0  0  0  0  0  0  0  0  0  0  0
    3.9210    2.6094    0.0000 C   0  0  0  0  0  0  0  0  0  0  0  0
    4.2736    1.1515    0.0000 C   0  0  0  0  0  0  0  0  0  0  0  0
    5.0402   -0.1378    0.0000 C   0  0  0  0  0  0  0  0  0  0  0  0
    6.1529   -1.1438    0.0000 C   0  0  0  0  0  0  0  0  0  0  0  0
    7.5126   -1.7772    0.0000 C   0  0  0  0  0  0  0  0  0  0  0  0
    2.5945    3.3098    0.0000 C   0  0  0  0  0  0  0  0  0  0  0  0
    2.7370    1.6884    0.0000 C   0  0  0  0  0  0  0  0  0  0  0  0
    2.5771    0.1969    0.0000 O   0  0  0  0  0  0  0  0  0  0  0  0
    1.3474    2.2532    0.0000 N   0  0  0  0  0  0  0  0  0  0  0  0
    0.1635    1.3321    0.0000 C   0  0  0  0  0  0  0  0  0  0  0  0
   -0.6340    0.0617    0.0000 C   0  0  0  0  0  0  0  0  0  0  0  0
   -2.1330    0.1172    0.0000 C   0  0  0  0  0  0  0  0  0  0  0  0
   -2.8345    1.4431    0.0000 C   0  0  0  0  0  0  0  0  0  0  0  0
   -4.3334    1.4985    0.0000 C   0  0  0  0  0  0  0  0  0  0  0  0
   -5.1309    0.2281    0.0000 C   0  0  0  0  0  0  0  0  0  0  0  0
   -6.6299    0.2835    0.0000 O   0  0  0  0  0  0  0  0  0  0  0  0
   -4.4295   -1.0978    0.0000 C   0  0  0  0  0  0  0  0  0  0  0  0
   -2.9305   -1.1533    0.0000 C   0  0  0  0  0  0  0  0  0  0  0  0
   -1.2261    1.8969    0.0000 C   0  0  0  0  0  0  0  0  0  0  0  0
   -1.2491    3.3968    0.0000 O   0  0  0  0  0  0  0  0  0  0  0  0
   -2.4100    0.9759    0.0000 N   0  0  0  0  0  0  0  0  0  0  0  0
   -3.7997    1.5407    0.0000 C   0  0  0  0  0  0  0  0  0  0  0  0
   -4.9123    2.5467    0.0000 C   0  0  0  0  0  0  0  0  0  0  0  0
   -4.4210    3.9639    0.0000 C   0  0  0  0  0  0  0  0  0  0  0  0
   -6.3019    3.1115    0.0000 C   0  0  0  0  0  0  0  0  0  0  0  0
   -6.5076    4.5973    0.0000 C   0  0  0  0  0  0  0  0  0  0  0  0
   -4.9836    0.6196    0.0000 C   0  0  0  0  0  0  0  0  0  0  0  0
   -5.1435   -0.8718    0.0000 O   0  0  0  0  0  0  0  0  0  0  0  0
   -6.3732    1.1844    0.0000 N   0  0  0  0  0  0  0  0  0  0  0  0
   -7.5571    0.2634    0.0000 C   0  0  0  0  0  0  0  0  0  0  0  0
   -8.3546   -1.0070    0.0000 C   0  0  0  0  0  0  0  0  0  0  0  0
   -9.8536   -0.9516    0.0000 C   0  0  0  0  0  0  0  0  0  0  0  0
  -10.6511   -2.2220    0.0000 C   0  0  0  0  0  0  0  0  0  0  0  0
  -12.1501   -2.1666    0.0000 N   0  0  0  0  0  0  0  0  0  0  0  0
  -12.9476   -3.4370    0.0000 C   0  0  0  0  0  0  0  0  0  0  0  0
  -14.4286   -3.1992    0.0000 N   0  0  0  0  0  0  0  0  0  0  0  0
  -12.2461   -4.7629    0.0000 N   0  0  0  0  0  0  0  0  0  0  0  0
   -8.9467    0.8282    0.0000 C   0  0  0  0  0  0  0  0  0  0  0  0
   -9.1524    2.3140    0.0000 O   0  0  0  0  0  0  0  0  0  0  0  0
  -10.1306   -0.0929    0.0000 N   0  0  0  0  0  0  0  0  0  0  0  0
  -11.5203    0.4719    0.0000 C   0  0  0  0  0  0  0  0  0  0  0  0
  -12.6329    1.4779    0.0000 C   0  0  0  0  0  0  0  0  0  0  0  0
  -12.3180    2.9445    0.0000 C   0  0  0  0  0  0  0  0  0  0  0  0
  -13.4306    3.9505    0.0000 C   0  0  0  0  0  0  0  0  0  0  0  0
  -13.1157    5.4171    0.0000 C   0  0  0  0  0  0  0  0  0  0  0  0
  -14.2284    6.4231    0.0000 N   0  0  0  0  0  0  0  0  0  0  0  0
  -12.7042   -0.4491    0.0000 C   0  0  0  0  0  0  0  0  0  0  0  0
  -12.8641   -1.9406    0.0000 O   0  0  0  0  0  0  0  0  0  0  0  0
  -14.0938    0.1157    0.0000 N   0  0  0  0  0  0  0  0  0  0  0  0
  -15.2777   -0.8054    0.0000 C   0  0  0  0  0  0  0  0  0  0  0  0
  -16.0752   -2.0758    0.0000 C   0  0  0  0  0  0  0  0  0  0  0  0
  -17.5742   -2.0203    0.0000 C   0  0  0  0  0  0  0  0  0  0  0  0
  -18.3717   -3.2908    0.0000 C   0  0  0  0  0  0  0  0  0  0  0  0
  -18.9638   -1.4556    0.0000 C   0  0  0  0  0  0  0  0  0  0  0  0
  -16.6673   -0.2406    0.0000 C   0  0  0  0  0  0  0  0  0  0  0  0
  -16.8730    1.2452    0.0000 O   0  0  0  0  0  0  0  0  0  0  0  0
  -17.8513   -1.1616    0.0000 N   0  0  0  0  0  0  0  0  0  0  0  0
  -19.2409   -0.5968    0.0000 C   0  0  0  0  0  0  0  0  0  0  0  0
  -20.3535    0.4092    0.0000 C   0  0  0  0  0  0  0  0  0  0  0  0
  -20.0386    1.8757    0.0000 C   0  0  0  0  0  0  0  0  0  0  0  0
  -21.1512    2.8817    0.0000 C   0  0  0  0  0  0  0  0  0  0  0  0
  -20.8363    4.3483    0.0000 N   0  0  0  0  0  0  0  0  0  0  0  0
  -22.5788    2.4212    0.0000 O   0  0  0  0  0  0  0  0  0  0  0  0
  -20.4248   -1.5179    0.0000 C   0  0  0  0  0  0  0  0  0  0  0  0
  -20.4018   -3.0177    0.0000 O   0  0  0  0  0  0  0  0  0  0  0  0
  -21.8144   -0.9531    0.0000 N   0  0  0  0  0  0  0  0  0  0  0  0
  -22.9983   -1.8741    0.0000 C   0  0  0  0  0  0  0  0  0  0  0  0
  -23.7958   -3.1446    0.0000 C   0  0  0  0  0  0  0  0  0  0  0  0
  -25.2948   -3.0891    0.0000 C   0  0  0  0  0  0  0  0  0  0  0  0
  -26.0923   -4.3595    0.0000 C   0  0  0  0  0  0  0  0  0  0  0  0
  -27.5913   -4.3041    0.0000 N   0  0  0  0  0  0  0  0  0  0  0  0
  -28.3888   -5.5745    0.0000 C   0  0  0  0  0  0  0  0  0  0  0  0
  -29.8698   -5.3367    0.0000 N   0  0  0  0  0  0  0  0  0  0  0  0
  -27.6873   -6.9004    0.0000 N   0  0  0  0  0  0  0  0  0  0  0  0
  -24.3879   -1.3093    0.0000 C   0  0  0  0  0  0  0  0  0  0  0  0
  -24.5936    0.1765    0.0000 O   0  0  0  0  0  0  0  0  0  0  0  0
  -25.5719   -2.2304    0.0000 N   0  0  0  0  0  0  0  0  0  0  0  0
  -26.9615   -1.6656    0.0000 C   0  0  0  0  0  0  0  0  0  0  0  0
  -28.0741   -0.6596    0.0000 C   0  0  0  0  0  0  0  0  0  0  0  0
  -27.7592    0.8070    0.0000 C   0  0  0  0  0  0  0  0  0  0  0  0
  -28.8718    1.8130    0.0000 C   0  0  0  0  0  0  0  0  0  0  0  0
  -28.5569    3.2796    0.0000 O   0  0  0  0  0  0  0  0  0  0  0  0
  -30.2994    1.3524    0.0000 O   0  0  0  0  0  0  0  0  0  0  0  0
  -28.1454   -2.5866    0.0000 C   0  0  0  0  0  0  0  0  0  0  0  0
  -28.3054   -4.0781    0.0000 O   0  0  0  0  0  0  0  0  0  0  0  0
  -29.5350   -2.0218    0.0000 N   0  0  0  0  0  0  0  0  0  0  0  0
  -30.7189   -2.9429    0.0000 C   0  0  0  0  0  0  0  0  0  0  0  0
  -31.5164   -4.2133    0.0000 C   0  0  0  0  0  0  0  0  0  0  0  0
  -33.0154   -4.1579    0.0000 C   0  0  0  0  0  0  0  0  0  0  0  0
  -33.8129   -5.4283    0.0000 C   0  0  0  0  0  0  0  0  0  0  0  0
  -35.3119   -5.3728    0.0000 N   0  0  0  0  0  0  0  0  0  0  0  0
  -33.1115   -6.7542    0.0000 O   0  0  0  0  0  0  0  0  0  0  0  0
  -32.1085   -2.3781    0.0000 C   0  0  0  0  0  0  0  0  0  0  0  0
  -33.3959   -3.1480    0.0000 O   0  0  0  0  0  0  0  0  0  0  0  0
  -32.3142   -0.8923    0.0000 O   0  0  0  0  0  0  0  0  0  0  0  0
   30.2290   -1.7122    0.0000 H   0  0  0  0  0  0  0  0  0  0  0  0
   29.0284   -6.0414    0.0000 H   0  0  0  0  0  0  0  0  0  0  0  0
   31.0423   -8.2649    0.0000 H   0  0  0  0  0  0  0  0  0  0  0  0
   32.5206   -2.4845    0.0000 H   0  0  0  0  0  0  0  0  0  0  0  0
   39.6680   -2.9613    0.0000 H   0  0  0  0  0  0  0  0  0  0  0  0
   39.1400   -8.1305    0.0000 H   0  0  0  0  0  0  0  0  0  0  0  0
   36.1555   -7.8256    0.0000 H   0  0  0  0  0  0  0  0  0  0  0  0
   41.5103   -7.0669    0.0000 H   0  0  0  0  0  0  0  0  0  0  0  0
   31.9428   -4.7837    0.0000 H   0  0  0  0  0  0  0  0  0  0  0  0
   30.7444   -1.8658    0.0000 H   0  0  0  0  0  0  0  0  0  0  0  0
   35.4554    0.0807    0.0000 H   0  0  0  0  0  0  0  0  0  0  0  0
   33.3491    1.6017    0.0000 H   0  0  0  0  0  0  0  0  0  0  0  0
   27.9332   -0.9619    0.0000 H   0  0  0  0  0  0  0  0  0  0  0  0
   24.7378   -3.5046    0.0000 H   0  0  0  0  0  0  0  0  0  0  0  0
   26.5735   -4.0951    0.0000 H   0  0  0  0  0  0  0  0  0  0  0  0
   24.4347   -0.2051    0.0000 H   0  0  0  0  0  0  0  0  0  0  0  0
   26.2704   -0.7956    0.0000 H   0  0  0  0  0  0  0  0  0  0  0  0
   22.9867    0.6294    0.0000 H   0  0  0  0  0  0  0  0  0  0  0  0
   21.6270   -2.5038    0.0000 H   0  0  0  0  0  0  0  0  0  0  0  0
   20.9263   -2.8941    0.0000 H   0  0  0  0  0  0  0  0  0  0  0  0
   17.1072   -1.8508    0.0000 H   0  0  0  0  0  0  0  0  0  0  0  0
   17.4579   -0.1012    0.0000 H   0  0  0  0  0  0  0  0  0  0  0  0
   18.7209    0.2650    0.0000 H   0  0  0  0  0  0  0  0  0  0  0  0
   17.6015   -3.8966    0.0000 H   0  0  0  0  0  0  0  0  0  0  0  0
   17.6252   -2.2629    0.0000 H   0  0  0  0  0  0  0  0  0  0  0  0
   18.5172   -5.6718    0.0000 H   0  0  0  0  0  0  0  0  0  0  0  0
   20.4442   -5.5989    0.0000 H   0  0  0  0  0  0  0  0  0  0  0  0
   20.7949   -3.8493    0.0000 H   0  0  0  0  0  0  0  0  0  0  0  0
   17.7966   -1.5934    0.0000 H   0  0  0  0  0  0  0  0  0  0  0  0
   18.9385    1.4306    0.0000 H   0  0  0  0  0  0  0  0  0  0  0  0
   16.1510    3.4081    0.0000 H   0  0  0  0  0  0  0  0  0  0  0  0
   15.6573    1.5440    0.0000 H   0  0  0  0  0  0  0  0  0  0  0  0
   19.0699    2.3858    0.0000 H   0  0  0  0  0  0  0  0  0  0  0  0
   18.1378    6.0437    0.0000 H   0  0  0  0  0  0  0  0  0  0  0  0
   16.3621    5.8675    0.0000 H   0  0  0  0  0  0  0  0  0  0  0  0
   16.0114    4.1178    0.0000 H   0  0  0  0  0  0  0  0  0  0  0  0
   19.3311    5.6598    0.0000 H   0  0  0  0  0  0  0  0  0  0  0  0
   20.6710    4.4813    0.0000 H   0  0  0  0  0  0  0  0  0  0  0  0
   19.7707    2.7760    0.0000 H   0  0  0  0  0  0  0  0  0  0  0  0
   15.5670    3.0163    0.0000 H   0  0  0  0  0  0  0  0  0  0  0  0
   14.3755   -0.3477    0.0000 H   0  0  0  0  0  0  0  0  0  0  0  0
   13.4042   -1.4520    0.0000 H   0  0  0  0  0  0  0  0  0  0  0  0
   13.0334   -1.9550    0.0000 H   0  0  0  0  0  0  0  0  0  0  0  0
   12.0608   -2.5516    0.0000 H   0  0  0  0  0  0  0  0  0  0  0  0
   11.5159   -2.8227    0.0000 H   0  0  0  0  0  0  0  0  0  0  0  0
   10.0912   -3.1880    0.0000 H   0  0  0  0  0  0  0  0  0  0  0  0
    9.0179   -3.4815    0.0000 H   0  0  0  0  0  0  0  0  0  0  0  0
   14.3165   -1.4440    0.0000 H   0  0  0  0  0  0  0  0  0  0  0  0
   15.6591   -0.8915    0.0000 H   0  0  0  0  0  0  0  0  0  0  0  0
   15.8542    0.7684    0.0000 H   0  0  0  0  0  0  0  0  0  0  0  0
   15.2828    4.5856    0.0000 H   0  0  0  0  0  0  0  0  0  0  0  0
   14.7579    5.5667    0.0000 H   0  0  0  0  0  0  0  0  0  0  0  0
   15.4230    7.0597    0.0000 H   0  0  0  0  0  0  0  0  0  0  0  0
   14.0933    8.4563    0.0000 H   0  0  0  0  0  0  0  0  0  0  0  0
   12.6323    7.7249    0.0000 H   0  0  0  0  0  0  0  0  0  0  0  0
   11.6918    8.9714    0.0000 H   0  0  0  0  0  0  0  0  0  0  0  0
   10.5975    9.1727    0.0000 H   0  0  0  0  0  0  0  0  0  0  0  0
    7.9239   10.4547    0.0000 H   0  0  0  0  0  0  0  0  0  0  0  0
    7.5849    8.8564    0.0000 H   0  0  0  0  0  0  0  0  0  0  0  0
    9.2104   11.9828    0.0000 H   0  0  0  0  0  0  0  0  0  0  0  0
    6.0239    8.8984    0.0000 H   0  0  0  0  0  0  0  0  0  0  0  0
    5.3660    8.1913    0.0000 H   0  0  0  0  0  0  0  0  0  0  0  0
    2.5150    6.8773    0.0000 H   0  0  0  0  0  0  0  0  0  0  0  0
    3.5532    5.6157    0.0000 H   0  0  0  0  0  0  0  0  0  0  0  0
    2.1224    8.8358    0.0000 H   0  0  0  0  0  0  0  0  0  0  0  0
    3.6735    9.9816    0.0000 H   0  0  0  0  0  0  0  0  0  0  0  0
    5.0395    8.8335    0.0000 H   0  0  0  0  0  0  0  0  0  0  0  0
    2.5472    4.4215    0.0000 H   0  0  0  0  0  0  0  0  0  0  0  0
    3.4137   -0.0776    0.0000 H   0  0  0  0  0  0  0  0  0  0  0  0
    2.7761    1.0648    0.0000 H   0  0  0  0  0  0  0  0  0  0  0  0
    4.4102   -1.4991    0.0000 H   0  0  0  0  0  0  0  0  0  0  0  0
    3.6348   -0.6620    0.0000 H   0  0  0  0  0  0  0  0  0  0  0  0
    6.1348   -2.6437    0.0000 H   0  0  0  0  0  0  0  0  0  0  0  0
    4.8617   -1.9073    0.0000 H   0  0  0  0  0  0  0  0  0  0  0  0
    7.0890   -3.2161    0.0000 H   0  0  0  0  0  0  0  0  0  0  0  0
    1.1692    2.8422    0.0000 H   0  0  0  0  0  0  0  0  0  0  0  0
    1.7306    4.5360    0.0000 H   0  0  0  0  0  0  0  0  0  0  0  0
    3.2005    4.6819    0.0000 H   0  0  0  0  0  0  0  0  0  0  0  0
    0.9622    3.7029    0.0000 H   0  0  0  0  0  0  0  0  0  0  0  0
    1.2761    0.3261    0.0000 H   0  0  0  0  0  0  0  0  0  0  0  0
   -0.9489   -1.4049    0.0000 H   0  0  0  0  0  0  0  0  0  0  0  0
    0.7556   -0.5031    0.0000 H   0  0  0  0  0  0  0  0  0  0  0  0
   -2.1978    2.8012    0.0000 H   0  0  0  0  0  0  0  0  0  0  0  0
   -5.3349    2.6152    0.0000 H   0  0  0  0  0  0  0  0  0  0  0  0
   -7.2666   -1.0746    0.0000 H   0  0  0  0  0  0  0  0  0  0  0  0
   -5.2270   -2.3682    0.0000 H   0  0  0  0  0  0  0  0  0  0  0  0
   -2.2290   -2.4791    0.0000 H   0  0  0  0  0  0  0  0  0  0  0  0
   -2.5700   -0.5156    0.0000 H   0  0  0  0  0  0  0  0  0  0  0  0
   -2.8532    2.7044    0.0000 H   0  0  0  0  0  0  0  0  0  0  0  0
   -5.9935    1.5070    0.0000 H   0  0  0  0  0  0  0  0  0  0  0  0
   -5.5718    5.1685    0.0000 H   0  0  0  0  0  0  0  0  0  0  0  0
   -3.7999    5.2837    0.0000 H   0  0  0  0  0  0  0  0  0  0  0  0
   -3.1493    3.6221    0.0000 H   0  0  0  0  0  0  0  0  0  0  0  0
   -7.8009    3.1669    0.0000 H   0  0  0  0  0  0  0  0  0  0  0  0
   -6.9623    1.7647    0.0000 H   0  0  0  0  0  0  0  0  0  0  0  0
   -7.8972    5.1621    0.0000 H   0  0  0  0  0  0  0  0  0  0  0  0
   -6.1927    6.0639    0.0000 H   0  0  0  0  0  0  0  0  0  0  0  0
   -5.0397    4.9062    0.0000 H   0  0  0  0  0  0  0  0  0  0  0  0
   -6.9323    2.5763    0.0000 H   0  0  0  0  0  0  0  0  0  0  0  0
   -6.4445   -0.7426    0.0000 H   0  0  0  0  0  0  0  0  0  0  0  0
   -8.4884   -2.5011    0.0000 H   0  0  0  0  0  0  0  0  0  0  0  0
   -7.0442   -1.7370    0.0000 H   0  0  0  0  0  0  0  0  0  0  0  0
  -11.2432   -0.3868    0.0000 H   0  0  0  0  0  0  0  0  0  0  0  0
  -10.2642    0.4911    0.0000 H   0  0  0  0  0  0  0  0  0  0  0  0
  -10.9660   -3.6886    0.0000 H   0  0  0  0  0  0  0  0  0  0  0  0
   -9.3407   -2.9520    0.0000 H   0  0  0  0  0  0  0  0  0  0  0  0
  -13.1515   -1.0498    0.0000 H   0  0  0  0  0  0  0  0  0  0  0  0
  -15.2441   -4.6519    0.0000 H   0  0  0  0  0  0  0  0  0  0  0  0
  -13.0436   -6.0333    0.0000 H   0  0  0  0  0  0  0  0  0  0  0  0
  -10.7472   -4.8183    0.0000 H   0  0  0  0  0  0  0  0  0  0  0  0
  -10.2906   -1.5843    0.0000 H   0  0  0  0  0  0  0  0  0  0  0  0
  -10.5738    1.6357    0.0000 H   0  0  0  0  0  0  0  0  0  0  0  0
  -14.0225    2.0427    0.0000 H   0  0  0  0  0  0  0  0  0  0  0  0
  -13.7141    0.4382    0.0000 H   0  0  0  0  0  0  0  0  0  0  0  0
  -11.3716    4.1082    0.0000 H   0  0  0  0  0  0  0  0  0  0  0  0
  -10.8699    2.5533    0.0000 H   0  0  0  0  0  0  0  0  0  0  0  0
  -14.8202    4.5153    0.0000 H   0  0  0  0  0  0  0  0  0  0  0  0
  -14.3770    2.7868    0.0000 H   0  0  0  0  0  0  0  0  0  0  0  0
  -12.3182    6.6875    0.0000 H   0  0  0  0  0  0  0  0  0  0  0  0
  -11.6676    5.0259    0.0000 H   0  0  0  0  0  0  0  0  0  0  0  0
  -13.9134    7.8896    0.0000 H   0  0  0  0  0  0  0  0  0  0  0  0
  -15.6559    5.9625    0.0000 H   0  0  0  0  0  0  0  0  0  0  0  0
  -14.4791    1.5653    0.0000 H   0  0  0  0  0  0  0  0  0  0  0  0
  -14.1651   -1.8114    0.0000 H   0  0  0  0  0  0  0  0  0  0  0  0
  -16.2090   -3.5698    0.0000 H   0  0  0  0  0  0  0  0  0  0  0  0
  -14.6271   -2.4670    0.0000 H   0  0  0  0  0  0  0  0  0  0  0  0
  -17.9848   -0.5776    0.0000 H   0  0  0  0  0  0  0  0  0  0  0  0
  -19.8396   -3.5997    0.0000 H   0  0  0  0  0  0  0  0  0  0  0  0
  -18.6866   -4.7573    0.0000 H   0  0  0  0  0  0  0  0  0  0  0  0
  -17.0613   -4.0207    0.0000 H   0  0  0  0  0  0  0  0  0  0  0  0
  -19.5229   -0.0636    0.0000 H   0  0  0  0  0  0  0  0  0  0  0  0
  -20.3831   -1.9411    0.0000 H   0  0  0  0  0  0  0  0  0  0  0  0
  -19.4551   -2.8728    0.0000 H   0  0  0  0  0  0  0  0  0  0  0  0
  -18.0112   -2.6531    0.0000 H   0  0  0  0  0  0  0  0  0  0  0  0
  -18.2944    0.5669    0.0000 H   0  0  0  0  0  0  0  0  0  0  0  0
  -21.6639    1.1391    0.0000 H   0  0  0  0  0  0  0  0  0  0  0  0
  -21.5534   -0.4910    0.0000 H   0  0  0  0  0  0  0  0  0  0  0  0
  -19.2411    3.1462    0.0000 H   0  0  0  0  0  0  0  0  0  0  0  0
  -18.5905    1.4845    0.0000 H   0  0  0  0  0  0  0  0  0  0  0  0
  -21.9490    5.3543    0.0000 H   0  0  0  0  0  0  0  0  0  0  0  0
  -19.4088    4.8089    0.0000 H   0  0  0  0  0  0  0  0  0  0  0  0
  -22.1997    0.4966    0.0000 H   0  0  0  0  0  0  0  0  0  0  0  0
  -21.8857   -2.8801    0.0000 H   0  0  0  0  0  0  0  0  0  0  0  0
  -23.9296   -4.6386    0.0000 H   0  0  0  0  0  0  0  0  0  0  0  0
  -22.4062   -3.7093    0.0000 H   0  0  0  0  0  0  0  0  0  0  0  0
  -26.6844   -2.5243    0.0000 H   0  0  0  0  0  0  0  0  0  0  0  0
  -25.7054   -1.6464    0.0000 H   0  0  0  0  0  0  0  0  0  0  0  0
  -26.4072   -5.8261    0.0000 H   0  0  0  0  0  0  0  0  0  0  0  0
  -24.7819   -5.0895    0.0000 H   0  0  0  0  0  0  0  0  0  0  0  0
  -28.5927   -3.1873    0.0000 H   0  0  0  0  0  0  0  0  0  0  0  0
  -30.6853   -6.7895    0.0000 H   0  0  0  0  0  0  0  0  0  0  0  0
  -28.4849   -8.1708    0.0000 H   0  0  0  0  0  0  0  0  0  0  0  0
  -26.1884   -6.9558    0.0000 H   0  0  0  0  0  0  0  0  0  0  0  0
  -25.7318   -3.7218    0.0000 H   0  0  0  0  0  0  0  0  0  0  0  0
  -26.0150   -0.5019    0.0000 H   0  0  0  0  0  0  0  0  0  0  0  0
  -29.3845    0.0704    0.0000 H   0  0  0  0  0  0  0  0  0  0  0  0
  -29.1553   -1.6993    0.0000 H   0  0  0  0  0  0  0  0  0  0  0  0
  -26.9617    2.0774    0.0000 H   0  0  0  0  0  0  0  0  0  0  0  0
  -26.3111    0.4158    0.0000 H   0  0  0  0  0  0  0  0  0  0  0  0
  -31.4120    2.3584    0.0000 H   0  0  0  0  0  0  0  0  0  0  0  0
  -29.9203   -0.5722    0.0000 H   0  0  0  0  0  0  0  0  0  0  0  0
  -29.6063   -3.9489    0.0000 H   0  0  0  0  0  0  0  0  0  0  0  0
  -31.8314   -5.6799    0.0000 H   0  0  0  0  0  0  0  0  0  0  0  0
  -30.0684   -4.6045    0.0000 H   0  0  0  0  0  0  0  0  0  0  0  0
  -34.4050   -3.5931    0.0000 H   0  0  0  0  0  0  0  0  0  0  0  0
  -33.2471   -2.6759    0.0000 H   0  0  0  0  0  0  0  0  0  0  0  0
  -36.1094   -6.6432    0.0000 H   0  0  0  0  0  0  0  0  0  0  0  0
  -36.0134   -4.0469    0.0000 H   0  0  0  0  0  0  0  0  0  0  0  0
  -33.7038   -0.3275    0.0000 H   0  0  0  0  0  0  0  0  0  0  0  0
  1  2  1  0
  2  3  1  0
  3  4  2  0
  4  5  1  0
  5  6  2  0
  6  7  1  0
  7  8  2  0
  7  9  1  0
  9 10  1  0
 10 11  1  0
 11 12  2  0
  9 13  1  0
 13 14  1  0
 14 15  2  0
 15 16  1  0
 16 17  2  0
 17 18  1  0
 16 19  1  0
 14 20  1  0
 20 21  1  0
 21 22  2  0
 22 23  1  0
 23 24  2  0
 24 25  1  0
 25 26  2  0
 25 27  1  0
  1 28  2  0
  1 29  1  0
 29 30  1  0
 30 31  1  0
 31 32  1  0
 32 33  2  0
 32 34  1  0
 34 35  1  0
 35 36  1  0
 36 37  1  0
 36 38  1  0
 38 39  1  0
 35 40  1  0
 40 41  2  0
 40 42  1  0
 42 43  1  0
 43 44  1  0
 44 45  1  0
 45 46  1  0
 45 47  1  0
 43 48  1  0
 48 49  2  0
 48 50  1  0
 51 50  1  1
 51 52  1  0
 52 53  1  0
 53 54  1  0
 54 55  1  0
 51 56  1  0
 51 57  1  0
 57 58  2  0
 57 59  1  0
 59 60  1  0
 60 61  1  0
 60 62  1  0
 62 63  2  0
 62 64  1  0
 64 65  1  0
 65 66  1  0
 66 67  1  0
 65 68  1  0
 68 69  2  0
 68 70  1  0
 70 71  1  0
 71 72  1  0
 72 73  1  0
 71 74  1  0
 74 75  2  0
 74 76  1  0
 76 77  1  0
 77 78  1  0
 78 79  1  0
 79 80  1  0
 80 81  1  0
 77 82  1  0
 77 83  1  1
 83 84  2  0
 83 85  1  0
 85 86  1  0
 86 87  1  0
 87 88  1  0
 88 89  2  0
 89 90  1  0
 90 91  2  0
 91 92  1  0
 91 93  1  0
 93 94  2  0
 86 95  1  0
 95 96  2  0
 95 97  1  0
 97 98  1  0
 98 99  1  0
 99100  1  0
 99101  1  0
101102  1  0
 98103  1  0
103104  2  0
103105  1  0
105106  1  0
106107  1  0
107108  1  0
108109  1  0
109110  1  0
110111  1  0
111112  2  3
111113  1  0
106114  1  0
114115  2  0
114116  1  0
116117  1  0
117118  1  0
118119  1  0
119120  1  0
120121  1  0
121122  1  0
117123  1  0
123124  2  0
123125  1  0
125126  1  0
126127  1  0
127128  1  0
128129  1  0
128130  1  0
126131  1  0
131132  2  0
131133  1  0
133134  1  0
134135  1  0
135136  1  0
136137  1  0
137138  1  0
137139  2  0
134140  1  0
140141  2  0
140142  1  0
142143  1  0
143144  1  0
144145  1  0
145146  1  0
146147  1  0
147148  1  0
148149  2  3
148150  1  0
143151  1  0
151152  2  0
151153  1  0
153154  1  0
154155  1  0
155156  1  0
156157  1  0
157158  2  0
157159  1  0
154160  1  0
160161  2  0
160162  1  0
162163  1  0
163164  1  0
164165  1  0
165166  1  0
166167  1  0
166168  2  0
163169  1  0
169170  2  0
169171  1  0
  8  3  1  0
 94 88  1  0
 11  6  1  0
 55 81  2  0
 18 13  2  0
 22  9  1  0
 26 21  1  0
  2172  1  0
  4173  1  0
  5174  1  0
  8175  1  0
 15176  1  0
 17177  1  0
 18178  1  0
 19179  1  0
 23180  1  0
 24181  1  0
 26182  1  0
 27183  1  0
 29184  1  0
 30185  1  0
 30186  1  0
 31187  1  0
 31188  1  0
 34189  1  0
 35190  1  1
 36191  1  1
 37192  1  0
 37193  1  0
 37194  1  0
 38195  1  0
 38196  1  0
 39197  1  0
 39198  1  0
 39199  1  0
 42200  1  0
 43201  1  6
 44202  1  0
 44203  1  0
 45204  1  0
 46205  1  0
 46206  1  0
 46207  1  0
 47208  1  0
 47209  1  0
 47210  1  0
 50211  1  0
 52212  1  0
 52213  1  0
 53214  1  0
 53215  1  0
 54216  1  0
 54217  1  0
 55218  1  0
 56219  1  0
 56220  1  0
 56221  1  0
 59222  1  0
 60223  1  6
 61224  1  0
 61225  1  0
 61226  1  0
 64227  1  0
 65228  1  6
 66229  1  0
 66230  1  0
 67231  1  0
 70232  1  0
 71233  1  6
 72234  1  0
 72235  1  0
 73236  1  0
 73237  1  0
 73238  1  0
 76239  1  0
 78240  1  0
 78241  1  0
 79242  1  0
 79243  1  0
 80244  1  0
 80245  1  0
 81246  1  0
 82247  1  0
 82248  1  0
 82249  1  0
 85250  1  0
 86251  1  1
 87252  1  0
 87253  1  0
 89254  1  0
 90255  1  0
 92256  1  0
 93257  1  0
 94258  1  0
 97259  1  0
 98260  1  6
 99261  1  1
100262  1  0
100263  1  0
100264  1  0
101265  1  0
101266  1  0
102267  1  0
102268  1  0
102269  1  0
105270  1  0
106271  1  1
107272  1  0
107273  1  0
108274  1  0
108275  1  0
109276  1  0
109277  1  0
110278  1  0
112279  1  0
113280  1  0
113281  1  0
116282  1  0
117283  1  6
118284  1  0
118285  1  0
119286  1  0
119287  1  0
120288  1  0
120289  1  0
121290  1  0
121291  1  0
122292  1  0
122293  1  0
125294  1  0
126295  1  1
127296  1  0
127297  1  0
128298  1  0
129299  1  0
129300  1  0
129301  1  0
130302  1  0
130303  1  0
130304  1  0
133305  1  0
134306  1  6
135307  1  0
135308  1  0
136309  1  0
136310  1  0
138311  1  0
138312  1  0
142313  1  0
143314  1  1
144315  1  0
144316  1  0
145317  1  0
145318  1  0
146319  1  0
146320  1  0
147321  1  0
149322  1  0
150323  1  0
150324  1  0
153325  1  0
154326  1  6
155327  1  0
155328  1  0
156329  1  0
156330  1  0
159331  1  0
162332  1  0
163333  1  1
164334  1  0
164335  1  0
165336  1  0
165337  1  0
167338  1  0
167339  1  0
171340  1  0
M  END
