
     RDKit          2D

307314  0  0  0  0  0  0  0  0999 V2000
   19.9783   -3.3090    0.0000 C   0  0  0  0  0  0  0  0  0  0  0  0
   21.3151   -2.6286    0.0000 N   0  0  0  0  0  0  0  0  0  0  0  0
   22.5727   -3.4461    0.0000 C   0  0  0  0  0  0  0  0  0  0  0  0
   22.4936   -4.9440    0.0000 C   0  0  0  0  0  0  0  0  0  0  0  0
   23.7512   -5.7615    0.0000 C   0  0  0  0  0  0  0  0  0  0  0  0
   25.0880   -5.0811    0.0000 C   0  0  0  0  0  0  0  0  0  0  0  0
   25.1672   -3.5832    0.0000 C   0  0  0  0  0  0  0  0  0  0  0  0
   23.9095   -2.7657    0.0000 C   0  0  0  0  0  0  0  0  0  0  0  0
   26.6162   -3.1956    0.0000 C   0  0  0  0  0  0  0  0  0  0  0  0
   27.4326   -4.4540    0.0000 O   0  0  0  0  0  0  0  0  0  0  0  0
   26.4882   -5.6193    0.0000 C   0  0  0  0  0  0  0  0  0  0  0  0
   26.8758   -7.0683    0.0000 O   0  0  0  0  0  0  0  0  0  0  0  0
   28.0979   -2.9616    0.0000 C   0  0  0  0  0  0  0  0  0  0  0  0
   28.6360   -1.5614    0.0000 C   0  0  0  0  0  0  0  0  0  0  0  0
   30.1176   -1.3274    0.0000 C   0  0  0  0  0  0  0  0  0  0  0  0
   31.0611   -2.4936    0.0000 C   0  0  0  0  0  0  0  0  0  0  0  0
   30.5230   -3.8937    0.0000 C   0  0  0  0  0  0  0  0  0  0  0  0
   29.0413   -4.1277    0.0000 C   0  0  0  0  0  0  0  0  0  0  0  0
   32.5428   -2.2596    0.0000 O   0  0  0  0  0  0  0  0  0  0  0  0
   27.6925   -0.3953    0.0000 O   0  0  0  0  0  0  0  0  0  0  0  0
   26.2109   -0.6293    0.0000 C   0  0  0  0  0  0  0  0  0  0  0  0
   25.6727   -2.0295    0.0000 C   0  0  0  0  0  0  0  0  0  0  0  0
   24.4423   -1.6101    0.0000 C   0  0  0  0  0  0  0  0  0  0  0  0
   23.9391   -0.9881    0.0000 C   0  0  0  0  0  0  0  0  0  0  0  0
   24.2261   -0.2414    0.0000 C   0  0  0  0  0  0  0  0  0  0  0  0
   25.0163   -0.1166    0.0000 C   0  0  0  0  0  0  0  0  0  0  0  0
   22.8423    1.4689    0.0000 O   0  0  0  0  0  0  0  0  0  0  0  0
   19.8991   -4.8069    0.0000 S   0  0  0  0  0  0  0  0  0  0  0  0
   18.7206   -2.4915    0.0000 N   0  0  0  0  0  0  0  0  0  0  0  0
   17.3838   -3.1719    0.0000 C   0  0  0  0  0  0  0  0  0  0  0  0
   16.1261   -2.3544    0.0000 C   0  0  0  0  0  0  0  0  0  0  0  0
   14.7893   -3.0348    0.0000 C   0  0  0  0  0  0  0  0  0  0  0  0
   14.9411   -3.8174    0.0000 O   0  0  0  0  0  0  0  0  0  0  0  0
   13.5317   -2.2173    0.0000 N   0  0  0  0  0  0  0  0  0  0  0  0
   12.1949   -2.8977    0.0000 C   0  0  0  0  0  0  0  0  0  0  0  0
   13.0971   -4.0961    0.0000 C   0  0  0  0  0  0  0  0  0  0  0  0
   14.5860   -3.9139    0.0000 C   0  0  0  0  0  0  0  0  0  0  0  0
   15.4882   -5.1122    0.0000 N   0  0  0  0  0  0  0  0  0  0  0  0
   15.4893   -2.7164    0.0000 O   0  0  0  0  0  0  0  0  0  0  0  0
   10.7060   -3.0799    0.0000 C   0  0  0  0  0  0  0  0  0  0  0  0
   10.4708   -4.5613    0.0000 O   0  0  0  0  0  0  0  0  0  0  0  0
    9.8038   -1.8815    0.0000 N   0  0  0  0  0  0  0  0  0  0  0  0
    8.3149   -2.0637    0.0000 C   0  0  0  0  0  0  0  0  0  0  0  0
    8.7528   -3.4983    0.0000 C   0  0  0  0  0  0  0  0  0  0  0  0
   10.2142   -3.8364    0.0000 C   0  0  0  0  0  0  0  0  0  0  0  0
   10.6522   -5.2710    0.0000 C   0  0  0  0  0  0  0  0  0  0  0  0
   12.1136   -5.6091    0.0000 C   0  0  0  0  0  0  0  0  0  0  0  0
   12.5515   -7.0438    0.0000 N   0  0  0  0  0  0  0  0  0  0  0  0
    6.8535   -1.7256    0.0000 C   0  0  0  0  0  0  0  0  0  0  0  0
    6.1258   -3.0373    0.0000 O   0  0  0  0  0  0  0  0  0  0  0  0
    6.4155   -0.2910    0.0000 N   0  0  0  0  0  0  0  0  0  0  0  0
    4.9541    0.0471    0.0000 C   0  0  0  0  0  0  0  0  0  0  0  0
    4.8750   -1.4508    0.0000 C   0  0  0  0  0  0  0  0  0  0  0  0
    6.1326   -2.2683    0.0000 C   0  0  0  0  0  0  0  0  0  0  0  0
    6.0535   -3.7662    0.0000 C   0  0  0  0  0  0  0  0  0  0  0  0
    7.5940   -2.6064    0.0000 C   0  0  0  0  0  0  0  0  0  0  0  0
    3.6965    0.8646    0.0000 C   0  0  0  0  0  0  0  0  0  0  0  0
    2.5640   -0.1191    0.0000 O   0  0  0  0  0  0  0  0  0  0  0  0
    3.7756    2.3625    0.0000 N   0  0  0  0  0  0  0  0  0  0  0  0
    2.5180    3.1800    0.0000 C   0  0  0  0  0  0  0  0  0  0  0  0
    2.3440    1.6901    0.0000 C   0  0  0  0  0  0  0  0  0  0  0  0
    1.8912    0.2601    0.0000 C   0  0  0  0  0  0  0  0  0  0  0  0
    1.1759   -1.0584    0.0000 C   0  0  0  0  0  0  0  0  0  0  0  0
    0.2240   -2.2177    0.0000 C   0  0  0  0  0  0  0  0  0  0  0  0
   -0.9300   -3.1759    0.0000 C   0  0  0  0  0  0  0  0  0  0  0  0
   -2.2446   -3.8984    0.0000 C   0  0  0  0  0  0  0  0  0  0  0  0
   -3.6721   -4.3590    0.0000 C   0  0  0  0  0  0  0  0  0  0  0  0
    3.8089    3.9438    0.0000 C   0  0  0  0  0  0  0  0  0  0  0  0
    2.4069    4.6759    0.0000 C   0  0  0  0  0  0  0  0  0  0  0  0
    3.8436    5.1070    0.0000 O   0  0  0  0  0  0  0  0  0  0  0  0
    2.0147    6.1237    0.0000 N   0  0  0  0  0  0  0  0  0  0  0  0
    1.3556    7.4711    0.0000 C   0  0  0  0  0  0  0  0  0  0  0  0
    2.0286    8.8116    0.0000 C   0  0  0  0  0  0  0  0  0  0  0  0
    3.5261    8.8990    0.0000 C   0  0  0  0  0  0  0  0  0  0  0  0
    4.1992   10.2395    0.0000 C   0  0  0  0  0  0  0  0  0  0  0  0
    5.6966   10.3269    0.0000 N   0  0  0  0  0  0  0  0  0  0  0  0
    6.3697   11.6674    0.0000 C   0  0  0  0  0  0  0  0  0  0  0  0
    7.8671   11.7547    0.0000 N   0  0  0  0  0  0  0  0  0  0  0  0
    5.5453   12.9205    0.0000 N   0  0  0  0  0  0  0  0  0  0  0  0
    0.4534    8.6695    0.0000 C   0  0  0  0  0  0  0  0  0  0  0  0
    1.4289    9.8089    0.0000 O   0  0  0  0  0  0  0  0  0  0  0  0
   -0.6593    9.6754    0.0000 N   0  0  0  0  0  0  0  0  0  0  0  0
   -1.9423   10.4526    0.0000 C   0  0  0  0  0  0  0  0  0  0  0  0
   -2.1008   11.9442    0.0000 C   0  0  0  0  0  0  0  0  0  0  0  0
   -0.8883   12.8273    0.0000 O   0  0  0  0  0  0  0  0  0  0  0  0
   -3.3491   10.9729    0.0000 C   0  0  0  0  0  0  0  0  0  0  0  0
   -3.1445   12.4589    0.0000 O   0  0  0  0  0  0  0  0  0  0  0  0
   -4.8290   11.2176    0.0000 N   0  0  0  0  0  0  0  0  0  0  0  0
   -6.3285   11.1778    0.0000 C   0  0  0  0  0  0  0  0  0  0  0  0
   -7.2683   12.3469    0.0000 C   0  0  0  0  0  0  0  0  0  0  0  0
   -6.7257   13.7454    0.0000 C   0  0  0  0  0  0  0  0  0  0  0  0
   -5.2433   13.9747    0.0000 C   0  0  0  0  0  0  0  0  0  0  0  0
   -4.7007   15.3731    0.0000 C   0  0  0  0  0  0  0  0  0  0  0  0
   -5.6405   16.5422    0.0000 C   0  0  0  0  0  0  0  0  0  0  0  0
   -7.1229   16.3129    0.0000 C   0  0  0  0  0  0  0  0  0  0  0  0
   -7.6655   14.9145    0.0000 C   0  0  0  0  0  0  0  0  0  0  0  0
   -7.7934   10.8550    0.0000 C   0  0  0  0  0  0  0  0  0  0  0  0
   -8.4246   12.2157    0.0000 O   0  0  0  0  0  0  0  0  0  0  0  0
   -9.1706   10.2607    0.0000 N   0  0  0  0  0  0  0  0  0  0  0  0
  -10.4105    9.4166    0.0000 C   0  0  0  0  0  0  0  0  0  0  0  0
  -11.8332    9.8920    0.0000 C   0  0  0  0  0  0  0  0  0  0  0  0
  -12.1328   11.3618    0.0000 C   0  0  0  0  0  0  0  0  0  0  0  0
  -11.0097   12.3561    0.0000 C   0  0  0  0  0  0  0  0  0  0  0  0
  -11.3093   13.8259    0.0000 C   0  0  0  0  0  0  0  0  0  0  0  0
  -12.7319   14.3013    0.0000 C   0  0  0  0  0  0  0  0  0  0  0  0
  -13.8550   13.3070    0.0000 C   0  0  0  0  0  0  0  0  0  0  0  0
  -13.5554   11.8372    0.0000 C   0  0  0  0  0  0  0  0  0  0  0  0
  -11.4683    8.3530    0.0000 C   0  0  0  0  0  0  0  0  0  0  0  0
  -12.7350    9.1564    0.0000 O   0  0  0  0  0  0  0  0  0  0  0  0
  -12.3056    7.1085    0.0000 N   0  0  0  0  0  0  0  0  0  0  0  0
  -12.8923    5.7280    0.0000 C   0  0  0  0  0  0  0  0  0  0  0  0
  -14.3462    5.3588    0.0000 C   0  0  0  0  0  0  0  0  0  0  0  0
  -13.2072    4.2614    0.0000 C   0  0  0  0  0  0  0  0  0  0  0  0
  -14.7071    4.2525    0.0000 O   0  0  0  0  0  0  0  0  0  0  0  0
  -13.2388    2.7617    0.0000 N   0  0  0  0  0  0  0  0  0  0  0  0
  -12.9860    1.2832    0.0000 C   0  0  0  0  0  0  0  0  0  0  0  0
  -14.0094    0.1866    0.0000 C   0  0  0  0  0  0  0  0  0  0  0  0
  -15.4708    0.5246    0.0000 C   0  0  0  0  0  0  0  0  0  0  0  0
  -16.4943   -0.5720    0.0000 C   0  0  0  0  0  0  0  0  0  0  0  0
  -16.7285    1.3421    0.0000 C   0  0  0  0  0  0  0  0  0  0  0  0
  -12.4579   -0.1208    0.0000 C   0  0  0  0  0  0  0  0  0  0  0  0
  -13.7150   -0.9393    0.0000 O   0  0  0  0  0  0  0  0  0  0  0  0
  -11.6737   -1.3995    0.0000 N   0  0  0  0  0  0  0  0  0  0  0  0
  -10.6617   -2.5067    0.0000 C   0  0  0  0  0  0  0  0  0  0  0  0
   -9.4584   -3.4023    0.0000 C   0  0  0  0  0  0  0  0  0  0  0  0
   -8.1074   -4.0540    0.0000 C   0  0  0  0  0  0  0  0  0  0  0  0
   -6.6574   -4.4383    0.0000 C   0  0  0  0  0  0  0  0  0  0  0  0
   -5.1610   -4.5412    0.0000 C   0  0  0  0  0  0  0  0  0  0  0  0
  -12.1031   -2.9218    0.0000 C   0  0  0  0  0  0  0  0  0  0  0  0
  -10.9298   -3.9825    0.0000 C   0  0  0  0  0  0  0  0  0  0  0  0
  -10.0545   -5.2006    0.0000 O   0  0  0  0  0  0  0  0  0  0  0  0
  -12.3420   -4.4882    0.0000 N   0  0  0  0  0  0  0  0  0  0  0  0
  -12.6101   -5.9640    0.0000 C   0  0  0  0  0  0  0  0  0  0  0  0
  -12.3573   -7.4426    0.0000 C   0  0  0  0  0  0  0  0  0  0  0  0
  -13.5114   -8.4008    0.0000 C   0  0  0  0  0  0  0  0  0  0  0  0
  -13.2586   -9.8793    0.0000 O   0  0  0  0  0  0  0  0  0  0  0  0
  -15.0024   -8.2363    0.0000 O   0  0  0  0  0  0  0  0  0  0  0  0
  -14.0223   -6.4697    0.0000 C   0  0  0  0  0  0  0  0  0  0  0  0
  -15.1664   -5.4996    0.0000 O   0  0  0  0  0  0  0  0  0  0  0  0
  -14.2905   -7.9456    0.0000 N   0  0  0  0  0  0  0  0  0  0  0  0
  -15.7027   -8.4513    0.0000 C   0  0  0  0  0  0  0  0  0  0  0  0
  -17.2026   -8.4435    0.0000 C   0  0  0  0  0  0  0  0  0  0  0  0
  -17.9594   -9.7386    0.0000 C   0  0  0  0  0  0  0  0  0  0  0  0
  -19.4593   -9.7308    0.0000 C   0  0  0  0  0  0  0  0  0  0  0  0
  -20.3683  -10.9241    0.0000 N   0  0  0  0  0  0  0  0  0  0  0  0
  -20.2026   -8.4279    0.0000 O   0  0  0  0  0  0  0  0  0  0  0  0
  -15.9708   -9.9271    0.0000 C   0  0  0  0  0  0  0  0  0  0  0  0
  -14.8267  -10.8973    0.0000 O   0  0  0  0  0  0  0  0  0  0  0  0
  -17.3830  -10.4328    0.0000 N   0  0  0  0  0  0  0  0  0  0  0  0
  -17.6511  -11.9087    0.0000 C   0  0  0  0  0  0  0  0  0  0  0  0
  -17.3983  -13.3872    0.0000 C   0  0  0  0  0  0  0  0  0  0  0  0
  -18.5524  -14.3454    0.0000 C   0  0  0  0  0  0  0  0  0  0  0  0
  -16.6551  -14.6901    0.0000 C   0  0  0  0  0  0  0  0  0  0  0  0
  -15.1551  -14.6979    0.0000 C   0  0  0  0  0  0  0  0  0  0  0  0
  -19.0633  -12.4144    0.0000 C   0  0  0  0  0  0  0  0  0  0  0  0
  -19.5093  -13.8465    0.0000 O   0  0  0  0  0  0  0  0  0  0  0  0
  -20.3171  -11.5909    0.0000 O   0  0  0  0  0  0  0  0  0  0  0  0
   21.2110   -1.1322    0.0000 H   0  0  0  0  0  0  0  0  0  0  0  0
   21.1568   -5.6244    0.0000 H   0  0  0  0  0  0  0  0  0  0  0  0
   23.6721   -7.2594    0.0000 H   0  0  0  0  0  0  0  0  0  0  0  0
   23.6239   -1.2931    0.0000 H   0  0  0  0  0  0  0  0  0  0  0  0
   30.6558    0.0727    0.0000 H   0  0  0  0  0  0  0  0  0  0  0  0
   31.4664   -5.0598    0.0000 H   0  0  0  0  0  0  0  0  0  0  0  0
   28.5032   -5.5279    0.0000 H   0  0  0  0  0  0  0  0  0  0  0  0
   33.4862   -3.4257    0.0000 H   0  0  0  0  0  0  0  0  0  0  0  0
   23.6530   -3.6636    0.0000 H   0  0  0  0  0  0  0  0  0  0  0  0
   21.7485   -1.1490    0.0000 H   0  0  0  0  0  0  0  0  0  0  0  0
   25.8056    1.9369    0.0000 H   0  0  0  0  0  0  0  0  0  0  0  0
   23.3805    2.8691    0.0000 H   0  0  0  0  0  0  0  0  0  0  0  0
   18.7998   -0.9936    0.0000 H   0  0  0  0  0  0  0  0  0  0  0  0
   18.2860   -4.3703    0.0000 H   0  0  0  0  0  0  0  0  0  0  0  0
   16.5016   -4.3851    0.0000 H   0  0  0  0  0  0  0  0  0  0  0  0
   17.1496   -1.2578    0.0000 H   0  0  0  0  0  0  0  0  0  0  0  0
   15.2239   -1.1561    0.0000 H   0  0  0  0  0  0  0  0  0  0  0  0
   13.6108   -0.7194    0.0000 H   0  0  0  0  0  0  0  0  0  0  0  0
   11.7569   -1.4631    0.0000 H   0  0  0  0  0  0  0  0  0  0  0  0
   13.7066   -5.4666    0.0000 H   0  0  0  0  0  0  0  0  0  0  0  0
   11.6873   -4.6084    0.0000 H   0  0  0  0  0  0  0  0  0  0  0  0
   16.9882   -5.1129    0.0000 H   0  0  0  0  0  0  0  0  0  0  0  0
   14.9015   -6.4927    0.0000 H   0  0  0  0  0  0  0  0  0  0  0  0
   10.3905   -0.5010    0.0000 H   0  0  0  0  0  0  0  0  0  0  0  0
    8.5760   -0.5866    0.0000 H   0  0  0  0  0  0  0  0  0  0  0  0
    8.4917   -4.9754    0.0000 H   0  0  0  0  0  0  0  0  0  0  0  0
    7.3522   -4.0354    0.0000 H   0  0  0  0  0  0  0  0  0  0  0  0
   11.6698   -3.4741    0.0000 H   0  0  0  0  0  0  0  0  0  0  0  0
   10.6535   -2.4022    0.0000 H   0  0  0  0  0  0  0  0  0  0  0  0
   10.5730   -6.7690    0.0000 H   0  0  0  0  0  0  0  0  0  0  0  0
    9.1966   -5.6333    0.0000 H   0  0  0  0  0  0  0  0  0  0  0  0
   13.6136   -5.6098    0.0000 H   0  0  0  0  0  0  0  0  0  0  0  0
   12.1927   -4.1112    0.0000 H   0  0  0  0  0  0  0  0  0  0  0  0
   14.0129   -7.3818    0.0000 H   0  0  0  0  0  0  0  0  0  0  0  0
   11.5280   -8.1403    0.0000 H   0  0  0  0  0  0  0  0  0  0  0  0
    7.4390    0.8056    0.0000 H   0  0  0  0  0  0  0  0  0  0  0  0
    5.5408    1.4276    0.0000 H   0  0  0  0  0  0  0  0  0  0  0  0
    4.1244   -2.7495    0.0000 H   0  0  0  0  0  0  0  0  0  0  0  0
    3.4136   -1.1128    0.0000 H   0  0  0  0  0  0  0  0  0  0  0  0
    7.0359   -1.0708    0.0000 H   0  0  0  0  0  0  0  0  0  0  0  0
    7.0759   -4.8638    0.0000 H   0  0  0  0  0  0  0  0  0  0  0  0
    5.4668   -5.1468    0.0000 H   0  0  0  0  0  0  0  0  0  0  0  0
    4.5618   -3.6089    0.0000 H   0  0  0  0  0  0  0  0  0  0  0  0
    8.0320   -4.0410    0.0000 H   0  0  0  0  0  0  0  0  0  0  0  0
    9.0828   -2.7899    0.0000 H   0  0  0  0  0  0  0  0  0  0  0  0
    7.4900   -1.1100    0.0000 H   0  0  0  0  0  0  0  0  0  0  0  0
    5.1854    2.8749    0.0000 H   0  0  0  0  0  0  0  0  0  0  0  0
    3.8366    1.8391    0.0000 H   0  0  0  0  0  0  0  0  0  0  0  0
    3.2893    0.5255    0.0000 H   0  0  0  0  0  0  0  0  0  0  0  0
    3.3572   -0.0572    0.0000 H   0  0  0  0  0  0  0  0  0  0  0  0
    2.7549   -0.9663    0.0000 H   0  0  0  0  0  0  0  0  0  0  0  0
    2.6749   -1.1138    0.0000 H   0  0  0  0  0  0  0  0  0  0  0  0
    1.9541   -2.3408    0.0000 H   0  0  0  0  0  0  0  0  0  0  0  0
    1.6333   -2.7314    0.0000 H   0  0  0  0  0  0  0  0  0  0  0  0
    0.7454   -3.6241    0.0000 H   0  0  0  0  0  0  0  0  0  0  0  0
    0.3566   -3.9470    0.0000 H   0  0  0  0  0  0  0  0  0  0  0  0
   -0.6842   -4.6556    0.0000 H   0  0  0  0  0  0  0  0  0  0  0  0
   -1.1271   -4.8990    0.0000 H   0  0  0  0  0  0  0  0  0  0  0  0
   -2.4657   -5.3820    0.0000 H   0  0  0  0  0  0  0  0  0  0  0  0
   -3.3492   -5.8238    0.0000 H   0  0  0  0  0  0  0  0  0  0  0  0
    5.1959    3.3725    0.0000 H   0  0  0  0  0  0  0  0  0  0  0  0
    4.8950    4.9784    0.0000 H   0  0  0  0  0  0  0  0  0  0  0  0
    3.1371    5.2849    0.0000 H   0  0  0  0  0  0  0  0  0  0  0  0
    3.4726    6.4767    0.0000 H   0  0  0  0  0  0  0  0  0  0  0  0
    2.8434    7.2805    0.0000 H   0  0  0  0  0  0  0  0  0  0  0  0
    2.2026   10.3015    0.0000 H   0  0  0  0  0  0  0  0  0  0  0  0
    0.7384    9.5766    0.0000 H   0  0  0  0  0  0  0  0  0  0  0  0
    4.9631    8.4689    0.0000 H   0  0  0  0  0  0  0  0  0  0  0  0
    3.7178    7.4113    0.0000 H   0  0  0  0  0  0  0  0  0  0  0  0
    4.3732   11.7294    0.0000 H   0  0  0  0  0  0  0  0  0  0  0  0
    2.8253   10.8415    0.0000 H   0  0  0  0  0  0  0  0  0  0  0  0
    6.5210    9.0737    0.0000 H   0  0  0  0  0  0  0  0  0  0  0  0
    8.5402   13.0953    0.0000 H   0  0  0  0  0  0  0  0  0  0  0  0
    6.2184   14.2610    0.0000 H   0  0  0  0  0  0  0  0  0  0  0  0
    4.0478   12.8332    0.0000 H   0  0  0  0  0  0  0  0  0  0  0  0
    0.2363   10.8787    0.0000 H   0  0  0  0  0  0  0  0  0  0  0  0
   -0.6762   11.2570    0.0000 H   0  0  0  0  0  0  0  0  0  0  0  0
   -2.5907   13.3619    0.0000 H   0  0  0  0  0  0  0  0  0  0  0  0
   -3.5998   11.8902    0.0000 H   0  0  0  0  0  0  0  0  0  0  0  0
   -1.0468   14.3189    0.0000 H   0  0  0  0  0  0  0  0  0  0  0  0
   -4.5445   12.6904    0.0000 H   0  0  0  0  0  0  0  0  0  0  0  0
   -5.6983   12.5390    0.0000 H   0  0  0  0  0  0  0  0  0  0  0  0
   -8.4469   13.2747    0.0000 H   0  0  0  0  0  0  0  0  0  0  0  0
   -8.5002   11.4911    0.0000 H   0  0  0  0  0  0  0  0  0  0  0  0
   -4.1681   12.9288    0.0000 H   0  0  0  0  0  0  0  0  0  0  0  0
   -3.2184   15.6024    0.0000 H   0  0  0  0  0  0  0  0  0  0  0  0
   -5.0979   17.9406    0.0000 H   0  0  0  0  0  0  0  0  0  0  0  0
   -8.0626   17.4820    0.0000 H   0  0  0  0  0  0  0  0  0  0  0  0
   -9.1478   14.6852    0.0000 H   0  0  0  0  0  0  0  0  0  0  0  0
   -9.7275   11.6535    0.0000 H   0  0  0  0  0  0  0  0  0  0  0  0
  -10.6163   10.9024    0.0000 H   0  0  0  0  0  0  0  0  0  0  0  0
  -13.3263   10.0353    0.0000 H   0  0  0  0  0  0  0  0  0  0  0  0
  -12.4068    8.5060    0.0000 H   0  0  0  0  0  0  0  0  0  0  0  0
   -9.5397   12.0576    0.0000 H   0  0  0  0  0  0  0  0  0  0  0  0
  -10.1862   14.8202    0.0000 H   0  0  0  0  0  0  0  0  0  0  0  0
  -13.0315   15.7711    0.0000 H   0  0  0  0  0  0  0  0  0  0  0  0
  -15.2777   13.7824    0.0000 H   0  0  0  0  0  0  0  0  0  0  0  0
  -14.6785   10.8429    0.0000 H   0  0  0  0  0  0  0  0  0  0  0  0
  -13.6241    7.8237    0.0000 H   0  0  0  0  0  0  0  0  0  0  0  0
  -13.8687    6.8667    0.0000 H   0  0  0  0  0  0  0  0  0  0  0  0
  -15.3928    6.4333    0.0000 H   0  0  0  0  0  0  0  0  0  0  0  0
  -15.6798    4.6721    0.0000 H   0  0  0  0  0  0  0  0  0  0  0  0
  -14.0794    3.8827    0.0000 H   0  0  0  0  0  0  0  0  0  0  0  0
  -14.7370    2.8338    0.0000 H   0  0  0  0  0  0  0  0  0  0  0  0
  -14.3598    1.8852    0.0000 H   0  0  0  0  0  0  0  0  0  0  0  0
  -14.5961   -1.1939    0.0000 H   0  0  0  0  0  0  0  0  0  0  0  0
  -12.9870   -0.9110    0.0000 H   0  0  0  0  0  0  0  0  0  0  0  0
  -15.2356    2.0061    0.0000 H   0  0  0  0  0  0  0  0  0  0  0  0
  -17.9860   -0.4146    0.0000 H   0  0  0  0  0  0  0  0  0  0  0  0
  -17.0810   -1.9525    0.0000 H   0  0  0  0  0  0  0  0  0  0  0  0
  -15.3457   -1.5367    0.0000 H   0  0  0  0  0  0  0  0  0  0  0  0
  -18.1383    0.8298    0.0000 H   0  0  0  0  0  0  0  0  0  0  0  0
  -17.6307    2.5405    0.0000 H   0  0  0  0  0  0  0  0  0  0  0  0
  -15.7050    2.4387    0.0000 H   0  0  0  0  0  0  0  0  0  0  0  0
  -12.9731   -2.1489    0.0000 H   0  0  0  0  0  0  0  0  0  0  0  0
   -9.4424   -4.9022    0.0000 H   0  0  0  0  0  0  0  0  0  0  0  0
  -10.5908   -4.3859    0.0000 H   0  0  0  0  0  0  0  0  0  0  0  0
   -7.9892   -5.5493    0.0000 H   0  0  0  0  0  0  0  0  0  0  0  0
   -9.0332   -5.2342    0.0000 H   0  0  0  0  0  0  0  0  0  0  0  0
   -6.0851   -5.8248    0.0000 H   0  0  0  0  0  0  0  0  0  0  0  0
   -7.5007   -5.6788    0.0000 H   0  0  0  0  0  0  0  0  0  0  0  0
   -5.1212   -6.0406    0.0000 H   0  0  0  0  0  0  0  0  0  0  0  0
  -12.8058   -4.2470    0.0000 H   0  0  0  0  0  0  0  0  0  0  0  0
  -13.5996   -2.8189    0.0000 H   0  0  0  0  0  0  0  0  0  0  0  0
  -12.6178   -1.5129    0.0000 H   0  0  0  0  0  0  0  0  0  0  0  0
  -13.5958   -3.6648    0.0000 H   0  0  0  0  0  0  0  0  0  0  0  0
  -11.1102   -5.9718    0.0000 H   0  0  0  0  0  0  0  0  0  0  0  0
  -11.6141   -8.7455    0.0000 H   0  0  0  0  0  0  0  0  0  0  0  0
  -10.9452   -6.9369    0.0000 H   0  0  0  0  0  0  0  0  0  0  0  0
  -16.1863   -8.5618    0.0000 H   0  0  0  0  0  0  0  0  0  0  0  0
  -13.4152   -9.1637    0.0000 H   0  0  0  0  0  0  0  0  0  0  0  0
  -15.9555   -6.9727    0.0000 H   0  0  0  0  0  0  0  0  0  0  0  0
  -18.6095   -7.9232    0.0000 H   0  0  0  0  0  0  0  0  0  0  0  0
  -16.9345   -6.9677    0.0000 H   0  0  0  0  0  0  0  0  0  0  0  0
  -18.2275  -11.2145    0.0000 H   0  0  0  0  0  0  0  0  0  0  0  0
  -16.9616  -10.8586    0.0000 H   0  0  0  0  0  0  0  0  0  0  0  0
  -21.7161  -11.0182    0.0000 H   0  0  0  0  0  0  0  0  0  0  0  0
  -20.0359  -12.5565    0.0000 H   0  0  0  0  0  0  0  0  0  0  0  0
  -18.7278   -9.7684    0.0000 H   0  0  0  0  0  0  0  0  0  0  0  0
  -16.1511  -11.9165    0.0000 H   0  0  0  0  0  0  0  0  0  0  0  0
  -16.0583  -12.7131    0.0000 H   0  0  0  0  0  0  0  0  0  0  0  0
  -18.4817  -15.8437    0.0000 H   0  0  0  0  0  0  0  0  0  0  0  0
  -19.9646  -14.8511    0.0000 H   0  0  0  0  0  0  0  0  0  0  0  0
  -19.8204  -13.5441    0.0000 H   0  0  0  0  0  0  0  0  0  0  0  0
  -16.4023  -16.1687    0.0000 H   0  0  0  0  0  0  0  0  0  0  0  0
  -17.9951  -15.3642    0.0000 H   0  0  0  0  0  0  0  0  0  0  0  0
  -14.4119  -16.0008    0.0000 H   0  0  0  0  0  0  0  0  0  0  0  0
  -13.7429  -14.1922    0.0000 H   0  0  0  0  0  0  0  0  0  0  0  0
  -15.2258  -13.1996    0.0000 H   0  0  0  0  0  0  0  0  0  0  0  0
  -21.6195  -11.9499    0.0000 H   0  0  0  0  0  0  0  0  0  0  0  0
  1  2  1  0
  2  3  1  0
  3  4  2  0
  4  5  1  0
  5  6  2  0
  6  7  1  0
  7  8  2  0
  7  9  1  0
  9 10  1  0
 10 11  1  0
 11 12  2  0
  9 13  1  0
 13 14  1  0
 14 15  2  0
 15 16  1  0
 16 17  2  0
 17 18  1  0
 16 19  1  0
 14 20  1  0
 20 21  1  0
 21 22  2  0
 22 23  1  0
 23 24  2  0
 24 25  1  0
 25 26  2  0
 25 27  1  0
  1 28  2  0
  1 29  1  0
 29 30  1  0
 30 31  1  0
 31 32  1  0
 32 33  2  0
 32 34  1  0
 34 35  1  0
 35 36  1  0
 36 37  1  0
 37 38  1  0
 37 39  2  0
 35 40  1  0
 40 41  2  0
 40 42  1  0
 42 43  1  0
 43 44  1  0
 44 45  1  0
 45 46  1  0
 46 47  1  0
 47 48  1  0
 43 49  1  0
 49 50  2  0
 49 51  1  0
 51 52  1  0
 52 53  1  0
 53 54  1  0
 54 55  1  0
 54 56  1  0
 52 57  1  0
 57 58  2  0
 57 59  1  0
 60 59  1  6
 60 61  1  0
 61 62  1  0
 62 63  1  0
 63 64  1  0
 64 65  1  0
 65 66  1  0
 66 67  1  0
 60 68  1  0
 60 69  1  0
 69 70  2  0
 69 71  1  0
 71 72  1  0
 72 73  1  0
 73 74  1  0
 74 75  1  0
 75 76  1  0
 76 77  1  0
 77 78  2  3
 77 79  1  0
 72 80  1  0
 80 81  2  0
 80 82  1  0
 82 83  1  0
 83 84  1  0
 84 85  1  0
 83 86  1  0
 86 87  2  0
 86 88  1  0
 88 89  1  0
 89 90  1  0
 90 91  1  0
 91 92  2  0
 92 93  1  0
 93 94  2  0
 94 95  1  0
 95 96  2  0
 89 97  1  0
 97 98  2  0
 97 99  1  0
 99100  1  0
100101  1  0
101102  1  0
102103  2  0
103104  1  0
104105  2  0
105106  1  0
106107  2  0
100108  1  0
108109  2  0
108110  1  0
110111  1  0
111112  1  0
111113  1  0
113114  2  0
113115  1  0
115116  1  0
116117  1  0
117118  1  0
118119  1  0
118120  1  0
116121  1  0
121122  2  0
121123  1  0
123124  1  0
124125  1  0
125126  1  0
126127  1  0
127128  1  0
124129  1  0
124130  1  1
130131  2  0
130132  1  0
132133  1  0
133134  1  0
134135  1  0
135136  2  0
135137  1  0
133138  1  0
138139  2  0
138140  1  0
140141  1  0
141142  1  0
142143  1  0
143144  1  0
144145  1  0
144146  2  0
141147  1  0
147148  2  0
147149  1  0
149150  1  0
150151  1  0
151152  1  0
151153  1  0
153154  1  0
150155  1  0
155156  2  0
155157  1  0
  8  3  1  0
 96 91  1  0
107102  1  0
 11  6  1  0
 67128  2  0
 18 13  2  0
 22  9  1  0
 26 21  1  0
  2158  1  0
  4159  1  0
  5160  1  0
  8161  1  0
 15162  1  0
 17163  1  0
 18164  1  0
 19165  1  0
 23166  1  0
 24167  1  0
 26168  1  0
 27169  1  0
 29170  1  0
 30171  1  0
 30172  1  0
 31173  1  0
 31174  1  0
 34175  1  0
 35176  1  1
 36177  1  0
 36178  1  0
 38179  1  0
 38180  1  0
 42181  1  0
 43182  1  1
 44183  1  0
 44184  1  0
 45185  1  0
 45186  1  0
 46187  1  0
 46188  1  0
 47189  1  0
 47190  1  0
 48191  1  0
 48192  1  0
 51193  1  0
 52194  1  1
 53195  1  0
 53196  1  0
 54197  1  0
 55198  1  0
 55199  1  0
 55200  1  0
 56201  1  0
 56202  1  0
 56203  1  0
 59204  1  0
 61205  1  0
 61206  1  0
 62207  1  0
 62208  1  0
 63209  1  0
 63210  1  0
 64211  1  0
 64212  1  0
 65213  1  0
 65214  1  0
 66215  1  0
 66216  1  0
 67217  1  0
 68218  1  0
 68219  1  0
 68220  1  0
 71221  1  0
 72222  1  6
 73223  1  0
 73224  1  0
 74225  1  0
 74226  1  0
 75227  1  0
 75228  1  0
 76229  1  0
 78230  1  0
 79231  1  0
 79232  1  0
 82233  1  0
 83234  1  6
 84235  1  0
 84236  1  0
 85237  1  0
 88238  1  0
 89239  1  6
 90240  1  0
 90241  1  0
 92242  1  0
 93243  1  0
 94244  1  0
 95245  1  0
 96246  1  0
 99247  1  0
100248  1  6
101249  1  0
101250  1  0
103251  1  0
104252  1  0
105253  1  0
106254  1  0
107255  1  0
110256  1  0
111257  1  6
112258  1  0
112259  1  0
112260  1  0
115261  1  0
116262  1  6
117263  1  0
117264  1  0
118265  1  0
119266  1  0
119267  1  0
119268  1  0
120269  1  0
120270  1  0
120271  1  0
123272  1  0
125273  1  0
125274  1  0
126275  1  0
126276  1  0
127277  1  0
127278  1  0
128279  1  0
129280  1  0
129281  1  0
129282  1  0
132283  1  0
133284  1  1
134285  1  0
134286  1  0
137287  1  0
140288  1  0
141289  1  6
142290  1  0
142291  1  0
143292  1  0
143293  1  0
145294  1  0
145295  1  0
149296  1  0
150297  1  1
151298  1  1
152299  1  0
152300  1  0
152301  1  0
153302  1  0
153303  1  0
154304  1  0
154305  1  0
154306  1  0
157307  1  0
M  END
