
     RDKit          2D

347352  0  0  0  0  0  0  0  0999 V2000
   23.5130   -1.3479    0.0000 C   0  0  0  0  0  0  0  0  0  0  0  0
   24.5195   -0.2357    0.0000 N   0  0  0  0  0  0  0  0  0  0  0  0
   25.9859   -0.5512    0.0000 C   0  0  0  0  0  0  0  0  0  0  0  0
   26.4459   -1.9790    0.0000 C   0  0  0  0  0  0  0  0  0  0  0  0
   27.9123   -2.2945    0.0000 C   0  0  0  0  0  0  0  0  0  0  0  0
   28.9188   -1.1822    0.0000 C   0  0  0  0  0  0  0  0  0  0  0  0
   28.4588    0.2455    0.0000 C   0  0  0  0  0  0  0  0  0  0  0  0
   26.9924    0.5610    0.0000 C   0  0  0  0  0  0  0  0  0  0  0  0
   29.6745    1.1242    0.0000 C   0  0  0  0  0  0  0  0  0  0  0  0
   30.8859    0.2395    0.0000 O   0  0  0  0  0  0  0  0  0  0  0  0
   30.4188   -1.1859    0.0000 C   0  0  0  0  0  0  0  0  0  0  0  0
   31.2975   -2.4017    0.0000 O   0  0  0  0  0  0  0  0  0  0  0  0
   30.9754    1.8709    0.0000 C   0  0  0  0  0  0  0  0  0  0  0  0
   30.9791    3.3709    0.0000 C   0  0  0  0  0  0  0  0  0  0  0  0
   32.2800    4.1177    0.0000 C   0  0  0  0  0  0  0  0  0  0  0  0
   33.5772    3.3645    0.0000 C   0  0  0  0  0  0  0  0  0  0  0  0
   33.5735    1.8645    0.0000 C   0  0  0  0  0  0  0  0  0  0  0  0
   32.2726    1.1177    0.0000 C   0  0  0  0  0  0  0  0  0  0  0  0
   34.8781    4.1113    0.0000 O   0  0  0  0  0  0  0  0  0  0  0  0
   29.6820    4.1242    0.0000 O   0  0  0  0  0  0  0  0  0  0  0  0
   28.3811    3.3774    0.0000 C   0  0  0  0  0  0  0  0  0  0  0  0
   28.3773    1.8774    0.0000 C   0  0  0  0  0  0  0  0  0  0  0  0
   27.0782    1.8306    0.0000 C   0  0  0  0  0  0  0  0  0  0  0  0
   26.3864    2.2323    0.0000 C   0  0  0  0  0  0  0  0  0  0  0  0
   26.3883    3.0323    0.0000 C   0  0  0  0  0  0  0  0  0  0  0  0
   27.0822    3.4306    0.0000 C   0  0  0  0  0  0  0  0  0  0  0  0
   24.4858    4.1370    0.0000 O   0  0  0  0  0  0  0  0  0  0  0  0
   23.9730   -2.7757    0.0000 S   0  0  0  0  0  0  0  0  0  0  0  0
   22.0466   -1.0324    0.0000 N   0  0  0  0  0  0  0  0  0  0  0  0
   21.0401   -2.1447    0.0000 C   0  0  0  0  0  0  0  0  0  0  0  0
   19.5737   -1.8292    0.0000 C   0  0  0  0  0  0  0  0  0  0  0  0
   18.5672   -2.9414    0.0000 C   0  0  0  0  0  0  0  0  0  0  0  0
   18.9023   -3.6647    0.0000 O   0  0  0  0  0  0  0  0  0  0  0  0
   17.1008   -2.6259    0.0000 N   0  0  0  0  0  0  0  0  0  0  0  0
   16.0943   -3.7381    0.0000 C   0  0  0  0  0  0  0  0  0  0  0  0
   17.3644   -4.5362    0.0000 C   0  0  0  0  0  0  0  0  0  0  0  0
   18.2850   -5.7205    0.0000 O   0  0  0  0  0  0  0  0  0  0  0  0
   18.7661   -4.0021    0.0000 C   0  0  0  0  0  0  0  0  0  0  0  0
   14.7682   -4.4390    0.0000 C   0  0  0  0  0  0  0  0  0  0  0  0
   15.0765   -5.9070    0.0000 O   0  0  0  0  0  0  0  0  0  0  0  0
   13.4981   -3.6410    0.0000 N   0  0  0  0  0  0  0  0  0  0  0  0
   12.1719   -4.3419    0.0000 C   0  0  0  0  0  0  0  0  0  0  0  0
   13.0925   -5.5262    0.0000 C   0  0  0  0  0  0  0  0  0  0  0  0
   14.5784   -5.3212    0.0000 C   0  0  0  0  0  0  0  0  0  0  0  0
   15.4989   -6.5055    0.0000 C   0  0  0  0  0  0  0  0  0  0  0  0
   16.9848   -6.3004    0.0000 N   0  0  0  0  0  0  0  0  0  0  0  0
   17.9054   -7.4847    0.0000 C   0  0  0  0  0  0  0  0  0  0  0  0
   19.3913   -7.2796    0.0000 N   0  0  0  0  0  0  0  0  0  0  0  0
   17.3401   -8.8741    0.0000 N   0  0  0  0  0  0  0  0  0  0  0  0
   10.6860   -4.5470    0.0000 C   0  0  0  0  0  0  0  0  0  0  0  0
   10.4736   -6.0319    0.0000 O   0  0  0  0  0  0  0  0  0  0  0  0
    9.7654   -3.3627    0.0000 N   0  0  0  0  0  0  0  0  0  0  0  0
    8.2795   -3.5678    0.0000 C   0  0  0  0  0  0  0  0  0  0  0  0
    8.7395   -4.9955    0.0000 C   0  0  0  0  0  0  0  0  0  0  0  0
   10.2059   -5.3110    0.0000 C   0  0  0  0  0  0  0  0  0  0  0  0
   10.6659   -6.7388    0.0000 C   0  0  0  0  0  0  0  0  0  0  0  0
   12.0830   -7.2307    0.0000 N   0  0  0  0  0  0  0  0  0  0  0  0
    9.6595   -7.8510    0.0000 O   0  0  0  0  0  0  0  0  0  0  0  0
    6.8131   -3.2523    0.0000 C   0  0  0  0  0  0  0  0  0  0  0  0
    5.9497   -4.4789    0.0000 O   0  0  0  0  0  0  0  0  0  0  0  0
    6.3531   -1.8246    0.0000 N   0  0  0  0  0  0  0  0  0  0  0  0
    4.8866   -1.5091    0.0000 C   0  0  0  0  0  0  0  0  0  0  0  0
    4.8306   -3.0080    0.0000 C   0  0  0  0  0  0  0  0  0  0  0  0
    3.6165   -0.7110    0.0000 C   0  0  0  0  0  0  0  0  0  0  0  0
    2.4994   -1.7120    0.0000 O   0  0  0  0  0  0  0  0  0  0  0  0
    3.6726    0.7879    0.0000 N   0  0  0  0  0  0  0  0  0  0  0  0
    2.4025    1.5859    0.0000 C   0  0  0  0  0  0  0  0  0  0  0  0
    2.2515    0.0936    0.0000 C   0  0  0  0  0  0  0  0  0  0  0  0
    1.8207   -1.3433    0.0000 C   0  0  0  0  0  0  0  0  0  0  0  0
    1.1259   -2.6726    0.0000 C   0  0  0  0  0  0  0  0  0  0  0  0
    0.1920   -3.8464    0.0000 C   0  0  0  0  0  0  0  0  0  0  0  0
   -0.9472   -4.8223    0.0000 C   0  0  0  0  0  0  0  0  0  0  0  0
   -2.2504   -5.5649    0.0000 C   0  0  0  0  0  0  0  0  0  0  0  0
   -3.6707   -6.0475    0.0000 C   0  0  0  0  0  0  0  0  0  0  0  0
    3.6815    2.3696    0.0000 C   0  0  0  0  0  0  0  0  0  0  0  0
    2.2684    3.0799    0.0000 C   0  0  0  0  0  0  0  0  0  0  0  0
    3.6982    3.5332    0.0000 O   0  0  0  0  0  0  0  0  0  0  0  0
    1.8539    4.5215    0.0000 N   0  0  0  0  0  0  0  0  0  0  0  0
    1.1741    5.8587    0.0000 C   0  0  0  0  0  0  0  0  0  0  0  0
    1.8264    7.2094    0.0000 C   0  0  0  0  0  0  0  0  0  0  0  0
    3.3224    7.3198    0.0000 C   0  0  0  0  0  0  0  0  0  0  0  0
    3.9747    8.6705    0.0000 C   0  0  0  0  0  0  0  0  0  0  0  0
    5.4706    8.7810    0.0000 N   0  0  0  0  0  0  0  0  0  0  0  0
    6.1230   10.1317    0.0000 C   0  0  0  0  0  0  0  0  0  0  0  0
    7.6189   10.2421    0.0000 N   0  0  0  0  0  0  0  0  0  0  0  0
    5.2794   11.3720    0.0000 N   0  0  0  0  0  0  0  0  0  0  0  0
    0.2535    7.0430    0.0000 C   0  0  0  0  0  0  0  0  0  0  0  0
    1.2114    8.1973    0.0000 O   0  0  0  0  0  0  0  0  0  0  0  0
   -0.8745    8.0316    0.0000 N   0  0  0  0  0  0  0  0  0  0  0  0
   -2.1693    8.7890    0.0000 C   0  0  0  0  0  0  0  0  0  0  0  0
   -2.3508   10.2780    0.0000 C   0  0  0  0  0  0  0  0  0  0  0  0
   -1.1520   11.1796    0.0000 C   0  0  0  0  0  0  0  0  0  0  0  0
   -1.3335   12.6686    0.0000 N   0  0  0  0  0  0  0  0  0  0  0  0
    0.2282   10.5923    0.0000 O   0  0  0  0  0  0  0  0  0  0  0  0
   -3.5840    9.2876    0.0000 C   0  0  0  0  0  0  0  0  0  0  0  0
   -3.4023   10.7765    0.0000 O   0  0  0  0  0  0  0  0  0  0  0  0
   -5.0675    9.5094    0.0000 N   0  0  0  0  0  0  0  0  0  0  0  0
   -6.5662    9.4465    0.0000 C   0  0  0  0  0  0  0  0  0  0  0  0
   -7.5239   10.6010    0.0000 C   0  0  0  0  0  0  0  0  0  0  0  0
   -7.0029   12.0076    0.0000 C   0  0  0  0  0  0  0  0  0  0  0  0
   -7.9605   13.1621    0.0000 C   0  0  0  0  0  0  0  0  0  0  0  0
   -7.4396   14.5688    0.0000 N   0  0  0  0  0  0  0  0  0  0  0  0
   -8.3972   15.7233    0.0000 C   0  0  0  0  0  0  0  0  0  0  0  0
   -7.8762   17.1299    0.0000 N   0  0  0  0  0  0  0  0  0  0  0  0
   -9.8759   15.4711    0.0000 N   0  0  0  0  0  0  0  0  0  0  0  0
   -8.0259    9.1011    0.0000 C   0  0  0  0  0  0  0  0  0  0  0  0
   -8.6780   10.4520    0.0000 O   0  0  0  0  0  0  0  0  0  0  0  0
   -9.3938    8.4857    0.0000 N   0  0  0  0  0  0  0  0  0  0  0  0
  -10.6206    7.6226    0.0000 C   0  0  0  0  0  0  0  0  0  0  0  0
  -12.0504    8.0760    0.0000 C   0  0  0  0  0  0  0  0  0  0  0  0
  -12.3726    9.5410    0.0000 C   0  0  0  0  0  0  0  0  0  0  0  0
  -13.8024    9.9945    0.0000 C   0  0  0  0  0  0  0  0  0  0  0  0
  -14.1246   11.4595    0.0000 N   0  0  0  0  0  0  0  0  0  0  0  0
  -15.5544   11.9129    0.0000 C   0  0  0  0  0  0  0  0  0  0  0  0
  -15.8766   13.3779    0.0000 N   0  0  0  0  0  0  0  0  0  0  0  0
  -16.6620   10.9014    0.0000 N   0  0  0  0  0  0  0  0  0  0  0  0
  -11.6618    6.5428    0.0000 C   0  0  0  0  0  0  0  0  0  0  0  0
  -12.9407    7.3267    0.0000 O   0  0  0  0  0  0  0  0  0  0  0  0
  -12.4799    5.2856    0.0000 N   0  0  0  0  0  0  0  0  0  0  0  0
  -13.0453    3.8962    0.0000 C   0  0  0  0  0  0  0  0  0  0  0  0
  -14.4933    3.5046    0.0000 C   0  0  0  0  0  0  0  0  0  0  0  0
  -15.5563    4.5629    0.0000 C   0  0  0  0  0  0  0  0  0  0  0  0
  -17.0043    4.1713    0.0000 C   0  0  0  0  0  0  0  0  0  0  0  0
  -18.0674    5.2296    0.0000 N   0  0  0  0  0  0  0  0  0  0  0  0
  -19.5154    4.8380    0.0000 C   0  0  0  0  0  0  0  0  0  0  0  0
  -20.5785    5.8963    0.0000 N   0  0  0  0  0  0  0  0  0  0  0  0
  -19.9003    3.3883    0.0000 N   0  0  0  0  0  0  0  0  0  0  0  0
  -13.3375    2.4249    0.0000 C   0  0  0  0  0  0  0  0  0  0  0  0
  -14.8371    2.3929    0.0000 O   0  0  0  0  0  0  0  0  0  0  0  0
  -13.3459    0.9249    0.0000 N   0  0  0  0  0  0  0  0  0  0  0  0
  -13.0704   -0.5495    0.0000 C   0  0  0  0  0  0  0  0  0  0  0  0
  -14.0768   -1.6618    0.0000 C   0  0  0  0  0  0  0  0  0  0  0  0
  -15.5433   -1.3463    0.0000 C   0  0  0  0  0  0  0  0  0  0  0  0
  -16.5497   -2.4585    0.0000 C   0  0  0  0  0  0  0  0  0  0  0  0
  -18.0162   -2.1430    0.0000 N   0  0  0  0  0  0  0  0  0  0  0  0
  -19.0226   -3.2552    0.0000 C   0  0  0  0  0  0  0  0  0  0  0  0
  -20.4891   -2.9397    0.0000 N   0  0  0  0  0  0  0  0  0  0  0  0
  -18.5626   -4.6829    0.0000 N   0  0  0  0  0  0  0  0  0  0  0  0
  -12.5208   -1.9452    0.0000 C   0  0  0  0  0  0  0  0  0  0  0  0
  -13.7650   -2.7829    0.0000 O   0  0  0  0  0  0  0  0  0  0  0  0
  -11.7170   -3.2117    0.0000 N   0  0  0  0  0  0  0  0  0  0  0  0
  -10.6880   -4.3031    0.0000 C   0  0  0  0  0  0  0  0  0  0  0  0
   -9.4711   -5.1801    0.0000 C   0  0  0  0  0  0  0  0  0  0  0  0
   -8.1102   -5.8109    0.0000 C   0  0  0  0  0  0  0  0  0  0  0  0
   -6.6545   -6.1728    0.0000 C   0  0  0  0  0  0  0  0  0  0  0  0
   -5.1566   -6.2526    0.0000 C   0  0  0  0  0  0  0  0  0  0  0  0
  -12.1228   -4.7404    0.0000 C   0  0  0  0  0  0  0  0  0  0  0  0
  -10.9334   -5.7829    0.0000 C   0  0  0  0  0  0  0  0  0  0  0  0
  -10.0394   -6.9874    0.0000 O   0  0  0  0  0  0  0  0  0  0  0  0
  -12.3376   -6.3103    0.0000 N   0  0  0  0  0  0  0  0  0  0  0  0
  -12.5829   -7.7901    0.0000 C   0  0  0  0  0  0  0  0  0  0  0  0
  -12.3074   -9.2646    0.0000 C   0  0  0  0  0  0  0  0  0  0  0  0
  -13.4466  -10.2404    0.0000 C   0  0  0  0  0  0  0  0  0  0  0  0
  -13.1710  -11.7149    0.0000 C   0  0  0  0  0  0  0  0  0  0  0  0
  -14.3102  -12.6908    0.0000 N   0  0  0  0  0  0  0  0  0  0  0  0
  -14.0346  -14.1652    0.0000 C   0  0  0  0  0  0  0  0  0  0  0  0
  -15.1738  -15.1411    0.0000 N   0  0  0  0  0  0  0  0  0  0  0  0
  -12.6199  -14.6639    0.0000 N   0  0  0  0  0  0  0  0  0  0  0  0
  -13.9872   -8.3175    0.0000 C   0  0  0  0  0  0  0  0  0  0  0  0
  -15.1460   -7.3651    0.0000 O   0  0  0  0  0  0  0  0  0  0  0  0
  -14.2325   -9.7973    0.0000 N   0  0  0  0  0  0  0  0  0  0  0  0
  -15.6368  -10.3247    0.0000 C   0  0  0  0  0  0  0  0  0  0  0  0
  -17.1367  -10.3400    0.0000 C   0  0  0  0  0  0  0  0  0  0  0  0
  -17.8999   -9.0487    0.0000 C   0  0  0  0  0  0  0  0  0  0  0  0
  -19.3998   -9.0640    0.0000 C   0  0  0  0  0  0  0  0  0  0  0  0
  -20.1631   -7.7727    0.0000 N   0  0  0  0  0  0  0  0  0  0  0  0
  -21.6630   -7.7880    0.0000 C   0  0  0  0  0  0  0  0  0  0  0  0
  -22.4262   -6.4967    0.0000 N   0  0  0  0  0  0  0  0  0  0  0  0
  -22.3997   -9.0947    0.0000 N   0  0  0  0  0  0  0  0  0  0  0  0
  -15.8821  -11.8045    0.0000 C   0  0  0  0  0  0  0  0  0  0  0  0
  -17.2116  -12.4991    0.0000 O   0  0  0  0  0  0  0  0  0  0  0  0
  -14.9882  -13.0090    0.0000 O   0  0  0  0  0  0  0  0  0  0  0  0
   23.8889    1.1253    0.0000 H   0  0  0  0  0  0  0  0  0  0  0  0
   25.4394   -3.0912    0.0000 H   0  0  0  0  0  0  0  0  0  0  0  0
   28.3723   -3.7222    0.0000 H   0  0  0  0  0  0  0  0  0  0  0  0
   26.2006    1.8350    0.0000 H   0  0  0  0  0  0  0  0  0  0  0  0
   32.2837    5.6177    0.0000 H   0  0  0  0  0  0  0  0  0  0  0  0
   34.8707    1.1113    0.0000 H   0  0  0  0  0  0  0  0  0  0  0  0
   32.2689   -0.3823    0.0000 H   0  0  0  0  0  0  0  0  0  0  0  0
   36.1753    3.3581    0.0000 H   0  0  0  0  0  0  0  0  0  0  0  0
   27.0727   -0.3694    0.0000 H   0  0  0  0  0  0  0  0  0  0  0  0
   24.3971    1.3012    0.0000 H   0  0  0  0  0  0  0  0  0  0  0  0
   27.0876    5.6306    0.0000 H   0  0  0  0  0  0  0  0  0  0  0  0
   24.4895    5.6370    0.0000 H   0  0  0  0  0  0  0  0  0  0  0  0
   21.5866    0.3953    0.0000 H   0  0  0  0  0  0  0  0  0  0  0  0
   22.3102   -2.9427    0.0000 H   0  0  0  0  0  0  0  0  0  0  0  0
   20.4748   -3.5341    0.0000 H   0  0  0  0  0  0  0  0  0  0  0  0
   20.1390   -0.4398    0.0000 H   0  0  0  0  0  0  0  0  0  0  0  0
   18.3036   -1.0311    0.0000 H   0  0  0  0  0  0  0  0  0  0  0  0
   16.6408   -1.1982    0.0000 H   0  0  0  0  0  0  0  0  0  0  0  0
   15.1738   -2.5538    0.0000 H   0  0  0  0  0  0  0  0  0  0  0  0
   16.6570   -5.8589    0.0000 H   0  0  0  0  0  0  0  0  0  0  0  0
   19.7709   -5.5154    0.0000 H   0  0  0  0  0  0  0  0  0  0  0  0
   20.0287   -4.4829    0.0000 H   0  0  0  0  0  0  0  0  0  0  0  0
   19.6970   -2.7230    0.0000 H   0  0  0  0  0  0  0  0  0  0  0  0
   18.1266   -2.4500    0.0000 H   0  0  0  0  0  0  0  0  0  0  0  0
   13.5541   -2.1421    0.0000 H   0  0  0  0  0  0  0  0  0  0  0  0
   11.7119   -2.9142    0.0000 H   0  0  0  0  0  0  0  0  0  0  0  0
   13.3750   -6.9994    0.0000 H   0  0  0  0  0  0  0  0  0  0  0  0
   11.8616   -6.3836    0.0000 H   0  0  0  0  0  0  0  0  0  0  0  0
   15.9045   -4.6202    0.0000 H   0  0  0  0  0  0  0  0  0  0  0  0
   14.4775   -3.8246    0.0000 H   0  0  0  0  0  0  0  0  0  0  0  0
   15.9589   -7.9332    0.0000 H   0  0  0  0  0  0  0  0  0  0  0  0
   14.2681   -7.3628    0.0000 H   0  0  0  0  0  0  0  0  0  0  0  0
   17.8696   -5.0891    0.0000 H   0  0  0  0  0  0  0  0  0  0  0  0
   20.3119   -8.4639    0.0000 H   0  0  0  0  0  0  0  0  0  0  0  0
   20.1218   -5.9695    0.0000 H   0  0  0  0  0  0  0  0  0  0  0  0
   18.2606  -10.0584    0.0000 H   0  0  0  0  0  0  0  0  0  0  0  0
   15.8541   -9.0791    0.0000 H   0  0  0  0  0  0  0  0  0  0  0  0
   10.3308   -1.9733    0.0000 H   0  0  0  0  0  0  0  0  0  0  0  0
    8.3356   -2.0688    0.0000 H   0  0  0  0  0  0  0  0  0  0  0  0
    8.6834   -6.4945    0.0000 H   0  0  0  0  0  0  0  0  0  0  0  0
    7.2536   -5.2006    0.0000 H   0  0  0  0  0  0  0  0  0  0  0  0
   11.6919   -5.1059    0.0000 H   0  0  0  0  0  0  0  0  0  0  0  0
   10.6230   -3.8702    0.0000 H   0  0  0  0  0  0  0  0  0  0  0  0
   12.5924   -8.4820    0.0000 H   0  0  0  0  0  0  0  0  0  0  0  0
   13.4193   -6.2358    0.0000 H   0  0  0  0  0  0  0  0  0  0  0  0
    7.3595   -0.7123    0.0000 H   0  0  0  0  0  0  0  0  0  0  0  0
    5.4520   -0.1197    0.0000 H   0  0  0  0  0  0  0  0  0  0  0  0
    5.9939   -3.9549    0.0000 H   0  0  0  0  0  0  0  0  0  0  0  0
    4.2652   -4.3974    0.0000 H   0  0  0  0  0  0  0  0  0  0  0  0
    3.3641   -2.6925    0.0000 H   0  0  0  0  0  0  0  0  0  0  0  0
    5.0743    1.3220    0.0000 H   0  0  0  0  0  0  0  0  0  0  0  0
    3.7416    0.2655    0.0000 H   0  0  0  0  0  0  0  0  0  0  0  0
    3.2146   -1.0564    0.0000 H   0  0  0  0  0  0  0  0  0  0  0  0
    3.2915   -1.6379    0.0000 H   0  0  0  0  0  0  0  0  0  0  0  0
    2.7033   -2.5562    0.0000 H   0  0  0  0  0  0  0  0  0  0  0  0
    2.6255   -2.7049    0.0000 H   0  0  0  0  0  0  0  0  0  0  0  0
    1.9237   -3.9428    0.0000 H   0  0  0  0  0  0  0  0  0  0  0  0
    1.6090   -4.3383    0.0000 H   0  0  0  0  0  0  0  0  0  0  0  0
    0.7350   -5.2447    0.0000 H   0  0  0  0  0  0  0  0  0  0  0  0
    0.3512   -5.5735    0.0000 H   0  0  0  0  0  0  0  0  0  0  0  0
   -0.6786   -6.2981    0.0000 H   0  0  0  0  0  0  0  0  0  0  0  0
   -1.1177   -6.5483    0.0000 H   0  0  0  0  0  0  0  0  0  0  0  0
   -2.4487   -7.0518    0.0000 H   0  0  0  0  0  0  0  0  0  0  0  0
   -3.3253   -7.5072    0.0000 H   0  0  0  0  0  0  0  0  0  0  0  0
    5.0771    1.8197    0.0000 H   0  0  0  0  0  0  0  0  0  0  0  0
    4.7515    3.4208    0.0000 H   0  0  0  0  0  0  0  0  0  0  0  0
    2.9891    3.7002    0.0000 H   0  0  0  0  0  0  0  0  0  0  0  0
    3.3062    4.8969    0.0000 H   0  0  0  0  0  0  0  0  0  0  0  0
    2.6647    5.6910    0.0000 H   0  0  0  0  0  0  0  0  0  0  0  0
    1.9775    8.7018    0.0000 H   0  0  0  0  0  0  0  0  0  0  0  0
    0.5245    7.9544    0.0000 H   0  0  0  0  0  0  0  0  0  0  0  0
    4.7658    6.9119    0.0000 H   0  0  0  0  0  0  0  0  0  0  0  0
    3.5369    5.8352    0.0000 H   0  0  0  0  0  0  0  0  0  0  0  0
    4.1257   10.1629    0.0000 H   0  0  0  0  0  0  0  0  0  0  0  0
    2.5917    9.2513    0.0000 H   0  0  0  0  0  0  0  0  0  0  0  0
    6.3142    7.5406    0.0000 H   0  0  0  0  0  0  0  0  0  0  0  0
    8.2712   11.5928    0.0000 H   0  0  0  0  0  0  0  0  0  0  0  0
    8.4625    9.0018    0.0000 H   0  0  0  0  0  0  0  0  0  0  0  0
    5.9317   12.7227    0.0000 H   0  0  0  0  0  0  0  0  0  0  0  0
    3.7834   11.2616    0.0000 H   0  0  0  0  0  0  0  0  0  0  0  0
    0.0025    9.2486    0.0000 H   0  0  0  0  0  0  0  0  0  0  0  0
   -0.9158    9.6128    0.0000 H   0  0  0  0  0  0  0  0  0  0  0  0
   -2.8625   11.6880    0.0000 H   0  0  0  0  0  0  0  0  0  0  0  0
   -3.8488   10.2009    0.0000 H   0  0  0  0  0  0  0  0  0  0  0  0
   -0.1347   13.5702    0.0000 H   0  0  0  0  0  0  0  0  0  0  0  0
   -2.7137   13.2559    0.0000 H   0  0  0  0  0  0  0  0  0  0  0  0
   -4.8057   10.9864    0.0000 H   0  0  0  0  0  0  0  0  0  0  0  0
   -5.7945   10.7328    0.0000 H   0  0  0  0  0  0  0  0  0  0  0  0
   -8.8186   11.3584    0.0000 H   0  0  0  0  0  0  0  0  0  0  0  0
   -8.7424    9.7263    0.0000 H   0  0  0  0  0  0  0  0  0  0  0  0
   -6.0322   13.1512    0.0000 H   0  0  0  0  0  0  0  0  0  0  0  0
   -5.5633   11.5861    0.0000 H   0  0  0  0  0  0  0  0  0  0  0  0
   -9.2553   13.9195    0.0000 H   0  0  0  0  0  0  0  0  0  0  0  0
   -9.0634   12.1454    0.0000 H   0  0  0  0  0  0  0  0  0  0  0  0
   -5.9609   14.8209    0.0000 H   0  0  0  0  0  0  0  0  0  0  0  0
   -8.8339   18.2844    0.0000 H   0  0  0  0  0  0  0  0  0  0  0  0
   -6.3976   17.3820    0.0000 H   0  0  0  0  0  0  0  0  0  0  0  0
  -10.8336   16.6256    0.0000 H   0  0  0  0  0  0  0  0  0  0  0  0
  -10.3969   14.0645    0.0000 H   0  0  0  0  0  0  0  0  0  0  0  0
   -9.9721    9.8698    0.0000 H   0  0  0  0  0  0  0  0  0  0  0  0
  -10.6668    9.1219    0.0000 H   0  0  0  0  0  0  0  0  0  0  0  0
  -13.5491    8.0131    0.0000 H   0  0  0  0  0  0  0  0  0  0  0  0
  -12.6026    6.6814    0.0000 H   0  0  0  0  0  0  0  0  0  0  0  0
  -12.1743   11.0279    0.0000 H   0  0  0  0  0  0  0  0  0  0  0  0
  -10.9337    9.9647    0.0000 H   0  0  0  0  0  0  0  0  0  0  0  0
  -15.3011    9.9316    0.0000 H   0  0  0  0  0  0  0  0  0  0  0  0
  -14.1805    8.5429    0.0000 H   0  0  0  0  0  0  0  0  0  0  0  0
  -13.0170   12.4710    0.0000 H   0  0  0  0  0  0  0  0  0  0  0  0
  -17.3064   13.8314    0.0000 H   0  0  0  0  0  0  0  0  0  0  0  0
  -14.7690   14.3895    0.0000 H   0  0  0  0  0  0  0  0  0  0  0  0
  -18.0918   11.3549    0.0000 H   0  0  0  0  0  0  0  0  0  0  0  0
  -16.3398    9.4364    0.0000 H   0  0  0  0  0  0  0  0  0  0  0  0
  -13.7146    6.1373    0.0000 H   0  0  0  0  0  0  0  0  0  0  0  0
  -13.8947    5.1325    0.0000 H   0  0  0  0  0  0  0  0  0  0  0  0
  -15.7200    2.6415    0.0000 H   0  0  0  0  0  0  0  0  0  0  0  0
  -14.2038    2.0328    0.0000 H   0  0  0  0  0  0  0  0  0  0  0  0
  -16.1934    5.9209    0.0000 H   0  0  0  0  0  0  0  0  0  0  0  0
  -14.5749    5.6972    0.0000 H   0  0  0  0  0  0  0  0  0  0  0  0
  -18.2311    3.3082    0.0000 H   0  0  0  0  0  0  0  0  0  0  0  0
  -16.5376    2.7458    0.0000 H   0  0  0  0  0  0  0  0  0  0  0  0
  -17.6825    6.6794    0.0000 H   0  0  0  0  0  0  0  0  0  0  0  0
  -22.0265    5.5047    0.0000 H   0  0  0  0  0  0  0  0  0  0  0  0
  -20.1936    7.3461    0.0000 H   0  0  0  0  0  0  0  0  0  0  0  0
  -21.3483    2.9967    0.0000 H   0  0  0  0  0  0  0  0  0  0  0  0
  -18.8373    2.3300    0.0000 H   0  0  0  0  0  0  0  0  0  0  0  0
  -14.8451    0.9739    0.0000 H   0  0  0  0  0  0  0  0  0  0  0  0
  -14.4534    0.0312    0.0000 H   0  0  0  0  0  0  0  0  0  0  0  0
  -14.6422   -3.0511    0.0000 H   0  0  0  0  0  0  0  0  0  0  0  0
  -13.0376   -2.7434    0.0000 H   0  0  0  0  0  0  0  0  0  0  0  0
  -16.8134   -0.5482    0.0000 H   0  0  0  0  0  0  0  0  0  0  0  0
  -15.3309    0.1386    0.0000 H   0  0  0  0  0  0  0  0  0  0  0  0
  -17.1151   -3.8479    0.0000 H   0  0  0  0  0  0  0  0  0  0  0  0
  -15.3864   -3.4054    0.0000 H   0  0  0  0  0  0  0  0  0  0  0  0
  -18.4762   -0.7153    0.0000 H   0  0  0  0  0  0  0  0  0  0  0  0
  -21.4955   -4.0519    0.0000 H   0  0  0  0  0  0  0  0  0  0  0  0
  -20.9491   -1.5120    0.0000 H   0  0  0  0  0  0  0  0  0  0  0  0
  -19.4260   -5.9096    0.0000 H   0  0  0  0  0  0  0  0  0  0  0  0
  -17.0962   -4.9984    0.0000 H   0  0  0  0  0  0  0  0  0  0  0  0
  -13.0046   -3.9810    0.0000 H   0  0  0  0  0  0  0  0  0  0  0  0
   -9.4319   -6.6796    0.0000 H   0  0  0  0  0  0  0  0  0  0  0  0
  -10.5882   -6.1811    0.0000 H   0  0  0  0  0  0  0  0  0  0  0  0
   -7.9689   -7.3042    0.0000 H   0  0  0  0  0  0  0  0  0  0  0  0
   -9.0177   -7.0052    0.0000 H   0  0  0  0  0  0  0  0  0  0  0  0
   -6.0608   -7.5503    0.0000 H   0  0  0  0  0  0  0  0  0  0  0  0
   -7.4785   -7.4262    0.0000 H   0  0  0  0  0  0  0  0  0  0  0  0
   -5.0937   -7.7513    0.0000 H   0  0  0  0  0  0  0  0  0  0  0  0
  -12.8051   -6.0762    0.0000 H   0  0  0  0  0  0  0  0  0  0  0  0
  -13.6207   -4.6605    0.0000 H   0  0  0  0  0  0  0  0  0  0  0  0
  -12.6592   -3.3396    0.0000 H   0  0  0  0  0  0  0  0  0  0  0  0
  -13.6039   -5.5063    0.0000 H   0  0  0  0  0  0  0  0  0  0  0  0
  -11.0830   -7.7748    0.0000 H   0  0  0  0  0  0  0  0  0  0  0  0
  -11.3925  -10.4532    0.0000 H   0  0  0  0  0  0  0  0  0  0  0  0
  -10.9032   -8.7372    0.0000 H   0  0  0  0  0  0  0  0  0  0  0  0
  -14.8508  -10.7678    0.0000 H   0  0  0  0  0  0  0  0  0  0  0  0
  -14.7268   -9.4587    0.0000 H   0  0  0  0  0  0  0  0  0  0  0  0
  -12.4078  -13.0062    0.0000 H   0  0  0  0  0  0  0  0  0  0  0  0
  -11.7130  -11.3626    0.0000 H   0  0  0  0  0  0  0  0  0  0  0  0
  -15.8035  -12.5493    0.0000 H   0  0  0  0  0  0  0  0  0  0  0  0
  -14.8982  -16.6156    0.0000 H   0  0  0  0  0  0  0  0  0  0  0  0
  -16.5885  -14.6425    0.0000 H   0  0  0  0  0  0  0  0  0  0  0  0
  -12.3444  -16.1383    0.0000 H   0  0  0  0  0  0  0  0  0  0  0  0
  -11.4808  -13.6880    0.0000 H   0  0  0  0  0  0  0  0  0  0  0  0
  -13.3386  -11.0018    0.0000 H   0  0  0  0  0  0  0  0  0  0  0  0
  -15.7305   -8.8276    0.0000 H   0  0  0  0  0  0  0  0  0  0  0  0
  -18.4661  -11.0347    0.0000 H   0  0  0  0  0  0  0  0  0  0  0  0
  -17.0429  -11.8371    0.0000 H   0  0  0  0  0  0  0  0  0  0  0  0
  -18.1755   -7.5742    0.0000 H   0  0  0  0  0  0  0  0  0  0  0  0
  -16.5705   -8.3541    0.0000 H   0  0  0  0  0  0  0  0  0  0  0  0
  -20.8041   -9.5914    0.0000 H   0  0  0  0  0  0  0  0  0  0  0  0
  -19.3061  -10.5611    0.0000 H   0  0  0  0  0  0  0  0  0  0  0  0
  -19.2726   -6.5656    0.0000 H   0  0  0  0  0  0  0  0  0  0  0  0
  -23.9261   -6.5121    0.0000 H   0  0  0  0  0  0  0  0  0  0  0  0
  -21.6895   -5.1901    0.0000 H   0  0  0  0  0  0  0  0  0  0  0  0
  -23.8996   -9.1100    0.0000 H   0  0  0  0  0  0  0  0  0  0  0  0
  -21.6365  -10.3860    0.0000 H   0  0  0  0  0  0  0  0  0  0  0  0
  1  2  1  0
  2  3  1  0
  3  4  2  0
  4  5  1  0
  5  6  2  0
  6  7  1  0
  7  8  2  0
  7  9  1  0
  9 10  1  0
 10 11  1  0
 11 12  2  0
  9 13  1  0
 13 14  1  0
 14 15  2  0
 15 16  1  0
 16 17  2  0
 17 18  1  0
 16 19  1  0
 14 20  1  0
 20 21  1  0
 21 22  2  0
 22 23  1  0
 23 24  2  0
 24 25  1  0
 25 26  2  0
 25 27  1  0
  1 28  2  0
  1 29  1  0
 29 30  1  0
 30 31  1  0
 31 32  1  0
 32 33  2  0
 32 34  1  0
 34 35  1  0
 35 36  1  0
 36 37  1  0
 36 38  1  0
 35 39  1  0
 39 40  2  0
 39 41  1  0
 41 42  1  0
 42 43  1  0
 43 44  1  0
 44 45  1  0
 45 46  1  0
 46 47  1  0
 47 48  2  3
 47 49  1  0
 42 50  1  0
 50 51  2  0
 50 52  1  0
 52 53  1  0
 53 54  1  0
 54 55  1  0
 55 56  1  0
 56 57  1  0
 56 58  2  0
 53 59  1  0
 59 60  2  0
 59 61  1  0
 61 62  1  0
 62 63  1  0
 62 64  1  0
 64 65  2  0
 64 66  1  0
 67 66  1  6
 67 68  1  0
 68 69  1  0
 69 70  1  0
 70 71  1  0
 71 72  1  0
 72 73  1  0
 73 74  1  0
 67 75  1  0
 67 76  1  0
 76 77  2  0
 76 78  1  0
 78 79  1  0
 79 80  1  0
 80 81  1  0
 81 82  1  0
 82 83  1  0
 83 84  1  0
 84 85  2  3
 84 86  1  0
 79 87  1  0
 87 88  2  0
 87 89  1  0
 89 90  1  0
 90 91  1  0
 91 92  1  0
 92 93  1  0
 92 94  2  0
 90 95  1  0
 95 96  2  0
 95 97  1  0
 97 98  1  0
 98 99  1  0
 99100  1  0
100101  1  0
101102  1  0
102103  1  0
103104  2  3
103105  1  0
 98106  1  0
106107  2  0
106108  1  0
108109  1  0
109110  1  0
110111  1  0
111112  1  0
112113  1  0
113114  1  0
114115  2  3
114116  1  0
109117  1  0
117118  2  0
117119  1  0
119120  1  0
120121  1  0
121122  1  0
122123  1  0
123124  1  0
124125  1  0
125126  2  3
125127  1  0
120128  1  0
128129  2  0
128130  1  0
130131  1  0
131132  1  0
132133  1  0
133134  1  0
134135  1  0
135136  1  0
136137  2  3
136138  1  0
131139  1  0
139140  2  0
139141  1  0
141142  1  0
142143  1  0
143144  1  0
144145  1  0
145146  1  0
142147  1  0
142148  1  1
148149  2  0
148150  1  0
150151  1  0
151152  1  0
152153  1  0
153154  1  0
154155  1  0
155156  1  0
156157  2  3
156158  1  0
151159  1  0
159160  2  0
159161  1  0
161162  1  0
162163  1  0
163164  1  0
164165  1  0
165166  1  0
166167  1  0
167168  2  3
167169  1  0
162170  1  0
170171  2  0
170172  1  0
  8  3  1  0
 11  6  1  0
 74146  2  0
 18 13  2  0
 22  9  1  0
 26 21  1  0
  2173  1  0
  4174  1  0
  5175  1  0
  8176  1  0
 15177  1  0
 17178  1  0
 18179  1  0
 19180  1  0
 23181  1  0
 24182  1  0
 26183  1  0
 27184  1  0
 29185  1  0
 30186  1  0
 30187  1  0
 31188  1  0
 31189  1  0
 34190  1  0
 35191  1  1
 36192  1  6
 37193  1  0
 38194  1  0
 38195  1  0
 38196  1  0
 41197  1  0
 42198  1  1
 43199  1  0
 43200  1  0
 44201  1  0
 44202  1  0
 45203  1  0
 45204  1  0
 46205  1  0
 48206  1  0
 48207  1  0
 49208  1  0
 49209  1  0
 52210  1  0
 53211  1  1
 54212  1  0
 54213  1  0
 55214  1  0
 55215  1  0
 57216  1  0
 57217  1  0
 61218  1  0
 62219  1  1
 63220  1  0
 63221  1  0
 63222  1  0
 66223  1  0
 68224  1  0
 68225  1  0
 69226  1  0
 69227  1  0
 70228  1  0
 70229  1  0
 71230  1  0
 71231  1  0
 72232  1  0
 72233  1  0
 73234  1  0
 73235  1  0
 74236  1  0
 75237  1  0
 75238  1  0
 75239  1  0
 78240  1  0
 79241  1  6
 80242  1  0
 80243  1  0
 81244  1  0
 81245  1  0
 82246  1  0
 82247  1  0
 83248  1  0
 85249  1  0
 85250  1  0
 86251  1  0
 86252  1  0
 89253  1  0
 90254  1  6
 91255  1  0
 91256  1  0
 93257  1  0
 93258  1  0
 97259  1  0
 98260  1  6
 99261  1  0
 99262  1  0
100263  1  0
100264  1  0
101265  1  0
101266  1  0
102267  1  0
104268  1  0
104269  1  0
105270  1  0
105271  1  0
108272  1  0
109273  1  6
110274  1  0
110275  1  0
111276  1  0
111277  1  0
112278  1  0
112279  1  0
113280  1  0
115281  1  0
115282  1  0
116283  1  0
116284  1  0
119285  1  0
120286  1  6
121287  1  0
121288  1  0
122289  1  0
122290  1  0
123291  1  0
123292  1  0
124293  1  0
126294  1  0
126295  1  0
127296  1  0
127297  1  0
130298  1  0
131299  1  6
132300  1  0
132301  1  0
133302  1  0
133303  1  0
134304  1  0
134305  1  0
135306  1  0
137307  1  0
137308  1  0
138309  1  0
138310  1  0
141311  1  0
143312  1  0
143313  1  0
144314  1  0
144315  1  0
145316  1  0
145317  1  0
146318  1  0
147319  1  0
147320  1  0
147321  1  0
150322  1  0
151323  1  1
152324  1  0
152325  1  0
153326  1  0
153327  1  0
154328  1  0
154329  1  0
155330  1  0
157331  1  0
157332  1  0
158333  1  0
158334  1  0
161335  1  0
162336  1  6
163337  1  0
163338  1  0
164339  1  0
164340  1  0
165341  1  0
165342  1  0
166343  1  0
168344  1  0
168345  1  0
169346  1  0
169347  1  0
M  CHG  8  48   1  85   1 104   1 115   1 126   1 137   1 157   1 168   1
M  CHG  1 172  -1
M  END
