
     RDKit          2D

456461  0  0  0  0  0  0  0  0999 V2000
   47.1533   -1.1784    0.0000 C   0  0  0  0  0  0  0  0  0  0  0  0
   48.4619   -0.4452    0.0000 N   0  0  0  0  0  0  0  0  0  0  0  0
   49.7512   -1.2119    0.0000 C   0  0  0  0  0  0  0  0  0  0  0  0
   49.7318   -2.7118    0.0000 C   0  0  0  0  0  0  0  0  0  0  0  0
   51.0210   -3.4785    0.0000 C   0  0  0  0  0  0  0  0  0  0  0  0
   52.3296   -2.7454    0.0000 C   0  0  0  0  0  0  0  0  0  0  0  0
   52.3490   -1.2455    0.0000 C   0  0  0  0  0  0  0  0  0  0  0  0
   51.0598   -0.4788    0.0000 C   0  0  0  0  0  0  0  0  0  0  0  0
   53.7815   -0.8004    0.0000 C   0  0  0  0  0  0  0  0  0  0  0  0
   54.6474   -2.0253    0.0000 O   0  0  0  0  0  0  0  0  0  0  0  0
   53.7501   -3.2273    0.0000 C   0  0  0  0  0  0  0  0  0  0  0  0
   54.1952   -4.6597    0.0000 O   0  0  0  0  0  0  0  0  0  0  0  0
   55.2526   -0.5075    0.0000 C   0  0  0  0  0  0  0  0  0  0  0  0
   55.7345    0.9129    0.0000 C   0  0  0  0  0  0  0  0  0  0  0  0
   57.2057    1.2058    0.0000 C   0  0  0  0  0  0  0  0  0  0  0  0
   58.1949    0.0782    0.0000 C   0  0  0  0  0  0  0  0  0  0  0  0
   57.7129   -1.3423    0.0000 C   0  0  0  0  0  0  0  0  0  0  0  0
   56.2418   -1.6351    0.0000 C   0  0  0  0  0  0  0  0  0  0  0  0
   59.6660    0.3711    0.0000 O   0  0  0  0  0  0  0  0  0  0  0  0
   54.7453    2.0405    0.0000 O   0  0  0  0  0  0  0  0  0  0  0  0
   53.2742    1.7476    0.0000 C   0  0  0  0  0  0  0  0  0  0  0  0
   52.7923    0.3272    0.0000 C   0  0  0  0  0  0  0  0  0  0  0  0
   51.5460    0.6972    0.0000 C   0  0  0  0  0  0  0  0  0  0  0  0
   51.0185    1.2985    0.0000 C   0  0  0  0  0  0  0  0  0  0  0  0
   51.2755    2.0561    0.0000 C   0  0  0  0  0  0  0  0  0  0  0  0
   52.0601    2.2123    0.0000 C   0  0  0  0  0  0  0  0  0  0  0  0
   49.8246    3.7099    0.0000 O   0  0  0  0  0  0  0  0  0  0  0  0
   47.1339   -2.6782    0.0000 S   0  0  0  0  0  0  0  0  0  0  0  0
   45.8641   -0.4116    0.0000 N   0  0  0  0  0  0  0  0  0  0  0  0
   44.5554   -1.1448    0.0000 C   0  0  0  0  0  0  0  0  0  0  0  0
   43.2662   -0.3781    0.0000 C   0  0  0  0  0  0  0  0  0  0  0  0
   41.9576   -1.1112    0.0000 C   0  0  0  0  0  0  0  0  0  0  0  0
   41.9382   -2.6111    0.0000 O   0  0  0  0  0  0  0  0  0  0  0  0
   40.6683   -0.3445    0.0000 N   0  0  0  0  0  0  0  0  0  0  0  0
   39.3597   -1.0777    0.0000 C   0  0  0  0  0  0  0  0  0  0  0  0
   38.3808   -2.2142    0.0000 C   0  0  0  0  0  0  0  0  0  0  0  0
   37.8496   -3.6170    0.0000 O   0  0  0  0  0  0  0  0  0  0  0  0
   36.8840   -2.1164    0.0000 C   0  0  0  0  0  0  0  0  0  0  0  0
   38.0705   -0.3110    0.0000 C   0  0  0  0  0  0  0  0  0  0  0  0
   38.0899    1.1889    0.0000 O   0  0  0  0  0  0  0  0  0  0  0  0
   36.7619   -1.0441    0.0000 N   0  0  0  0  0  0  0  0  0  0  0  0
   35.4726   -0.2774    0.0000 C   0  0  0  0  0  0  0  0  0  0  0  0
   34.5234    0.8840    0.0000 C   0  0  0  0  0  0  0  0  0  0  0  0
   35.2216    2.2116    0.0000 C   0  0  0  0  0  0  0  0  0  0  0  0
   33.2341    1.6507    0.0000 C   0  0  0  0  0  0  0  0  0  0  0  0
   33.2535    3.1506    0.0000 C   0  0  0  0  0  0  0  0  0  0  0  0
   34.1640   -1.0106    0.0000 C   0  0  0  0  0  0  0  0  0  0  0  0
   34.1446   -2.5104    0.0000 O   0  0  0  0  0  0  0  0  0  0  0  0
   32.8748   -0.2438    0.0000 N   0  0  0  0  0  0  0  0  0  0  0  0
   31.5662   -0.9770    0.0000 C   0  0  0  0  0  0  0  0  0  0  0  0
   30.5872   -2.1135    0.0000 C   0  0  0  0  0  0  0  0  0  0  0  0
   29.1135   -1.8340    0.0000 C   0  0  0  0  0  0  0  0  0  0  0  0
   28.1345   -2.9705    0.0000 C   0  0  0  0  0  0  0  0  0  0  0  0
   27.8242   -1.0673    0.0000 C   0  0  0  0  0  0  0  0  0  0  0  0
   30.2769   -0.2103    0.0000 C   0  0  0  0  0  0  0  0  0  0  0  0
   30.2963    1.2896    0.0000 O   0  0  0  0  0  0  0  0  0  0  0  0
   28.9683   -0.9434    0.0000 N   0  0  0  0  0  0  0  0  0  0  0  0
   27.6791   -0.1767    0.0000 C   0  0  0  0  0  0  0  0  0  0  0  0
   26.7298    0.9847    0.0000 C   0  0  0  0  0  0  0  0  0  0  0  0
   27.2610    2.3875    0.0000 C   0  0  0  0  0  0  0  0  0  0  0  0
   26.3117    3.5489    0.0000 C   0  0  0  0  0  0  0  0  0  0  0  0
   26.8429    4.9517    0.0000 C   0  0  0  0  0  0  0  0  0  0  0  0
   25.8937    6.1132    0.0000 N   0  0  0  0  0  0  0  0  0  0  0  0
   26.3704   -0.9099    0.0000 C   0  0  0  0  0  0  0  0  0  0  0  0
   26.1684   -2.3962    0.0000 O   0  0  0  0  0  0  0  0  0  0  0  0
   25.0812   -0.1431    0.0000 N   0  0  0  0  0  0  0  0  0  0  0  0
   23.7726   -0.8763    0.0000 C   0  0  0  0  0  0  0  0  0  0  0  0
   22.7936   -2.0128    0.0000 C   0  0  0  0  0  0  0  0  0  0  0  0
   22.4833   -0.1096    0.0000 C   0  0  0  0  0  0  0  0  0  0  0  0
   22.5027    1.3903    0.0000 O   0  0  0  0  0  0  0  0  0  0  0  0
   21.1747   -0.8427    0.0000 N   0  0  0  0  0  0  0  0  0  0  0  0
   19.8855   -0.0760    0.0000 C   0  0  0  0  0  0  0  0  0  0  0  0
   18.9362    1.0854    0.0000 C   0  0  0  0  0  0  0  0  0  0  0  0
   19.4674    2.4882    0.0000 O   0  0  0  0  0  0  0  0  0  0  0  0
   18.5769   -0.8092    0.0000 C   0  0  0  0  0  0  0  0  0  0  0  0
   18.5575   -2.3090    0.0000 O   0  0  0  0  0  0  0  0  0  0  0  0
   17.2876   -0.0425    0.0000 N   0  0  0  0  0  0  0  0  0  0  0  0
   15.9790   -0.7756    0.0000 C   0  0  0  0  0  0  0  0  0  0  0  0
   15.0001   -1.9121    0.0000 C   0  0  0  0  0  0  0  0  0  0  0  0
   13.5032   -1.8143    0.0000 C   0  0  0  0  0  0  0  0  0  0  0  0
   14.6898   -0.0089    0.0000 C   0  0  0  0  0  0  0  0  0  0  0  0
   14.7091    1.4910    0.0000 O   0  0  0  0  0  0  0  0  0  0  0  0
   13.3811   -0.7420    0.0000 N   0  0  0  0  0  0  0  0  0  0  0  0
   12.0919    0.0247    0.0000 C   0  0  0  0  0  0  0  0  0  0  0  0
   11.1426    1.1861    0.0000 C   0  0  0  0  0  0  0  0  0  0  0  0
   11.6738    2.5889    0.0000 C   0  0  0  0  0  0  0  0  0  0  0  0
   10.7246    3.7503    0.0000 O   0  0  0  0  0  0  0  0  0  0  0  0
   13.1543    2.8303    0.0000 O   0  0  0  0  0  0  0  0  0  0  0  0
   10.7833   -0.7085    0.0000 C   0  0  0  0  0  0  0  0  0  0  0  0
   10.7639   -2.2084    0.0000 O   0  0  0  0  0  0  0  0  0  0  0  0
    9.4940    0.0582    0.0000 N   0  0  0  0  0  0  0  0  0  0  0  0
    8.1854   -0.6749    0.0000 C   0  0  0  0  0  0  0  0  0  0  0  0
    7.2065   -1.8114    0.0000 C   0  0  0  0  0  0  0  0  0  0  0  0
    5.7327   -1.5319    0.0000 C   0  0  0  0  0  0  0  0  0  0  0  0
    5.2380   -0.1159    0.0000 C   0  0  0  0  0  0  0  0  0  0  0  0
    3.7642    0.1637    0.0000 C   0  0  0  0  0  0  0  0  0  0  0  0
    2.7853   -0.9728    0.0000 C   0  0  0  0  0  0  0  0  0  0  0  0
    1.3116   -0.6933    0.0000 O   0  0  0  0  0  0  0  0  0  0  0  0
    3.2801   -2.3889    0.0000 C   0  0  0  0  0  0  0  0  0  0  0  0
    4.7538   -2.6684    0.0000 C   0  0  0  0  0  0  0  0  0  0  0  0
    6.8962    0.0918    0.0000 C   0  0  0  0  0  0  0  0  0  0  0  0
    7.0982    1.5781    0.0000 O   0  0  0  0  0  0  0  0  0  0  0  0
    5.5876   -0.6414    0.0000 N   0  0  0  0  0  0  0  0  0  0  0  0
    4.2983    0.1254    0.0000 C   0  0  0  0  0  0  0  0  0  0  0  0
    3.3491    1.2868    0.0000 C   0  0  0  0  0  0  0  0  0  0  0  0
    4.0473    2.6144    0.0000 C   0  0  0  0  0  0  0  0  0  0  0  0
    2.0598    2.0535    0.0000 C   0  0  0  0  0  0  0  0  0  0  0  0
    2.0792    3.5534    0.0000 C   0  0  0  0  0  0  0  0  0  0  0  0
    2.9897   -0.6078    0.0000 C   0  0  0  0  0  0  0  0  0  0  0  0
    2.6080   -2.0584    0.0000 O   0  0  0  0  0  0  0  0  0  0  0  0
    1.7005    0.1589    0.0000 N   0  0  0  0  0  0  0  0  0  0  0  0
    0.3918   -0.5742    0.0000 C   0  0  0  0  0  0  0  0  0  0  0  0
   -0.5871   -1.7107    0.0000 C   0  0  0  0  0  0  0  0  0  0  0  0
   -2.0608   -1.4312    0.0000 C   0  0  0  0  0  0  0  0  0  0  0  0
   -3.0398   -2.5677    0.0000 C   0  0  0  0  0  0  0  0  0  0  0  0
   -4.5135   -2.2882    0.0000 N   0  0  0  0  0  0  0  0  0  0  0  0
   -5.4924   -3.4247    0.0000 C   0  0  0  0  0  0  0  0  0  0  0  0
   -6.9211   -2.9676    0.0000 N   0  0  0  0  0  0  0  0  0  0  0  0
   -4.9977   -4.8408    0.0000 N   0  0  0  0  0  0  0  0  0  0  0  0
   -0.8974    0.1925    0.0000 C   0  0  0  0  0  0  0  0  0  0  0  0
   -0.8780    1.6924    0.0000 O   0  0  0  0  0  0  0  0  0  0  0  0
   -2.2060   -0.5407    0.0000 N   0  0  0  0  0  0  0  0  0  0  0  0
   -3.4953    0.2261    0.0000 C   0  0  0  0  0  0  0  0  0  0  0  0
   -4.4445    1.3875    0.0000 C   0  0  0  0  0  0  0  0  0  0  0  0
   -3.9133    2.7903    0.0000 C   0  0  0  0  0  0  0  0  0  0  0  0
   -4.8626    3.9517    0.0000 C   0  0  0  0  0  0  0  0  0  0  0  0
   -4.3314    5.3545    0.0000 C   0  0  0  0  0  0  0  0  0  0  0  0
   -5.2806    6.5159    0.0000 N   0  0  0  0  0  0  0  0  0  0  0  0
   -4.8039   -0.5071    0.0000 C   0  0  0  0  0  0  0  0  0  0  0  0
   -5.1856   -1.9577    0.0000 O   0  0  0  0  0  0  0  0  0  0  0  0
   -6.0931    0.2596    0.0000 N   0  0  0  0  0  0  0  0  0  0  0  0
   -7.4017   -0.4735    0.0000 C   0  0  0  0  0  0  0  0  0  0  0  0
   -8.3807   -1.6101    0.0000 C   0  0  0  0  0  0  0  0  0  0  0  0
   -9.8544   -1.3305    0.0000 C   0  0  0  0  0  0  0  0  0  0  0  0
  -10.8334   -2.4670    0.0000 C   0  0  0  0  0  0  0  0  0  0  0  0
  -11.1436   -0.5638    0.0000 C   0  0  0  0  0  0  0  0  0  0  0  0
   -8.6910    0.2932    0.0000 C   0  0  0  0  0  0  0  0  0  0  0  0
   -8.6716    1.7931    0.0000 O   0  0  0  0  0  0  0  0  0  0  0  0
   -9.9996   -0.4400    0.0000 N   0  0  0  0  0  0  0  0  0  0  0  0
  -11.2888    0.3267    0.0000 C   0  0  0  0  0  0  0  0  0  0  0  0
  -12.2381    1.4882    0.0000 C   0  0  0  0  0  0  0  0  0  0  0  0
  -11.7069    2.8910    0.0000 C   0  0  0  0  0  0  0  0  0  0  0  0
  -12.6562    4.0524    0.0000 C   0  0  0  0  0  0  0  0  0  0  0  0
  -12.1250    5.4552    0.0000 N   0  0  0  0  0  0  0  0  0  0  0  0
  -14.1366    3.8110    0.0000 O   0  0  0  0  0  0  0  0  0  0  0  0
  -12.5975   -0.4064    0.0000 C   0  0  0  0  0  0  0  0  0  0  0  0
  -12.7995   -1.8927    0.0000 O   0  0  0  0  0  0  0  0  0  0  0  0
  -13.8867    0.3603    0.0000 N   0  0  0  0  0  0  0  0  0  0  0  0
  -15.1953   -0.3729    0.0000 C   0  0  0  0  0  0  0  0  0  0  0  0
  -16.1743   -1.5094    0.0000 C   0  0  0  0  0  0  0  0  0  0  0  0
  -17.6480   -1.2298    0.0000 C   0  0  0  0  0  0  0  0  0  0  0  0
  -18.6269   -2.3663    0.0000 C   0  0  0  0  0  0  0  0  0  0  0  0
  -20.1007   -2.0868    0.0000 N   0  0  0  0  0  0  0  0  0  0  0  0
  -21.0796   -3.2233    0.0000 C   0  0  0  0  0  0  0  0  0  0  0  0
  -22.5083   -2.7662    0.0000 N   0  0  0  0  0  0  0  0  0  0  0  0
  -20.5848   -4.6394    0.0000 N   0  0  0  0  0  0  0  0  0  0  0  0
  -16.4846    0.3939    0.0000 C   0  0  0  0  0  0  0  0  0  0  0  0
  -16.4652    1.8937    0.0000 O   0  0  0  0  0  0  0  0  0  0  0  0
  -17.7932   -0.3393    0.0000 N   0  0  0  0  0  0  0  0  0  0  0  0
  -19.0824    0.4274    0.0000 C   0  0  0  0  0  0  0  0  0  0  0  0
  -20.0317    1.5889    0.0000 C   0  0  0  0  0  0  0  0  0  0  0  0
  -19.5005    2.9917    0.0000 C   0  0  0  0  0  0  0  0  0  0  0  0
  -20.4497    4.1531    0.0000 C   0  0  0  0  0  0  0  0  0  0  0  0
  -19.9185    5.5559    0.0000 O   0  0  0  0  0  0  0  0  0  0  0  0
  -21.9302    3.9117    0.0000 O   0  0  0  0  0  0  0  0  0  0  0  0
  -20.3910   -0.3057    0.0000 C   0  0  0  0  0  0  0  0  0  0  0  0
  -20.7728   -1.7563    0.0000 O   0  0  0  0  0  0  0  0  0  0  0  0
  -21.6803    0.4610    0.0000 N   0  0  0  0  0  0  0  0  0  0  0  0
  -22.9889   -0.2722    0.0000 C   0  0  0  0  0  0  0  0  0  0  0  0
  -23.9678   -1.4087    0.0000 C   0  0  0  0  0  0  0  0  0  0  0  0
  -25.4416   -1.1291    0.0000 C   0  0  0  0  0  0  0  0  0  0  0  0
  -26.4205   -2.2657    0.0000 C   0  0  0  0  0  0  0  0  0  0  0  0
  -27.9173   -2.1678    0.0000 N   0  0  0  0  0  0  0  0  0  0  0  0
  -25.9257   -3.6817    0.0000 O   0  0  0  0  0  0  0  0  0  0  0  0
  -24.2781    0.4946    0.0000 C   0  0  0  0  0  0  0  0  0  0  0  0
  -24.2588    1.9944    0.0000 O   0  0  0  0  0  0  0  0  0  0  0  0
  -25.5868   -0.2386    0.0000 N   0  0  0  0  0  0  0  0  0  0  0  0
  -26.8760    0.5281    0.0000 C   0  0  0  0  0  0  0  0  0  0  0  0
  -27.8253    1.6895    0.0000 C   0  0  0  0  0  0  0  0  0  0  0  0
  -27.2941    3.0923    0.0000 C   0  0  0  0  0  0  0  0  0  0  0  0
  -28.2433    4.2538    0.0000 C   0  0  0  0  0  0  0  0  0  0  0  0
  -27.7121    5.6566    0.0000 N   0  0  0  0  0  0  0  0  0  0  0  0
  -29.7238    4.0124    0.0000 O   0  0  0  0  0  0  0  0  0  0  0  0
  -28.1846   -0.2050    0.0000 C   0  0  0  0  0  0  0  0  0  0  0  0
  -28.3867   -1.6914    0.0000 O   0  0  0  0  0  0  0  0  0  0  0  0
  -29.4739    0.5617    0.0000 N   0  0  0  0  0  0  0  0  0  0  0  0
  -30.7825   -0.1715    0.0000 C   0  0  0  0  0  0  0  0  0  0  0  0
  -31.7614   -1.3080    0.0000 C   0  0  0  0  0  0  0  0  0  0  0  0
  -33.2351   -1.0285    0.0000 C   0  0  0  0  0  0  0  0  0  0  0  0
  -34.2141   -2.1650    0.0000 C   0  0  0  0  0  0  0  0  0  0  0  0
  -35.6878   -1.8854    0.0000 N   0  0  0  0  0  0  0  0  0  0  0  0
  -36.6668   -3.0219    0.0000 C   0  0  0  0  0  0  0  0  0  0  0  0
  -38.0954   -2.5649    0.0000 N   0  0  0  0  0  0  0  0  0  0  0  0
  -36.1720   -4.4380    0.0000 N   0  0  0  0  0  0  0  0  0  0  0  0
  -32.0717    0.5952    0.0000 C   0  0  0  0  0  0  0  0  0  0  0  0
  -32.0523    2.0951    0.0000 O   0  0  0  0  0  0  0  0  0  0  0  0
  -33.3803   -0.1379    0.0000 N   0  0  0  0  0  0  0  0  0  0  0  0
  -34.6696    0.6288    0.0000 C   0  0  0  0  0  0  0  0  0  0  0  0
  -35.6188    1.7902    0.0000 C   0  0  0  0  0  0  0  0  0  0  0  0
  -35.9782   -0.1043    0.0000 C   0  0  0  0  0  0  0  0  0  0  0  0
  -36.3599   -1.5550    0.0000 O   0  0  0  0  0  0  0  0  0  0  0  0
  -37.2674    0.6624    0.0000 N   0  0  0  0  0  0  0  0  0  0  0  0
  -38.5761   -0.0708    0.0000 C   0  0  0  0  0  0  0  0  0  0  0  0
  -39.5550   -1.2073    0.0000 C   0  0  0  0  0  0  0  0  0  0  0  0
  -41.0287   -0.9278    0.0000 C   0  0  0  0  0  0  0  0  0  0  0  0
  -42.0077   -2.0643    0.0000 C   0  0  0  0  0  0  0  0  0  0  0  0
  -43.4814   -1.7847    0.0000 C   0  0  0  0  0  0  0  0  0  0  0  0
  -44.4603   -2.9213    0.0000 N   0  0  0  0  0  0  0  0  0  0  0  0
  -39.8653    0.6959    0.0000 C   0  0  0  0  0  0  0  0  0  0  0  0
  -39.8459    2.1958    0.0000 O   0  0  0  0  0  0  0  0  0  0  0  0
  -41.1739   -0.0372    0.0000 N   0  0  0  0  0  0  0  0  0  0  0  0
  -42.4632    0.7295    0.0000 C   0  0  0  0  0  0  0  0  0  0  0  0
  -43.4124    1.8909    0.0000 C   0  0  0  0  0  0  0  0  0  0  0  0
  -42.8812    3.2937    0.0000 C   0  0  0  0  0  0  0  0  0  0  0  0
  -43.8305    4.4551    0.0000 C   0  0  0  0  0  0  0  0  0  0  0  0
  -43.2993    5.8579    0.0000 O   0  0  0  0  0  0  0  0  0  0  0  0
  -45.3109    4.2138    0.0000 O   0  0  0  0  0  0  0  0  0  0  0  0
  -43.7718   -0.0037    0.0000 C   0  0  0  0  0  0  0  0  0  0  0  0
  -44.1535   -1.4543    0.0000 O   0  0  0  0  0  0  0  0  0  0  0  0
  -45.0610    0.7631    0.0000 N   0  0  0  0  0  0  0  0  0  0  0  0
  -46.3696    0.0299    0.0000 C   0  0  0  0  0  0  0  0  0  0  0  0
  -47.3486   -1.1066    0.0000 C   0  0  0  0  0  0  0  0  0  0  0  0
  -48.8223   -0.8271    0.0000 C   0  0  0  0  0  0  0  0  0  0  0  0
  -49.8012   -1.9636    0.0000 C   0  0  0  0  0  0  0  0  0  0  0  0
  -50.1115   -0.0604    0.0000 C   0  0  0  0  0  0  0  0  0  0  0  0
  -47.6589    0.7966    0.0000 C   0  0  0  0  0  0  0  0  0  0  0  0
  -49.0471    0.2285    0.0000 O   0  0  0  0  0  0  0  0  0  0  0  0
  -47.6395    2.2965    0.0000 O   0  0  0  0  0  0  0  0  0  0  0  0
   48.2983    1.0458    0.0000 H   0  0  0  0  0  0  0  0  0  0  0  0
   48.4232   -3.4450    0.0000 H   0  0  0  0  0  0  0  0  0  0  0  0
   51.0017   -4.9784    0.0000 H   0  0  0  0  0  0  0  0  0  0  0  0
   50.7157    0.9812    0.0000 H   0  0  0  0  0  0  0  0  0  0  0  0
   57.6876    2.6263    0.0000 H   0  0  0  0  0  0  0  0  0  0  0  0
   58.7022   -2.4698    0.0000 H   0  0  0  0  0  0  0  0  0  0  0  0
   55.7599   -3.0556    0.0000 H   0  0  0  0  0  0  0  0  0  0  0  0
   60.6552   -0.7565    0.0000 H   0  0  0  0  0  0  0  0  0  0  0  0
   50.8392   -1.3862    0.0000 H   0  0  0  0  0  0  0  0  0  0  0  0
   48.8361    1.0505    0.0000 H   0  0  0  0  0  0  0  0  0  0  0  0
   52.7669    4.2957    0.0000 H   0  0  0  0  0  0  0  0  0  0  0  0
   50.3066    5.1304    0.0000 H   0  0  0  0  0  0  0  0  0  0  0  0
   45.8834    1.0882    0.0000 H   0  0  0  0  0  0  0  0  0  0  0  0
   43.5765   -2.2813    0.0000 H   0  0  0  0  0  0  0  0  0  0  0  0
   45.5047   -2.3062    0.0000 H   0  0  0  0  0  0  0  0  0  0  0  0
   42.3170    0.7833    0.0000 H   0  0  0  0  0  0  0  0  0  0  0  0
   44.2452    0.7584    0.0000 H   0  0  0  0  0  0  0  0  0  0  0  0
   40.6877    1.1554    0.0000 H   0  0  0  0  0  0  0  0  0  0  0  0
   40.3090   -2.2391    0.0000 H   0  0  0  0  0  0  0  0  0  0  0  0
   39.6700   -2.9809    0.0000 H   0  0  0  0  0  0  0  0  0  0  0  0
   38.7988   -4.7784    0.0000 H   0  0  0  0  0  0  0  0  0  0  0  0
   35.9281   -3.0712    0.0000 H   0  0  0  0  0  0  0  0  0  0  0  0
   35.6178   -1.1679    0.0000 H   0  0  0  0  0  0  0  0  0  0  0  0
   36.7173   -0.4467    0.0000 H   0  0  0  0  0  0  0  0  0  0  0  0
   36.5598   -2.5304    0.0000 H   0  0  0  0  0  0  0  0  0  0  0  0
   36.5828    0.7313    0.0000 H   0  0  0  0  0  0  0  0  0  0  0  0
   33.2985    0.0182    0.0000 H   0  0  0  0  0  0  0  0  0  0  0  0
   34.2644    3.5751    0.0000 H   0  0  0  0  0  0  0  0  0  0  0  0
   36.0335    3.4233    0.0000 H   0  0  0  0  0  0  0  0  0  0  0  0
   36.4277    1.6830    0.0000 H   0  0  0  0  0  0  0  0  0  0  0  0
   31.7604    1.9303    0.0000 H   0  0  0  0  0  0  0  0  0  0  0  0
   32.3793    0.4182    0.0000 H   0  0  0  0  0  0  0  0  0  0  0  0
   31.9643    3.9173    0.0000 H   0  0  0  0  0  0  0  0  0  0  0  0
   33.7847    4.5534    0.0000 H   0  0  0  0  0  0  0  0  0  0  0  0
   34.7511    3.2360    0.0000 H   0  0  0  0  0  0  0  0  0  0  0  0
   32.5306    1.2162    0.0000 H   0  0  0  0  0  0  0  0  0  0  0  0
   32.5154   -2.1384    0.0000 H   0  0  0  0  0  0  0  0  0  0  0  0
   30.2310   -3.5706    0.0000 H   0  0  0  0  0  0  0  0  0  0  0  0
   31.8764   -2.8802    0.0000 H   0  0  0  0  0  0  0  0  0  0  0  0
   28.9238   -0.3460    0.0000 H   0  0  0  0  0  0  0  0  0  0  0  0
   26.6370   -3.0559    0.0000 H   0  0  0  0  0  0  0  0  0  0  0  0
   27.6033   -4.3733    0.0000 H   0  0  0  0  0  0  0  0  0  0  0  0
   29.3207   -3.8886    0.0000 H   0  0  0  0  0  0  0  0  0  0  0  0
   27.4801    0.3927    0.0000 H   0  0  0  0  0  0  0  0  0  0  0  0
   26.3482   -1.3345    0.0000 H   0  0  0  0  0  0  0  0  0  0  0  0
   27.1260   -2.3948    0.0000 H   0  0  0  0  0  0  0  0  0  0  0  0
   28.5866   -2.3940    0.0000 H   0  0  0  0  0  0  0  0  0  0  0  0
   28.7892    0.8320    0.0000 H   0  0  0  0  0  0  0  0  0  0  0  0
   25.4406    1.7514    0.0000 H   0  0  0  0  0  0  0  0  0  0  0  0
   25.4085    0.2746    0.0000 H   0  0  0  0  0  0  0  0  0  0  0  0
   28.3712    3.3962    0.0000 H   0  0  0  0  0  0  0  0  0  0  0  0
   28.6341    1.7837    0.0000 H   0  0  0  0  0  0  0  0  0  0  0  0
   24.9386    4.1528    0.0000 H   0  0  0  0  0  0  0  0  0  0  0  0
   25.2016    2.5402    0.0000 H   0  0  0  0  0  0  0  0  0  0  0  0
   27.8219    6.0882    0.0000 H   0  0  0  0  0  0  0  0  0  0  0  0
   28.2160    4.3479    0.0000 H   0  0  0  0  0  0  0  0  0  0  0  0
   26.4249    7.5160    0.0000 H   0  0  0  0  0  0  0  0  0  0  0  0
   24.6044    6.8799    0.0000 H   0  0  0  0  0  0  0  0  0  0  0  0
   24.7835    5.1045    0.0000 H   0  0  0  0  0  0  0  0  0  0  0  0
   24.9176    1.3479    0.0000 H   0  0  0  0  0  0  0  0  0  0  0  0
   24.7218   -2.0377    0.0000 H   0  0  0  0  0  0  0  0  0  0  0  0
   21.3176   -2.2801    0.0000 H   0  0  0  0  0  0  0  0  0  0  0  0
   22.2624   -3.4156    0.0000 H   0  0  0  0  0  0  0  0  0  0  0  0
   24.0829   -2.7795    0.0000 H   0  0  0  0  0  0  0  0  0  0  0  0
   20.9727   -2.3291    0.0000 H   0  0  0  0  0  0  0  0  0  0  0  0
   20.8644    1.0605    0.0000 H   0  0  0  0  0  0  0  0  0  0  0  0
   17.7501    2.0036    0.0000 H   0  0  0  0  0  0  0  0  0  0  0  0
   17.7114    0.2195    0.0000 H   0  0  0  0  0  0  0  0  0  0  0  0
   18.5182    3.6496    0.0000 H   0  0  0  0  0  0  0  0  0  0  0  0
   17.1240    1.4486    0.0000 H   0  0  0  0  0  0  0  0  0  0  0  0
   16.9283   -1.9370    0.0000 H   0  0  0  0  0  0  0  0  0  0  0  0
   14.4689   -3.3149    0.0000 H   0  0  0  0  0  0  0  0  0  0  0  0
   16.2893   -2.6788    0.0000 H   0  0  0  0  0  0  0  0  0  0  0  0
   12.5474   -2.7691    0.0000 H   0  0  0  0  0  0  0  0  0  0  0  0
   12.2371   -0.8659    0.0000 H   0  0  0  0  0  0  0  0  0  0  0  0
   13.3366   -0.1446    0.0000 H   0  0  0  0  0  0  0  0  0  0  0  0
   13.1791   -2.2284    0.0000 H   0  0  0  0  0  0  0  0  0  0  0  0
   13.0708    1.1612    0.0000 H   0  0  0  0  0  0  0  0  0  0  0  0
    9.9565    2.1043    0.0000 H   0  0  0  0  0  0  0  0  0  0  0  0
    9.9178    0.3202    0.0000 H   0  0  0  0  0  0  0  0  0  0  0  0
    9.3304    1.5493    0.0000 H   0  0  0  0  0  0  0  0  0  0  0  0
    9.1347   -1.8363    0.0000 H   0  0  0  0  0  0  0  0  0  0  0  0
    6.6753   -3.2142    0.0000 H   0  0  0  0  0  0  0  0  0  0  0  0
    8.4957   -2.5782    0.0000 H   0  0  0  0  0  0  0  0  0  0  0  0
    6.0711    1.1315    0.0000 H   0  0  0  0  0  0  0  0  0  0  0  0
    2.9415    1.4179    0.0000 H   0  0  0  0  0  0  0  0  0  0  0  0
    0.4785   -1.9407    0.0000 H   0  0  0  0  0  0  0  0  0  0  0  0
    2.3011   -3.5254    0.0000 H   0  0  0  0  0  0  0  0  0  0  0  0
    5.2486   -4.0845    0.0000 H   0  0  0  0  0  0  0  0  0  0  0  0
    5.2058   -2.0920    0.0000 H   0  0  0  0  0  0  0  0  0  0  0  0
    5.4085    1.1341    0.0000 H   0  0  0  0  0  0  0  0  0  0  0  0
    2.1242    0.4209    0.0000 H   0  0  0  0  0  0  0  0  0  0  0  0
    3.0901    3.9779    0.0000 H   0  0  0  0  0  0  0  0  0  0  0  0
    4.8592    3.8261    0.0000 H   0  0  0  0  0  0  0  0  0  0  0  0
    5.2533    2.0857    0.0000 H   0  0  0  0  0  0  0  0  0  0  0  0
    0.5861    2.3330    0.0000 H   0  0  0  0  0  0  0  0  0  0  0  0
    1.2050    0.8209    0.0000 H   0  0  0  0  0  0  0  0  0  0  0  0
    0.7900    4.3201    0.0000 H   0  0  0  0  0  0  0  0  0  0  0  0
    2.6104    4.9562    0.0000 H   0  0  0  0  0  0  0  0  0  0  0  0
    3.5768    3.6388    0.0000 H   0  0  0  0  0  0  0  0  0  0  0  0
    1.3563    1.6189    0.0000 H   0  0  0  0  0  0  0  0  0  0  0  0
    1.3411   -1.7357    0.0000 H   0  0  0  0  0  0  0  0  0  0  0  0
   -0.9433   -3.1678    0.0000 H   0  0  0  0  0  0  0  0  0  0  0  0
    0.5991   -2.6289    0.0000 H   0  0  0  0  0  0  0  0  0  0  0  0
   -3.3501   -0.6645    0.0000 H   0  0  0  0  0  0  0  0  0  0  0  0
   -2.2505    0.0567    0.0000 H   0  0  0  0  0  0  0  0  0  0  0  0
   -3.5710   -3.9705    0.0000 H   0  0  0  0  0  0  0  0  0  0  0  0
   -1.8536   -3.4859    0.0000 H   0  0  0  0  0  0  0  0  0  0  0  0
   -5.3362   -1.0339    0.0000 H   0  0  0  0  0  0  0  0  0  0  0  0
   -7.9451   -4.2817    0.0000 H   0  0  0  0  0  0  0  0  0  0  0  0
   -7.3060   -1.6726    0.0000 H   0  0  0  0  0  0  0  0  0  0  0  0
   -5.9766   -5.9773    0.0000 H   0  0  0  0  0  0  0  0  0  0  0  0
   -3.5239   -5.1203    0.0000 H   0  0  0  0  0  0  0  0  0  0  0  0
   -2.5878   -1.9913    0.0000 H   0  0  0  0  0  0  0  0  0  0  0  0
   -2.3851    1.2348    0.0000 H   0  0  0  0  0  0  0  0  0  0  0  0
   -5.7338    2.1542    0.0000 H   0  0  0  0  0  0  0  0  0  0  0  0
   -5.6694    0.5216    0.0000 H   0  0  0  0  0  0  0  0  0  0  0  0
   -2.8031    3.7990    0.0000 H   0  0  0  0  0  0  0  0  0  0  0  0
   -2.5402    2.1864    0.0000 H   0  0  0  0  0  0  0  0  0  0  0  0
   -6.2357    4.5555    0.0000 H   0  0  0  0  0  0  0  0  0  0  0  0
   -5.9728    2.9430    0.0000 H   0  0  0  0  0  0  0  0  0  0  0  0
   -3.3524    6.4910    0.0000 H   0  0  0  0  0  0  0  0  0  0  0  0
   -2.9583    4.7506    0.0000 H   0  0  0  0  0  0  0  0  0  0  0  0
   -4.7494    7.9187    0.0000 H   0  0  0  0  0  0  0  0  0  0  0  0
   -6.5699    7.2826    0.0000 H   0  0  0  0  0  0  0  0  0  0  0  0
   -6.3908    5.5072    0.0000 H   0  0  0  0  0  0  0  0  0  0  0  0
   -6.2567    1.7507    0.0000 H   0  0  0  0  0  0  0  0  0  0  0  0
   -6.4525   -1.6350    0.0000 H   0  0  0  0  0  0  0  0  0  0  0  0
   -8.7369   -3.0671    0.0000 H   0  0  0  0  0  0  0  0  0  0  0  0
   -6.9442   -2.0420    0.0000 H   0  0  0  0  0  0  0  0  0  0  0  0
  -10.0441    0.1574    0.0000 H   0  0  0  0  0  0  0  0  0  0  0  0
  -12.3309   -2.5524    0.0000 H   0  0  0  0  0  0  0  0  0  0  0  0
  -11.3645   -3.8698    0.0000 H   0  0  0  0  0  0  0  0  0  0  0  0
   -9.6472   -3.3852    0.0000 H   0  0  0  0  0  0  0  0  0  0  0  0
  -11.4878    0.8962    0.0000 H   0  0  0  0  0  0  0  0  0  0  0  0
  -12.6196   -0.8311    0.0000 H   0  0  0  0  0  0  0  0  0  0  0  0
  -11.8419   -1.8914    0.0000 H   0  0  0  0  0  0  0  0  0  0  0  0
  -10.3813   -1.8906    0.0000 H   0  0  0  0  0  0  0  0  0  0  0  0
  -10.1787    1.3355    0.0000 H   0  0  0  0  0  0  0  0  0  0  0  0
  -13.4243    2.4063    0.0000 H   0  0  0  0  0  0  0  0  0  0  0  0
  -13.5594    0.7781    0.0000 H   0  0  0  0  0  0  0  0  0  0  0  0
  -10.7280    4.0275    0.0000 H   0  0  0  0  0  0  0  0  0  0  0  0
  -10.3338    2.2871    0.0000 H   0  0  0  0  0  0  0  0  0  0  0  0
  -13.0742    6.6166    0.0000 H   0  0  0  0  0  0  0  0  0  0  0  0
  -10.6445    5.6966    0.0000 H   0  0  0  0  0  0  0  0  0  0  0  0
  -14.0503    1.8514    0.0000 H   0  0  0  0  0  0  0  0  0  0  0  0
  -14.2461   -1.5343    0.0000 H   0  0  0  0  0  0  0  0  0  0  0  0
  -16.5305   -2.9664    0.0000 H   0  0  0  0  0  0  0  0  0  0  0  0
  -14.8850   -2.2761    0.0000 H   0  0  0  0  0  0  0  0  0  0  0  0
  -18.9372   -0.4631    0.0000 H   0  0  0  0  0  0  0  0  0  0  0  0
  -17.8377    0.2581    0.0000 H   0  0  0  0  0  0  0  0  0  0  0  0
  -19.1581   -3.7691    0.0000 H   0  0  0  0  0  0  0  0  0  0  0  0
  -17.4408   -3.2845    0.0000 H   0  0  0  0  0  0  0  0  0  0  0  0
  -20.9234   -0.8326    0.0000 H   0  0  0  0  0  0  0  0  0  0  0  0
  -23.5323   -4.0803    0.0000 H   0  0  0  0  0  0  0  0  0  0  0  0
  -22.8931   -1.4712    0.0000 H   0  0  0  0  0  0  0  0  0  0  0  0
  -21.5638   -5.7759    0.0000 H   0  0  0  0  0  0  0  0  0  0  0  0
  -19.1111   -4.9189    0.0000 H   0  0  0  0  0  0  0  0  0  0  0  0
  -18.1749   -1.7899    0.0000 H   0  0  0  0  0  0  0  0  0  0  0  0
  -17.9722    1.4361    0.0000 H   0  0  0  0  0  0  0  0  0  0  0  0
  -21.2178    2.5070    0.0000 H   0  0  0  0  0  0  0  0  0  0  0  0
  -21.2565    0.7230    0.0000 H   0  0  0  0  0  0  0  0  0  0  0  0
  -18.5215    4.1282    0.0000 H   0  0  0  0  0  0  0  0  0  0  0  0
  -18.1274    2.3878    0.0000 H   0  0  0  0  0  0  0  0  0  0  0  0
  -21.8439    1.9520    0.0000 H   0  0  0  0  0  0  0  0  0  0  0  0
  -22.0396   -1.4336    0.0000 H   0  0  0  0  0  0  0  0  0  0  0  0
  -24.4990   -2.8115    0.0000 H   0  0  0  0  0  0  0  0  0  0  0  0
  -22.5314   -1.8406    0.0000 H   0  0  0  0  0  0  0  0  0  0  0  0
  -26.7308   -0.3624    0.0000 H   0  0  0  0  0  0  0  0  0  0  0  0
  -25.6313    0.3588    0.0000 H   0  0  0  0  0  0  0  0  0  0  0  0
  -28.8732   -3.1226    0.0000 H   0  0  0  0  0  0  0  0  0  0  0  0
  -28.7616   -0.7317    0.0000 H   0  0  0  0  0  0  0  0  0  0  0  0
  -25.9685   -1.6892    0.0000 H   0  0  0  0  0  0  0  0  0  0  0  0
  -25.7658    1.5368    0.0000 H   0  0  0  0  0  0  0  0  0  0  0  0
  -29.0114    2.6077    0.0000 H   0  0  0  0  0  0  0  0  0  0  0  0
  -29.0501    0.8237    0.0000 H   0  0  0  0  0  0  0  0  0  0  0  0
  -26.3151    4.2289    0.0000 H   0  0  0  0  0  0  0  0  0  0  0  0
  -25.9210    2.4885    0.0000 H   0  0  0  0  0  0  0  0  0  0  0  0
  -28.6614    6.8180    0.0000 H   0  0  0  0  0  0  0  0  0  0  0  0
  -26.2317    5.8979    0.0000 H   0  0  0  0  0  0  0  0  0  0  0  0
  -29.6375    2.0527    0.0000 H   0  0  0  0  0  0  0  0  0  0  0  0
  -29.8332   -1.3329    0.0000 H   0  0  0  0  0  0  0  0  0  0  0  0
  -32.1177   -2.7651    0.0000 H   0  0  0  0  0  0  0  0  0  0  0  0
  -30.4722   -2.0747    0.0000 H   0  0  0  0  0  0  0  0  0  0  0  0
  -34.5244   -0.2617    0.0000 H   0  0  0  0  0  0  0  0  0  0  0  0
  -33.4249    0.4595    0.0000 H   0  0  0  0  0  0  0  0  0  0  0  0
  -34.7453   -3.5678    0.0000 H   0  0  0  0  0  0  0  0  0  0  0  0
  -33.0279   -3.0831    0.0000 H   0  0  0  0  0  0  0  0  0  0  0  0
  -36.5105   -0.6312    0.0000 H   0  0  0  0  0  0  0  0  0  0  0  0
  -39.1194   -3.8789    0.0000 H   0  0  0  0  0  0  0  0  0  0  0  0
  -38.4803   -1.2698    0.0000 H   0  0  0  0  0  0  0  0  0  0  0  0
  -37.1509   -5.5745    0.0000 H   0  0  0  0  0  0  0  0  0  0  0  0
  -34.6983   -4.7175    0.0000 H   0  0  0  0  0  0  0  0  0  0  0  0
  -33.7621   -1.5885    0.0000 H   0  0  0  0  0  0  0  0  0  0  0  0
  -33.6906    1.7653    0.0000 H   0  0  0  0  0  0  0  0  0  0  0  0
  -35.0876    3.1930    0.0000 H   0  0  0  0  0  0  0  0  0  0  0  0
  -36.8050    2.7084    0.0000 H   0  0  0  0  0  0  0  0  0  0  0  0
  -36.8437    0.9244    0.0000 H   0  0  0  0  0  0  0  0  0  0  0  0
  -37.4310    2.1534    0.0000 H   0  0  0  0  0  0  0  0  0  0  0  0
  -37.6268   -1.2322    0.0000 H   0  0  0  0  0  0  0  0  0  0  0  0
  -39.9112   -2.6644    0.0000 H   0  0  0  0  0  0  0  0  0  0  0  0
  -38.1185   -1.6393    0.0000 H   0  0  0  0  0  0  0  0  0  0  0  0
  -42.2149   -0.0096    0.0000 H   0  0  0  0  0  0  0  0  0  0  0  0
  -41.2184    0.5602    0.0000 H   0  0  0  0  0  0  0  0  0  0  0  0
  -42.3639   -3.5214    0.0000 H   0  0  0  0  0  0  0  0  0  0  0  0
  -40.8215   -2.9824    0.0000 H   0  0  0  0  0  0  0  0  0  0  0  0
  -44.8545   -1.1809    0.0000 H   0  0  0  0  0  0  0  0  0  0  0  0
  -43.1251   -0.3277    0.0000 H   0  0  0  0  0  0  0  0  0  0  0  0
  -45.8890   -2.4642    0.0000 H   0  0  0  0  0  0  0  0  0  0  0  0
  -44.9915   -4.3241    0.0000 H   0  0  0  0  0  0  0  0  0  0  0  0
  -43.2742   -3.8394    0.0000 H   0  0  0  0  0  0  0  0  0  0  0  0
  -41.5556   -1.4878    0.0000 H   0  0  0  0  0  0  0  0  0  0  0  0
  -41.3530    1.7382    0.0000 H   0  0  0  0  0  0  0  0  0  0  0  0
  -44.5986    2.8091    0.0000 H   0  0  0  0  0  0  0  0  0  0  0  0
  -44.6373    1.0251    0.0000 H   0  0  0  0  0  0  0  0  0  0  0  0
  -41.9023    4.4302    0.0000 H   0  0  0  0  0  0  0  0  0  0  0  0
  -41.5081    2.6899    0.0000 H   0  0  0  0  0  0  0  0  0  0  0  0
  -45.2246    2.2541    0.0000 H   0  0  0  0  0  0  0  0  0  0  0  0
  -45.5690   -1.2386    0.0000 H   0  0  0  0  0  0  0  0  0  0  0  0
  -47.7048   -2.5637    0.0000 H   0  0  0  0  0  0  0  0  0  0  0  0
  -45.9755   -1.7105    0.0000 H   0  0  0  0  0  0  0  0  0  0  0  0
  -48.8292    0.6729    0.0000 H   0  0  0  0  0  0  0  0  0  0  0  0
  -51.2981   -1.8658    0.0000 H   0  0  0  0  0  0  0  0  0  0  0  0
  -50.3324   -3.3664    0.0000 H   0  0  0  0  0  0  0  0  0  0  0  0
  -48.6151   -2.8817    0.0000 H   0  0  0  0  0  0  0  0  0  0  0  0
  -51.4998   -0.6285    0.0000 H   0  0  0  0  0  0  0  0  0  0  0  0
  -51.0608    1.1011    0.0000 H   0  0  0  0  0  0  0  0  0  0  0  0
  -49.1326    1.0762    0.0000 H   0  0  0  0  0  0  0  0  0  0  0  0
  1  2  1  0
  2  3  1  0
  3  4  2  0
  4  5  1  0
  5  6  2  0
  6  7  1  0
  7  8  2  0
  7  9  1  0
  9 10  1  0
 10 11  1  0
 11 12  2  0
  9 13  1  0
 13 14  1  0
 14 15  2  0
 15 16  1  0
 16 17  2  0
 17 18  1  0
 16 19  1  0
 14 20  1  0
 20 21  1  0
 21 22  2  0
 22 23  1  0
 23 24  2  0
 24 25  1  0
 25 26  2  0
 25 27  1  0
  1 28  2  0
  1 29  1  0
 29 30  1  0
 30 31  1  0
 31 32  1  0
 32 33  2  0
 32 34  1  0
 34 35  1  0
 35 36  1  0
 36 37  1  0
 36 38  1  0
 35 39  1  0
 39 40  2  0
 39 41  1  0
 41 42  1  0
 42 43  1  0
 43 44  1  0
 43 45  1  0
 45 46  1  0
 42 47  1  0
 47 48  2  0
 47 49  1  0
 49 50  1  0
 50 51  1  0
 51 52  1  0
 52 53  1  0
 52 54  1  0
 50 55  1  0
 55 56  2  0
 55 57  1  0
 57 58  1  0
 58 59  1  0
 59 60  1  0
 60 61  1  0
 61 62  1  0
 62 63  1  0
 58 64  1  0
 64 65  2  0
 64 66  1  0
 66 67  1  0
 67 68  1  0
 67 69  1  0
 69 70  2  0
 69 71  1  0
 71 72  1  0
 72 73  1  0
 73 74  1  0
 72 75  1  0
 75 76  2  0
 75 77  1  0
 77 78  1  0
 78 79  1  0
 79 80  1  0
 78 81  1  0
 81 82  2  0
 81 83  1  0
 83 84  1  0
 84 85  1  0
 85 86  1  0
 86 87  2  0
 86 88  1  0
 84 89  1  0
 89 90  2  0
 89 91  1  0
 91 92  1  0
 92 93  1  0
 93 94  1  0
 94 95  2  0
 95 96  1  0
 96 97  2  0
 97 98  1  0
 97 99  1  0
 99100  2  0
 92101  1  0
101102  2  0
101103  1  0
103104  1  0
104105  1  0
105106  1  0
105107  1  0
107108  1  0
104109  1  0
109110  2  0
109111  1  0
111112  1  0
112113  1  0
113114  1  0
114115  1  0
115116  1  0
116117  1  0
117118  2  3
117119  1  0
112120  1  0
120121  2  0
120122  1  0
122123  1  0
123124  1  0
124125  1  0
125126  1  0
126127  1  0
127128  1  0
123129  1  0
129130  2  0
129131  1  0
131132  1  0
132133  1  0
133134  1  0
134135  1  0
134136  1  0
132137  1  0
137138  2  0
137139  1  0
139140  1  0
140141  1  0
141142  1  0
142143  1  0
143144  1  0
143145  2  0
140146  1  0
146147  2  0
146148  1  0
148149  1  0
149150  1  0
150151  1  0
151152  1  0
152153  1  0
153154  1  0
154155  2  3
154156  1  0
149157  1  0
157158  2  0
157159  1  0
159160  1  0
160161  1  0
161162  1  0
162163  1  0
163164  2  0
163165  1  0
160166  1  0
166167  2  0
166168  1  0
168169  1  0
169170  1  0
170171  1  0
171172  1  0
172173  1  0
172174  2  0
169175  1  0
175176  2  0
175177  1  0
177178  1  0
178179  1  0
179180  1  0
180181  1  0
181182  1  0
181183  2  0
178184  1  0
184185  2  0
184186  1  0
186187  1  0
187188  1  0
188189  1  0
189190  1  0
190191  1  0
191192  1  0
192193  2  3
192194  1  0
187195  1  0
195196  2  0
195197  1  0
197198  1  0
198199  1  0
198200  1  0
200201  2  0
200202  1  0
202203  1  0
203204  1  0
204205  1  0
205206  1  0
206207  1  0
207208  1  0
203209  1  0
209210  2  0
209211  1  0
211212  1  0
212213  1  0
213214  1  0
214215  1  0
215216  2  0
215217  1  0
212218  1  0
218219  2  0
218220  1  0
220221  1  0
221222  1  0
222223  1  0
223224  1  0
223225  1  0
221226  1  0
226227  2  0
226228  1  0
  8  3  1  0
100 94  1  0
 11  6  1  0
 18 13  2  0
 22  9  1  0
 26 21  1  0
  2229  1  0
  4230  1  0
  5231  1  0
  8232  1  0
 15233  1  0
 17234  1  0
 18235  1  0
 19236  1  0
 23237  1  0
 24238  1  0
 26239  1  0
 27240  1  0
 29241  1  0
 30242  1  0
 30243  1  0
 31244  1  0
 31245  1  0
 34246  1  0
 35247  1  1
 36248  1  1
 37249  1  0
 38250  1  0
 38251  1  0
 38252  1  0
 41253  1  0
 42254  1  6
 43255  1  1
 44256  1  0
 44257  1  0
 44258  1  0
 45259  1  0
 45260  1  0
 46261  1  0
 46262  1  0
 46263  1  0
 49264  1  0
 50265  1  1
 51266  1  0
 51267  1  0
 52268  1  0
 53269  1  0
 53270  1  0
 53271  1  0
 54272  1  0
 54273  1  0
 54274  1  0
 57275  1  0
 58276  1  6
 59277  1  0
 59278  1  0
 60279  1  0
 60280  1  0
 61281  1  0
 61282  1  0
 62283  1  0
 62284  1  0
 63285  1  0
 63286  1  0
 63287  1  0
 66288  1  0
 67289  1  1
 68290  1  0
 68291  1  0
 68292  1  0
 71293  1  0
 72294  1  6
 73295  1  0
 73296  1  0
 74297  1  0
 77298  1  0
 78299  1  1
 79300  1  0
 79301  1  0
 80302  1  0
 80303  1  0
 80304  1  0
 83305  1  0
 84306  1  6
 85307  1  0
 85308  1  0
 91309  1  0
 92310  1  1
 93311  1  0
 93312  1  0
 95313  1  0
 96314  1  0
 98315  1  0
 99316  1  0
100317  1  0
103318  1  0
104319  1  6
105320  1  1
106321  1  0
106322  1  0
106323  1  0
107324  1  0
107325  1  0
108326  1  0
108327  1  0
108328  1  0
111329  1  0
112330  1  1
113331  1  0
113332  1  0
114333  1  0
114334  1  0
115335  1  0
115336  1  0
116337  1  0
118338  1  0
118339  1  0
119340  1  0
119341  1  0
122342  1  0
123343  1  6
124344  1  0
124345  1  0
125346  1  0
125347  1  0
126348  1  0
126349  1  0
127350  1  0
127351  1  0
128352  1  0
128353  1  0
128354  1  0
131355  1  0
132356  1  1
133357  1  0
133358  1  0
134359  1  0
135360  1  0
135361  1  0
135362  1  0
136363  1  0
136364  1  0
136365  1  0
139366  1  0
140367  1  6
141368  1  0
141369  1  0
142370  1  0
142371  1  0
144372  1  0
144373  1  0
148374  1  0
149375  1  1
150376  1  0
150377  1  0
151378  1  0
151379  1  0
152380  1  0
152381  1  0
153382  1  0
155383  1  0
155384  1  0
156385  1  0
156386  1  0
159387  1  0
160388  1  6
161389  1  0
161390  1  0
162391  1  0
162392  1  0
168393  1  0
169394  1  1
170395  1  0
170396  1  0
171397  1  0
171398  1  0
173399  1  0
173400  1  0
177401  1  0
178402  1  6
179403  1  0
179404  1  0
180405  1  0
180406  1  0
182407  1  0
182408  1  0
186409  1  0
187410  1  1
188411  1  0
188412  1  0
189413  1  0
189414  1  0
190415  1  0
190416  1  0
191417  1  0
193418  1  0
193419  1  0
194420  1  0
194421  1  0
197422  1  0
198423  1  6
199424  1  0
199425  1  0
199426  1  0
202427  1  0
203428  1  1
204429  1  0
204430  1  0
205431  1  0
205432  1  0
206433  1  0
206434  1  0
207435  1  0
207436  1  0
208437  1  0
208438  1  0
208439  1  0
211440  1  0
212441  1  6
213442  1  0
213443  1  0
214444  1  0
214445  1  0
220446  1  0
221447  1  1
222448  1  0
222449  1  0
223450  1  0
224451  1  0
224452  1  0
224453  1  0
225454  1  0
225455  1  0
225456  1  0
M  CHG  8  63   1  88  -1 118   1 128   1 155   1 165  -1 193   1 208   1
M  CHG  2 217  -1 228  -1
M  END
