
     RDKit          2D

305307  0  0  0  0  0  0  0  0999 V2000
  -25.3526   -7.0369    0.0000 N   0  0  0  0  0  0  0  0  0  0  0  0
  -23.8641   -6.8518    0.0000 C   0  0  0  0  0  0  0  0  0  0  0  0
  -23.2801   -5.4701    0.0000 C   0  0  0  0  0  0  0  0  0  0  0  0
  -21.7915   -5.2851    0.0000 C   0  0  0  0  0  0  0  0  0  0  0  0
  -21.0396   -6.5830    0.0000 O   0  0  0  0  0  0  0  0  0  0  0  0
  -21.2076   -3.9034    0.0000 N   0  0  0  0  0  0  0  0  0  0  0  0
  -19.7190   -3.7183    0.0000 C   0  0  0  0  0  0  0  0  0  0  0  0
  -19.7952   -5.2164    0.0000 C   0  0  0  0  0  0  0  0  0  0  0  0
  -18.5360   -6.0314    0.0000 C   0  0  0  0  0  0  0  0  0  0  0  0
  -18.6122   -7.5295    0.0000 C   0  0  0  0  0  0  0  0  0  0  0  0
  -17.3529   -8.3445    0.0000 N   0  0  0  0  0  0  0  0  0  0  0  0
  -17.4292   -9.8426    0.0000 C   0  0  0  0  0  0  0  0  0  0  0  0
  -16.1699  -10.6576    0.0000 N   0  0  0  0  0  0  0  0  0  0  0  0
  -18.7646  -10.5256    0.0000 N   0  0  0  0  0  0  0  0  0  0  0  0
  -18.3836   -3.0353    0.0000 C   0  0  0  0  0  0  0  0  0  0  0  0
  -17.2330   -3.9978    0.0000 O   0  0  0  0  0  0  0  0  0  0  0  0
  -18.3073   -1.5372    0.0000 N   0  0  0  0  0  0  0  0  0  0  0  0
  -16.9719   -0.8542    0.0000 C   0  0  0  0  0  0  0  0  0  0  0  0
  -16.5311   -2.2880    0.0000 C   0  0  0  0  0  0  0  0  0  0  0  0
  -15.0691   -2.6232    0.0000 C   0  0  0  0  0  0  0  0  0  0  0  0
  -14.6283   -4.0570    0.0000 C   0  0  0  0  0  0  0  0  0  0  0  0
  -13.1662   -4.3922    0.0000 O   0  0  0  0  0  0  0  0  0  0  0  0
  -15.6496   -5.1556    0.0000 O   0  0  0  0  0  0  0  0  0  0  0  0
  -15.9505    0.2444    0.0000 C   0  0  0  0  0  0  0  0  0  0  0  0
  -14.4885   -0.0908    0.0000 O   0  0  0  0  0  0  0  0  0  0  0  0
  -16.3913    1.6782    0.0000 N   0  0  0  0  0  0  0  0  0  0  0  0
  -15.3700    2.7767    0.0000 C   0  0  0  0  0  0  0  0  0  0  0  0
  -16.6292    3.5918    0.0000 C   0  0  0  0  0  0  0  0  0  0  0  0
  -17.9647    2.9088    0.0000 C   0  0  0  0  0  0  0  0  0  0  0  0
  -19.2240    3.7238    0.0000 C   0  0  0  0  0  0  0  0  0  0  0  0
  -18.9860    1.8102    0.0000 C   0  0  0  0  0  0  0  0  0  0  0  0
  -14.0345    3.4598    0.0000 C   0  0  0  0  0  0  0  0  0  0  0  0
  -14.1879    4.2420    0.0000 O   0  0  0  0  0  0  0  0  0  0  0  0
  -12.7753    2.6447    0.0000 N   0  0  0  0  0  0  0  0  0  0  0  0
  -11.4398    3.3278    0.0000 C   0  0  0  0  0  0  0  0  0  0  0  0
  -12.3443    4.5243    0.0000 C   0  0  0  0  0  0  0  0  0  0  0  0
  -13.8329    4.3393    0.0000 C   0  0  0  0  0  0  0  0  0  0  0  0
  -14.7374    5.5358    0.0000 C   0  0  0  0  0  0  0  0  0  0  0  0
  -16.2260    5.3508    0.0000 N   0  0  0  0  0  0  0  0  0  0  0  0
  -17.1305    6.5473    0.0000 C   0  0  0  0  0  0  0  0  0  0  0  0
  -18.6191    6.3622    0.0000 N   0  0  0  0  0  0  0  0  0  0  0  0
  -16.5465    7.9290    0.0000 N   0  0  0  0  0  0  0  0  0  0  0  0
   -9.9513    3.5128    0.0000 C   0  0  0  0  0  0  0  0  0  0  0  0
   -9.7189    4.9947    0.0000 O   0  0  0  0  0  0  0  0  0  0  0  0
   -9.0467    2.3163    0.0000 N   0  0  0  0  0  0  0  0  0  0  0  0
   -7.5582    2.5014    0.0000 C   0  0  0  0  0  0  0  0  0  0  0  0
   -7.9989    3.9351    0.0000 C   0  0  0  0  0  0  0  0  0  0  0  0
   -9.4610    4.2703    0.0000 C   0  0  0  0  0  0  0  0  0  0  0  0
   -9.9017    5.7041    0.0000 C   0  0  0  0  0  0  0  0  0  0  0  0
  -11.3638    6.0393    0.0000 N   0  0  0  0  0  0  0  0  0  0  0  0
  -11.8045    7.4731    0.0000 C   0  0  0  0  0  0  0  0  0  0  0  0
  -13.2666    7.8083    0.0000 N   0  0  0  0  0  0  0  0  0  0  0  0
  -10.7832    8.5717    0.0000 N   0  0  0  0  0  0  0  0  0  0  0  0
   -6.0961    2.1662    0.0000 C   0  0  0  0  0  0  0  0  0  0  0  0
   -5.3710    3.4792    0.0000 O   0  0  0  0  0  0  0  0  0  0  0  0
   -5.6553    0.7324    0.0000 N   0  0  0  0  0  0  0  0  0  0  0  0
   -4.1933    0.3972    0.0000 C   0  0  0  0  0  0  0  0  0  0  0  0
   -4.1171    1.8952    0.0000 C   0  0  0  0  0  0  0  0  0  0  0  0
   -5.3763    2.7103    0.0000 C   0  0  0  0  0  0  0  0  0  0  0  0
   -5.3001    4.2083    0.0000 C   0  0  0  0  0  0  0  0  0  0  0  0
   -6.4506    5.1708    0.0000 O   0  0  0  0  0  0  0  0  0  0  0  0
   -3.9646    4.8914    0.0000 O   0  0  0  0  0  0  0  0  0  0  0  0
   -2.9340   -0.4179    0.0000 C   0  0  0  0  0  0  0  0  0  0  0  0
   -1.5986    0.2652    0.0000 O   0  0  0  0  0  0  0  0  0  0  0  0
   -3.0102   -1.9159    0.0000 N   0  0  0  0  0  0  0  0  0  0  0  0
   -1.7510   -2.7310    0.0000 C   0  0  0  0  0  0  0  0  0  0  0  0
   -2.7723   -3.8295    0.0000 C   0  0  0  0  0  0  0  0  0  0  0  0
   -4.1826   -3.3186    0.0000 C   0  0  0  0  0  0  0  0  0  0  0  0
   -3.3563   -5.2112    0.0000 C   0  0  0  0  0  0  0  0  0  0  0  0
   -4.8448   -5.3963    0.0000 C   0  0  0  0  0  0  0  0  0  0  0  0
   -0.2889   -3.0661    0.0000 C   0  0  0  0  0  0  0  0  0  0  0  0
   -0.0262   -4.5430    0.0000 O   0  0  0  0  0  0  0  0  0  0  0  0
    0.7324   -1.9676    0.0000 N   0  0  0  0  0  0  0  0  0  0  0  0
    2.1945   -2.3027    0.0000 C   0  0  0  0  0  0  0  0  0  0  0  0
    2.9106   -3.6208    0.0000 C   0  0  0  0  0  0  0  0  0  0  0  0
    3.9834   -4.6692    0.0000 C   0  0  0  0  0  0  0  0  0  0  0  0
    5.3175   -5.3548    0.0000 C   0  0  0  0  0  0  0  0  0  0  0  0
    6.7945   -5.6167    0.0000 C   0  0  0  0  0  0  0  0  0  0  0  0
    1.1487   -3.3781    0.0000 C   0  0  0  0  0  0  0  0  0  0  0  0
    1.8987   -0.8322    0.0000 C   0  0  0  0  0  0  0  0  0  0  0  0
    0.4027   -0.7224    0.0000 O   0  0  0  0  0  0  0  0  0  0  0  0
    2.0495    0.6602    0.0000 N   0  0  0  0  0  0  0  0  0  0  0  0
    2.6335    2.0418    0.0000 C   0  0  0  0  0  0  0  0  0  0  0  0
    1.1339    2.0059    0.0000 C   0  0  0  0  0  0  0  0  0  0  0  0
    0.3530    3.2866    0.0000 C   0  0  0  0  0  0  0  0  0  0  0  0
   -1.1466    3.2506    0.0000 C   0  0  0  0  0  0  0  0  0  0  0  0
    0.0572    4.7571    0.0000 C   0  0  0  0  0  0  0  0  0  0  0  0
    3.5987    3.1900    0.0000 C   0  0  0  0  0  0  0  0  0  0  0  0
    2.6073    4.3156    0.0000 O   0  0  0  0  0  0  0  0  0  0  0  0
    4.8596    4.0026    0.0000 N   0  0  0  0  0  0  0  0  0  0  0  0
    6.3039    4.4075    0.0000 C   0  0  0  0  0  0  0  0  0  0  0  0
    5.3408    5.5574    0.0000 C   0  0  0  0  0  0  0  0  0  0  0  0
    5.8552    6.9665    0.0000 S   0  0  0  0  0  0  0  0  0  0  0  0
    7.8034    4.3686    0.0000 C   0  0  0  0  0  0  0  0  0  0  0  0
    8.0653    5.8456    0.0000 O   0  0  0  0  0  0  0  0  0  0  0  0
    9.2248    3.8895    0.0000 N   0  0  0  0  0  0  0  0  0  0  0  0
   10.4419    3.0127    0.0000 C   0  0  0  0  0  0  0  0  0  0  0  0
   10.7405    4.4827    0.0000 C   0  0  0  0  0  0  0  0  0  0  0  0
   12.1629    4.9590    0.0000 C   0  0  0  0  0  0  0  0  0  0  0  0
   12.4615    6.4290    0.0000 C   0  0  0  0  0  0  0  0  0  0  0  0
   13.8839    6.9054    0.0000 N   0  0  0  0  0  0  0  0  0  0  0  0
   14.1825    8.3753    0.0000 C   0  0  0  0  0  0  0  0  0  0  0  0
   15.6049    8.8517    0.0000 N   0  0  0  0  0  0  0  0  0  0  0  0
   13.0588    9.3690    0.0000 N   0  0  0  0  0  0  0  0  0  0  0  0
   11.3464    1.8161    0.0000 C   0  0  0  0  0  0  0  0  0  0  0  0
   12.6645    2.5323    0.0000 O   0  0  0  0  0  0  0  0  0  0  0  0
   11.8581    0.4061    0.0000 N   0  0  0  0  0  0  0  0  0  0  0  0
   11.9314   -1.0921    0.0000 C   0  0  0  0  0  0  0  0  0  0  0  0
   11.5599   -2.5454    0.0000 C   0  0  0  0  0  0  0  0  0  0  0  0
   10.7765   -3.8245    0.0000 C   0  0  0  0  0  0  0  0  0  0  0  0
    9.6509   -4.8160    0.0000 C   0  0  0  0  0  0  0  0  0  0  0  0
    8.2830   -5.4316    0.0000 C   0  0  0  0  0  0  0  0  0  0  0  0
   13.2087   -1.8786    0.0000 C   0  0  0  0  0  0  0  0  0  0  0  0
   13.2669   -0.4091    0.0000 C   0  0  0  0  0  0  0  0  0  0  0  0
   13.5251    1.0685    0.0000 O   0  0  0  0  0  0  0  0  0  0  0  0
   14.5261   -1.2241    0.0000 N   0  0  0  0  0  0  0  0  0  0  0  0
   15.8616   -0.5411    0.0000 C   0  0  0  0  0  0  0  0  0  0  0  0
   16.8829    0.5575    0.0000 C   0  0  0  0  0  0  0  0  0  0  0  0
   18.3450    0.2223    0.0000 C   0  0  0  0  0  0  0  0  0  0  0  0
   19.4756    1.2081    0.0000 C   0  0  0  0  0  0  0  0  0  0  0  0
   20.7625    0.4375    0.0000 N   0  0  0  0  0  0  0  0  0  0  0  0
   20.4273   -1.0245    0.0000 C   0  0  0  0  0  0  0  0  0  0  0  0
   18.9332   -1.1575    0.0000 N   0  0  0  0  0  0  0  0  0  0  0  0
   17.1209   -1.3561    0.0000 C   0  0  0  0  0  0  0  0  0  0  0  0
   17.0447   -2.8542    0.0000 O   0  0  0  0  0  0  0  0  0  0  0  0
   18.4563   -0.6731    0.0000 N   0  0  0  0  0  0  0  0  0  0  0  0
   19.7156   -1.4881    0.0000 C   0  0  0  0  0  0  0  0  0  0  0  0
   20.6201   -2.6847    0.0000 C   0  0  0  0  0  0  0  0  0  0  0  0
   20.0362   -4.0663    0.0000 C   0  0  0  0  0  0  0  0  0  0  0  0
   20.8107   -5.3509    0.0000 C   0  0  0  0  0  0  0  0  0  0  0  0
   19.8283   -6.4845    0.0000 N   0  0  0  0  0  0  0  0  0  0  0  0
   18.4467   -5.9005    0.0000 C   0  0  0  0  0  0  0  0  0  0  0  0
   18.5751   -4.4060    0.0000 N   0  0  0  0  0  0  0  0  0  0  0  0
   21.0511   -0.8051    0.0000 C   0  0  0  0  0  0  0  0  0  0  0  0
   21.4875    0.6300    0.0000 O   0  0  0  0  0  0  0  0  0  0  0  0
   22.3103   -1.6201    0.0000 N   0  0  0  0  0  0  0  0  0  0  0  0
   23.6458   -0.9371    0.0000 C   0  0  0  0  0  0  0  0  0  0  0  0
   24.6671    0.1615    0.0000 C   0  0  0  0  0  0  0  0  0  0  0  0
   26.1522    0.3726    0.0000 O   0  0  0  0  0  0  0  0  0  0  0  0
   24.9050   -1.7521    0.0000 C   0  0  0  0  0  0  0  0  0  0  0  0
   24.8288   -3.2502    0.0000 O   0  0  0  0  0  0  0  0  0  0  0  0
   26.2405   -1.0691    0.0000 N   0  0  0  0  0  0  0  0  0  0  0  0
   27.4997   -1.8841    0.0000 C   0  0  0  0  0  0  0  0  0  0  0  0
   28.4043   -3.0807    0.0000 C   0  0  0  0  0  0  0  0  0  0  0  0
   29.6636   -3.8958    0.0000 O   0  0  0  0  0  0  0  0  0  0  0  0
   27.8203   -4.4624    0.0000 C   0  0  0  0  0  0  0  0  0  0  0  0
   28.8352   -1.2011    0.0000 C   0  0  0  0  0  0  0  0  0  0  0  0
   30.1844   -1.8566    0.0000 O   0  0  0  0  0  0  0  0  0  0  0  0
   28.9114    0.2969    0.0000 O   0  0  0  0  0  0  0  0  0  0  0  0
  -25.9366   -8.4185    0.0000 H   0  0  0  0  0  0  0  0  0  0  0  0
  -26.2572   -5.8403    0.0000 H   0  0  0  0  0  0  0  0  0  0  0  0
  -23.9403   -8.3499    0.0000 H   0  0  0  0  0  0  0  0  0  0  0  0
  -22.4020   -7.1870    0.0000 H   0  0  0  0  0  0  0  0  0  0  0  0
  -24.7422   -5.1350    0.0000 H   0  0  0  0  0  0  0  0  0  0  0  0
  -23.2039   -3.9721    0.0000 H   0  0  0  0  0  0  0  0  0  0  0  0
  -22.1121   -2.7068    0.0000 H   0  0  0  0  0  0  0  0  0  0  0  0
  -20.1598   -2.2846    0.0000 H   0  0  0  0  0  0  0  0  0  0  0  0
  -20.3792   -6.5981    0.0000 H   0  0  0  0  0  0  0  0  0  0  0  0
  -21.2950   -5.2450    0.0000 H   0  0  0  0  0  0  0  0  0  0  0  0
  -17.0739   -6.3666    0.0000 H   0  0  0  0  0  0  0  0  0  0  0  0
  -17.9520   -4.6498    0.0000 H   0  0  0  0  0  0  0  0  0  0  0  0
  -19.1962   -8.9112    0.0000 H   0  0  0  0  0  0  0  0  0  0  0  0
  -20.1042   -7.3750    0.0000 H   0  0  0  0  0  0  0  0  0  0  0  0
  -16.0175   -7.6615    0.0000 H   0  0  0  0  0  0  0  0  0  0  0  0
  -16.2461  -12.1557    0.0000 H   0  0  0  0  0  0  0  0  0  0  0  0
  -14.8344   -9.9746    0.0000 H   0  0  0  0  0  0  0  0  0  0  0  0
  -18.8408  -12.0237    0.0000 H   0  0  0  0  0  0  0  0  0  0  0  0
  -20.0239   -9.7106    0.0000 H   0  0  0  0  0  0  0  0  0  0  0  0
  -19.5666   -0.7222    0.0000 H   0  0  0  0  0  0  0  0  0  0  0  0
  -17.7238    0.4437    0.0000 H   0  0  0  0  0  0  0  0  0  0  0  0
  -16.4242   -3.7842    0.0000 H   0  0  0  0  0  0  0  0  0  0  0  0
  -17.9306   -2.8278    0.0000 H   0  0  0  0  0  0  0  0  0  0  0  0
  -13.5805   -2.4381    0.0000 H   0  0  0  0  0  0  0  0  0  0  0  0
  -14.9928   -1.1251    0.0000 H   0  0  0  0  0  0  0  0  0  0  0  0
  -17.8833    1.8326    0.0000 H   0  0  0  0  0  0  0  0  0  0  0  0
  -14.4654    1.5802    0.0000 H   0  0  0  0  0  0  0  0  0  0  0  0
  -17.3812    4.8897    0.0000 H   0  0  0  0  0  0  0  0  0  0  0  0
  -15.9041    4.9049    0.0000 H   0  0  0  0  0  0  0  0  0  0  0  0
  -17.5492    1.4675    0.0000 H   0  0  0  0  0  0  0  0  0  0  0  0
  -20.6327    3.2086    0.0000 H   0  0  0  0  0  0  0  0  0  0  0  0
  -20.1285    4.9204    0.0000 H   0  0  0  0  0  0  0  0  0  0  0  0
  -18.3442    4.9387    0.0000 H   0  0  0  0  0  0  0  0  0  0  0  0
  -20.4780    1.9646    0.0000 H   0  0  0  0  0  0  0  0  0  0  0  0
  -19.5700    0.4285    0.0000 H   0  0  0  0  0  0  0  0  0  0  0  0
  -17.6368    1.1547    0.0000 H   0  0  0  0  0  0  0  0  0  0  0  0
  -12.8515    1.1467    0.0000 H   0  0  0  0  0  0  0  0  0  0  0  0
  -10.9990    1.8940    0.0000 H   0  0  0  0  0  0  0  0  0  0  0  0
  -12.6070    6.0012    0.0000 H   0  0  0  0  0  0  0  0  0  0  0  0
  -11.2138    5.5102    0.0000 H   0  0  0  0  0  0  0  0  0  0  0  0
  -15.1683    3.6562    0.0000 H   0  0  0  0  0  0  0  0  0  0  0  0
  -13.7522    2.8414    0.0000 H   0  0  0  0  0  0  0  0  0  0  0  0
  -15.1782    6.9696    0.0000 H   0  0  0  0  0  0  0  0  0  0  0  0
  -13.4952    6.3766    0.0000 H   0  0  0  0  0  0  0  0  0  0  0  0
  -17.1269    4.1515    0.0000 H   0  0  0  0  0  0  0  0  0  0  0  0
  -19.5236    7.5588    0.0000 H   0  0  0  0  0  0  0  0  0  0  0  0
  -19.2030    4.9806    0.0000 H   0  0  0  0  0  0  0  0  0  0  0  0
  -17.4511    9.1256    0.0000 H   0  0  0  0  0  0  0  0  0  0  0  0
  -15.0580    8.1141    0.0000 H   0  0  0  0  0  0  0  0  0  0  0  0
   -9.6307    0.9346    0.0000 H   0  0  0  0  0  0  0  0  0  0  0  0
   -7.6344    1.0033    0.0000 H   0  0  0  0  0  0  0  0  0  0  0  0
   -7.7407    5.4127    0.0000 H   0  0  0  0  0  0  0  0  0  0  0  0
   -6.5440    4.3003    0.0000 H   0  0  0  0  0  0  0  0  0  0  0  0
  -10.9495    4.0853    0.0000 H   0  0  0  0  0  0  0  0  0  0  0  0
   -9.8974    2.8352    0.0000 H   0  0  0  0  0  0  0  0  0  0  0  0
   -9.8255    7.2022    0.0000 H   0  0  0  0  0  0  0  0  0  0  0  0
   -8.4469    6.0693    0.0000 H   0  0  0  0  0  0  0  0  0  0  0  0
  -12.6206    5.2205    0.0000 H   0  0  0  0  0  0  0  0  0  0  0  0
  -13.7074    9.2421    0.0000 H   0  0  0  0  0  0  0  0  0  0  0  0
  -14.2879    6.7097    0.0000 H   0  0  0  0  0  0  0  0  0  0  0  0
  -11.2240   10.0055    0.0000 H   0  0  0  0  0  0  0  0  0  0  0  0
   -9.3212    8.2365    0.0000 H   0  0  0  0  0  0  0  0  0  0  0  0
   -6.6767   -0.3662    0.0000 H   0  0  0  0  0  0  0  0  0  0  0  0
   -4.7773   -0.9845    0.0000 H   0  0  0  0  0  0  0  0  0  0  0  0
   -3.5331    3.2769    0.0000 H   0  0  0  0  0  0  0  0  0  0  0  0
   -2.6550    1.5600    0.0000 H   0  0  0  0  0  0  0  0  0  0  0  0
   -6.8384    3.0455    0.0000 H   0  0  0  0  0  0  0  0  0  0  0  0
   -6.2773    1.5110    0.0000 H   0  0  0  0  0  0  0  0  0  0  0  0
   -4.4190   -2.4311    0.0000 H   0  0  0  0  0  0  0  0  0  0  0  0
   -1.1670   -1.3493    0.0000 H   0  0  0  0  0  0  0  0  0  0  0  0
   -1.5131   -4.6446    0.0000 H   0  0  0  0  0  0  0  0  0  0  0  0
   -5.4030   -4.4526    0.0000 H   0  0  0  0  0  0  0  0  0  0  0  0
   -5.4936   -2.6793    0.0000 H   0  0  0  0  0  0  0  0  0  0  0  0
   -4.1844   -1.9952    0.0000 H   0  0  0  0  0  0  0  0  0  0  0  0
   -3.4325   -6.7093    0.0000 H   0  0  0  0  0  0  0  0  0  0  0  0
   -1.8942   -5.5464    0.0000 H   0  0  0  0  0  0  0  0  0  0  0  0
   -5.4288   -6.7779    0.0000 H   0  0  0  0  0  0  0  0  0  0  0  0
   -6.3069   -5.0611    0.0000 H   0  0  0  0  0  0  0  0  0  0  0  0
   -5.1334   -3.9243    0.0000 H   0  0  0  0  0  0  0  0  0  0  0  0
    0.1202   -0.5982    0.0000 H   0  0  0  0  0  0  0  0  0  0  0  0
    2.3962   -5.0298    0.0000 H   0  0  0  0  0  0  0  0  0  0  0  0
    1.4393   -3.9129    0.0000 H   0  0  0  0  0  0  0  0  0  0  0  0
    3.7251   -6.1468    0.0000 H   0  0  0  0  0  0  0  0  0  0  0  0
    2.6636   -5.3820    0.0000 H   0  0  0  0  0  0  0  0  0  0  0  0
    5.6862   -6.8087    0.0000 H   0  0  0  0  0  0  0  0  0  0  0  0
    4.2665   -6.4250    0.0000 H   0  0  0  0  0  0  0  0  0  0  0  0
    6.7556   -7.1162    0.0000 H   0  0  0  0  0  0  0  0  0  0  0  0
   -0.1770   -3.6382    0.0000 H   0  0  0  0  0  0  0  0  0  0  0  0
    1.0356   -4.9561    0.0000 H   0  0  0  0  0  0  0  0  0  0  0  0
    2.2353   -4.6577    0.0000 H   0  0  0  0  0  0  0  0  0  0  0  0
    0.5962    1.0317    0.0000 H   0  0  0  0  0  0  0  0  0  0  0  0
    2.1536    3.4630    0.0000 H   0  0  0  0  0  0  0  0  0  0  0  0
   -0.1859    1.2930    0.0000 H   0  0  0  0  0  0  0  0  0  0  0  0
    1.0651    0.5075    0.0000 H   0  0  0  0  0  0  0  0  0  0  0  0
    1.6728    3.9994    0.0000 H   0  0  0  0  0  0  0  0  0  0  0  0
   -2.0778    4.4266    0.0000 H   0  0  0  0  0  0  0  0  0  0  0  0
   -2.5434    2.7040    0.0000 H   0  0  0  0  0  0  0  0  0  0  0  0
   -1.0323    1.7550    0.0000 H   0  0  0  0  0  0  0  0  0  0  0  0
   -1.2953    5.4059    0.0000 H   0  0  0  0  0  0  0  0  0  0  0  0
    0.2822    6.2402    0.0000 H   0  0  0  0  0  0  0  0  0  0  0  0
    1.5567    4.7931    0.0000 H   0  0  0  0  0  0  0  0  0  0  0  0
    4.2440    5.3704    0.0000 H   0  0  0  0  0  0  0  0  0  0  0  0
    6.9560    5.7583    0.0000 H   0  0  0  0  0  0  0  0  0  0  0  0
    4.0425    6.3087    0.0000 H   0  0  0  0  0  0  0  0  0  0  0  0
    4.1264    4.6770    0.0000 H   0  0  0  0  0  0  0  0  0  0  0  0
    4.8921    8.1165    0.0000 H   0  0  0  0  0  0  0  0  0  0  0  0
    9.9104    5.2237    0.0000 H   0  0  0  0  0  0  0  0  0  0  0  0
   11.9342    3.1643    0.0000 H   0  0  0  0  0  0  0  0  0  0  0  0
   10.3392    5.9280    0.0000 H   0  0  0  0  0  0  0  0  0  0  0  0
    9.2950    4.8832    0.0000 H   0  0  0  0  0  0  0  0  0  0  0  0
   13.6624    4.9202    0.0000 H   0  0  0  0  0  0  0  0  0  0  0  0
   12.5642    3.5137    0.0000 H   0  0  0  0  0  0  0  0  0  0  0  0
   12.2394    7.9125    0.0000 H   0  0  0  0  0  0  0  0  0  0  0  0
   10.9779    6.6504    0.0000 H   0  0  0  0  0  0  0  0  0  0  0  0
   15.0076    5.9118    0.0000 H   0  0  0  0  0  0  0  0  0  0  0  0
   15.9035   10.3217    0.0000 H   0  0  0  0  0  0  0  0  0  0  0  0
   16.7286    7.8581    0.0000 H   0  0  0  0  0  0  0  0  0  0  0  0
   13.3574   10.8389    0.0000 H   0  0  0  0  0  0  0  0  0  0  0  0
   11.6364    8.8926    0.0000 H   0  0  0  0  0  0  0  0  0  0  0  0
   13.2816    0.8790    0.0000 H   0  0  0  0  0  0  0  0  0  0  0  0
   13.0579   -2.4683    0.0000 H   0  0  0  0  0  0  0  0  0  0  0  0
   12.4037   -3.7855    0.0000 H   0  0  0  0  0  0  0  0  0  0  0  0
   12.2307   -4.1925    0.0000 H   0  0  0  0  0  0  0  0  0  0  0  0
   11.3887   -5.1939    0.0000 H   0  0  0  0  0  0  0  0  0  0  0  0
   10.9320   -5.5962    0.0000 H   0  0  0  0  0  0  0  0  0  0  0  0
    9.6494   -6.3160    0.0000 H   0  0  0  0  0  0  0  0  0  0  0  0
    8.6879   -6.8759    0.0000 H   0  0  0  0  0  0  0  0  0  0  0  0
   14.5578   -1.8061    0.0000 H   0  0  0  0  0  0  0  0  0  0  0  0
   13.7048   -3.3808    0.0000 H   0  0  0  0  0  0  0  0  0  0  0  0
   12.4685   -3.3853    0.0000 H   0  0  0  0  0  0  0  0  0  0  0  0
   14.6331   -2.7203    0.0000 H   0  0  0  0  0  0  0  0  0  0  0  0
   14.9571    0.6555    0.0000 H   0  0  0  0  0  0  0  0  0  0  0  0
   17.4669    1.9392    0.0000 H   0  0  0  0  0  0  0  0  0  0  0  0
   15.6237    1.3725    0.0000 H   0  0  0  0  0  0  0  0  0  0  0  0
   19.3425    2.7022    0.0000 H   0  0  0  0  0  0  0  0  0  0  0  0
   22.1424    1.0258    0.0000 H   0  0  0  0  0  0  0  0  0  0  0  0
   21.5436   -2.0265    0.0000 H   0  0  0  0  0  0  0  0  0  0  0  0
   18.8928    0.7620    0.0000 H   0  0  0  0  0  0  0  0  0  0  0  0
   18.6943   -2.5867    0.0000 H   0  0  0  0  0  0  0  0  0  0  0  0
   21.7707   -3.6472    0.0000 H   0  0  0  0  0  0  0  0  0  0  0  0
   21.9674   -2.0252    0.0000 H   0  0  0  0  0  0  0  0  0  0  0  0
   22.3052   -5.4794    0.0000 H   0  0  0  0  0  0  0  0  0  0  0  0
   20.1680   -7.9455    0.0000 H   0  0  0  0  0  0  0  0  0  0  0  0
   17.1621   -6.6750    0.0000 H   0  0  0  0  0  0  0  0  0  0  0  0
   22.4173   -3.1163    0.0000 H   0  0  0  0  0  0  0  0  0  0  0  0
   22.7412    0.2595    0.0000 H   0  0  0  0  0  0  0  0  0  0  0  0
   25.2511    1.5431    0.0000 H   0  0  0  0  0  0  0  0  0  0  0  0
   23.4078    0.9765    0.0000 H   0  0  0  0  0  0  0  0  0  0  0  0
   27.1505    0.9249    0.0000 H   0  0  0  0  0  0  0  0  0  0  0  0
   26.4987    0.4085    0.0000 H   0  0  0  0  0  0  0  0  0  0  0  0
   26.3521   -2.8501    0.0000 H   0  0  0  0  0  0  0  0  0  0  0  0
   29.5519   -2.1148    0.0000 H   0  0  0  0  0  0  0  0  0  0  0  0
   29.7705   -5.3919    0.0000 H   0  0  0  0  0  0  0  0  0  0  0  0
   28.5723   -5.7603    0.0000 H   0  0  0  0  0  0  0  0  0  0  0  0
   26.7990   -5.5610    0.0000 H   0  0  0  0  0  0  0  0  0  0  0  0
   26.4711   -3.8069    0.0000 H   0  0  0  0  0  0  0  0  0  0  0  0
  1  2  1  0
  2  3  1  0
  3  4  1  0
  4  5  2  0
  4  6  1  0
  6  7  1  0
  7  8  1  0
  8  9  1  0
  9 10  1  0
 10 11  1  0
 11 12  1  0
 12 13  2  3
 12 14  1  0
  7 15  1  0
 15 16  2  0
 15 17  1  0
 17 18  1  0
 18 19  1  0
 19 20  1  0
 20 21  1  0
 21 22  2  0
 21 23  1  0
 18 24  1  0
 24 25  2  0
 24 26  1  0
 26 27  1  0
 27 28  1  0
 28 29  1  0
 29 30  1  0
 29 31  1  0
 27 32  1  0
 32 33  2  0
 32 34  1  0
 34 35  1  0
 35 36  1  0
 36 37  1  0
 37 38  1  0
 38 39  1  0
 39 40  1  0
 40 41  2  3
 40 42  1  0
 35 43  1  0
 43 44  2  0
 43 45  1  0
 45 46  1  0
 46 47  1  0
 47 48  1  0
 48 49  1  0
 49 50  1  0
 50 51  1  0
 51 52  2  3
 51 53  1  0
 46 54  1  0
 54 55  2  0
 54 56  1  0
 56 57  1  0
 57 58  1  0
 58 59  1  0
 59 60  1  0
 60 61  2  0
 60 62  1  0
 57 63  1  0
 63 64  2  0
 63 65  1  0
 65 66  1  0
 66 67  1  0
 67 68  1  0
 67 69  1  0
 69 70  1  0
 66 71  1  0
 71 72  2  0
 71 73  1  0
 74 73  1  6
 74 75  1  0
 75 76  1  0
 76 77  1  0
 77 78  1  0
 74 79  1  0
 74 80  1  0
 80 81  2  0
 80 82  1  0
 82 83  1  0
 83 84  1  0
 84 85  1  0
 85 86  1  0
 85 87  1  0
 83 88  1  0
 88 89  2  0
 88 90  1  0
 90 91  1  0
 91 92  1  0
 92 93  1  0
 91 94  1  0
 94 95  2  0
 94 96  1  0
 96 97  1  0
 97 98  1  0
 98 99  1  0
 99100  1  0
100101  1  0
101102  1  0
102103  2  3
102104  1  0
 97105  1  0
105106  2  0
105107  1  0
107108  1  0
108109  1  0
109110  1  0
110111  1  0
111112  1  0
108113  1  0
108114  1  6
114115  2  0
114116  1  0
116117  1  0
117118  1  0
118119  1  0
119120  2  0
120121  1  0
121122  1  0
122123  2  0
117124  1  0
124125  2  0
124126  1  0
126127  1  0
127128  1  0
128129  1  0
129130  2  0
130131  1  0
131132  1  0
132133  2  0
127134  1  0
134135  2  0
134136  1  0
136137  1  0
137138  1  0
138139  1  0
137140  1  0
140141  2  0
140142  1  0
142143  1  0
143144  1  0
144145  1  0
144146  1  0
143147  1  0
147148  2  0
147149  1  0
123119  1  0
133129  1  0
 78112  2  0
  1150  1  0
  1151  1  0
  2152  1  0
  2153  1  0
  3154  1  0
  3155  1  0
  6156  1  0
  7157  1  6
  8158  1  0
  8159  1  0
  9160  1  0
  9161  1  0
 10162  1  0
 10163  1  0
 11164  1  0
 13165  1  0
 13166  1  0
 14167  1  0
 14168  1  0
 17169  1  0
 18170  1  6
 19171  1  0
 19172  1  0
 20173  1  0
 20174  1  0
 26175  1  0
 27176  1  1
 28177  1  0
 28178  1  0
 29179  1  0
 30180  1  0
 30181  1  0
 30182  1  0
 31183  1  0
 31184  1  0
 31185  1  0
 34186  1  0
 35187  1  1
 36188  1  0
 36189  1  0
 37190  1  0
 37191  1  0
 38192  1  0
 38193  1  0
 39194  1  0
 41195  1  0
 41196  1  0
 42197  1  0
 42198  1  0
 45199  1  0
 46200  1  1
 47201  1  0
 47202  1  0
 48203  1  0
 48204  1  0
 49205  1  0
 49206  1  0
 50207  1  0
 52208  1  0
 52209  1  0
 53210  1  0
 53211  1  0
 56212  1  0
 57213  1  1
 58214  1  0
 58215  1  0
 59216  1  0
 59217  1  0
 65218  1  0
 66219  1  6
 67220  1  1
 68221  1  0
 68222  1  0
 68223  1  0
 69224  1  0
 69225  1  0
 70226  1  0
 70227  1  0
 70228  1  0
 73229  1  0
 75230  1  0
 75231  1  0
 76232  1  0
 76233  1  0
 77234  1  0
 77235  1  0
 78236  1  0
 79237  1  0
 79238  1  0
 79239  1  0
 82240  1  0
 83241  1  1
 84242  1  0
 84243  1  0
 85244  1  0
 86245  1  0
 86246  1  0
 86247  1  0
 87248  1  0
 87249  1  0
 87250  1  0
 90251  1  0
 91252  1  1
 92253  1  0
 92254  1  0
 93255  1  0
 96256  1  0
 97257  1  1
 98258  1  0
 98259  1  0
 99260  1  0
 99261  1  0
100262  1  0
100263  1  0
101264  1  0
103265  1  0
103266  1  0
104267  1  0
104268  1  0
107269  1  0
109270  1  0
109271  1  0
110272  1  0
110273  1  0
111274  1  0
111275  1  0
112276  1  0
113277  1  0
113278  1  0
113279  1  0
116280  1  0
117281  1  1
118282  1  0
118283  1  0
120284  1  0
121285  1  0
122286  1  0
126287  1  0
127288  1  6
128289  1  0
128290  1  0
130291  1  0
131292  1  0
132293  1  0
136294  1  0
137295  1  1
138296  1  0
138297  1  0
139298  1  0
142299  1  0
143300  1  6
144301  1  1
145302  1  0
146303  1  0
146304  1  0
146305  1  0
M  CHG  7  13   1  23  -1  41   1  52   1  62  -1 103   1 149  -1
M  END
