
     RDKit          2D

345352  0  0  0  0  0  0  0  0999 V2000
   37.4356   -1.7855    0.0000 C   0  0  0  0  0  0  0  0  0  0  0  0
   38.7335   -1.0336    0.0000 N   0  0  0  0  0  0  0  0  0  0  0  0
   40.0336   -1.7816    0.0000 C   0  0  0  0  0  0  0  0  0  0  0  0
   40.0358   -3.2816    0.0000 C   0  0  0  0  0  0  0  0  0  0  0  0
   41.3360   -4.0297    0.0000 C   0  0  0  0  0  0  0  0  0  0  0  0
   42.6339   -3.2778    0.0000 C   0  0  0  0  0  0  0  0  0  0  0  0
   42.6317   -1.7778    0.0000 C   0  0  0  0  0  0  0  0  0  0  0  0
   41.3316   -1.0297    0.0000 C   0  0  0  0  0  0  0  0  0  0  0  0
   44.0576   -1.3122    0.0000 C   0  0  0  0  0  0  0  0  0  0  0  0
   44.9411   -2.5244    0.0000 O   0  0  0  0  0  0  0  0  0  0  0  0
   44.0612   -3.7392    0.0000 C   0  0  0  0  0  0  0  0  0  0  0  0
   44.5268   -5.1651    0.0000 O   0  0  0  0  0  0  0  0  0  0  0  0
   45.5244   -0.9982    0.0000 C   0  0  0  0  0  0  0  0  0  0  0  0
   45.9858    0.4291    0.0000 C   0  0  0  0  0  0  0  0  0  0  0  0
   47.4526    0.7431    0.0000 C   0  0  0  0  0  0  0  0  0  0  0  0
   48.4579   -0.3701    0.0000 C   0  0  0  0  0  0  0  0  0  0  0  0
   47.9965   -1.7974    0.0000 C   0  0  0  0  0  0  0  0  0  0  0  0
   46.5297   -2.1114    0.0000 C   0  0  0  0  0  0  0  0  0  0  0  0
   49.9247   -0.0561    0.0000 O   0  0  0  0  0  0  0  0  0  0  0  0
   44.9805    1.5423    0.0000 O   0  0  0  0  0  0  0  0  0  0  0  0
   43.5137    1.2283    0.0000 C   0  0  0  0  0  0  0  0  0  0  0  0
   43.0523   -0.1990    0.0000 C   0  0  0  0  0  0  0  0  0  0  0  0
   41.8008    0.1531    0.0000 C   0  0  0  0  0  0  0  0  0  0  0  0
   41.2647    0.7468    0.0000 C   0  0  0  0  0  0  0  0  0  0  0  0
   41.5108    1.5080    0.0000 C   0  0  0  0  0  0  0  0  0  0  0  0
   42.2930    1.6755    0.0000 C   0  0  0  0  0  0  0  0  0  0  0  0
   40.0363    3.1408    0.0000 O   0  0  0  0  0  0  0  0  0  0  0  0
   37.4378   -3.2855    0.0000 S   0  0  0  0  0  0  0  0  0  0  0  0
   36.1354   -1.0374    0.0000 N   0  0  0  0  0  0  0  0  0  0  0  0
   34.8375   -1.7893    0.0000 C   0  0  0  0  0  0  0  0  0  0  0  0
   33.5373   -1.0412    0.0000 C   0  0  0  0  0  0  0  0  0  0  0  0
   32.2394   -1.7931    0.0000 O   0  0  0  0  0  0  0  0  0  0  0  0
   30.9393   -1.0450    0.0000 C   0  0  0  0  0  0  0  0  0  0  0  0
   29.6413   -1.7969    0.0000 C   0  0  0  0  0  0  0  0  0  0  0  0
   28.3412   -1.0488    0.0000 O   0  0  0  0  0  0  0  0  0  0  0  0
   27.0433   -1.8008    0.0000 C   0  0  0  0  0  0  0  0  0  0  0  0
   25.7431   -1.0527    0.0000 C   0  0  0  0  0  0  0  0  0  0  0  0
   24.4452   -1.8046    0.0000 O   0  0  0  0  0  0  0  0  0  0  0  0
   23.1451   -1.0565    0.0000 C   0  0  0  0  0  0  0  0  0  0  0  0
   21.8471   -1.8084    0.0000 C   0  0  0  0  0  0  0  0  0  0  0  0
   20.5470   -1.0603    0.0000 O   0  0  0  0  0  0  0  0  0  0  0  0
   19.2490   -1.8122    0.0000 C   0  0  0  0  0  0  0  0  0  0  0  0
   17.9489   -1.0641    0.0000 C   0  0  0  0  0  0  0  0  0  0  0  0
   16.6510   -1.8160    0.0000 O   0  0  0  0  0  0  0  0  0  0  0  0
   15.3508   -1.0680    0.0000 C   0  0  0  0  0  0  0  0  0  0  0  0
   14.0529   -1.8199    0.0000 C   0  0  0  0  0  0  0  0  0  0  0  0
   12.7528   -1.0718    0.0000 O   0  0  0  0  0  0  0  0  0  0  0  0
   11.4548   -1.8237    0.0000 C   0  0  0  0  0  0  0  0  0  0  0  0
   10.1547   -1.0756    0.0000 C   0  0  0  0  0  0  0  0  0  0  0  0
    8.8568   -1.8275    0.0000 C   0  0  0  0  0  0  0  0  0  0  0  0
    9.0508   -2.6007    0.0000 O   0  0  0  0  0  0  0  0  0  0  0  0
    7.5566   -1.0794    0.0000 N   0  0  0  0  0  0  0  0  0  0  0  0
    6.2587   -1.8313    0.0000 C   0  0  0  0  0  0  0  0  0  0  0  0
    7.2246   -2.9790    0.0000 C   0  0  0  0  0  0  0  0  0  0  0  0
    8.7014   -2.7163    0.0000 C   0  0  0  0  0  0  0  0  0  0  0  0
    9.6673   -3.8640    0.0000 N   0  0  0  0  0  0  0  0  0  0  0  0
    9.5384   -1.4716    0.0000 O   0  0  0  0  0  0  0  0  0  0  0  0
    4.7819   -2.0940    0.0000 C   0  0  0  0  0  0  0  0  0  0  0  0
    4.6273   -3.5860    0.0000 O   0  0  0  0  0  0  0  0  0  0  0  0
    3.8160   -0.9463    0.0000 N   0  0  0  0  0  0  0  0  0  0  0  0
    2.3392   -1.2090    0.0000 C   0  0  0  0  0  0  0  0  0  0  0  0
    2.8543   -2.6178    0.0000 C   0  0  0  0  0  0  0  0  0  0  0  0
    4.3319   -2.8761    0.0000 C   0  0  0  0  0  0  0  0  0  0  0  0
    4.8470   -4.2848    0.0000 C   0  0  0  0  0  0  0  0  0  0  0  0
    6.2820   -4.7213    0.0000 N   0  0  0  0  0  0  0  0  0  0  0  0
    3.8845   -5.4353    0.0000 O   0  0  0  0  0  0  0  0  0  0  0  0
    0.8616   -0.9507    0.0000 C   0  0  0  0  0  0  0  0  0  0  0  0
    0.2061   -2.2999    0.0000 O   0  0  0  0  0  0  0  0  0  0  0  0
    0.3465    0.4581    0.0000 N   0  0  0  0  0  0  0  0  0  0  0  0
   -1.1311    0.7164    0.0000 C   0  0  0  0  0  0  0  0  0  0  0  0
   -1.1289   -0.7836    0.0000 C   0  0  0  0  0  0  0  0  0  0  0  0
    0.1712   -1.5317    0.0000 C   0  0  0  0  0  0  0  0  0  0  0  0
    0.1734   -3.0317    0.0000 C   0  0  0  0  0  0  0  0  0  0  0  0
    1.6488   -1.7900    0.0000 C   0  0  0  0  0  0  0  0  0  0  0  0
   -2.4313    1.4645    0.0000 C   0  0  0  0  0  0  0  0  0  0  0  0
   -3.5087    0.4209    0.0000 O   0  0  0  0  0  0  0  0  0  0  0  0
   -2.4335    2.9645    0.0000 N   0  0  0  0  0  0  0  0  0  0  0  0
   -3.7336    3.7126    0.0000 C   0  0  0  0  0  0  0  0  0  0  0  0
   -3.8266    2.2155    0.0000 C   0  0  0  0  0  0  0  0  0  0  0  0
   -4.2011    0.7630    0.0000 C   0  0  0  0  0  0  0  0  0  0  0  0
   -4.8438   -0.5924    0.0000 C   0  0  0  0  0  0  0  0  0  0  0  0
   -5.7314   -1.8016    0.0000 C   0  0  0  0  0  0  0  0  0  0  0  0
   -6.8318   -2.8209    0.0000 C   0  0  0  0  0  0  0  0  0  0  0  0
   -8.1052   -3.6137    0.0000 C   0  0  0  0  0  0  0  0  0  0  0  0
   -9.5057   -4.1510    0.0000 C   0  0  0  0  0  0  0  0  0  0  0  0
   -2.4860    4.5453    0.0000 C   0  0  0  0  0  0  0  0  0  0  0  0
   -3.9257    5.2002    0.0000 C   0  0  0  0  0  0  0  0  0  0  0  0
   -2.5145    5.7087    0.0000 O   0  0  0  0  0  0  0  0  0  0  0  0
   -4.3958    6.6246    0.0000 N   0  0  0  0  0  0  0  0  0  0  0  0
   -5.1271    7.9343    0.0000 C   0  0  0  0  0  0  0  0  0  0  0  0
   -4.5277    9.3094    0.0000 C   0  0  0  0  0  0  0  0  0  0  0  0
   -3.0372    9.4778    0.0000 C   0  0  0  0  0  0  0  0  0  0  0  0
   -2.4378   10.8529    0.0000 C   0  0  0  0  0  0  0  0  0  0  0  0
   -1.5789    9.1264    0.0000 C   0  0  0  0  0  0  0  0  0  0  0  0
   -6.0929    9.0820    0.0000 C   0  0  0  0  0  0  0  0  0  0  0  0
   -5.1806   10.2727    0.0000 O   0  0  0  0  0  0  0  0  0  0  0  0
   -7.2585   10.0261    0.0000 N   0  0  0  0  0  0  0  0  0  0  0  0
   -8.5818   10.7326    0.0000 C   0  0  0  0  0  0  0  0  0  0  0  0
   -8.8209   12.2134    0.0000 C   0  0  0  0  0  0  0  0  0  0  0  0
   -7.6581   13.1609    0.0000 O   0  0  0  0  0  0  0  0  0  0  0  0
  -10.0148   11.1758    0.0000 C   0  0  0  0  0  0  0  0  0  0  0  0
   -9.8910   12.6707    0.0000 O   0  0  0  0  0  0  0  0  0  0  0  0
  -11.5058   11.3399    0.0000 N   0  0  0  0  0  0  0  0  0  0  0  0
  -13.0009   11.2188    0.0000 C   0  0  0  0  0  0  0  0  0  0  0  0
  -14.0027   12.3353    0.0000 C   0  0  0  0  0  0  0  0  0  0  0  0
  -13.5367   13.7611    0.0000 C   0  0  0  0  0  0  0  0  0  0  0  0
  -12.0690   14.0704    0.0000 C   0  0  0  0  0  0  0  0  0  0  0  0
  -11.6030   15.4962    0.0000 C   0  0  0  0  0  0  0  0  0  0  0  0
  -12.6048   16.6126    0.0000 C   0  0  0  0  0  0  0  0  0  0  0  0
  -14.0726   16.3033    0.0000 C   0  0  0  0  0  0  0  0  0  0  0  0
  -14.5385   14.8775    0.0000 C   0  0  0  0  0  0  0  0  0  0  0  0
  -14.4461   10.8170    0.0000 C   0  0  0  0  0  0  0  0  0  0  0  0
  -15.1501   12.1415    0.0000 O   0  0  0  0  0  0  0  0  0  0  0  0
  -15.7891   10.1489    0.0000 N   0  0  0  0  0  0  0  0  0  0  0  0
  -16.9814    9.2388    0.0000 C   0  0  0  0  0  0  0  0  0  0  0  0
  -18.4277    9.6363    0.0000 C   0  0  0  0  0  0  0  0  0  0  0  0
  -18.8066   11.0877    0.0000 C   0  0  0  0  0  0  0  0  0  0  0  0
  -17.7391   12.1415    0.0000 C   0  0  0  0  0  0  0  0  0  0  0  0
  -18.1179   13.5929    0.0000 C   0  0  0  0  0  0  0  0  0  0  0  0
  -19.5643   13.9904    0.0000 C   0  0  0  0  0  0  0  0  0  0  0  0
  -20.6318   12.9367    0.0000 C   0  0  0  0  0  0  0  0  0  0  0  0
  -20.2529   11.4853    0.0000 C   0  0  0  0  0  0  0  0  0  0  0  0
  -17.9799    8.1194    0.0000 C   0  0  0  0  0  0  0  0  0  0  0  0
  -19.2883    8.8530    0.0000 O   0  0  0  0  0  0  0  0  0  0  0  0
  -18.7485    6.8313    0.0000 N   0  0  0  0  0  0  0  0  0  0  0  0
  -19.2595    5.4210    0.0000 C   0  0  0  0  0  0  0  0  0  0  0  0
  -20.6912    4.9735    0.0000 C   0  0  0  0  0  0  0  0  0  0  0  0
  -19.4943    3.9395    0.0000 C   0  0  0  0  0  0  0  0  0  0  0  0
  -20.9916    3.8492    0.0000 O   0  0  0  0  0  0  0  0  0  0  0  0
  -19.4445    2.4403    0.0000 N   0  0  0  0  0  0  0  0  0  0  0  0
  -19.1119    0.9776    0.0000 C   0  0  0  0  0  0  0  0  0  0  0  0
  -20.0744   -0.1728    0.0000 C   0  0  0  0  0  0  0  0  0  0  0  0
  -21.5519    0.0855    0.0000 C   0  0  0  0  0  0  0  0  0  0  0  0
  -22.5144   -1.0650    0.0000 C   0  0  0  0  0  0  0  0  0  0  0  0
  -23.9920   -0.8067    0.0000 N   0  0  0  0  0  0  0  0  0  0  0  0
  -24.9545   -1.9572    0.0000 C   0  0  0  0  0  0  0  0  0  0  0  0
  -26.4321   -1.6989    0.0000 N   0  0  0  0  0  0  0  0  0  0  0  0
  -24.4394   -3.3660    0.0000 N   0  0  0  0  0  0  0  0  0  0  0  0
  -18.5084   -0.3956    0.0000 C   0  0  0  0  0  0  0  0  0  0  0  0
  -19.7192   -1.2810    0.0000 O   0  0  0  0  0  0  0  0  0  0  0  0
  -17.6560   -1.6299    0.0000 N   0  0  0  0  0  0  0  0  0  0  0  0
  -16.5854   -2.6805    0.0000 C   0  0  0  0  0  0  0  0  0  0  0  0
  -15.3354   -3.5096    0.0000 C   0  0  0  0  0  0  0  0  0  0  0  0
  -13.9510   -4.0871    0.0000 C   0  0  0  0  0  0  0  0  0  0  0  0
  -12.4823   -4.3921    0.0000 C   0  0  0  0  0  0  0  0  0  0  0  0
  -10.9825   -4.4137    0.0000 C   0  0  0  0  0  0  0  0  0  0  0  0
  -18.0022   -3.1732    0.0000 C   0  0  0  0  0  0  0  0  0  0  0  0
  -16.7731   -4.1687    0.0000 C   0  0  0  0  0  0  0  0  0  0  0  0
  -15.8331   -5.3376    0.0000 O   0  0  0  0  0  0  0  0  0  0  0  0
  -18.1558   -4.7503    0.0000 N   0  0  0  0  0  0  0  0  0  0  0  0
  -18.3435   -6.2385    0.0000 C   0  0  0  0  0  0  0  0  0  0  0  0
  -18.0109   -7.7012    0.0000 C   0  0  0  0  0  0  0  0  0  0  0  0
  -19.1113   -8.7205    0.0000 C   0  0  0  0  0  0  0  0  0  0  0  0
  -18.7787  -10.1832    0.0000 O   0  0  0  0  0  0  0  0  0  0  0  0
  -20.6090   -8.6372    0.0000 O   0  0  0  0  0  0  0  0  0  0  0  0
  -19.7262   -6.8201    0.0000 C   0  0  0  0  0  0  0  0  0  0  0  0
  -20.9212   -5.9134    0.0000 O   0  0  0  0  0  0  0  0  0  0  0  0
  -19.9139   -8.3083    0.0000 N   0  0  0  0  0  0  0  0  0  0  0  0
  -21.2966   -8.8898    0.0000 C   0  0  0  0  0  0  0  0  0  0  0  0
  -22.7948   -8.9634    0.0000 C   0  0  0  0  0  0  0  0  0  0  0  0
  -23.4802  -10.2977    0.0000 C   0  0  0  0  0  0  0  0  0  0  0  0
  -24.9783  -10.3712    0.0000 C   0  0  0  0  0  0  0  0  0  0  0  0
  -25.8213  -11.6120    0.0000 N   0  0  0  0  0  0  0  0  0  0  0  0
  -25.7912   -9.1105    0.0000 O   0  0  0  0  0  0  0  0  0  0  0  0
  -21.4843  -10.3780    0.0000 C   0  0  0  0  0  0  0  0  0  0  0  0
  -20.2893  -11.2847    0.0000 O   0  0  0  0  0  0  0  0  0  0  0  0
  -22.8670  -10.9596    0.0000 N   0  0  0  0  0  0  0  0  0  0  0  0
  -23.0547  -12.4478    0.0000 C   0  0  0  0  0  0  0  0  0  0  0  0
  -22.7220  -13.9104    0.0000 C   0  0  0  0  0  0  0  0  0  0  0  0
  -23.8224  -14.9298    0.0000 C   0  0  0  0  0  0  0  0  0  0  0  0
  -21.9092  -15.1711    0.0000 C   0  0  0  0  0  0  0  0  0  0  0  0
  -20.4110  -15.0976    0.0000 C   0  0  0  0  0  0  0  0  0  0  0  0
  -24.4373  -13.0293    0.0000 C   0  0  0  0  0  0  0  0  0  0  0  0
  -24.8050  -14.4836    0.0000 O   0  0  0  0  0  0  0  0  0  0  0  0
  -25.7339  -12.2751    0.0000 O   0  0  0  0  0  0  0  0  0  0  0  0
   38.5485    0.4550    0.0000 H   0  0  0  0  0  0  0  0  0  0  0  0
   38.7379   -4.0336    0.0000 H   0  0  0  0  0  0  0  0  0  0  0  0
   41.3382   -5.5297    0.0000 H   0  0  0  0  0  0  0  0  0  0  0  0
   40.9665    0.4252    0.0000 H   0  0  0  0  0  0  0  0  0  0  0  0
   47.9140    2.1704    0.0000 H   0  0  0  0  0  0  0  0  0  0  0  0
   49.0018   -2.9106    0.0000 H   0  0  0  0  0  0  0  0  0  0  0  0
   46.0683   -3.5387    0.0000 H   0  0  0  0  0  0  0  0  0  0  0  0
   50.9300   -1.1693    0.0000 H   0  0  0  0  0  0  0  0  0  0  0  0
   41.1241   -1.9402    0.0000 H   0  0  0  0  0  0  0  0  0  0  0  0
   39.0861    0.4674    0.0000 H   0  0  0  0  0  0  0  0  0  0  0  0
   42.9698    3.7688    0.0000 H   0  0  0  0  0  0  0  0  0  0  0  0
   40.4977    4.5680    0.0000 H   0  0  0  0  0  0  0  0  0  0  0  0
   36.1332    0.4626    0.0000 H   0  0  0  0  0  0  0  0  0  0  0  0
   35.8034   -2.9369    0.0000 H   0  0  0  0  0  0  0  0  0  0  0  0
   33.8750   -2.9398    0.0000 H   0  0  0  0  0  0  0  0  0  0  0  0
   34.4998    0.1093    0.0000 H   0  0  0  0  0  0  0  0  0  0  0  0
   32.7186    0.2156    0.0000 H   0  0  0  0  0  0  0  0  0  0  0  0
   31.7543    0.2142    0.0000 H   0  0  0  0  0  0  0  0  0  0  0  0
   29.9734    0.1026    0.0000 H   0  0  0  0  0  0  0  0  0  0  0  0
   30.6072   -2.9446    0.0000 H   0  0  0  0  0  0  0  0  0  0  0  0
   28.8263   -3.0562    0.0000 H   0  0  0  0  0  0  0  0  0  0  0  0
   27.8620   -3.0576    0.0000 H   0  0  0  0  0  0  0  0  0  0  0  0
   26.0808   -2.9512    0.0000 H   0  0  0  0  0  0  0  0  0  0  0  0
   26.7056    0.0978    0.0000 H   0  0  0  0  0  0  0  0  0  0  0  0
   24.9244    0.2042    0.0000 H   0  0  0  0  0  0  0  0  0  0  0  0
   23.9601    0.2027    0.0000 H   0  0  0  0  0  0  0  0  0  0  0  0
   22.1792    0.0912    0.0000 H   0  0  0  0  0  0  0  0  0  0  0  0
   22.8130   -2.9560    0.0000 H   0  0  0  0  0  0  0  0  0  0  0  0
   21.0320   -3.0676    0.0000 H   0  0  0  0  0  0  0  0  0  0  0  0
   20.0678   -3.0690    0.0000 H   0  0  0  0  0  0  0  0  0  0  0  0
   18.2866   -2.9627    0.0000 H   0  0  0  0  0  0  0  0  0  0  0  0
   18.9114    0.0864    0.0000 H   0  0  0  0  0  0  0  0  0  0  0  0
   17.1301    0.1927    0.0000 H   0  0  0  0  0  0  0  0  0  0  0  0
   16.1659    0.1913    0.0000 H   0  0  0  0  0  0  0  0  0  0  0  0
   14.3850    0.0797    0.0000 H   0  0  0  0  0  0  0  0  0  0  0  0
   15.0188   -2.9675    0.0000 H   0  0  0  0  0  0  0  0  0  0  0  0
   13.2378   -3.0791    0.0000 H   0  0  0  0  0  0  0  0  0  0  0  0
   12.2736   -3.0805    0.0000 H   0  0  0  0  0  0  0  0  0  0  0  0
   10.6398   -3.0829    0.0000 H   0  0  0  0  0  0  0  0  0  0  0  0
   11.1172    0.0749    0.0000 H   0  0  0  0  0  0  0  0  0  0  0  0
    9.1888    0.0720    0.0000 H   0  0  0  0  0  0  0  0  0  0  0  0
    7.5544    0.4206    0.0000 H   0  0  0  0  0  0  0  0  0  0  0  0
    5.7436   -0.4225    0.0000 H   0  0  0  0  0  0  0  0  0  0  0  0
    7.7397   -4.3878    0.0000 H   0  0  0  0  0  0  0  0  0  0  0  0
    6.0280   -3.8835    0.0000 H   0  0  0  0  0  0  0  0  0  0  0  0
   11.1651   -3.7833    0.0000 H   0  0  0  0  0  0  0  0  0  0  0  0
    9.1563   -5.2743    0.0000 H   0  0  0  0  0  0  0  0  0  0  0  0
    4.3269    0.4640    0.0000 H   0  0  0  0  0  0  0  0  0  0  0  0
    2.5198    0.2801    0.0000 H   0  0  0  0  0  0  0  0  0  0  0  0
    2.8565   -4.1178    0.0000 H   0  0  0  0  0  0  0  0  0  0  0  0
    1.4849   -3.2300    0.0000 H   0  0  0  0  0  0  0  0  0  0  0  0
    5.8087   -2.6134    0.0000 H   0  0  0  0  0  0  0  0  0  0  0  0
    4.6927   -1.4201    0.0000 H   0  0  0  0  0  0  0  0  0  0  0  0
    6.8397   -5.9519    0.0000 H   0  0  0  0  0  0  0  0  0  0  0  0
    7.5787   -3.6753    0.0000 H   0  0  0  0  0  0  0  0  0  0  0  0
    1.3090    1.6086    0.0000 H   0  0  0  0  0  0  0  0  0  0  0  0
   -0.6202    2.1267    0.0000 H   0  0  0  0  0  0  0  0  0  0  0  0
   -1.8080   -2.1211    0.0000 H   0  0  0  0  0  0  0  0  0  0  0  0
   -2.6065   -0.5253    0.0000 H   0  0  0  0  0  0  0  0  0  0  0  0
    1.0082   -0.2869    0.0000 H   0  0  0  0  0  0  0  0  0  0  0  0
    1.2539   -4.0721    0.0000 H   0  0  0  0  0  0  0  0  0  0  0  0
   -0.3375   -4.4420    0.0000 H   0  0  0  0  0  0  0  0  0  0  0  0
   -1.3246   -2.9554    0.0000 H   0  0  0  0  0  0  0  0  0  0  0  0
    2.1639   -3.1988    0.0000 H   0  0  0  0  0  0  0  0  0  0  0  0
    3.1453   -1.8925    0.0000 H   0  0  0  0  0  0  0  0  0  0  0  0
    1.4638   -0.3014    0.0000 H   0  0  0  0  0  0  0  0  0  0  0  0
   -1.0536    3.5526    0.0000 H   0  0  0  0  0  0  0  0  0  0  0  0
   -2.3442    2.4452    0.0000 H   0  0  0  0  0  0  0  0  0  0  0  0
   -2.8195    1.1038    0.0000 H   0  0  0  0  0  0  0  0  0  0  0  0
   -2.7200    0.5257    0.0000 H   0  0  0  0  0  0  0  0  0  0  0  0
   -3.2722   -0.4147    0.0000 H   0  0  0  0  0  0  0  0  0  0  0  0
   -3.3441   -0.5663    0.0000 H   0  0  0  0  0  0  0  0  0  0  0  0
   -3.9973   -1.8306    0.0000 H   0  0  0  0  0  0  0  0  0  0  0  0
   -4.2963   -2.2380    0.0000 H   0  0  0  0  0  0  0  0  0  0  0  0
   -5.1345   -3.1777    0.0000 H   0  0  0  0  0  0  0  0  0  0  0  0
   -5.5053   -3.5211    0.0000 H   0  0  0  0  0  0  0  0  0  0  0  0
   -6.5061   -4.2852    0.0000 H   0  0  0  0  0  0  0  0  0  0  0  0
   -6.9352   -4.5522    0.0000 H   0  0  0  0  0  0  0  0  0  0  0  0
   -8.2456   -5.1071    0.0000 H   0  0  0  0  0  0  0  0  0  0  0  0
   -9.1038   -5.5962    0.0000 H   0  0  0  0  0  0  0  0  0  0  0  0
   -1.0701    4.0501    0.0000 H   0  0  0  0  0  0  0  0  0  0  0  0
   -1.4576    5.6373    0.0000 H   0  0  0  0  0  0  0  0  0  0  0  0
   -3.2296    5.8480    0.0000 H   0  0  0  0  0  0  0  0  0  0  0  0
   -2.9593    7.0562    0.0000 H   0  0  0  0  0  0  0  0  0  0  0  0
   -3.6311    7.8248    0.0000 H   0  0  0  0  0  0  0  0  0  0  0  0
   -4.4348   10.8065    0.0000 H   0  0  0  0  0  0  0  0  0  0  0  0
   -5.8575   10.0033    0.0000 H   0  0  0  0  0  0  0  0  0  0  0  0
   -2.7651    8.0027    0.0000 H   0  0  0  0  0  0  0  0  0  0  0  0
   -0.9789   11.2018    0.0000 H   0  0  0  0  0  0  0  0  0  0  0  0
   -2.3449   12.3500    0.0000 H   0  0  0  0  0  0  0  0  0  0  0  0
   -3.8423   11.3795    0.0000 H   0  0  0  0  0  0  0  0  0  0  0  0
   -0.4206   10.0794    0.0000 H   0  0  0  0  0  0  0  0  0  0  0  0
   -0.3289    8.2973    0.0000 H   0  0  0  0  0  0  0  0  0  0  0  0
   -2.1783    7.7513    0.0000 H   0  0  0  0  0  0  0  0  0  0  0  0
   -6.4295   11.2762    0.0000 H   0  0  0  0  0  0  0  0  0  0  0  0
   -7.3612   11.6045    0.0000 H   0  0  0  0  0  0  0  0  0  0  0  0
   -9.3871   13.6024    0.0000 H   0  0  0  0  0  0  0  0  0  0  0  0
  -10.3148   12.0782    0.0000 H   0  0  0  0  0  0  0  0  0  0  0  0
   -7.8973   14.6417    0.0000 H   0  0  0  0  0  0  0  0  0  0  0  0
  -11.3015   12.8259    0.0000 H   0  0  0  0  0  0  0  0  0  0  0  0
  -12.4454   12.6122    0.0000 H   0  0  0  0  0  0  0  0  0  0  0  0
  -15.2299   13.1977    0.0000 H   0  0  0  0  0  0  0  0  0  0  0  0
  -15.1863   11.4138    0.0000 H   0  0  0  0  0  0  0  0  0  0  0  0
  -10.9386   13.0844    0.0000 H   0  0  0  0  0  0  0  0  0  0  0  0
  -10.1353   15.8056    0.0000 H   0  0  0  0  0  0  0  0  0  0  0  0
  -12.1389   18.0384    0.0000 H   0  0  0  0  0  0  0  0  0  0  0  0
  -15.0744   17.4197    0.0000 H   0  0  0  0  0  0  0  0  0  0  0  0
  -16.0063   14.5681    0.0000 H   0  0  0  0  0  0  0  0  0  0  0  0
  -16.4206   11.5095    0.0000 H   0  0  0  0  0  0  0  0  0  0  0  0
  -17.2674   10.7112    0.0000 H   0  0  0  0  0  0  0  0  0  0  0  0
  -19.9264    9.6984    0.0000 H   0  0  0  0  0  0  0  0  0  0  0  0
  -18.9253    8.2213    0.0000 H   0  0  0  0  0  0  0  0  0  0  0  0
  -16.2551   11.9232    0.0000 H   0  0  0  0  0  0  0  0  0  0  0  0
  -17.0504   14.6466    0.0000 H   0  0  0  0  0  0  0  0  0  0  0  0
  -19.9431   15.4418    0.0000 H   0  0  0  0  0  0  0  0  0  0  0  0
  -22.0781   13.3342    0.0000 H   0  0  0  0  0  0  0  0  0  0  0  0
  -21.3204   10.4315    0.0000 H   0  0  0  0  0  0  0  0  0  0  0  0
  -20.1038    7.4740    0.0000 H   0  0  0  0  0  0  0  0  0  0  0  0
  -20.2962    6.5051    0.0000 H   0  0  0  0  0  0  0  0  0  0  0  0
  -21.7945    5.9896    0.0000 H   0  0  0  0  0  0  0  0  0  0  0  0
  -21.9855    4.2155    0.0000 H   0  0  0  0  0  0  0  0  0  0  0  0
  -20.3447    3.5141    0.0000 H   0  0  0  0  0  0  0  0  0  0  0  0
  -20.9445    2.4310    0.0000 H   0  0  0  0  0  0  0  0  0  0  0  0
  -20.5164    1.5043    0.0000 H   0  0  0  0  0  0  0  0  0  0  0  0
  -20.5853   -1.5831    0.0000 H   0  0  0  0  0  0  0  0  0  0  0  0
  -18.9939   -1.2133    0.0000 H   0  0  0  0  0  0  0  0  0  0  0  0
  -22.8521    0.8336    0.0000 H   0  0  0  0  0  0  0  0  0  0  0  0
  -21.3974    1.5775    0.0000 H   0  0  0  0  0  0  0  0  0  0  0  0
  -23.0254   -2.4753    0.0000 H   0  0  0  0  0  0  0  0  0  0  0  0
  -21.3152   -1.9660    0.0000 H   0  0  0  0  0  0  0  0  0  0  0  0
  -24.5071    0.6021    0.0000 H   0  0  0  0  0  0  0  0  0  0  0  0
  -27.3946   -2.8494    0.0000 H   0  0  0  0  0  0  0  0  0  0  0  0
  -25.4019   -4.5165    0.0000 H   0  0  0  0  0  0  0  0  0  0  0  0
  -22.9618   -3.6243    0.0000 H   0  0  0  0  0  0  0  0  0  0  0  0
  -18.9129   -2.4487    0.0000 H   0  0  0  0  0  0  0  0  0  0  0  0
  -15.2380   -5.0064    0.0000 H   0  0  0  0  0  0  0  0  0  0  0  0
  -16.4128   -4.5532    0.0000 H   0  0  0  0  0  0  0  0  0  0  0  0
  -13.7519   -5.5738    0.0000 H   0  0  0  0  0  0  0  0  0  0  0  0
  -14.8114   -5.3157    0.0000 H   0  0  0  0  0  0  0  0  0  0  0  0
  -11.8357   -5.7455    0.0000 H   0  0  0  0  0  0  0  0  0  0  0  0
  -13.2570   -5.6766    0.0000 H   0  0  0  0  0  0  0  0  0  0  0  0
  -10.8614   -5.9088    0.0000 H   0  0  0  0  0  0  0  0  0  0  0  0
  -18.6321   -4.5346    0.0000 H   0  0  0  0  0  0  0  0  0  0  0  0
  -19.5021   -3.1516    0.0000 H   0  0  0  0  0  0  0  0  0  0  0  0
  -18.5926   -1.7943    0.0000 H   0  0  0  0  0  0  0  0  0  0  0  0
  -19.4524   -3.9961    0.0000 H   0  0  0  0  0  0  0  0  0  0  0  0
  -16.8453   -6.1649    0.0000 H   0  0  0  0  0  0  0  0  0  0  0  0
  -17.1981   -8.9618    0.0000 H   0  0  0  0  0  0  0  0  0  0  0  0
  -16.6282   -7.1196    0.0000 H   0  0  0  0  0  0  0  0  0  0  0  0
  -21.7735   -9.0264    0.0000 H   0  0  0  0  0  0  0  0  0  0  0  0
  -18.9738   -9.4771    0.0000 H   0  0  0  0  0  0  0  0  0  0  0  0
  -21.6292   -7.4272    0.0000 H   0  0  0  0  0  0  0  0  0  0  0  0
  -24.2278   -8.5201    0.0000 H   0  0  0  0  0  0  0  0  0  0  0  0
  -22.6071   -7.4752    0.0000 H   0  0  0  0  0  0  0  0  0  0  0  0
  -23.6679  -11.7859    0.0000 H   0  0  0  0  0  0  0  0  0  0  0  0
  -22.4231  -11.3619    0.0000 H   0  0  0  0  0  0  0  0  0  0  0  0
  -27.1619  -11.7791    0.0000 H   0  0  0  0  0  0  0  0  0  0  0  0
  -25.4008  -13.2240    0.0000 H   0  0  0  0  0  0  0  0  0  0  0  0
  -24.2458  -10.3690    0.0000 H   0  0  0  0  0  0  0  0  0  0  0  0
  -21.5565  -12.3742    0.0000 H   0  0  0  0  0  0  0  0  0  0  0  0
  -21.4206  -13.1647    0.0000 H   0  0  0  0  0  0  0  0  0  0  0  0
  -23.6706  -16.4221    0.0000 H   0  0  0  0  0  0  0  0  0  0  0  0
  -25.2051  -15.5114    0.0000 H   0  0  0  0  0  0  0  0  0  0  0  0
  -25.1320  -14.1984    0.0000 H   0  0  0  0  0  0  0  0  0  0  0  0
  -21.5766  -16.6338    0.0000 H   0  0  0  0  0  0  0  0  0  0  0  0
  -23.2107  -15.9169    0.0000 H   0  0  0  0  0  0  0  0  0  0  0  0
  -19.5982  -16.3582    0.0000 H   0  0  0  0  0  0  0  0  0  0  0  0
  -19.0283  -14.5160    0.0000 H   0  0  0  0  0  0  0  0  0  0  0  0
  -20.5629  -13.6053    0.0000 H   0  0  0  0  0  0  0  0  0  0  0  0
  -27.0150  -12.7042    0.0000 H   0  0  0  0  0  0  0  0  0  0  0  0
  1  2  1  0
  2  3  1  0
  3  4  2  0
  4  5  1  0
  5  6  2  0
  6  7  1  0
  7  8  2  0
  7  9  1  0
  9 10  1  0
 10 11  1  0
 11 12  2  0
  9 13  1  0
 13 14  1  0
 14 15  2  0
 15 16  1  0
 16 17  2  0
 17 18  1  0
 16 19  1  0
 14 20  1  0
 20 21  1  0
 21 22  2  0
 22 23  1  0
 23 24  2  0
 24 25  1  0
 25 26  2  0
 25 27  1  0
  1 28  2  0
  1 29  1  0
 29 30  1  0
 30 31  1  0
 31 32  1  0
 32 33  1  0
 33 34  1  0
 34 35  1  0
 35 36  1  0
 36 37  1  0
 37 38  1  0
 38 39  1  0
 39 40  1  0
 40 41  1  0
 41 42  1  0
 42 43  1  0
 43 44  1  0
 44 45  1  0
 45 46  1  0
 46 47  1  0
 47 48  1  0
 48 49  1  0
 49 50  1  0
 50 51  2  0
 50 52  1  0
 52 53  1  0
 53 54  1  0
 54 55  1  0
 55 56  1  0
 55 57  2  0
 53 58  1  0
 58 59  2  0
 58 60  1  0
 60 61  1  0
 61 62  1  0
 62 63  1  0
 63 64  1  0
 64 65  1  0
 64 66  2  0
 61 67  1  0
 67 68  2  0
 67 69  1  0
 69 70  1  0
 70 71  1  0
 71 72  1  0
 72 73  1  0
 72 74  1  0
 70 75  1  0
 75 76  2  0
 75 77  1  0
 78 77  1  6
 78 79  1  0
 79 80  1  0
 80 81  1  0
 81 82  1  0
 82 83  1  0
 83 84  1  0
 84 85  1  0
 78 86  1  0
 78 87  1  0
 87 88  2  0
 87 89  1  0
 89 90  1  0
 90 91  1  0
 91 92  1  0
 92 93  1  0
 92 94  1  0
 90 95  1  0
 95 96  2  0
 95 97  1  0
 97 98  1  0
 98 99  1  0
 99100  1  0
 98101  1  0
101102  2  0
101103  1  0
103104  1  0
104105  1  0
105106  1  0
106107  2  0
107108  1  0
108109  2  0
109110  1  0
110111  2  0
104112  1  0
112113  2  0
112114  1  0
114115  1  0
115116  1  0
116117  1  0
117118  2  0
118119  1  0
119120  2  0
120121  1  0
121122  2  0
115123  1  0
123124  2  0
123125  1  0
125126  1  0
126127  1  0
126128  1  0
128129  2  0
128130  1  0
130131  1  0
131132  1  0
132133  1  0
133134  1  0
134135  1  0
135136  1  0
136137  2  3
136138  1  0
131139  1  0
139140  2  0
139141  1  0
141142  1  0
142143  1  0
143144  1  0
144145  1  0
145146  1  0
142147  1  0
142148  1  1
148149  2  0
148150  1  0
150151  1  0
151152  1  0
152153  1  0
153154  2  0
153155  1  0
151156  1  0
156157  2  0
156158  1  0
158159  1  0
159160  1  0
160161  1  0
161162  1  0
162163  1  0
162164  2  0
159165  1  0
165166  2  0
165167  1  0
167168  1  0
168169  1  0
169170  1  0
169171  1  0
171172  1  0
168173  1  0
173174  2  0
173175  1  0
  8  3  1  0
111106  1  0
122117  1  0
 11  6  1  0
 85146  2  0
 18 13  2  0
 22  9  1  0
 26 21  1  0
  2176  1  0
  4177  1  0
  5178  1  0
  8179  1  0
 15180  1  0
 17181  1  0
 18182  1  0
 19183  1  0
 23184  1  0
 24185  1  0
 26186  1  0
 27187  1  0
 29188  1  0
 30189  1  0
 30190  1  0
 31191  1  0
 31192  1  0
 33193  1  0
 33194  1  0
 34195  1  0
 34196  1  0
 36197  1  0
 36198  1  0
 37199  1  0
 37200  1  0
 39201  1  0
 39202  1  0
 40203  1  0
 40204  1  0
 42205  1  0
 42206  1  0
 43207  1  0
 43208  1  0
 45209  1  0
 45210  1  0
 46211  1  0
 46212  1  0
 48213  1  0
 48214  1  0
 49215  1  0
 49216  1  0
 52217  1  0
 53218  1  1
 54219  1  0
 54220  1  0
 56221  1  0
 56222  1  0
 60223  1  0
 61224  1  1
 62225  1  0
 62226  1  0
 63227  1  0
 63228  1  0
 65229  1  0
 65230  1  0
 69231  1  0
 70232  1  1
 71233  1  0
 71234  1  0
 72235  1  0
 73236  1  0
 73237  1  0
 73238  1  0
 74239  1  0
 74240  1  0
 74241  1  0
 77242  1  0
 79243  1  0
 79244  1  0
 80245  1  0
 80246  1  0
 81247  1  0
 81248  1  0
 82249  1  0
 82250  1  0
 83251  1  0
 83252  1  0
 84253  1  0
 84254  1  0
 85255  1  0
 86256  1  0
 86257  1  0
 86258  1  0
 89259  1  0
 90260  1  6
 91261  1  0
 91262  1  0
 92263  1  0
 93264  1  0
 93265  1  0
 93266  1  0
 94267  1  0
 94268  1  0
 94269  1  0
 97270  1  0
 98271  1  6
 99272  1  0
 99273  1  0
100274  1  0
103275  1  0
104276  1  6
105277  1  0
105278  1  0
107279  1  0
108280  1  0
109281  1  0
110282  1  0
111283  1  0
114284  1  0
115285  1  6
116286  1  0
116287  1  0
118288  1  0
119289  1  0
120290  1  0
121291  1  0
122292  1  0
125293  1  0
126294  1  6
127295  1  0
127296  1  0
127297  1  0
130298  1  0
131299  1  6
132300  1  0
132301  1  0
133302  1  0
133303  1  0
134304  1  0
134305  1  0
135306  1  0
137307  1  0
138308  1  0
138309  1  0
141310  1  0
143311  1  0
143312  1  0
144313  1  0
144314  1  0
145315  1  0
145316  1  0
146317  1  0
147318  1  0
147319  1  0
147320  1  0
150321  1  0
151322  1  1
152323  1  0
152324  1  0
155325  1  0
158326  1  0
159327  1  6
160328  1  0
160329  1  0
161330  1  0
161331  1  0
163332  1  0
163333  1  0
167334  1  0
168335  1  1
169336  1  1
170337  1  0
170338  1  0
170339  1  0
171340  1  0
171341  1  0
172342  1  0
172343  1  0
172344  1  0
175345  1  0
M  END
