
     RDKit          2D

343350  0  0  0  0  0  0  0  0999 V2000
  -28.8296   -0.6937    0.0000 C   0  0  0  0  0  0  0  0  0  0  0  0
  -30.0718   -1.5345    0.0000 N   0  0  0  0  0  0  0  0  0  0  0  0
  -31.4210   -0.8791    0.0000 C   0  0  0  0  0  0  0  0  0  0  0  0
  -31.5281    0.6170    0.0000 C   0  0  0  0  0  0  0  0  0  0  0  0
  -32.8774    1.2724    0.0000 C   0  0  0  0  0  0  0  0  0  0  0  0
  -34.1195    0.4316    0.0000 C   0  0  0  0  0  0  0  0  0  0  0  0
  -34.0125   -1.0646    0.0000 C   0  0  0  0  0  0  0  0  0  0  0  0
  -32.6632   -1.7199    0.0000 C   0  0  0  0  0  0  0  0  0  0  0  0
  -35.4024   -1.6287    0.0000 C   0  0  0  0  0  0  0  0  0  0  0  0
  -36.3684   -0.4812    0.0000 O   0  0  0  0  0  0  0  0  0  0  0  0
  -35.5756    0.7921    0.0000 C   0  0  0  0  0  0  0  0  0  0  0  0
  -36.1397    2.1820    0.0000 O   0  0  0  0  0  0  0  0  0  0  0  0
  -36.8436   -2.0445    0.0000 C   0  0  0  0  0  0  0  0  0  0  0  0
  -37.2041   -3.5006    0.0000 C   0  0  0  0  0  0  0  0  0  0  0  0
  -38.6453   -3.9163    0.0000 C   0  0  0  0  0  0  0  0  0  0  0  0
  -39.7260   -2.8761    0.0000 C   0  0  0  0  0  0  0  0  0  0  0  0
  -39.3655   -1.4201    0.0000 C   0  0  0  0  0  0  0  0  0  0  0  0
  -37.9243   -1.0043    0.0000 C   0  0  0  0  0  0  0  0  0  0  0  0
  -41.1672   -3.2919    0.0000 O   0  0  0  0  0  0  0  0  0  0  0  0
  -36.1234   -4.5408    0.0000 O   0  0  0  0  0  0  0  0  0  0  0  0
  -34.6822   -4.1250    0.0000 C   0  0  0  0  0  0  0  0  0  0  0  0
  -34.3217   -2.6690    0.0000 C   0  0  0  0  0  0  0  0  0  0  0  0
  -33.0487   -2.9327    0.0000 C   0  0  0  0  0  0  0  0  0  0  0  0
  -32.4723   -3.4875    0.0000 C   0  0  0  0  0  0  0  0  0  0  0  0
  -32.6646   -4.2640    0.0000 C   0  0  0  0  0  0  0  0  0  0  0  0
  -33.4332   -4.4858    0.0000 C   0  0  0  0  0  0  0  0  0  0  0  0
  -31.0796   -5.7897    0.0000 O   0  0  0  0  0  0  0  0  0  0  0  0
  -28.9366    0.8025    0.0000 S   0  0  0  0  0  0  0  0  0  0  0  0
  -27.4803   -1.3491    0.0000 N   0  0  0  0  0  0  0  0  0  0  0  0
  -26.2381   -0.5083    0.0000 C   0  0  0  0  0  0  0  0  0  0  0  0
  -24.8889   -1.1636    0.0000 C   0  0  0  0  0  0  0  0  0  0  0  0
  -23.6467   -0.3228    0.0000 C   0  0  0  0  0  0  0  0  0  0  0  0
  -23.7537    1.1733    0.0000 O   0  0  0  0  0  0  0  0  0  0  0  0
  -22.2974   -0.9782    0.0000 N   0  0  0  0  0  0  0  0  0  0  0  0
  -21.0552   -0.1374    0.0000 C   0  0  0  0  0  0  0  0  0  0  0  0
  -20.1755    1.0775    0.0000 C   0  0  0  0  0  0  0  0  0  0  0  0
  -18.6835    0.9232    0.0000 C   0  0  0  0  0  0  0  0  0  0  0  0
  -17.8038    2.1381    0.0000 C   0  0  0  0  0  0  0  0  0  0  0  0
  -16.3117    1.9837    0.0000 N   0  0  0  0  0  0  0  0  0  0  0  0
  -15.4320    3.1987    0.0000 C   0  0  0  0  0  0  0  0  0  0  0  0
  -13.9699    2.8636    0.0000 N   0  0  0  0  0  0  0  0  0  0  0  0
  -16.0444    4.5680    0.0000 N   0  0  0  0  0  0  0  0  0  0  0  0
  -19.7060   -0.7928    0.0000 C   0  0  0  0  0  0  0  0  0  0  0  0
  -19.5989   -2.2890    0.0000 O   0  0  0  0  0  0  0  0  0  0  0  0
  -18.4638    0.0480    0.0000 N   0  0  0  0  0  0  0  0  0  0  0  0
  -17.1145   -0.6074    0.0000 C   0  0  0  0  0  0  0  0  0  0  0  0
  -16.0708   -1.6847    0.0000 C   0  0  0  0  0  0  0  0  0  0  0  0
  -16.4819   -3.1272    0.0000 C   0  0  0  0  0  0  0  0  0  0  0  0
  -15.4382   -4.2046    0.0000 C   0  0  0  0  0  0  0  0  0  0  0  0
  -15.8493   -5.6471    0.0000 O   0  0  0  0  0  0  0  0  0  0  0  0
  -13.9833   -3.8393    0.0000 O   0  0  0  0  0  0  0  0  0  0  0  0
  -15.8723    0.2335    0.0000 C   0  0  0  0  0  0  0  0  0  0  0  0
  -15.6841    1.3106    0.0000 O   0  0  0  0  0  0  0  0  0  0  0  0
  -14.5231   -0.4219    0.0000 N   0  0  0  0  0  0  0  0  0  0  0  0
  -13.2809    0.4189    0.0000 C   0  0  0  0  0  0  0  0  0  0  0  0
  -12.4012    1.6338    0.0000 C   0  0  0  0  0  0  0  0  0  0  0  0
  -10.9091    1.4795    0.0000 C   0  0  0  0  0  0  0  0  0  0  0  0
  -10.0294    2.6944    0.0000 C   0  0  0  0  0  0  0  0  0  0  0  0
   -9.5599    0.8241    0.0000 C   0  0  0  0  0  0  0  0  0  0  0  0
  -11.9316   -0.2365    0.0000 C   0  0  0  0  0  0  0  0  0  0  0  0
  -11.8246   -1.7327    0.0000 O   0  0  0  0  0  0  0  0  0  0  0  0
  -10.6894    0.6043    0.0000 N   0  0  0  0  0  0  0  0  0  0  0  0
   -9.3402   -0.0511    0.0000 C   0  0  0  0  0  0  0  0  0  0  0  0
   -8.2964   -1.1284    0.0000 C   0  0  0  0  0  0  0  0  0  0  0  0
   -8.7076   -2.5709    0.0000 C   0  0  0  0  0  0  0  0  0  0  0  0
   -7.6638   -3.6483    0.0000 C   0  0  0  0  0  0  0  0  0  0  0  0
   -8.0749   -5.0908    0.0000 N   0  0  0  0  0  0  0  0  0  0  0  0
   -7.0312   -6.1681    0.0000 C   0  0  0  0  0  0  0  0  0  0  0  0
   -7.4423   -7.6107    0.0000 N   0  0  0  0  0  0  0  0  0  0  0  0
   -5.5764   -5.8029    0.0000 N   0  0  0  0  0  0  0  0  0  0  0  0
   -8.0980    0.7898    0.0000 C   0  0  0  0  0  0  0  0  0  0  0  0
   -8.0219    2.2878    0.0000 O   0  0  0  0  0  0  0  0  0  0  0  0
   -6.7487    0.1344    0.0000 N   0  0  0  0  0  0  0  0  0  0  0  0
   -5.5065    0.9752    0.0000 C   0  0  0  0  0  0  0  0  0  0  0  0
   -4.6268    2.1901    0.0000 C   0  0  0  0  0  0  0  0  0  0  0  0
   -3.1348    2.0358    0.0000 C   0  0  0  0  0  0  0  0  0  0  0  0
   -2.2551    3.2507    0.0000 C   0  0  0  0  0  0  0  0  0  0  0  0
   -0.7630    3.0963    0.0000 N   0  0  0  0  0  0  0  0  0  0  0  0
    0.1167    4.3113    0.0000 C   0  0  0  0  0  0  0  0  0  0  0  0
    1.6087    4.1569    0.0000 N   0  0  0  0  0  0  0  0  0  0  0  0
   -0.4957    5.6806    0.0000 N   0  0  0  0  0  0  0  0  0  0  0  0
   -4.1573    0.3198    0.0000 C   0  0  0  0  0  0  0  0  0  0  0  0
   -4.0502   -1.1764    0.0000 O   0  0  0  0  0  0  0  0  0  0  0  0
   -2.9151    1.1606    0.0000 N   0  0  0  0  0  0  0  0  0  0  0  0
   -1.5658    0.5052    0.0000 C   0  0  0  0  0  0  0  0  0  0  0  0
   -0.5221   -0.5721    0.0000 C   0  0  0  0  0  0  0  0  0  0  0  0
   -0.9332   -2.0146    0.0000 C   0  0  0  0  0  0  0  0  0  0  0  0
    0.1105   -3.0920    0.0000 C   0  0  0  0  0  0  0  0  0  0  0  0
   -0.3006   -4.5345    0.0000 O   0  0  0  0  0  0  0  0  0  0  0  0
    1.5654   -2.7267    0.0000 O   0  0  0  0  0  0  0  0  0  0  0  0
   -0.3236    1.3460    0.0000 C   0  0  0  0  0  0  0  0  0  0  0  0
   -0.1354    2.4232    0.0000 O   0  0  0  0  0  0  0  0  0  0  0  0
    1.0256    0.6907    0.0000 N   0  0  0  0  0  0  0  0  0  0  0  0
    2.2678    1.5315    0.0000 C   0  0  0  0  0  0  0  0  0  0  0  0
    3.1475    2.7464    0.0000 C   0  0  0  0  0  0  0  0  0  0  0  0
    4.6473    2.7751    0.0000 C   0  0  0  0  0  0  0  0  0  0  0  0
    3.5586    4.1890    0.0000 C   0  0  0  0  0  0  0  0  0  0  0  0
    4.9581    4.7289    0.0000 C   0  0  0  0  0  0  0  0  0  0  0  0
    3.6171    0.8761    0.0000 C   0  0  0  0  0  0  0  0  0  0  0  0
    3.5410   -0.6220    0.0000 O   0  0  0  0  0  0  0  0  0  0  0  0
    4.8593    1.7169    0.0000 N   0  0  0  0  0  0  0  0  0  0  0  0
    6.2085    1.0615    0.0000 C   0  0  0  0  0  0  0  0  0  0  0  0
    6.6099   -0.3838    0.0000 C   0  0  0  0  0  0  0  0  0  0  0  0
    7.4195   -1.6465    0.0000 C   0  0  0  0  0  0  0  0  0  0  0  0
    8.5653   -2.6146    0.0000 C   0  0  0  0  0  0  0  0  0  0  0  0
    9.9456   -3.2019    0.0000 C   0  0  0  0  0  0  0  0  0  0  0  0
    4.9478    0.2489    0.0000 C   0  0  0  0  0  0  0  0  0  0  0  0
    6.2510    2.5609    0.0000 C   0  0  0  0  0  0  0  0  0  0  0  0
    5.4894    2.7966    0.0000 O   0  0  0  0  0  0  0  0  0  0  0  0
    6.7335    3.9812    0.0000 N   0  0  0  0  0  0  0  0  0  0  0  0
    7.6132    5.1962    0.0000 C   0  0  0  0  0  0  0  0  0  0  0  0
    7.2843    6.6597    0.0000 C   0  0  0  0  0  0  0  0  0  0  0  0
    8.3873    7.6762    0.0000 C   0  0  0  0  0  0  0  0  0  0  0  0
    8.0585    9.1397    0.0000 C   0  0  0  0  0  0  0  0  0  0  0  0
    9.6907    8.4186    0.0000 C   0  0  0  0  0  0  0  0  0  0  0  0
    8.8119    6.0978    0.0000 C   0  0  0  0  0  0  0  0  0  0  0  0
    8.4395    7.5509    0.0000 O   0  0  0  0  0  0  0  0  0  0  0  0
   10.2232    6.6061    0.0000 N   0  0  0  0  0  0  0  0  0  0  0  0
   11.7216    6.6759    0.0000 C   0  0  0  0  0  0  0  0  0  0  0  0
   12.6607    7.8454    0.0000 C   0  0  0  0  0  0  0  0  0  0  0  0
   12.1174    9.2436    0.0000 S   0  0  0  0  0  0  0  0  0  0  0  0
   13.1739    6.3008    0.0000 C   0  0  0  0  0  0  0  0  0  0  0  0
   13.7612    7.6811    0.0000 O   0  0  0  0  0  0  0  0  0  0  0  0
   14.4512    5.5144    0.0000 N   0  0  0  0  0  0  0  0  0  0  0  0
   15.4400    4.3864    0.0000 C   0  0  0  0  0  0  0  0  0  0  0  0
   16.9400    4.3813    0.0000 C   0  0  0  0  0  0  0  0  0  0  0  0
   17.6943    5.6778    0.0000 C   0  0  0  0  0  0  0  0  0  0  0  0
   19.1943    5.6728    0.0000 C   0  0  0  0  0  0  0  0  0  0  0  0
   19.9487    6.9693    0.0000 N   0  0  0  0  0  0  0  0  0  0  0  0
   21.4487    6.9642    0.0000 C   0  0  0  0  0  0  0  0  0  0  0  0
   22.2030    8.2607    0.0000 N   0  0  0  0  0  0  0  0  0  0  0  0
   22.1943    5.6627    0.0000 N   0  0  0  0  0  0  0  0  0  0  0  0
   16.0523    3.0170    0.0000 C   0  0  0  0  0  0  0  0  0  0  0  0
   17.4976    3.4184    0.0000 O   0  0  0  0  0  0  0  0  0  0  0  0
   16.2338    1.5281    0.0000 N   0  0  0  0  0  0  0  0  0  0  0  0
   15.9683    0.0517    0.0000 C   0  0  0  0  0  0  0  0  0  0  0  0
   15.2795   -1.2808    0.0000 C   0  0  0  0  0  0  0  0  0  0  0  0
   14.2286   -2.3510    0.0000 C   0  0  0  0  0  0  0  0  0  0  0  0
   12.9088   -3.0640    0.0000 C   0  0  0  0  0  0  0  0  0  0  0  0
   11.4376   -3.3562    0.0000 C   0  0  0  0  0  0  0  0  0  0  0  0
   17.4232    0.4170    0.0000 C   0  0  0  0  0  0  0  0  0  0  0  0
   16.8996   -1.1242    0.0000 C   0  0  0  0  0  0  0  0  0  0  0  0
   16.7008   -2.6109    0.0000 O   0  0  0  0  0  0  0  0  0  0  0  0
   18.3836   -0.9056    0.0000 N   0  0  0  0  0  0  0  0  0  0  0  0
   19.3149   -2.0815    0.0000 C   0  0  0  0  0  0  0  0  0  0  0  0
   19.7878   -3.5050    0.0000 C   0  0  0  0  0  0  0  0  0  0  0  0
   18.7915   -4.6263    0.0000 C   0  0  0  0  0  0  0  0  0  0  0  0
   19.1131   -6.0914    0.0000 C   0  0  0  0  0  0  0  0  0  0  0  0
   17.8190   -6.8500    0.0000 N   0  0  0  0  0  0  0  0  0  0  0  0
   16.6977   -5.8537    0.0000 C   0  0  0  0  0  0  0  0  0  0  0  0
   17.2987   -4.4794    0.0000 N   0  0  0  0  0  0  0  0  0  0  0  0
   20.7989   -1.8629    0.0000 C   0  0  0  0  0  0  0  0  0  0  0  0
   21.3516   -0.4685    0.0000 O   0  0  0  0  0  0  0  0  0  0  0  0
   21.7302   -3.0388    0.0000 N   0  0  0  0  0  0  0  0  0  0  0  0
   23.2142   -2.8202    0.0000 C   0  0  0  0  0  0  0  0  0  0  0  0
   24.5339   -2.1073    0.0000 C   0  0  0  0  0  0  0  0  0  0  0  0
   25.8112   -2.8937    0.0000 C   0  0  0  0  0  0  0  0  0  0  0  0
   27.1982   -2.3227    0.0000 C   0  0  0  0  0  0  0  0  0  0  0  0
   28.1700   -3.4653    0.0000 N   0  0  0  0  0  0  0  0  0  0  0  0
   27.3835   -4.7426    0.0000 C   0  0  0  0  0  0  0  0  0  0  0  0
   25.9257   -4.3894    0.0000 N   0  0  0  0  0  0  0  0  0  0  0  0
   24.1454   -3.9961    0.0000 C   0  0  0  0  0  0  0  0  0  0  0  0
   23.5927   -5.3906    0.0000 O   0  0  0  0  0  0  0  0  0  0  0  0
   25.6294   -3.7775    0.0000 N   0  0  0  0  0  0  0  0  0  0  0  0
   26.5607   -4.9534    0.0000 C   0  0  0  0  0  0  0  0  0  0  0  0
   27.0337   -6.3769    0.0000 C   0  0  0  0  0  0  0  0  0  0  0  0
   26.0373   -7.4983    0.0000 O   0  0  0  0  0  0  0  0  0  0  0  0
   28.0447   -4.7349    0.0000 C   0  0  0  0  0  0  0  0  0  0  0  0
   28.9184   -3.5156    0.0000 O   0  0  0  0  0  0  0  0  0  0  0  0
   28.9760   -5.9108    0.0000 N   0  0  0  0  0  0  0  0  0  0  0  0
   30.4600   -5.6922    0.0000 C   0  0  0  0  0  0  0  0  0  0  0  0
   31.7797   -4.9792    0.0000 C   0  0  0  0  0  0  0  0  0  0  0  0
   32.7760   -3.8579    0.0000 O   0  0  0  0  0  0  0  0  0  0  0  0
   33.0570   -5.7657    0.0000 C   0  0  0  0  0  0  0  0  0  0  0  0
   31.3913   -6.8681    0.0000 C   0  0  0  0  0  0  0  0  0  0  0  0
   32.8908   -6.8320    0.0000 O   0  0  0  0  0  0  0  0  0  0  0  0
   30.8386   -8.2625    0.0000 O   0  0  0  0  0  0  0  0  0  0  0  0
  -29.7831   -3.0065    0.0000 H   0  0  0  0  0  0  0  0  0  0  0  0
  -30.2859    1.4578    0.0000 H   0  0  0  0  0  0  0  0  0  0  0  0
  -32.9844    2.7686    0.0000 H   0  0  0  0  0  0  0  0  0  0  0  0
  -32.1973   -3.1458    0.0000 H   0  0  0  0  0  0  0  0  0  0  0  0
  -39.0058   -5.3724    0.0000 H   0  0  0  0  0  0  0  0  0  0  0  0
  -40.4462   -0.3798    0.0000 H   0  0  0  0  0  0  0  0  0  0  0  0
  -37.5637    0.4517    0.0000 H   0  0  0  0  0  0  0  0  0  0  0  0
  -42.2479   -2.2517    0.0000 H   0  0  0  0  0  0  0  0  0  0  0  0
  -32.5199   -0.7972    0.0000 H   0  0  0  0  0  0  0  0  0  0  0  0
  -30.3186   -3.0564    0.0000 H   0  0  0  0  0  0  0  0  0  0  0  0
  -33.9620   -6.6213    0.0000 H   0  0  0  0  0  0  0  0  0  0  0  0
  -31.4401   -7.2457    0.0000 H   0  0  0  0  0  0  0  0  0  0  0  0
  -27.3733   -2.8453    0.0000 H   0  0  0  0  0  0  0  0  0  0  0  0
  -25.3584    0.7067    0.0000 H   0  0  0  0  0  0  0  0  0  0  0  0
  -27.2819    0.5690    0.0000 H   0  0  0  0  0  0  0  0  0  0  0  0
  -23.8451   -2.2410    0.0000 H   0  0  0  0  0  0  0  0  0  0  0  0
  -25.7686   -2.3786    0.0000 H   0  0  0  0  0  0  0  0  0  0  0  0
  -22.1904   -2.4744    0.0000 H   0  0  0  0  0  0  0  0  0  0  0  0
  -22.0990    0.9399    0.0000 H   0  0  0  0  0  0  0  0  0  0  0  0
  -19.9433    2.5595    0.0000 H   0  0  0  0  0  0  0  0  0  0  0  0
  -21.5248    1.7329    0.0000 H   0  0  0  0  0  0  0  0  0  0  0  0
  -17.3342    0.2678    0.0000 H   0  0  0  0  0  0  0  0  0  0  0  0
  -18.3691   -0.5435    0.0000 H   0  0  0  0  0  0  0  0  0  0  0  0
  -17.3927    3.5807    0.0000 H   0  0  0  0  0  0  0  0  0  0  0  0
  -19.0631    2.9531    0.0000 H   0  0  0  0  0  0  0  0  0  0  0  0
  -15.3863    0.8033    0.0000 H   0  0  0  0  0  0  0  0  0  0  0  0
  -13.0603    4.2593    0.0000 H   0  0  0  0  0  0  0  0  0  0  0  0
  -15.1647    5.7830    0.0000 H   0  0  0  0  0  0  0  0  0  0  0  0
  -17.5364    4.7224    0.0000 H   0  0  0  0  0  0  0  0  0  0  0  0
  -18.2056    1.5256    0.0000 H   0  0  0  0  0  0  0  0  0  0  0  0
  -18.1358   -1.7060    0.0000 H   0  0  0  0  0  0  0  0  0  0  0  0
  -14.8115   -2.4996    0.0000 H   0  0  0  0  0  0  0  0  0  0  0  0
  -14.9232   -0.7187    0.0000 H   0  0  0  0  0  0  0  0  0  0  0  0
  -17.3616   -4.3422    0.0000 H   0  0  0  0  0  0  0  0  0  0  0  0
  -17.9010   -2.6412    0.0000 H   0  0  0  0  0  0  0  0  0  0  0  0
  -12.9396   -4.9166    0.0000 H   0  0  0  0  0  0  0  0  0  0  0  0
  -14.2344   -1.8939    0.0000 H   0  0  0  0  0  0  0  0  0  0  0  0
  -14.3246    1.4962    0.0000 H   0  0  0  0  0  0  0  0  0  0  0  0
  -12.1690    3.1158    0.0000 H   0  0  0  0  0  0  0  0  0  0  0  0
  -13.8203    2.1199    0.0000 H   0  0  0  0  0  0  0  0  0  0  0  0
  -10.5947    0.0128    0.0000 H   0  0  0  0  0  0  0  0  0  0  0  0
   -8.5444    2.9057    0.0000 H   0  0  0  0  0  0  0  0  0  0  0  0
   -9.6183    4.1370    0.0000 H   0  0  0  0  0  0  0  0  0  0  0  0
  -11.2887    3.5094    0.0000 H   0  0  0  0  0  0  0  0  0  0  0  0
   -9.0940   -0.6017    0.0000 H   0  0  0  0  0  0  0  0  0  0  0  0
   -8.1117    1.2148    0.0000 H   0  0  0  0  0  0  0  0  0  0  0  0
   -8.9760    2.2058    0.0000 H   0  0  0  0  0  0  0  0  0  0  0  0
  -10.4313    2.0819    0.0000 H   0  0  0  0  0  0  0  0  0  0  0  0
  -10.3614   -1.1497    0.0000 H   0  0  0  0  0  0  0  0  0  0  0  0
   -6.9472   -1.7837    0.0000 H   0  0  0  0  0  0  0  0  0  0  0  0
   -7.0397   -0.3095    0.0000 H   0  0  0  0  0  0  0  0  0  0  0  0
   -9.5873   -3.7859    0.0000 H   0  0  0  0  0  0  0  0  0  0  0  0
  -10.1266   -2.0849    0.0000 H   0  0  0  0  0  0  0  0  0  0  0  0
   -6.3146   -4.3036    0.0000 H   0  0  0  0  0  0  0  0  0  0  0  0
   -6.6426   -2.5496    0.0000 H   0  0  0  0  0  0  0  0  0  0  0  0
   -9.5298   -5.4561    0.0000 H   0  0  0  0  0  0  0  0  0  0  0  0
   -6.3986   -8.6880    0.0000 H   0  0  0  0  0  0  0  0  0  0  0  0
   -4.5326   -6.8802    0.0000 H   0  0  0  0  0  0  0  0  0  0  0  0
   -5.1652   -4.3603    0.0000 H   0  0  0  0  0  0  0  0  0  0  0  0
   -6.4601   -1.3376    0.0000 H   0  0  0  0  0  0  0  0  0  0  0  0
   -6.5503    2.0525    0.0000 H   0  0  0  0  0  0  0  0  0  0  0  0
   -4.3946    3.6721    0.0000 H   0  0  0  0  0  0  0  0  0  0  0  0
   -5.9761    2.8455    0.0000 H   0  0  0  0  0  0  0  0  0  0  0  0
   -1.7855    1.3804    0.0000 H   0  0  0  0  0  0  0  0  0  0  0  0
   -2.8204    0.5691    0.0000 H   0  0  0  0  0  0  0  0  0  0  0  0
   -1.8440    4.6933    0.0000 H   0  0  0  0  0  0  0  0  0  0  0  0
   -3.5144    4.0657    0.0000 H   0  0  0  0  0  0  0  0  0  0  0  0
    0.1624    1.9159    0.0000 H   0  0  0  0  0  0  0  0  0  0  0  0
    2.4884    5.3719    0.0000 H   0  0  0  0  0  0  0  0  0  0  0  0
    0.3841    6.8956    0.0000 H   0  0  0  0  0  0  0  0  0  0  0  0
   -1.9877    5.8350    0.0000 H   0  0  0  0  0  0  0  0  0  0  0  0
   -2.6569    2.6382    0.0000 H   0  0  0  0  0  0  0  0  0  0  0  0
   -2.5871   -0.5934    0.0000 H   0  0  0  0  0  0  0  0  0  0  0  0
    0.7372   -1.3870    0.0000 H   0  0  0  0  0  0  0  0  0  0  0  0
    0.6255    0.3939    0.0000 H   0  0  0  0  0  0  0  0  0  0  0  0
   -1.8129   -3.2296    0.0000 H   0  0  0  0  0  0  0  0  0  0  0  0
   -2.3523   -1.5286    0.0000 H   0  0  0  0  0  0  0  0  0  0  0  0
    2.6091   -3.8040    0.0000 H   0  0  0  0  0  0  0  0  0  0  0  0
    1.3143   -0.7813    0.0000 H   0  0  0  0  0  0  0  0  0  0  0  0
    1.2241    2.6088    0.0000 H   0  0  0  0  0  0  0  0  0  0  0  0
    1.7284    3.2324    0.0000 H   0  0  0  0  0  0  0  0  0  0  0  0
    5.5416    3.8074    0.0000 H   0  0  0  0  0  0  0  0  0  0  0  0
    6.1518    2.2862    0.0000 H   0  0  0  0  0  0  0  0  0  0  0  0
    4.8390    1.1074    0.0000 H   0  0  0  0  0  0  0  0  0  0  0  0
    3.4516    5.6852    0.0000 H   0  0  0  0  0  0  0  0  0  0  0  0
    2.0966    4.5241    0.0000 H   0  0  0  0  0  0  0  0  0  0  0  0
    5.1039    6.0720    0.0000 H   0  0  0  0  0  0  0  0  0  0  0  0
    6.4985    4.7655    0.0000 H   0  0  0  0  0  0  0  0  0  0  0  0
    5.1206    3.0581    0.0000 H   0  0  0  0  0  0  0  0  0  0  0  0
    4.5706    3.1889    0.0000 H   0  0  0  0  0  0  0  0  0  0  0  0
    5.1106   -0.3376    0.0000 H   0  0  0  0  0  0  0  0  0  0  0  0
    5.7919   -1.6410    0.0000 H   0  0  0  0  0  0  0  0  0  0  0  0
    6.0325   -2.2177    0.0000 H   0  0  0  0  0  0  0  0  0  0  0  0
    6.8356   -3.0282    0.0000 H   0  0  0  0  0  0  0  0  0  0  0  0
    7.3005   -3.4210    0.0000 H   0  0  0  0  0  0  0  0  0  0  0  0
    8.5977   -4.1142    0.0000 H   0  0  0  0  0  0  0  0  0  0  0  0
    9.5705   -4.6542    0.0000 H   0  0  0  0  0  0  0  0  0  0  0  0
    4.9075   -1.4166    0.0000 H   0  0  0  0  0  0  0  0  0  0  0  0
    3.7346   -0.5610    0.0000 H   0  0  0  0  0  0  0  0  0  0  0  0
    3.9393    1.0977    0.0000 H   0  0  0  0  0  0  0  0  0  0  0  0
    5.6073    4.9720    0.0000 H   0  0  0  0  0  0  0  0  0  0  0  0
    6.1439    5.4983    0.0000 H   0  0  0  0  0  0  0  0  0  0  0  0
    6.3269    7.8143    0.0000 H   0  0  0  0  0  0  0  0  0  0  0  0
    5.8014    6.4338    0.0000 H   0  0  0  0  0  0  0  0  0  0  0  0
    9.4784    6.6469    0.0000 H   0  0  0  0  0  0  0  0  0  0  0  0
    9.0293   10.2832    0.0000 H   0  0  0  0  0  0  0  0  0  0  0  0
    7.2489   10.4025    0.0000 H   0  0  0  0  0  0  0  0  0  0  0  0
    6.6142    8.7348    0.0000 H   0  0  0  0  0  0  0  0  0  0  0  0
   10.1429    9.7075    0.0000 H   0  0  0  0  0  0  0  0  0  0  0  0
   11.2697    8.5171    0.0000 H   0  0  0  0  0  0  0  0  0  0  0  0
   10.4447    6.9138    0.0000 H   0  0  0  0  0  0  0  0  0  0  0  0
   10.1124    8.1020    0.0000 H   0  0  0  0  0  0  0  0  0  0  0  0
   11.2098    8.0859    0.0000 H   0  0  0  0  0  0  0  0  0  0  0  0
   13.9433    8.6233    0.0000 H   0  0  0  0  0  0  0  0  0  0  0  0
   13.8930    6.9902    0.0000 H   0  0  0  0  0  0  0  0  0  0  0  0
   13.0566   10.4132    0.0000 H   0  0  0  0  0  0  0  0  0  0  0  0
   15.4193    6.6602    0.0000 H   0  0  0  0  0  0  0  0  0  0  0  0
   15.8904    5.8171    0.0000 H   0  0  0  0  0  0  0  0  0  0  0  0
   18.2741    3.6958    0.0000 H   0  0  0  0  0  0  0  0  0  0  0  0
   17.0396    2.8846    0.0000 H   0  0  0  0  0  0  0  0  0  0  0  0
   17.9598    7.1541    0.0000 H   0  0  0  0  0  0  0  0  0  0  0  0
   16.3601    6.3633    0.0000 H   0  0  0  0  0  0  0  0  0  0  0  0
   20.6021    5.1550    0.0000 H   0  0  0  0  0  0  0  0  0  0  0  0
   19.1108    4.1751    0.0000 H   0  0  0  0  0  0  0  0  0  0  0  0
   19.2031    8.2708    0.0000 H   0  0  0  0  0  0  0  0  0  0  0  0
   23.7030    8.2557    0.0000 H   0  0  0  0  0  0  0  0  0  0  0  0
   23.6943    5.6576    0.0000 H   0  0  0  0  0  0  0  0  0  0  0  0
   21.4399    4.3662    0.0000 H   0  0  0  0  0  0  0  0  0  0  0  0
   17.7332    1.4856    0.0000 H   0  0  0  0  0  0  0  0  0  0  0  0
   15.8229   -2.6789    0.0000 H   0  0  0  0  0  0  0  0  0  0  0  0
   16.7136   -1.7207    0.0000 H   0  0  0  0  0  0  0  0  0  0  0  0
   14.5172   -3.8230    0.0000 H   0  0  0  0  0  0  0  0  0  0  0  0
   15.4693   -3.1941    0.0000 H   0  0  0  0  0  0  0  0  0  0  0  0
   12.5701   -4.5252    0.0000 H   0  0  0  0  0  0  0  0  0  0  0  0
   13.9817   -4.1123    0.0000 H   0  0  0  0  0  0  0  0  0  0  0  0
   11.5073   -4.8546    0.0000 H   0  0  0  0  0  0  0  0  0  0  0  0
   18.6966   -0.3758    0.0000 H   0  0  0  0  0  0  0  0  0  0  0  0
   18.5536    1.4029    0.0000 H   0  0  0  0  0  0  0  0  0  0  0  0
   17.1604    1.8938    0.0000 H   0  0  0  0  0  0  0  0  0  0  0  0
   19.1022    0.4111    0.0000 H   0  0  0  0  0  0  0  0  0  0  0  0
   17.9952   -2.7944    0.0000 H   0  0  0  0  0  0  0  0  0  0  0  0
   20.5688   -4.7856    0.0000 H   0  0  0  0  0  0  0  0  0  0  0  0
   21.2409   -3.1326    0.0000 H   0  0  0  0  0  0  0  0  0  0  0  0
   20.4874   -6.6925    0.0000 H   0  0  0  0  0  0  0  0  0  0  0  0
   17.6721   -8.3428    0.0000 H   0  0  0  0  0  0  0  0  0  0  0  0
   15.2326   -6.1752    0.0000 H   0  0  0  0  0  0  0  0  0  0  0  0
   21.3516   -4.4902    0.0000 H   0  0  0  0  0  0  0  0  0  0  0  0
   22.7412   -1.3967    0.0000 H   0  0  0  0  0  0  0  0  0  0  0  0
   25.5302   -0.9860    0.0000 H   0  0  0  0  0  0  0  0  0  0  0  0
   23.6026   -0.9314    0.0000 H   0  0  0  0  0  0  0  0  0  0  0  0
   27.5515   -0.8648    0.0000 H   0  0  0  0  0  0  0  0  0  0  0  0
   29.6656   -3.3508    0.0000 H   0  0  0  0  0  0  0  0  0  0  0  0
   28.1194   -6.0497    0.0000 H   0  0  0  0  0  0  0  0  0  0  0  0
   26.5031   -2.5583    0.0000 H   0  0  0  0  0  0  0  0  0  0  0  0
   25.2410   -5.6664    0.0000 H   0  0  0  0  0  0  0  0  0  0  0  0
   27.8147   -7.6576    0.0000 H   0  0  0  0  0  0  0  0  0  0  0  0
   28.5213   -6.1844    0.0000 H   0  0  0  0  0  0  0  0  0  0  0  0
   26.5103   -8.9217    0.0000 H   0  0  0  0  0  0  0  0  0  0  0  0
   28.5974   -7.3622    0.0000 H   0  0  0  0  0  0  0  0  0  0  0  0
   29.9870   -4.2687    0.0000 H   0  0  0  0  0  0  0  0  0  0  0  0
   30.8484   -3.8034    0.0000 H   0  0  0  0  0  0  0  0  0  0  0  0
   34.2712   -3.9787    0.0000 H   0  0  0  0  0  0  0  0  0  0  0  0
   34.4538   -5.2189    0.0000 H   0  0  0  0  0  0  0  0  0  0  0  0
   33.9883   -6.9416    0.0000 H   0  0  0  0  0  0  0  0  0  0  0  0
   32.5288   -7.1696    0.0000 H   0  0  0  0  0  0  0  0  0  0  0  0
   31.7698   -9.4384    0.0000 H   0  0  0  0  0  0  0  0  0  0  0  0
  1  2  1  0
  2  3  1  0
  3  4  2  0
  4  5  1  0
  5  6  2  0
  6  7  1  0
  7  8  2  0
  7  9  1  0
  9 10  1  0
 10 11  1  0
 11 12  2  0
  9 13  1  0
 13 14  1  0
 14 15  2  0
 15 16  1  0
 16 17  2  0
 17 18  1  0
 16 19  1  0
 14 20  1  0
 20 21  1  0
 21 22  2  0
 22 23  1  0
 23 24  2  0
 24 25  1  0
 25 26  2  0
 25 27  1  0
  1 28  2  0
  1 29  1  0
 29 30  1  0
 30 31  1  0
 31 32  1  0
 32 33  2  0
 32 34  1  0
 34 35  1  0
 35 36  1  0
 36 37  1  0
 37 38  1  0
 38 39  1  0
 39 40  1  0
 40 41  2  3
 40 42  1  0
 35 43  1  0
 43 44  2  0
 43 45  1  0
 45 46  1  0
 46 47  1  0
 47 48  1  0
 48 49  1  0
 49 50  2  0
 49 51  1  0
 46 52  1  0
 52 53  2  0
 52 54  1  0
 54 55  1  0
 55 56  1  0
 56 57  1  0
 57 58  1  0
 57 59  1  0
 55 60  1  0
 60 61  2  0
 60 62  1  0
 62 63  1  0
 63 64  1  0
 64 65  1  0
 65 66  1  0
 66 67  1  0
 67 68  1  0
 68 69  2  3
 68 70  1  0
 63 71  1  0
 71 72  2  0
 71 73  1  0
 73 74  1  0
 74 75  1  0
 75 76  1  0
 76 77  1  0
 77 78  1  0
 78 79  1  0
 79 80  2  3
 79 81  1  0
 74 82  1  0
 82 83  2  0
 82 84  1  0
 84 85  1  0
 85 86  1  0
 86 87  1  0
 87 88  1  0
 88 89  2  0
 88 90  1  0
 85 91  1  0
 91 92  2  0
 91 93  1  0
 93 94  1  0
 94 95  1  0
 95 96  1  0
 95 97  1  0
 97 98  1  0
 94 99  1  0
 99100  2  0
 99101  1  0
102101  1  6
102103  1  0
103104  1  0
104105  1  0
105106  1  0
102107  1  0
102108  1  0
108109  2  0
108110  1  0
110111  1  0
111112  1  0
112113  1  0
113114  1  0
113115  1  0
111116  1  0
116117  2  0
116118  1  0
118119  1  0
119120  1  0
120121  1  0
119122  1  0
122123  2  0
122124  1  0
124125  1  0
125126  1  0
126127  1  0
127128  1  0
128129  1  0
129130  1  0
130131  2  3
130132  1  0
125133  1  0
133134  2  0
133135  1  0
135136  1  0
136137  1  0
137138  1  0
138139  1  0
139140  1  0
136141  1  0
136142  1  6
142143  2  0
142144  1  0
144145  1  0
145146  1  0
146147  1  0
147148  2  0
148149  1  0
149150  1  0
150151  2  0
145152  1  0
152153  2  0
152154  1  0
154155  1  0
155156  1  0
156157  1  0
157158  2  0
158159  1  0
159160  1  0
160161  2  0
155162  1  0
162163  2  0
162164  1  0
164165  1  0
165166  1  0
166167  1  0
165168  1  0
168169  2  0
168170  1  0
170171  1  0
171172  1  0
172173  1  0
172174  1  0
171175  1  0
175176  2  0
175177  1  0
  8  3  1  0
151147  1  0
161157  1  0
 11  6  1  0
106140  2  0
 18 13  2  0
 22  9  1  0
 26 21  1  0
  2178  1  0
  4179  1  0
  5180  1  0
  8181  1  0
 15182  1  0
 17183  1  0
 18184  1  0
 19185  1  0
 23186  1  0
 24187  1  0
 26188  1  0
 27189  1  0
 29190  1  0
 30191  1  0
 30192  1  0
 31193  1  0
 31194  1  0
 34195  1  0
 35196  1  1
 36197  1  0
 36198  1  0
 37199  1  0
 37200  1  0
 38201  1  0
 38202  1  0
 39203  1  0
 41204  1  0
 42205  1  0
 42206  1  0
 45207  1  0
 46208  1  6
 47209  1  0
 47210  1  0
 48211  1  0
 48212  1  0
 51213  1  0
 54214  1  0
 55215  1  1
 56216  1  0
 56217  1  0
 57218  1  0
 58219  1  0
 58220  1  0
 58221  1  0
 59222  1  0
 59223  1  0
 59224  1  0
 62225  1  0
 63226  1  6
 64227  1  0
 64228  1  0
 65229  1  0
 65230  1  0
 66231  1  0
 66232  1  0
 67233  1  0
 69234  1  0
 70235  1  0
 70236  1  0
 73237  1  0
 74238  1  1
 75239  1  0
 75240  1  0
 76241  1  0
 76242  1  0
 77243  1  0
 77244  1  0
 78245  1  0
 80246  1  0
 81247  1  0
 81248  1  0
 84249  1  0
 85250  1  6
 86251  1  0
 86252  1  0
 87253  1  0
 87254  1  0
 90255  1  0
 93256  1  0
 94257  1  1
 95258  1  1
 96259  1  0
 96260  1  0
 96261  1  0
 97262  1  0
 97263  1  0
 98264  1  0
 98265  1  0
 98266  1  0
101267  1  0
103268  1  0
103269  1  0
104270  1  0
104271  1  0
105272  1  0
105273  1  0
106274  1  0
107275  1  0
107276  1  0
107277  1  0
110278  1  0
111279  1  1
112280  1  0
112281  1  0
113282  1  0
114283  1  0
114284  1  0
114285  1  0
115286  1  0
115287  1  0
115288  1  0
118289  1  0
119290  1  1
120291  1  0
120292  1  0
121293  1  0
124294  1  0
125295  1  1
126296  1  0
126297  1  0
127298  1  0
127299  1  0
128300  1  0
128301  1  0
129302  1  0
131303  1  0
132304  1  0
132305  1  0
135306  1  0
137307  1  0
137308  1  0
138309  1  0
138310  1  0
139311  1  0
139312  1  0
140313  1  0
141314  1  0
141315  1  0
141316  1  0
144317  1  0
145318  1  6
146319  1  0
146320  1  0
148321  1  0
149322  1  0
150323  1  0
154324  1  0
155325  1  1
156326  1  0
156327  1  0
158328  1  0
159329  1  0
160330  1  0
164331  1  0
165332  1  6
166333  1  0
166334  1  0
167335  1  0
170336  1  0
171337  1  1
172338  1  1
173339  1  0
174340  1  0
174341  1  0
174342  1  0
177343  1  0
M  END
