
     RDKit          2D

206214  0  0  0  0  0  0  0  0999 V2000
   14.5798   -1.2400    0.0000 C   0  0  0  0  0  0  0  0  0  0  0  0
   15.8854   -0.5015    0.0000 N   0  0  0  0  0  0  0  0  0  0  0  0
   17.1778   -1.2630    0.0000 C   0  0  0  0  0  0  0  0  0  0  0  0
   17.1645   -2.7629    0.0000 C   0  0  0  0  0  0  0  0  0  0  0  0
   18.4569   -3.5243    0.0000 C   0  0  0  0  0  0  0  0  0  0  0  0
   19.7625   -2.7858    0.0000 C   0  0  0  0  0  0  0  0  0  0  0  0
   19.7757   -1.2859    0.0000 C   0  0  0  0  0  0  0  0  0  0  0  0
   18.4834   -0.5244    0.0000 C   0  0  0  0  0  0  0  0  0  0  0  0
   21.2063   -0.8350    0.0000 C   0  0  0  0  0  0  0  0  0  0  0  0
   22.0773   -2.0562    0.0000 O   0  0  0  0  0  0  0  0  0  0  0  0
   21.1849   -3.2619    0.0000 C   0  0  0  0  0  0  0  0  0  0  0  0
   21.6359   -4.6925    0.0000 O   0  0  0  0  0  0  0  0  0  0  0  0
   22.6763   -0.5360    0.0000 C   0  0  0  0  0  0  0  0  0  0  0  0
   23.1524    0.8864    0.0000 C   0  0  0  0  0  0  0  0  0  0  0  0
   24.6223    1.1853    0.0000 C   0  0  0  0  0  0  0  0  0  0  0  0
   25.6161    0.0618    0.0000 C   0  0  0  0  0  0  0  0  0  0  0  0
   25.1400   -1.3607    0.0000 C   0  0  0  0  0  0  0  0  0  0  0  0
   23.6701   -1.6596    0.0000 C   0  0  0  0  0  0  0  0  0  0  0  0
   27.0860    0.3607    0.0000 O   0  0  0  0  0  0  0  0  0  0  0  0
   22.1585    2.0099    0.0000 O   0  0  0  0  0  0  0  0  0  0  0  0
   20.6886    1.7110    0.0000 C   0  0  0  0  0  0  0  0  0  0  0  0
   20.2125    0.2886    0.0000 C   0  0  0  0  0  0  0  0  0  0  0  0
   18.9648    0.6535    0.0000 C   0  0  0  0  0  0  0  0  0  0  0  0
   18.4348    1.2527    0.0000 C   0  0  0  0  0  0  0  0  0  0  0  0
   18.6887    2.0113    0.0000 C   0  0  0  0  0  0  0  0  0  0  0  0
   19.4726    2.1707    0.0000 C   0  0  0  0  0  0  0  0  0  0  0  0
   17.2311    3.6592    0.0000 O   0  0  0  0  0  0  0  0  0  0  0  0
   14.5665   -2.7400    0.0000 S   0  0  0  0  0  0  0  0  0  0  0  0
   13.2874   -0.4786    0.0000 N   0  0  0  0  0  0  0  0  0  0  0  0
   11.9818   -1.2171    0.0000 C   0  0  0  0  0  0  0  0  0  0  0  0
   10.6894   -0.4557    0.0000 C   0  0  0  0  0  0  0  0  0  0  0  0
    9.3838   -1.1942    0.0000 C   0  0  0  0  0  0  0  0  0  0  0  0
    9.3706   -2.6941    0.0000 O   0  0  0  0  0  0  0  0  0  0  0  0
    8.0915   -0.4328    0.0000 N   0  0  0  0  0  0  0  0  0  0  0  0
    6.7859   -1.1713    0.0000 C   0  0  0  0  0  0  0  0  0  0  0  0
    5.8116   -2.3118    0.0000 C   0  0  0  0  0  0  0  0  0  0  0  0
    4.3367   -2.0383    0.0000 C   0  0  0  0  0  0  0  0  0  0  0  0
    3.8361   -0.6243    0.0000 C   0  0  0  0  0  0  0  0  0  0  0  0
    2.3613   -0.3508    0.0000 C   0  0  0  0  0  0  0  0  0  0  0  0
    1.3870   -1.4913    0.0000 C   0  0  0  0  0  0  0  0  0  0  0  0
    1.8876   -2.9053    0.0000 C   0  0  0  0  0  0  0  0  0  0  0  0
    3.3624   -3.1788    0.0000 C   0  0  0  0  0  0  0  0  0  0  0  0
    5.4935   -0.4098    0.0000 C   0  0  0  0  0  0  0  0  0  0  0  0
    5.6895    1.0773    0.0000 O   0  0  0  0  0  0  0  0  0  0  0  0
    4.1879   -1.1483    0.0000 N   0  0  0  0  0  0  0  0  0  0  0  0
    2.8955   -0.3869    0.0000 C   0  0  0  0  0  0  0  0  0  0  0  0
    1.9415    0.7706    0.0000 C   0  0  0  0  0  0  0  0  0  0  0  0
    2.4670    2.1756    0.0000 O   0  0  0  0  0  0  0  0  0  0  0  0
    1.5899   -1.1254    0.0000 C   0  0  0  0  0  0  0  0  0  0  0  0
    1.3939   -2.6126    0.0000 O   0  0  0  0  0  0  0  0  0  0  0  0
    0.2975   -0.3640    0.0000 N   0  0  0  0  0  0  0  0  0  0  0  0
   -1.0081   -1.1025    0.0000 C   0  0  0  0  0  0  0  0  0  0  0  0
   -1.3182   -2.5701    0.0000 C   0  0  0  0  0  0  0  0  0  0  0  0
   -2.0472   -3.8810    0.0000 C   0  0  0  0  0  0  0  0  0  0  0  0
   -3.1302   -4.9189    0.0000 C   0  0  0  0  0  0  0  0  0  0  0  0
   -4.4710   -5.5914    0.0000 C   0  0  0  0  0  0  0  0  0  0  0  0
    0.3011   -1.8347    0.0000 C   0  0  0  0  0  0  0  0  0  0  0  0
   -1.1442    0.3913    0.0000 C   0  0  0  0  0  0  0  0  0  0  0  0
    0.1828    1.0905    0.0000 O   0  0  0  0  0  0  0  0  0  0  0  0
   -1.7147    1.7786    0.0000 N   0  0  0  0  0  0  0  0  0  0  0  0
   -2.6687    2.9361    0.0000 C   0  0  0  0  0  0  0  0  0  0  0  0
   -2.4320    4.4174    0.0000 C   0  0  0  0  0  0  0  0  0  0  0  0
   -1.0310    4.9530    0.0000 C   0  0  0  0  0  0  0  0  0  0  0  0
   -0.7943    6.4342    0.0000 C   0  0  0  0  0  0  0  0  0  0  0  0
    0.4689    4.9772    0.0000 C   0  0  0  0  0  0  0  0  0  0  0  0
   -3.9215    3.7610    0.0000 C   0  0  0  0  0  0  0  0  0  0  0  0
   -3.2925    5.1228    0.0000 O   0  0  0  0  0  0  0  0  0  0  0  0
   -5.3618    4.1800    0.0000 N   0  0  0  0  0  0  0  0  0  0  0  0
   -6.8616    4.1559    0.0000 C   0  0  0  0  0  0  0  0  0  0  0  0
   -7.8721    5.2644    0.0000 C   0  0  0  0  0  0  0  0  0  0  0  0
   -7.4174    6.6938    0.0000 C   0  0  0  0  0  0  0  0  0  0  0  0
   -5.9936    7.1661    0.0000 C   0  0  0  0  0  0  0  0  0  0  0  0
   -6.0028    8.6660    0.0000 N   0  0  0  0  0  0  0  0  0  0  0  0
   -7.4322    9.1208    0.0000 C   0  0  0  0  0  0  0  0  0  0  0  0
   -8.0508   10.4874    0.0000 C   0  0  0  0  0  0  0  0  0  0  0  0
   -9.5435   10.6350    0.0000 C   0  0  0  0  0  0  0  0  0  0  0  0
  -10.4177    9.4161    0.0000 C   0  0  0  0  0  0  0  0  0  0  0  0
   -9.7992    8.0495    0.0000 C   0  0  0  0  0  0  0  0  0  0  0  0
   -8.3065    7.9019    0.0000 C   0  0  0  0  0  0  0  0  0  0  0  0
   -8.2876    3.6907    0.0000 C   0  0  0  0  0  0  0  0  0  0  0  0
   -8.9602    5.0315    0.0000 O   0  0  0  0  0  0  0  0  0  0  0  0
   -9.5132    2.8259    0.0000 N   0  0  0  0  0  0  0  0  0  0  0  0
  -10.4295    1.6382    0.0000 C   0  0  0  0  0  0  0  0  0  0  0  0
  -11.9262    1.5393    0.0000 C   0  0  0  0  0  0  0  0  0  0  0  0
  -12.7602    2.7861    0.0000 C   0  0  0  0  0  0  0  0  0  0  0  0
  -14.2569    2.6872    0.0000 C   0  0  0  0  0  0  0  0  0  0  0  0
  -15.0910    3.9339    0.0000 C   0  0  0  0  0  0  0  0  0  0  0  0
  -16.5877    3.8350    0.0000 N   0  0  0  0  0  0  0  0  0  0  0  0
  -10.9549    0.2332    0.0000 C   0  0  0  0  0  0  0  0  0  0  0  0
  -12.4225    0.5434    0.0000 O   0  0  0  0  0  0  0  0  0  0  0  0
  -11.0429   -1.2642    0.0000 N   0  0  0  0  0  0  0  0  0  0  0  0
  -10.6856   -2.7210    0.0000 C   0  0  0  0  0  0  0  0  0  0  0  0
   -9.9148   -4.0078    0.0000 C   0  0  0  0  0  0  0  0  0  0  0  0
   -8.7989   -5.0102    0.0000 C   0  0  0  0  0  0  0  0  0  0  0  0
   -7.4371   -5.6392    0.0000 C   0  0  0  0  0  0  0  0  0  0  0  0
   -5.9505   -5.8388    0.0000 C   0  0  0  0  0  0  0  0  0  0  0  0
  -12.1604   -2.4475    0.0000 C   0  0  0  0  0  0  0  0  0  0  0  0
  -11.5415   -3.9529    0.0000 C   0  0  0  0  0  0  0  0  0  0  0  0
  -11.2500   -5.4243    0.0000 O   0  0  0  0  0  0  0  0  0  0  0  0
  -13.0362   -3.8276    0.0000 N   0  0  0  0  0  0  0  0  0  0  0  0
  -13.8921   -5.0594    0.0000 C   0  0  0  0  0  0  0  0  0  0  0  0
  -14.2751   -6.5097    0.0000 C   0  0  0  0  0  0  0  0  0  0  0  0
  -15.7225   -6.9032    0.0000 C   0  0  0  0  0  0  0  0  0  0  0  0
  -16.1055   -8.3535    0.0000 C   0  0  0  0  0  0  0  0  0  0  0  0
  -17.2173   -6.7779    0.0000 C   0  0  0  0  0  0  0  0  0  0  0  0
  -15.3869   -4.9341    0.0000 C   0  0  0  0  0  0  0  0  0  0  0  0
  -16.3865   -6.0525    0.0000 O   0  0  0  0  0  0  0  0  0  0  0  0
  -16.0257   -3.5770    0.0000 O   0  0  0  0  0  0  0  0  0  0  0  0
   15.7157    0.9888    0.0000 H   0  0  0  0  0  0  0  0  0  0  0  0
   15.8589   -3.5014    0.0000 H   0  0  0  0  0  0  0  0  0  0  0  0
   18.4437   -5.0243    0.0000 H   0  0  0  0  0  0  0  0  0  0  0  0
   18.1333    0.9341    0.0000 H   0  0  0  0  0  0  0  0  0  0  0  0
   25.0984    2.6077    0.0000 H   0  0  0  0  0  0  0  0  0  0  0  0
   26.1338   -2.4842    0.0000 H   0  0  0  0  0  0  0  0  0  0  0  0
   23.1940   -3.0820    0.0000 H   0  0  0  0  0  0  0  0  0  0  0  0
   28.0798   -0.7628    0.0000 H   0  0  0  0  0  0  0  0  0  0  0  0
   18.2665   -1.4328    0.0000 H   0  0  0  0  0  0  0  0  0  0  0  0
   16.2534    0.9957    0.0000 H   0  0  0  0  0  0  0  0  0  0  0  0
   20.1709    4.2570    0.0000 H   0  0  0  0  0  0  0  0  0  0  0  0
   17.7072    5.0816    0.0000 H   0  0  0  0  0  0  0  0  0  0  0  0
   13.3006    1.0213    0.0000 H   0  0  0  0  0  0  0  0  0  0  0  0
   11.0075   -2.3576    0.0000 H   0  0  0  0  0  0  0  0  0  0  0  0
   12.9358   -2.3746    0.0000 H   0  0  0  0  0  0  0  0  0  0  0  0
    9.7354    0.7018    0.0000 H   0  0  0  0  0  0  0  0  0  0  0  0
   11.6637    0.6848    0.0000 H   0  0  0  0  0  0  0  0  0  0  0  0
    8.1047    1.0672    0.0000 H   0  0  0  0  0  0  0  0  0  0  0  0
    7.7399   -2.3288    0.0000 H   0  0  0  0  0  0  0  0  0  0  0  0
    5.2861   -3.7167    0.0000 H   0  0  0  0  0  0  0  0  0  0  0  0
    7.1039   -3.0732    0.0000 H   0  0  0  0  0  0  0  0  0  0  0  0
    4.6641    0.6265    0.0000 H   0  0  0  0  0  0  0  0  0  0  0  0
    1.5334    0.9001    0.0000 H   0  0  0  0  0  0  0  0  0  0  0  0
   -0.0879   -1.2178    0.0000 H   0  0  0  0  0  0  0  0  0  0  0  0
    0.9133   -4.0458    0.0000 H   0  0  0  0  0  0  0  0  0  0  0  0
    3.8630   -4.5928    0.0000 H   0  0  0  0  0  0  0  0  0  0  0  0
    3.8121   -2.6005    0.0000 H   0  0  0  0  0  0  0  0  0  0  0  0
    3.8698    0.7536    0.0000 H   0  0  0  0  0  0  0  0  0  0  0  0
    0.8718    1.8221    0.0000 H   0  0  0  0  0  0  0  0  0  0  0  0
    0.8355   -0.2426    0.0000 H   0  0  0  0  0  0  0  0  0  0  0  0
    1.5129    3.3331    0.0000 H   0  0  0  0  0  0  0  0  0  0  0  0
    0.3108    1.1360    0.0000 H   0  0  0  0  0  0  0  0  0  0  0  0
    0.1752   -2.4302    0.0000 H   0  0  0  0  0  0  0  0  0  0  0  0
   -0.4231   -3.7737    0.0000 H   0  0  0  0  0  0  0  0  0  0  0  0
   -0.6272   -4.3643    0.0000 H   0  0  0  0  0  0  0  0  0  0  0  0
   -1.3780   -5.2235    0.0000 H   0  0  0  0  0  0  0  0  0  0  0  0
   -1.8175   -5.6446    0.0000 H   0  0  0  0  0  0  0  0  0  0  0  0
   -3.0687   -6.4176    0.0000 H   0  0  0  0  0  0  0  0  0  0  0  0
   -4.0059   -7.0174    0.0000 H   0  0  0  0  0  0  0  0  0  0  0  0
    0.4454   -3.4944    0.0000 H   0  0  0  0  0  0  0  0  0  0  0  0
    1.7022   -2.2400    0.0000 H   0  0  0  0  0  0  0  0  0  0  0  0
    1.2544   -0.9244    0.0000 H   0  0  0  0  0  0  0  0  0  0  0  0
   -0.4279    2.5494    0.0000 H   0  0  0  0  0  0  0  0  0  0  0  0
   -1.1840    3.1503    0.0000 H   0  0  0  0  0  0  0  0  0  0  0  0
   -2.8937    5.8445    0.0000 H   0  0  0  0  0  0  0  0  0  0  0  0
   -3.8931    4.7568    0.0000 H   0  0  0  0  0  0  0  0  0  0  0  0
   -0.5693    3.5258    0.0000 H   0  0  0  0  0  0  0  0  0  0  0  0
    0.5310    7.1367    0.0000 H   0  0  0  0  0  0  0  0  0  0  0  0
   -1.0785    7.9071    0.0000 H   0  0  0  0  0  0  0  0  0  0  0  0
   -2.2859    6.5931    0.0000 H   0  0  0  0  0  0  0  0  0  0  0  0
    1.3522    6.1895    0.0000 H   0  0  0  0  0  0  0  0  0  0  0  0
    1.8865    4.4869    0.0000 H   0  0  0  0  0  0  0  0  0  0  0  0
    0.2322    3.4960    0.0000 H   0  0  0  0  0  0  0  0  0  0  0  0
   -4.9824    5.6313    0.0000 H   0  0  0  0  0  0  0  0  0  0  0  0
   -6.2668    5.5329    0.0000 H   0  0  0  0  0  0  0  0  0  0  0  0
   -9.2008    5.9605    0.0000 H   0  0  0  0  0  0  0  0  0  0  0  0
   -9.0485    4.3337    0.0000 H   0  0  0  0  0  0  0  0  0  0  0  0
   -4.6773    6.4470    0.0000 H   0  0  0  0  0  0  0  0  0  0  0  0
   -4.7948    9.5552    0.0000 H   0  0  0  0  0  0  0  0  0  0  0  0
   -7.1765   11.7063    0.0000 H   0  0  0  0  0  0  0  0  0  0  0  0
  -10.1620   12.0015    0.0000 H   0  0  0  0  0  0  0  0  0  0  0  0
  -11.9104    9.5637    0.0000 H   0  0  0  0  0  0  0  0  0  0  0  0
  -10.6734    6.8306    0.0000 H   0  0  0  0  0  0  0  0  0  0  0  0
  -10.5511    3.9089    0.0000 H   0  0  0  0  0  0  0  0  0  0  0  0
  -10.9686    3.0380    0.0000 H   0  0  0  0  0  0  0  0  0  0  0  0
  -13.2149    0.7717    0.0000 H   0  0  0  0  0  0  0  0  0  0  0  0
  -11.9320    0.0393    0.0000 H   0  0  0  0  0  0  0  0  0  0  0  0
  -12.9373    4.2756    0.0000 H   0  0  0  0  0  0  0  0  0  0  0  0
  -11.4715    3.5537    0.0000 H   0  0  0  0  0  0  0  0  0  0  0  0
  -15.5456    1.9195    0.0000 H   0  0  0  0  0  0  0  0  0  0  0  0
  -14.0799    1.1977    0.0000 H   0  0  0  0  0  0  0  0  0  0  0  0
  -15.4482    5.3908    0.0000 H   0  0  0  0  0  0  0  0  0  0  0  0
  -13.8023    4.7016    0.0000 H   0  0  0  0  0  0  0  0  0  0  0  0
  -17.4217    5.0818    0.0000 H   0  0  0  0  0  0  0  0  0  0  0  0
  -17.9603    3.2302    0.0000 H   0  0  0  0  0  0  0  0  0  0  0  0
  -16.4106    2.3455    0.0000 H   0  0  0  0  0  0  0  0  0  0  0  0
  -12.5367   -1.4004    0.0000 H   0  0  0  0  0  0  0  0  0  0  0  0
  -10.3695   -5.4372    0.0000 H   0  0  0  0  0  0  0  0  0  0  0  0
  -11.3185   -4.5365    0.0000 H   0  0  0  0  0  0  0  0  0  0  0  0
   -8.9949   -6.4973    0.0000 H   0  0  0  0  0  0  0  0  0  0  0  0
   -9.9844   -5.9292    0.0000 H   0  0  0  0  0  0  0  0  0  0  0  0
   -7.0077   -7.0764    0.0000 H   0  0  0  0  0  0  0  0  0  0  0  0
   -8.4423   -6.7526    0.0000 H   0  0  0  0  0  0  0  0  0  0  0  0
   -5.9263   -7.3386    0.0000 H   0  0  0  0  0  0  0  0  0  0  0  0
  -13.3817   -3.3184    0.0000 H   0  0  0  0  0  0  0  0  0  0  0  0
  -13.3504   -1.5342    0.0000 H   0  0  0  0  0  0  0  0  0  0  0  0
  -11.9906   -0.9572    0.0000 H   0  0  0  0  0  0  0  0  0  0  0  0
  -13.8358   -2.5584    0.0000 H   0  0  0  0  0  0  0  0  0  0  0  0
  -12.5303   -5.6884    0.0000 H   0  0  0  0  0  0  0  0  0  0  0  0
  -13.9578   -7.9758    0.0000 H   0  0  0  0  0  0  0  0  0  0  0  0
  -12.7803   -6.6350    0.0000 H   0  0  0  0  0  0  0  0  0  0  0  0
  -16.3851   -5.5575    0.0000 H   0  0  0  0  0  0  0  0  0  0  0  0
  -17.4942   -8.9205    0.0000 H   0  0  0  0  0  0  0  0  0  0  0  0
  -15.9693   -9.8473    0.0000 H   0  0  0  0  0  0  0  0  0  0  0  0
  -14.6371   -8.6601    0.0000 H   0  0  0  0  0  0  0  0  0  0  0  0
  -18.2169   -7.8963    0.0000 H   0  0  0  0  0  0  0  0  0  0  0  0
  -18.5790   -6.1490    0.0000 H   0  0  0  0  0  0  0  0  0  0  0  0
  -16.8343   -5.3276    0.0000 H   0  0  0  0  0  0  0  0  0  0  0  0
  1  2  1  0
  2  3  1  0
  3  4  2  0
  4  5  1  0
  5  6  2  0
  6  7  1  0
  7  8  2  0
  7  9  1  0
  9 10  1  0
 10 11  1  0
 11 12  2  0
  9 13  1  0
 13 14  1  0
 14 15  2  0
 15 16  1  0
 16 17  2  0
 17 18  1  0
 16 19  1  0
 14 20  1  0
 20 21  1  0
 21 22  2  0
 22 23  1  0
 23 24  2  0
 24 25  1  0
 25 26  2  0
 25 27  1  0
  1 28  2  0
  1 29  1  0
 29 30  1  0
 30 31  1  0
 31 32  1  0
 32 33  2  0
 32 34  1  0
 34 35  1  0
 35 36  1  0
 36 37  1  0
 37 38  2  0
 38 39  1  0
 39 40  2  0
 40 41  1  0
 41 42  2  0
 35 43  1  0
 43 44  2  0
 43 45  1  0
 45 46  1  0
 46 47  1  0
 47 48  1  0
 46 49  1  0
 49 50  2  0
 49 51  1  0
 52 51  1  1
 52 53  1  0
 53 54  1  0
 54 55  1  0
 55 56  1  0
 52 57  1  0
 52 58  1  0
 58 59  2  0
 58 60  1  0
 60 61  1  0
 61 62  1  0
 62 63  1  0
 63 64  1  0
 63 65  1  0
 61 66  1  0
 66 67  2  0
 66 68  1  0
 68 69  1  0
 69 70  1  0
 70 71  1  0
 71 72  2  0
 72 73  1  0
 73 74  1  0
 74 75  2  0
 75 76  1  0
 76 77  2  0
 77 78  1  0
 78 79  2  0
 69 80  1  0
 80 81  2  0
 80 82  1  0
 82 83  1  0
 83 84  1  0
 84 85  1  0
 85 86  1  0
 86 87  1  0
 87 88  1  0
 83 89  1  0
 89 90  2  0
 89 91  1  0
 91 92  1  0
 92 93  1  0
 93 94  1  0
 94 95  1  0
 95 96  1  0
 92 97  1  0
 92 98  1  1
 98 99  2  0
 98100  1  0
100101  1  0
101102  1  0
102103  1  0
103104  1  0
103105  1  0
101106  1  0
106107  2  0
106108  1  0
  8  3  1  0
 42 37  1  0
 79 71  1  0
 11  6  1  0
 79 74  1  0
 18 13  2  0
 56 96  2  0
 22  9  1  0
 26 21  1  0
  2109  1  0
  4110  1  0
  5111  1  0
  8112  1  0
 15113  1  0
 17114  1  0
 18115  1  0
 19116  1  0
 23117  1  0
 24118  1  0
 26119  1  0
 27120  1  0
 29121  1  0
 30122  1  0
 30123  1  0
 31124  1  0
 31125  1  0
 34126  1  0
 35127  1  1
 36128  1  0
 36129  1  0
 38130  1  0
 39131  1  0
 40132  1  0
 41133  1  0
 42134  1  0
 45135  1  0
 46136  1  6
 47137  1  0
 47138  1  0
 48139  1  0
 51140  1  0
 53141  1  0
 53142  1  0
 54143  1  0
 54144  1  0
 55145  1  0
 55146  1  0
 56147  1  0
 57148  1  0
 57149  1  0
 57150  1  0
 60151  1  0
 61152  1  6
 62153  1  0
 62154  1  0
 63155  1  0
 64156  1  0
 64157  1  0
 64158  1  0
 65159  1  0
 65160  1  0
 65161  1  0
 68162  1  0
 69163  1  6
 70164  1  0
 70165  1  0
 72166  1  0
 73167  1  0
 75168  1  0
 76169  1  0
 77170  1  0
 78171  1  0
 82172  1  0
 83173  1  6
 84174  1  0
 84175  1  0
 85176  1  0
 85177  1  0
 86178  1  0
 86179  1  0
 87180  1  0
 87181  1  0
 88182  1  0
 88183  1  0
 88184  1  0
 91185  1  0
 93186  1  0
 93187  1  0
 94188  1  0
 94189  1  0
 95190  1  0
 95191  1  0
 96192  1  0
 97193  1  0
 97194  1  0
 97195  1  0
100196  1  0
101197  1  1
102198  1  0
102199  1  0
103200  1  0
104201  1  0
104202  1  0
104203  1  0
105204  1  0
105205  1  0
105206  1  0
M  CHG  2  88   1 108  -1
M  END
