
     RDKit          2D

216222  0  0  0  0  0  0  0  0999 V2000
  -16.5887    0.8187    0.0000 C   0  0  0  0  0  0  0  0  0  0  0  0
  -17.8865    0.0665    0.0000 N   0  0  0  0  0  0  0  0  0  0  0  0
  -19.1868    0.8143    0.0000 C   0  0  0  0  0  0  0  0  0  0  0  0
  -19.1893    2.3143    0.0000 C   0  0  0  0  0  0  0  0  0  0  0  0
  -20.4896    3.0621    0.0000 C   0  0  0  0  0  0  0  0  0  0  0  0
  -21.7874    2.3099    0.0000 C   0  0  0  0  0  0  0  0  0  0  0  0
  -21.7849    0.8099    0.0000 C   0  0  0  0  0  0  0  0  0  0  0  0
  -20.4846    0.0621    0.0000 C   0  0  0  0  0  0  0  0  0  0  0  0
  -23.2107    0.3440    0.0000 C   0  0  0  0  0  0  0  0  0  0  0  0
  -24.0944    1.5561    0.0000 O   0  0  0  0  0  0  0  0  0  0  0  0
  -23.2148    2.7711    0.0000 C   0  0  0  0  0  0  0  0  0  0  0  0
  -23.6807    4.1969    0.0000 O   0  0  0  0  0  0  0  0  0  0  0  0
  -24.6774    0.0297    0.0000 C   0  0  0  0  0  0  0  0  0  0  0  0
  -25.1385   -1.3977    0.0000 C   0  0  0  0  0  0  0  0  0  0  0  0
  -26.6052   -1.7120    0.0000 C   0  0  0  0  0  0  0  0  0  0  0  0
  -27.6108   -0.5990    0.0000 C   0  0  0  0  0  0  0  0  0  0  0  0
  -27.1497    0.8284    0.0000 C   0  0  0  0  0  0  0  0  0  0  0  0
  -25.6830    1.1427    0.0000 C   0  0  0  0  0  0  0  0  0  0  0  0
  -29.0775   -0.9133    0.0000 O   0  0  0  0  0  0  0  0  0  0  0  0
  -24.1330   -2.5107    0.0000 O   0  0  0  0  0  0  0  0  0  0  0  0
  -22.6663   -2.1964    0.0000 C   0  0  0  0  0  0  0  0  0  0  0  0
  -22.2051   -0.7690    0.0000 C   0  0  0  0  0  0  0  0  0  0  0  0
  -20.9536   -1.1208    0.0000 C   0  0  0  0  0  0  0  0  0  0  0  0
  -20.4173   -1.7144    0.0000 C   0  0  0  0  0  0  0  0  0  0  0  0
  -20.6633   -2.4756    0.0000 C   0  0  0  0  0  0  0  0  0  0  0  0
  -21.4455   -2.6433    0.0000 C   0  0  0  0  0  0  0  0  0  0  0  0
  -19.1884   -4.1081    0.0000 O   0  0  0  0  0  0  0  0  0  0  0  0
  -16.5913    2.3187    0.0000 S   0  0  0  0  0  0  0  0  0  0  0  0
  -15.2885    0.0709    0.0000 N   0  0  0  0  0  0  0  0  0  0  0  0
  -13.9907    0.8230    0.0000 C   0  0  0  0  0  0  0  0  0  0  0  0
  -12.6904    0.0752    0.0000 C   0  0  0  0  0  0  0  0  0  0  0  0
  -11.3926    0.8274    0.0000 C   0  0  0  0  0  0  0  0  0  0  0  0
  -11.3951    2.3274    0.0000 O   0  0  0  0  0  0  0  0  0  0  0  0
  -10.0923    0.0796    0.0000 N   0  0  0  0  0  0  0  0  0  0  0  0
   -8.7945    0.8318    0.0000 C   0  0  0  0  0  0  0  0  0  0  0  0
   -7.8323    1.9825    0.0000 C   0  0  0  0  0  0  0  0  0  0  0  0
   -6.3546    1.7245    0.0000 C   0  0  0  0  0  0  0  0  0  0  0  0
   -5.3924    2.8751    0.0000 C   0  0  0  0  0  0  0  0  0  0  0  0
   -3.9147    2.6172    0.0000 N   0  0  0  0  0  0  0  0  0  0  0  0
   -2.9525    3.7678    0.0000 C   0  0  0  0  0  0  0  0  0  0  0  0
   -1.5173    3.3317    0.0000 N   0  0  0  0  0  0  0  0  0  0  0  0
   -3.4679    5.1765    0.0000 N   0  0  0  0  0  0  0  0  0  0  0  0
   -7.4942    0.0840    0.0000 C   0  0  0  0  0  0  0  0  0  0  0  0
   -7.4917   -1.4160    0.0000 O   0  0  0  0  0  0  0  0  0  0  0  0
   -6.1965    0.8361    0.0000 N   0  0  0  0  0  0  0  0  0  0  0  0
   -4.8962    0.0883    0.0000 C   0  0  0  0  0  0  0  0  0  0  0  0
   -3.9301   -1.0591    0.0000 C   0  0  0  0  0  0  0  0  0  0  0  0
   -4.4407   -2.4695    0.0000 C   0  0  0  0  0  0  0  0  0  0  0  0
   -3.4746   -3.6170    0.0000 C   0  0  0  0  0  0  0  0  0  0  0  0
   -3.9853   -5.0274    0.0000 C   0  0  0  0  0  0  0  0  0  0  0  0
   -3.0192   -6.1748    0.0000 N   0  0  0  0  0  0  0  0  0  0  0  0
   -3.5984    0.8405    0.0000 C   0  0  0  0  0  0  0  0  0  0  0  0
   -3.3356    1.9019    0.0000 O   0  0  0  0  0  0  0  0  0  0  0  0
   -2.2981    0.0927    0.0000 N   0  0  0  0  0  0  0  0  0  0  0  0
   -1.0003    0.8449    0.0000 C   0  0  0  0  0  0  0  0  0  0  0  0
   -0.0381    1.9955    0.0000 C   0  0  0  0  0  0  0  0  0  0  0  0
    1.4396    1.7376    0.0000 C   0  0  0  0  0  0  0  0  0  0  0  0
    1.9550    0.3289    0.0000 C   0  0  0  0  0  0  0  0  0  0  0  0
    3.4326    0.0709    0.0000 C   0  0  0  0  0  0  0  0  0  0  0  0
    4.3949    1.2216    0.0000 C   0  0  0  0  0  0  0  0  0  0  0  0
    3.8795    2.6303    0.0000 C   0  0  0  0  0  0  0  0  0  0  0  0
    2.4018    2.8882    0.0000 C   0  0  0  0  0  0  0  0  0  0  0  0
    0.3000    0.0970    0.0000 C   0  0  0  0  0  0  0  0  0  0  0  0
    0.1196   -1.3921    0.0000 O   0  0  0  0  0  0  0  0  0  0  0  0
    1.5978    0.8492    0.0000 N   0  0  0  0  0  0  0  0  0  0  0  0
    2.8981    0.1014    0.0000 C   0  0  0  0  0  0  0  0  0  0  0  0
    3.8642   -1.0460    0.0000 C   0  0  0  0  0  0  0  0  0  0  0  0
    3.3535   -2.4564    0.0000 C   0  0  0  0  0  0  0  0  0  0  0  0
    4.3196   -3.6039    0.0000 C   0  0  0  0  0  0  0  0  0  0  0  0
    3.8090   -5.0143    0.0000 C   0  0  0  0  0  0  0  0  0  0  0  0
    4.7751   -6.1617    0.0000 N   0  0  0  0  0  0  0  0  0  0  0  0
    4.1958    0.8536    0.0000 C   0  0  0  0  0  0  0  0  0  0  0  0
    4.5563    2.3096    0.0000 O   0  0  0  0  0  0  0  0  0  0  0  0
    5.4961    0.1058    0.0000 N   0  0  0  0  0  0  0  0  0  0  0  0
    6.7939    0.8580    0.0000 C   0  0  0  0  0  0  0  0  0  0  0  0
    7.7562    2.0086    0.0000 C   0  0  0  0  0  0  0  0  0  0  0  0
    9.2338    1.7507    0.0000 C   0  0  0  0  0  0  0  0  0  0  0  0
   10.1961    2.9013    0.0000 C   0  0  0  0  0  0  0  0  0  0  0  0
   11.6737    2.6433    0.0000 N   0  0  0  0  0  0  0  0  0  0  0  0
   12.6359    3.7940    0.0000 C   0  0  0  0  0  0  0  0  0  0  0  0
   14.0711    3.3578    0.0000 N   0  0  0  0  0  0  0  0  0  0  0  0
   12.1206    5.2027    0.0000 N   0  0  0  0  0  0  0  0  0  0  0  0
    8.0942    0.1101    0.0000 C   0  0  0  0  0  0  0  0  0  0  0  0
    8.0967   -1.3899    0.0000 O   0  0  0  0  0  0  0  0  0  0  0  0
    9.3920    0.8623    0.0000 N   0  0  0  0  0  0  0  0  0  0  0  0
   10.6923    0.1145    0.0000 C   0  0  0  0  0  0  0  0  0  0  0  0
   11.6584   -1.0329    0.0000 C   0  0  0  0  0  0  0  0  0  0  0  0
   11.1477   -2.4433    0.0000 C   0  0  0  0  0  0  0  0  0  0  0  0
   12.1138   -3.5908    0.0000 C   0  0  0  0  0  0  0  0  0  0  0  0
   10.1855   -3.5940    0.0000 C   0  0  0  0  0  0  0  0  0  0  0  0
   11.9901    0.8667    0.0000 C   0  0  0  0  0  0  0  0  0  0  0  0
   12.3506    2.3227    0.0000 O   0  0  0  0  0  0  0  0  0  0  0  0
   13.2903    0.1189    0.0000 N   0  0  0  0  0  0  0  0  0  0  0  0
   14.5881    0.8711    0.0000 C   0  0  0  0  0  0  0  0  0  0  0  0
   15.5504    2.0217    0.0000 C   0  0  0  0  0  0  0  0  0  0  0  0
   17.0280    1.7637    0.0000 C   0  0  0  0  0  0  0  0  0  0  0  0
   17.5434    0.3551    0.0000 C   0  0  0  0  0  0  0  0  0  0  0  0
   19.0211    0.0971    0.0000 C   0  0  0  0  0  0  0  0  0  0  0  0
   19.9833    1.2478    0.0000 C   0  0  0  0  0  0  0  0  0  0  0  0
   19.4679    2.6564    0.0000 C   0  0  0  0  0  0  0  0  0  0  0  0
   17.9903    2.9144    0.0000 C   0  0  0  0  0  0  0  0  0  0  0  0
   15.8884    0.1232    0.0000 C   0  0  0  0  0  0  0  0  0  0  0  0
   15.7081   -1.3659    0.0000 O   0  0  0  0  0  0  0  0  0  0  0  0
   17.1862    0.8754    0.0000 N   0  0  0  0  0  0  0  0  0  0  0  0
   18.4865    0.1276    0.0000 C   0  0  0  0  0  0  0  0  0  0  0  0
   19.4526   -1.0198    0.0000 C   0  0  0  0  0  0  0  0  0  0  0  0
   18.9419   -2.4302    0.0000 C   0  0  0  0  0  0  0  0  0  0  0  0
   19.9081   -3.5777    0.0000 C   0  0  0  0  0  0  0  0  0  0  0  0
   19.3974   -4.9881    0.0000 N   0  0  0  0  0  0  0  0  0  0  0  0
   21.3848   -3.3147    0.0000 O   0  0  0  0  0  0  0  0  0  0  0  0
   19.7843    0.8798    0.0000 C   0  0  0  0  0  0  0  0  0  0  0  0
   21.1660    0.2960    0.0000 O   0  0  0  0  0  0  0  0  0  0  0  0
   20.1448    2.3358    0.0000 O   0  0  0  0  0  0  0  0  0  0  0  0
  -17.7012   -1.4220    0.0000 H   0  0  0  0  0  0  0  0  0  0  0  0
  -17.8916    3.0665    0.0000 H   0  0  0  0  0  0  0  0  0  0  0  0
  -20.4922    4.5621    0.0000 H   0  0  0  0  0  0  0  0  0  0  0  0
  -20.1192   -1.3927    0.0000 H   0  0  0  0  0  0  0  0  0  0  0  0
  -27.0663   -3.1394    0.0000 H   0  0  0  0  0  0  0  0  0  0  0  0
  -28.1552    1.9414    0.0000 H   0  0  0  0  0  0  0  0  0  0  0  0
  -25.2218    2.5701    0.0000 H   0  0  0  0  0  0  0  0  0  0  0  0
  -30.0830    0.1997    0.0000 H   0  0  0  0  0  0  0  0  0  0  0  0
  -20.2773    0.9727    0.0000 H   0  0  0  0  0  0  0  0  0  0  0  0
  -18.2388   -1.4345    0.0000 H   0  0  0  0  0  0  0  0  0  0  0  0
  -22.1218   -4.7368    0.0000 H   0  0  0  0  0  0  0  0  0  0  0  0
  -19.6496   -5.5355    0.0000 H   0  0  0  0  0  0  0  0  0  0  0  0
  -15.2859   -1.4291    0.0000 H   0  0  0  0  0  0  0  0  0  0  0  0
  -13.0284    1.9737    0.0000 H   0  0  0  0  0  0  0  0  0  0  0  0
  -14.9568    1.9705    0.0000 H   0  0  0  0  0  0  0  0  0  0  0  0
  -11.7243   -1.0722    0.0000 H   0  0  0  0  0  0  0  0  0  0  0  0
  -13.6526   -1.0755    0.0000 H   0  0  0  0  0  0  0  0  0  0  0  0
  -10.0898   -1.4204    0.0000 H   0  0  0  0  0  0  0  0  0  0  0  0
   -9.7606    1.9792    0.0000 H   0  0  0  0  0  0  0  0  0  0  0  0
   -7.4973    3.4446    0.0000 H   0  0  0  0  0  0  0  0  0  0  0  0
   -9.1326    2.7303    0.0000 H   0  0  0  0  0  0  0  0  0  0  0  0
   -5.0543    0.9766    0.0000 H   0  0  0  0  0  0  0  0  0  0  0  0
   -6.1432    0.2394    0.0000 H   0  0  0  0  0  0  0  0  0  0  0  0
   -4.8817    4.2855    0.0000 H   0  0  0  0  0  0  0  0  0  0  0  0
   -6.5918    3.7759    0.0000 H   0  0  0  0  0  0  0  0  0  0  0  0
   -3.0738    1.3751    0.0000 H   0  0  0  0  0  0  0  0  0  0  0  0
   -0.5126    4.6605    0.0000 H   0  0  0  0  0  0  0  0  0  0  0  0
   -2.5056    6.3272    0.0000 H   0  0  0  0  0  0  0  0  0  0  0  0
   -4.9455    5.4345    0.0000 H   0  0  0  0  0  0  0  0  0  0  0  0
   -5.8359    2.2922    0.0000 H   0  0  0  0  0  0  0  0  0  0  0  0
   -5.9915   -0.9365    0.0000 H   0  0  0  0  0  0  0  0  0  0  0  0
   -2.6298   -1.8069    0.0000 H   0  0  0  0  0  0  0  0  0  0  0  0
   -2.7180   -0.1755    0.0000 H   0  0  0  0  0  0  0  0  0  0  0  0
   -5.5361   -3.4943    0.0000 H   0  0  0  0  0  0  0  0  0  0  0  0
   -5.8225   -1.8858    0.0000 H   0  0  0  0  0  0  0  0  0  0  0  0
   -2.1743   -4.3648    0.0000 H   0  0  0  0  0  0  0  0  0  0  0  0
   -2.3793   -2.5922    0.0000 H   0  0  0  0  0  0  0  0  0  0  0  0
   -4.9475   -6.1781    0.0000 H   0  0  0  0  0  0  0  0  0  0  0  0
   -5.3670   -4.4436    0.0000 H   0  0  0  0  0  0  0  0  0  0  0  0
   -3.5298   -7.5852    0.0000 H   0  0  0  0  0  0  0  0  0  0  0  0
   -1.5424   -5.9119    0.0000 H   0  0  0  0  0  0  0  0  0  0  0  0
   -2.1127   -1.3958    0.0000 H   0  0  0  0  0  0  0  0  0  0  0  0
   -1.9664    1.9923    0.0000 H   0  0  0  0  0  0  0  0  0  0  0  0
    0.4726    3.4059    0.0000 H   0  0  0  0  0  0  0  0  0  0  0  0
   -1.4198    2.5793    0.0000 H   0  0  0  0  0  0  0  0  0  0  0  0
    1.1402   -0.9305    0.0000 H   0  0  0  0  0  0  0  0  0  0  0  0
    4.2736   -1.1712    0.0000 H   0  0  0  0  0  0  0  0  0  0  0  0
    5.8725    0.9636    0.0000 H   0  0  0  0  0  0  0  0  0  0  0  0
    4.8417    3.7809    0.0000 H   0  0  0  0  0  0  0  0  0  0  0  0
    1.8864    4.2969    0.0000 H   0  0  0  0  0  0  0  0  0  0  0  0
    1.9583    2.3053    0.0000 H   0  0  0  0  0  0  0  0  0  0  0  0
    1.8027   -0.9234    0.0000 H   0  0  0  0  0  0  0  0  0  0  0  0
    5.1645   -1.7939    0.0000 H   0  0  0  0  0  0  0  0  0  0  0  0
    5.0763   -0.1624    0.0000 H   0  0  0  0  0  0  0  0  0  0  0  0
    2.2582   -3.4812    0.0000 H   0  0  0  0  0  0  0  0  0  0  0  0
    1.9717   -1.8727    0.0000 H   0  0  0  0  0  0  0  0  0  0  0  0
    5.6199   -4.3517    0.0000 H   0  0  0  0  0  0  0  0  0  0  0  0
    5.4150   -2.5791    0.0000 H   0  0  0  0  0  0  0  0  0  0  0  0
    2.8467   -6.1650    0.0000 H   0  0  0  0  0  0  0  0  0  0  0  0
    2.4272   -4.4305    0.0000 H   0  0  0  0  0  0  0  0  0  0  0  0
    4.2644   -7.5721    0.0000 H   0  0  0  0  0  0  0  0  0  0  0  0
    6.2518   -5.8988    0.0000 H   0  0  0  0  0  0  0  0  0  0  0  0
    5.6815   -1.3827    0.0000 H   0  0  0  0  0  0  0  0  0  0  0  0
    5.8278    2.0054    0.0000 H   0  0  0  0  0  0  0  0  0  0  0  0
    8.0911    3.4708    0.0000 H   0  0  0  0  0  0  0  0  0  0  0  0
    6.4559    2.7565    0.0000 H   0  0  0  0  0  0  0  0  0  0  0  0
   10.5341    1.0028    0.0000 H   0  0  0  0  0  0  0  0  0  0  0  0
    9.4452    0.2656    0.0000 H   0  0  0  0  0  0  0  0  0  0  0  0
   10.7067    4.3117    0.0000 H   0  0  0  0  0  0  0  0  0  0  0  0
    8.9966    3.8021    0.0000 H   0  0  0  0  0  0  0  0  0  0  0  0
   12.5146    1.4012    0.0000 H   0  0  0  0  0  0  0  0  0  0  0  0
   15.0758    4.6867    0.0000 H   0  0  0  0  0  0  0  0  0  0  0  0
   13.0828    6.3534    0.0000 H   0  0  0  0  0  0  0  0  0  0  0  0
   10.6429    5.4607    0.0000 H   0  0  0  0  0  0  0  0  0  0  0  0
    9.7525    2.3184    0.0000 H   0  0  0  0  0  0  0  0  0  0  0  0
    9.5969   -0.9103    0.0000 H   0  0  0  0  0  0  0  0  0  0  0  0
   12.9587   -1.7808    0.0000 H   0  0  0  0  0  0  0  0  0  0  0  0
   12.8705   -0.1493    0.0000 H   0  0  0  0  0  0  0  0  0  0  0  0
    9.7660   -1.8596    0.0000 H   0  0  0  0  0  0  0  0  0  0  0  0
   11.7789   -5.0529    0.0000 H   0  0  0  0  0  0  0  0  0  0  0  0
   13.4141   -4.3386    0.0000 H   0  0  0  0  0  0  0  0  0  0  0  0
   13.2092   -2.5660    0.0000 H   0  0  0  0  0  0  0  0  0  0  0  0
   10.5253   -5.0550    0.0000 H   0  0  0  0  0  0  0  0  0  0  0  0
    8.8877   -4.3462    0.0000 H   0  0  0  0  0  0  0  0  0  0  0  0
    9.2194   -2.4466    0.0000 H   0  0  0  0  0  0  0  0  0  0  0  0
   13.4757   -1.3696    0.0000 H   0  0  0  0  0  0  0  0  0  0  0  0
   13.6220    2.0185    0.0000 H   0  0  0  0  0  0  0  0  0  0  0  0
   16.0610    3.4321    0.0000 H   0  0  0  0  0  0  0  0  0  0  0  0
   14.1686    2.6055    0.0000 H   0  0  0  0  0  0  0  0  0  0  0  0
   16.7286   -0.9043    0.0000 H   0  0  0  0  0  0  0  0  0  0  0  0
   19.8620   -1.1450    0.0000 H   0  0  0  0  0  0  0  0  0  0  0  0
   21.4610    0.9898    0.0000 H   0  0  0  0  0  0  0  0  0  0  0  0
   20.4302    3.8071    0.0000 H   0  0  0  0  0  0  0  0  0  0  0  0
   17.4749    4.3231    0.0000 H   0  0  0  0  0  0  0  0  0  0  0  0
   17.5467    2.3314    0.0000 H   0  0  0  0  0  0  0  0  0  0  0  0
   17.3912   -0.8972    0.0000 H   0  0  0  0  0  0  0  0  0  0  0  0
   20.7529   -1.7677    0.0000 H   0  0  0  0  0  0  0  0  0  0  0  0
   20.5479    0.0050    0.0000 H   0  0  0  0  0  0  0  0  0  0  0  0
   17.9797   -3.5809    0.0000 H   0  0  0  0  0  0  0  0  0  0  0  0
   17.5602   -1.8465    0.0000 H   0  0  0  0  0  0  0  0  0  0  0  0
   20.3635   -6.1355    0.0000 H   0  0  0  0  0  0  0  0  0  0  0  0
   17.9206   -5.2510    0.0000 H   0  0  0  0  0  0  0  0  0  0  0  0
   21.0795    3.1320    0.0000 H   0  0  0  0  0  0  0  0  0  0  0  0
  1  2  1  0
  2  3  1  0
  3  4  2  0
  4  5  1  0
  5  6  2  0
  6  7  1  0
  7  8  2  0
  7  9  1  0
  9 10  1  0
 10 11  1  0
 11 12  2  0
  9 13  1  0
 13 14  1  0
 14 15  2  0
 15 16  1  0
 16 17  2  0
 17 18  1  0
 16 19  1  0
 14 20  1  0
 20 21  1  0
 21 22  2  0
 22 23  1  0
 23 24  2  0
 24 25  1  0
 25 26  2  0
 25 27  1  0
  1 28  2  0
  1 29  1  0
 29 30  1  0
 30 31  1  0
 31 32  1  0
 32 33  2  0
 32 34  1  0
 34 35  1  0
 35 36  1  0
 36 37  1  0
 37 38  1  0
 38 39  1  0
 39 40  1  0
 40 41  2  3
 40 42  1  0
 35 43  1  0
 43 44  2  0
 43 45  1  0
 45 46  1  0
 46 47  1  0
 47 48  1  0
 48 49  1  0
 49 50  1  0
 50 51  1  0
 46 52  1  0
 52 53  2  0
 52 54  1  0
 54 55  1  0
 55 56  1  0
 56 57  1  0
 57 58  2  0
 58 59  1  0
 59 60  2  0
 60 61  1  0
 61 62  2  0
 55 63  1  0
 63 64  2  0
 63 65  1  0
 65 66  1  0
 66 67  1  0
 67 68  1  0
 68 69  1  0
 69 70  1  0
 70 71  1  0
 66 72  1  0
 72 73  2  0
 72 74  1  0
 74 75  1  0
 75 76  1  0
 76 77  1  0
 77 78  1  0
 78 79  1  0
 79 80  1  0
 80 81  2  3
 80 82  1  0
 75 83  1  0
 83 84  2  0
 83 85  1  0
 85 86  1  0
 86 87  1  0
 87 88  1  0
 88 89  1  0
 88 90  1  0
 86 91  1  0
 91 92  2  0
 91 93  1  0
 93 94  1  0
 94 95  1  0
 95 96  1  0
 96 97  2  0
 97 98  1  0
 98 99  2  0
 99100  1  0
100101  2  0
 94102  1  0
102103  2  0
102104  1  0
104105  1  0
105106  1  0
106107  1  0
107108  1  0
108109  1  0
108110  2  0
105111  1  0
111112  2  0
111113  1  0
  8  3  1  0
 62 57  1  0
101 96  1  0
 11  6  1  0
 18 13  2  0
 22  9  1  0
 26 21  1  0
  2114  1  0
  4115  1  0
  5116  1  0
  8117  1  0
 15118  1  0
 17119  1  0
 18120  1  0
 19121  1  0
 23122  1  0
 24123  1  0
 26124  1  0
 27125  1  0
 29126  1  0
 30127  1  0
 30128  1  0
 31129  1  0
 31130  1  0
 34131  1  0
 35132  1  1
 36133  1  0
 36134  1  0
 37135  1  0
 37136  1  0
 38137  1  0
 38138  1  0
 39139  1  0
 41140  1  0
 42141  1  0
 42142  1  0
 45143  1  0
 46144  1  6
 47145  1  0
 47146  1  0
 48147  1  0
 48148  1  0
 49149  1  0
 49150  1  0
 50151  1  0
 50152  1  0
 51153  1  0
 51154  1  0
 54155  1  0
 55156  1  1
 56157  1  0
 56158  1  0
 58159  1  0
 59160  1  0
 60161  1  0
 61162  1  0
 62163  1  0
 65164  1  0
 66165  1  6
 67166  1  0
 67167  1  0
 68168  1  0
 68169  1  0
 69170  1  0
 69171  1  0
 70172  1  0
 70173  1  0
 71174  1  0
 71175  1  0
 74176  1  0
 75177  1  1
 76178  1  0
 76179  1  0
 77180  1  0
 77181  1  0
 78182  1  0
 78183  1  0
 79184  1  0
 81185  1  0
 82186  1  0
 82187  1  0
 85188  1  0
 86189  1  6
 87190  1  0
 87191  1  0
 88192  1  0
 89193  1  0
 89194  1  0
 89195  1  0
 90196  1  0
 90197  1  0
 90198  1  0
 93199  1  0
 94200  1  1
 95201  1  0
 95202  1  0
 97203  1  0
 98204  1  0
 99205  1  0
100206  1  0
101207  1  0
104208  1  0
105209  1  6
106210  1  0
106211  1  0
107212  1  0
107213  1  0
109214  1  0
109215  1  0
113216  1  0
M  END
