
     RDKit          2D

300301  0  0  0  0  0  0  0  0999 V2000
   21.0052   -5.8813    0.0000 N   0  0  0  0  0  0  0  0  0  0  0  0
   19.6341   -5.2729    0.0000 C   0  0  0  0  0  0  0  0  0  0  0  0
   19.4754   -3.7814    0.0000 C   0  0  0  0  0  0  0  0  0  0  0  0
   18.1043   -3.1730    0.0000 C   0  0  0  0  0  0  0  0  0  0  0  0
   16.8919   -4.0563    0.0000 O   0  0  0  0  0  0  0  0  0  0  0  0
   17.9455   -1.6815    0.0000 N   0  0  0  0  0  0  0  0  0  0  0  0
   16.5744   -1.0731    0.0000 C   0  0  0  0  0  0  0  0  0  0  0  0
   17.4116    0.1715    0.0000 C   0  0  0  0  0  0  0  0  0  0  0  0
   18.9081    0.0688    0.0000 C   0  0  0  0  0  0  0  0  0  0  0  0
   19.7453    1.3135    0.0000 C   0  0  0  0  0  0  0  0  0  0  0  0
   21.2417    1.2108    0.0000 N   0  0  0  0  0  0  0  0  0  0  0  0
   22.0789    2.4554    0.0000 C   0  0  0  0  0  0  0  0  0  0  0  0
   23.5754    2.3527    0.0000 N   0  0  0  0  0  0  0  0  0  0  0  0
   21.4196    3.8027    0.0000 N   0  0  0  0  0  0  0  0  0  0  0  0
   15.0780   -0.9704    0.0000 C   0  0  0  0  0  0  0  0  0  0  0  0
   14.4186    0.3769    0.0000 O   0  0  0  0  0  0  0  0  0  0  0  0
   14.2408   -2.2151    0.0000 N   0  0  0  0  0  0  0  0  0  0  0  0
   12.7443   -2.1124    0.0000 C   0  0  0  0  0  0  0  0  0  0  0  0
   12.9030   -3.6039    0.0000 C   0  0  0  0  0  0  0  0  0  0  0  0
   14.2741   -4.2123    0.0000 C   0  0  0  0  0  0  0  0  0  0  0  0
   14.4328   -5.7039    0.0000 C   0  0  0  0  0  0  0  0  0  0  0  0
   15.8040   -6.3122    0.0000 N   0  0  0  0  0  0  0  0  0  0  0  0
   15.9627   -7.8038    0.0000 C   0  0  0  0  0  0  0  0  0  0  0  0
   17.3338   -8.4121    0.0000 N   0  0  0  0  0  0  0  0  0  0  0  0
   14.7503   -8.6870    0.0000 N   0  0  0  0  0  0  0  0  0  0  0  0
   11.3732   -1.5040    0.0000 C   0  0  0  0  0  0  0  0  0  0  0  0
   10.1608   -2.3873    0.0000 O   0  0  0  0  0  0  0  0  0  0  0  0
   11.2145   -0.0125    0.0000 N   0  0  0  0  0  0  0  0  0  0  0  0
    9.8434    0.5959    0.0000 C   0  0  0  0  0  0  0  0  0  0  0  0
   10.6805    1.8405    0.0000 C   0  0  0  0  0  0  0  0  0  0  0  0
   12.1770    1.7378    0.0000 C   0  0  0  0  0  0  0  0  0  0  0  0
   13.0142    2.9825    0.0000 C   0  0  0  0  0  0  0  0  0  0  0  0
   14.5107    2.8798    0.0000 N   0  0  0  0  0  0  0  0  0  0  0  0
   15.3479    4.1244    0.0000 C   0  0  0  0  0  0  0  0  0  0  0  0
   16.8443    4.0217    0.0000 N   0  0  0  0  0  0  0  0  0  0  0  0
   14.6886    5.4717    0.0000 N   0  0  0  0  0  0  0  0  0  0  0  0
    8.3469    0.6986    0.0000 C   0  0  0  0  0  0  0  0  0  0  0  0
    7.6876    2.0459    0.0000 O   0  0  0  0  0  0  0  0  0  0  0  0
    7.5097   -0.5461    0.0000 N   0  0  0  0  0  0  0  0  0  0  0  0
    6.0132   -0.4434    0.0000 C   0  0  0  0  0  0  0  0  0  0  0  0
    6.1719   -1.9349    0.0000 C   0  0  0  0  0  0  0  0  0  0  0  0
    7.5430   -2.5433    0.0000 C   0  0  0  0  0  0  0  0  0  0  0  0
    7.7018   -4.0349    0.0000 C   0  0  0  0  0  0  0  0  0  0  0  0
    9.0729   -4.6432    0.0000 N   0  0  0  0  0  0  0  0  0  0  0  0
    9.2316   -6.1348    0.0000 C   0  0  0  0  0  0  0  0  0  0  0  0
   10.6027   -6.7431    0.0000 N   0  0  0  0  0  0  0  0  0  0  0  0
    8.0192   -7.0180    0.0000 N   0  0  0  0  0  0  0  0  0  0  0  0
    4.6421    0.1650    0.0000 C   0  0  0  0  0  0  0  0  0  0  0  0
    3.4297   -0.7183    0.0000 O   0  0  0  0  0  0  0  0  0  0  0  0
    4.4834    1.6565    0.0000 N   0  0  0  0  0  0  0  0  0  0  0  0
    3.1123    2.2649    0.0000 C   0  0  0  0  0  0  0  0  0  0  0  0
    3.9495    3.5095    0.0000 C   0  0  0  0  0  0  0  0  0  0  0  0
    5.4459    3.4068    0.0000 C   0  0  0  0  0  0  0  0  0  0  0  0
    6.2831    4.6515    0.0000 C   0  0  0  0  0  0  0  0  0  0  0  0
    7.7796    4.5488    0.0000 N   0  0  0  0  0  0  0  0  0  0  0  0
    8.6168    5.7934    0.0000 C   0  0  0  0  0  0  0  0  0  0  0  0
   10.1133    5.6907    0.0000 N   0  0  0  0  0  0  0  0  0  0  0  0
    7.9575    7.1407    0.0000 N   0  0  0  0  0  0  0  0  0  0  0  0
    1.6158    2.3676    0.0000 C   0  0  0  0  0  0  0  0  0  0  0  0
    0.9565    3.7149    0.0000 O   0  0  0  0  0  0  0  0  0  0  0  0
    0.7786    1.1229    0.0000 N   0  0  0  0  0  0  0  0  0  0  0  0
   -0.7179    1.2256    0.0000 C   0  0  0  0  0  0  0  0  0  0  0  0
   -0.5591   -0.2660    0.0000 C   0  0  0  0  0  0  0  0  0  0  0  0
    0.8120   -0.8743    0.0000 C   0  0  0  0  0  0  0  0  0  0  0  0
    0.9707   -2.3659    0.0000 C   0  0  0  0  0  0  0  0  0  0  0  0
    2.3418   -2.9742    0.0000 N   0  0  0  0  0  0  0  0  0  0  0  0
    2.5005   -4.4658    0.0000 C   0  0  0  0  0  0  0  0  0  0  0  0
    3.8716   -5.0741    0.0000 N   0  0  0  0  0  0  0  0  0  0  0  0
    1.2881   -5.3490    0.0000 N   0  0  0  0  0  0  0  0  0  0  0  0
   -2.0890    1.8340    0.0000 C   0  0  0  0  0  0  0  0  0  0  0  0
   -3.3014    0.9507    0.0000 O   0  0  0  0  0  0  0  0  0  0  0  0
   -2.2477    3.3255    0.0000 N   0  0  0  0  0  0  0  0  0  0  0  0
   -3.6188    3.9339    0.0000 C   0  0  0  0  0  0  0  0  0  0  0  0
   -2.7816    5.1785    0.0000 C   0  0  0  0  0  0  0  0  0  0  0  0
   -1.2851    5.0758    0.0000 C   0  0  0  0  0  0  0  0  0  0  0  0
   -0.4480    6.3204    0.0000 C   0  0  0  0  0  0  0  0  0  0  0  0
    1.0485    6.2178    0.0000 N   0  0  0  0  0  0  0  0  0  0  0  0
    1.8857    7.4624    0.0000 C   0  0  0  0  0  0  0  0  0  0  0  0
    3.3822    7.3597    0.0000 N   0  0  0  0  0  0  0  0  0  0  0  0
    1.2264    8.8097    0.0000 N   0  0  0  0  0  0  0  0  0  0  0  0
   -5.1153    4.0366    0.0000 C   0  0  0  0  0  0  0  0  0  0  0  0
   -5.7746    5.3839    0.0000 O   0  0  0  0  0  0  0  0  0  0  0  0
   -5.9525    2.7919    0.0000 N   0  0  0  0  0  0  0  0  0  0  0  0
   -7.4489    2.8946    0.0000 C   0  0  0  0  0  0  0  0  0  0  0  0
   -7.2902    1.4030    0.0000 C   0  0  0  0  0  0  0  0  0  0  0  0
   -5.9191    0.7947    0.0000 C   0  0  0  0  0  0  0  0  0  0  0  0
   -5.7604   -0.6969    0.0000 C   0  0  0  0  0  0  0  0  0  0  0  0
   -4.3893   -1.3052    0.0000 N   0  0  0  0  0  0  0  0  0  0  0  0
   -4.2306   -2.7968    0.0000 C   0  0  0  0  0  0  0  0  0  0  0  0
   -2.8594   -3.4051    0.0000 N   0  0  0  0  0  0  0  0  0  0  0  0
   -5.4429   -3.6800    0.0000 N   0  0  0  0  0  0  0  0  0  0  0  0
   -8.8200    3.5030    0.0000 C   0  0  0  0  0  0  0  0  0  0  0  0
   -9.4023    2.9585    0.0000 O   0  0  0  0  0  0  0  0  0  0  0  0
   -8.9788    4.9945    0.0000 N   0  0  0  0  0  0  0  0  0  0  0  0
  -10.3499    5.6029    0.0000 C   0  0  0  0  0  0  0  0  0  0  0  0
  -11.4302    6.6435    0.0000 C   0  0  0  0  0  0  0  0  0  0  0  0
  -11.0692    8.0994    0.0000 C   0  0  0  0  0  0  0  0  0  0  0  0
   -9.6792    8.6631    0.0000 C   0  0  0  0  0  0  0  0  0  0  0  0
   -9.7858   10.1593    0.0000 N   0  0  0  0  0  0  0  0  0  0  0  0
  -11.2417   10.5203    0.0000 C   0  0  0  0  0  0  0  0  0  0  0  0
  -11.9476   11.8438    0.0000 C   0  0  0  0  0  0  0  0  0  0  0  0
  -13.4467   11.8942    0.0000 C   0  0  0  0  0  0  0  0  0  0  0  0
  -14.2400   10.6211    0.0000 C   0  0  0  0  0  0  0  0  0  0  0  0
  -13.5341    9.2976    0.0000 C   0  0  0  0  0  0  0  0  0  0  0  0
  -12.0349    9.2472    0.0000 C   0  0  0  0  0  0  0  0  0  0  0  0
  -10.7109    4.1469    0.0000 C   0  0  0  0  0  0  0  0  0  0  0  0
  -10.2084    3.5281    0.0000 O   0  0  0  0  0  0  0  0  0  0  0  0
  -12.1522    3.7316    0.0000 N   0  0  0  0  0  0  0  0  0  0  0  0
  -12.5132    2.2757    0.0000 C   0  0  0  0  0  0  0  0  0  0  0  0
  -12.3545    0.7841    0.0000 C   0  0  0  0  0  0  0  0  0  0  0  0
  -13.5669   -0.0991    0.0000 C   0  0  0  0  0  0  0  0  0  0  0  0
  -13.4082   -1.5907    0.0000 C   0  0  0  0  0  0  0  0  0  0  0  0
  -14.6205   -2.4739    0.0000 N   0  0  0  0  0  0  0  0  0  0  0  0
  -14.4618   -3.9655    0.0000 C   0  0  0  0  0  0  0  0  0  0  0  0
  -15.7728   -4.6944    0.0000 N   0  0  0  0  0  0  0  0  0  0  0  0
  -13.0907   -4.5738    0.0000 N   0  0  0  0  0  0  0  0  0  0  0  0
  -13.9546    1.8604    0.0000 C   0  0  0  0  0  0  0  0  0  0  0  0
  -15.0349    2.9010    0.0000 O   0  0  0  0  0  0  0  0  0  0  0  0
  -14.3156    0.4045    0.0000 N   0  0  0  0  0  0  0  0  0  0  0  0
  -15.7569   -0.0108    0.0000 C   0  0  0  0  0  0  0  0  0  0  0  0
  -17.2534    0.0919    0.0000 C   0  0  0  0  0  0  0  0  0  0  0  0
  -18.0906   -1.1528    0.0000 C   0  0  0  0  0  0  0  0  0  0  0  0
  -19.5871   -1.0501    0.0000 C   0  0  0  0  0  0  0  0  0  0  0  0
  -20.4243   -2.2947    0.0000 N   0  0  0  0  0  0  0  0  0  0  0  0
  -21.9207   -2.1920    0.0000 C   0  0  0  0  0  0  0  0  0  0  0  0
  -22.7579   -3.4367    0.0000 N   0  0  0  0  0  0  0  0  0  0  0  0
  -22.5800   -0.8447    0.0000 N   0  0  0  0  0  0  0  0  0  0  0  0
  -16.1179   -1.4668    0.0000 C   0  0  0  0  0  0  0  0  0  0  0  0
  -15.3215   -2.7378    0.0000 O   0  0  0  0  0  0  0  0  0  0  0  0
  -17.5593   -1.8821    0.0000 N   0  0  0  0  0  0  0  0  0  0  0  0
  -17.9203   -3.3380    0.0000 C   0  0  0  0  0  0  0  0  0  0  0  0
  -17.7616   -4.8296    0.0000 C   0  0  0  0  0  0  0  0  0  0  0  0
  -18.9740   -5.7128    0.0000 C   0  0  0  0  0  0  0  0  0  0  0  0
  -18.8152   -7.2044    0.0000 C   0  0  0  0  0  0  0  0  0  0  0  0
  -20.0276   -8.0876    0.0000 N   0  0  0  0  0  0  0  0  0  0  0  0
  -19.8689   -9.5792    0.0000 C   0  0  0  0  0  0  0  0  0  0  0  0
  -21.0813  -10.4625    0.0000 N   0  0  0  0  0  0  0  0  0  0  0  0
  -18.4978  -10.1875    0.0000 N   0  0  0  0  0  0  0  0  0  0  0  0
  -19.3616   -3.7533    0.0000 C   0  0  0  0  0  0  0  0  0  0  0  0
  -19.8974   -5.1544    0.0000 O   0  0  0  0  0  0  0  0  0  0  0  0
  -20.6617   -3.0051    0.0000 O   0  0  0  0  0  0  0  0  0  0  0  0
   21.1639   -7.3729    0.0000 H   0  0  0  0  0  0  0  0  0  0  0  0
   22.2176   -4.9980    0.0000 H   0  0  0  0  0  0  0  0  0  0  0  0
   19.2731   -6.7289    0.0000 H   0  0  0  0  0  0  0  0  0  0  0  0
   18.1376   -5.1702    0.0000 H   0  0  0  0  0  0  0  0  0  0  0  0
   20.9718   -3.8841    0.0000 H   0  0  0  0  0  0  0  0  0  0  0  0
   19.8364   -2.3255    0.0000 H   0  0  0  0  0  0  0  0  0  0  0  0
   19.2565   -0.9526    0.0000 H   0  0  0  0  0  0  0  0  0  0  0  0
   16.2134   -2.5290    0.0000 H   0  0  0  0  0  0  0  0  0  0  0  0
   17.5924    1.6606    0.0000 H   0  0  0  0  0  0  0  0  0  0  0  0
   16.0405    0.7798    0.0000 H   0  0  0  0  0  0  0  0  0  0  0  0
   20.2792   -0.5395    0.0000 H   0  0  0  0  0  0  0  0  0  0  0  0
   19.0929   -1.4197    0.0000 H   0  0  0  0  0  0  0  0  0  0  0  0
   20.1063    2.7694    0.0000 H   0  0  0  0  0  0  0  0  0  0  0  0
   18.4585    2.0844    0.0000 H   0  0  0  0  0  0  0  0  0  0  0  0
   21.9011   -0.1366    0.0000 H   0  0  0  0  0  0  0  0  0  0  0  0
   24.4126    3.5973    0.0000 H   0  0  0  0  0  0  0  0  0  0  0  0
   24.2347    1.0054    0.0000 H   0  0  0  0  0  0  0  0  0  0  0  0
   22.2568    5.0474    0.0000 H   0  0  0  0  0  0  0  0  0  0  0  0
   19.9231    3.9054    0.0000 H   0  0  0  0  0  0  0  0  0  0  0  0
   15.0594   -3.4720    0.0000 H   0  0  0  0  0  0  0  0  0  0  0  0
   13.1053   -0.6565    0.0000 H   0  0  0  0  0  0  0  0  0  0  0  0
   12.3672   -5.0050    0.0000 H   0  0  0  0  0  0  0  0  0  0  0  0
   11.4065   -3.5012    0.0000 H   0  0  0  0  0  0  0  0  0  0  0  0
   15.7706   -4.3150    0.0000 H   0  0  0  0  0  0  0  0  0  0  0  0
   15.1330   -2.9825    0.0000 H   0  0  0  0  0  0  0  0  0  0  0  0
   14.0718   -7.1598    0.0000 H   0  0  0  0  0  0  0  0  0  0  0  0
   12.9350   -5.7843    0.0000 H   0  0  0  0  0  0  0  0  0  0  0  0
   17.0163   -5.4289    0.0000 H   0  0  0  0  0  0  0  0  0  0  0  0
   17.4925   -9.9037    0.0000 H   0  0  0  0  0  0  0  0  0  0  0  0
   18.5462   -7.5288    0.0000 H   0  0  0  0  0  0  0  0  0  0  0  0
   14.9090  -10.1786    0.0000 H   0  0  0  0  0  0  0  0  0  0  0  0
   13.3792   -8.0787    0.0000 H   0  0  0  0  0  0  0  0  0  0  0  0
   12.5255    0.7164    0.0000 H   0  0  0  0  0  0  0  0  0  0  0  0
    9.4824   -0.8600    0.0000 H   0  0  0  0  0  0  0  0  0  0  0  0
   10.8614    3.3296    0.0000 H   0  0  0  0  0  0  0  0  0  0  0  0
    9.3094    2.4488    0.0000 H   0  0  0  0  0  0  0  0  0  0  0  0
   13.5481    1.1295    0.0000 H   0  0  0  0  0  0  0  0  0  0  0  0
   12.3619    0.2492    0.0000 H   0  0  0  0  0  0  0  0  0  0  0  0
   13.3752    4.4384    0.0000 H   0  0  0  0  0  0  0  0  0  0  0  0
   11.7275    3.7534    0.0000 H   0  0  0  0  0  0  0  0  0  0  0  0
   15.1700    1.5324    0.0000 H   0  0  0  0  0  0  0  0  0  0  0  0
   17.6815    5.2663    0.0000 H   0  0  0  0  0  0  0  0  0  0  0  0
   17.5036    2.6744    0.0000 H   0  0  0  0  0  0  0  0  0  0  0  0
   15.5257    6.7164    0.0000 H   0  0  0  0  0  0  0  0  0  0  0  0
   13.1921    5.5744    0.0000 H   0  0  0  0  0  0  0  0  0  0  0  0
    8.3283   -1.8030    0.0000 H   0  0  0  0  0  0  0  0  0  0  0  0
    6.3742    1.0125    0.0000 H   0  0  0  0  0  0  0  0  0  0  0  0
    5.6362   -3.3360    0.0000 H   0  0  0  0  0  0  0  0  0  0  0  0
    4.6755   -1.8323    0.0000 H   0  0  0  0  0  0  0  0  0  0  0  0
    9.0395   -2.6460    0.0000 H   0  0  0  0  0  0  0  0  0  0  0  0
    8.4019   -1.3135    0.0000 H   0  0  0  0  0  0  0  0  0  0  0  0
    7.3408   -5.4908    0.0000 H   0  0  0  0  0  0  0  0  0  0  0  0
    6.2039   -4.1153    0.0000 H   0  0  0  0  0  0  0  0  0  0  0  0
   10.2853   -3.7599    0.0000 H   0  0  0  0  0  0  0  0  0  0  0  0
   10.7614   -8.2347    0.0000 H   0  0  0  0  0  0  0  0  0  0  0  0
   11.8151   -5.8599    0.0000 H   0  0  0  0  0  0  0  0  0  0  0  0
    8.1779   -8.5096    0.0000 H   0  0  0  0  0  0  0  0  0  0  0  0
    6.6481   -6.4097    0.0000 H   0  0  0  0  0  0  0  0  0  0  0  0
    5.7944    2.3854    0.0000 H   0  0  0  0  0  0  0  0  0  0  0  0
    2.7513    0.8090    0.0000 H   0  0  0  0  0  0  0  0  0  0  0  0
    4.1303    4.9986    0.0000 H   0  0  0  0  0  0  0  0  0  0  0  0
    2.5784    4.1178    0.0000 H   0  0  0  0  0  0  0  0  0  0  0  0
    6.8170    2.7985    0.0000 H   0  0  0  0  0  0  0  0  0  0  0  0
    5.6308    1.9182    0.0000 H   0  0  0  0  0  0  0  0  0  0  0  0
    6.6441    6.1074    0.0000 H   0  0  0  0  0  0  0  0  0  0  0  0
    4.9964    5.4224    0.0000 H   0  0  0  0  0  0  0  0  0  0  0  0
    8.4389    3.2014    0.0000 H   0  0  0  0  0  0  0  0  0  0  0  0
   10.9504    6.9353    0.0000 H   0  0  0  0  0  0  0  0  0  0  0  0
   10.7726    4.3434    0.0000 H   0  0  0  0  0  0  0  0  0  0  0  0
    8.7947    8.3854    0.0000 H   0  0  0  0  0  0  0  0  0  0  0  0
    6.4610    7.2434    0.0000 H   0  0  0  0  0  0  0  0  0  0  0  0
    1.5972   -0.1340    0.0000 H   0  0  0  0  0  0  0  0  0  0  0  0
   -0.3569    2.6815    0.0000 H   0  0  0  0  0  0  0  0  0  0  0  0
   -1.0949   -1.6670    0.0000 H   0  0  0  0  0  0  0  0  0  0  0  0
   -2.0556   -0.1633    0.0000 H   0  0  0  0  0  0  0  0  0  0  0  0
    2.3084   -0.9770    0.0000 H   0  0  0  0  0  0  0  0  0  0  0  0
    1.6708    0.3555    0.0000 H   0  0  0  0  0  0  0  0  0  0  0  0
    0.6097   -3.8218    0.0000 H   0  0  0  0  0  0  0  0  0  0  0  0
   -0.5271   -2.4463    0.0000 H   0  0  0  0  0  0  0  0  0  0  0  0
    3.5542   -2.0909    0.0000 H   0  0  0  0  0  0  0  0  0  0  0  0
    4.0304   -6.5657    0.0000 H   0  0  0  0  0  0  0  0  0  0  0  0
    5.0840   -4.1909    0.0000 H   0  0  0  0  0  0  0  0  0  0  0  0
    1.4469   -6.8406    0.0000 H   0  0  0  0  0  0  0  0  0  0  0  0
   -0.0830   -4.7407    0.0000 H   0  0  0  0  0  0  0  0  0  0  0  0
   -0.9367    4.0544    0.0000 H   0  0  0  0  0  0  0  0  0  0  0  0
   -3.9798    2.4780    0.0000 H   0  0  0  0  0  0  0  0  0  0  0  0
   -2.6008    6.6676    0.0000 H   0  0  0  0  0  0  0  0  0  0  0  0
   -4.1527    5.7868    0.0000 H   0  0  0  0  0  0  0  0  0  0  0  0
    0.0860    4.4675    0.0000 H   0  0  0  0  0  0  0  0  0  0  0  0
   -1.1003    3.5872    0.0000 H   0  0  0  0  0  0  0  0  0  0  0  0
   -0.0870    7.7764    0.0000 H   0  0  0  0  0  0  0  0  0  0  0  0
   -1.7347    7.0914    0.0000 H   0  0  0  0  0  0  0  0  0  0  0  0
    1.7078    4.8704    0.0000 H   0  0  0  0  0  0  0  0  0  0  0  0
    4.2194    8.6043    0.0000 H   0  0  0  0  0  0  0  0  0  0  0  0
    4.0415    6.0124    0.0000 H   0  0  0  0  0  0  0  0  0  0  0  0
    2.0636   10.0544    0.0000 H   0  0  0  0  0  0  0  0  0  0  0  0
   -0.2701    8.9124    0.0000 H   0  0  0  0  0  0  0  0  0  0  0  0
   -5.1338    1.5350    0.0000 H   0  0  0  0  0  0  0  0  0  0  0  0
   -7.0879    4.3505    0.0000 H   0  0  0  0  0  0  0  0  0  0  0  0
   -7.8260    0.0020    0.0000 H   0  0  0  0  0  0  0  0  0  0  0  0
   -8.7867    1.5057    0.0000 H   0  0  0  0  0  0  0  0  0  0  0  0
   -4.4226    0.6920    0.0000 H   0  0  0  0  0  0  0  0  0  0  0  0
   -5.0602    2.0245    0.0000 H   0  0  0  0  0  0  0  0  0  0  0  0
   -6.1214   -2.1528    0.0000 H   0  0  0  0  0  0  0  0  0  0  0  0
   -7.2582   -0.7774    0.0000 H   0  0  0  0  0  0  0  0  0  0  0  0
   -3.1769   -0.4220    0.0000 H   0  0  0  0  0  0  0  0  0  0  0  0
   -2.7007   -4.8967    0.0000 H   0  0  0  0  0  0  0  0  0  0  0  0
   -1.6471   -2.5219    0.0000 H   0  0  0  0  0  0  0  0  0  0  0  0
   -5.2842   -5.1716    0.0000 H   0  0  0  0  0  0  0  0  0  0  0  0
   -6.8140   -3.0717    0.0000 H   0  0  0  0  0  0  0  0  0  0  0  0
   -7.7664    5.8778    0.0000 H   0  0  0  0  0  0  0  0  0  0  0  0
   -9.5127    6.8475    0.0000 H   0  0  0  0  0  0  0  0  0  0  0  0
  -12.2674    5.3988    0.0000 H   0  0  0  0  0  0  0  0  0  0  0  0
  -12.8013    7.2518    0.0000 H   0  0  0  0  0  0  0  0  0  0  0  0
   -8.4061    7.8698    0.0000 H   0  0  0  0  0  0  0  0  0  0  0  0
   -8.6379   11.1250    0.0000 H   0  0  0  0  0  0  0  0  0  0  0  0
  -11.1544   13.1169    0.0000 H   0  0  0  0  0  0  0  0  0  0  0  0
  -14.1527   13.2177    0.0000 H   0  0  0  0  0  0  0  0  0  0  0  0
  -15.7391   10.6715    0.0000 H   0  0  0  0  0  0  0  0  0  0  0  0
  -14.3273    8.0245    0.0000 H   0  0  0  0  0  0  0  0  0  0  0  0
  -13.2326    4.7722    0.0000 H   0  0  0  0  0  0  0  0  0  0  0  0
  -11.0167    2.1730    0.0000 H   0  0  0  0  0  0  0  0  0  0  0  0
  -11.5359   -0.4728    0.0000 H   0  0  0  0  0  0  0  0  0  0  0  0
  -10.9131    1.1995    0.0000 H   0  0  0  0  0  0  0  0  0  0  0  0
  -15.0082   -0.5144    0.0000 H   0  0  0  0  0  0  0  0  0  0  0  0
  -14.7816    0.7809    0.0000 H   0  0  0  0  0  0  0  0  0  0  0  0
  -12.7489   -2.9380    0.0000 H   0  0  0  0  0  0  0  0  0  0  0  0
  -11.9269   -1.3542    0.0000 H   0  0  0  0  0  0  0  0  0  0  0  0
  -16.1186   -2.3975    0.0000 H   0  0  0  0  0  0  0  0  0  0  0  0
  -15.5155   -6.3403    0.0000 H   0  0  0  0  0  0  0  0  0  0  0  0
  -16.9805   -4.0887    0.0000 H   0  0  0  0  0  0  0  0  0  0  0  0
  -12.9320   -6.0654    0.0000 H   0  0  0  0  0  0  0  0  0  0  0  0
  -11.8783   -3.6906    0.0000 H   0  0  0  0  0  0  0  0  0  0  0  0
  -13.5191   -0.8666    0.0000 H   0  0  0  0  0  0  0  0  0  0  0  0
  -15.9157    1.4807    0.0000 H   0  0  0  0  0  0  0  0  0  0  0  0
  -18.5401    0.8628    0.0000 H   0  0  0  0  0  0  0  0  0  0  0  0
  -16.8924    1.5478    0.0000 H   0  0  0  0  0  0  0  0  0  0  0  0
  -18.4516   -2.6087    0.0000 H   0  0  0  0  0  0  0  0  0  0  0  0
  -17.3166   -2.4376    0.0000 H   0  0  0  0  0  0  0  0  0  0  0  0
  -20.9582   -0.4418    0.0000 H   0  0  0  0  0  0  0  0  0  0  0  0
  -19.4062    0.4390    0.0000 H   0  0  0  0  0  0  0  0  0  0  0  0
  -20.2917   -3.7889    0.0000 H   0  0  0  0  0  0  0  0  0  0  0  0
  -24.2544   -3.3340    0.0000 H   0  0  0  0  0  0  0  0  0  0  0  0
  -22.0986   -4.7840    0.0000 H   0  0  0  0  0  0  0  0  0  0  0  0
  -24.0765   -0.7420    0.0000 H   0  0  0  0  0  0  0  0  0  0  0  0
  -21.7429    0.4000    0.0000 H   0  0  0  0  0  0  0  0  0  0  0  0
  -18.8593   -1.1338    0.0000 H   0  0  0  0  0  0  0  0  0  0  0  0
  -16.4238   -3.4407    0.0000 H   0  0  0  0  0  0  0  0  0  0  0  0
  -16.9430   -6.0865    0.0000 H   0  0  0  0  0  0  0  0  0  0  0  0
  -16.4635   -4.0778    0.0000 H   0  0  0  0  0  0  0  0  0  0  0  0
  -20.4153   -6.1281    0.0000 H   0  0  0  0  0  0  0  0  0  0  0  0
  -20.1887   -4.8328    0.0000 H   0  0  0  0  0  0  0  0  0  0  0  0
  -18.1559   -8.5517    0.0000 H   0  0  0  0  0  0  0  0  0  0  0  0
  -17.3340   -6.9679    0.0000 H   0  0  0  0  0  0  0  0  0  0  0  0
  -21.3987   -7.4793    0.0000 H   0  0  0  0  0  0  0  0  0  0  0  0
  -20.9226  -11.9540    0.0000 H   0  0  0  0  0  0  0  0  0  0  0  0
  -22.4524   -9.8541    0.0000 H   0  0  0  0  0  0  0  0  0  0  0  0
  -18.3391  -11.6791    0.0000 H   0  0  0  0  0  0  0  0  0  0  0  0
  -17.2854   -9.3043    0.0000 H   0  0  0  0  0  0  0  0  0  0  0  0
  1  2  1  0
  2  3  1  0
  3  4  1  0
  4  5  2  0
  4  6  1  0
  6  7  1  0
  7  8  1  0
  8  9  1  0
  9 10  1  0
 10 11  1  0
 11 12  1  0
 12 13  2  3
 12 14  1  0
  7 15  1  0
 15 16  2  0
 15 17  1  0
 17 18  1  0
 18 19  1  0
 19 20  1  0
 20 21  1  0
 21 22  1  0
 22 23  1  0
 23 24  2  3
 23 25  1  0
 18 26  1  0
 26 27  2  0
 26 28  1  0
 28 29  1  0
 29 30  1  0
 30 31  1  0
 31 32  1  0
 32 33  1  0
 33 34  1  0
 34 35  2  3
 34 36  1  0
 29 37  1  0
 37 38  2  0
 37 39  1  0
 39 40  1  0
 40 41  1  0
 41 42  1  0
 42 43  1  0
 43 44  1  0
 44 45  1  0
 45 46  2  3
 45 47  1  0
 40 48  1  0
 48 49  2  0
 48 50  1  0
 50 51  1  0
 51 52  1  0
 52 53  1  0
 53 54  1  0
 54 55  1  0
 55 56  1  0
 56 57  2  3
 56 58  1  0
 51 59  1  0
 59 60  2  0
 59 61  1  0
 61 62  1  0
 62 63  1  0
 63 64  1  0
 64 65  1  0
 65 66  1  0
 66 67  1  0
 67 68  2  3
 67 69  1  0
 62 70  1  0
 70 71  2  0
 70 72  1  0
 72 73  1  0
 73 74  1  0
 74 75  1  0
 75 76  1  0
 76 77  1  0
 77 78  1  0
 78 79  2  3
 78 80  1  0
 73 81  1  0
 81 82  2  0
 81 83  1  0
 83 84  1  0
 84 85  1  0
 85 86  1  0
 86 87  1  0
 87 88  1  0
 88 89  1  0
 89 90  2  3
 89 91  1  0
 84 92  1  0
 92 93  2  0
 92 94  1  0
 94 95  1  0
 95 96  1  0
 96 97  1  0
 97 98  2  0
 98 99  1  0
 99100  1  0
100101  2  0
101102  1  0
102103  2  0
103104  1  0
104105  2  0
 95106  1  0
106107  2  0
106108  1  0
108109  1  0
109110  1  0
110111  1  0
111112  1  0
112113  1  0
113114  1  0
114115  2  3
114116  1  0
109117  1  0
117118  2  0
117119  1  0
119120  1  0
120121  1  0
121122  1  0
122123  1  0
123124  1  0
124125  1  0
125126  2  3
125127  1  0
120128  1  0
128129  2  0
128130  1  0
130131  1  0
131132  1  0
132133  1  0
133134  1  0
134135  1  0
135136  1  0
136137  2  3
136138  1  0
131139  1  0
139140  2  0
139141  1  0
105 97  1  0
105100  1  0
  1142  1  0
  1143  1  0
  2144  1  0
  2145  1  0
  3146  1  0
  3147  1  0
  6148  1  0
  7149  1  6
  8150  1  0
  8151  1  0
  9152  1  0
  9153  1  0
 10154  1  0
 10155  1  0
 11156  1  0
 13157  1  0
 13158  1  0
 14159  1  0
 14160  1  0
 17161  1  0
 18162  1  1
 19163  1  0
 19164  1  0
 20165  1  0
 20166  1  0
 21167  1  0
 21168  1  0
 22169  1  0
 24170  1  0
 24171  1  0
 25172  1  0
 25173  1  0
 28174  1  0
 29175  1  6
 30176  1  0
 30177  1  0
 31178  1  0
 31179  1  0
 32180  1  0
 32181  1  0
 33182  1  0
 35183  1  0
 35184  1  0
 36185  1  0
 36186  1  0
 39187  1  0
 40188  1  1
 41189  1  0
 41190  1  0
 42191  1  0
 42192  1  0
 43193  1  0
 43194  1  0
 44195  1  0
 46196  1  0
 46197  1  0
 47198  1  0
 47199  1  0
 50200  1  0
 51201  1  6
 52202  1  0
 52203  1  0
 53204  1  0
 53205  1  0
 54206  1  0
 54207  1  0
 55208  1  0
 57209  1  0
 57210  1  0
 58211  1  0
 58212  1  0
 61213  1  0
 62214  1  1
 63215  1  0
 63216  1  0
 64217  1  0
 64218  1  0
 65219  1  0
 65220  1  0
 66221  1  0
 68222  1  0
 68223  1  0
 69224  1  0
 69225  1  0
 72226  1  0
 73227  1  6
 74228  1  0
 74229  1  0
 75230  1  0
 75231  1  0
 76232  1  0
 76233  1  0
 77234  1  0
 79235  1  0
 79236  1  0
 80237  1  0
 80238  1  0
 83239  1  0
 84240  1  1
 85241  1  0
 85242  1  0
 86243  1  0
 86244  1  0
 87245  1  0
 87246  1  0
 88247  1  0
 90248  1  0
 90249  1  0
 91250  1  0
 91251  1  0
 94252  1  0
 95253  1  6
 96254  1  0
 96255  1  0
 98256  1  0
 99257  1  0
101258  1  0
102259  1  0
103260  1  0
104261  1  0
108262  1  0
109263  1  1
110264  1  0
110265  1  0
111266  1  0
111267  1  0
112268  1  0
112269  1  0
113270  1  0
115271  1  0
115272  1  0
116273  1  0
116274  1  0
119275  1  0
120276  1  6
121277  1  0
121278  1  0
122279  1  0
122280  1  0
123281  1  0
123282  1  0
124283  1  0
126284  1  0
126285  1  0
127286  1  0
127287  1  0
130288  1  0
131289  1  1
132290  1  0
132291  1  0
133292  1  0
133293  1  0
134294  1  0
134295  1  0
135296  1  0
137297  1  0
137298  1  0
138299  1  0
138300  1  0
M  CHG  8  13   1  24   1  35   1  46   1  57   1  68   1  79   1  90   1
M  CHG  4 115   1 126   1 137   1 141  -1
M  END
