
     RDKit          2D

291299  0  0  0  0  0  0  0  0999 V2000
  -27.6125    0.4190    0.0000 C   0  0  0  0  0  0  0  0  0  0  0  0
  -28.8720   -0.3958    0.0000 N   0  0  0  0  0  0  0  0  0  0  0  0
  -30.2073    0.2876    0.0000 C   0  0  0  0  0  0  0  0  0  0  0  0
  -30.2831    1.7857    0.0000 C   0  0  0  0  0  0  0  0  0  0  0  0
  -31.6184    2.4690    0.0000 C   0  0  0  0  0  0  0  0  0  0  0  0
  -32.8779    1.6543    0.0000 C   0  0  0  0  0  0  0  0  0  0  0  0
  -32.8020    0.1562    0.0000 C   0  0  0  0  0  0  0  0  0  0  0  0
  -31.4667   -0.5272    0.0000 C   0  0  0  0  0  0  0  0  0  0  0  0
  -34.2033   -0.3789    0.0000 C   0  0  0  0  0  0  0  0  0  0  0  0
  -35.1453    0.7885    0.0000 O   0  0  0  0  0  0  0  0  0  0  0  0
  -34.3261    2.0451    0.0000 C   0  0  0  0  0  0  0  0  0  0  0  0
  -34.8611    3.4464    0.0000 O   0  0  0  0  0  0  0  0  0  0  0  0
  -35.6529   -0.7645    0.0000 C   0  0  0  0  0  0  0  0  0  0  0  0
  -36.0437   -2.2127    0.0000 C   0  0  0  0  0  0  0  0  0  0  0  0
  -37.4933   -2.5984    0.0000 C   0  0  0  0  0  0  0  0  0  0  0  0
  -38.5521   -1.5359    0.0000 C   0  0  0  0  0  0  0  0  0  0  0  0
  -38.1613   -0.0877    0.0000 C   0  0  0  0  0  0  0  0  0  0  0  0
  -36.7117    0.2980    0.0000 C   0  0  0  0  0  0  0  0  0  0  0  0
  -40.0016   -1.9215    0.0000 O   0  0  0  0  0  0  0  0  0  0  0  0
  -34.9849   -3.2753    0.0000 O   0  0  0  0  0  0  0  0  0  0  0  0
  -33.5354   -2.8896    0.0000 C   0  0  0  0  0  0  0  0  0  0  0  0
  -33.1446   -1.4414    0.0000 C   0  0  0  0  0  0  0  0  0  0  0  0
  -31.8774   -1.7316    0.0000 C   0  0  0  0  0  0  0  0  0  0  0  0
  -31.3127   -2.2983    0.0000 C   0  0  0  0  0  0  0  0  0  0  0  0
  -31.5211   -3.0706    0.0000 C   0  0  0  0  0  0  0  0  0  0  0  0
  -32.2942   -3.2763    0.0000 C   0  0  0  0  0  0  0  0  0  0  0  0
  -29.9682   -4.6290    0.0000 O   0  0  0  0  0  0  0  0  0  0  0  0
  -27.6884    1.9170    0.0000 S   0  0  0  0  0  0  0  0  0  0  0  0
  -26.2772   -0.2644    0.0000 N   0  0  0  0  0  0  0  0  0  0  0  0
  -25.0178    0.5503    0.0000 C   0  0  0  0  0  0  0  0  0  0  0  0
  -23.6825   -0.1330    0.0000 C   0  0  0  0  0  0  0  0  0  0  0  0
  -22.4230    0.6817    0.0000 C   0  0  0  0  0  0  0  0  0  0  0  0
  -22.4989    2.1798    0.0000 O   0  0  0  0  0  0  0  0  0  0  0  0
  -21.0877   -0.0016    0.0000 N   0  0  0  0  0  0  0  0  0  0  0  0
  -19.8283    0.8131    0.0000 C   0  0  0  0  0  0  0  0  0  0  0  0
  -18.9234    2.0094    0.0000 C   0  0  0  0  0  0  0  0  0  0  0  0
  -17.4674    2.3699    0.0000 O   0  0  0  0  0  0  0  0  0  0  0  0
  -18.4930    0.1297    0.0000 C   0  0  0  0  0  0  0  0  0  0  0  0
  -18.4171   -1.3683    0.0000 O   0  0  0  0  0  0  0  0  0  0  0  0
  -17.2335    0.9445    0.0000 N   0  0  0  0  0  0  0  0  0  0  0  0
  -15.8982    0.2611    0.0000 C   0  0  0  0  0  0  0  0  0  0  0  0
  -14.8771   -0.8377    0.0000 C   0  0  0  0  0  0  0  0  0  0  0  0
  -15.3182   -2.2714    0.0000 O   0  0  0  0  0  0  0  0  0  0  0  0
  -14.6388    1.0758    0.0000 C   0  0  0  0  0  0  0  0  0  0  0  0
  -14.7146    2.5739    0.0000 O   0  0  0  0  0  0  0  0  0  0  0  0
  -13.3034    0.3925    0.0000 N   0  0  0  0  0  0  0  0  0  0  0  0
  -12.0440    1.2072    0.0000 C   0  0  0  0  0  0  0  0  0  0  0  0
  -11.1392    2.4036    0.0000 C   0  0  0  0  0  0  0  0  0  0  0  0
   -9.6507    2.2181    0.0000 C   0  0  0  0  0  0  0  0  0  0  0  0
   -8.7458    3.4145    0.0000 C   0  0  0  0  0  0  0  0  0  0  0  0
   -8.3154    1.5348    0.0000 C   0  0  0  0  0  0  0  0  0  0  0  0
  -10.7087    0.5239    0.0000 C   0  0  0  0  0  0  0  0  0  0  0  0
  -10.8160   -0.9723    0.0000 O   0  0  0  0  0  0  0  0  0  0  0  0
   -9.4492    1.3386    0.0000 N   0  0  0  0  0  0  0  0  0  0  0  0
   -8.1139    0.6552    0.0000 C   0  0  0  0  0  0  0  0  0  0  0  0
   -7.0929   -0.4436    0.0000 C   0  0  0  0  0  0  0  0  0  0  0  0
   -7.5340   -1.8773    0.0000 C   0  0  0  0  0  0  0  0  0  0  0  0
   -8.9961   -2.2121    0.0000 C   0  0  0  0  0  0  0  0  0  0  0  0
   -9.4372   -3.6458    0.0000 C   0  0  0  0  0  0  0  0  0  0  0  0
   -8.4162   -4.7446    0.0000 C   0  0  0  0  0  0  0  0  0  0  0  0
   -6.9540   -4.4098    0.0000 C   0  0  0  0  0  0  0  0  0  0  0  0
   -6.5129   -2.9761    0.0000 C   0  0  0  0  0  0  0  0  0  0  0  0
   -6.8545    1.4700    0.0000 C   0  0  0  0  0  0  0  0  0  0  0  0
   -6.7472    2.9661    0.0000 O   0  0  0  0  0  0  0  0  0  0  0  0
   -5.5192    0.7866    0.0000 N   0  0  0  0  0  0  0  0  0  0  0  0
   -4.2597    1.6014    0.0000 C   0  0  0  0  0  0  0  0  0  0  0  0
   -3.3549    2.7977    0.0000 C   0  0  0  0  0  0  0  0  0  0  0  0
   -1.8664    2.6123    0.0000 C   0  0  0  0  0  0  0  0  0  0  0  0
   -0.9616    3.8086    0.0000 C   0  0  0  0  0  0  0  0  0  0  0  0
    0.2534    3.8065    0.0000 O   0  0  0  0  0  0  0  0  0  0  0  0
   -1.5452    5.1904    0.0000 O   0  0  0  0  0  0  0  0  0  0  0  0
   -2.9244    0.9180    0.0000 C   0  0  0  0  0  0  0  0  0  0  0  0
   -2.8486   -0.5801    0.0000 O   0  0  0  0  0  0  0  0  0  0  0  0
   -1.6650    1.7327    0.0000 N   0  0  0  0  0  0  0  0  0  0  0  0
   -0.3297    1.0494    0.0000 C   0  0  0  0  0  0  0  0  0  0  0  0
    0.6914   -0.0495    0.0000 C   0  0  0  0  0  0  0  0  0  0  0  0
    0.2503   -1.4831    0.0000 C   0  0  0  0  0  0  0  0  0  0  0  0
    1.2713   -2.5820    0.0000 C   0  0  0  0  0  0  0  0  0  0  0  0
    0.8302   -4.0157    0.0000 N   0  0  0  0  0  0  0  0  0  0  0  0
    1.8513   -5.1145    0.0000 C   0  0  0  0  0  0  0  0  0  0  0  0
    1.4102   -6.5482    0.0000 N   0  0  0  0  0  0  0  0  0  0  0  0
    3.3134   -4.7797    0.0000 N   0  0  0  0  0  0  0  0  0  0  0  0
    0.9298    1.8641    0.0000 C   0  0  0  0  0  0  0  0  0  0  0  0
    1.0167    3.0760    0.0000 O   0  0  0  0  0  0  0  0  0  0  0  0
    2.2651    1.1808    0.0000 N   0  0  0  0  0  0  0  0  0  0  0  0
    3.5245    1.9955    0.0000 C   0  0  0  0  0  0  0  0  0  0  0  0
    4.4294    3.1918    0.0000 C   0  0  0  0  0  0  0  0  0  0  0  0
    5.9179    3.0064    0.0000 C   0  0  0  0  0  0  0  0  0  0  0  0
    6.5015    1.6246    0.0000 C   0  0  0  0  0  0  0  0  0  0  0  0
    7.9900    1.4392    0.0000 C   0  0  0  0  0  0  0  0  0  0  0  0
    8.8948    2.6355    0.0000 C   0  0  0  0  0  0  0  0  0  0  0  0
    8.3112    4.0173    0.0000 C   0  0  0  0  0  0  0  0  0  0  0  0
    6.8227    4.2028    0.0000 C   0  0  0  0  0  0  0  0  0  0  0  0
    4.8598    1.3121    0.0000 C   0  0  0  0  0  0  0  0  0  0  0  0
    4.5709   -0.1598    0.0000 O   0  0  0  0  0  0  0  0  0  0  0  0
    6.1193    2.1269    0.0000 N   0  0  0  0  0  0  0  0  0  0  0  0
    7.4546    1.4435    0.0000 C   0  0  0  0  0  0  0  0  0  0  0  0
    8.4756    0.3447    0.0000 C   0  0  0  0  0  0  0  0  0  0  0  0
    8.0345   -1.0890    0.0000 C   0  0  0  0  0  0  0  0  0  0  0  0
    6.5724   -1.4238    0.0000 C   0  0  0  0  0  0  0  0  0  0  0  0
    6.1313   -2.8575    0.0000 C   0  0  0  0  0  0  0  0  0  0  0  0
    7.1523   -3.9564    0.0000 C   0  0  0  0  0  0  0  0  0  0  0  0
    6.7112   -5.3900    0.0000 O   0  0  0  0  0  0  0  0  0  0  0  0
    8.6145   -3.6215    0.0000 C   0  0  0  0  0  0  0  0  0  0  0  0
    9.0556   -2.1878    0.0000 C   0  0  0  0  0  0  0  0  0  0  0  0
    8.7140    2.2582    0.0000 C   0  0  0  0  0  0  0  0  0  0  0  0
    9.0029    3.7302    0.0000 O   0  0  0  0  0  0  0  0  0  0  0  0
   10.0493    1.5749    0.0000 N   0  0  0  0  0  0  0  0  0  0  0  0
   11.3088    2.3896    0.0000 C   0  0  0  0  0  0  0  0  0  0  0  0
   12.2136    3.5860    0.0000 C   0  0  0  0  0  0  0  0  0  0  0  0
   13.7021    3.4005    0.0000 C   0  0  0  0  0  0  0  0  0  0  0  0
   14.6069    4.5969    0.0000 N   0  0  0  0  0  0  0  0  0  0  0  0
   14.6028    2.2010    0.0000 O   0  0  0  0  0  0  0  0  0  0  0  0
   12.6441    1.7063    0.0000 C   0  0  0  0  0  0  0  0  0  0  0  0
   12.7199    0.2082    0.0000 O   0  0  0  0  0  0  0  0  0  0  0  0
   13.9035    2.5210    0.0000 N   0  0  0  0  0  0  0  0  0  0  0  0
   15.2388    1.8377    0.0000 C   0  0  0  0  0  0  0  0  0  0  0  0
   16.2599    0.7388    0.0000 C   0  0  0  0  0  0  0  0  0  0  0  0
   17.7220    1.0737    0.0000 C   0  0  0  0  0  0  0  0  0  0  0  0
   18.7431   -0.0252    0.0000 C   0  0  0  0  0  0  0  0  0  0  0  0
   18.9815    1.8884    0.0000 C   0  0  0  0  0  0  0  0  0  0  0  0
   16.4983    2.6524    0.0000 C   0  0  0  0  0  0  0  0  0  0  0  0
   16.6056    4.1485    0.0000 O   0  0  0  0  0  0  0  0  0  0  0  0
   17.8336    1.9690    0.0000 N   0  0  0  0  0  0  0  0  0  0  0  0
   19.0930    2.7838    0.0000 C   0  0  0  0  0  0  0  0  0  0  0  0
   19.9979    3.9801    0.0000 C   0  0  0  0  0  0  0  0  0  0  0  0
   21.4979    3.9775    0.0000 C   0  0  0  0  0  0  0  0  0  0  0  0
   20.4283    2.1004    0.0000 C   0  0  0  0  0  0  0  0  0  0  0  0
   20.8644    0.6652    0.0000 O   0  0  0  0  0  0  0  0  0  0  0  0
   21.6878    2.9151    0.0000 N   0  0  0  0  0  0  0  0  0  0  0  0
   23.0231    2.2318    0.0000 C   0  0  0  0  0  0  0  0  0  0  0  0
   24.0441    1.1329    0.0000 C   0  0  0  0  0  0  0  0  0  0  0  0
   25.1744    0.1468    0.0000 O   0  0  0  0  0  0  0  0  0  0  0  0
   23.4316   -0.2363    0.0000 C   0  0  0  0  0  0  0  0  0  0  0  0
   24.2825    3.0465    0.0000 C   0  0  0  0  0  0  0  0  0  0  0  0
   24.2067    4.5446    0.0000 O   0  0  0  0  0  0  0  0  0  0  0  0
   25.6178    2.3632    0.0000 N   0  0  0  0  0  0  0  0  0  0  0  0
   26.9555    3.0418    0.0000 C   0  0  0  0  0  0  0  0  0  0  0  0
   28.0143    1.9792    0.0000 C   0  0  0  0  0  0  0  0  0  0  0  0
   27.3310    0.6439    0.0000 C   0  0  0  0  0  0  0  0  0  0  0  0
   25.8499    0.8812    0.0000 C   0  0  0  0  0  0  0  0  0  0  0  0
   25.7687   -0.6166    0.0000 C   0  0  0  0  0  0  0  0  0  0  0  0
   26.9160   -1.5828    0.0000 O   0  0  0  0  0  0  0  0  0  0  0  0
   24.4310   -1.2952    0.0000 N   0  0  0  0  0  0  0  0  0  0  0  0
   24.3498   -2.7930    0.0000 C   0  0  0  0  0  0  0  0  0  0  0  0
   24.7859   -4.2282    0.0000 C   0  0  0  0  0  0  0  0  0  0  0  0
   23.0121   -3.4716    0.0000 C   0  0  0  0  0  0  0  0  0  0  0  0
   21.7556   -2.6524    0.0000 O   0  0  0  0  0  0  0  0  0  0  0  0
   22.9310   -4.9694    0.0000 N   0  0  0  0  0  0  0  0  0  0  0  0
   21.5933   -5.6480    0.0000 C   0  0  0  0  0  0  0  0  0  0  0  0
   21.5121   -7.1458    0.0000 C   0  0  0  0  0  0  0  0  0  0  0  0
   22.7687   -7.9650    0.0000 O   0  0  0  0  0  0  0  0  0  0  0  0
   20.1744   -7.8245    0.0000 N   0  0  0  0  0  0  0  0  0  0  0  0
   20.0932   -9.3223    0.0000 C   0  0  0  0  0  0  0  0  0  0  0  0
   18.7555  -10.0009    0.0000 C   0  0  0  0  0  0  0  0  0  0  0  0
   18.6744  -11.4987    0.0000 O   0  0  0  0  0  0  0  0  0  0  0  0
   17.4990   -9.1817    0.0000 O   0  0  0  0  0  0  0  0  0  0  0  0
  -28.6141   -1.8734    0.0000 H   0  0  0  0  0  0  0  0  0  0  0  0
  -29.0237    2.6004    0.0000 H   0  0  0  0  0  0  0  0  0  0  0  0
  -31.6943    3.9671    0.0000 H   0  0  0  0  0  0  0  0  0  0  0  0
  -31.0306   -1.9624    0.0000 H   0  0  0  0  0  0  0  0  0  0  0  0
  -37.8841   -4.0466    0.0000 H   0  0  0  0  0  0  0  0  0  0  0  0
  -39.2200    0.9749    0.0000 H   0  0  0  0  0  0  0  0  0  0  0  0
  -36.3209    1.7462    0.0000 H   0  0  0  0  0  0  0  0  0  0  0  0
  -41.0604   -0.8590    0.0000 H   0  0  0  0  0  0  0  0  0  0  0  0
  -31.3042    0.3924    0.0000 H   0  0  0  0  0  0  0  0  0  0  0  0
  -29.1504   -1.9122    0.0000 H   0  0  0  0  0  0  0  0  0  0  0  0
  -32.8674   -5.4003    0.0000 H   0  0  0  0  0  0  0  0  0  0  0  0
  -30.3590   -6.0772    0.0000 H   0  0  0  0  0  0  0  0  0  0  0  0
  -26.2014   -1.7625    0.0000 H   0  0  0  0  0  0  0  0  0  0  0  0
  -24.1129    1.7467    0.0000 H   0  0  0  0  0  0  0  0  0  0  0  0
  -26.0388    1.6492    0.0000 H   0  0  0  0  0  0  0  0  0  0  0  0
  -22.6614   -1.2319    0.0000 H   0  0  0  0  0  0  0  0  0  0  0  0
  -24.5873   -1.3294    0.0000 H   0  0  0  0  0  0  0  0  0  0  0  0
  -21.0119   -1.4997    0.0000 H   0  0  0  0  0  0  0  0  0  0  0  0
  -20.8493    1.9119    0.0000 H   0  0  0  0  0  0  0  0  0  0  0  0
  -18.4823    3.4431    0.0000 H   0  0  0  0  0  0  0  0  0  0  0  0
  -20.2587    2.6928    0.0000 H   0  0  0  0  0  0  0  0  0  0  0  0
  -16.5301    3.0204    0.0000 H   0  0  0  0  0  0  0  0  0  0  0  0
  -17.1262    2.4406    0.0000 H   0  0  0  0  0  0  0  0  0  0  0  0
  -16.8030   -0.9352    0.0000 H   0  0  0  0  0  0  0  0  0  0  0  0
  -13.6351   -1.6788    0.0000 H   0  0  0  0  0  0  0  0  0  0  0  0
  -13.7097    0.1041    0.0000 H   0  0  0  0  0  0  0  0  0  0  0  0
  -14.2972   -3.3702    0.0000 H   0  0  0  0  0  0  0  0  0  0  0  0
  -13.0456   -1.0852    0.0000 H   0  0  0  0  0  0  0  0  0  0  0  0
  -13.0651    2.3061    0.0000 H   0  0  0  0  0  0  0  0  0  0  0  0
  -10.8761    3.8803    0.0000 H   0  0  0  0  0  0  0  0  0  0  0  0
  -12.4745    3.0869    0.0000 H   0  0  0  0  0  0  0  0  0  0  0  0
   -9.3669    0.7452    0.0000 H   0  0  0  0  0  0  0  0  0  0  0  0
   -7.2567    3.5947    0.0000 H   0  0  0  0  0  0  0  0  0  0  0  0
   -8.3047    4.8482    0.0000 H   0  0  0  0  0  0  0  0  0  0  0  0
   -9.9879    4.2555    0.0000 H   0  0  0  0  0  0  0  0  0  0  0  0
   -7.8793    0.0996    0.0000 H   0  0  0  0  0  0  0  0  0  0  0  0
   -6.8593    1.8952    0.0000 H   0  0  0  0  0  0  0  0  0  0  0  0
   -7.7028    2.9040    0.0000 H   0  0  0  0  0  0  0  0  0  0  0  0
   -9.1603    2.8105    0.0000 H   0  0  0  0  0  0  0  0  0  0  0  0
   -9.0188   -0.5411    0.0000 H   0  0  0  0  0  0  0  0  0  0  0  0
   -5.8508   -1.2846    0.0000 H   0  0  0  0  0  0  0  0  0  0  0  0
   -5.8194    0.3489    0.0000 H   0  0  0  0  0  0  0  0  0  0  0  0
  -10.1435   -1.2459    0.0000 H   0  0  0  0  0  0  0  0  0  0  0  0
  -10.8994   -3.9806    0.0000 H   0  0  0  0  0  0  0  0  0  0  0  0
   -8.8573   -6.1783    0.0000 H   0  0  0  0  0  0  0  0  0  0  0  0
   -5.9330   -5.5086    0.0000 H   0  0  0  0  0  0  0  0  0  0  0  0
   -5.0508   -2.6413    0.0000 H   0  0  0  0  0  0  0  0  0  0  0  0
   -5.2613   -0.6910    0.0000 H   0  0  0  0  0  0  0  0  0  0  0  0
   -5.2808    2.7002    0.0000 H   0  0  0  0  0  0  0  0  0  0  0  0
   -2.9138    4.2314    0.0000 H   0  0  0  0  0  0  0  0  0  0  0  0
   -4.6902    3.4811    0.0000 H   0  0  0  0  0  0  0  0  0  0  0  0
   -0.5311    1.9289    0.0000 H   0  0  0  0  0  0  0  0  0  0  0  0
   -1.5826    1.1394    0.0000 H   0  0  0  0  0  0  0  0  0  0  0  0
   -0.6404    6.3868    0.0000 H   0  0  0  0  0  0  0  0  0  0  0  0
   -1.3761    3.2047    0.0000 H   0  0  0  0  0  0  0  0  0  0  0  0
   -1.3736   -0.0278    0.0000 H   0  0  0  0  0  0  0  0  0  0  0  0
    2.0267   -0.7328    0.0000 H   0  0  0  0  0  0  0  0  0  0  0  0
    1.8588    0.8924    0.0000 H   0  0  0  0  0  0  0  0  0  0  0  0
   -0.6546   -2.6795    0.0000 H   0  0  0  0  0  0  0  0  0  0  0  0
   -1.1584   -0.9676    0.0000 H   0  0  0  0  0  0  0  0  0  0  0  0
    2.6066   -3.2653    0.0000 H   0  0  0  0  0  0  0  0  0  0  0  0
    2.3152   -1.5048    0.0000 H   0  0  0  0  0  0  0  0  0  0  0  0
   -0.6319   -4.3505    0.0000 H   0  0  0  0  0  0  0  0  0  0  0  0
    2.4312   -7.6470    0.0000 H   0  0  0  0  0  0  0  0  0  0  0  0
    4.3345   -5.8785    0.0000 H   0  0  0  0  0  0  0  0  0  0  0  0
    3.7545   -3.3460    0.0000 H   0  0  0  0  0  0  0  0  0  0  0  0
    2.5230   -0.2969    0.0000 H   0  0  0  0  0  0  0  0  0  0  0  0
    2.5035    3.0943    0.0000 H   0  0  0  0  0  0  0  0  0  0  0  0
    4.8705    4.6255    0.0000 H   0  0  0  0  0  0  0  0  0  0  0  0
    3.0941    3.8752    0.0000 H   0  0  0  0  0  0  0  0  0  0  0  0
    5.5967    0.4283    0.0000 H   0  0  0  0  0  0  0  0  0  0  0  0
    8.8907    0.2397    0.0000 H   0  0  0  0  0  0  0  0  0  0  0  0
   10.3833    2.4501    0.0000 H   0  0  0  0  0  0  0  0  0  0  0  0
    9.2160    5.2137    0.0000 H   0  0  0  0  0  0  0  0  0  0  0  0
    6.2390    5.5846    0.0000 H   0  0  0  0  0  0  0  0  0  0  0  0
    6.4082    3.5988    0.0000 H   0  0  0  0  0  0  0  0  0  0  0  0
    6.5497    0.2472    0.0000 H   0  0  0  0  0  0  0  0  0  0  0  0
    9.7177   -0.4963    0.0000 H   0  0  0  0  0  0  0  0  0  0  0  0
    9.6431    1.2865    0.0000 H   0  0  0  0  0  0  0  0  0  0  0  0
    5.3158   -0.6047    0.0000 H   0  0  0  0  0  0  0  0  0  0  0  0
    4.6691   -3.1924    0.0000 H   0  0  0  0  0  0  0  0  0  0  0  0
    7.7323   -6.4889    0.0000 H   0  0  0  0  0  0  0  0  0  0  0  0
    9.6355   -4.7204    0.0000 H   0  0  0  0  0  0  0  0  0  0  0  0
   10.5177   -1.8530    0.0000 H   0  0  0  0  0  0  0  0  0  0  0  0
   10.3072    0.0972    0.0000 H   0  0  0  0  0  0  0  0  0  0  0  0
   10.2877    3.4885    0.0000 H   0  0  0  0  0  0  0  0  0  0  0  0
   12.6547    5.0197    0.0000 H   0  0  0  0  0  0  0  0  0  0  0  0
   10.8783    4.2693    0.0000 H   0  0  0  0  0  0  0  0  0  0  0  0
   16.1069    4.5943    0.0000 H   0  0  0  0  0  0  0  0  0  0  0  0
   14.0233    5.9787    0.0000 H   0  0  0  0  0  0  0  0  0  0  0  0
   14.1924    3.9929    0.0000 H   0  0  0  0  0  0  0  0  0  0  0  0
   14.3340    0.6413    0.0000 H   0  0  0  0  0  0  0  0  0  0  0  0
   16.6707   -0.7038    0.0000 H   0  0  0  0  0  0  0  0  0  0  0  0
   15.0004   -0.0759    0.0000 H   0  0  0  0  0  0  0  0  0  0  0  0
   17.8556    2.5677    0.0000 H   0  0  0  0  0  0  0  0  0  0  0  0
   20.2428   -0.0541    0.0000 H   0  0  0  0  0  0  0  0  0  0  0  0
   19.3267   -1.4070    0.0000 H   0  0  0  0  0  0  0  0  0  0  0  0
   17.5923   -0.9874    0.0000 H   0  0  0  0  0  0  0  0  0  0  0  0
   20.3168    1.2050    0.0000 H   0  0  0  0  0  0  0  0  0  0  0  0
   19.8863    3.0847    0.0000 H   0  0  0  0  0  0  0  0  0  0  0  0
   17.8341    2.8546    0.0000 H   0  0  0  0  0  0  0  0  0  0  0  0
   18.2697    0.5338    0.0000 H   0  0  0  0  0  0  0  0  0  0  0  0
   18.2135    3.9989    0.0000 H   0  0  0  0  0  0  0  0  0  0  0  0
   20.4390    5.4138    0.0000 H   0  0  0  0  0  0  0  0  0  0  0  0
   18.6626    4.6635    0.0000 H   0  0  0  0  0  0  0  0  0  0  0  0
   22.3912    4.9910    0.0000 H   0  0  0  0  0  0  0  0  0  0  0  0
   22.8217    3.1113    0.0000 H   0  0  0  0  0  0  0  0  0  0  0  0
   21.7701    2.3218    0.0000 H   0  0  0  0  0  0  0  0  0  0  0  0
   21.7951    4.4113    0.0000 H   0  0  0  0  0  0  0  0  0  0  0  0
   21.9792    1.1547    0.0000 H   0  0  0  0  0  0  0  0  0  0  0  0
   25.2116    2.0748    0.0000 H   0  0  0  0  0  0  0  0  0  0  0  0
   25.3075   -1.0738    0.0000 H   0  0  0  0  0  0  0  0  0  0  0  0
   24.1624   -1.6925    0.0000 H   0  0  0  0  0  0  0  0  0  0  0  0
   22.6982   -1.4971    0.0000 H   0  0  0  0  0  0  0  0  0  0  0  0
   22.1944    0.2148    0.0000 H   0  0  0  0  0  0  0  0  0  0  0  0
   26.1408    4.3012    0.0000 H   0  0  0  0  0  0  0  0  0  0  0  0
   28.1229    3.9837    0.0000 H   0  0  0  0  0  0  0  0  0  0  0  0
   28.9604    3.1433    0.0000 H   0  0  0  0  0  0  0  0  0  0  0  0
   29.2709    1.1601    0.0000 H   0  0  0  0  0  0  0  0  0  0  0  0
   28.7304    0.1039    0.0000 H   0  0  0  0  0  0  0  0  0  0  0  0
   27.1196   -0.8411    0.0000 H   0  0  0  0  0  0  0  0  0  0  0  0
   24.4147    0.4451    0.0000 H   0  0  0  0  0  0  0  0  0  0  0  0
   23.0840   -0.6353    0.0000 H   0  0  0  0  0  0  0  0  0  0  0  0
   25.8390   -2.6128    0.0000 H   0  0  0  0  0  0  0  0  0  0  0  0
   24.2216   -5.6181    0.0000 H   0  0  0  0  0  0  0  0  0  0  0  0
   25.6865   -5.4278    0.0000 H   0  0  0  0  0  0  0  0  0  0  0  0
   26.1236   -3.5496    0.0000 H   0  0  0  0  0  0  0  0  0  0  0  0
   24.0783   -5.9357    0.0000 H   0  0  0  0  0  0  0  0  0  0  0  0
   20.1041   -5.8282    0.0000 H   0  0  0  0  0  0  0  0  0  0  0  0
   21.1572   -4.2128    0.0000 H   0  0  0  0  0  0  0  0  0  0  0  0
   18.9178   -7.0053    0.0000 H   0  0  0  0  0  0  0  0  0  0  0  0
   20.5292  -10.7575    0.0000 H   0  0  0  0  0  0  0  0  0  0  0  0
   21.5824   -9.1421    0.0000 H   0  0  0  0  0  0  0  0  0  0  0  0
   16.1612   -9.8603    0.0000 H   0  0  0  0  0  0  0  0  0  0  0  0
  1  2  1  0
  2  3  1  0
  3  4  2  0
  4  5  1  0
  5  6  2  0
  6  7  1  0
  7  8  2  0
  7  9  1  0
  9 10  1  0
 10 11  1  0
 11 12  2  0
  9 13  1  0
 13 14  1  0
 14 15  2  0
 15 16  1  0
 16 17  2  0
 17 18  1  0
 16 19  1  0
 14 20  1  0
 20 21  1  0
 21 22  2  0
 22 23  1  0
 23 24  2  0
 24 25  1  0
 25 26  2  0
 25 27  1  0
  1 28  2  0
  1 29  1  0
 29 30  1  0
 30 31  1  0
 31 32  1  0
 32 33  2  0
 32 34  1  0
 34 35  1  0
 35 36  1  0
 36 37  1  0
 35 38  1  0
 38 39  2  0
 38 40  1  0
 40 41  1  0
 41 42  1  0
 42 43  1  0
 41 44  1  0
 44 45  2  0
 44 46  1  0
 46 47  1  0
 47 48  1  0
 48 49  1  0
 49 50  1  0
 49 51  1  0
 47 52  1  0
 52 53  2  0
 52 54  1  0
 54 55  1  0
 55 56  1  0
 56 57  1  0
 57 58  2  0
 58 59  1  0
 59 60  2  0
 60 61  1  0
 61 62  2  0
 55 63  1  0
 63 64  2  0
 63 65  1  0
 65 66  1  0
 66 67  1  0
 67 68  1  0
 68 69  1  0
 69 70  2  0
 69 71  1  0
 66 72  1  0
 72 73  2  0
 72 74  1  0
 74 75  1  0
 75 76  1  0
 76 77  1  0
 77 78  1  0
 78 79  1  0
 79 80  1  0
 80 81  2  3
 80 82  1  0
 75 83  1  0
 83 84  2  0
 83 85  1  0
 85 86  1  0
 86 87  1  0
 87 88  1  0
 88 89  2  0
 89 90  1  0
 90 91  2  0
 91 92  1  0
 92 93  2  0
 86 94  1  0
 94 95  2  0
 94 96  1  0
 96 97  1  0
 97 98  1  0
 98 99  1  0
 99100  2  0
100101  1  0
101102  2  0
102103  1  0
102104  1  0
104105  2  0
 97106  1  0
106107  2  0
106108  1  0
108109  1  0
109110  1  0
110111  1  0
111112  1  0
111113  2  0
109114  1  0
114115  2  0
114116  1  0
116117  1  0
117118  1  0
118119  1  0
119120  1  0
119121  1  0
117122  1  0
122123  2  0
122124  1  0
124125  1  0
125126  1  0
126127  1  0
125128  1  0
128129  2  0
128130  1  0
130131  1  0
131132  1  0
132133  1  0
132134  1  0
131135  1  0
135136  2  0
135137  1  0
137138  1  0
138139  1  0
139140  1  0
140141  1  0
141142  1  0
142143  2  0
142144  1  0
144145  1  0
145146  1  0
145147  1  0
147148  2  0
147149  1  0
149150  1  0
150151  1  0
151152  2  0
151153  1  0
153154  1  0
154155  1  0
155156  2  0
155157  1  0
  8  3  1  0
 62 57  1  0
 93 88  1  0
105 99  1  0
141137  1  0
 11  6  1  0
 18 13  2  0
 22  9  1  0
 26 21  1  0
  2158  1  0
  4159  1  0
  5160  1  0
  8161  1  0
 15162  1  0
 17163  1  0
 18164  1  0
 19165  1  0
 23166  1  0
 24167  1  0
 26168  1  0
 27169  1  0
 29170  1  0
 30171  1  0
 30172  1  0
 31173  1  0
 31174  1  0
 34175  1  0
 35176  1  1
 36177  1  0
 36178  1  0
 37179  1  0
 40180  1  0
 41181  1  6
 42182  1  0
 42183  1  0
 43184  1  0
 46185  1  0
 47186  1  1
 48187  1  0
 48188  1  0
 49189  1  0
 50190  1  0
 50191  1  0
 50192  1  0
 51193  1  0
 51194  1  0
 51195  1  0
 54196  1  0
 55197  1  6
 56198  1  0
 56199  1  0
 58200  1  0
 59201  1  0
 60202  1  0
 61203  1  0
 62204  1  0
 65205  1  0
 66206  1  1
 67207  1  0
 67208  1  0
 68209  1  0
 68210  1  0
 71211  1  0
 74212  1  0
 75213  1  6
 76214  1  0
 76215  1  0
 77216  1  0
 77217  1  0
 78218  1  0
 78219  1  0
 79220  1  0
 81221  1  0
 82222  1  0
 82223  1  0
 85224  1  0
 86225  1  1
 87226  1  0
 87227  1  0
 89228  1  0
 90229  1  0
 91230  1  0
 92231  1  0
 93232  1  0
 96233  1  0
 97234  1  6
 98235  1  0
 98236  1  0
100237  1  0
101238  1  0
103239  1  0
104240  1  0
105241  1  0
108242  1  0
109243  1  1
110244  1  0
110245  1  0
112246  1  0
112247  1  0
116248  1  0
117249  1  6
118250  1  0
118251  1  0
119252  1  0
120253  1  0
120254  1  0
120255  1  0
121256  1  0
121257  1  0
121258  1  0
124259  1  0
125260  1  1
126261  1  0
126262  1  0
127263  1  0
127264  1  0
127265  1  0
130266  1  0
131267  1  6
132268  1  1
133269  1  0
134270  1  0
134271  1  0
134272  1  0
138273  1  0
138274  1  0
139275  1  0
139276  1  0
140277  1  0
140278  1  0
141279  1  0
144280  1  0
145281  1  1
146282  1  0
146283  1  0
146284  1  0
149285  1  0
150286  1  0
150287  1  0
153288  1  0
154289  1  0
154290  1  0
157291  1  0
M  END
