
     RDKit          2D

389392  0  0  0  0  0  0  0  0999 V2000
  -20.9759   -8.5814    0.0000 N   0  0  0  0  0  0  0  0  0  0  0  0
  -19.5091   -8.2678    0.0000 C   0  0  0  0  0  0  0  0  0  0  0  0
  -19.0472   -6.8407    0.0000 C   0  0  0  0  0  0  0  0  0  0  0  0
  -17.5804   -6.5270    0.0000 C   0  0  0  0  0  0  0  0  0  0  0  0
  -16.7186   -7.7548    0.0000 O   0  0  0  0  0  0  0  0  0  0  0  0
  -17.1186   -5.0999    0.0000 N   0  0  0  0  0  0  0  0  0  0  0  0
  -15.6517   -4.7863    0.0000 C   0  0  0  0  0  0  0  0  0  0  0  0
  -14.5138   -5.7636    0.0000 C   0  0  0  0  0  0  0  0  0  0  0  0
  -13.2115   -6.5079    0.0000 C   0  0  0  0  0  0  0  0  0  0  0  0
  -11.7919   -6.9923    0.0000 C   0  0  0  0  0  0  0  0  0  0  0  0
  -10.3062   -7.1993    0.0000 C   0  0  0  0  0  0  0  0  0  0  0  0
   -8.8083   -7.1214    0.0000 C   0  0  0  0  0  0  0  0  0  0  0  0
   -7.3521   -6.7614    0.0000 C   0  0  0  0  0  0  0  0  0  0  0  0
   -5.9904   -6.1323    0.0000 C   0  0  0  0  0  0  0  0  0  0  0  0
  -16.1965   -6.1838    0.0000 C   0  0  0  0  0  0  0  0  0  0  0  0
  -16.5841   -3.6113    0.0000 C   0  0  0  0  0  0  0  0  0  0  0  0
  -17.3804   -3.9992    0.0000 O   0  0  0  0  0  0  0  0  0  0  0  0
  -17.2773   -2.2810    0.0000 N   0  0  0  0  0  0  0  0  0  0  0  0
  -17.7062   -0.8436    0.0000 C   0  0  0  0  0  0  0  0  0  0  0  0
  -18.8036   -1.8662    0.0000 C   0  0  0  0  0  0  0  0  0  0  0  0
  -20.2379   -1.4271    0.0000 C   0  0  0  0  0  0  0  0  0  0  0  0
  -21.3353   -2.4497    0.0000 C   0  0  0  0  0  0  0  0  0  0  0  0
  -22.7696   -2.0105    0.0000 N   0  0  0  0  0  0  0  0  0  0  0  0
  -23.8670   -3.0331    0.0000 C   0  0  0  0  0  0  0  0  0  0  0  0
  -25.3013   -2.5940    0.0000 N   0  0  0  0  0  0  0  0  0  0  0  0
  -23.5302   -4.4948    0.0000 N   0  0  0  0  0  0  0  0  0  0  0  0
  -17.8553    0.6489    0.0000 C   0  0  0  0  0  0  0  0  0  0  0  0
  -19.3449    0.8253    0.0000 O   0  0  0  0  0  0  0  0  0  0  0  0
  -17.7192    2.1428    0.0000 N   0  0  0  0  0  0  0  0  0  0  0  0
  -17.3029    3.5838    0.0000 C   0  0  0  0  0  0  0  0  0  0  0  0
  -18.7790    3.3169    0.0000 C   0  0  0  0  0  0  0  0  0  0  0  0
  -19.7482    4.4617    0.0000 C   0  0  0  0  0  0  0  0  0  0  0  0
  -21.2242    4.1948    0.0000 C   0  0  0  0  0  0  0  0  0  0  0  0
  -22.1934    5.3397    0.0000 N   0  0  0  0  0  0  0  0  0  0  0  0
  -21.7311    2.7830    0.0000 O   0  0  0  0  0  0  0  0  0  0  0  0
  -16.6214    4.9201    0.0000 C   0  0  0  0  0  0  0  0  0  0  0  0
  -17.7792    5.8737    0.0000 O   0  0  0  0  0  0  0  0  0  0  0  0
  -15.6993    6.1032    0.0000 N   0  0  0  0  0  0  0  0  0  0  0  0
  -14.5700    7.0904    0.0000 C   0  0  0  0  0  0  0  0  0  0  0  0
  -15.9560    7.6639    0.0000 C   0  0  0  0  0  0  0  0  0  0  0  0
  -13.2742    7.8461    0.0000 C   0  0  0  0  0  0  0  0  0  0  0  0
  -13.9033    9.2078    0.0000 O   0  0  0  0  0  0  0  0  0  0  0  0
  -11.8589    8.3429    0.0000 N   0  0  0  0  0  0  0  0  0  0  0  0
  -10.3751    8.5628    0.0000 C   0  0  0  0  0  0  0  0  0  0  0  0
  -11.2311    9.7946    0.0000 C   0  0  0  0  0  0  0  0  0  0  0  0
  -10.5923   11.1518    0.0000 C   0  0  0  0  0  0  0  0  0  0  0  0
  -11.4483   12.3836    0.0000 C   0  0  0  0  0  0  0  0  0  0  0  0
  -10.8095   13.7408    0.0000 N   0  0  0  0  0  0  0  0  0  0  0  0
  -11.6655   14.9726    0.0000 C   0  0  0  0  0  0  0  0  0  0  0  0
  -11.0268   16.3298    0.0000 N   0  0  0  0  0  0  0  0  0  0  0  0
  -13.1603   14.8472    0.0000 N   0  0  0  0  0  0  0  0  0  0  0  0
   -8.8765    8.4980    0.0000 C   0  0  0  0  0  0  0  0  0  0  0  0
   -8.4900    9.9474    0.0000 O   0  0  0  0  0  0  0  0  0  0  0  0
   -7.4173    8.1508    0.0000 N   0  0  0  0  0  0  0  0  0  0  0  0
   -6.0501    7.5336    0.0000 C   0  0  0  0  0  0  0  0  0  0  0  0
   -6.1043    9.0326    0.0000 C   0  0  0  0  0  0  0  0  0  0  0  0
   -4.8331    9.8290    0.0000 C   0  0  0  0  0  0  0  0  0  0  0  0
   -4.8873   11.3280    0.0000 C   0  0  0  0  0  0  0  0  0  0  0  0
   -3.6162   12.1244    0.0000 N   0  0  0  0  0  0  0  0  0  0  0  0
   -3.6703   13.6235    0.0000 C   0  0  0  0  0  0  0  0  0  0  0  0
   -2.3992   14.4199    0.0000 N   0  0  0  0  0  0  0  0  0  0  0  0
   -4.9956   14.3261    0.0000 N   0  0  0  0  0  0  0  0  0  0  0  0
   -4.8245    6.6689    0.0000 C   0  0  0  0  0  0  0  0  0  0  0  0
   -3.8471    7.8068    0.0000 O   0  0  0  0  0  0  0  0  0  0  0  0
   -3.7846    5.5878    0.0000 N   0  0  0  0  0  0  0  0  0  0  0  0
   -2.9681    4.3295    0.0000 C   0  0  0  0  0  0  0  0  0  0  0  0
   -2.2033    5.6198    0.0000 C   0  0  0  0  0  0  0  0  0  0  0  0
   -2.9383    6.9274    0.0000 C   0  0  0  0  0  0  0  0  0  0  0  0
   -2.1734    8.2177    0.0000 C   0  0  0  0  0  0  0  0  0  0  0  0
   -2.7435    9.6051    0.0000 N   0  0  0  0  0  0  0  0  0  0  0  0
   -0.6735    8.2005    0.0000 O   0  0  0  0  0  0  0  0  0  0  0  0
   -2.4046    2.9394    0.0000 C   0  0  0  0  0  0  0  0  0  0  0  0
   -1.1137    3.7033    0.0000 O   0  0  0  0  0  0  0  0  0  0  0  0
   -2.1143    1.4677    0.0000 N   0  0  0  0  0  0  0  0  0  0  0  0
   -2.1077   -0.0323    0.0000 C   0  0  0  0  0  0  0  0  0  0  0  0
   -2.3851   -1.5064    0.0000 C   0  0  0  0  0  0  0  0  0  0  0  0
   -2.9365   -2.9013    0.0000 C   0  0  0  0  0  0  0  0  0  0  0  0
   -3.7420   -4.1668    0.0000 C   0  0  0  0  0  0  0  0  0  0  0  0
   -4.7723   -5.2569    0.0000 C   0  0  0  0  0  0  0  0  0  0  0  0
   -1.1578    1.2476    0.0000 C   0  0  0  0  0  0  0  0  0  0  0  0
   -0.6553    2.5188    0.0000 C   0  0  0  0  0  0  0  0  0  0  0  0
    0.0787    3.6720    0.0000 C   0  0  0  0  0  0  0  0  0  0  0  0
    1.0177    4.6654    0.0000 C   0  0  0  0  0  0  0  0  0  0  0  0
   -1.4046   -1.4627    0.0000 C   0  0  0  0  0  0  0  0  0  0  0  0
   -3.5937   -1.6813    0.0000 O   0  0  0  0  0  0  0  0  0  0  0  0
   -1.1401   -2.8037    0.0000 N   0  0  0  0  0  0  0  0  0  0  0  0
   -0.6265   -4.0705    0.0000 C   0  0  0  0  0  0  0  0  0  0  0  0
   -2.0121   -5.6843    0.0000 C   0  0  0  0  0  0  0  0  0  0  0  0
   -1.2771   -6.9919    0.0000 C   0  0  0  0  0  0  0  0  0  0  0  0
   -2.0420   -8.2822    0.0000 C   0  0  0  0  0  0  0  0  0  0  0  0
   -1.3070   -9.5898    0.0000 N   0  0  0  0  0  0  0  0  0  0  0  0
   -2.0719  -10.8801    0.0000 C   0  0  0  0  0  0  0  0  0  0  0  0
   -1.6751  -12.3267    0.0000 N   0  0  0  0  0  0  0  0  0  0  0  0
   -3.5718  -10.8629    0.0000 N   0  0  0  0  0  0  0  0  0  0  0  0
    0.1176   -5.2172    0.0000 C   0  0  0  0  0  0  0  0  0  0  0  0
   -0.8422   -6.2828    0.0000 O   0  0  0  0  0  0  0  0  0  0  0  0
    1.0652   -6.2023    0.0000 N   0  0  0  0  0  0  0  0  0  0  0  0
    2.1821   -6.9904    0.0000 C   0  0  0  0  0  0  0  0  0  0  0  0
    1.8889   -9.0971    0.0000 C   0  0  0  0  0  0  0  0  0  0  0  0
    0.6177   -9.8935    0.0000 C   0  0  0  0  0  0  0  0  0  0  0  0
    0.6719  -11.3926    0.0000 C   0  0  0  0  0  0  0  0  0  0  0  0
   -0.5992  -12.1890    0.0000 N   0  0  0  0  0  0  0  0  0  0  0  0
   -0.5451  -13.6880    0.0000 C   0  0  0  0  0  0  0  0  0  0  0  0
   -1.8162  -14.4844    0.0000 N   0  0  0  0  0  0  0  0  0  0  0  0
    0.7802  -14.3906    0.0000 N   0  0  0  0  0  0  0  0  0  0  0  0
    3.4279   -7.5528    0.0000 C   0  0  0  0  0  0  0  0  0  0  0  0
    2.8941   -9.6834    0.0000 O   0  0  0  0  0  0  0  0  0  0  0  0
    4.7577   -7.8692    0.0000 N   0  0  0  0  0  0  0  0  0  0  0  0
    6.1234   -7.9283    0.0000 C   0  0  0  0  0  0  0  0  0  0  0  0
    7.0157   -9.8591    0.0000 C   0  0  0  0  0  0  0  0  0  0  0  0
    6.3769  -11.2163    0.0000 C   0  0  0  0  0  0  0  0  0  0  0  0
    7.2329  -12.4481    0.0000 C   0  0  0  0  0  0  0  0  0  0  0  0
    6.5942  -13.8053    0.0000 N   0  0  0  0  0  0  0  0  0  0  0  0
    7.4501  -15.0371    0.0000 C   0  0  0  0  0  0  0  0  0  0  0  0
    6.8114  -16.3943    0.0000 N   0  0  0  0  0  0  0  0  0  0  0  0
    8.9449  -14.9117    0.0000 N   0  0  0  0  0  0  0  0  0  0  0  0
    7.4755   -7.7278    0.0000 C   0  0  0  0  0  0  0  0  0  0  0  0
    8.1783   -9.8088    0.0000 O   0  0  0  0  0  0  0  0  0  0  0  0
    8.7653   -7.2751    0.0000 N   0  0  0  0  0  0  0  0  0  0  0  0
    9.9461   -6.5865    0.0000 C   0  0  0  0  0  0  0  0  0  0  0  0
   11.7407   -7.7284    0.0000 C   0  0  0  0  0  0  0  0  0  0  0  0
   11.9370   -9.2155    0.0000 C   0  0  0  0  0  0  0  0  0  0  0  0
   10.8494  -10.2485    0.0000 C   0  0  0  0  0  0  0  0  0  0  0  0
   11.4957  -11.6021    0.0000 N   0  0  0  0  0  0  0  0  0  0  0  0
   12.9828  -11.4057    0.0000 C   0  0  0  0  0  0  0  0  0  0  0  0
   14.1238  -12.3794    0.0000 C   0  0  0  0  0  0  0  0  0  0  0  0
   15.5376  -11.8781    0.0000 C   0  0  0  0  0  0  0  0  0  0  0  0
   15.8103  -10.4031    0.0000 C   0  0  0  0  0  0  0  0  0  0  0  0
   14.6693   -9.4294    0.0000 C   0  0  0  0  0  0  0  0  0  0  0  0
   13.2556   -9.9307    0.0000 C   0  0  0  0  0  0  0  0  0  0  0  0
   10.9752   -5.6869    0.0000 C   0  0  0  0  0  0  0  0  0  0  0  0
   12.6915   -7.0575    0.0000 O   0  0  0  0  0  0  0  0  0  0  0  0
   11.8155   -4.6087    0.0000 N   0  0  0  0  0  0  0  0  0  0  0  0
   12.4365   -3.3910    0.0000 C   0  0  0  0  0  0  0  0  0  0  0  0
   14.5636   -3.3814    0.0000 C   0  0  0  0  0  0  0  0  0  0  0  0
   15.5328   -4.5262    0.0000 C   0  0  0  0  0  0  0  0  0  0  0  0
   17.0088   -4.2593    0.0000 C   0  0  0  0  0  0  0  0  0  0  0  0
   17.9780   -5.4042    0.0000 N   0  0  0  0  0  0  0  0  0  0  0  0
   19.4541   -5.1372    0.0000 C   0  0  0  0  0  0  0  0  0  0  0  0
   20.4233   -6.2821    0.0000 N   0  0  0  0  0  0  0  0  0  0  0  0
   19.9609   -3.7255    0.0000 N   0  0  0  0  0  0  0  0  0  0  0  0
   12.8159   -2.0778    0.0000 C   0  0  0  0  0  0  0  0  0  0  0  0
   15.0008   -2.3029    0.0000 O   0  0  0  0  0  0  0  0  0  0  0  0
   12.9399   -0.7165    0.0000 N   0  0  0  0  0  0  0  0  0  0  0  0
   12.8040    0.6437    0.0000 C   0  0  0  0  0  0  0  0  0  0  0  0
   14.5882    1.8017    0.0000 C   0  0  0  0  0  0  0  0  0  0  0  0
   16.0225    1.3626    0.0000 C   0  0  0  0  0  0  0  0  0  0  0  0
   17.1199    2.3852    0.0000 C   0  0  0  0  0  0  0  0  0  0  0  0
   18.5542    1.9460    0.0000 O   0  0  0  0  0  0  0  0  0  0  0  0
   16.7830    3.8468    0.0000 O   0  0  0  0  0  0  0  0  0  0  0  0
   12.4132    1.9535    0.0000 C   0  0  0  0  0  0  0  0  0  0  0  0
   14.3729    2.9453    0.0000 O   0  0  0  0  0  0  0  0  0  0  0  0
   11.7815    3.1657    0.0000 N   0  0  0  0  0  0  0  0  0  0  0  0
   10.9318    4.2365    0.0000 C   0  0  0  0  0  0  0  0  0  0  0  0
    9.8949    5.1271    0.0000 C   0  0  0  0  0  0  0  0  0  0  0  0
    8.7081    5.8054    0.0000 C   0  0  0  0  0  0  0  0  0  0  0  0
    7.4144    6.2468    0.0000 C   0  0  0  0  0  0  0  0  0  0  0  0
    6.0606    6.4354    0.0000 C   0  0  0  0  0  0  0  0  0  0  0  0
    4.6955    6.3644    0.0000 C   0  0  0  0  0  0  0  0  0  0  0  0
    3.3685    6.0364    0.0000 C   0  0  0  0  0  0  0  0  0  0  0  0
    2.1276    5.4631    0.0000 C   0  0  0  0  0  0  0  0  0  0  0  0
   12.9032    5.0354    0.0000 C   0  0  0  0  0  0  0  0  0  0  0  0
   11.8067    6.1753    0.0000 C   0  0  0  0  0  0  0  0  0  0  0  0
   11.0185    7.4515    0.0000 O   0  0  0  0  0  0  0  0  0  0  0  0
   13.2507    6.5813    0.0000 N   0  0  0  0  0  0  0  0  0  0  0  0
   13.6211    8.0349    0.0000 C   0  0  0  0  0  0  0  0  0  0  0  0
   13.4720    9.5275    0.0000 C   0  0  0  0  0  0  0  0  0  0  0  0
   14.6900   10.4029    0.0000 C   0  0  0  0  0  0  0  0  0  0  0  0
   14.5409   11.8955    0.0000 C   0  0  0  0  0  0  0  0  0  0  0  0
   15.6432   12.9128    0.0000 N   0  0  0  0  0  0  0  0  0  0  0  0
   13.1738   12.5126    0.0000 O   0  0  0  0  0  0  0  0  0  0  0  0
   15.0651    8.4409    0.0000 C   0  0  0  0  0  0  0  0  0  0  0  0
   16.1387    7.3934    0.0000 O   0  0  0  0  0  0  0  0  0  0  0  0
   15.4355    9.8945    0.0000 N   0  0  0  0  0  0  0  0  0  0  0  0
   16.8795   10.3005    0.0000 C   0  0  0  0  0  0  0  0  0  0  0  0
   18.3752   10.1882    0.0000 C   0  0  0  0  0  0  0  0  0  0  0  0
   19.0259    8.8366    0.0000 C   0  0  0  0  0  0  0  0  0  0  0  0
   20.5216    8.7243    0.0000 C   0  0  0  0  0  0  0  0  0  0  0  0
   21.1722    7.3727    0.0000 N   0  0  0  0  0  0  0  0  0  0  0  0
   22.6680    7.2604    0.0000 C   0  0  0  0  0  0  0  0  0  0  0  0
   23.3186    5.9088    0.0000 N   0  0  0  0  0  0  0  0  0  0  0  0
   23.5132    8.4996    0.0000 N   0  0  0  0  0  0  0  0  0  0  0  0
   17.2498   11.7541    0.0000 C   0  0  0  0  0  0  0  0  0  0  0  0
   18.6336   12.3331    0.0000 O   0  0  0  0  0  0  0  0  0  0  0  0
   16.5661   12.6074    0.0000 O   0  0  0  0  0  0  0  0  0  0  0  0
  -21.4377  -10.0086    0.0000 H   0  0  0  0  0  0  0  0  0  0  0  0
  -21.9809   -7.4679    0.0000 H   0  0  0  0  0  0  0  0  0  0  0  0
  -19.4549   -9.7668    0.0000 H   0  0  0  0  0  0  0  0  0  0  0  0
  -18.0234   -8.4748    0.0000 H   0  0  0  0  0  0  0  0  0  0  0  0
  -20.5329   -6.6337    0.0000 H   0  0  0  0  0  0  0  0  0  0  0  0
  -19.1014   -5.3416    0.0000 H   0  0  0  0  0  0  0  0  0  0  0  0
  -17.7208   -4.5776    0.0000 H   0  0  0  0  0  0  0  0  0  0  0  0
  -14.7843   -7.2390    0.0000 H   0  0  0  0  0  0  0  0  0  0  0  0
  -15.8131   -6.5131    0.0000 H   0  0  0  0  0  0  0  0  0  0  0  0
  -13.1979   -8.0078    0.0000 H   0  0  0  0  0  0  0  0  0  0  0  0
  -14.3455   -7.4898    0.0000 H   0  0  0  0  0  0  0  0  0  0  0  0
  -11.4946   -8.4626    0.0000 H   0  0  0  0  0  0  0  0  0  0  0  0
  -12.7195   -8.1711    0.0000 H   0  0  0  0  0  0  0  0  0  0  0  0
   -9.7361   -8.5867    0.0000 H   0  0  0  0  0  0  0  0  0  0  0  0
  -10.9941   -8.5323    0.0000 H   0  0  0  0  0  0  0  0  0  0  0  0
   -7.9858   -8.3758    0.0000 H   0  0  0  0  0  0  0  0  0  0  0  0
   -9.2314   -8.5605    0.0000 H   0  0  0  0  0  0  0  0  0  0  0  0
   -6.1838   -7.7021    0.0000 H   0  0  0  0  0  0  0  0  0  0  0  0
   -7.4952   -8.2545    0.0000 H   0  0  0  0  0  0  0  0  0  0  0  0
   -5.2347   -7.4280    0.0000 H   0  0  0  0  0  0  0  0  0  0  0  0
  -17.3166   -6.9393    0.0000 H   0  0  0  0  0  0  0  0  0  0  0  0
  -15.6866   -7.6814    0.0000 H   0  0  0  0  0  0  0  0  0  0  0  0
  -14.6167   -6.7513    0.0000 H   0  0  0  0  0  0  0  0  0  0  0  0
  -18.5883   -3.0098    0.0000 H   0  0  0  0  0  0  0  0  0  0  0  0
  -19.0347   -0.1473    0.0000 H   0  0  0  0  0  0  0  0  0  0  0  0
  -19.4851   -3.2025    0.0000 H   0  0  0  0  0  0  0  0  0  0  0  0
  -17.8601   -3.0323    0.0000 H   0  0  0  0  0  0  0  0  0  0  0  0
  -21.4355   -0.5239    0.0000 H   0  0  0  0  0  0  0  0  0  0  0  0
  -19.8999    0.0344    0.0000 H   0  0  0  0  0  0  0  0  0  0  0  0
  -22.0168   -3.7859    0.0000 H   0  0  0  0  0  0  0  0  0  0  0  0
  -20.2567   -3.4921    0.0000 H   0  0  0  0  0  0  0  0  0  0  0  0
  -23.1064   -0.5489    0.0000 H   0  0  0  0  0  0  0  0  0  0  0  0
  -26.3987   -3.6166    0.0000 H   0  0  0  0  0  0  0  0  0  0  0  0
  -25.6382   -1.1323    0.0000 H   0  0  0  0  0  0  0  0  0  0  0  0
  -24.6276   -5.5174    0.0000 H   0  0  0  0  0  0  0  0  0  0  0  0
  -22.0959   -4.9339    0.0000 H   0  0  0  0  0  0  0  0  0  0  0  0
  -19.2161    2.2384    0.0000 H   0  0  0  0  0  0  0  0  0  0  0  0
  -18.0441    4.8879    0.0000 H   0  0  0  0  0  0  0  0  0  0  0  0
  -20.1572    2.7248    0.0000 H   0  0  0  0  0  0  0  0  0  0  0  0
  -18.6157    1.8258    0.0000 H   0  0  0  0  0  0  0  0  0  0  0  0
  -20.2673    5.8690    0.0000 H   0  0  0  0  0  0  0  0  0  0  0  0
  -18.6738    5.5085    0.0000 H   0  0  0  0  0  0  0  0  0  0  0  0
  -23.6695    5.0727    0.0000 H   0  0  0  0  0  0  0  0  0  0  0  0
  -21.6865    6.7514    0.0000 H   0  0  0  0  0  0  0  0  0  0  0  0
  -16.9069    6.9930    0.0000 H   0  0  0  0  0  0  0  0  0  0  0  0
  -14.6717    8.5870    0.0000 H   0  0  0  0  0  0  0  0  0  0  0  0
  -16.1524    9.1510    0.0000 H   0  0  0  0  0  0  0  0  0  0  0  0
  -17.4356    7.9109    0.0000 H   0  0  0  0  0  0  0  0  0  0  0  0
  -16.6249    6.3213    0.0000 H   0  0  0  0  0  0  0  0  0  0  0  0
  -12.3937    9.7443    0.0000 H   0  0  0  0  0  0  0  0  0  0  0  0
   -9.4968    9.7788    0.0000 H   0  0  0  0  0  0  0  0  0  0  0  0
  -12.4568   10.6594    0.0000 H   0  0  0  0  0  0  0  0  0  0  0  0
  -12.5196    9.0267    0.0000 H   0  0  0  0  0  0  0  0  0  0  0  0
   -9.5279   12.2087    0.0000 H   0  0  0  0  0  0  0  0  0  0  0  0
   -9.1939   10.6094    0.0000 H   0  0  0  0  0  0  0  0  0  0  0  0
  -12.6740   13.2483    0.0000 H   0  0  0  0  0  0  0  0  0  0  0  0
  -12.6336   11.4644    0.0000 H   0  0  0  0  0  0  0  0  0  0  0  0
   -9.3148   13.8662    0.0000 H   0  0  0  0  0  0  0  0  0  0  0  0
  -11.8827   17.5616    0.0000 H   0  0  0  0  0  0  0  0  0  0  0  0
   -9.5320   16.4552    0.0000 H   0  0  0  0  0  0  0  0  0  0  0  0
  -14.0163   16.0790    0.0000 H   0  0  0  0  0  0  0  0  0  0  0  0
  -13.7990   13.4900    0.0000 H   0  0  0  0  0  0  0  0  0  0  0  0
   -7.1095    9.6188    0.0000 H   0  0  0  0  0  0  0  0  0  0  0  0
   -4.7310    8.2478    0.0000 H   0  0  0  0  0  0  0  0  0  0  0  0
   -6.6678   10.4227    0.0000 H   0  0  0  0  0  0  0  0  0  0  0  0
   -7.6034    9.0833    0.0000 H   0  0  0  0  0  0  0  0  0  0  0  0
   -3.4155   10.3191    0.0000 H   0  0  0  0  0  0  0  0  0  0  0  0
   -4.1043    8.5180    0.0000 H   0  0  0  0  0  0  0  0  0  0  0  0
   -5.4509   12.7182    0.0000 H   0  0  0  0  0  0  0  0  0  0  0  0
   -6.3814   11.1956    0.0000 H   0  0  0  0  0  0  0  0  0  0  0  0
   -2.2151   11.5886    0.0000 H   0  0  0  0  0  0  0  0  0  0  0  0
   -2.4533   15.9189    0.0000 H   0  0  0  0  0  0  0  0  0  0  0  0
   -1.0739   13.7173    0.0000 H   0  0  0  0  0  0  0  0  0  0  0  0
   -5.0497   15.8251    0.0000 H   0  0  0  0  0  0  0  0  0  0  0  0
   -6.2667   13.5297    0.0000 H   0  0  0  0  0  0  0  0  0  0  0  0
   -2.8701    6.7768    0.0000 H   0  0  0  0  0  0  0  0  0  0  0  0
   -1.4698    4.4003    0.0000 H   0  0  0  0  0  0  0  0  0  0  0  0
   -1.1677    6.7050    0.0000 H   0  0  0  0  0  0  0  0  0  0  0  0
   -0.8627    4.9469    0.0000 H   0  0  0  0  0  0  0  0  0  0  0  0
   -3.9486    8.0361    0.0000 H   0  0  0  0  0  0  0  0  0  0  0  0
   -4.2940    6.2854    0.0000 H   0  0  0  0  0  0  0  0  0  0  0  0
   -2.0004   10.7334    0.0000 H   0  0  0  0  0  0  0  0  0  0  0  0
   -4.3740    9.9472    0.0000 H   0  0  0  0  0  0  0  0  0  0  0  0
   -0.6217    1.6168    0.0000 H   0  0  0  0  0  0  0  0  0  0  0  0
   -0.9411   -1.1003    0.0000 H   0  0  0  0  0  0  0  0  0  0  0  0
   -1.5233   -2.7341    0.0000 H   0  0  0  0  0  0  0  0  0  0  0  0
   -1.4962   -3.3201    0.0000 H   0  0  0  0  0  0  0  0  0  0  0  0
   -2.1604   -4.1849    0.0000 H   0  0  0  0  0  0  0  0  0  0  0  0
   -2.3335   -4.6826    0.0000 H   0  0  0  0  0  0  0  0  0  0  0  0
   -3.3982   -5.6268    0.0000 H   0  0  0  0  0  0  0  0  0  0  0  0
   -3.9301   -6.4981    0.0000 H   0  0  0  0  0  0  0  0  0  0  0  0
   -3.2743    1.0358    0.0000 H   0  0  0  0  0  0  0  0  0  0  0  0
   -2.6921    2.6696    0.0000 H   0  0  0  0  0  0  0  0  0  0  0  0
   -2.7192    3.2556    0.0000 H   0  0  0  0  0  0  0  0  0  0  0  0
   -2.0550    4.1204    0.0000 H   0  0  0  0  0  0  0  0  0  0  0  0
   -1.8819    4.6181    0.0000 H   0  0  0  0  0  0  0  0  0  0  0  0
   -0.8172    5.5623    0.0000 H   0  0  0  0  0  0  0  0  0  0  0  0
   -0.2853    6.4336    0.0000 H   0  0  0  0  0  0  0  0  0  0  0  0
   -3.1017   -3.7678    0.0000 H   0  0  0  0  0  0  0  0  0  0  0  0
   -2.7456   -4.4648    0.0000 H   0  0  0  0  0  0  0  0  0  0  0  0
   -3.1722   -6.6352    0.0000 H   0  0  0  0  0  0  0  0  0  0  0  0
   -3.3527   -5.0114    0.0000 H   0  0  0  0  0  0  0  0  0  0  0  0
   -0.2668   -8.1006    0.0000 H   0  0  0  0  0  0  0  0  0  0  0  0
    0.0786   -6.3499    0.0000 H   0  0  0  0  0  0  0  0  0  0  0  0
   -3.2021   -9.2331    0.0000 H   0  0  0  0  0  0  0  0  0  0  0  0
   -3.2906   -7.4509    0.0000 H   0  0  0  0  0  0  0  0  0  0  0  0
    0.1442   -9.9695    0.0000 H   0  0  0  0  0  0  0  0  0  0  0  0
   -2.1017  -13.4780    0.0000 H   0  0  0  0  0  0  0  0  0  0  0  0
    0.1379  -12.6533    0.0000 H   0  0  0  0  0  0  0  0  0  0  0  0
   -4.3367  -12.1532    0.0000 H   0  0  0  0  0  0  0  0  0  0  0  0
   -4.3068   -9.5553    0.0000 H   0  0  0  0  0  0  0  0  0  0  0  0
   -0.3683   -7.8713    0.0000 H   0  0  0  0  0  0  0  0  0  0  0  0
    0.5157   -8.3123    0.0000 H   0  0  0  0  0  0  0  0  0  0  0  0
    2.4524  -10.4872    0.0000 H   0  0  0  0  0  0  0  0  0  0  0  0
    3.3880   -9.1478    0.0000 H   0  0  0  0  0  0  0  0  0  0  0  0
   -0.7296  -10.5528    0.0000 H   0  0  0  0  0  0  0  0  0  0  0  0
   -0.1111   -8.5825    0.0000 H   0  0  0  0  0  0  0  0  0  0  0  0
    1.2355  -12.7827    0.0000 H   0  0  0  0  0  0  0  0  0  0  0  0
    2.1660  -11.2601    0.0000 H   0  0  0  0  0  0  0  0  0  0  0  0
   -2.0551  -11.8279    0.0000 H   0  0  0  0  0  0  0  0  0  0  0  0
   -1.7621  -15.9834    0.0000 H   0  0  0  0  0  0  0  0  0  0  0  0
   -3.1415  -13.7818    0.0000 H   0  0  0  0  0  0  0  0  0  0  0  0
    0.8343  -15.8896    0.0000 H   0  0  0  0  0  0  0  0  0  0  0  0
    2.0513  -13.5942    0.0000 H   0  0  0  0  0  0  0  0  0  0  0  0
    4.2746  -10.0119    0.0000 H   0  0  0  0  0  0  0  0  0  0  0  0
    5.2814   -9.8433    0.0000 H   0  0  0  0  0  0  0  0  0  0  0  0
    8.2414  -10.7239    0.0000 H   0  0  0  0  0  0  0  0  0  0  0  0
    8.3042   -9.0912    0.0000 H   0  0  0  0  0  0  0  0  0  0  0  0
    5.3125  -12.2732    0.0000 H   0  0  0  0  0  0  0  0  0  0  0  0
    4.9785  -10.6739    0.0000 H   0  0  0  0  0  0  0  0  0  0  0  0
    8.4586  -13.3129    0.0000 H   0  0  0  0  0  0  0  0  0  0  0  0
    8.4182  -11.5289    0.0000 H   0  0  0  0  0  0  0  0  0  0  0  0
    5.0994  -13.9307    0.0000 H   0  0  0  0  0  0  0  0  0  0  0  0
    7.6674  -17.6261    0.0000 H   0  0  0  0  0  0  0  0  0  0  0  0
    5.3166  -16.5197    0.0000 H   0  0  0  0  0  0  0  0  0  0  0  0
    9.8009  -16.1435    0.0000 H   0  0  0  0  0  0  0  0  0  0  0  0
    9.5837  -13.5545    0.0000 H   0  0  0  0  0  0  0  0  0  0  0  0
    9.5173   -9.3388    0.0000 H   0  0  0  0  0  0  0  0  0  0  0  0
   10.4563   -8.6515    0.0000 H   0  0  0  0  0  0  0  0  0  0  0  0
   13.2202   -7.9754    0.0000 H   0  0  0  0  0  0  0  0  0  0  0  0
   12.4095   -6.3858    0.0000 H   0  0  0  0  0  0  0  0  0  0  0  0
    9.3522  -10.1575    0.0000 H   0  0  0  0  0  0  0  0  0  0  0  0
   10.7805  -12.9206    0.0000 H   0  0  0  0  0  0  0  0  0  0  0  0
   13.8510  -13.8544    0.0000 H   0  0  0  0  0  0  0  0  0  0  0  0
   16.6786  -12.8518    0.0000 H   0  0  0  0  0  0  0  0  0  0  0  0
   17.2241   -9.9018    0.0000 H   0  0  0  0  0  0  0  0  0  0  0  0
   14.9421   -7.9544    0.0000 H   0  0  0  0  0  0  0  0  0  0  0  0
   13.5638   -5.9383    0.0000 H   0  0  0  0  0  0  0  0  0  0  0  0
   13.8287   -4.9524    0.0000 H   0  0  0  0  0  0  0  0  0  0  0  0
   15.8593   -2.6257    0.0000 H   0  0  0  0  0  0  0  0  0  0  0  0
   14.4003   -1.8903    0.0000 H   0  0  0  0  0  0  0  0  0  0  0  0
   16.0519   -5.9335    0.0000 H   0  0  0  0  0  0  0  0  0  0  0  0
   14.4584   -5.5730    0.0000 H   0  0  0  0  0  0  0  0  0  0  0  0
   18.3046   -3.5036    0.0000 H   0  0  0  0  0  0  0  0  0  0  0  0
   16.6650   -2.7992    0.0000 H   0  0  0  0  0  0  0  0  0  0  0  0
   17.4711   -6.8159    0.0000 H   0  0  0  0  0  0  0  0  0  0  0  0
   21.8993   -6.0151    0.0000 H   0  0  0  0  0  0  0  0  0  0  0  0
   19.9164   -7.6938    0.0000 H   0  0  0  0  0  0  0  0  0  0  0  0
   21.4370   -3.4585    0.0000 H   0  0  0  0  0  0  0  0  0  0  0  0
   18.9917   -2.5806    0.0000 H   0  0  0  0  0  0  0  0  0  0  0  0
   15.1295   -0.8898    0.0000 H   0  0  0  0  0  0  0  0  0  0  0  0
   14.8193    0.0828    0.0000 H   0  0  0  0  0  0  0  0  0  0  0  0
   15.4275    3.0449    0.0000 H   0  0  0  0  0  0  0  0  0  0  0  0
   13.6447    2.9678    0.0000 H   0  0  0  0  0  0  0  0  0  0  0  0
   17.2201    0.4594    0.0000 H   0  0  0  0  0  0  0  0  0  0  0  0
   15.6846   -0.0989    0.0000 H   0  0  0  0  0  0  0  0  0  0  0  0
   13.7172    4.2037    0.0000 H   0  0  0  0  0  0  0  0  0  0  0  0
   10.3870    7.1965    0.0000 H   0  0  0  0  0  0  0  0  0  0  0  0
   11.4967    6.6014    0.0000 H   0  0  0  0  0  0  0  0  0  0  0  0
    8.9825    7.9433    0.0000 H   0  0  0  0  0  0  0  0  0  0  0  0
   10.0020    7.5562    0.0000 H   0  0  0  0  0  0  0  0  0  0  0  0
    7.2792    8.3981    0.0000 H   0  0  0  0  0  0  0  0  0  0  0  0
    8.5042    8.1066    0.0000 H   0  0  0  0  0  0  0  0  0  0  0  0
    5.5207    8.5222    0.0000 H   0  0  0  0  0  0  0  0  0  0  0  0
    6.7787    8.4678    0.0000 H   0  0  0  0  0  0  0  0  0  0  0  0
    3.7705    8.3113    0.0000 H   0  0  0  0  0  0  0  0  0  0  0  0
    5.0160    8.4960    0.0000 H   0  0  0  0  0  0  0  0  0  0  0  0
    1.9684    7.6376    0.0000 H   0  0  0  0  0  0  0  0  0  0  0  0
    3.2798    8.1900    0.0000 H   0  0  0  0  0  0  0  0  0  0  0  0
    1.0193    7.3635    0.0000 H   0  0  0  0  0  0  0  0  0  0  0  0
   13.6966    6.3084    0.0000 H   0  0  0  0  0  0  0  0  0  0  0  0
   14.3888    4.8284    0.0000 H   0  0  0  0  0  0  0  0  0  0  0  0
   13.3184    3.5940    0.0000 H   0  0  0  0  0  0  0  0  0  0  0  0
   14.4440    5.6725    0.0000 H   0  0  0  0  0  0  0  0  0  0  0  0
   12.1253    8.1472    0.0000 H   0  0  0  0  0  0  0  0  0  0  0  0
   12.8214   10.8790    0.0000 H   0  0  0  0  0  0  0  0  0  0  0  0
   12.0280    9.1214    0.0000 H   0  0  0  0  0  0  0  0  0  0  0  0
   16.1340   10.8089    0.0000 H   0  0  0  0  0  0  0  0  0  0  0  0
   15.8991    9.5151    0.0000 H   0  0  0  0  0  0  0  0  0  0  0  0
   15.6099   14.2634    0.0000 H   0  0  0  0  0  0  0  0  0  0  0  0
   17.2657   12.5351    0.0000 H   0  0  0  0  0  0  0  0  0  0  0  0
   14.6472   11.1707    0.0000 H   0  0  0  0  0  0  0  0  0  0  0  0
   16.8455    8.8009    0.0000 H   0  0  0  0  0  0  0  0  0  0  0  0
   19.7590   10.7672    0.0000 H   0  0  0  0  0  0  0  0  0  0  0  0
   18.4092   11.6878    0.0000 H   0  0  0  0  0  0  0  0  0  0  0  0
   19.1750    7.3440    0.0000 H   0  0  0  0  0  0  0  0  0  0  0  0
   17.6421    8.2576    0.0000 H   0  0  0  0  0  0  0  0  0  0  0  0
   21.9656    9.1303    0.0000 H   0  0  0  0  0  0  0  0  0  0  0  0
   20.5556   10.2239    0.0000 H   0  0  0  0  0  0  0  0  0  0  0  0
   20.3271    6.1335    0.0000 H   0  0  0  0  0  0  0  0  0  0  0  0
   24.8144    5.7965    0.0000 H   0  0  0  0  0  0  0  0  0  0  0  0
   22.4735    4.6696    0.0000 H   0  0  0  0  0  0  0  0  0  0  0  0
   25.0090    8.3873    0.0000 H   0  0  0  0  0  0  0  0  0  0  0  0
   22.8626    9.8512    0.0000 H   0  0  0  0  0  0  0  0  0  0  0  0
  1  2  1  0
  2  3  1  0
  3  4  1  0
  4  5  2  0
  4  6  1  0
  7  6  1  1
  7  8  1  0
  8  9  1  0
  9 10  1  0
 10 11  1  0
 11 12  1  0
 12 13  1  0
 13 14  1  0
  7 15  1  0
  7 16  1  0
 16 17  2  0
 16 18  1  0
 18 19  1  0
 19 20  1  0
 20 21  1  0
 21 22  1  0
 22 23  1  0
 23 24  1  0
 24 25  2  3
 24 26  1  0
 19 27  1  0
 27 28  2  0
 27 29  1  0
 29 30  1  0
 30 31  1  0
 31 32  1  0
 32 33  1  0
 33 34  1  0
 33 35  2  0
 30 36  1  0
 36 37  2  0
 36 38  1  0
 38 39  1  0
 39 40  1  0
 39 41  1  0
 41 42  2  0
 41 43  1  0
 43 44  1  0
 44 45  1  0
 45 46  1  0
 46 47  1  0
 47 48  1  0
 48 49  1  0
 49 50  2  3
 49 51  1  0
 44 52  1  0
 52 53  2  0
 52 54  1  0
 54 55  1  0
 55 56  1  0
 56 57  1  0
 57 58  1  0
 58 59  1  0
 59 60  1  0
 60 61  2  3
 60 62  1  0
 55 63  1  0
 63 64  2  0
 63 65  1  0
 65 66  1  0
 66 67  1  0
 67 68  1  0
 68 69  1  0
 69 70  1  0
 69 71  2  0
 66 72  1  0
 72 73  2  0
 72 74  1  0
 74 75  1  0
 75 76  1  0
 76 77  1  0
 77 78  1  0
 78 79  1  0
 75 80  1  0
 80 81  1  0
 81 82  1  0
 82 83  1  0
 75 84  1  0
 84 85  2  0
 84 86  1  0
 86 87  1  0
 87 88  1  0
 88 89  1  0
 89 90  1  0
 90 91  1  0
 91 92  1  0
 92 93  2  3
 92 94  1  0
 87 95  1  0
 95 96  2  0
 95 97  1  0
 97 98  1  0
 98 99  1  0
 99100  1  0
100101  1  0
101102  1  0
102103  1  0
103104  2  3
103105  1  0
 98106  1  0
106107  2  0
106108  1  0
108109  1  0
109110  1  0
110111  1  0
111112  1  0
112113  1  0
113114  1  0
114115  2  3
114116  1  0
109117  1  0
117118  2  0
117119  1  0
119120  1  0
120121  1  0
121122  1  0
122123  2  0
123124  1  0
124125  1  0
125126  2  0
126127  1  0
127128  2  0
128129  1  0
129130  2  0
120131  1  0
131132  2  0
131133  1  0
133134  1  0
134135  1  0
135136  1  0
136137  1  0
137138  1  0
138139  1  0
139140  2  3
139141  1  0
134142  1  0
142143  2  0
142144  1  0
144145  1  0
145146  1  0
146147  1  0
147148  1  0
148149  2  0
148150  1  0
145151  1  0
151152  2  0
151153  1  0
153154  1  0
154155  1  0
155156  1  0
156157  1  0
157158  1  0
158159  1  0
159160  1  0
160161  1  0
154162  1  0
154163  1  1
163164  2  0
163165  1  0
165166  1  0
166167  1  0
167168  1  0
168169  1  0
169170  1  0
169171  2  0
166172  1  0
172173  2  0
172174  1  0
174175  1  0
175176  1  0
176177  1  0
177178  1  0
178179  1  0
179180  1  0
180181  2  3
180182  1  0
175183  1  0
183184  2  0
183185  1  0
130122  1  0
130125  1  0
 14 79  2  0
 83161  2  0
  1186  1  0
  1187  1  0
  2188  1  0
  2189  1  0
  3190  1  0
  3191  1  0
  6192  1  0
  8193  1  0
  8194  1  0
  9195  1  0
  9196  1  0
 10197  1  0
 10198  1  0
 11199  1  0
 11200  1  0
 12201  1  0
 12202  1  0
 13203  1  0
 13204  1  0
 14205  1  0
 15206  1  0
 15207  1  0
 15208  1  0
 18209  1  0
 19210  1  1
 20211  1  0
 20212  1  0
 21213  1  0
 21214  1  0
 22215  1  0
 22216  1  0
 23217  1  0
 25218  1  0
 25219  1  0
 26220  1  0
 26221  1  0
 29222  1  0
 30223  1  1
 31224  1  0
 31225  1  0
 32226  1  0
 32227  1  0
 34228  1  0
 34229  1  0
 38230  1  0
 39231  1  1
 40232  1  0
 40233  1  0
 40234  1  0
 43235  1  0
 44236  1  1
 45237  1  0
 45238  1  0
 46239  1  0
 46240  1  0
 47241  1  0
 47242  1  0
 48243  1  0
 50244  1  0
 50245  1  0
 51246  1  0
 51247  1  0
 54248  1  0
 55249  1  1
 56250  1  0
 56251  1  0
 57252  1  0
 57253  1  0
 58254  1  0
 58255  1  0
 59256  1  0
 61257  1  0
 61258  1  0
 62259  1  0
 62260  1  0
 65261  1  0
 66262  1  1
 67263  1  0
 67264  1  0
 68265  1  0
 68266  1  0
 70267  1  0
 70268  1  0
 74269  1  0
 76270  1  0
 76271  1  0
 77272  1  0
 77273  1  0
 78274  1  0
 78275  1  0
 79276  1  0
 80277  1  0
 80278  1  0
 81279  1  0
 81280  1  0
 82281  1  0
 82282  1  0
 83283  1  0
 86284  1  0
 87285  1  6
 88286  1  0
 88287  1  0
 89288  1  0
 89289  1  0
 90290  1  0
 90291  1  0
 91292  1  0
 93293  1  0
 93294  1  0
 94295  1  0
 94296  1  0
 97297  1  0
 98298  1  6
 99299  1  0
 99300  1  0
100301  1  0
100302  1  0
101303  1  0
101304  1  0
102305  1  0
104306  1  0
104307  1  0
105308  1  0
105309  1  0
108310  1  0
109311  1  6
110312  1  0
110313  1  0
111314  1  0
111315  1  0
112316  1  0
112317  1  0
113318  1  0
115319  1  0
115320  1  0
116321  1  0
116322  1  0
119323  1  0
120324  1  6
121325  1  0
121326  1  0
123327  1  0
124328  1  0
126329  1  0
127330  1  0
128331  1  0
129332  1  0
133333  1  0
134334  1  6
135335  1  0
135336  1  0
136337  1  0
136338  1  0
137339  1  0
137340  1  0
138341  1  0
140342  1  0
140343  1  0
141344  1  0
141345  1  0
144346  1  0
145347  1  6
146348  1  0
146349  1  0
147350  1  0
147351  1  0
153352  1  0
155353  1  0
155354  1  0
156355  1  0
156356  1  0
157357  1  0
157358  1  0
158359  1  0
158360  1  0
159361  1  0
159362  1  0
160363  1  0
160364  1  0
161365  1  0
162366  1  0
162367  1  0
162368  1  0
165369  1  0
166370  1  1
167371  1  0
167372  1  0
168373  1  0
168374  1  0
170375  1  0
170376  1  0
174377  1  0
175378  1  6
176379  1  0
176380  1  0
177381  1  0
177382  1  0
178383  1  0
178384  1  0
179385  1  0
181386  1  0
181387  1  0
182388  1  0
182389  1  0
M  CHG  8  25   1  50   1  61   1  93   1 104   1 115   1 140   1 150  -1
M  CHG  2 181   1 185  -1
M  END
