
     RDKit          2D

298302  0  0  0  0  0  0  0  0999 V2000
   31.2694   -4.9256    0.0000 N   0  0  0  0  0  0  0  0  0  0  0  0
   29.9110   -5.5618    0.0000 C   0  0  0  0  0  0  0  0  0  0  0  0
   28.6809   -4.7034    0.0000 C   0  0  0  0  0  0  0  0  0  0  0  0
   27.3224   -5.3395    0.0000 O   0  0  0  0  0  0  0  0  0  0  0  0
   26.0923   -4.4811    0.0000 C   0  0  0  0  0  0  0  0  0  0  0  0
   24.7339   -5.1172    0.0000 C   0  0  0  0  0  0  0  0  0  0  0  0
   23.5038   -4.2589    0.0000 O   0  0  0  0  0  0  0  0  0  0  0  0
   22.1453   -4.8950    0.0000 C   0  0  0  0  0  0  0  0  0  0  0  0
   20.9152   -4.0366    0.0000 C   0  0  0  0  0  0  0  0  0  0  0  0
   21.0435   -2.5421    0.0000 O   0  0  0  0  0  0  0  0  0  0  0  0
   19.5568   -4.6727    0.0000 N   0  0  0  0  0  0  0  0  0  0  0  0
   18.3267   -3.8143    0.0000 C   0  0  0  0  0  0  0  0  0  0  0  0
   17.6949   -5.1748    0.0000 C   0  0  0  0  0  0  0  0  0  0  0  0
   18.5573   -6.4022    0.0000 C   0  0  0  0  0  0  0  0  0  0  0  0
   20.0571   -6.4259    0.0000 C   0  0  0  0  0  0  0  0  0  0  0  0
   20.4979   -7.8597    0.0000 N   0  0  0  0  0  0  0  0  0  0  0  0
   19.2706   -8.7220    0.0000 C   0  0  0  0  0  0  0  0  0  0  0  0
   19.0902  -10.2111    0.0000 C   0  0  0  0  0  0  0  0  0  0  0  0
   17.7104  -10.7994    0.0000 C   0  0  0  0  0  0  0  0  0  0  0  0
   16.5110   -9.8987    0.0000 C   0  0  0  0  0  0  0  0  0  0  0  0
   16.6914   -8.4095    0.0000 C   0  0  0  0  0  0  0  0  0  0  0  0
   18.0712   -7.8212    0.0000 C   0  0  0  0  0  0  0  0  0  0  0  0
   17.4643   -2.5870    0.0000 C   0  0  0  0  0  0  0  0  0  0  0  0
   15.9702   -2.7201    0.0000 O   0  0  0  0  0  0  0  0  0  0  0  0
   18.0960   -1.2265    0.0000 N   0  0  0  0  0  0  0  0  0  0  0  0
   19.5680   -0.9379    0.0000 C   0  0  0  0  0  0  0  0  0  0  0  0
   19.7484    0.5512    0.0000 C   0  0  0  0  0  0  0  0  0  0  0  0
   18.3879    1.1829    0.0000 C   0  0  0  0  0  0  0  0  0  0  0  0
   17.3667    0.0842    0.0000 C   0  0  0  0  0  0  0  0  0  0  0  0
   16.3808    1.2147    0.0000 C   0  0  0  0  0  0  0  0  0  0  0  0
   16.8669    2.6338    0.0000 O   0  0  0  0  0  0  0  0  0  0  0  0
   14.9088    0.9261    0.0000 N   0  0  0  0  0  0  0  0  0  0  0  0
   13.9229    2.0566    0.0000 C   0  0  0  0  0  0  0  0  0  0  0  0
   15.2074    2.8312    0.0000 C   0  0  0  0  0  0  0  0  0  0  0  0
   15.1788    4.3310    0.0000 C   0  0  0  0  0  0  0  0  0  0  0  0
   16.4633    5.1056    0.0000 C   0  0  0  0  0  0  0  0  0  0  0  0
   16.4347    6.6053    0.0000 O   0  0  0  0  0  0  0  0  0  0  0  0
   17.7764    4.3805    0.0000 O   0  0  0  0  0  0  0  0  0  0  0  0
   12.6098    2.7817    0.0000 C   0  0  0  0  0  0  0  0  0  0  0  0
   12.7642    4.2737    0.0000 O   0  0  0  0  0  0  0  0  0  0  0  0
   11.3253    2.0071    0.0000 N   0  0  0  0  0  0  0  0  0  0  0  0
   10.0122    2.7322    0.0000 C   0  0  0  0  0  0  0  0  0  0  0  0
    9.8913    1.2370    0.0000 C   0  0  0  0  0  0  0  0  0  0  0  0
    9.3351   -0.1560    0.0000 C   0  0  0  0  0  0  0  0  0  0  0  0
    8.3930   -1.3233    0.0000 C   0  0  0  0  0  0  0  0  0  0  0  0
    7.1487   -2.1610    0.0000 C   0  0  0  0  0  0  0  0  0  0  0  0
   11.2132    3.6308    0.0000 C   0  0  0  0  0  0  0  0  0  0  0  0
    9.6870    4.1965    0.0000 C   0  0  0  0  0  0  0  0  0  0  0  0
   11.0865    4.7363    0.0000 O   0  0  0  0  0  0  0  0  0  0  0  0
    8.9446    5.4999    0.0000 N   0  0  0  0  0  0  0  0  0  0  0  0
    7.8511    6.5266    0.0000 C   0  0  0  0  0  0  0  0  0  0  0  0
    7.8973    8.0259    0.0000 C   0  0  0  0  0  0  0  0  0  0  0  0
    9.2954    8.5692    0.0000 C   0  0  0  0  0  0  0  0  0  0  0  0
    7.4279    9.4506    0.0000 C   0  0  0  0  0  0  0  0  0  0  0  0
    8.4270   10.5694    0.0000 C   0  0  0  0  0  0  0  0  0  0  0  0
    6.5035    7.1853    0.0000 C   0  0  0  0  0  0  0  0  0  0  0  0
    6.7762    8.6603    0.0000 O   0  0  0  0  0  0  0  0  0  0  0  0
    5.0216    7.4176    0.0000 N   0  0  0  0  0  0  0  0  0  0  0  0
    3.5370    7.2028    0.0000 C   0  0  0  0  0  0  0  0  0  0  0  0
    2.3936    8.1737    0.0000 C   0  0  0  0  0  0  0  0  0  0  0  0
    2.6628    9.6493    0.0000 C   0  0  0  0  0  0  0  0  0  0  0  0
    1.5194   10.6202    0.0000 C   0  0  0  0  0  0  0  0  0  0  0  0
    3.4204   10.9439    0.0000 C   0  0  0  0  0  0  0  0  0  0  0  0
    2.1818    6.5599    0.0000 C   0  0  0  0  0  0  0  0  0  0  0  0
    1.3441    7.8042    0.0000 O   0  0  0  0  0  0  0  0  0  0  0  0
    1.0762    5.5461    0.0000 N   0  0  0  0  0  0  0  0  0  0  0  0
    0.3186    4.2515    0.0000 C   0  0  0  0  0  0  0  0  0  0  0  0
   -1.1534    3.9629    0.0000 C   0  0  0  0  0  0  0  0  0  0  0  0
   -2.1393    5.0934    0.0000 C   0  0  0  0  0  0  0  0  0  0  0  0
   -3.6112    4.8048    0.0000 O   0  0  0  0  0  0  0  0  0  0  0  0
   -1.6532    6.5124    0.0000 O   0  0  0  0  0  0  0  0  0  0  0  0
   -0.0237    2.7911    0.0000 C   0  0  0  0  0  0  0  0  0  0  0  0
   -1.5189    2.9119    0.0000 O   0  0  0  0  0  0  0  0  0  0  0  0
    0.0796    1.2946    0.0000 N   0  0  0  0  0  0  0  0  0  0  0  0
    0.6194   -0.1049    0.0000 C   0  0  0  0  0  0  0  0  0  0  0  0
    1.5477   -1.2831    0.0000 C   0  0  0  0  0  0  0  0  0  0  0  0
    2.7821   -2.1353    0.0000 C   0  0  0  0  0  0  0  0  0  0  0  0
    4.2128   -2.5859    0.0000 C   0  0  0  0  0  0  0  0  0  0  0  0
    5.7128   -2.5947    0.0000 C   0  0  0  0  0  0  0  0  0  0  0  0
   -0.8783   -0.0213    0.0000 C   0  0  0  0  0  0  0  0  0  0  0  0
   -0.0727   -1.4357    0.0000 C   0  0  0  0  0  0  0  0  0  0  0  0
    0.4037   -2.8580    0.0000 O   0  0  0  0  0  0  0  0  0  0  0  0
   -1.5713   -1.5016    0.0000 N   0  0  0  0  0  0  0  0  0  0  0  0
   -2.2634   -2.8324    0.0000 C   0  0  0  0  0  0  0  0  0  0  0  0
   -2.4587   -4.3196    0.0000 C   0  0  0  0  0  0  0  0  0  0  0  0
   -1.2683   -5.2323    0.0000 C   0  0  0  0  0  0  0  0  0  0  0  0
   -1.3070   -6.7318    0.0000 C   0  0  0  0  0  0  0  0  0  0  0  0
    0.1071   -7.2320    0.0000 N   0  0  0  0  0  0  0  0  0  0  0  0
    1.0198   -6.0417    0.0000 C   0  0  0  0  0  0  0  0  0  0  0  0
    0.1698   -4.8058    0.0000 N   0  0  0  0  0  0  0  0  0  0  0  0
   -3.7620   -2.8984    0.0000 C   0  0  0  0  0  0  0  0  0  0  0  0
   -4.6112   -4.1349    0.0000 O   0  0  0  0  0  0  0  0  0  0  0  0
   -4.5684   -1.6336    0.0000 N   0  0  0  0  0  0  0  0  0  0  0  0
   -6.0669   -1.6996    0.0000 C   0  0  0  0  0  0  0  0  0  0  0  0
   -7.4525   -2.2741    0.0000 C   0  0  0  0  0  0  0  0  0  0  0  0
   -7.6478   -3.7613    0.0000 C   0  0  0  0  0  0  0  0  0  0  0  0
   -6.8734   -0.4348    0.0000 C   0  0  0  0  0  0  0  0  0  0  0  0
   -6.1812    0.8960    0.0000 O   0  0  0  0  0  0  0  0  0  0  0  0
   -8.3719   -0.5007    0.0000 N   0  0  0  0  0  0  0  0  0  0  0  0
   -9.1783    0.7640    0.0000 C   0  0  0  0  0  0  0  0  0  0  0  0
   -9.5035    2.2284    0.0000 C   0  0  0  0  0  0  0  0  0  0  0  0
  -10.9342    2.6789    0.0000 C   0  0  0  0  0  0  0  0  0  0  0  0
  -11.2594    4.1432    0.0000 C   0  0  0  0  0  0  0  0  0  0  0  0
  -12.6902    4.5938    0.0000 N   0  0  0  0  0  0  0  0  0  0  0  0
  -13.0154    6.0581    0.0000 C   0  0  0  0  0  0  0  0  0  0  0  0
  -14.4461    6.5086    0.0000 N   0  0  0  0  0  0  0  0  0  0  0  0
  -11.9098    7.0719    0.0000 N   0  0  0  0  0  0  0  0  0  0  0  0
  -10.6769    0.6981    0.0000 C   0  0  0  0  0  0  0  0  0  0  0  0
  -11.3690   -0.6327    0.0000 O   0  0  0  0  0  0  0  0  0  0  0  0
  -11.4833    1.9629    0.0000 N   0  0  0  0  0  0  0  0  0  0  0  0
  -12.9818    1.8969    0.0000 C   0  0  0  0  0  0  0  0  0  0  0  0
  -14.4126    2.3474    0.0000 C   0  0  0  0  0  0  0  0  0  0  0  0
  -14.7378    3.8117    0.0000 C   0  0  0  0  0  0  0  0  0  0  0  0
  -16.1685    4.2623    0.0000 C   0  0  0  0  0  0  0  0  0  0  0  0
  -16.4937    5.7266    0.0000 N   0  0  0  0  0  0  0  0  0  0  0  0
  -17.9244    6.1771    0.0000 C   0  0  0  0  0  0  0  0  0  0  0  0
  -18.2496    7.6415    0.0000 N   0  0  0  0  0  0  0  0  0  0  0  0
  -19.0300    5.1633    0.0000 N   0  0  0  0  0  0  0  0  0  0  0  0
  -13.6740    0.5661    0.0000 C   0  0  0  0  0  0  0  0  0  0  0  0
  -12.8675   -0.6987    0.0000 O   0  0  0  0  0  0  0  0  0  0  0  0
  -15.1725    0.5001    0.0000 N   0  0  0  0  0  0  0  0  0  0  0  0
  -15.8646   -0.8306    0.0000 C   0  0  0  0  0  0  0  0  0  0  0  0
  -16.0599   -2.3179    0.0000 C   0  0  0  0  0  0  0  0  0  0  0  0
  -17.3651   -3.0570    0.0000 C   0  0  0  0  0  0  0  0  0  0  0  0
  -17.3632   -0.8966    0.0000 C   0  0  0  0  0  0  0  0  0  0  0  0
  -18.1696    0.3682    0.0000 O   0  0  0  0  0  0  0  0  0  0  0  0
  -18.0553   -2.2274    0.0000 N   0  0  0  0  0  0  0  0  0  0  0  0
  -19.5539   -2.2934    0.0000 C   0  0  0  0  0  0  0  0  0  0  0  0
  -20.9846   -1.8428    0.0000 C   0  0  0  0  0  0  0  0  0  0  0  0
  -21.3098   -0.3785    0.0000 C   0  0  0  0  0  0  0  0  0  0  0  0
  -22.7406    0.0720    0.0000 S   0  0  0  0  0  0  0  0  0  0  0  0
  -23.0657    1.5364    0.0000 C   0  0  0  0  0  0  0  0  0  0  0  0
  -20.2460   -3.6241    0.0000 C   0  0  0  0  0  0  0  0  0  0  0  0
  -19.4396   -4.8889    0.0000 O   0  0  0  0  0  0  0  0  0  0  0  0
  -21.7446   -3.6901    0.0000 N   0  0  0  0  0  0  0  0  0  0  0  0
  -22.4367   -5.0209    0.0000 C   0  0  0  0  0  0  0  0  0  0  0  0
  -22.6319   -6.5081    0.0000 C   0  0  0  0  0  0  0  0  0  0  0  0
  -24.0175   -7.0827    0.0000 C   0  0  0  0  0  0  0  0  0  0  0  0
  -24.2128   -8.5699    0.0000 C   0  0  0  0  0  0  0  0  0  0  0  0
  -25.5984   -9.1444    0.0000 N   0  0  0  0  0  0  0  0  0  0  0  0
  -25.7936  -10.6317    0.0000 C   0  0  0  0  0  0  0  0  0  0  0  0
  -27.1793  -11.2062    0.0000 N   0  0  0  0  0  0  0  0  0  0  0  0
  -24.6033  -11.5444    0.0000 N   0  0  0  0  0  0  0  0  0  0  0  0
  -23.9352   -5.0869    0.0000 C   0  0  0  0  0  0  0  0  0  0  0  0
  -24.7844   -6.3233    0.0000 O   0  0  0  0  0  0  0  0  0  0  0  0
  -24.7417   -3.8221    0.0000 O   0  0  0  0  0  0  0  0  0  0  0  0
   32.4995   -5.7840    0.0000 H   0  0  0  0  0  0  0  0  0  0  0  0
   31.3977   -3.4311    0.0000 H   0  0  0  0  0  0  0  0  0  0  0  0
   30.7733   -6.7891    0.0000 H   0  0  0  0  0  0  0  0  0  0  0  0
   28.8520   -6.6241    0.0000 H   0  0  0  0  0  0  0  0  0  0  0  0
   29.7398   -3.6410    0.0000 H   0  0  0  0  0  0  0  0  0  0  0  0
   27.9746   -3.3801    0.0000 H   0  0  0  0  0  0  0  0  0  0  0  0
   27.0139   -3.2976    0.0000 H   0  0  0  0  0  0  0  0  0  0  0  0
   25.2300   -3.2538    0.0000 H   0  0  0  0  0  0  0  0  0  0  0  0
   25.5962   -6.3446    0.0000 H   0  0  0  0  0  0  0  0  0  0  0  0
   23.8123   -6.3008    0.0000 H   0  0  0  0  0  0  0  0  0  0  0  0
   22.8516   -6.2183    0.0000 H   0  0  0  0  0  0  0  0  0  0  0  0
   21.4482   -5.4414    0.0000 H   0  0  0  0  0  0  0  0  0  0  0  0
   19.6828   -5.4599    0.0000 H   0  0  0  0  0  0  0  0  0  0  0  0
   19.5072   -2.8890    0.0000 H   0  0  0  0  0  0  0  0  0  0  0  0
   16.6360   -6.2372    0.0000 H   0  0  0  0  0  0  0  0  0  0  0  0
   16.4648   -4.3164    0.0000 H   0  0  0  0  0  0  0  0  0  0  0  0
   20.4545   -5.7349    0.0000 H   0  0  0  0  0  0  0  0  0  0  0  0
   21.9170   -8.3457    0.0000 H   0  0  0  0  0  0  0  0  0  0  0  0
   20.2896  -11.1119    0.0000 H   0  0  0  0  0  0  0  0  0  0  0  0
   17.5300  -12.2886    0.0000 H   0  0  0  0  0  0  0  0  0  0  0  0
   15.1312  -10.4870    0.0000 H   0  0  0  0  0  0  0  0  0  0  0  0
   15.4920   -7.5088    0.0000 H   0  0  0  0  0  0  0  0  0  0  0  0
   19.8823   -2.4046    0.0000 H   0  0  0  0  0  0  0  0  0  0  0  0
   21.0678   -0.9617    0.0000 H   0  0  0  0  0  0  0  0  0  0  0  0
   21.2105    0.2161    0.0000 H   0  0  0  0  0  0  0  0  0  0  0  0
   20.2345    1.9702    0.0000 H   0  0  0  0  0  0  0  0  0  0  0  0
   19.1584    2.4699    0.0000 H   0  0  0  0  0  0  0  0  0  0  0  0
   17.3073    2.2232    0.0000 H   0  0  0  0  0  0  0  0  0  0  0  0
   16.1394   -0.7781    0.0000 H   0  0  0  0  0  0  0  0  0  0  0  0
   14.4228   -0.4929    0.0000 H   0  0  0  0  0  0  0  0  0  0  0  0
   12.9808    0.8894    0.0000 H   0  0  0  0  0  0  0  0  0  0  0  0
   16.6332    3.2971    0.0000 H   0  0  0  0  0  0  0  0  0  0  0  0
   16.0698    1.6039    0.0000 H   0  0  0  0  0  0  0  0  0  0  0  0
   14.6390    5.7305    0.0000 H   0  0  0  0  0  0  0  0  0  0  0  0
   13.7068    4.0424    0.0000 H   0  0  0  0  0  0  0  0  0  0  0  0
   11.7160    0.5588    0.0000 H   0  0  0  0  0  0  0  0  0  0  0  0
   11.3840    1.3850    0.0000 H   0  0  0  0  0  0  0  0  0  0  0  0
   10.9324    0.1571    0.0000 H   0  0  0  0  0  0  0  0  0  0  0  0
   10.8051   -0.4546    0.0000 H   0  0  0  0  0  0  0  0  0  0  0  0
   10.1698   -1.4024    0.0000 H   0  0  0  0  0  0  0  0  0  0  0  0
    9.7875   -1.8760    0.0000 H   0  0  0  0  0  0  0  0  0  0  0  0
    8.6448   -2.8020    0.0000 H   0  0  0  0  0  0  0  0  0  0  0  0
    7.7916   -3.5162    0.0000 H   0  0  0  0  0  0  0  0  0  0  0  0
   12.6939    3.3913    0.0000 H   0  0  0  0  0  0  0  0  0  0  0  0
   11.8753    4.9768    0.0000 H   0  0  0  0  0  0  0  0  0  0  0  0
   10.4006    4.8916    0.0000 H   0  0  0  0  0  0  0  0  0  0  0  0
   10.1229    6.4283    0.0000 H   0  0  0  0  0  0  0  0  0  0  0  0
    9.2964    6.9280    0.0000 H   0  0  0  0  0  0  0  0  0  0  0  0
    6.4049    8.1766    0.0000 H   0  0  0  0  0  0  0  0  0  0  0  0
    9.4682   10.2261    0.0000 H   0  0  0  0  0  0  0  0  0  0  0  0
   10.7033    8.9504    0.0000 H   0  0  0  0  0  0  0  0  0  0  0  0
    9.8583    7.3787    0.0000 H   0  0  0  0  0  0  0  0  0  0  0  0
    6.4996   10.6288    0.0000 H   0  0  0  0  0  0  0  0  0  0  0  0
    6.0297    8.9073    0.0000 H   0  0  0  0  0  0  0  0  0  0  0  0
    7.9576   11.9941    0.0000 H   0  0  0  0  0  0  0  0  0  0  0  0
    9.7485   11.2790    0.0000 H   0  0  0  0  0  0  0  0  0  0  0  0
    9.6128    9.6508    0.0000 H   0  0  0  0  0  0  0  0  0  0  0  0
    5.0304    8.9176    0.0000 H   0  0  0  0  0  0  0  0  0  0  0  0
    4.1244    8.5830    0.0000 H   0  0  0  0  0  0  0  0  0  0  0  0
    0.9341    8.5196    0.0000 H   0  0  0  0  0  0  0  0  0  0  0  0
    1.3453    7.1008    0.0000 H   0  0  0  0  0  0  0  0  0  0  0  0
    4.1223    9.3034    0.0000 H   0  0  0  0  0  0  0  0  0  0  0  0
    1.6066   12.1177    0.0000 H   0  0  0  0  0  0  0  0  0  0  0  0
    0.1129   11.1415    0.0000 H   0  0  0  0  0  0  0  0  0  0  0  0
    0.6096    9.4276    0.0000 H   0  0  0  0  0  0  0  0  0  0  0  0
    2.8424   12.3281    0.0000 H   0  0  0  0  0  0  0  0  0  0  0  0
    4.5751   11.9014    0.0000 H   0  0  0  0  0  0  0  0  0  0  0  0
    4.5638    9.9730    0.0000 H   0  0  0  0  0  0  0  0  0  0  0  0
   -0.0910    6.4882    0.0000 H   0  0  0  0  0  0  0  0  0  0  0  0
   -0.5498    5.4745    0.0000 H   0  0  0  0  0  0  0  0  0  0  0  0
   -2.4379    3.1882    0.0000 H   0  0  0  0  0  0  0  0  0  0  0  0
   -0.9682    2.4743    0.0000 H   0  0  0  0  0  0  0  0  0  0  0  0
   -1.3847    0.9694    0.0000 H   0  0  0  0  0  0  0  0  0  0  0  0
    1.2786   -2.7588    0.0000 H   0  0  0  0  0  0  0  0  0  0  0  0
    0.2227   -1.9862    0.0000 H   0  0  0  0  0  0  0  0  0  0  0  0
    2.7770   -3.6353    0.0000 H   0  0  0  0  0  0  0  0  0  0  0  0
    1.7232   -3.1978    0.0000 H   0  0  0  0  0  0  0  0  0  0  0  0
    4.8217   -3.9567    0.0000 H   0  0  0  0  0  0  0  0  0  0  0  0
    3.3576   -3.8181    0.0000 H   0  0  0  0  0  0  0  0  0  0  0  0
    5.9277   -4.0792    0.0000 H   0  0  0  0  0  0  0  0  0  0  0  0
   -1.9788   -1.0406    0.0000 H   0  0  0  0  0  0  0  0  0  0  0  0
   -2.1748    0.7331    0.0000 H   0  0  0  0  0  0  0  0  0  0  0  0
   -0.8995    1.4785    0.0000 H   0  0  0  0  0  0  0  0  0  0  0  0
   -2.5259   -0.3446    0.0000 H   0  0  0  0  0  0  0  0  0  0  0  0
   -0.8327   -3.2829    0.0000 H   0  0  0  0  0  0  0  0  0  0  0  0
   -3.1508   -5.6504    0.0000 H   0  0  0  0  0  0  0  0  0  0  0  0
   -3.9337   -4.0469    0.0000 H   0  0  0  0  0  0  0  0  0  0  0  0
   -2.5429   -7.5819    0.0000 H   0  0  0  0  0  0  0  0  0  0  0  0
    0.5337   -8.6701    0.0000 H   0  0  0  0  0  0  0  0  0  0  0  0
    2.5193   -6.0804    0.0000 H   0  0  0  0  0  0  0  0  0  0  0  0
   -3.8763   -0.3028    0.0000 H   0  0  0  0  0  0  0  0  0  0  0  0
   -5.5657   -3.1133    0.0000 H   0  0  0  0  0  0  0  0  0  0  0  0
   -8.9319   -2.5222    0.0000 H   0  0  0  0  0  0  0  0  0  0  0  0
   -8.1224   -0.9320    0.0000 H   0  0  0  0  0  0  0  0  0  0  0  0
   -9.0334   -4.3359    0.0000 H   0  0  0  0  0  0  0  0  0  0  0  0
   -7.3226   -5.2257    0.0000 H   0  0  0  0  0  0  0  0  0  0  0  0
   -6.1524   -3.8785    0.0000 H   0  0  0  0  0  0  0  0  0  0  0  0
   -9.2211   -1.7372    0.0000 H   0  0  0  0  0  0  0  0  0  0  0  0
   -7.7927    1.3386    0.0000 H   0  0  0  0  0  0  0  0  0  0  0  0
   -9.1284    3.6807    0.0000 H   0  0  0  0  0  0  0  0  0  0  0  0
   -8.0050    2.2943    0.0000 H   0  0  0  0  0  0  0  0  0  0  0  0
  -12.4297    2.7961    0.0000 H   0  0  0  0  0  0  0  0  0  0  0  0
  -11.8050    1.4575    0.0000 H   0  0  0  0  0  0  0  0  0  0  0  0
  -11.0642    5.6305    0.0000 H   0  0  0  0  0  0  0  0  0  0  0  0
   -9.7801    4.3914    0.0000 H   0  0  0  0  0  0  0  0  0  0  0  0
  -13.6639    3.4528    0.0000 H   0  0  0  0  0  0  0  0  0  0  0  0
  -14.7713    7.9729    0.0000 H   0  0  0  0  0  0  0  0  0  0  0  0
  -15.5517    5.4948    0.0000 H   0  0  0  0  0  0  0  0  0  0  0  0
  -12.2350    8.5362    0.0000 H   0  0  0  0  0  0  0  0  0  0  0  0
  -10.4791    6.6213    0.0000 H   0  0  0  0  0  0  0  0  0  0  0  0
  -11.1337    3.4216    0.0000 H   0  0  0  0  0  0  0  0  0  0  0  0
  -12.7866    3.3841    0.0000 H   0  0  0  0  0  0  0  0  0  0  0  0
  -15.9111    2.2814    0.0000 H   0  0  0  0  0  0  0  0  0  0  0  0
  -14.9619    0.9516    0.0000 H   0  0  0  0  0  0  0  0  0  0  0  0
  -14.5425    5.2990    0.0000 H   0  0  0  0  0  0  0  0  0  0  0  0
  -13.2678    3.5131    0.0000 H   0  0  0  0  0  0  0  0  0  0  0  0
  -17.6670    4.1963    0.0000 H   0  0  0  0  0  0  0  0  0  0  0  0
  -16.5436    2.8099    0.0000 H   0  0  0  0  0  0  0  0  0  0  0  0
  -15.3881    6.7404    0.0000 H   0  0  0  0  0  0  0  0  0  0  0  0
  -19.6804    8.0920    0.0000 H   0  0  0  0  0  0  0  0  0  0  0  0
  -17.1441    8.6552    0.0000 H   0  0  0  0  0  0  0  0  0  0  0  0
  -20.4607    5.6139    0.0000 H   0  0  0  0  0  0  0  0  0  0  0  0
  -18.7048    3.6990    0.0000 H   0  0  0  0  0  0  0  0  0  0  0  0
  -16.1271    1.6572    0.0000 H   0  0  0  0  0  0  0  0  0  0  0  0
  -14.4339   -1.2812    0.0000 H   0  0  0  0  0  0  0  0  0  0  0  0
  -15.7347   -3.7822    0.0000 H   0  0  0  0  0  0  0  0  0  0  0  0
  -14.5613   -2.2519    0.0000 H   0  0  0  0  0  0  0  0  0  0  0  0
  -17.6407   -4.3796    0.0000 H   0  0  0  0  0  0  0  0  0  0  0  0
  -18.9440   -2.9584    0.0000 H   0  0  0  0  0  0  0  0  0  0  0  0
  -18.4202   -1.7523    0.0000 H   0  0  0  0  0  0  0  0  0  0  0  0
  -17.4091   -3.5810    0.0000 H   0  0  0  0  0  0  0  0  0  0  0  0
  -19.1788   -0.8410    0.0000 H   0  0  0  0  0  0  0  0  0  0  0  0
  -22.4800   -1.7256    0.0000 H   0  0  0  0  0  0  0  0  0  0  0  0
  -21.5339   -3.2386    0.0000 H   0  0  0  0  0  0  0  0  0  0  0  0
  -20.9347    1.0738    0.0000 H   0  0  0  0  0  0  0  0  0  0  0  0
  -19.8305   -0.1303    0.0000 H   0  0  0  0  0  0  0  0  0  0  0  0
  -24.4965    1.9869    0.0000 H   0  0  0  0  0  0  0  0  0  0  0  0
  -22.8705    3.0236    0.0000 H   0  0  0  0  0  0  0  0  0  0  0  0
  -21.5864    1.7845    0.0000 H   0  0  0  0  0  0  0  0  0  0  0  0
  -22.6991   -2.5330    0.0000 H   0  0  0  0  0  0  0  0  0  0  0  0
  -21.0060   -5.4714    0.0000 H   0  0  0  0  0  0  0  0  0  0  0  0
  -22.1307   -7.9219    0.0000 H   0  0  0  0  0  0  0  0  0  0  0  0
  -21.1334   -6.4421    0.0000 H   0  0  0  0  0  0  0  0  0  0  0  0
  -25.5161   -7.1486    0.0000 H   0  0  0  0  0  0  0  0  0  0  0  0
  -24.8460   -5.8322    0.0000 H   0  0  0  0  0  0  0  0  0  0  0  0
  -23.8876  -10.0342    0.0000 H   0  0  0  0  0  0  0  0  0  0  0  0
  -22.7174   -8.6871    0.0000 H   0  0  0  0  0  0  0  0  0  0  0  0
  -26.7888   -8.2317    0.0000 H   0  0  0  0  0  0  0  0  0  0  0  0
  -27.3745  -12.6934    0.0000 H   0  0  0  0  0  0  0  0  0  0  0  0
  -28.3696  -10.2935    0.0000 H   0  0  0  0  0  0  0  0  0  0  0  0
  -24.7985  -13.0316    0.0000 H   0  0  0  0  0  0  0  0  0  0  0  0
  -23.2177  -10.9698    0.0000 H   0  0  0  0  0  0  0  0  0  0  0  0
  1  2  1  0
  2  3  1  0
  3  4  1  0
  4  5  1  0
  5  6  1  0
  6  7  1  0
  7  8  1  0
  8  9  1  0
  9 10  2  0
  9 11  1  0
 11 12  1  0
 12 13  1  0
 13 14  1  0
 14 15  2  0
 15 16  1  0
 16 17  1  0
 17 18  2  0
 18 19  1  0
 19 20  2  0
 20 21  1  0
 21 22  2  0
 12 23  1  0
 23 24  2  0
 23 25  1  0
 25 26  1  0
 26 27  1  0
 27 28  1  0
 28 29  1  0
 29 30  1  0
 30 31  2  0
 30 32  1  0
 32 33  1  0
 33 34  1  0
 34 35  1  0
 35 36  1  0
 36 37  2  0
 36 38  1  0
 33 39  1  0
 39 40  2  0
 39 41  1  0
 42 41  1  1
 42 43  1  0
 43 44  1  0
 44 45  1  0
 45 46  1  0
 42 47  1  0
 42 48  1  0
 48 49  2  0
 48 50  1  0
 50 51  1  0
 51 52  1  0
 52 53  1  0
 52 54  1  0
 54 55  1  0
 51 56  1  0
 56 57  2  0
 56 58  1  0
 58 59  1  0
 59 60  1  0
 60 61  1  0
 61 62  1  0
 61 63  1  0
 59 64  1  0
 64 65  2  0
 64 66  1  0
 66 67  1  0
 67 68  1  0
 68 69  1  0
 69 70  2  0
 69 71  1  0
 67 72  1  0
 72 73  2  0
 72 74  1  0
 74 75  1  0
 75 76  1  0
 76 77  1  0
 77 78  1  0
 78 79  1  0
 75 80  1  0
 75 81  1  1
 81 82  2  0
 81 83  1  0
 83 84  1  0
 84 85  1  0
 85 86  1  0
 86 87  2  0
 87 88  1  0
 88 89  1  0
 89 90  2  0
 84 91  1  0
 91 92  2  0
 91 93  1  0
 93 94  1  0
 94 95  1  0
 95 96  1  0
 94 97  1  0
 97 98  2  0
 97 99  1  0
 99100  1  0
100101  1  0
101102  1  0
102103  1  0
103104  1  0
104105  1  0
105106  2  3
105107  1  0
100108  1  0
108109  2  0
108110  1  0
110111  1  0
111112  1  0
112113  1  0
113114  1  0
114115  1  0
115116  1  0
116117  2  3
116118  1  0
111119  1  0
119120  2  0
119121  1  0
121122  1  0
122123  1  0
123124  1  0
122125  1  0
125126  2  0
125127  1  0
127128  1  0
128129  1  0
129130  1  0
130131  1  0
131132  1  0
128133  1  0
133134  2  0
133135  1  0
135136  1  0
136137  1  0
137138  1  0
138139  1  0
139140  1  0
140141  1  0
141142  2  3
141143  1  0
136144  1  0
144145  2  0
144146  1  0
 22 14  1  0
 29 25  1  0
 90 86  1  0
 22 17  1  0
 46 79  2  0
  1147  1  0
  1148  1  0
  2149  1  0
  2150  1  0
  3151  1  0
  3152  1  0
  5153  1  0
  5154  1  0
  6155  1  0
  6156  1  0
  8157  1  0
  8158  1  0
 11159  1  0
 12160  1  1
 13161  1  0
 13162  1  0
 15163  1  0
 16164  1  0
 18165  1  0
 19166  1  0
 20167  1  0
 21168  1  0
 26169  1  0
 26170  1  0
 27171  1  0
 27172  1  0
 28173  1  0
 28174  1  0
 29175  1  0
 32176  1  0
 33177  1  6
 34178  1  0
 34179  1  0
 35180  1  0
 35181  1  0
 41182  1  0
 43183  1  0
 43184  1  0
 44185  1  0
 44186  1  0
 45187  1  0
 45188  1  0
 46189  1  0
 47190  1  0
 47191  1  0
 47192  1  0
 50193  1  0
 51194  1  6
 52195  1  1
 53196  1  0
 53197  1  0
 53198  1  0
 54199  1  0
 54200  1  0
 55201  1  0
 55202  1  0
 55203  1  0
 58204  1  0
 59205  1  6
 60206  1  0
 60207  1  0
 61208  1  0
 62209  1  0
 62210  1  0
 62211  1  0
 63212  1  0
 63213  1  0
 63214  1  0
 66215  1  0
 67216  1  6
 68217  1  0
 68218  1  0
 74219  1  0
 76220  1  0
 76221  1  0
 77222  1  0
 77223  1  0
 78224  1  0
 78225  1  0
 79226  1  0
 80227  1  0
 80228  1  0
 80229  1  0
 83230  1  0
 84231  1  1
 85232  1  0
 85233  1  0
 87234  1  0
 88235  1  0
 89236  1  0
 93237  1  0
 94238  1  1
 95239  1  0
 95240  1  0
 96241  1  0
 96242  1  0
 96243  1  0
 99244  1  0
100245  1  6
101246  1  0
101247  1  0
102248  1  0
102249  1  0
103250  1  0
103251  1  0
104252  1  0
106253  1  0
106254  1  0
107255  1  0
107256  1  0
110257  1  0
111258  1  6
112259  1  0
112260  1  0
113261  1  0
113262  1  0
114263  1  0
114264  1  0
115265  1  0
117266  1  0
117267  1  0
118268  1  0
118269  1  0
121270  1  0
122271  1  1
123272  1  0
123273  1  0
124274  1  0
124275  1  0
124276  1  0
127277  1  0
128278  1  6
129279  1  0
129280  1  0
130281  1  0
130282  1  0
132283  1  0
132284  1  0
132285  1  0
135286  1  0
136287  1  1
137288  1  0
137289  1  0
138290  1  0
138291  1  0
139292  1  0
139293  1  0
140294  1  0
142295  1  0
142296  1  0
143297  1  0
143298  1  0
M  CHG  6  38  -1  71  -1 106   1 117   1 142   1 146  -1
M  END
