
     RDKit          2D

339345  0  0  0  0  0  0  0  0999 V2000
  -29.1571   -2.5777    0.0000 C   0  0  0  0  0  0  0  0  0  0  0  0
  -30.2908   -3.5598    0.0000 N   0  0  0  0  0  0  0  0  0  0  0  0
  -31.7083   -3.0691    0.0000 C   0  0  0  0  0  0  0  0  0  0  0  0
  -31.9920   -1.5962    0.0000 C   0  0  0  0  0  0  0  0  0  0  0  0
  -33.4094   -1.1054    0.0000 C   0  0  0  0  0  0  0  0  0  0  0  0
  -34.5432   -2.0876    0.0000 C   0  0  0  0  0  0  0  0  0  0  0  0
  -34.2595   -3.5605    0.0000 C   0  0  0  0  0  0  0  0  0  0  0  0
  -32.8420   -4.0513    0.0000 C   0  0  0  0  0  0  0  0  0  0  0  0
  -35.5726   -4.2855    0.0000 C   0  0  0  0  0  0  0  0  0  0  0  0
  -36.6679   -3.2606    0.0000 O   0  0  0  0  0  0  0  0  0  0  0  0
  -36.0317   -1.9023    0.0000 C   0  0  0  0  0  0  0  0  0  0  0  0
  -36.7567   -0.5891    0.0000 O   0  0  0  0  0  0  0  0  0  0  0  0
  -36.9544   -4.8692    0.0000 C   0  0  0  0  0  0  0  0  0  0  0  0
  -37.1397   -6.3578    0.0000 C   0  0  0  0  0  0  0  0  0  0  0  0
  -38.5214   -6.9415    0.0000 C   0  0  0  0  0  0  0  0  0  0  0  0
  -39.7179   -6.0368    0.0000 C   0  0  0  0  0  0  0  0  0  0  0  0
  -39.5325   -4.5483    0.0000 C   0  0  0  0  0  0  0  0  0  0  0  0
  -38.1508   -3.9645    0.0000 C   0  0  0  0  0  0  0  0  0  0  0  0
  -41.0996   -6.6205    0.0000 O   0  0  0  0  0  0  0  0  0  0  0  0
  -35.9433   -7.2625    0.0000 O   0  0  0  0  0  0  0  0  0  0  0  0
  -34.5615   -6.6787    0.0000 C   0  0  0  0  0  0  0  0  0  0  0  0
  -34.3762   -5.1902    0.0000 C   0  0  0  0  0  0  0  0  0  0  0  0
  -33.0809   -5.3011    0.0000 C   0  0  0  0  0  0  0  0  0  0  0  0
  -32.4428   -5.7837    0.0000 C   0  0  0  0  0  0  0  0  0  0  0  0
  -32.5417   -6.5775    0.0000 C   0  0  0  0  0  0  0  0  0  0  0  0
  -33.2786   -6.8889    0.0000 C   0  0  0  0  0  0  0  0  0  0  0  0
  -30.7869   -7.9045    0.0000 O   0  0  0  0  0  0  0  0  0  0  0  0
  -29.4408   -1.1047    0.0000 S   0  0  0  0  0  0  0  0  0  0  0  0
  -27.7397   -3.0684    0.0000 N   0  0  0  0  0  0  0  0  0  0  0  0
  -26.6059   -2.0862    0.0000 C   0  0  0  0  0  0  0  0  0  0  0  0
  -25.1885   -2.5770    0.0000 C   0  0  0  0  0  0  0  0  0  0  0  0
  -24.0547   -1.5948    0.0000 C   0  0  0  0  0  0  0  0  0  0  0  0
  -24.3385   -0.1219    0.0000 O   0  0  0  0  0  0  0  0  0  0  0  0
  -22.6373   -2.0856    0.0000 N   0  0  0  0  0  0  0  0  0  0  0  0
  -21.5036   -1.1034    0.0000 C   0  0  0  0  0  0  0  0  0  0  0  0
  -20.7741    0.2073    0.0000 C   0  0  0  0  0  0  0  0  0  0  0  0
  -19.2743    0.2309    0.0000 C   0  0  0  0  0  0  0  0  0  0  0  0
  -18.5449    1.5416    0.0000 C   0  0  0  0  0  0  0  0  0  0  0  0
  -17.8569   -0.2598    0.0000 C   0  0  0  0  0  0  0  0  0  0  0  0
  -20.0861   -1.5942    0.0000 C   0  0  0  0  0  0  0  0  0  0  0  0
  -19.8024   -3.0671    0.0000 O   0  0  0  0  0  0  0  0  0  0  0  0
  -18.9524   -0.6120    0.0000 N   0  0  0  0  0  0  0  0  0  0  0  0
  -17.5349   -1.1027    0.0000 C   0  0  0  0  0  0  0  0  0  0  0  0
  -16.3708   -2.0487    0.0000 C   0  0  0  0  0  0  0  0  0  0  0  0
  -16.6080   -3.5298    0.0000 C   0  0  0  0  0  0  0  0  0  0  0  0
  -15.4439   -4.4758    0.0000 C   0  0  0  0  0  0  0  0  0  0  0  0
  -15.6810   -5.9569    0.0000 O   0  0  0  0  0  0  0  0  0  0  0  0
  -14.0426   -3.9406    0.0000 O   0  0  0  0  0  0  0  0  0  0  0  0
  -16.4012   -0.1206    0.0000 C   0  0  0  0  0  0  0  0  0  0  0  0
  -16.5033    1.3759    0.0000 O   0  0  0  0  0  0  0  0  0  0  0  0
  -14.9838   -0.6113    0.0000 N   0  0  0  0  0  0  0  0  0  0  0  0
  -13.8500    0.3708    0.0000 C   0  0  0  0  0  0  0  0  0  0  0  0
  -13.1206    1.6815    0.0000 C   0  0  0  0  0  0  0  0  0  0  0  0
  -11.6208    1.7052    0.0000 C   0  0  0  0  0  0  0  0  0  0  0  0
  -10.8914    3.0159    0.0000 N   0  0  0  0  0  0  0  0  0  0  0  0
  -11.0580    1.1406    0.0000 O   0  0  0  0  0  0  0  0  0  0  0  0
  -12.4326   -0.1199    0.0000 C   0  0  0  0  0  0  0  0  0  0  0  0
  -12.1489   -1.5928    0.0000 O   0  0  0  0  0  0  0  0  0  0  0  0
  -11.2989    0.8623    0.0000 N   0  0  0  0  0  0  0  0  0  0  0  0
   -9.8814    0.3715    0.0000 C   0  0  0  0  0  0  0  0  0  0  0  0
   -8.7173   -0.5744    0.0000 C   0  0  0  0  0  0  0  0  0  0  0  0
   -7.3160   -0.0393    0.0000 C   0  0  0  0  0  0  0  0  0  0  0  0
   -6.1519   -0.9852    0.0000 C   0  0  0  0  0  0  0  0  0  0  0  0
   -4.7506   -0.4500    0.0000 N   0  0  0  0  0  0  0  0  0  0  0  0
   -3.5865   -1.3960    0.0000 C   0  0  0  0  0  0  0  0  0  0  0  0
   -2.0865   -1.3987    0.0000 N   0  0  0  0  0  0  0  0  0  0  0  0
   -3.8237   -2.8771    0.0000 N   0  0  0  0  0  0  0  0  0  0  0  0
   -8.7477    1.3537    0.0000 C   0  0  0  0  0  0  0  0  0  0  0  0
   -8.8497    2.8502    0.0000 O   0  0  0  0  0  0  0  0  0  0  0  0
   -7.3302    0.8629    0.0000 N   0  0  0  0  0  0  0  0  0  0  0  0
   -6.1965    1.8451    0.0000 C   0  0  0  0  0  0  0  0  0  0  0  0
   -5.4671    3.1558    0.0000 C   0  0  0  0  0  0  0  0  0  0  0  0
   -3.9673    3.1794    0.0000 C   0  0  0  0  0  0  0  0  0  0  0  0
   -3.2378    4.4901    0.0000 C   0  0  0  0  0  0  0  0  0  0  0  0
   -1.7883    4.8760    0.0000 N   0  0  0  0  0  0  0  0  0  0  0  0
   -4.2967    5.5525    0.0000 O   0  0  0  0  0  0  0  0  0  0  0  0
   -4.7791    1.3543    0.0000 C   0  0  0  0  0  0  0  0  0  0  0  0
   -4.3179   -0.0730    0.0000 O   0  0  0  0  0  0  0  0  0  0  0  0
   -3.6453    2.3365    0.0000 N   0  0  0  0  0  0  0  0  0  0  0  0
   -2.2279    1.8458    0.0000 C   0  0  0  0  0  0  0  0  0  0  0  0
   -1.6579    0.4583    0.0000 C   0  0  0  0  0  0  0  0  0  0  0  0
   -0.7043   -0.6996    0.0000 C   0  0  0  0  0  0  0  0  0  0  0  0
    0.5482   -1.5249    0.0000 C   0  0  0  0  0  0  0  0  0  0  0  0
    1.9883   -1.9444    0.0000 C   0  0  0  0  0  0  0  0  0  0  0  0
   -3.3834    0.8893    0.0000 C   0  0  0  0  0  0  0  0  0  0  0  0
   -2.3635    3.3396    0.0000 C   0  0  0  0  0  0  0  0  0  0  0  0
   -3.7297    3.9590    0.0000 O   0  0  0  0  0  0  0  0  0  0  0  0
   -2.0528    4.8071    0.0000 N   0  0  0  0  0  0  0  0  0  0  0  0
   -1.3234    6.1178    0.0000 C   0  0  0  0  0  0  0  0  0  0  0  0
   -1.8235    7.5320    0.0000 C   0  0  0  0  0  0  0  0  0  0  0  0
   -3.2982    7.8060    0.0000 C   0  0  0  0  0  0  0  0  0  0  0  0
   -3.7983    9.2202    0.0000 C   0  0  0  0  0  0  0  0  0  0  0  0
   -5.2731    9.4942    0.0000 C   0  0  0  0  0  0  0  0  0  0  0  0
   -5.7732   10.9084    0.0000 N   0  0  0  0  0  0  0  0  0  0  0  0
   -0.2400    7.1552    0.0000 C   0  0  0  0  0  0  0  0  0  0  0  0
   -1.1044    8.3811    0.0000 O   0  0  0  0  0  0  0  0  0  0  0  0
    1.1010    7.8273    0.0000 N   0  0  0  0  0  0  0  0  0  0  0  0
    2.5805    8.0742    0.0000 C   0  0  0  0  0  0  0  0  0  0  0  0
    3.3744    9.3469    0.0000 C   0  0  0  0  0  0  0  0  0  0  0  0
    2.6691   10.6708    0.0000 C   0  0  0  0  0  0  0  0  0  0  0  0
    3.4630   11.9435    0.0000 C   0  0  0  0  0  0  0  0  0  0  0  0
    1.5536   11.6736    0.0000 C   0  0  0  0  0  0  0  0  0  0  0  0
    4.0671    7.8740    0.0000 C   0  0  0  0  0  0  0  0  0  0  0  0
    4.4866    9.3142    0.0000 O   0  0  0  0  0  0  0  0  0  0  0  0
    5.4287    7.2446    0.0000 N   0  0  0  0  0  0  0  0  0  0  0  0
    6.5442    6.2418    0.0000 C   0  0  0  0  0  0  0  0  0  0  0  0
    8.0342    6.4146    0.0000 C   0  0  0  0  0  0  0  0  0  0  0  0
    8.6295    7.7915    0.0000 C   0  0  0  0  0  0  0  0  0  0  0  0
   10.1195    7.9643    0.0000 C   0  0  0  0  0  0  0  0  0  0  0  0
   10.7148    9.3411    0.0000 O   0  0  0  0  0  0  0  0  0  0  0  0
   11.0142    6.7603    0.0000 O   0  0  0  0  0  0  0  0  0  0  0  0
    7.3146    4.9547    0.0000 C   0  0  0  0  0  0  0  0  0  0  0  0
    8.7021    5.5247    0.0000 O   0  0  0  0  0  0  0  0  0  0  0  0
    7.6713    3.4978    0.0000 N   0  0  0  0  0  0  0  0  0  0  0  0
    7.5828    2.0004    0.0000 C   0  0  0  0  0  0  0  0  0  0  0  0
    7.0569    0.5956    0.0000 C   0  0  0  0  0  0  0  0  0  0  0  0
    6.1403   -0.5917    0.0000 C   0  0  0  0  0  0  0  0  0  0  0  0
    4.9144   -1.4561    0.0000 C   0  0  0  0  0  0  0  0  0  0  0  0
    3.4882   -1.9208    0.0000 C   0  0  0  0  0  0  0  0  0  0  0  0
    8.9841    2.5356    0.0000 C   0  0  0  0  0  0  0  0  0  0  0  0
    8.6470    0.9432    0.0000 C   0  0  0  0  0  0  0  0  0  0  0  0
    8.6258   -0.5566    0.0000 O   0  0  0  0  0  0  0  0  0  0  0  0
   10.0946    1.3362    0.0000 N   0  0  0  0  0  0  0  0  0  0  0  0
   11.1587    0.2791    0.0000 C   0  0  0  0  0  0  0  0  0  0  0  0
   11.7971   -1.0783    0.0000 C   0  0  0  0  0  0  0  0  0  0  0  0
   12.6063    0.6721    0.0000 C   0  0  0  0  0  0  0  0  0  0  0  0
   12.9898    2.1222    0.0000 O   0  0  0  0  0  0  0  0  0  0  0  0
   13.6705   -0.3851    0.0000 N   0  0  0  0  0  0  0  0  0  0  0  0
   15.1181    0.0079    0.0000 C   0  0  0  0  0  0  0  0  0  0  0  0
   16.3440    0.8723    0.0000 C   0  0  0  0  0  0  0  0  0  0  0  0
   17.7055    0.2429    0.0000 C   0  0  0  0  0  0  0  0  0  0  0  0
   18.9314    1.1073    0.0000 N   0  0  0  0  0  0  0  0  0  0  0  0
   18.1986   -1.1738    0.0000 O   0  0  0  0  0  0  0  0  0  0  0  0
   16.1822   -1.0493    0.0000 C   0  0  0  0  0  0  0  0  0  0  0  0
   15.7988   -2.4994    0.0000 O   0  0  0  0  0  0  0  0  0  0  0  0
   17.6298   -0.6563    0.0000 N   0  0  0  0  0  0  0  0  0  0  0  0
   18.6940   -1.7134    0.0000 C   0  0  0  0  0  0  0  0  0  0  0  0
   19.3324   -3.0708    0.0000 C   0  0  0  0  0  0  0  0  0  0  0  0
   20.8271   -3.1966    0.0000 C   0  0  0  0  0  0  0  0  0  0  0  0
   21.4655   -4.5540    0.0000 C   0  0  0  0  0  0  0  0  0  0  0  0
   22.9602   -4.6798    0.0000 N   0  0  0  0  0  0  0  0  0  0  0  0
   23.5986   -6.0371    0.0000 C   0  0  0  0  0  0  0  0  0  0  0  0
   25.0975   -5.9798    0.0000 N   0  0  0  0  0  0  0  0  0  0  0  0
   22.7423   -7.2687    0.0000 N   0  0  0  0  0  0  0  0  0  0  0  0
   20.1416   -1.3204    0.0000 C   0  0  0  0  0  0  0  0  0  0  0  0
   20.6989    0.0722    0.0000 O   0  0  0  0  0  0  0  0  0  0  0  0
   21.2057   -2.3776    0.0000 N   0  0  0  0  0  0  0  0  0  0  0  0
   22.6533   -1.9846    0.0000 C   0  0  0  0  0  0  0  0  0  0  0  0
   23.8792   -1.1202    0.0000 C   0  0  0  0  0  0  0  0  0  0  0  0
   25.2408   -1.7496    0.0000 C   0  0  0  0  0  0  0  0  0  0  0  0
   26.5503   -1.0181    0.0000 C   0  0  0  0  0  0  0  0  0  0  0  0
   27.6507   -2.0375    0.0000 N   0  0  0  0  0  0  0  0  0  0  0  0
   27.0212   -3.3990    0.0000 C   0  0  0  0  0  0  0  0  0  0  0  0
   25.5318   -3.2211    0.0000 N   0  0  0  0  0  0  0  0  0  0  0  0
   23.7175   -3.0417    0.0000 C   0  0  0  0  0  0  0  0  0  0  0  0
   23.6963   -4.5416    0.0000 O   0  0  0  0  0  0  0  0  0  0  0  0
   25.1651   -2.6487    0.0000 N   0  0  0  0  0  0  0  0  0  0  0  0
   26.2292   -3.7059    0.0000 C   0  0  0  0  0  0  0  0  0  0  0  0
   26.8676   -5.0633    0.0000 C   0  0  0  0  0  0  0  0  0  0  0  0
   28.3623   -5.1891    0.0000 C   0  0  0  0  0  0  0  0  0  0  0  0
   29.0008   -6.5465    0.0000 C   0  0  0  0  0  0  0  0  0  0  0  0
   29.8100   -4.7961    0.0000 C   0  0  0  0  0  0  0  0  0  0  0  0
   27.6768   -3.3129    0.0000 C   0  0  0  0  0  0  0  0  0  0  0  0
   28.3998   -1.9986    0.0000 O   0  0  0  0  0  0  0  0  0  0  0  0
   28.7410   -4.3701    0.0000 N   0  0  0  0  0  0  0  0  0  0  0  0
   30.1886   -3.9771    0.0000 C   0  0  0  0  0  0  0  0  0  0  0  0
   31.4145   -3.1127    0.0000 C   0  0  0  0  0  0  0  0  0  0  0  0
   32.7760   -3.7421    0.0000 C   0  0  0  0  0  0  0  0  0  0  0  0
   34.0019   -2.8777    0.0000 C   0  0  0  0  0  0  0  0  0  0  0  0
   33.8402   -4.7993    0.0000 C   0  0  0  0  0  0  0  0  0  0  0  0
   31.2527   -5.0342    0.0000 C   0  0  0  0  0  0  0  0  0  0  0  0
   32.7374   -4.8206    0.0000 O   0  0  0  0  0  0  0  0  0  0  0  0
   31.2316   -6.5341    0.0000 O   0  0  0  0  0  0  0  0  0  0  0  0
  -29.8297   -4.9872    0.0000 H   0  0  0  0  0  0  0  0  0  0  0  0
  -30.8583   -0.6140    0.0000 H   0  0  0  0  0  0  0  0  0  0  0  0
  -33.6932    0.3675    0.0000 H   0  0  0  0  0  0  0  0  0  0  0  0
  -32.2103   -5.4117    0.0000 H   0  0  0  0  0  0  0  0  0  0  0  0
  -38.7068   -8.4300    0.0000 H   0  0  0  0  0  0  0  0  0  0  0  0
  -40.7290   -3.6435    0.0000 H   0  0  0  0  0  0  0  0  0  0  0  0
  -37.9655   -2.4760    0.0000 H   0  0  0  0  0  0  0  0  0  0  0  0
  -42.2960   -5.7158    0.0000 H   0  0  0  0  0  0  0  0  0  0  0  0
  -32.8091   -3.1180    0.0000 H   0  0  0  0  0  0  0  0  0  0  0  0
  -30.3554   -5.1003    0.0000 H   0  0  0  0  0  0  0  0  0  0  0  0
  -33.5504   -9.0720    0.0000 H   0  0  0  0  0  0  0  0  0  0  0  0
  -30.9722   -9.3930    0.0000 H   0  0  0  0  0  0  0  0  0  0  0  0
  -27.4559   -4.5413    0.0000 H   0  0  0  0  0  0  0  0  0  0  0  0
  -25.8765   -0.7755    0.0000 H   0  0  0  0  0  0  0  0  0  0  0  0
  -27.7700   -1.1403    0.0000 H   0  0  0  0  0  0  0  0  0  0  0  0
  -24.0244   -3.5230    0.0000 H   0  0  0  0  0  0  0  0  0  0  0  0
  -25.9179   -3.8877    0.0000 H   0  0  0  0  0  0  0  0  0  0  0  0
  -22.3536   -3.5585    0.0000 H   0  0  0  0  0  0  0  0  0  0  0  0
  -22.6677   -0.1575    0.0000 H   0  0  0  0  0  0  0  0  0  0  0  0
  -20.7193    1.7063    0.0000 H   0  0  0  0  0  0  0  0  0  0  0  0
  -22.1916    0.6980    0.0000 H   0  0  0  0  0  0  0  0  0  0  0  0
  -18.7882   -1.1881    0.0000 H   0  0  0  0  0  0  0  0  0  0  0  0
  -17.0954    1.9275    0.0000 H   0  0  0  0  0  0  0  0  0  0  0  0
  -18.3077    3.0228    0.0000 H   0  0  0  0  0  0  0  0  0  0  0  0
  -19.8919    2.2015    0.0000 H   0  0  0  0  0  0  0  0  0  0  0  0
  -17.2252   -1.6203    0.0000 H   0  0  0  0  0  0  0  0  0  0  0  0
  -16.4652    0.2998    0.0000 H   0  0  0  0  0  0  0  0  0  0  0  0
  -17.4409    1.1814    0.0000 H   0  0  0  0  0  0  0  0  0  0  0  0
  -18.8713    0.8858    0.0000 H   0  0  0  0  0  0  0  0  0  0  0  0
  -18.4187   -2.3148    0.0000 H   0  0  0  0  0  0  0  0  0  0  0  0
  -15.0238   -2.7086    0.0000 H   0  0  0  0  0  0  0  0  0  0  0  0
  -15.2200   -1.0866    0.0000 H   0  0  0  0  0  0  0  0  0  0  0  0
  -17.3374   -4.8405    0.0000 H   0  0  0  0  0  0  0  0  0  0  0  0
  -18.0747   -3.2155    0.0000 H   0  0  0  0  0  0  0  0  0  0  0  0
  -12.8785   -4.8866    0.0000 H   0  0  0  0  0  0  0  0  0  0  0  0
  -14.5226   -2.0387    0.0000 H   0  0  0  0  0  0  0  0  0  0  0  0
  -15.0142    1.3168    0.0000 H   0  0  0  0  0  0  0  0  0  0  0  0
  -12.8834    3.1627    0.0000 H   0  0  0  0  0  0  0  0  0  0  0  0
  -14.5380    2.1723    0.0000 H   0  0  0  0  0  0  0  0  0  0  0  0
   -9.4056    3.2222    0.0000 H   0  0  0  0  0  0  0  0  0  0  0  0
  -11.6617    4.3029    0.0000 H   0  0  0  0  0  0  0  0  0  0  0  0
  -11.2177    2.3601    0.0000 H   0  0  0  0  0  0  0  0  0  0  0  0
  -10.6108   -0.9392    0.0000 H   0  0  0  0  0  0  0  0  0  0  0  0
   -8.1095   -1.9458    0.0000 H   0  0  0  0  0  0  0  0  0  0  0  0
   -9.8510   -1.5566    0.0000 H   0  0  0  0  0  0  0  0  0  0  0  0
   -6.1823    0.9429    0.0000 H   0  0  0  0  0  0  0  0  0  0  0  0
   -7.3918    1.4588    0.0000 H   0  0  0  0  0  0  0  0  0  0  0  0
   -5.3815   -2.2723    0.0000 H   0  0  0  0  0  0  0  0  0  0  0  0
   -7.1574   -2.0983    0.0000 H   0  0  0  0  0  0  0  0  0  0  0  0
   -3.9983    0.8477    0.0000 H   0  0  0  0  0  0  0  0  0  0  0  0
   -1.1961   -2.0496    0.0000 H   0  0  0  0  0  0  0  0  0  0  0  0
   -2.6595   -3.8231    0.0000 H   0  0  0  0  0  0  0  0  0  0  0  0
   -5.2249   -3.4123    0.0000 H   0  0  0  0  0  0  0  0  0  0  0  0
   -6.6985   -0.4976    0.0000 H   0  0  0  0  0  0  0  0  0  0  0  0
   -7.3606    2.7910    0.0000 H   0  0  0  0  0  0  0  0  0  0  0  0
   -5.2299    4.6369    0.0000 H   0  0  0  0  0  0  0  0  0  0  0  0
   -6.8845    3.6465    0.0000 H   0  0  0  0  0  0  0  0  0  0  0  0
   -2.4732    3.0462    0.0000 H   0  0  0  0  0  0  0  0  0  0  0  0
   -3.4811    1.7604    0.0000 H   0  0  0  0  0  0  0  0  0  0  0  0
   -0.8022    5.6076    0.0000 H   0  0  0  0  0  0  0  0  0  0  0  0
   -0.9676    3.2267    0.0000 H   0  0  0  0  0  0  0  0  0  0  0  0
   -3.7474    3.8330    0.0000 H   0  0  0  0  0  0  0  0  0  0  0  0
   -3.1521    0.3263    0.0000 H   0  0  0  0  0  0  0  0  0  0  0  0
   -2.1522   -0.9580    0.0000 H   0  0  0  0  0  0  0  0  0  0  0  0
   -1.9149   -1.5854    0.0000 H   0  0  0  0  0  0  0  0  0  0  0  0
   -0.9415   -2.1807    0.0000 H   0  0  0  0  0  0  0  0  0  0  0  0
   -0.4875   -2.6100    0.0000 H   0  0  0  0  0  0  0  0  0  0  0  0
    0.7581   -3.0102    0.0000 H   0  0  0  0  0  0  0  0  0  0  0  0
    1.7882   -3.4310    0.0000 H   0  0  0  0  0  0  0  0  0  0  0  0
   -3.0249   -0.7376    0.0000 H   0  0  0  0  0  0  0  0  0  0  0  0
   -4.6884    0.2378    0.0000 H   0  0  0  0  0  0  0  0  0  0  0  0
   -4.4854    1.6126    0.0000 H   0  0  0  0  0  0  0  0  0  0  0  0
   -3.3830    5.5003    0.0000 H   0  0  0  0  0  0  0  0  0  0  0  0
   -2.8223    6.0605    0.0000 H   0  0  0  0  0  0  0  0  0  0  0  0
   -1.6270    9.0190    0.0000 H   0  0  0  0  0  0  0  0  0  0  0  0
   -0.4477    8.1295    0.0000 H   0  0  0  0  0  0  0  0  0  0  0  0
   -4.7366    7.3806    0.0000 H   0  0  0  0  0  0  0  0  0  0  0  0
   -3.6745    6.3539    0.0000 H   0  0  0  0  0  0  0  0  0  0  0  0
   -3.7846   10.7201    0.0000 H   0  0  0  0  0  0  0  0  0  0  0  0
   -2.3599    9.6456    0.0000 H   0  0  0  0  0  0  0  0  0  0  0  0
   -6.7526    9.2473    0.0000 H   0  0  0  0  0  0  0  0  0  0  0  0
   -5.4696    8.0071    0.0000 H   0  0  0  0  0  0  0  0  0  0  0  0
   -7.2479   11.1824    0.0000 H   0  0  0  0  0  0  0  0  0  0  0  0
   -4.7985   12.0485    0.0000 H   0  0  0  0  0  0  0  0  0  0  0  0
    0.6363    9.2535    0.0000 H   0  0  0  0  0  0  0  0  0  0  0  0
    1.6012    9.2103    0.0000 H   0  0  0  0  0  0  0  0  0  0  0  0
    4.6595   10.1205    0.0000 H   0  0  0  0  0  0  0  0  0  0  0  0
    4.6994    8.6438    0.0000 H   0  0  0  0  0  0  0  0  0  0  0  0
    1.3840    9.8972    0.0000 H   0  0  0  0  0  0  0  0  0  0  0  0
    2.9244   13.3434    0.0000 H   0  0  0  0  0  0  0  0  0  0  0  0
    4.6443   12.8679    0.0000 H   0  0  0  0  0  0  0  0  0  0  0  0
    4.6924   11.0841    0.0000 H   0  0  0  0  0  0  0  0  0  0  0  0
    1.6831   13.1680    0.0000 H   0  0  0  0  0  0  0  0  0  0  0  0
    0.1624   12.2344    0.0000 H   0  0  0  0  0  0  0  0  0  0  0  0
    0.7597   10.4009    0.0000 H   0  0  0  0  0  0  0  0  0  0  0  0
    6.2540    8.4971    0.0000 H   0  0  0  0  0  0  0  0  0  0  0  0
    6.8218    7.7159    0.0000 H   0  0  0  0  0  0  0  0  0  0  0  0
    9.4935    6.0675    0.0000 H   0  0  0  0  0  0  0  0  0  0  0  0
    8.3106    4.9403    0.0000 H   0  0  0  0  0  0  0  0  0  0  0  0
    8.7180    9.2888    0.0000 H   0  0  0  0  0  0  0  0  0  0  0  0
    7.2234    8.3139    0.0000 H   0  0  0  0  0  0  0  0  0  0  0  0
   12.5042    6.9332    0.0000 H   0  0  0  0  0  0  0  0  0  0  0  0
    9.1652    3.6334    0.0000 H   0  0  0  0  0  0  0  0  0  0  0  0
    7.7622   -0.7282    0.0000 H   0  0  0  0  0  0  0  0  0  0  0  0
    8.5330    0.3289    0.0000 H   0  0  0  0  0  0  0  0  0  0  0  0
    6.6014   -2.0191    0.0000 H   0  0  0  0  0  0  0  0  0  0  0  0
    7.4722   -1.2817    0.0000 H   0  0  0  0  0  0  0  0  0  0  0  0
    4.7513   -2.9472    0.0000 H   0  0  0  0  0  0  0  0  0  0  0  0
    6.1040   -2.3698    0.0000 H   0  0  0  0  0  0  0  0  0  0  0  0
    3.7351   -3.4003    0.0000 H   0  0  0  0  0  0  0  0  0  0  0  0
   10.3425    1.8994    0.0000 H   0  0  0  0  0  0  0  0  0  0  0  0
    9.9897    3.6486    0.0000 H   0  0  0  0  0  0  0  0  0  0  0  0
    8.5481    3.9708    0.0000 H   0  0  0  0  0  0  0  0  0  0  0  0
   10.6519    2.7288    0.0000 H   0  0  0  0  0  0  0  0  0  0  0  0
    9.9328   -0.5853    0.0000 H   0  0  0  0  0  0  0  0  0  0  0  0
   10.9408   -2.3099    0.0000 H   0  0  0  0  0  0  0  0  0  0  0  0
   12.7245   -2.2573    0.0000 H   0  0  0  0  0  0  0  0  0  0  0  0
   13.1958   -0.5362    0.0000 H   0  0  0  0  0  0  0  0  0  0  0  0
   13.4667   -1.8712    0.0000 H   0  0  0  0  0  0  0  0  0  0  0  0
   14.4797    1.3653    0.0000 H   0  0  0  0  0  0  0  0  0  0  0  0
   17.2003    2.1039    0.0000 H   0  0  0  0  0  0  0  0  0  0  0  0
   15.2798    1.9295    0.0000 H   0  0  0  0  0  0  0  0  0  0  0  0
   20.3595    0.6485    0.0000 H   0  0  0  0  0  0  0  0  0  0  0  0
   18.7957    2.6011    0.0000 H   0  0  0  0  0  0  0  0  0  0  0  0
   18.3528    0.6580    0.0000 H   0  0  0  0  0  0  0  0  0  0  0  0
   17.4681   -2.5778    0.0000 H   0  0  0  0  0  0  0  0  0  0  0  0
   19.2849   -4.5700    0.0000 H   0  0  0  0  0  0  0  0  0  0  0  0
   17.8848   -3.4638    0.0000 H   0  0  0  0  0  0  0  0  0  0  0  0
   22.2747   -2.8036    0.0000 H   0  0  0  0  0  0  0  0  0  0  0  0
   21.4088   -1.8140    0.0000 H   0  0  0  0  0  0  0  0  0  0  0  0
   21.6012   -6.0478    0.0000 H   0  0  0  0  0  0  0  0  0  0  0  0
   20.0766   -5.1205    0.0000 H   0  0  0  0  0  0  0  0  0  0  0  0
   24.0891   -3.6920    0.0000 H   0  0  0  0  0  0  0  0  0  0  0  0
   25.7317   -7.5203    0.0000 H   0  0  0  0  0  0  0  0  0  0  0  0
   23.3807   -8.6261    0.0000 H   0  0  0  0  0  0  0  0  0  0  0  0
   21.2476   -7.1429    0.0000 H   0  0  0  0  0  0  0  0  0  0  0  0
   21.1846   -3.8774    0.0000 H   0  0  0  0  0  0  0  0  0  0  0  0
   22.0149   -0.6272    0.0000 H   0  0  0  0  0  0  0  0  0  0  0  0
   24.7355    0.1114    0.0000 H   0  0  0  0  0  0  0  0  0  0  0  0
   22.8151   -0.0630    0.0000 H   0  0  0  0  0  0  0  0  0  0  0  0
   26.7282    0.4713    0.0000 H   0  0  0  0  0  0  0  0  0  0  0  0
   29.1222   -1.7464    0.0000 H   0  0  0  0  0  0  0  0  0  0  0  0
   28.0479   -4.4926    0.0000 H   0  0  0  0  0  0  0  0  0  0  0  0
   25.8880   -1.3345    0.0000 H   0  0  0  0  0  0  0  0  0  0  0  0
   25.0033   -4.5703    0.0000 H   0  0  0  0  0  0  0  0  0  0  0  0
   26.8202   -6.5625    0.0000 H   0  0  0  0  0  0  0  0  0  0  0  0
   25.3829   -5.2769    0.0000 H   0  0  0  0  0  0  0  0  0  0  0  0
   28.9440   -3.8065    0.0000 H   0  0  0  0  0  0  0  0  0  0  0  0
   30.4206   -7.0302    0.0000 H   0  0  0  0  0  0  0  0  0  0  0  0
   29.1364   -8.0403    0.0000 H   0  0  0  0  0  0  0  0  0  0  0  0
   27.6118   -7.1130    0.0000 H   0  0  0  0  0  0  0  0  0  0  0  0
   30.8741   -5.8533    0.0000 H   0  0  0  0  0  0  0  0  0  0  0  0
   31.0358   -3.9317    0.0000 H   0  0  0  0  0  0  0  0  0  0  0  0
   29.0109   -3.5267    0.0000 H   0  0  0  0  0  0  0  0  0  0  0  0
   28.7198   -5.8699    0.0000 H   0  0  0  0  0  0  0  0  0  0  0  0
   29.7204   -2.5520    0.0000 H   0  0  0  0  0  0  0  0  0  0  0  0
   32.1143   -1.7859    0.0000 H   0  0  0  0  0  0  0  0  0  0  0  0
   30.3503   -2.0555    0.0000 H   0  0  0  0  0  0  0  0  0  0  0  0
   32.4180   -5.1988    0.0000 H   0  0  0  0  0  0  0  0  0  0  0  0
   35.4300   -3.3365    0.0000 H   0  0  0  0  0  0  0  0  0  0  0  0
   34.8582   -1.6462    0.0000 H   0  0  0  0  0  0  0  0  0  0  0  0
   33.0746   -1.6987    0.0000 H   0  0  0  0  0  0  0  0  0  0  0  0
   35.3249   -4.5857    0.0000 H   0  0  0  0  0  0  0  0  0  0  0  0
   34.4786   -6.1566    0.0000 H   0  0  0  0  0  0  0  0  0  0  0  0
   32.6143   -5.6637    0.0000 H   0  0  0  0  0  0  0  0  0  0  0  0
   31.9334   -7.5416    0.0000 H   0  0  0  0  0  0  0  0  0  0  0  0
  1  2  1  0
  2  3  1  0
  3  4  2  0
  4  5  1  0
  5  6  2  0
  6  7  1  0
  7  8  2  0
  7  9  1  0
  9 10  1  0
 10 11  1  0
 11 12  2  0
  9 13  1  0
 13 14  1  0
 14 15  2  0
 15 16  1  0
 16 17  2  0
 17 18  1  0
 16 19  1  0
 14 20  1  0
 20 21  1  0
 21 22  2  0
 22 23  1  0
 23 24  2  0
 24 25  1  0
 25 26  2  0
 25 27  1  0
  1 28  2  0
  1 29  1  0
 29 30  1  0
 30 31  1  0
 31 32  1  0
 32 33  2  0
 32 34  1  0
 34 35  1  0
 35 36  1  0
 36 37  1  0
 37 38  1  0
 37 39  1  0
 35 40  1  0
 40 41  2  0
 40 42  1  0
 42 43  1  0
 43 44  1  0
 44 45  1  0
 45 46  1  0
 46 47  2  0
 46 48  1  0
 43 49  1  0
 49 50  2  0
 49 51  1  0
 51 52  1  0
 52 53  1  0
 53 54  1  0
 54 55  1  0
 54 56  2  0
 52 57  1  0
 57 58  2  0
 57 59  1  0
 59 60  1  0
 60 61  1  0
 61 62  1  0
 62 63  1  0
 63 64  1  0
 64 65  1  0
 65 66  2  3
 65 67  1  0
 60 68  1  0
 68 69  2  0
 68 70  1  0
 70 71  1  0
 71 72  1  0
 72 73  1  0
 73 74  1  0
 74 75  1  0
 74 76  2  0
 71 77  1  0
 77 78  2  0
 77 79  1  0
 80 79  1  6
 80 81  1  0
 81 82  1  0
 82 83  1  0
 83 84  1  0
 80 85  1  0
 80 86  1  0
 86 87  2  0
 86 88  1  0
 88 89  1  0
 89 90  1  0
 90 91  1  0
 91 92  1  0
 92 93  1  0
 93 94  1  0
 89 95  1  0
 95 96  2  0
 95 97  1  0
 97 98  1  0
 98 99  1  0
 99100  1  0
100101  1  0
100102  1  0
 98103  1  0
103104  2  0
103105  1  0
105106  1  0
106107  1  0
107108  1  0
108109  1  0
109110  2  0
109111  1  0
106112  1  0
112113  2  0
112114  1  0
114115  1  0
115116  1  0
116117  1  0
117118  1  0
118119  1  0
115120  1  0
115121  1  6
121122  2  0
121123  1  0
123124  1  0
124125  1  0
124126  1  0
126127  2  0
126128  1  0
128129  1  0
129130  1  0
130131  1  0
131132  1  0
131133  2  0
129134  1  0
134135  2  0
134136  1  0
136137  1  0
137138  1  0
138139  1  0
139140  1  0
140141  1  0
141142  1  0
142143  2  3
142144  1  0
137145  1  0
145146  2  0
145147  1  0
147148  1  0
148149  1  0
149150  1  0
150151  2  0
151152  1  0
152153  1  0
153154  2  0
148155  1  0
155156  2  0
155157  1  0
157158  1  0
158159  1  0
159160  1  0
160161  1  0
160162  1  0
158163  1  0
163164  2  0
163165  1  0
165166  1  0
166167  1  0
167168  1  0
168169  1  0
168170  1  0
166171  1  0
171172  2  0
171173  1  0
  8  3  1  0
154150  1  0
 11  6  1  0
 84119  2  0
 18 13  2  0
 22  9  1  0
 26 21  1  0
  2174  1  0
  4175  1  0
  5176  1  0
  8177  1  0
 15178  1  0
 17179  1  0
 18180  1  0
 19181  1  0
 23182  1  0
 24183  1  0
 26184  1  0
 27185  1  0
 29186  1  0
 30187  1  0
 30188  1  0
 31189  1  0
 31190  1  0
 34191  1  0
 35192  1  1
 36193  1  0
 36194  1  0
 37195  1  0
 38196  1  0
 38197  1  0
 38198  1  0
 39199  1  0
 39200  1  0
 39201  1  0
 42202  1  0
 43203  1  6
 44204  1  0
 44205  1  0
 45206  1  0
 45207  1  0
 48208  1  0
 51209  1  0
 52210  1  1
 53211  1  0
 53212  1  0
 55213  1  0
 55214  1  0
 59215  1  0
 60216  1  6
 61217  1  0
 61218  1  0
 62219  1  0
 62220  1  0
 63221  1  0
 63222  1  0
 64223  1  0
 66224  1  0
 67225  1  0
 67226  1  0
 70227  1  0
 71228  1  1
 72229  1  0
 72230  1  0
 73231  1  0
 73232  1  0
 75233  1  0
 75234  1  0
 79235  1  0
 81236  1  0
 81237  1  0
 82238  1  0
 82239  1  0
 83240  1  0
 83241  1  0
 84242  1  0
 85243  1  0
 85244  1  0
 85245  1  0
 88246  1  0
 89247  1  1
 90248  1  0
 90249  1  0
 91250  1  0
 91251  1  0
 92252  1  0
 92253  1  0
 93254  1  0
 93255  1  0
 94256  1  0
 94257  1  0
 97258  1  0
 98259  1  1
 99260  1  0
 99261  1  0
100262  1  0
101263  1  0
101264  1  0
101265  1  0
102266  1  0
102267  1  0
102268  1  0
105269  1  0
106270  1  1
107271  1  0
107272  1  0
108273  1  0
108274  1  0
111275  1  0
114276  1  0
116277  1  0
116278  1  0
117279  1  0
117280  1  0
118281  1  0
118282  1  0
119283  1  0
120284  1  0
120285  1  0
120286  1  0
123287  1  0
124288  1  6
125289  1  0
125290  1  0
125291  1  0
128292  1  0
129293  1  1
130294  1  0
130295  1  0
132296  1  0
132297  1  0
136298  1  0
137299  1  6
138300  1  0
138301  1  0
139302  1  0
139303  1  0
140304  1  0
140305  1  0
141306  1  0
143307  1  0
144308  1  0
144309  1  0
147310  1  0
148311  1  1
149312  1  0
149313  1  0
151314  1  0
152315  1  0
153316  1  0
157317  1  0
158318  1  6
159319  1  0
159320  1  0
160321  1  0
161322  1  0
161323  1  0
161324  1  0
162325  1  0
162326  1  0
162327  1  0
165328  1  0
166329  1  1
167330  1  0
167331  1  0
168332  1  0
169333  1  0
169334  1  0
169335  1  0
170336  1  0
170337  1  0
170338  1  0
173339  1  0
M  END
