
     RDKit          2D

386392  0  0  0  0  0  0  0  0999 V2000
   35.4979   -1.0636    0.0000 C   0  0  0  0  0  0  0  0  0  0  0  0
   36.8036   -0.3251    0.0000 N   0  0  0  0  0  0  0  0  0  0  0  0
   38.0959   -1.0867    0.0000 C   0  0  0  0  0  0  0  0  0  0  0  0
   38.0826   -2.5866    0.0000 C   0  0  0  0  0  0  0  0  0  0  0  0
   39.3749   -3.3481    0.0000 C   0  0  0  0  0  0  0  0  0  0  0  0
   40.6806   -2.6097    0.0000 C   0  0  0  0  0  0  0  0  0  0  0  0
   40.6939   -1.1098    0.0000 C   0  0  0  0  0  0  0  0  0  0  0  0
   39.4016   -0.3482    0.0000 C   0  0  0  0  0  0  0  0  0  0  0  0
   42.1245   -0.6589    0.0000 C   0  0  0  0  0  0  0  0  0  0  0  0
   42.9954   -1.8802    0.0000 O   0  0  0  0  0  0  0  0  0  0  0  0
   42.1030   -3.0859    0.0000 C   0  0  0  0  0  0  0  0  0  0  0  0
   42.5538   -4.5165    0.0000 O   0  0  0  0  0  0  0  0  0  0  0  0
   43.5945   -0.3601    0.0000 C   0  0  0  0  0  0  0  0  0  0  0  0
   44.0707    1.0623    0.0000 C   0  0  0  0  0  0  0  0  0  0  0  0
   45.5406    1.3611    0.0000 C   0  0  0  0  0  0  0  0  0  0  0  0
   46.5343    0.2375    0.0000 C   0  0  0  0  0  0  0  0  0  0  0  0
   46.0582   -1.1849    0.0000 C   0  0  0  0  0  0  0  0  0  0  0  0
   44.5882   -1.4837    0.0000 C   0  0  0  0  0  0  0  0  0  0  0  0
   48.0043    0.5363    0.0000 O   0  0  0  0  0  0  0  0  0  0  0  0
   43.0769    2.1859    0.0000 O   0  0  0  0  0  0  0  0  0  0  0  0
   41.6070    1.8871    0.0000 C   0  0  0  0  0  0  0  0  0  0  0  0
   41.1308    0.4647    0.0000 C   0  0  0  0  0  0  0  0  0  0  0  0
   39.8831    0.8296    0.0000 C   0  0  0  0  0  0  0  0  0  0  0  0
   39.3531    1.4289    0.0000 C   0  0  0  0  0  0  0  0  0  0  0  0
   39.6070    2.1875    0.0000 C   0  0  0  0  0  0  0  0  0  0  0  0
   40.3910    2.3469    0.0000 C   0  0  0  0  0  0  0  0  0  0  0  0
   38.1495    3.8355    0.0000 O   0  0  0  0  0  0  0  0  0  0  0  0
   35.4846   -2.5635    0.0000 S   0  0  0  0  0  0  0  0  0  0  0  0
   34.2056   -0.3021    0.0000 N   0  0  0  0  0  0  0  0  0  0  0  0
   32.9000   -1.0405    0.0000 C   0  0  0  0  0  0  0  0  0  0  0  0
   31.6076   -0.2790    0.0000 C   0  0  0  0  0  0  0  0  0  0  0  0
   30.3020   -1.0174    0.0000 C   0  0  0  0  0  0  0  0  0  0  0  0
   30.2887   -2.5173    0.0000 O   0  0  0  0  0  0  0  0  0  0  0  0
   29.0097   -0.2559    0.0000 N   0  0  0  0  0  0  0  0  0  0  0  0
   27.7040   -0.9943    0.0000 C   0  0  0  0  0  0  0  0  0  0  0  0
   26.7297   -2.1348    0.0000 C   0  0  0  0  0  0  0  0  0  0  0  0
   26.2041   -3.5397    0.0000 O   0  0  0  0  0  0  0  0  0  0  0  0
   25.2325   -2.0430    0.0000 C   0  0  0  0  0  0  0  0  0  0  0  0
   26.4117   -0.2328    0.0000 C   0  0  0  0  0  0  0  0  0  0  0  0
   26.4250    1.2672    0.0000 O   0  0  0  0  0  0  0  0  0  0  0  0
   25.1060   -0.9712    0.0000 N   0  0  0  0  0  0  0  0  0  0  0  0
   23.8137   -0.2097    0.0000 C   0  0  0  0  0  0  0  0  0  0  0  0
   22.8598    0.9479    0.0000 C   0  0  0  0  0  0  0  0  0  0  0  0
   23.3853    2.3528    0.0000 C   0  0  0  0  0  0  0  0  0  0  0  0
   22.4314    3.5104    0.0000 C   0  0  0  0  0  0  0  0  0  0  0  0
   22.9569    4.9153    0.0000 N   0  0  0  0  0  0  0  0  0  0  0  0
   22.0030    6.0729    0.0000 C   0  0  0  0  0  0  0  0  0  0  0  0
   22.5285    7.4778    0.0000 N   0  0  0  0  0  0  0  0  0  0  0  0
   20.5235    5.8256    0.0000 N   0  0  0  0  0  0  0  0  0  0  0  0
   22.5081   -0.9481    0.0000 C   0  0  0  0  0  0  0  0  0  0  0  0
   22.4947   -2.4481    0.0000 O   0  0  0  0  0  0  0  0  0  0  0  0
   21.2157   -0.1866    0.0000 N   0  0  0  0  0  0  0  0  0  0  0  0
   19.9101   -0.9250    0.0000 C   0  0  0  0  0  0  0  0  0  0  0  0
   18.9357   -2.0655    0.0000 C   0  0  0  0  0  0  0  0  0  0  0  0
   17.4609   -1.7919    0.0000 C   0  0  0  0  0  0  0  0  0  0  0  0
   16.4865   -2.9324    0.0000 C   0  0  0  0  0  0  0  0  0  0  0  0
   14.9894   -2.8406    0.0000 N   0  0  0  0  0  0  0  0  0  0  0  0
   16.9870   -4.3464    0.0000 O   0  0  0  0  0  0  0  0  0  0  0  0
   18.6178   -0.1635    0.0000 C   0  0  0  0  0  0  0  0  0  0  0  0
   18.6311    1.3364    0.0000 O   0  0  0  0  0  0  0  0  0  0  0  0
   17.3121   -0.9019    0.0000 N   0  0  0  0  0  0  0  0  0  0  0  0
   16.0198   -0.1404    0.0000 C   0  0  0  0  0  0  0  0  0  0  0  0
   15.0659    1.0172    0.0000 C   0  0  0  0  0  0  0  0  0  0  0  0
   14.7141   -0.8789    0.0000 C   0  0  0  0  0  0  0  0  0  0  0  0
   14.5712   -1.9630    0.0000 O   0  0  0  0  0  0  0  0  0  0  0  0
   13.4218   -0.1173    0.0000 N   0  0  0  0  0  0  0  0  0  0  0  0
   12.1162   -0.8558    0.0000 C   0  0  0  0  0  0  0  0  0  0  0  0
   11.1418   -1.9962    0.0000 C   0  0  0  0  0  0  0  0  0  0  0  0
    9.6670   -1.7226    0.0000 C   0  0  0  0  0  0  0  0  0  0  0  0
    8.6926   -2.8631    0.0000 C   0  0  0  0  0  0  0  0  0  0  0  0
    7.2178   -2.5895    0.0000 N   0  0  0  0  0  0  0  0  0  0  0  0
    6.2434   -3.7299    0.0000 C   0  0  0  0  0  0  0  0  0  0  0  0
    4.8129   -3.2786    0.0000 N   0  0  0  0  0  0  0  0  0  0  0  0
    6.7439   -5.1440    0.0000 N   0  0  0  0  0  0  0  0  0  0  0  0
   10.8239   -0.0943    0.0000 C   0  0  0  0  0  0  0  0  0  0  0  0
   10.8372    1.4057    0.0000 O   0  0  0  0  0  0  0  0  0  0  0  0
    9.5182   -0.8327    0.0000 N   0  0  0  0  0  0  0  0  0  0  0  0
    8.2259   -0.0712    0.0000 C   0  0  0  0  0  0  0  0  0  0  0  0
    7.2719    1.0864    0.0000 C   0  0  0  0  0  0  0  0  0  0  0  0
    7.7975    2.4914    0.0000 C   0  0  0  0  0  0  0  0  0  0  0  0
    6.8436    3.6489    0.0000 C   0  0  0  0  0  0  0  0  0  0  0  0
    7.3691    5.0539    0.0000 N   0  0  0  0  0  0  0  0  0  0  0  0
    6.4152    6.2115    0.0000 C   0  0  0  0  0  0  0  0  0  0  0  0
    6.9407    7.6164    0.0000 N   0  0  0  0  0  0  0  0  0  0  0  0
    4.9357    5.9641    0.0000 N   0  0  0  0  0  0  0  0  0  0  0  0
    6.9202   -0.8096    0.0000 C   0  0  0  0  0  0  0  0  0  0  0  0
    6.6462   -1.8682    0.0000 O   0  0  0  0  0  0  0  0  0  0  0  0
    5.6279   -0.0481    0.0000 N   0  0  0  0  0  0  0  0  0  0  0  0
    4.3223   -0.7865    0.0000 C   0  0  0  0  0  0  0  0  0  0  0  0
    3.3479   -1.9270    0.0000 C   0  0  0  0  0  0  0  0  0  0  0  0
    1.8731   -1.6534    0.0000 C   0  0  0  0  0  0  0  0  0  0  0  0
    0.8987   -2.7938    0.0000 N   0  0  0  0  0  0  0  0  0  0  0  0
    1.4331   -0.9886    0.0000 O   0  0  0  0  0  0  0  0  0  0  0  0
    3.0299   -0.0250    0.0000 C   0  0  0  0  0  0  0  0  0  0  0  0
    3.0433    1.4750    0.0000 O   0  0  0  0  0  0  0  0  0  0  0  0
    1.7243   -0.7634    0.0000 N   0  0  0  0  0  0  0  0  0  0  0  0
    0.4320   -0.0019    0.0000 C   0  0  0  0  0  0  0  0  0  0  0  0
   -0.5220    1.1557    0.0000 C   0  0  0  0  0  0  0  0  0  0  0  0
   -2.0014    0.9084    0.0000 C   0  0  0  0  0  0  0  0  0  0  0  0
   -2.9554    2.0660    0.0000 C   0  0  0  0  0  0  0  0  0  0  0  0
   -4.4348    1.8186    0.0000 N   0  0  0  0  0  0  0  0  0  0  0  0
   -5.3888    2.9762    0.0000 C   0  0  0  0  0  0  0  0  0  0  0  0
   -6.8271    2.5504    0.0000 N   0  0  0  0  0  0  0  0  0  0  0  0
   -4.8632    4.3811    0.0000 N   0  0  0  0  0  0  0  0  0  0  0  0
   -0.8737   -0.7403    0.0000 C   0  0  0  0  0  0  0  0  0  0  0  0
   -1.0698   -2.2275    0.0000 O   0  0  0  0  0  0  0  0  0  0  0  0
   -2.1660    0.0212    0.0000 N   0  0  0  0  0  0  0  0  0  0  0  0
   -3.4717   -0.7172    0.0000 C   0  0  0  0  0  0  0  0  0  0  0  0
   -4.4460   -1.8577    0.0000 C   0  0  0  0  0  0  0  0  0  0  0  0
   -5.9209   -1.5841    0.0000 C   0  0  0  0  0  0  0  0  0  0  0  0
   -6.8952   -2.7245    0.0000 C   0  0  0  0  0  0  0  0  0  0  0  0
   -8.3701   -2.4510    0.0000 N   0  0  0  0  0  0  0  0  0  0  0  0
   -9.3444   -3.5914    0.0000 C   0  0  0  0  0  0  0  0  0  0  0  0
  -10.7749   -3.1401    0.0000 N   0  0  0  0  0  0  0  0  0  0  0  0
   -8.8439   -5.0055    0.0000 N   0  0  0  0  0  0  0  0  0  0  0  0
   -4.7640    0.0443    0.0000 C   0  0  0  0  0  0  0  0  0  0  0  0
   -5.1140    1.5029    0.0000 O   0  0  0  0  0  0  0  0  0  0  0  0
   -6.0696   -0.6941    0.0000 N   0  0  0  0  0  0  0  0  0  0  0  0
   -7.3620    0.0674    0.0000 C   0  0  0  0  0  0  0  0  0  0  0  0
   -8.3159    1.2250    0.0000 C   0  0  0  0  0  0  0  0  0  0  0  0
   -9.7954    0.9776    0.0000 C   0  0  0  0  0  0  0  0  0  0  0  0
  -10.7493    2.1352    0.0000 C   0  0  0  0  0  0  0  0  0  0  0  0
  -12.2288    1.8879    0.0000 N   0  0  0  0  0  0  0  0  0  0  0  0
  -13.1827    3.0455    0.0000 C   0  0  0  0  0  0  0  0  0  0  0  0
  -14.6210    2.6196    0.0000 N   0  0  0  0  0  0  0  0  0  0  0  0
  -12.6572    4.4504    0.0000 N   0  0  0  0  0  0  0  0  0  0  0  0
   -8.6676   -0.6711    0.0000 C   0  0  0  0  0  0  0  0  0  0  0  0
   -9.0435   -2.1232    0.0000 O   0  0  0  0  0  0  0  0  0  0  0  0
   -9.9599    0.0905    0.0000 N   0  0  0  0  0  0  0  0  0  0  0  0
  -11.2656   -0.6480    0.0000 C   0  0  0  0  0  0  0  0  0  0  0  0
  -12.2399   -1.7884    0.0000 C   0  0  0  0  0  0  0  0  0  0  0  0
  -13.7148   -1.5148    0.0000 C   0  0  0  0  0  0  0  0  0  0  0  0
  -14.6891   -2.6553    0.0000 C   0  0  0  0  0  0  0  0  0  0  0  0
  -16.1640   -2.3817    0.0000 N   0  0  0  0  0  0  0  0  0  0  0  0
  -17.1383   -3.5221    0.0000 C   0  0  0  0  0  0  0  0  0  0  0  0
  -18.5688   -3.0708    0.0000 N   0  0  0  0  0  0  0  0  0  0  0  0
  -16.6378   -4.9362    0.0000 N   0  0  0  0  0  0  0  0  0  0  0  0
  -12.5579    0.1136    0.0000 C   0  0  0  0  0  0  0  0  0  0  0  0
  -12.9079    1.5721    0.0000 O   0  0  0  0  0  0  0  0  0  0  0  0
  -13.8636   -0.6249    0.0000 N   0  0  0  0  0  0  0  0  0  0  0  0
  -15.1559    0.1366    0.0000 C   0  0  0  0  0  0  0  0  0  0  0  0
  -16.1098    1.2942    0.0000 C   0  0  0  0  0  0  0  0  0  0  0  0
  -17.5893    1.0469    0.0000 C   0  0  0  0  0  0  0  0  0  0  0  0
  -18.2588   -0.2954    0.0000 C   0  0  0  0  0  0  0  0  0  0  0  0
  -19.7423   -0.0734    0.0000 N   0  0  0  0  0  0  0  0  0  0  0  0
  -19.9896    1.4060    0.0000 C   0  0  0  0  0  0  0  0  0  0  0  0
  -21.2546    2.2122    0.0000 C   0  0  0  0  0  0  0  0  0  0  0  0
  -21.1889    3.7107    0.0000 C   0  0  0  0  0  0  0  0  0  0  0  0
  -19.8583    4.4031    0.0000 C   0  0  0  0  0  0  0  0  0  0  0  0
  -18.5933    3.5970    0.0000 C   0  0  0  0  0  0  0  0  0  0  0  0
  -18.6590    2.0984    0.0000 C   0  0  0  0  0  0  0  0  0  0  0  0
  -16.4615   -0.6018    0.0000 C   0  0  0  0  0  0  0  0  0  0  0  0
  -16.8374   -2.0539    0.0000 O   0  0  0  0  0  0  0  0  0  0  0  0
  -17.7539    0.1597    0.0000 N   0  0  0  0  0  0  0  0  0  0  0  0
  -19.0595   -0.5787    0.0000 C   0  0  0  0  0  0  0  0  0  0  0  0
  -20.0339   -1.7191    0.0000 C   0  0  0  0  0  0  0  0  0  0  0  0
  -21.5087   -1.4456    0.0000 C   0  0  0  0  0  0  0  0  0  0  0  0
  -22.4831   -2.5860    0.0000 C   0  0  0  0  0  0  0  0  0  0  0  0
  -23.9579   -2.3124    0.0000 N   0  0  0  0  0  0  0  0  0  0  0  0
  -24.9323   -3.4529    0.0000 C   0  0  0  0  0  0  0  0  0  0  0  0
  -26.3627   -3.0015    0.0000 N   0  0  0  0  0  0  0  0  0  0  0  0
  -24.4318   -4.8669    0.0000 N   0  0  0  0  0  0  0  0  0  0  0  0
  -20.3518    0.1828    0.0000 C   0  0  0  0  0  0  0  0  0  0  0  0
  -20.7018    1.6414    0.0000 O   0  0  0  0  0  0  0  0  0  0  0  0
  -21.6575   -0.5556    0.0000 N   0  0  0  0  0  0  0  0  0  0  0  0
  -22.9498    0.2059    0.0000 C   0  0  0  0  0  0  0  0  0  0  0  0
  -23.9037    1.3635    0.0000 C   0  0  0  0  0  0  0  0  0  0  0  0
  -25.3832    1.1162    0.0000 C   0  0  0  0  0  0  0  0  0  0  0  0
  -26.3371    2.2738    0.0000 C   0  0  0  0  0  0  0  0  0  0  0  0
  -27.8166    2.0264    0.0000 N   0  0  0  0  0  0  0  0  0  0  0  0
  -28.7705    3.1840    0.0000 C   0  0  0  0  0  0  0  0  0  0  0  0
  -30.2088    2.7582    0.0000 N   0  0  0  0  0  0  0  0  0  0  0  0
  -28.2450    4.5889    0.0000 N   0  0  0  0  0  0  0  0  0  0  0  0
  -24.2555   -0.5325    0.0000 C   0  0  0  0  0  0  0  0  0  0  0  0
  -24.6313   -1.9847    0.0000 O   0  0  0  0  0  0  0  0  0  0  0  0
  -25.5478    0.2290    0.0000 N   0  0  0  0  0  0  0  0  0  0  0  0
  -26.8534   -0.5094    0.0000 C   0  0  0  0  0  0  0  0  0  0  0  0
  -27.8278   -1.6499    0.0000 C   0  0  0  0  0  0  0  0  0  0  0  0
  -28.1458    0.2521    0.0000 C   0  0  0  0  0  0  0  0  0  0  0  0
  -28.4958    1.7107    0.0000 O   0  0  0  0  0  0  0  0  0  0  0  0
  -29.4514   -0.4863    0.0000 N   0  0  0  0  0  0  0  0  0  0  0  0
  -30.7437    0.2752    0.0000 C   0  0  0  0  0  0  0  0  0  0  0  0
  -31.6977    1.4328    0.0000 C   0  0  0  0  0  0  0  0  0  0  0  0
  -32.0494   -0.4632    0.0000 C   0  0  0  0  0  0  0  0  0  0  0  0
  -32.0627   -1.9632    0.0000 O   0  0  0  0  0  0  0  0  0  0  0  0
  -33.3417    0.2983    0.0000 N   0  0  0  0  0  0  0  0  0  0  0  0
  -34.6473   -0.4402    0.0000 C   0  0  0  0  0  0  0  0  0  0  0  0
  -35.6217   -1.5806    0.0000 C   0  0  0  0  0  0  0  0  0  0  0  0
  -35.9397    0.3214    0.0000 C   0  0  0  0  0  0  0  0  0  0  0  0
  -35.9263    1.8213    0.0000 O   0  0  0  0  0  0  0  0  0  0  0  0
  -37.2453   -0.4171    0.0000 N   0  0  0  0  0  0  0  0  0  0  0  0
  -38.5376    0.3444    0.0000 C   0  0  0  0  0  0  0  0  0  0  0  0
  -39.4916    1.5020    0.0000 C   0  0  0  0  0  0  0  0  0  0  0  0
  -39.8433   -0.3940    0.0000 C   0  0  0  0  0  0  0  0  0  0  0  0
  -41.2188    0.2043    0.0000 O   0  0  0  0  0  0  0  0  0  0  0  0
  -39.8566   -1.8939    0.0000 O   0  0  0  0  0  0  0  0  0  0  0  0
   36.6340    1.1652    0.0000 H   0  0  0  0  0  0  0  0  0  0  0  0
   36.7769   -3.3250    0.0000 H   0  0  0  0  0  0  0  0  0  0  0  0
   39.3616   -4.8481    0.0000 H   0  0  0  0  0  0  0  0  0  0  0  0
   39.0516    1.1104    0.0000 H   0  0  0  0  0  0  0  0  0  0  0  0
   46.0168    2.7835    0.0000 H   0  0  0  0  0  0  0  0  0  0  0  0
   47.0519   -2.3085    0.0000 H   0  0  0  0  0  0  0  0  0  0  0  0
   44.1120   -2.9061    0.0000 H   0  0  0  0  0  0  0  0  0  0  0  0
   48.9980   -0.5873    0.0000 H   0  0  0  0  0  0  0  0  0  0  0  0
   39.1847   -1.2566    0.0000 H   0  0  0  0  0  0  0  0  0  0  0  0
   37.1717    1.1720    0.0000 H   0  0  0  0  0  0  0  0  0  0  0  0
   41.0894    4.4331    0.0000 H   0  0  0  0  0  0  0  0  0  0  0  0
   38.6257    5.2579    0.0000 H   0  0  0  0  0  0  0  0  0  0  0  0
   34.2189    1.1979    0.0000 H   0  0  0  0  0  0  0  0  0  0  0  0
   31.9256   -2.1809    0.0000 H   0  0  0  0  0  0  0  0  0  0  0  0
   33.8539   -2.1981    0.0000 H   0  0  0  0  0  0  0  0  0  0  0  0
   30.6537    0.8786    0.0000 H   0  0  0  0  0  0  0  0  0  0  0  0
   32.5820    0.8615    0.0000 H   0  0  0  0  0  0  0  0  0  0  0  0
   29.0230    1.2441    0.0000 H   0  0  0  0  0  0  0  0  0  0  0  0
   28.6579   -2.1519    0.0000 H   0  0  0  0  0  0  0  0  0  0  0  0
   28.0220   -2.8963    0.0000 H   0  0  0  0  0  0  0  0  0  0  0  0
   27.1581   -4.6973    0.0000 H   0  0  0  0  0  0  0  0  0  0  0  0
   24.2805   -3.0016    0.0000 H   0  0  0  0  0  0  0  0  0  0  0  0
   23.9625   -1.0997    0.0000 H   0  0  0  0  0  0  0  0  0  0  0  0
   25.0591   -0.3740    0.0000 H   0  0  0  0  0  0  0  0  0  0  0  0
   24.9100   -2.4583    0.0000 H   0  0  0  0  0  0  0  0  0  0  0  0
   24.9198    0.8035    0.0000 H   0  0  0  0  0  0  0  0  0  0  0  0
   21.5675    1.7094    0.0000 H   0  0  0  0  0  0  0  0  0  0  0  0
   21.6384    0.0771    0.0000 H   0  0  0  0  0  0  0  0  0  0  0  0
   24.3597    3.4933    0.0000 H   0  0  0  0  0  0  0  0  0  0  0  0
   24.7608    1.7545    0.0000 H   0  0  0  0  0  0  0  0  0  0  0  0
   21.1391    4.2719    0.0000 H   0  0  0  0  0  0  0  0  0  0  0  0
   21.3253    2.4972    0.0000 H   0  0  0  0  0  0  0  0  0  0  0  0
   24.4364    5.1627    0.0000 H   0  0  0  0  0  0  0  0  0  0  0  0
   21.5746    8.6354    0.0000 H   0  0  0  0  0  0  0  0  0  0  0  0
   24.0080    7.7252    0.0000 H   0  0  0  0  0  0  0  0  0  0  0  0
   19.5696    6.9832    0.0000 H   0  0  0  0  0  0  0  0  0  0  0  0
   19.9980    4.4207    0.0000 H   0  0  0  0  0  0  0  0  0  0  0  0
   21.0461    1.3038    0.0000 H   0  0  0  0  0  0  0  0  0  0  0  0
   20.8640   -2.0826    0.0000 H   0  0  0  0  0  0  0  0  0  0  0  0
   18.4102   -3.4704    0.0000 H   0  0  0  0  0  0  0  0  0  0  0  0
   20.2281   -2.8270    0.0000 H   0  0  0  0  0  0  0  0  0  0  0  0
   16.1686   -1.0304    0.0000 H   0  0  0  0  0  0  0  0  0  0  0  0
   17.2652   -0.3047    0.0000 H   0  0  0  0  0  0  0  0  0  0  0  0
   14.0374   -3.7992    0.0000 H   0  0  0  0  0  0  0  0  0  0  0  0
   14.1393   -1.4078    0.0000 H   0  0  0  0  0  0  0  0  0  0  0  0
   16.9362   -2.3541    0.0000 H   0  0  0  0  0  0  0  0  0  0  0  0
   16.9942    1.0000    0.0000 H   0  0  0  0  0  0  0  0  0  0  0  0
   15.5914    2.4221    0.0000 H   0  0  0  0  0  0  0  0  0  0  0  0
   13.8760    1.9305    0.0000 H   0  0  0  0  0  0  0  0  0  0  0  0
   13.8445    0.1464    0.0000 H   0  0  0  0  0  0  0  0  0  0  0  0
   13.2522    1.3730    0.0000 H   0  0  0  0  0  0  0  0  0  0  0  0
   13.0701   -2.0134    0.0000 H   0  0  0  0  0  0  0  0  0  0  0  0
   10.7915   -3.4547    0.0000 H   0  0  0  0  0  0  0  0  0  0  0  0
   12.4341   -2.7577    0.0000 H   0  0  0  0  0  0  0  0  0  0  0  0
    8.3747   -0.9611    0.0000 H   0  0  0  0  0  0  0  0  0  0  0  0
    9.4713   -0.2355    0.0000 H   0  0  0  0  0  0  0  0  0  0  0  0
    8.1671   -4.2680    0.0000 H   0  0  0  0  0  0  0  0  0  0  0  0
    9.8825   -3.7764    0.0000 H   0  0  0  0  0  0  0  0  0  0  0  0
    6.3900   -1.3386    0.0000 H   0  0  0  0  0  0  0  0  0  0  0  0
    3.7942   -4.5968    0.0000 H   0  0  0  0  0  0  0  0  0  0  0  0
    4.4229   -1.9851    0.0000 H   0  0  0  0  0  0  0  0  0  0  0  0
    5.7696   -6.2844    0.0000 H   0  0  0  0  0  0  0  0  0  0  0  0
    8.2188   -5.4176    0.0000 H   0  0  0  0  0  0  0  0  0  0  0  0
    9.1423   -2.2848    0.0000 H   0  0  0  0  0  0  0  0  0  0  0  0
    9.3320    0.9420    0.0000 H   0  0  0  0  0  0  0  0  0  0  0  0
    5.9796    1.8479    0.0000 H   0  0  0  0  0  0  0  0  0  0  0  0
    6.0506    0.2156    0.0000 H   0  0  0  0  0  0  0  0  0  0  0  0
    8.7718    3.6318    0.0000 H   0  0  0  0  0  0  0  0  0  0  0  0
    9.1730    1.8930    0.0000 H   0  0  0  0  0  0  0  0  0  0  0  0
    5.5512    4.4105    0.0000 H   0  0  0  0  0  0  0  0  0  0  0  0
    5.7374    2.6358    0.0000 H   0  0  0  0  0  0  0  0  0  0  0  0
    8.8486    5.3012    0.0000 H   0  0  0  0  0  0  0  0  0  0  0  0
    5.9868    8.7740    0.0000 H   0  0  0  0  0  0  0  0  0  0  0  0
    8.4202    7.8637    0.0000 H   0  0  0  0  0  0  0  0  0  0  0  0
    3.9818    7.1217    0.0000 H   0  0  0  0  0  0  0  0  0  0  0  0
    4.4102    4.5592    0.0000 H   0  0  0  0  0  0  0  0  0  0  0  0
    5.4583    1.4423    0.0000 H   0  0  0  0  0  0  0  0  0  0  0  0
    5.2762   -1.9441    0.0000 H   0  0  0  0  0  0  0  0  0  0  0  0
    2.8224   -3.3319    0.0000 H   0  0  0  0  0  0  0  0  0  0  0  0
    4.7861   -2.3531    0.0000 H   0  0  0  0  0  0  0  0  0  0  0  0
   -0.5985   -2.7020    0.0000 H   0  0  0  0  0  0  0  0  0  0  0  0
    1.3992   -4.2079    0.0000 H   0  0  0  0  0  0  0  0  0  0  0  0
    1.3484   -2.2156    0.0000 H   0  0  0  0  0  0  0  0  0  0  0  0
    1.4063    1.1386    0.0000 H   0  0  0  0  0  0  0  0  0  0  0  0
   -0.8464    2.6202    0.0000 H   0  0  0  0  0  0  0  0  0  0  0  0
    0.7837    1.8941    0.0000 H   0  0  0  0  0  0  0  0  0  0  0  0
   -3.3071    0.1699    0.0000 H   0  0  0  0  0  0  0  0  0  0  0  0
   -2.2236   -0.5751    0.0000 H   0  0  0  0  0  0  0  0  0  0  0  0
   -3.4559    3.4800    0.0000 H   0  0  0  0  0  0  0  0  0  0  0  0
   -1.7495    2.9580    0.0000 H   0  0  0  0  0  0  0  0  0  0  0  0
   -5.4290    0.6954    0.0000 H   0  0  0  0  0  0  0  0  0  0  0  0
   -7.8222    3.8865    0.0000 H   0  0  0  0  0  0  0  0  0  0  0  0
   -7.2401    1.2640    0.0000 H   0  0  0  0  0  0  0  0  0  0  0  0
   -5.8172    5.5387    0.0000 H   0  0  0  0  0  0  0  0  0  0  0  0
   -3.3838    4.6285    0.0000 H   0  0  0  0  0  0  0  0  0  0  0  0
   -2.5160    1.4798    0.0000 H   0  0  0  0  0  0  0  0  0  0  0  0
   -2.5177   -1.8748    0.0000 H   0  0  0  0  0  0  0  0  0  0  0  0
   -4.7964   -3.3162    0.0000 H   0  0  0  0  0  0  0  0  0  0  0  0
   -3.1537   -2.6192    0.0000 H   0  0  0  0  0  0  0  0  0  0  0  0
   -7.2132   -0.8226    0.0000 H   0  0  0  0  0  0  0  0  0  0  0  0
   -6.2964   -0.1319    0.0000 H   0  0  0  0  0  0  0  0  0  0  0  0
   -7.4208   -4.1295    0.0000 H   0  0  0  0  0  0  0  0  0  0  0  0
   -5.7054   -3.6379    0.0000 H   0  0  0  0  0  0  0  0  0  0  0  0
   -9.3441   -1.3103    0.0000 H   0  0  0  0  0  0  0  0  0  0  0  0
  -11.7936   -4.4583    0.0000 H   0  0  0  0  0  0  0  0  0  0  0  0
  -11.1650   -1.8466    0.0000 H   0  0  0  0  0  0  0  0  0  0  0  0
   -9.8183   -6.1459    0.0000 H   0  0  0  0  0  0  0  0  0  0  0  0
   -7.3691   -5.2790    0.0000 H   0  0  0  0  0  0  0  0  0  0  0  0
   -6.4455   -2.1463    0.0000 H   0  0  0  0  0  0  0  0  0  0  0  0
   -6.3876    1.2078    0.0000 H   0  0  0  0  0  0  0  0  0  0  0  0
   -8.6403    2.6895    0.0000 H   0  0  0  0  0  0  0  0  0  0  0  0
   -6.8704    1.6255    0.0000 H   0  0  0  0  0  0  0  0  0  0  0  0
  -11.1010    0.2392    0.0000 H   0  0  0  0  0  0  0  0  0  0  0  0
  -10.1966   -0.4677    0.0000 H   0  0  0  0  0  0  0  0  0  0  0  0
  -11.2498    3.5493    0.0000 H   0  0  0  0  0  0  0  0  0  0  0  0
   -9.5434    3.0273    0.0000 H   0  0  0  0  0  0  0  0  0  0  0  0
  -13.2230    0.7647    0.0000 H   0  0  0  0  0  0  0  0  0  0  0  0
  -15.6161    3.9557    0.0000 H   0  0  0  0  0  0  0  0  0  0  0  0
  -15.0340    1.3333    0.0000 H   0  0  0  0  0  0  0  0  0  0  0  0
  -13.6111    5.6080    0.0000 H   0  0  0  0  0  0  0  0  0  0  0  0
  -11.1777    4.6977    0.0000 H   0  0  0  0  0  0  0  0  0  0  0  0
  -10.3099    1.5491    0.0000 H   0  0  0  0  0  0  0  0  0  0  0  0
  -10.3117   -1.8056    0.0000 H   0  0  0  0  0  0  0  0  0  0  0  0
  -12.5903   -3.2469    0.0000 H   0  0  0  0  0  0  0  0  0  0  0  0
  -10.8018   -2.2146    0.0000 H   0  0  0  0  0  0  0  0  0  0  0  0
  -15.0071   -0.7533    0.0000 H   0  0  0  0  0  0  0  0  0  0  0  0
  -14.0903   -0.0626    0.0000 H   0  0  0  0  0  0  0  0  0  0  0  0
  -15.2147   -4.0602    0.0000 H   0  0  0  0  0  0  0  0  0  0  0  0
  -13.4993   -3.5686    0.0000 H   0  0  0  0  0  0  0  0  0  0  0  0
  -16.9917   -1.1308    0.0000 H   0  0  0  0  0  0  0  0  0  0  0  0
  -19.5875   -4.3890    0.0000 H   0  0  0  0  0  0  0  0  0  0  0  0
  -18.9589   -1.7773    0.0000 H   0  0  0  0  0  0  0  0  0  0  0  0
  -17.6122   -6.0766    0.0000 H   0  0  0  0  0  0  0  0  0  0  0  0
  -15.1630   -5.2098    0.0000 H   0  0  0  0  0  0  0  0  0  0  0  0
  -14.2394   -2.0770    0.0000 H   0  0  0  0  0  0  0  0  0  0  0  0
  -14.1815    1.2771    0.0000 H   0  0  0  0  0  0  0  0  0  0  0  0
  -16.6103    2.7083    0.0000 H   0  0  0  0  0  0  0  0  0  0  0  0
  -14.6643    1.6948    0.0000 H   0  0  0  0  0  0  0  0  0  0  0  0
  -17.4094   -1.5317    0.0000 H   0  0  0  0  0  0  0  0  0  0  0  0
  -21.0214   -0.8569    0.0000 H   0  0  0  0  0  0  0  0  0  0  0  0
  -22.5852    1.5198    0.0000 H   0  0  0  0  0  0  0  0  0  0  0  0
  -22.4539    4.5169    0.0000 H   0  0  0  0  0  0  0  0  0  0  0  0
  -19.7926    5.9017    0.0000 H   0  0  0  0  0  0  0  0  0  0  0  0
  -17.2627    4.2894    0.0000 H   0  0  0  0  0  0  0  0  0  0  0  0
  -18.1039    1.6183    0.0000 H   0  0  0  0  0  0  0  0  0  0  0  0
  -18.2538   -1.8439    0.0000 H   0  0  0  0  0  0  0  0  0  0  0  0
  -20.3842   -3.1777    0.0000 H   0  0  0  0  0  0  0  0  0  0  0  0
  -18.5957   -2.1453    0.0000 H   0  0  0  0  0  0  0  0  0  0  0  0
  -22.8010   -0.6840    0.0000 H   0  0  0  0  0  0  0  0  0  0  0  0
  -21.7044    0.0416    0.0000 H   0  0  0  0  0  0  0  0  0  0  0  0
  -23.0086   -3.9909    0.0000 H   0  0  0  0  0  0  0  0  0  0  0  0
  -21.2932   -3.4994    0.0000 H   0  0  0  0  0  0  0  0  0  0  0  0
  -24.9320   -1.1717    0.0000 H   0  0  0  0  0  0  0  0  0  0  0  0
  -27.3814   -4.3197    0.0000 H   0  0  0  0  0  0  0  0  0  0  0  0
  -26.7528   -1.7080    0.0000 H   0  0  0  0  0  0  0  0  0  0  0  0
  -25.4061   -6.0074    0.0000 H   0  0  0  0  0  0  0  0  0  0  0  0
  -22.9569   -5.1405    0.0000 H   0  0  0  0  0  0  0  0  0  0  0  0
  -22.0334   -2.0077    0.0000 H   0  0  0  0  0  0  0  0  0  0  0  0
  -21.8437    1.2191    0.0000 H   0  0  0  0  0  0  0  0  0  0  0  0
  -24.2281    2.8280    0.0000 H   0  0  0  0  0  0  0  0  0  0  0  0
  -22.6978    2.2556    0.0000 H   0  0  0  0  0  0  0  0  0  0  0  0
  -26.6889    0.3777    0.0000 H   0  0  0  0  0  0  0  0  0  0  0  0
  -25.7845   -0.3292    0.0000 H   0  0  0  0  0  0  0  0  0  0  0  0
  -26.8376    3.6878    0.0000 H   0  0  0  0  0  0  0  0  0  0  0  0
  -25.1312    3.1658    0.0000 H   0  0  0  0  0  0  0  0  0  0  0  0
  -28.6665    0.7904    0.0000 H   0  0  0  0  0  0  0  0  0  0  0  0
  -31.2039    4.0943    0.0000 H   0  0  0  0  0  0  0  0  0  0  0  0
  -30.6218    1.4718    0.0000 H   0  0  0  0  0  0  0  0  0  0  0  0
  -29.1989    5.7465    0.0000 H   0  0  0  0  0  0  0  0  0  0  0  0
  -26.7655    4.8363    0.0000 H   0  0  0  0  0  0  0  0  0  0  0  0
  -25.8978    1.6876    0.0000 H   0  0  0  0  0  0  0  0  0  0  0  0
  -25.8995   -1.6670    0.0000 H   0  0  0  0  0  0  0  0  0  0  0  0
  -29.3027   -1.9231    0.0000 H   0  0  0  0  0  0  0  0  0  0  0  0
  -28.3533   -3.0548    0.0000 H   0  0  0  0  0  0  0  0  0  0  0  0
  -26.3896   -2.0761    0.0000 H   0  0  0  0  0  0  0  0  0  0  0  0
  -29.6475   -1.9735    0.0000 H   0  0  0  0  0  0  0  0  0  0  0  0
  -29.7694    1.4156    0.0000 H   0  0  0  0  0  0  0  0  0  0  0  0
  -33.1675    1.7322    0.0000 H   0  0  0  0  0  0  0  0  0  0  0  0
  -32.1981    2.8468    0.0000 H   0  0  0  0  0  0  0  0  0  0  0  0
  -30.2521    1.8333    0.0000 H   0  0  0  0  0  0  0  0  0  0  0  0
  -33.5113    1.7886    0.0000 H   0  0  0  0  0  0  0  0  0  0  0  0
  -33.6934   -1.5977    0.0000 H   0  0  0  0  0  0  0  0  0  0  0  0
  -37.0966   -1.8538    0.0000 H   0  0  0  0  0  0  0  0  0  0  0  0
  -36.1472   -2.9855    0.0000 H   0  0  0  0  0  0  0  0  0  0  0  0
  -34.3294   -2.3421    0.0000 H   0  0  0  0  0  0  0  0  0  0  0  0
  -37.4414   -1.9042    0.0000 H   0  0  0  0  0  0  0  0  0  0  0  0
  -37.5633    1.4849    0.0000 H   0  0  0  0  0  0  0  0  0  0  0  0
  -38.9660    2.9070    0.0000 H   0  0  0  0  0  0  0  0  0  0  0  0
  -40.7839    2.2636    0.0000 H   0  0  0  0  0  0  0  0  0  0  0  0
  -40.5977    0.4889    0.0000 H   0  0  0  0  0  0  0  0  0  0  0  0
  1  2  1  0
  2  3  1  0
  3  4  2  0
  4  5  1  0
  5  6  2  0
  6  7  1  0
  7  8  2  0
  7  9  1  0
  9 10  1  0
 10 11  1  0
 11 12  2  0
  9 13  1  0
 13 14  1  0
 14 15  2  0
 15 16  1  0
 16 17  2  0
 17 18  1  0
 16 19  1  0
 14 20  1  0
 20 21  1  0
 21 22  2  0
 22 23  1  0
 23 24  2  0
 24 25  1  0
 25 26  2  0
 25 27  1  0
  1 28  2  0
  1 29  1  0
 29 30  1  0
 30 31  1  0
 31 32  1  0
 32 33  2  0
 32 34  1  0
 34 35  1  0
 35 36  1  0
 36 37  1  0
 36 38  1  0
 35 39  1  0
 39 40  2  0
 39 41  1  0
 41 42  1  0
 42 43  1  0
 43 44  1  0
 44 45  1  0
 45 46  1  0
 46 47  1  0
 47 48  2  3
 47 49  1  0
 42 50  1  0
 50 51  2  0
 50 52  1  0
 52 53  1  0
 53 54  1  0
 54 55  1  0
 55 56  1  0
 56 57  1  0
 56 58  2  0
 53 59  1  0
 59 60  2  0
 59 61  1  0
 61 62  1  0
 62 63  1  0
 62 64  1  0
 64 65  2  0
 64 66  1  0
 66 67  1  0
 67 68  1  0
 68 69  1  0
 69 70  1  0
 70 71  1  0
 71 72  1  0
 72 73  2  3
 72 74  1  0
 67 75  1  0
 75 76  2  0
 75 77  1  0
 77 78  1  0
 78 79  1  0
 79 80  1  0
 80 81  1  0
 81 82  1  0
 82 83  1  0
 83 84  2  3
 83 85  1  0
 78 86  1  0
 86 87  2  0
 86 88  1  0
 88 89  1  0
 89 90  1  0
 90 91  1  0
 91 92  1  0
 91 93  2  0
 89 94  1  0
 94 95  2  0
 94 96  1  0
 96 97  1  0
 97 98  1  0
 98 99  1  0
 99100  1  0
100101  1  0
101102  1  0
102103  2  3
102104  1  0
 97105  1  0
105106  2  0
105107  1  0
107108  1  0
108109  1  0
109110  1  0
110111  1  0
111112  1  0
112113  1  0
113114  2  3
113115  1  0
108116  1  0
116117  2  0
116118  1  0
118119  1  0
119120  1  0
120121  1  0
121122  1  0
122123  1  0
123124  1  0
124125  2  3
124126  1  0
119127  1  0
127128  2  0
127129  1  0
129130  1  0
130131  1  0
131132  1  0
132133  1  0
133134  1  0
134135  1  0
135136  2  3
135137  1  0
130138  1  0
138139  2  0
138140  1  0
140141  1  0
141142  1  0
142143  1  0
143144  2  0
144145  1  0
145146  1  0
146147  2  0
147148  1  0
148149  2  0
149150  1  0
150151  2  0
141152  1  0
152153  2  0
152154  1  0
154155  1  0
155156  1  0
156157  1  0
157158  1  0
158159  1  0
159160  1  0
160161  2  3
160162  1  0
155163  1  0
163164  2  0
163165  1  0
165166  1  0
166167  1  0
167168  1  0
168169  1  0
169170  1  0
170171  1  0
171172  2  3
171173  1  0
166174  1  0
174175  2  0
174176  1  0
176177  1  0
177178  1  0
177179  1  0
179180  2  0
179181  1  0
181182  1  0
182183  1  0
182184  1  0
184185  2  0
184186  1  0
186187  1  0
187188  1  0
187189  1  0
189190  2  0
189191  1  0
191192  1  0
192193  1  0
192194  1  0
194195  2  0
194196  1  0
  8  3  1  0
151143  1  0
 11  6  1  0
151146  1  0
 18 13  2  0
 22  9  1  0
 26 21  1  0
  2197  1  0
  4198  1  0
  5199  1  0
  8200  1  0
 15201  1  0
 17202  1  0
 18203  1  0
 19204  1  0
 23205  1  0
 24206  1  0
 26207  1  0
 27208  1  0
 29209  1  0
 30210  1  0
 30211  1  0
 31212  1  0
 31213  1  0
 34214  1  0
 35215  1  1
 36216  1  1
 37217  1  0
 38218  1  0
 38219  1  0
 38220  1  0
 41221  1  0
 42222  1  6
 43223  1  0
 43224  1  0
 44225  1  0
 44226  1  0
 45227  1  0
 45228  1  0
 46229  1  0
 48230  1  0
 48231  1  0
 49232  1  0
 49233  1  0
 52234  1  0
 53235  1  1
 54236  1  0
 54237  1  0
 55238  1  0
 55239  1  0
 57240  1  0
 57241  1  0
 61242  1  0
 62243  1  6
 63244  1  0
 63245  1  0
 63246  1  0
 66247  1  0
 67248  1  1
 68249  1  0
 68250  1  0
 69251  1  0
 69252  1  0
 70253  1  0
 70254  1  0
 71255  1  0
 73256  1  0
 73257  1  0
 74258  1  0
 74259  1  0
 77260  1  0
 78261  1  6
 79262  1  0
 79263  1  0
 80264  1  0
 80265  1  0
 81266  1  0
 81267  1  0
 82268  1  0
 84269  1  0
 84270  1  0
 85271  1  0
 85272  1  0
 88273  1  0
 89274  1  1
 90275  1  0
 90276  1  0
 92277  1  0
 92278  1  0
 96279  1  0
 97280  1  6
 98281  1  0
 98282  1  0
 99283  1  0
 99284  1  0
100285  1  0
100286  1  0
101287  1  0
103288  1  0
103289  1  0
104290  1  0
104291  1  0
107292  1  0
108293  1  1
109294  1  0
109295  1  0
110296  1  0
110297  1  0
111298  1  0
111299  1  0
112300  1  0
114301  1  0
114302  1  0
115303  1  0
115304  1  0
118305  1  0
119306  1  6
120307  1  0
120308  1  0
121309  1  0
121310  1  0
122311  1  0
122312  1  0
123313  1  0
125314  1  0
125315  1  0
126316  1  0
126317  1  0
129318  1  0
130319  1  1
131320  1  0
131321  1  0
132322  1  0
132323  1  0
133324  1  0
133325  1  0
134326  1  0
136327  1  0
136328  1  0
137329  1  0
137330  1  0
140331  1  0
141332  1  6
142333  1  0
142334  1  0
144335  1  0
145336  1  0
147337  1  0
148338  1  0
149339  1  0
150340  1  0
154341  1  0
155342  1  1
156343  1  0
156344  1  0
157345  1  0
157346  1  0
158347  1  0
158348  1  0
159349  1  0
161350  1  0
161351  1  0
162352  1  0
162353  1  0
165354  1  0
166355  1  6
167356  1  0
167357  1  0
168358  1  0
168359  1  0
169360  1  0
169361  1  0
170362  1  0
172363  1  0
172364  1  0
173365  1  0
173366  1  0
176367  1  0
177368  1  1
178369  1  0
178370  1  0
178371  1  0
181372  1  0
182373  1  6
183374  1  0
183375  1  0
183376  1  0
186377  1  0
187378  1  1
188379  1  0
188380  1  0
188381  1  0
191382  1  0
192383  1  6
193384  1  0
193385  1  0
193386  1  0
M  CHG  8  48   1  73   1  84   1 103   1 114   1 125   1 136   1 161   1
M  CHG  2 172   1 196  -1
M  END
