
     RDKit          2D

304307  0  0  0  0  0  0  0  0999 V2000
  -18.0623   -7.2416    0.0000 N   0  0  0  0  0  0  0  0  0  0  0  0
  -16.5705   -7.0843    0.0000 C   0  0  0  0  0  0  0  0  0  0  0  0
  -15.9609   -5.7138    0.0000 C   0  0  0  0  0  0  0  0  0  0  0  0
  -14.4692   -5.5564    0.0000 C   0  0  0  0  0  0  0  0  0  0  0  0
  -13.7416   -6.8681    0.0000 O   0  0  0  0  0  0  0  0  0  0  0  0
  -13.8596   -4.1859    0.0000 N   0  0  0  0  0  0  0  0  0  0  0  0
  -12.3679   -4.0285    0.0000 C   0  0  0  0  0  0  0  0  0  0  0  0
  -11.2629   -5.0429    0.0000 C   0  0  0  0  0  0  0  0  0  0  0  0
   -9.9079   -5.6865    0.0000 C   0  0  0  0  0  0  0  0  0  0  0  0
   -8.4235   -5.9021    0.0000 C   0  0  0  0  0  0  0  0  0  0  0  0
   -6.9415   -5.6706    0.0000 C   0  0  0  0  0  0  0  0  0  0  0  0
  -13.0081   -5.3850    0.0000 C   0  0  0  0  0  0  0  0  0  0  0  0
  -13.1248   -2.7335    0.0000 C   0  0  0  0  0  0  0  0  0  0  0  0
  -13.9814   -2.9588    0.0000 O   0  0  0  0  0  0  0  0  0  0  0  0
  -13.4664   -1.2730    0.0000 N   0  0  0  0  0  0  0  0  0  0  0  0
  -13.3624    0.2234    0.0000 C   0  0  0  0  0  0  0  0  0  0  0  0
  -14.7691   -0.2971    0.0000 C   0  0  0  0  0  0  0  0  0  0  0  0
  -15.9233    0.6609    0.0000 C   0  0  0  0  0  0  0  0  0  0  0  0
  -17.3301    0.1403    0.0000 C   0  0  0  0  0  0  0  0  0  0  0  0
  -18.4843    1.0983    0.0000 N   0  0  0  0  0  0  0  0  0  0  0  0
  -19.8911    0.5778    0.0000 C   0  0  0  0  0  0  0  0  0  0  0  0
  -21.0453    1.5358    0.0000 N   0  0  0  0  0  0  0  0  0  0  0  0
  -20.1437   -0.9008    0.0000 N   0  0  0  0  0  0  0  0  0  0  0  0
  -12.8218    1.6227    0.0000 C   0  0  0  0  0  0  0  0  0  0  0  0
  -14.1249    2.3657    0.0000 O   0  0  0  0  0  0  0  0  0  0  0  0
  -11.8929    2.8004    0.0000 N   0  0  0  0  0  0  0  0  0  0  0  0
  -10.6581    3.6520    0.0000 C   0  0  0  0  0  0  0  0  0  0  0  0
  -11.9422    4.4273    0.0000 C   0  0  0  0  0  0  0  0  0  0  0  0
  -11.9128    5.9270    0.0000 C   0  0  0  0  0  0  0  0  0  0  0  0
  -13.1969    6.7023    0.0000 C   0  0  0  0  0  0  0  0  0  0  0  0
  -13.1675    8.2020    0.0000 N   0  0  0  0  0  0  0  0  0  0  0  0
  -14.4517    8.9773    0.0000 C   0  0  0  0  0  0  0  0  0  0  0  0
  -14.4223   10.4770    0.0000 N   0  0  0  0  0  0  0  0  0  0  0  0
  -15.7651    8.2529    0.0000 N   0  0  0  0  0  0  0  0  0  0  0  0
   -9.2271    4.1018    0.0000 C   0  0  0  0  0  0  0  0  0  0  0  0
   -9.6375    5.5446    0.0000 O   0  0  0  0  0  0  0  0  0  0  0  0
   -7.7271    4.1098    0.0000 N   0  0  0  0  0  0  0  0  0  0  0  0
   -6.2914    3.6754    0.0000 C   0  0  0  0  0  0  0  0  0  0  0  0
   -6.4859    5.1627    0.0000 C   0  0  0  0  0  0  0  0  0  0  0  0
   -7.8712    5.7380    0.0000 C   0  0  0  0  0  0  0  0  0  0  0  0
   -8.0657    7.2253    0.0000 C   0  0  0  0  0  0  0  0  0  0  0  0
   -9.4510    7.8005    0.0000 N   0  0  0  0  0  0  0  0  0  0  0  0
   -9.6455    9.2879    0.0000 C   0  0  0  0  0  0  0  0  0  0  0  0
  -11.0308    9.8631    0.0000 N   0  0  0  0  0  0  0  0  0  0  0  0
   -8.4547   10.2000    0.0000 N   0  0  0  0  0  0  0  0  0  0  0  0
   -5.0475    2.8370    0.0000 C   0  0  0  0  0  0  0  0  0  0  0  0
   -4.6709    4.2890    0.0000 O   0  0  0  0  0  0  0  0  0  0  0  0
   -4.1060    1.6693    0.0000 N   0  0  0  0  0  0  0  0  0  0  0  0
   -3.5506    0.2760    0.0000 C   0  0  0  0  0  0  0  0  0  0  0  0
   -3.4305   -1.2192    0.0000 C   0  0  0  0  0  0  0  0  0  0  0  0
   -3.7564   -2.6834    0.0000 C   0  0  0  0  0  0  0  0  0  0  0  0
   -4.4994   -3.9864    0.0000 C   0  0  0  0  0  0  0  0  0  0  0  0
   -5.5935   -5.0125    0.0000 C   0  0  0  0  0  0  0  0  0  0  0  0
   -3.0523    1.7899    0.0000 C   0  0  0  0  0  0  0  0  0  0  0  0
   -2.9760    3.1547    0.0000 C   0  0  0  0  0  0  0  0  0  0  0  0
   -2.6428    4.4804    0.0000 C   0  0  0  0  0  0  0  0  0  0  0  0
   -2.0648    5.7191    0.0000 C   0  0  0  0  0  0  0  0  0  0  0  0
   -2.4326   -0.8600    0.0000 C   0  0  0  0  0  0  0  0  0  0  0  0
   -4.4412   -1.7574    0.0000 O   0  0  0  0  0  0  0  0  0  0  0  0
   -1.7589   -2.0494    0.0000 N   0  0  0  0  0  0  0  0  0  0  0  0
   -0.8723   -3.0898    0.0000 C   0  0  0  0  0  0  0  0  0  0  0  0
   -1.6788   -5.0580    0.0000 C   0  0  0  0  0  0  0  0  0  0  0  0
   -0.5692   -6.0674    0.0000 C   0  0  0  0  0  0  0  0  0  0  0  0
   -0.8885   -7.5330    0.0000 C   0  0  0  0  0  0  0  0  0  0  0  0
    0.2211   -8.5423    0.0000 N   0  0  0  0  0  0  0  0  0  0  0  0
   -0.0982  -10.0079    0.0000 C   0  0  0  0  0  0  0  0  0  0  0  0
    0.7342  -11.2558    0.0000 N   0  0  0  0  0  0  0  0  0  0  0  0
   -1.5271  -10.4642    0.0000 N   0  0  0  0  0  0  0  0  0  0  0  0
    0.1952   -3.9436    0.0000 C   0  0  0  0  0  0  0  0  0  0  0  0
   -0.3799   -5.2573    0.0000 O   0  0  0  0  0  0  0  0  0  0  0  0
    1.4049   -4.5799    0.0000 N   0  0  0  0  0  0  0  0  0  0  0  0
    2.7133   -4.9759    0.0000 C   0  0  0  0  0  0  0  0  0  0  0  0
    3.0989   -7.0677    0.0000 C   0  0  0  0  0  0  0  0  0  0  0  0
    2.1435   -8.2241    0.0000 C   0  0  0  0  0  0  0  0  0  0  0  0
    2.6673   -9.6296    0.0000 C   0  0  0  0  0  0  0  0  0  0  0  0
    1.7119  -10.7860    0.0000 N   0  0  0  0  0  0  0  0  0  0  0  0
    2.2356  -12.1916    0.0000 C   0  0  0  0  0  0  0  0  0  0  0  0
    1.2802  -13.3480    0.0000 N   0  0  0  0  0  0  0  0  0  0  0  0
    3.7148  -12.4408    0.0000 N   0  0  0  0  0  0  0  0  0  0  0  0
    4.0729   -5.1170    0.0000 C   0  0  0  0  0  0  0  0  0  0  0  0
    4.2377   -7.3073    0.0000 O   0  0  0  0  0  0  0  0  0  0  0  0
    5.4347   -4.9983    0.0000 N   0  0  0  0  0  0  0  0  0  0  0  0
    6.7493   -4.6240    0.0000 C   0  0  0  0  0  0  0  0  0  0  0  0
    8.2047   -6.1753    0.0000 C   0  0  0  0  0  0  0  0  0  0  0  0
    8.0261   -7.6646    0.0000 C   0  0  0  0  0  0  0  0  0  0  0  0
    9.2266   -8.5639    0.0000 C   0  0  0  0  0  0  0  0  0  0  0  0
    9.0481  -10.0533    0.0000 N   0  0  0  0  0  0  0  0  0  0  0  0
   10.2486  -10.9525    0.0000 C   0  0  0  0  0  0  0  0  0  0  0  0
   10.0701  -12.4419    0.0000 N   0  0  0  0  0  0  0  0  0  0  0  0
   11.6277  -10.3625    0.0000 N   0  0  0  0  0  0  0  0  0  0  0  0
    7.9694   -4.0077    0.0000 C   0  0  0  0  0  0  0  0  0  0  0  0
    9.2922   -5.7612    0.0000 O   0  0  0  0  0  0  0  0  0  0  0  0
    9.0508   -3.1716    0.0000 N   0  0  0  0  0  0  0  0  0  0  0  0
    9.9545   -2.1460    0.0000 C   0  0  0  0  0  0  0  0  0  0  0  0
   12.0174   -2.6642    0.0000 C   0  0  0  0  0  0  0  0  0  0  0  0
   12.6724   -4.0136    0.0000 C   0  0  0  0  0  0  0  0  0  0  0  0
   11.9657   -5.3367    0.0000 C   0  0  0  0  0  0  0  0  0  0  0  0
   13.0057   -6.4177    0.0000 N   0  0  0  0  0  0  0  0  0  0  0  0
   14.3551   -5.7627    0.0000 C   0  0  0  0  0  0  0  0  0  0  0  0
   15.7448   -6.3272    0.0000 C   0  0  0  0  0  0  0  0  0  0  0  0
   16.9286   -5.4060    0.0000 C   0  0  0  0  0  0  0  0  0  0  0  0
   16.7226   -3.9202    0.0000 C   0  0  0  0  0  0  0  0  0  0  0  0
   15.3329   -3.3557    0.0000 C   0  0  0  0  0  0  0  0  0  0  0  0
   14.1492   -4.2769    0.0000 C   0  0  0  0  0  0  0  0  0  0  0  0
   10.6477   -0.9679    0.0000 C   0  0  0  0  0  0  0  0  0  0  0  0
   12.7084   -1.7278    0.0000 O   0  0  0  0  0  0  0  0  0  0  0  0
   11.1054    0.3201    0.0000 N   0  0  0  0  0  0  0  0  0  0  0  0
   11.3111    1.6715    0.0000 C   0  0  0  0  0  0  0  0  0  0  0  0
   13.3267    2.3509    0.0000 C   0  0  0  0  0  0  0  0  0  0  0  0
   14.6073    1.5698    0.0000 C   0  0  0  0  0  0  0  0  0  0  0  0
   15.9240    2.2883    0.0000 C   0  0  0  0  0  0  0  0  0  0  0  0
   17.2046    1.5072    0.0000 N   0  0  0  0  0  0  0  0  0  0  0  0
   18.5213    2.2256    0.0000 C   0  0  0  0  0  0  0  0  0  0  0  0
   19.8019    1.4445    0.0000 N   0  0  0  0  0  0  0  0  0  0  0  0
   18.5575    3.7252    0.0000 N   0  0  0  0  0  0  0  0  0  0  0  0
   11.2573    3.0374    0.0000 C   0  0  0  0  0  0  0  0  0  0  0  0
   13.4018    3.5122    0.0000 O   0  0  0  0  0  0  0  0  0  0  0  0
   10.9460    4.3684    0.0000 N   0  0  0  0  0  0  0  0  0  0  0  0
   10.3884    5.6164    0.0000 C   0  0  0  0  0  0  0  0  0  0  0  0
   11.7168    7.2777    0.0000 C   0  0  0  0  0  0  0  0  0  0  0  0
   13.2164    7.3129    0.0000 C   0  0  0  0  0  0  0  0  0  0  0  0
   13.9356    8.6292    0.0000 C   0  0  0  0  0  0  0  0  0  0  0  0
   15.4352    8.6644    0.0000 N   0  0  0  0  0  0  0  0  0  0  0  0
   16.1545    9.9807    0.0000 C   0  0  0  0  0  0  0  0  0  0  0  0
   17.6541   10.0160    0.0000 N   0  0  0  0  0  0  0  0  0  0  0  0
   15.3742   11.2618    0.0000 N   0  0  0  0  0  0  0  0  0  0  0  0
    9.6047    6.7364    0.0000 C   0  0  0  0  0  0  0  0  0  0  0  0
   11.1521    8.2952    0.0000 O   0  0  0  0  0  0  0  0  0  0  0  0
    8.6232    7.6878    0.0000 N   0  0  0  0  0  0  0  0  0  0  0  0
    7.4795    8.4362    0.0000 C   0  0  0  0  0  0  0  0  0  0  0  0
    6.2147    8.9547    0.0000 C   0  0  0  0  0  0  0  0  0  0  0  0
    4.8746    9.2245    0.0000 C   0  0  0  0  0  0  0  0  0  0  0  0
    3.5078    9.2357    0.0000 C   0  0  0  0  0  0  0  0  0  0  0  0
    2.1635    8.9881    0.0000 C   0  0  0  0  0  0  0  0  0  0  0  0
    0.8903    8.4906    0.0000 C   0  0  0  0  0  0  0  0  0  0  0  0
   -0.2657    7.7611    0.0000 C   0  0  0  0  0  0  0  0  0  0  0  0
   -1.2627    6.8260    0.0000 C   0  0  0  0  0  0  0  0  0  0  0  0
    9.0986    9.8156    0.0000 C   0  0  0  0  0  0  0  0  0  0  0  0
    7.6988   10.5520    0.0000 C   0  0  0  0  0  0  0  0  0  0  0  0
    8.8296   11.5375    0.0000 O   0  0  0  0  0  0  0  0  0  0  0  0
    6.5485   11.5148    0.0000 O   0  0  0  0  0  0  0  0  0  0  0  0
  -18.6719   -8.6122    0.0000 H   0  0  0  0  0  0  0  0  0  0  0  0
  -18.9444   -6.0284    0.0000 H   0  0  0  0  0  0  0  0  0  0  0  0
  -16.6746   -8.5807    0.0000 H   0  0  0  0  0  0  0  0  0  0  0  0
  -15.1150   -7.4467    0.0000 H   0  0  0  0  0  0  0  0  0  0  0  0
  -17.4165   -5.3514    0.0000 H   0  0  0  0  0  0  0  0  0  0  0  0
  -15.8569   -4.2174    0.0000 H   0  0  0  0  0  0  0  0  0  0  0  0
  -14.4035   -3.6031    0.0000 H   0  0  0  0  0  0  0  0  0  0  0  0
  -11.2922   -6.5426    0.0000 H   0  0  0  0  0  0  0  0  0  0  0  0
  -12.5597   -5.7966    0.0000 H   0  0  0  0  0  0  0  0  0  0  0  0
   -9.6728   -7.1679    0.0000 H   0  0  0  0  0  0  0  0  0  0  0  0
  -10.9250   -6.7890    0.0000 H   0  0  0  0  0  0  0  0  0  0  0  0
   -7.6030   -7.1578    0.0000 H   0  0  0  0  0  0  0  0  0  0  0  0
   -9.0704   -7.2554    0.0000 H   0  0  0  0  0  0  0  0  0  0  0  0
   -6.4917   -7.1016    0.0000 H   0  0  0  0  0  0  0  0  0  0  0  0
  -14.1778   -6.0612    0.0000 H   0  0  0  0  0  0  0  0  0  0  0  0
  -12.6031   -6.9143    0.0000 H   0  0  0  0  0  0  0  0  0  0  0  0
  -11.5652   -6.2428    0.0000 H   0  0  0  0  0  0  0  0  0  0  0  0
  -14.9616   -1.3931    0.0000 H   0  0  0  0  0  0  0  0  0  0  0  0
  -14.2774    1.4120    0.0000 H   0  0  0  0  0  0  0  0  0  0  0  0
  -15.7862   -1.3997    0.0000 H   0  0  0  0  0  0  0  0  0  0  0  0
  -14.3480   -1.7368    0.0000 H   0  0  0  0  0  0  0  0  0  0  0  0
  -16.6803    1.9559    0.0000 H   0  0  0  0  0  0  0  0  0  0  0  0
  -14.9063    1.7634    0.0000 H   0  0  0  0  0  0  0  0  0  0  0  0
  -18.4740   -0.8300    0.0000 H   0  0  0  0  0  0  0  0  0  0  0  0
  -16.7367   -1.2373    0.0000 H   0  0  0  0  0  0  0  0  0  0  0  0
  -18.2318    2.5769    0.0000 H   0  0  0  0  0  0  0  0  0  0  0  0
  -22.4521    1.0152    0.0000 H   0  0  0  0  0  0  0  0  0  0  0  0
  -20.7927    3.0144    0.0000 H   0  0  0  0  0  0  0  0  0  0  0  0
  -21.5504   -1.4214    0.0000 H   0  0  0  0  0  0  0  0  0  0  0  0
  -18.9894   -1.8588    0.0000 H   0  0  0  0  0  0  0  0  0  0  0  0
  -12.9190    3.8945    0.0000 H   0  0  0  0  0  0  0  0  0  0  0  0
  -10.2993    5.1085    0.0000 H   0  0  0  0  0  0  0  0  0  0  0  0
  -13.4383    4.5351    0.0000 H   0  0  0  0  0  0  0  0  0  0  0  0
  -12.8052    3.2004    0.0000 H   0  0  0  0  0  0  0  0  0  0  0  0
  -11.2057    7.2499    0.0000 H   0  0  0  0  0  0  0  0  0  0  0  0
  -10.4167    5.8192    0.0000 H   0  0  0  0  0  0  0  0  0  0  0  0
  -14.6687    6.9916    0.0000 H   0  0  0  0  0  0  0  0  0  0  0  0
  -13.9040    5.3794    0.0000 H   0  0  0  0  0  0  0  0  0  0  0  0
  -11.9522    9.0811    0.0000 H   0  0  0  0  0  0  0  0  0  0  0  0
  -15.7064   11.2523    0.0000 H   0  0  0  0  0  0  0  0  0  0  0  0
  -13.1088   11.2014    0.0000 H   0  0  0  0  0  0  0  0  0  0  0  0
  -17.0492    9.0282    0.0000 H   0  0  0  0  0  0  0  0  0  0  0  0
  -15.7945    6.7532    0.0000 H   0  0  0  0  0  0  0  0  0  0  0  0
   -7.8771    5.6023    0.0000 H   0  0  0  0  0  0  0  0  0  0  0  0
   -5.1214    4.6140    0.0000 H   0  0  0  0  0  0  0  0  0  0  0  0
   -5.9839    6.5762    0.0000 H   0  0  0  0  0  0  0  0  0  0  0  0
   -4.9904    5.2791    0.0000 H   0  0  0  0  0  0  0  0  0  0  0  0
   -9.3504    5.9869    0.0000 H   0  0  0  0  0  0  0  0  0  0  0  0
   -8.5418    4.3962    0.0000 H   0  0  0  0  0  0  0  0  0  0  0  0
   -7.7397    8.6895    0.0000 H   0  0  0  0  0  0  0  0  0  0  0  0
   -6.5702    7.3417    0.0000 H   0  0  0  0  0  0  0  0  0  0  0  0
  -10.5218    6.7501    0.0000 H   0  0  0  0  0  0  0  0  0  0  0  0
  -11.2253   11.3505    0.0000 H   0  0  0  0  0  0  0  0  0  0  0  0
  -12.3239    9.1030    0.0000 H   0  0  0  0  0  0  0  0  0  0  0  0
   -8.6491   11.6873    0.0000 H   0  0  0  0  0  0  0  0  0  0  0  0
   -7.0693    9.6247    0.0000 H   0  0  0  0  0  0  0  0  0  0  0  0
   -2.8110    2.4263    0.0000 H   0  0  0  0  0  0  0  0  0  0  0  0
   -2.1170   -0.4948    0.0000 H   0  0  0  0  0  0  0  0  0  0  0  0
   -2.3485   -2.2581    0.0000 H   0  0  0  0  0  0  0  0  0  0  0  0
   -2.2760   -2.9250    0.0000 H   0  0  0  0  0  0  0  0  0  0  0  0
   -3.1941   -4.0740    0.0000 H   0  0  0  0  0  0  0  0  0  0  0  0
   -3.1560   -4.6537    0.0000 H   0  0  0  0  0  0  0  0  0  0  0  0
   -4.0141   -5.4057    0.0000 H   0  0  0  0  0  0  0  0  0  0  0  0
   -4.7419   -6.2474    0.0000 H   0  0  0  0  0  0  0  0  0  0  0  0
   -4.9943    0.9220    0.0000 H   0  0  0  0  0  0  0  0  0  0  0  0
   -4.9566    2.6560    0.0000 H   0  0  0  0  0  0  0  0  0  0  0  0
   -5.1670    3.2036    0.0000 H   0  0  0  0  0  0  0  0  0  0  0  0
   -4.5396    4.4809    0.0000 H   0  0  0  0  0  0  0  0  0  0  0  0
   -4.8017    4.7606    0.0000 H   0  0  0  0  0  0  0  0  0  0  0  0
   -4.2386    5.8868    0.0000 H   0  0  0  0  0  0  0  0  0  0  0  0
   -3.9609    6.8348    0.0000 H   0  0  0  0  0  0  0  0  0  0  0  0
   -3.1715   -3.6941    0.0000 H   0  0  0  0  0  0  0  0  0  0  0  0
   -2.7592   -4.1318    0.0000 H   0  0  0  0  0  0  0  0  0  0  0  0
   -2.6287   -6.2189    0.0000 H   0  0  0  0  0  0  0  0  0  0  0  0
   -3.1784   -5.0244    0.0000 H   0  0  0  0  0  0  0  0  0  0  0  0
    0.7390   -6.8013    0.0000 H   0  0  0  0  0  0  0  0  0  0  0  0
    0.5151   -5.0309    0.0000 H   0  0  0  0  0  0  0  0  0  0  0  0
   -1.6898   -8.8010    0.0000 H   0  0  0  0  0  0  0  0  0  0  0  0
   -2.3354   -7.1374    0.0000 H   0  0  0  0  0  0  0  0  0  0  0  0
    1.7180   -8.4454    0.0000 H   0  0  0  0  0  0  0  0  0  0  0  0
    0.6921  -12.4829    0.0000 H   0  0  0  0  0  0  0  0  0  0  0  0
    2.5578  -10.9945    0.0000 H   0  0  0  0  0  0  0  0  0  0  0  0
   -1.8464  -11.9298    0.0000 H   0  0  0  0  0  0  0  0  0  0  0  0
   -2.6367   -9.4549    0.0000 H   0  0  0  0  0  0  0  0  0  0  0  0
    0.5705   -6.6155    0.0000 H   0  0  0  0  0  0  0  0  0  0  0  0
    1.5483   -6.7555    0.0000 H   0  0  0  0  0  0  0  0  0  0  0  0
    4.0718   -8.2094    0.0000 H   0  0  0  0  0  0  0  0  0  0  0  0
    4.5376   -6.6433    0.0000 H   0  0  0  0  0  0  0  0  0  0  0  0
    1.0725   -9.2743    0.0000 H   0  0  0  0  0  0  0  0  0  0  0  0
    1.0387   -7.2095    0.0000 H   0  0  0  0  0  0  0  0  0  0  0  0
    3.6402  -10.7713    0.0000 H   0  0  0  0  0  0  0  0  0  0  0  0
    4.0435   -9.0331    0.0000 H   0  0  0  0  0  0  0  0  0  0  0  0
    0.2164  -10.9021    0.0000 H   0  0  0  0  0  0  0  0  0  0  0  0
    1.8040  -14.7536    0.0000 H   0  0  0  0  0  0  0  0  0  0  0  0
   -0.1989  -13.0988    0.0000 H   0  0  0  0  0  0  0  0  0  0  0  0
    4.2385  -13.8464    0.0000 H   0  0  0  0  0  0  0  0  0  0  0  0
    4.6702  -11.2844    0.0000 H   0  0  0  0  0  0  0  0  0  0  0  0
    5.6513   -7.1840    0.0000 H   0  0  0  0  0  0  0  0  0  0  0  0
    6.5537   -6.7068    0.0000 H   0  0  0  0  0  0  0  0  0  0  0  0
    9.6404   -6.6097    0.0000 H   0  0  0  0  0  0  0  0  0  0  0  0
    9.1856   -5.0405    0.0000 H   0  0  0  0  0  0  0  0  0  0  0  0
    7.3490   -9.0031    0.0000 H   0  0  0  0  0  0  0  0  0  0  0  0
    6.5280   -7.5905    0.0000 H   0  0  0  0  0  0  0  0  0  0  0  0
   10.6624   -8.9984    0.0000 H   0  0  0  0  0  0  0  0  0  0  0  0
   10.0619   -7.3180    0.0000 H   0  0  0  0  0  0  0  0  0  0  0  0
    7.6690  -10.6433    0.0000 H   0  0  0  0  0  0  0  0  0  0  0  0
   11.2706  -13.3412    0.0000 H   0  0  0  0  0  0  0  0  0  0  0  0
    8.6910  -13.0319    0.0000 H   0  0  0  0  0  0  0  0  0  0  0  0
   12.8282  -11.2618    0.0000 H   0  0  0  0  0  0  0  0  0  0  0  0
   11.8063   -8.8732    0.0000 H   0  0  0  0  0  0  0  0  0  0  0  0
   10.4148   -4.8932    0.0000 H   0  0  0  0  0  0  0  0  0  0  0  0
   11.0894   -3.9450    0.0000 H   0  0  0  0  0  0  0  0  0  0  0  0
   13.4994   -2.4324    0.0000 H   0  0  0  0  0  0  0  0  0  0  0  0
   12.2291   -1.1792    0.0000 H   0  0  0  0  0  0  0  0  0  0  0  0
   10.5161   -5.7222    0.0000 H   0  0  0  0  0  0  0  0  0  0  0  0
   12.7424   -7.8944    0.0000 H   0  0  0  0  0  0  0  0  0  0  0  0
   15.9507   -7.8130    0.0000 H   0  0  0  0  0  0  0  0  0  0  0  0
   18.3183   -5.9705    0.0000 H   0  0  0  0  0  0  0  0  0  0  0  0
   17.9064   -2.9990    0.0000 H   0  0  0  0  0  0  0  0  0  0  0  0
   15.1270   -1.8699    0.0000 H   0  0  0  0  0  0  0  0  0  0  0  0
   13.1836   -0.3907    0.0000 H   0  0  0  0  0  0  0  0  0  0  0  0
   13.1243    0.6284    0.0000 H   0  0  0  0  0  0  0  0  0  0  0  0
   14.3183    3.4764    0.0000 H   0  0  0  0  0  0  0  0  0  0  0  0
   12.7019    3.7146    0.0000 H   0  0  0  0  0  0  0  0  0  0  0  0
   15.5435    0.3978    0.0000 H   0  0  0  0  0  0  0  0  0  0  0  0
   13.9175    0.2378    0.0000 H   0  0  0  0  0  0  0  0  0  0  0  0
   16.9156    3.4137    0.0000 H   0  0  0  0  0  0  0  0  0  0  0  0
   15.1377    3.5656    0.0000 H   0  0  0  0  0  0  0  0  0  0  0  0
   17.1684    0.0076    0.0000 H   0  0  0  0  0  0  0  0  0  0  0  0
   21.1187    2.1630    0.0000 H   0  0  0  0  0  0  0  0  0  0  0  0
   19.7658   -0.0551    0.0000 H   0  0  0  0  0  0  0  0  0  0  0  0
   19.8743    4.4436    0.0000 H   0  0  0  0  0  0  0  0  0  0  0  0
   17.2769    4.5063    0.0000 H   0  0  0  0  0  0  0  0  0  0  0  0
   13.0786    4.8939    0.0000 H   0  0  0  0  0  0  0  0  0  0  0  0
   12.4778    5.7192    0.0000 H   0  0  0  0  0  0  0  0  0  0  0  0
   11.9425    8.7606    0.0000 H   0  0  0  0  0  0  0  0  0  0  0  0
   10.4539    8.0871    0.0000 H   0  0  0  0  0  0  0  0  0  0  0  0
   14.6376    6.8331    0.0000 H   0  0  0  0  0  0  0  0  0  0  0  0
   13.3562    5.8194    0.0000 H   0  0  0  0  0  0  0  0  0  0  0  0
   14.1614   10.1121    0.0000 H   0  0  0  0  0  0  0  0  0  0  0  0
   12.5835    9.2787    0.0000 H   0  0  0  0  0  0  0  0  0  0  0  0
   16.2155    7.3834    0.0000 H   0  0  0  0  0  0  0  0  0  0  0  0
   18.3734   11.3323    0.0000 H   0  0  0  0  0  0  0  0  0  0  0  0
   18.4344    8.7349    0.0000 H   0  0  0  0  0  0  0  0  0  0  0  0
   16.0935   12.5781    0.0000 H   0  0  0  0  0  0  0  0  0  0  0  0
   13.8746   11.2266    0.0000 H   0  0  0  0  0  0  0  0  0  0  0  0
   10.1332    9.2829    0.0000 H   0  0  0  0  0  0  0  0  0  0  0  0
    6.0297   11.0737    0.0000 H   0  0  0  0  0  0  0  0  0  0  0  0
    7.2703   10.8587    0.0000 H   0  0  0  0  0  0  0  0  0  0  0  0
    4.4613   11.3400    0.0000 H   0  0  0  0  0  0  0  0  0  0  0  0
    5.5509   11.2938    0.0000 H   0  0  0  0  0  0  0  0  0  0  0  0
    2.7015   11.2348    0.0000 H   0  0  0  0  0  0  0  0  0  0  0  0
    3.9559   11.3441    0.0000 H   0  0  0  0  0  0  0  0  0  0  0  0
    0.9935   10.7985    0.0000 H   0  0  0  0  0  0  0  0  0  0  0  0
    2.2045   11.1432    0.0000 H   0  0  0  0  0  0  0  0  0  0  0  0
   -0.6011   10.0468    0.0000 H   0  0  0  0  0  0  0  0  0  0  0  0
    0.5228   10.6145    0.0000 H   0  0  0  0  0  0  0  0  0  0  0  0
   -2.0991    8.8395    0.0000 H   0  0  0  0  0  0  0  0  0  0  0  0
   -1.0285    9.7770    0.0000 H   0  0  0  0  0  0  0  0  0  0  0  0
   -2.9134    8.2803    0.0000 H   0  0  0  0  0  0  0  0  0  0  0  0
    9.2701   11.3058    0.0000 H   0  0  0  0  0  0  0  0  0  0  0  0
   10.5297   10.2652    0.0000 H   0  0  0  0  0  0  0  0  0  0  0  0
    9.9469    8.5786    0.0000 H   0  0  0  0  0  0  0  0  0  0  0  0
  1  2  1  0
  2  3  1  0
  3  4  1  0
  4  5  2  0
  4  6  1  0
  7  6  1  6
  7  8  1  0
  8  9  1  0
  9 10  1  0
 10 11  1  0
  7 12  1  0
  7 13  1  0
 13 14  2  0
 13 15  1  0
 15 16  1  0
 16 17  1  0
 17 18  1  0
 18 19  1  0
 19 20  1  0
 20 21  1  0
 21 22  2  3
 21 23  1  0
 16 24  1  0
 24 25  2  0
 24 26  1  0
 26 27  1  0
 27 28  1  0
 28 29  1  0
 29 30  1  0
 30 31  1  0
 31 32  1  0
 32 33  2  3
 32 34  1  0
 27 35  1  0
 35 36  2  0
 35 37  1  0
 37 38  1  0
 38 39  1  0
 39 40  1  0
 40 41  1  0
 41 42  1  0
 42 43  1  0
 43 44  2  3
 43 45  1  0
 38 46  1  0
 46 47  2  0
 46 48  1  0
 48 49  1  0
 49 50  1  0
 50 51  1  0
 51 52  1  0
 52 53  1  0
 49 54  1  0
 54 55  1  0
 55 56  1  0
 56 57  1  0
 49 58  1  0
 58 59  2  0
 58 60  1  0
 60 61  1  0
 61 62  1  0
 62 63  1  0
 63 64  1  0
 64 65  1  0
 65 66  1  0
 66 67  2  3
 66 68  1  0
 61 69  1  0
 69 70  2  0
 69 71  1  0
 71 72  1  0
 72 73  1  0
 73 74  1  0
 74 75  1  0
 75 76  1  0
 76 77  1  0
 77 78  2  3
 77 79  1  0
 72 80  1  0
 80 81  2  0
 80 82  1  0
 82 83  1  0
 83 84  1  0
 84 85  1  0
 85 86  1  0
 86 87  1  0
 87 88  1  0
 88 89  2  3
 88 90  1  0
 83 91  1  0
 91 92  2  0
 91 93  1  0
 93 94  1  0
 94 95  1  0
 95 96  1  0
 96 97  2  0
 97 98  1  0
 98 99  1  0
 99100  2  0
100101  1  0
101102  2  0
102103  1  0
103104  2  0
 94105  1  0
105106  2  0
105107  1  0
107108  1  0
108109  1  0
109110  1  0
110111  1  0
111112  1  0
112113  1  0
113114  2  3
113115  1  0
108116  1  0
116117  2  0
116118  1  0
118119  1  0
119120  1  0
120121  1  0
121122  1  0
122123  1  0
123124  1  0
124125  2  3
124126  1  0
119127  1  0
127128  2  0
127129  1  0
129130  1  0
130131  1  0
131132  1  0
132133  1  0
133134  1  0
134135  1  0
135136  1  0
136137  1  0
130138  1  0
130139  1  1
139140  2  0
139141  1  0
104 96  1  0
104 99  1  0
 11 53  2  0
 57137  2  0
  1142  1  0
  1143  1  0
  2144  1  0
  2145  1  0
  3146  1  0
  3147  1  0
  6148  1  0
  8149  1  0
  8150  1  0
  9151  1  0
  9152  1  0
 10153  1  0
 10154  1  0
 11155  1  0
 12156  1  0
 12157  1  0
 12158  1  0
 15159  1  0
 16160  1  1
 17161  1  0
 17162  1  0
 18163  1  0
 18164  1  0
 19165  1  0
 19166  1  0
 20167  1  0
 22168  1  0
 22169  1  0
 23170  1  0
 23171  1  0
 26172  1  0
 27173  1  1
 28174  1  0
 28175  1  0
 29176  1  0
 29177  1  0
 30178  1  0
 30179  1  0
 31180  1  0
 33181  1  0
 33182  1  0
 34183  1  0
 34184  1  0
 37185  1  0
 38186  1  1
 39187  1  0
 39188  1  0
 40189  1  0
 40190  1  0
 41191  1  0
 41192  1  0
 42193  1  0
 44194  1  0
 44195  1  0
 45196  1  0
 45197  1  0
 48198  1  0
 50199  1  0
 50200  1  0
 51201  1  0
 51202  1  0
 52203  1  0
 52204  1  0
 53205  1  0
 54206  1  0
 54207  1  0
 55208  1  0
 55209  1  0
 56210  1  0
 56211  1  0
 57212  1  0
 60213  1  0
 61214  1  6
 62215  1  0
 62216  1  0
 63217  1  0
 63218  1  0
 64219  1  0
 64220  1  0
 65221  1  0
 67222  1  0
 67223  1  0
 68224  1  0
 68225  1  0
 71226  1  0
 72227  1  6
 73228  1  0
 73229  1  0
 74230  1  0
 74231  1  0
 75232  1  0
 75233  1  0
 76234  1  0
 78235  1  0
 78236  1  0
 79237  1  0
 79238  1  0
 82239  1  0
 83240  1  6
 84241  1  0
 84242  1  0
 85243  1  0
 85244  1  0
 86245  1  0
 86246  1  0
 87247  1  0
 89248  1  0
 89249  1  0
 90250  1  0
 90251  1  0
 93252  1  0
 94253  1  6
 95254  1  0
 95255  1  0
 97256  1  0
 98257  1  0
100258  1  0
101259  1  0
102260  1  0
103261  1  0
107262  1  0
108263  1  6
109264  1  0
109265  1  0
110266  1  0
110267  1  0
111268  1  0
111269  1  0
112270  1  0
114271  1  0
114272  1  0
115273  1  0
115274  1  0
118275  1  0
119276  1  6
120277  1  0
120278  1  0
121279  1  0
121280  1  0
122281  1  0
122282  1  0
123283  1  0
125284  1  0
125285  1  0
126286  1  0
126287  1  0
129288  1  0
131289  1  0
131290  1  0
132291  1  0
132292  1  0
133293  1  0
133294  1  0
134295  1  0
134296  1  0
135297  1  0
135298  1  0
136299  1  0
136300  1  0
137301  1  0
138302  1  0
138303  1  0
138304  1  0
M  CHG  8  22   1  33   1  44   1  67   1  78   1  89   1 114   1 125   1
M  CHG  1 141  -1
M  END
