
     RDKit          2D

359359  0  0  0  0  0  0  0  0999 V2000
  -16.1970  -13.9850    0.0000 N   0  0  0  0  0  0  0  0  0  0  0  0
  -14.9427  -13.1623    0.0000 C   0  0  0  0  0  0  0  0  0  0  0  0
  -15.0280  -11.6648    0.0000 C   0  0  0  0  0  0  0  0  0  0  0  0
  -13.7738  -10.8421    0.0000 C   0  0  0  0  0  0  0  0  0  0  0  0
  -12.5264  -11.6753    0.0000 O   0  0  0  0  0  0  0  0  0  0  0  0
  -13.8591   -9.3445    0.0000 N   0  0  0  0  0  0  0  0  0  0  0  0
  -12.6048   -8.5219    0.0000 C   0  0  0  0  0  0  0  0  0  0  0  0
  -11.1905   -9.0218    0.0000 C   0  0  0  0  0  0  0  0  0  0  0  0
   -9.7072   -9.2450    0.0000 C   0  0  0  0  0  0  0  0  0  0  0  0
   -8.2085   -9.1834    0.0000 C   0  0  0  0  0  0  0  0  0  0  0  0
   -6.7485   -8.8394    0.0000 C   0  0  0  0  0  0  0  0  0  0  0  0
   -5.3800   -8.2252    0.0000 C   0  0  0  0  0  0  0  0  0  0  0  0
   -4.1524   -7.3632    0.0000 C   0  0  0  0  0  0  0  0  0  0  0  0
   -3.1102   -6.2844    0.0000 C   0  0  0  0  0  0  0  0  0  0  0  0
  -12.6075  -10.0219    0.0000 C   0  0  0  0  0  0  0  0  0  0  0  0
  -13.8989   -7.7633    0.0000 C   0  0  0  0  0  0  0  0  0  0  0  0
  -14.5010   -8.4129    0.0000 O   0  0  0  0  0  0  0  0  0  0  0  0
  -15.0260   -6.7736    0.0000 N   0  0  0  0  0  0  0  0  0  0  0  0
  -15.9455   -5.5885    0.0000 C   0  0  0  0  0  0  0  0  0  0  0  0
  -16.5991   -6.9386    0.0000 C   0  0  0  0  0  0  0  0  0  0  0  0
  -18.0951   -7.0477    0.0000 C   0  0  0  0  0  0  0  0  0  0  0  0
  -18.7487   -8.3978    0.0000 C   0  0  0  0  0  0  0  0  0  0  0  0
  -20.2447   -8.5069    0.0000 N   0  0  0  0  0  0  0  0  0  0  0  0
  -20.8983   -9.8570    0.0000 C   0  0  0  0  0  0  0  0  0  0  0  0
  -22.3943   -9.9660    0.0000 N   0  0  0  0  0  0  0  0  0  0  0  0
  -20.0558  -11.0981    0.0000 N   0  0  0  0  0  0  0  0  0  0  0  0
  -16.6241   -4.2508    0.0000 C   0  0  0  0  0  0  0  0  0  0  0  0
  -18.0767   -4.6248    0.0000 O   0  0  0  0  0  0  0  0  0  0  0  0
  -17.0372   -2.8088    0.0000 N   0  0  0  0  0  0  0  0  0  0  0  0
  -17.1700   -1.3147    0.0000 C   0  0  0  0  0  0  0  0  0  0  0  0
  -18.4497   -2.0971    0.0000 C   0  0  0  0  0  0  0  0  0  0  0  0
  -19.7672   -1.3800    0.0000 C   0  0  0  0  0  0  0  0  0  0  0  0
  -21.0470   -2.1625    0.0000 C   0  0  0  0  0  0  0  0  0  0  0  0
  -22.3645   -1.4454    0.0000 N   0  0  0  0  0  0  0  0  0  0  0  0
  -23.6442   -2.2279    0.0000 C   0  0  0  0  0  0  0  0  0  0  0  0
  -24.9618   -1.5108    0.0000 N   0  0  0  0  0  0  0  0  0  0  0  0
  -23.6065   -3.7274    0.0000 N   0  0  0  0  0  0  0  0  0  0  0  0
  -17.0176    0.1776    0.0000 C   0  0  0  0  0  0  0  0  0  0  0  0
  -18.4419    0.6482    0.0000 O   0  0  0  0  0  0  0  0  0  0  0  0
  -16.5856    1.6140    0.0000 N   0  0  0  0  0  0  0  0  0  0  0  0
  -15.8895    2.9427    0.0000 C   0  0  0  0  0  0  0  0  0  0  0  0
  -17.3891    2.9764    0.0000 C   0  0  0  0  0  0  0  0  0  0  0  0
  -18.1098    4.2919    0.0000 C   0  0  0  0  0  0  0  0  0  0  0  0
  -19.6094    4.3255    0.0000 C   0  0  0  0  0  0  0  0  0  0  0  0
  -20.3301    5.6411    0.0000 N   0  0  0  0  0  0  0  0  0  0  0  0
  -20.3884    3.0437    0.0000 O   0  0  0  0  0  0  0  0  0  0  0  0
  -14.9545    4.1157    0.0000 C   0  0  0  0  0  0  0  0  0  0  0  0
  -15.8982    5.2816    0.0000 O   0  0  0  0  0  0  0  0  0  0  0  0
  -13.8145    5.0905    0.0000 N   0  0  0  0  0  0  0  0  0  0  0  0
  -12.5105    5.8320    0.0000 C   0  0  0  0  0  0  0  0  0  0  0  0
  -13.7539    6.6710    0.0000 C   0  0  0  0  0  0  0  0  0  0  0  0
  -13.6490    8.1674    0.0000 C   0  0  0  0  0  0  0  0  0  0  0  0
  -14.8923    9.0064    0.0000 C   0  0  0  0  0  0  0  0  0  0  0  0
  -14.7874   10.5027    0.0000 N   0  0  0  0  0  0  0  0  0  0  0  0
  -16.0307   11.3418    0.0000 C   0  0  0  0  0  0  0  0  0  0  0  0
  -15.9258   12.8381    0.0000 N   0  0  0  0  0  0  0  0  0  0  0  0
  -17.3791   10.6845    0.0000 N   0  0  0  0  0  0  0  0  0  0  0  0
  -11.0899    6.3133    0.0000 C   0  0  0  0  0  0  0  0  0  0  0  0
  -11.2534    7.8043    0.0000 O   0  0  0  0  0  0  0  0  0  0  0  0
   -9.6038    6.5170    0.0000 N   0  0  0  0  0  0  0  0  0  0  0  0
   -8.1060    6.4358    0.0000 C   0  0  0  0  0  0  0  0  0  0  0  0
   -8.6983    7.8139    0.0000 C   0  0  0  0  0  0  0  0  0  0  0  0
   -7.8010    9.0159    0.0000 C   0  0  0  0  0  0  0  0  0  0  0  0
   -8.3934   10.3940    0.0000 C   0  0  0  0  0  0  0  0  0  0  0  0
   -7.4961   11.5960    0.0000 N   0  0  0  0  0  0  0  0  0  0  0  0
   -8.0885   12.9741    0.0000 C   0  0  0  0  0  0  0  0  0  0  0  0
   -7.1912   14.1761    0.0000 N   0  0  0  0  0  0  0  0  0  0  0  0
   -9.5781   13.1501    0.0000 N   0  0  0  0  0  0  0  0  0  0  0  0
   -6.6506    6.0726    0.0000 C   0  0  0  0  0  0  0  0  0  0  0  0
   -5.9820    7.4153    0.0000 O   0  0  0  0  0  0  0  0  0  0  0  0
   -5.2903    5.4405    0.0000 N   0  0  0  0  0  0  0  0  0  0  0  0
   -4.0741    4.5624    0.0000 C   0  0  0  0  0  0  0  0  0  0  0  0
   -3.8274    6.0420    0.0000 C   0  0  0  0  0  0  0  0  0  0  0  0
   -2.4227    6.5681    0.0000 C   0  0  0  0  0  0  0  0  0  0  0  0
   -2.1760    8.0477    0.0000 C   0  0  0  0  0  0  0  0  0  0  0  0
   -0.7713    8.5738    0.0000 N   0  0  0  0  0  0  0  0  0  0  0  0
   -0.5246   10.0534    0.0000 C   0  0  0  0  0  0  0  0  0  0  0  0
    0.8801   10.5795    0.0000 N   0  0  0  0  0  0  0  0  0  0  0  0
   -1.6825   11.0068    0.0000 N   0  0  0  0  0  0  0  0  0  0  0  0
   -3.0462    3.4700    0.0000 C   0  0  0  0  0  0  0  0  0  0  0  0
   -1.7578    4.2382    0.0000 O   0  0  0  0  0  0  0  0  0  0  0  0
   -2.2435    2.2029    0.0000 N   0  0  0  0  0  0  0  0  0  0  0  0
   -1.6952    0.8067    0.0000 C   0  0  0  0  0  0  0  0  0  0  0  0
   -1.4210   -0.6680    0.0000 C   0  0  0  0  0  0  0  0  0  0  0  0
   -1.4308   -2.1680    0.0000 C   0  0  0  0  0  0  0  0  0  0  0  0
   -1.7244   -3.6390    0.0000 C   0  0  0  0  0  0  0  0  0  0  0  0
   -2.2910   -5.0279    0.0000 C   0  0  0  0  0  0  0  0  0  0  0  0
   -0.2129    0.5764    0.0000 C   0  0  0  0  0  0  0  0  0  0  0  0
   -0.6877    1.9180    0.0000 C   0  0  0  0  0  0  0  0  0  0  0  0
   -0.9689    3.3914    0.0000 O   0  0  0  0  0  0  0  0  0  0  0  0
    0.7785    1.6011    0.0000 N   0  0  0  0  0  0  0  0  0  0  0  0
    1.7859    2.7125    0.0000 C   0  0  0  0  0  0  0  0  0  0  0  0
    2.3526    4.1013    0.0000 C   0  0  0  0  0  0  0  0  0  0  0  0
    3.8387    4.3050    0.0000 C   0  0  0  0  0  0  0  0  0  0  0  0
    4.4053    5.6939    0.0000 C   0  0  0  0  0  0  0  0  0  0  0  0
    5.8914    5.8976    0.0000 N   0  0  0  0  0  0  0  0  0  0  0  0
    6.4580    7.2865    0.0000 C   0  0  0  0  0  0  0  0  0  0  0  0
    7.9441    7.4902    0.0000 N   0  0  0  0  0  0  0  0  0  0  0  0
    5.5385    8.4716    0.0000 N   0  0  0  0  0  0  0  0  0  0  0  0
    3.2521    2.3956    0.0000 C   0  0  0  0  0  0  0  0  0  0  0  0
    3.7108    0.9675    0.0000 O   0  0  0  0  0  0  0  0  0  0  0  0
    4.2596    3.5069    0.0000 N   0  0  0  0  0  0  0  0  0  0  0  0
    5.7257    3.1901    0.0000 C   0  0  0  0  0  0  0  0  0  0  0  0
    7.2118    3.3938    0.0000 C   0  0  0  0  0  0  0  0  0  0  0  0
    7.7784    4.7827    0.0000 C   0  0  0  0  0  0  0  0  0  0  0  0
    9.2645    4.9864    0.0000 C   0  0  0  0  0  0  0  0  0  0  0  0
    9.8312    6.3752    0.0000 N   0  0  0  0  0  0  0  0  0  0  0  0
   10.1840    3.8012    0.0000 O   0  0  0  0  0  0  0  0  0  0  0  0
    6.1844    1.7619    0.0000 C   0  0  0  0  0  0  0  0  0  0  0  0
    5.1769    0.6506    0.0000 O   0  0  0  0  0  0  0  0  0  0  0  0
    7.6505    1.4451    0.0000 N   0  0  0  0  0  0  0  0  0  0  0  0
    8.1092    0.0169    0.0000 C   0  0  0  0  0  0  0  0  0  0  0  0
    8.0518   -1.4820    0.0000 C   0  0  0  0  0  0  0  0  0  0  0  0
    9.3212   -2.2812    0.0000 C   0  0  0  0  0  0  0  0  0  0  0  0
    9.2637   -3.7801    0.0000 C   0  0  0  0  0  0  0  0  0  0  0  0
   10.5331   -4.5792    0.0000 N   0  0  0  0  0  0  0  0  0  0  0  0
   10.4757   -6.0781    0.0000 C   0  0  0  0  0  0  0  0  0  0  0  0
   11.7450   -6.8773    0.0000 N   0  0  0  0  0  0  0  0  0  0  0  0
    9.1489   -6.7779    0.0000 N   0  0  0  0  0  0  0  0  0  0  0  0
    9.5754   -0.2999    0.0000 C   0  0  0  0  0  0  0  0  0  0  0  0
   10.5829    0.8114    0.0000 O   0  0  0  0  0  0  0  0  0  0  0  0
   10.0341   -1.7281    0.0000 N   0  0  0  0  0  0  0  0  0  0  0  0
   11.5002   -2.0449    0.0000 C   0  0  0  0  0  0  0  0  0  0  0  0
   12.7696   -2.8441    0.0000 C   0  0  0  0  0  0  0  0  0  0  0  0
   12.7122   -4.3430    0.0000 C   0  0  0  0  0  0  0  0  0  0  0  0
   13.9815   -5.1422    0.0000 C   0  0  0  0  0  0  0  0  0  0  0  0
   13.9241   -6.6411    0.0000 N   0  0  0  0  0  0  0  0  0  0  0  0
   15.1935   -7.4403    0.0000 C   0  0  0  0  0  0  0  0  0  0  0  0
   15.1360   -8.9392    0.0000 N   0  0  0  0  0  0  0  0  0  0  0  0
   16.5203   -6.7406    0.0000 N   0  0  0  0  0  0  0  0  0  0  0  0
   12.5077   -0.9336    0.0000 C   0  0  0  0  0  0  0  0  0  0  0  0
   12.0490    0.4946    0.0000 O   0  0  0  0  0  0  0  0  0  0  0  0
   13.9739   -1.2504    0.0000 N   0  0  0  0  0  0  0  0  0  0  0  0
   14.9813   -0.1391    0.0000 C   0  0  0  0  0  0  0  0  0  0  0  0
   15.5479    1.2497    0.0000 C   0  0  0  0  0  0  0  0  0  0  0  0
   17.0340    1.4535    0.0000 C   0  0  0  0  0  0  0  0  0  0  0  0
   17.6007    2.8423    0.0000 C   0  0  0  0  0  0  0  0  0  0  0  0
   19.0868    3.0460    0.0000 N   0  0  0  0  0  0  0  0  0  0  0  0
   19.6534    4.4349    0.0000 C   0  0  0  0  0  0  0  0  0  0  0  0
   21.1395    4.6386    0.0000 N   0  0  0  0  0  0  0  0  0  0  0  0
   18.7339    5.6200    0.0000 N   0  0  0  0  0  0  0  0  0  0  0  0
   16.4475   -0.4560    0.0000 C   0  0  0  0  0  0  0  0  0  0  0  0
   16.9062   -1.8841    0.0000 O   0  0  0  0  0  0  0  0  0  0  0  0
   17.4550    0.6553    0.0000 N   0  0  0  0  0  0  0  0  0  0  0  0
   18.9211    0.3385    0.0000 C   0  0  0  0  0  0  0  0  0  0  0  0
   20.4072    0.5422    0.0000 C   0  0  0  0  0  0  0  0  0  0  0  0
   20.9738    1.9311    0.0000 C   0  0  0  0  0  0  0  0  0  0  0  0
   22.4599    2.1348    0.0000 C   0  0  0  0  0  0  0  0  0  0  0  0
   23.0266    3.5237    0.0000 N   0  0  0  0  0  0  0  0  0  0  0  0
   24.5127    3.7274    0.0000 C   0  0  0  0  0  0  0  0  0  0  0  0
   25.0793    5.1162    0.0000 N   0  0  0  0  0  0  0  0  0  0  0  0
   25.4321    2.5422    0.0000 N   0  0  0  0  0  0  0  0  0  0  0  0
   19.3798   -1.0897    0.0000 C   0  0  0  0  0  0  0  0  0  0  0  0
   18.3723   -2.2010    0.0000 O   0  0  0  0  0  0  0  0  0  0  0  0
   20.8459   -1.4065    0.0000 N   0  0  0  0  0  0  0  0  0  0  0  0
   21.3046   -2.8346    0.0000 C   0  0  0  0  0  0  0  0  0  0  0  0
   21.2472   -4.3335    0.0000 C   0  0  0  0  0  0  0  0  0  0  0  0
   22.5166   -5.1327    0.0000 C   0  0  0  0  0  0  0  0  0  0  0  0
   22.4591   -6.6316    0.0000 C   0  0  0  0  0  0  0  0  0  0  0  0
   23.7285   -7.4308    0.0000 N   0  0  0  0  0  0  0  0  0  0  0  0
   23.6711   -8.9297    0.0000 C   0  0  0  0  0  0  0  0  0  0  0  0
   24.9404   -9.7289    0.0000 N   0  0  0  0  0  0  0  0  0  0  0  0
   22.3443   -9.6294    0.0000 N   0  0  0  0  0  0  0  0  0  0  0  0
   22.7708   -3.1515    0.0000 C   0  0  0  0  0  0  0  0  0  0  0  0
   23.4001   -4.5131    0.0000 O   0  0  0  0  0  0  0  0  0  0  0  0
   23.7783   -2.0402    0.0000 O   0  0  0  0  0  0  0  0  0  0  0  0
  -16.1117  -15.4826    0.0000 H   0  0  0  0  0  0  0  0  0  0  0  0
  -17.5366  -13.3101    0.0000 H   0  0  0  0  0  0  0  0  0  0  0  0
  -14.3504  -14.5404    0.0000 H   0  0  0  0  0  0  0  0  0  0  0  0
  -13.4827  -12.8183    0.0000 H   0  0  0  0  0  0  0  0  0  0  0  0
  -16.4881  -12.0088    0.0000 H   0  0  0  0  0  0  0  0  0  0  0  0
  -15.6204  -10.2867    0.0000 H   0  0  0  0  0  0  0  0  0  0  0  0
  -14.6094   -9.0753    0.0000 H   0  0  0  0  0  0  0  0  0  0  0  0
  -10.9094  -10.4952    0.0000 H   0  0  0  0  0  0  0  0  0  0  0  0
  -12.1310  -10.1903    0.0000 H   0  0  0  0  0  0  0  0  0  0  0  0
   -9.1523  -10.6385    0.0000 H   0  0  0  0  0  0  0  0  0  0  0  0
  -10.4096  -10.5704    0.0000 H   0  0  0  0  0  0  0  0  0  0  0  0
   -7.3998  -10.4468    0.0000 H   0  0  0  0  0  0  0  0  0  0  0  0
   -8.6473  -10.6178    0.0000 H   0  0  0  0  0  0  0  0  0  0  0  0
   -5.7154   -9.9269    0.0000 H   0  0  0  0  0  0  0  0  0  0  0  0
   -6.9079  -10.3309    0.0000 H   0  0  0  0  0  0  0  0  0  0  0  0
   -4.1597   -9.0975    0.0000 H   0  0  0  0  0  0  0  0  0  0  0  0
   -5.2543   -9.7199    0.0000 H   0  0  0  0  0  0  0  0  0  0  0  0
   -2.7230   -7.8180    0.0000 H   0  0  0  0  0  0  0  0  0  0  0  0
   -3.7461   -8.8071    0.0000 H   0  0  0  0  0  0  0  0  0  0  0  0
   -1.9372   -7.2194    0.0000 H   0  0  0  0  0  0  0  0  0  0  0  0
  -13.3787  -11.1311    0.0000 H   0  0  0  0  0  0  0  0  0  0  0  0
  -11.5908  -11.2338    0.0000 H   0  0  0  0  0  0  0  0  0  0  0  0
  -10.9294   -9.9799    0.0000 H   0  0  0  0  0  0  0  0  0  0  0  0
  -15.9849   -7.9271    0.0000 H   0  0  0  0  0  0  0  0  0  0  0  0
  -17.4359   -5.4195    0.0000 H   0  0  0  0  0  0  0  0  0  0  0  0
  -16.7515   -8.4309    0.0000 H   0  0  0  0  0  0  0  0  0  0  0  0
  -15.2979   -7.6849    0.0000 H   0  0  0  0  0  0  0  0  0  0  0  0
  -19.5382   -6.6385    0.0000 H   0  0  0  0  0  0  0  0  0  0  0  0
  -18.3083   -5.5629    0.0000 H   0  0  0  0  0  0  0  0  0  0  0  0
  -18.9011   -9.8900    0.0000 H   0  0  0  0  0  0  0  0  0  0  0  0
  -17.3662   -8.9799    0.0000 H   0  0  0  0  0  0  0  0  0  0  0  0
  -21.0872   -7.2658    0.0000 H   0  0  0  0  0  0  0  0  0  0  0  0
  -23.0479  -11.3162    0.0000 H   0  0  0  0  0  0  0  0  0  0  0  0
  -23.2368   -8.7250    0.0000 H   0  0  0  0  0  0  0  0  0  0  0  0
  -20.7094  -12.4482    0.0000 H   0  0  0  0  0  0  0  0  0  0  0  0
  -18.5598  -10.9890    0.0000 H   0  0  0  0  0  0  0  0  0  0  0  0
  -18.4675   -3.2607    0.0000 H   0  0  0  0  0  0  0  0  0  0  0  0
  -18.3325   -0.3667    0.0000 H   0  0  0  0  0  0  0  0  0  0  0  0
  -19.3847   -3.2701    0.0000 H   0  0  0  0  0  0  0  0  0  0  0  0
  -17.7585   -3.4284    0.0000 H   0  0  0  0  0  0  0  0  0  0  0  0
  -20.7600   -0.2556    0.0000 H   0  0  0  0  0  0  0  0  0  0  0  0
  -19.1439   -0.0157    0.0000 H   0  0  0  0  0  0  0  0  0  0  0  0
  -21.9820   -3.3355    0.0000 H   0  0  0  0  0  0  0  0  0  0  0  0
  -20.1987   -3.3996    0.0000 H   0  0  0  0  0  0  0  0  0  0  0  0
  -22.4022    0.0541    0.0000 H   0  0  0  0  0  0  0  0  0  0  0  0
  -26.2415   -2.2933    0.0000 H   0  0  0  0  0  0  0  0  0  0  0  0
  -24.9995   -0.0113    0.0000 H   0  0  0  0  0  0  0  0  0  0  0  0
  -24.8863   -4.5099    0.0000 H   0  0  0  0  0  0  0  0  0  0  0  0
  -22.2890   -4.4445    0.0000 H   0  0  0  0  0  0  0  0  0  0  0  0
  -18.0331    2.0071    0.0000 H   0  0  0  0  0  0  0  0  0  0  0  0
  -16.3549    4.3687    0.0000 H   0  0  0  0  0  0  0  0  0  0  0  0
  -18.8579    2.6718    0.0000 H   0  0  0  0  0  0  0  0  0  0  0  0
  -17.5274    1.4828    0.0000 H   0  0  0  0  0  0  0  0  0  0  0  0
  -18.3371    5.7746    0.0000 H   0  0  0  0  0  0  0  0  0  0  0  0
  -16.8478    5.1027    0.0000 H   0  0  0  0  0  0  0  0  0  0  0  0
  -21.8297    5.6747    0.0000 H   0  0  0  0  0  0  0  0  0  0  0  0
  -19.5511    6.9230    0.0000 H   0  0  0  0  0  0  0  0  0  0  0  0
  -14.8197    6.2038    0.0000 H   0  0  0  0  0  0  0  0  0  0  0  0
  -12.1312    7.2832    0.0000 H   0  0  0  0  0  0  0  0  0  0  0  0
  -15.2093    7.0342    0.0000 H   0  0  0  0  0  0  0  0  0  0  0  0
  -14.6777    5.4893    0.0000 H   0  0  0  0  0  0  0  0  0  0  0  0
  -13.0386    9.5375    0.0000 H   0  0  0  0  0  0  0  0  0  0  0  0
  -12.1490    8.1671    0.0000 H   0  0  0  0  0  0  0  0  0  0  0  0
  -16.3477    9.3696    0.0000 H   0  0  0  0  0  0  0  0  0  0  0  0
  -15.6652    7.7209    0.0000 H   0  0  0  0  0  0  0  0  0  0  0  0
  -13.4390   11.1600    0.0000 H   0  0  0  0  0  0  0  0  0  0  0  0
  -17.1692   13.6772    0.0000 H   0  0  0  0  0  0  0  0  0  0  0  0
  -14.5774   13.4954    0.0000 H   0  0  0  0  0  0  0  0  0  0  0  0
  -18.6225   11.5236    0.0000 H   0  0  0  0  0  0  0  0  0  0  0  0
  -17.4840    9.1882    0.0000 H   0  0  0  0  0  0  0  0  0  0  0  0
   -9.8475    7.9970    0.0000 H   0  0  0  0  0  0  0  0  0  0  0  0
   -7.0022    7.4515    0.0000 H   0  0  0  0  0  0  0  0  0  0  0  0
   -9.7263    8.9062    0.0000 H   0  0  0  0  0  0  0  0  0  0  0  0
  -10.1144    7.3191    0.0000 H   0  0  0  0  0  0  0  0  0  0  0  0
   -6.5468    9.8386    0.0000 H   0  0  0  0  0  0  0  0  0  0  0  0
   -6.5393    8.2047    0.0000 H   0  0  0  0  0  0  0  0  0  0  0  0
   -9.4214   11.4863    0.0000 H   0  0  0  0  0  0  0  0  0  0  0  0
   -9.7386    9.7303    0.0000 H   0  0  0  0  0  0  0  0  0  0  0  0
   -6.0065   11.4200    0.0000 H   0  0  0  0  0  0  0  0  0  0  0  0
   -7.7836   15.5542    0.0000 H   0  0  0  0  0  0  0  0  0  0  0  0
   -5.7016   14.0001    0.0000 H   0  0  0  0  0  0  0  0  0  0  0  0
  -10.1705   14.5282    0.0000 H   0  0  0  0  0  0  0  0  0  0  0  0
  -10.4754   11.9481    0.0000 H   0  0  0  0  0  0  0  0  0  0  0  0
   -4.6952    6.8174    0.0000 H   0  0  0  0  0  0  0  0  0  0  0  0
   -2.5965    4.8202    0.0000 H   0  0  0  0  0  0  0  0  0  0  0  0
   -4.1016    7.5167    0.0000 H   0  0  0  0  0  0  0  0  0  0  0  0
   -5.2862    6.3914    0.0000 H   0  0  0  0  0  0  0  0  0  0  0  0
   -0.9228    6.5821    0.0000 H   0  0  0  0  0  0  0  0  0  0  0  0
   -1.7998    5.2036    0.0000 H   0  0  0  0  0  0  0  0  0  0  0  0
   -2.4502    9.5224    0.0000 H   0  0  0  0  0  0  0  0  0  0  0  0
   -3.6664    8.2167    0.0000 H   0  0  0  0  0  0  0  0  0  0  0  0
    0.3867    7.6203    0.0000 H   0  0  0  0  0  0  0  0  0  0  0  0
    1.1269   12.0591    0.0000 H   0  0  0  0  0  0  0  0  0  0  0  0
    2.0381    9.6260    0.0000 H   0  0  0  0  0  0  0  0  0  0  0  0
   -1.4358   12.4864    0.0000 H   0  0  0  0  0  0  0  0  0  0  0  0
   -3.0873   10.4807    0.0000 H   0  0  0  0  0  0  0  0  0  0  0  0
   -0.9985    3.0394    0.0000 H   0  0  0  0  0  0  0  0  0  0  0  0
   -0.1206    0.0796    0.0000 H   0  0  0  0  0  0  0  0  0  0  0  0
   -0.0814   -1.3430    0.0000 H   0  0  0  0  0  0  0  0  0  0  0  0
    0.0365   -1.8565    0.0000 H   0  0  0  0  0  0  0  0  0  0  0  0
   -0.1403   -2.9326    0.0000 H   0  0  0  0  0  0  0  0  0  0  0  0
   -0.2392   -3.4283    0.0000 H   0  0  0  0  0  0  0  0  0  0  0  0
   -0.7316   -4.7634    0.0000 H   0  0  0  0  0  0  0  0  0  0  0  0
   -0.9623   -5.7239    0.0000 H   0  0  0  0  0  0  0  0  0  0  0  0
    0.5006   -0.9290    0.0000 H   0  0  0  0  0  0  0  0  0  0  0  0
    1.2246    0.3295    0.0000 H   0  0  0  0  0  0  0  0  0  0  0  0
    0.2147    1.8233    0.0000 H   0  0  0  0  0  0  0  0  0  0  0  0
    1.4078    0.2396    0.0000 H   0  0  0  0  0  0  0  0  0  0  0  0
    0.5166    3.5116    0.0000 H   0  0  0  0  0  0  0  0  0  0  0  0
    2.2268    5.5960    0.0000 H   0  0  0  0  0  0  0  0  0  0  0  0
    0.8864    4.4182    0.0000 H   0  0  0  0  0  0  0  0  0  0  0  0
    5.3325    4.1693    0.0000 H   0  0  0  0  0  0  0  0  0  0  0  0
    4.4918    2.9547    0.0000 H   0  0  0  0  0  0  0  0  0  0  0  0
    4.4627    7.1928    0.0000 H   0  0  0  0  0  0  0  0  0  0  0  0
    2.9887    6.1871    0.0000 H   0  0  0  0  0  0  0  0  0  0  0  0
    6.6595    4.6092    0.0000 H   0  0  0  0  0  0  0  0  0  0  0  0
    8.5107    8.8791    0.0000 H   0  0  0  0  0  0  0  0  0  0  0  0
    8.8636    6.3051    0.0000 H   0  0  0  0  0  0  0  0  0  0  0  0
    6.1051    9.8605    0.0000 H   0  0  0  0  0  0  0  0  0  0  0  0
    4.0524    8.2679    0.0000 H   0  0  0  0  0  0  0  0  0  0  0  0
    4.1601    5.0036    0.0000 H   0  0  0  0  0  0  0  0  0  0  0  0
    5.7831    4.6890    0.0000 H   0  0  0  0  0  0  0  0  0  0  0  0
    8.7057    3.2580    0.0000 H   0  0  0  0  0  0  0  0  0  0  0  0
    7.5188    1.9255    0.0000 H   0  0  0  0  0  0  0  0  0  0  0  0
    7.8359    6.2816    0.0000 H   0  0  0  0  0  0  0  0  0  0  0  0
    6.2792    4.7353    0.0000 H   0  0  0  0  0  0  0  0  0  0  0  0
   11.3173    6.5790    0.0000 H   0  0  0  0  0  0  0  0  0  0  0  0
    8.9117    7.5604    0.0000 H   0  0  0  0  0  0  0  0  0  0  0  0
    8.7860    2.4253    0.0000 H   0  0  0  0  0  0  0  0  0  0  0  0
    6.6231   -0.1868    0.0000 H   0  0  0  0  0  0  0  0  0  0  0  0
    7.3201   -2.7914    0.0000 H   0  0  0  0  0  0  0  0  0  0  0  0
    6.5856   -1.1651    0.0000 H   0  0  0  0  0  0  0  0  0  0  0  0
   10.7378   -2.7744    0.0000 H   0  0  0  0  0  0  0  0  0  0  0  0
   10.4736   -1.3210    0.0000 H   0  0  0  0  0  0  0  0  0  0  0  0
    8.6971   -5.1689    0.0000 H   0  0  0  0  0  0  0  0  0  0  0  0
    7.7699   -3.6443    0.0000 H   0  0  0  0  0  0  0  0  0  0  0  0
   11.7647   -3.7230    0.0000 H   0  0  0  0  0  0  0  0  0  0  0  0
   11.6876   -8.3762    0.0000 H   0  0  0  0  0  0  0  0  0  0  0  0
   13.0718   -6.1776    0.0000 H   0  0  0  0  0  0  0  0  0  0  0  0
    9.0914   -8.2768    0.0000 H   0  0  0  0  0  0  0  0  0  0  0  0
    7.8795   -5.9787    0.0000 H   0  0  0  0  0  0  0  0  0  0  0  0
    9.3254   -3.0501    0.0000 H   0  0  0  0  0  0  0  0  0  0  0  0
   10.9336   -3.4338    0.0000 H   0  0  0  0  0  0  0  0  0  0  0  0
   14.2358   -3.1609    0.0000 H   0  0  0  0  0  0  0  0  0  0  0  0
   13.6555   -1.6336    0.0000 H   0  0  0  0  0  0  0  0  0  0  0  0
   12.1455   -5.7318    0.0000 H   0  0  0  0  0  0  0  0  0  0  0  0
   11.3662   -3.6808    0.0000 H   0  0  0  0  0  0  0  0  0  0  0  0
   15.4477   -5.4590    0.0000 H   0  0  0  0  0  0  0  0  0  0  0  0
   14.7132   -3.8327    0.0000 H   0  0  0  0  0  0  0  0  0  0  0  0
   12.5973   -7.3408    0.0000 H   0  0  0  0  0  0  0  0  0  0  0  0
   16.4054   -9.7384    0.0000 H   0  0  0  0  0  0  0  0  0  0  0  0
   13.8092   -9.6389    0.0000 H   0  0  0  0  0  0  0  0  0  0  0  0
   17.7896   -7.5397    0.0000 H   0  0  0  0  0  0  0  0  0  0  0  0
   16.5777   -5.2417    0.0000 H   0  0  0  0  0  0  0  0  0  0  0  0
   14.6032   -2.6120    0.0000 H   0  0  0  0  0  0  0  0  0  0  0  0
   13.7120    0.6601    0.0000 H   0  0  0  0  0  0  0  0  0  0  0  0
   15.4222    2.7445    0.0000 H   0  0  0  0  0  0  0  0  0  0  0  0
   14.0818    1.5666    0.0000 H   0  0  0  0  0  0  0  0  0  0  0  0
   18.5279    1.3177    0.0000 H   0  0  0  0  0  0  0  0  0  0  0  0
   17.6872    0.1031    0.0000 H   0  0  0  0  0  0  0  0  0  0  0  0
   17.6581    4.3412    0.0000 H   0  0  0  0  0  0  0  0  0  0  0  0
   16.1841    3.3355    0.0000 H   0  0  0  0  0  0  0  0  0  0  0  0
   19.8549    1.7577    0.0000 H   0  0  0  0  0  0  0  0  0  0  0  0
   21.7061    6.0275    0.0000 H   0  0  0  0  0  0  0  0  0  0  0  0
   22.0590    3.4535    0.0000 H   0  0  0  0  0  0  0  0  0  0  0  0
   19.3005    7.0089    0.0000 H   0  0  0  0  0  0  0  0  0  0  0  0
   17.2478    5.4163    0.0000 H   0  0  0  0  0  0  0  0  0  0  0  0
   17.3555    2.1520    0.0000 H   0  0  0  0  0  0  0  0  0  0  0  0
   18.9785    1.8374    0.0000 H   0  0  0  0  0  0  0  0  0  0  0  0
   21.8734    0.2254    0.0000 H   0  0  0  0  0  0  0  0  0  0  0  0
   20.7142   -0.9260    0.0000 H   0  0  0  0  0  0  0  0  0  0  0  0
   21.0313    3.4300    0.0000 H   0  0  0  0  0  0  0  0  0  0  0  0
   19.4746    1.8837    0.0000 H   0  0  0  0  0  0  0  0  0  0  0  0
   23.9261    1.8180    0.0000 H   0  0  0  0  0  0  0  0  0  0  0  0
   22.5856    0.6401    0.0000 H   0  0  0  0  0  0  0  0  0  0  0  0
   22.1071    4.7088    0.0000 H   0  0  0  0  0  0  0  0  0  0  0  0
   26.5654    5.3200    0.0000 H   0  0  0  0  0  0  0  0  0  0  0  0
   24.1598    6.3014    0.0000 H   0  0  0  0  0  0  0  0  0  0  0  0
   26.9182    2.7460    0.0000 H   0  0  0  0  0  0  0  0  0  0  0  0
   24.8655    1.1534    0.0000 H   0  0  0  0  0  0  0  0  0  0  0  0
   21.9814   -0.4263    0.0000 H   0  0  0  0  0  0  0  0  0  0  0  0
   19.8185   -3.0384    0.0000 H   0  0  0  0  0  0  0  0  0  0  0  0
   20.5155   -5.6430    0.0000 H   0  0  0  0  0  0  0  0  0  0  0  0
   19.7810   -4.0167    0.0000 H   0  0  0  0  0  0  0  0  0  0  0  0
   23.9827   -5.4496    0.0000 H   0  0  0  0  0  0  0  0  0  0  0  0
   23.5434   -4.0393    0.0000 H   0  0  0  0  0  0  0  0  0  0  0  0
   21.8925   -8.0205    0.0000 H   0  0  0  0  0  0  0  0  0  0  0  0
   20.9653   -6.4959    0.0000 H   0  0  0  0  0  0  0  0  0  0  0  0
   25.0553   -6.7311    0.0000 H   0  0  0  0  0  0  0  0  0  0  0  0
   24.8830  -11.2278    0.0000 H   0  0  0  0  0  0  0  0  0  0  0  0
   26.2672   -9.0292    0.0000 H   0  0  0  0  0  0  0  0  0  0  0  0
   22.2868  -11.1283    0.0000 H   0  0  0  0  0  0  0  0  0  0  0  0
   21.0749   -8.8302    0.0000 H   0  0  0  0  0  0  0  0  0  0  0  0
  1  2  1  0
  2  3  1  0
  3  4  1  0
  4  5  2  0
  4  6  1  0
  7  6  1  1
  7  8  1  0
  8  9  1  0
  9 10  1  0
 10 11  1  0
 11 12  1  0
 12 13  1  0
 13 14  1  0
  7 15  1  0
  7 16  1  0
 16 17  2  0
 16 18  1  0
 18 19  1  0
 19 20  1  0
 20 21  1  0
 21 22  1  0
 22 23  1  0
 23 24  1  0
 24 25  2  3
 24 26  1  0
 19 27  1  0
 27 28  2  0
 27 29  1  0
 29 30  1  0
 30 31  1  0
 31 32  1  0
 32 33  1  0
 33 34  1  0
 34 35  1  0
 35 36  2  3
 35 37  1  0
 30 38  1  0
 38 39  2  0
 38 40  1  0
 40 41  1  0
 41 42  1  0
 42 43  1  0
 43 44  1  0
 44 45  1  0
 44 46  2  0
 41 47  1  0
 47 48  2  0
 47 49  1  0
 49 50  1  0
 50 51  1  0
 51 52  1  0
 52 53  1  0
 53 54  1  0
 54 55  1  0
 55 56  2  3
 55 57  1  0
 50 58  1  0
 58 59  2  0
 58 60  1  0
 60 61  1  0
 61 62  1  0
 62 63  1  0
 63 64  1  0
 64 65  1  0
 65 66  1  0
 66 67  2  3
 66 68  1  0
 61 69  1  0
 69 70  2  0
 69 71  1  0
 71 72  1  0
 72 73  1  0
 73 74  1  0
 74 75  1  0
 75 76  1  0
 76 77  1  0
 77 78  2  3
 77 79  1  0
 72 80  1  0
 80 81  2  0
 80 82  1  0
 82 83  1  0
 83 84  1  0
 84 85  1  0
 85 86  1  0
 86 87  1  0
 83 88  1  0
 83 89  1  6
 89 90  2  0
 89 91  1  0
 91 92  1  0
 92 93  1  0
 93 94  1  0
 94 95  1  0
 95 96  1  0
 96 97  1  0
 97 98  2  3
 97 99  1  0
 92100  1  0
100101  2  0
100102  1  0
102103  1  0
103104  1  0
104105  1  0
105106  1  0
106107  1  0
106108  2  0
103109  1  0
109110  2  0
109111  1  0
111112  1  0
112113  1  0
113114  1  0
114115  1  0
115116  1  0
116117  1  0
117118  2  3
117119  1  0
112120  1  0
120121  2  0
120122  1  0
122123  1  0
123124  1  0
124125  1  0
125126  1  0
126127  1  0
127128  1  0
128129  2  3
128130  1  0
123131  1  0
131132  2  0
131133  1  0
133134  1  0
134135  1  0
135136  1  0
136137  1  0
137138  1  0
138139  1  0
139140  2  3
139141  1  0
134142  1  0
142143  2  0
142144  1  0
144145  1  0
145146  1  0
146147  1  0
147148  1  0
148149  1  0
149150  1  0
150151  2  3
150152  1  0
145153  1  0
153154  2  0
153155  1  0
155156  1  0
156157  1  0
157158  1  0
158159  1  0
159160  1  0
160161  1  0
161162  2  3
161163  1  0
156164  1  0
164165  2  0
164166  1  0
 14 87  2  0
  1167  1  0
  1168  1  0
  2169  1  0
  2170  1  0
  3171  1  0
  3172  1  0
  6173  1  0
  8174  1  0
  8175  1  0
  9176  1  0
  9177  1  0
 10178  1  0
 10179  1  0
 11180  1  0
 11181  1  0
 12182  1  0
 12183  1  0
 13184  1  0
 13185  1  0
 14186  1  0
 15187  1  0
 15188  1  0
 15189  1  0
 18190  1  0
 19191  1  1
 20192  1  0
 20193  1  0
 21194  1  0
 21195  1  0
 22196  1  0
 22197  1  0
 23198  1  0
 25199  1  0
 25200  1  0
 26201  1  0
 26202  1  0
 29203  1  0
 30204  1  1
 31205  1  0
 31206  1  0
 32207  1  0
 32208  1  0
 33209  1  0
 33210  1  0
 34211  1  0
 36212  1  0
 36213  1  0
 37214  1  0
 37215  1  0
 40216  1  0
 41217  1  1
 42218  1  0
 42219  1  0
 43220  1  0
 43221  1  0
 45222  1  0
 45223  1  0
 49224  1  0
 50225  1  1
 51226  1  0
 51227  1  0
 52228  1  0
 52229  1  0
 53230  1  0
 53231  1  0
 54232  1  0
 56233  1  0
 56234  1  0
 57235  1  0
 57236  1  0
 60237  1  0
 61238  1  1
 62239  1  0
 62240  1  0
 63241  1  0
 63242  1  0
 64243  1  0
 64244  1  0
 65245  1  0
 67246  1  0
 67247  1  0
 68248  1  0
 68249  1  0
 71250  1  0
 72251  1  1
 73252  1  0
 73253  1  0
 74254  1  0
 74255  1  0
 75256  1  0
 75257  1  0
 76258  1  0
 78259  1  0
 78260  1  0
 79261  1  0
 79262  1  0
 82263  1  0
 84264  1  0
 84265  1  0
 85266  1  0
 85267  1  0
 86268  1  0
 86269  1  0
 87270  1  0
 88271  1  0
 88272  1  0
 88273  1  0
 91274  1  0
 92275  1  1
 93276  1  0
 93277  1  0
 94278  1  0
 94279  1  0
 95280  1  0
 95281  1  0
 96282  1  0
 98283  1  0
 98284  1  0
 99285  1  0
 99286  1  0
102287  1  0
103288  1  1
104289  1  0
104290  1  0
105291  1  0
105292  1  0
107293  1  0
107294  1  0
111295  1  0
112296  1  6
113297  1  0
113298  1  0
114299  1  0
114300  1  0
115301  1  0
115302  1  0
116303  1  0
118304  1  0
118305  1  0
119306  1  0
119307  1  0
122308  1  0
123309  1  6
124310  1  0
124311  1  0
125312  1  0
125313  1  0
126314  1  0
126315  1  0
127316  1  0
129317  1  0
129318  1  0
130319  1  0
130320  1  0
133321  1  0
134322  1  1
135323  1  0
135324  1  0
136325  1  0
136326  1  0
137327  1  0
137328  1  0
138329  1  0
140330  1  0
140331  1  0
141332  1  0
141333  1  0
144334  1  0
145335  1  1
146336  1  0
146337  1  0
147338  1  0
147339  1  0
148340  1  0
148341  1  0
149342  1  0
151343  1  0
151344  1  0
152345  1  0
152346  1  0
155347  1  0
156348  1  6
157349  1  0
157350  1  0
158351  1  0
158352  1  0
159353  1  0
159354  1  0
160355  1  0
162356  1  0
162357  1  0
163358  1  0
163359  1  0
M  CHG  8  25   1  36   1  56   1  67   1  78   1  98   1 118   1 129   1
M  CHG  4 140   1 151   1 162   1 166  -1
M  END
