
     RDKit          2D

204212  0  0  0  0  0  0  0  0999 V2000
  -13.2628    0.4498    0.0000 C   0  0  0  0  0  0  0  0  0  0  0  0
  -14.0714   -0.8136    0.0000 N   0  0  0  0  0  0  0  0  0  0  0  0
  -15.5698   -0.7451    0.0000 C   0  0  0  0  0  0  0  0  0  0  0  0
  -16.2597    0.5868    0.0000 C   0  0  0  0  0  0  0  0  0  0  0  0
  -17.7581    0.6553    0.0000 C   0  0  0  0  0  0  0  0  0  0  0  0
  -18.5667   -0.6081    0.0000 C   0  0  0  0  0  0  0  0  0  0  0  0
  -17.8768   -1.9401    0.0000 C   0  0  0  0  0  0  0  0  0  0  0  0
  -16.3783   -2.0086    0.0000 C   0  0  0  0  0  0  0  0  0  0  0  0
  -18.9303   -3.0078    0.0000 C   0  0  0  0  0  0  0  0  0  0  0  0
  -20.2714   -2.3357    0.0000 O   0  0  0  0  0  0  0  0  0  0  0  0
  -20.0466   -0.8527    0.0000 C   0  0  0  0  0  0  0  0  0  0  0  0
  -21.1143    0.2009    0.0000 O   0  0  0  0  0  0  0  0  0  0  0  0
  -20.0897   -3.9595    0.0000 C   0  0  0  0  0  0  0  0  0  0  0  0
  -19.8452   -5.4394    0.0000 C   0  0  0  0  0  0  0  0  0  0  0  0
  -21.0046   -6.3912    0.0000 C   0  0  0  0  0  0  0  0  0  0  0  0
  -22.4085   -5.8630    0.0000 C   0  0  0  0  0  0  0  0  0  0  0  0
  -22.6530   -4.3831    0.0000 C   0  0  0  0  0  0  0  0  0  0  0  0
  -21.4937   -3.4313    0.0000 C   0  0  0  0  0  0  0  0  0  0  0  0
  -23.5679   -6.8147    0.0000 O   0  0  0  0  0  0  0  0  0  0  0  0
  -18.4413   -5.9676    0.0000 O   0  0  0  0  0  0  0  0  0  0  0  0
  -17.2819   -5.0159    0.0000 C   0  0  0  0  0  0  0  0  0  0  0  0
  -17.5264   -3.5360    0.0000 C   0  0  0  0  0  0  0  0  0  0  0  0
  -16.2529   -3.2749    0.0000 C   0  0  0  0  0  0  0  0  0  0  0  0
  -15.5041   -3.5566    0.0000 C   0  0  0  0  0  0  0  0  0  0  0  0
  -15.3737   -4.3459    0.0000 C   0  0  0  0  0  0  0  0  0  0  0  0
  -15.9921   -4.8535    0.0000 C   0  0  0  0  0  0  0  0  0  0  0  0
  -13.3146   -5.1206    0.0000 O   0  0  0  0  0  0  0  0  0  0  0  0
  -13.9527    1.7817    0.0000 S   0  0  0  0  0  0  0  0  0  0  0  0
  -11.7644    0.3813    0.0000 N   0  0  0  0  0  0  0  0  0  0  0  0
  -10.9558    1.6447    0.0000 C   0  0  0  0  0  0  0  0  0  0  0  0
   -9.4574    1.5762    0.0000 C   0  0  0  0  0  0  0  0  0  0  0  0
   -8.6489    2.8396    0.0000 C   0  0  0  0  0  0  0  0  0  0  0  0
   -9.4960    4.0775    0.0000 O   0  0  0  0  0  0  0  0  0  0  0  0
   -7.1504    2.7711    0.0000 N   0  0  0  0  0  0  0  0  0  0  0  0
   -6.3419    4.0346    0.0000 C   0  0  0  0  0  0  0  0  0  0  0  0
   -7.7265    4.6114    0.0000 C   0  0  0  0  0  0  0  0  0  0  0  0
   -5.1500    4.9453    0.0000 C   0  0  0  0  0  0  0  0  0  0  0  0
   -5.4406    5.6875    0.0000 O   0  0  0  0  0  0  0  0  0  0  0  0
   -3.7653    4.3684    0.0000 N   0  0  0  0  0  0  0  0  0  0  0  0
   -2.5734    5.2791    0.0000 C   0  0  0  0  0  0  0  0  0  0  0  0
   -3.6773    6.2947    0.0000 C   0  0  0  0  0  0  0  0  0  0  0  0
   -5.1088    5.8466    0.0000 C   0  0  0  0  0  0  0  0  0  0  0  0
   -6.2126    6.8623    0.0000 S   0  0  0  0  0  0  0  0  0  0  0  0
   -7.6441    6.4141    0.0000 C   0  0  0  0  0  0  0  0  0  0  0  0
   -1.1419    5.7272    0.0000 C   0  0  0  0  0  0  0  0  0  0  0  0
   -0.9951    7.2200    0.0000 O   0  0  0  0  0  0  0  0  0  0  0  0
   -0.0381    4.7115    0.0000 N   0  0  0  0  0  0  0  0  0  0  0  0
    1.3934    5.1597    0.0000 C   0  0  0  0  0  0  0  0  0  0  0  0
    2.0888    6.4888    0.0000 C   0  0  0  0  0  0  0  0  0  0  0  0
    3.2398    7.4506    0.0000 C   0  0  0  0  0  0  0  0  0  0  0  0
    4.6713    7.8987    0.0000 C   0  0  0  0  0  0  0  0  0  0  0  0
    6.1653    7.7649    0.0000 C   0  0  0  0  0  0  0  0  0  0  0  0
    0.2984    6.1849    0.0000 C   0  0  0  0  0  0  0  0  0  0  0  0
    1.2596    3.6656    0.0000 C   0  0  0  0  0  0  0  0  0  0  0  0
   -0.2012    3.3248    0.0000 O   0  0  0  0  0  0  0  0  0  0  0  0
    1.7077    2.2341    0.0000 N   0  0  0  0  0  0  0  0  0  0  0  0
    2.6695    1.0831    0.0000 C   0  0  0  0  0  0  0  0  0  0  0  0
    1.2380    0.6350    0.0000 C   0  0  0  0  0  0  0  0  0  0  0  0
    0.9104   -0.8288    0.0000 C   0  0  0  0  0  0  0  0  0  0  0  0
   -0.5211   -1.2769    0.0000 C   0  0  0  0  0  0  0  0  0  0  0  0
   -0.8488   -2.7407    0.0000 C   0  0  0  0  0  0  0  0  0  0  0  0
    0.2550   -3.7563    0.0000 C   0  0  0  0  0  0  0  0  0  0  0  0
   -0.0726   -5.2201    0.0000 O   0  0  0  0  0  0  0  0  0  0  0  0
    1.6865   -3.3082    0.0000 C   0  0  0  0  0  0  0  0  0  0  0  0
    2.0142   -1.8444    0.0000 C   0  0  0  0  0  0  0  0  0  0  0  0
    3.9986    0.3877    0.0000 C   0  0  0  0  0  0  0  0  0  0  0  0
    3.7545   -1.0923    0.0000 O   0  0  0  0  0  0  0  0  0  0  0  0
    5.4926    0.2539    0.0000 N   0  0  0  0  0  0  0  0  0  0  0  0
    6.9773    1.2956    0.0000 C   0  0  0  0  0  0  0  0  0  0  0  0
    7.6673    2.6275    0.0000 C   0  0  0  0  0  0  0  0  0  0  0  0
    8.8669    3.5281    0.0000 C   0  0  0  0  0  0  0  0  0  0  0  0
    7.5526    4.2511    0.0000 C   0  0  0  0  0  0  0  0  0  0  0  0
    7.0106    5.6497    0.0000 N   0  0  0  0  0  0  0  0  0  0  0  0
    7.4944    7.0695    0.0000 C   0  0  0  0  0  0  0  0  0  0  0  0
    8.7777    7.8462    0.0000 C   0  0  0  0  0  0  0  0  0  0  0  0
   10.2600    7.6163    0.0000 C   0  0  0  0  0  0  0  0  0  0  0  0
   11.2477    6.4874    0.0000 C   0  0  0  0  0  0  0  0  0  0  0  0
   11.2786    4.9877    0.0000 C   0  0  0  0  0  0  0  0  0  0  0  0
   10.3384    3.8190    0.0000 C   0  0  0  0  0  0  0  0  0  0  0  0
    6.9335   -0.2038    0.0000 C   0  0  0  0  0  0  0  0  0  0  0  0
    5.6640   -1.0028    0.0000 O   0  0  0  0  0  0  0  0  0  0  0  0
    7.5446   -1.5736    0.0000 N   0  0  0  0  0  0  0  0  0  0  0  0
    8.6895   -2.5427    0.0000 C   0  0  0  0  0  0  0  0  0  0  0  0
    7.3691   -3.2545    0.0000 C   0  0  0  0  0  0  0  0  0  0  0  0
    7.3253   -4.7538    0.0000 C   0  0  0  0  0  0  0  0  0  0  0  0
    6.0049   -5.4656    0.0000 C   0  0  0  0  0  0  0  0  0  0  0  0
    5.9611   -6.9649    0.0000 C   0  0  0  0  0  0  0  0  0  0  0  0
    4.6407   -7.6767    0.0000 N   0  0  0  0  0  0  0  0  0  0  0  0
   10.1415   -2.9191    0.0000 C   0  0  0  0  0  0  0  0  0  0  0  0
   10.0977   -4.4184    0.0000 O   0  0  0  0  0  0  0  0  0  0  0  0
   11.6130   -2.6282    0.0000 N   0  0  0  0  0  0  0  0  0  0  0  0
   12.8126   -1.7276    0.0000 C   0  0  0  0  0  0  0  0  0  0  0  0
   13.5026   -0.3957    0.0000 C   0  0  0  0  0  0  0  0  0  0  0  0
   13.5464    1.1037    0.0000 C   0  0  0  0  0  0  0  0  0  0  0  0
   12.9354    2.4735    0.0000 C   0  0  0  0  0  0  0  0  0  0  0  0
   11.7904    3.4426    0.0000 C   0  0  0  0  0  0  0  0  0  0  0  0
   14.2744   -2.0640    0.0000 C   0  0  0  0  0  0  0  0  0  0  0  0
   13.2127   -3.1732    0.0000 C   0  0  0  0  0  0  0  0  0  0  0  0
   12.2989   -4.3628    0.0000 O   0  0  0  0  0  0  0  0  0  0  0  0
   14.6647   -3.5496    0.0000 N   0  0  0  0  0  0  0  0  0  0  0  0
   15.0648   -4.9952    0.0000 C   0  0  0  0  0  0  0  0  0  0  0  0
   14.9463   -6.4906    0.0000 C   0  0  0  0  0  0  0  0  0  0  0  0
   13.5921   -7.1356    0.0000 C   0  0  0  0  0  0  0  0  0  0  0  0
   13.4736   -8.6309    0.0000 C   0  0  0  0  0  0  0  0  0  0  0  0
   12.0989   -7.2786    0.0000 C   0  0  0  0  0  0  0  0  0  0  0  0
   16.5168   -5.3716    0.0000 C   0  0  0  0  0  0  0  0  0  0  0  0
   17.0901   -6.7577    0.0000 O   0  0  0  0  0  0  0  0  0  0  0  0
   17.5687   -4.3023    0.0000 O   0  0  0  0  0  0  0  0  0  0  0  0
  -13.2243   -2.0515    0.0000 H   0  0  0  0  0  0  0  0  0  0  0  0
  -15.4511    1.8502    0.0000 H   0  0  0  0  0  0  0  0  0  0  0  0
  -18.4480    1.9872    0.0000 H   0  0  0  0  0  0  0  0  0  0  0  0
  -15.3867   -3.1340    0.0000 H   0  0  0  0  0  0  0  0  0  0  0  0
  -20.7601   -7.8711    0.0000 H   0  0  0  0  0  0  0  0  0  0  0  0
  -24.0570   -3.8549    0.0000 H   0  0  0  0  0  0  0  0  0  0  0  0
  -21.7382   -1.9514    0.0000 H   0  0  0  0  0  0  0  0  0  0  0  0
  -24.9718   -6.2865    0.0000 H   0  0  0  0  0  0  0  0  0  0  0  0
  -16.6115   -1.1043    0.0000 H   0  0  0  0  0  0  0  0  0  0  0  0
  -13.6963   -2.3091    0.0000 H   0  0  0  0  0  0  0  0  0  0  0  0
  -15.6334   -7.0240    0.0000 H   0  0  0  0  0  0  0  0  0  0  0  0
  -13.0701   -6.6005    0.0000 H   0  0  0  0  0  0  0  0  0  0  0  0
  -11.0745   -0.9507    0.0000 H   0  0  0  0  0  0  0  0  0  0  0  0
  -12.3405    2.2216    0.0000 H   0  0  0  0  0  0  0  0  0  0  0  0
  -10.6282    3.1085    0.0000 H   0  0  0  0  0  0  0  0  0  0  0  0
   -9.7851    0.1124    0.0000 H   0  0  0  0  0  0  0  0  0  0  0  0
   -8.0728    0.9993    0.0000 H   0  0  0  0  0  0  0  0  0  0  0  0
   -6.4605    1.4392    0.0000 H   0  0  0  0  0  0  0  0  0  0  0  0
   -5.2380    3.0189    0.0000 H   0  0  0  0  0  0  0  0  0  0  0  0
   -9.0205    3.8528    0.0000 H   0  0  0  0  0  0  0  0  0  0  0  0
   -8.9459    5.4850    0.0000 H   0  0  0  0  0  0  0  0  0  0  0  0
   -6.7700    5.7669    0.0000 H   0  0  0  0  0  0  0  0  0  0  0  0
   -3.5726    2.8808    0.0000 H   0  0  0  0  0  0  0  0  0  0  0  0
   -1.8835    3.9471    0.0000 H   0  0  0  0  0  0  0  0  0  0  0  0
   -4.3672    7.6267    0.0000 H   0  0  0  0  0  0  0  0  0  0  0  0
   -2.4854    7.2054    0.0000 H   0  0  0  0  0  0  0  0  0  0  0  0
   -6.1808    4.7974    0.0000 H   0  0  0  0  0  0  0  0  0  0  0  0
   -4.7617    4.3873    0.0000 H   0  0  0  0  0  0  0  0  0  0  0  0
   -8.7479    7.4298    0.0000 H   0  0  0  0  0  0  0  0  0  0  0  0
   -8.9381    5.6555    0.0000 H   0  0  0  0  0  0  0  0  0  0  0  0
   -6.9542    5.0822    0.0000 H   0  0  0  0  0  0  0  0  0  0  0  0
   -0.5417    3.2986    0.0000 H   0  0  0  0  0  0  0  0  0  0  0  0
    1.6406    7.9203    0.0000 H   0  0  0  0  0  0  0  0  0  0  0  0
    0.6222    6.8037    0.0000 H   0  0  0  0  0  0  0  0  0  0  0  0
    3.1905    8.9498    0.0000 H   0  0  0  0  0  0  0  0  0  0  0  0
    2.0054    8.3028    0.0000 H   0  0  0  0  0  0  0  0  0  0  0  0
    5.3667    9.2278    0.0000 H   0  0  0  0  0  0  0  0  0  0  0  0
    3.8570    9.1584    0.0000 H   0  0  0  0  0  0  0  0  0  0  0  0
    6.5880    9.2041    0.0000 H   0  0  0  0  0  0  0  0  0  0  0  0
   -1.0381    6.3825    0.0000 H   0  0  0  0  0  0  0  0  0  0  0  0
    0.1115    7.7558    0.0000 H   0  0  0  0  0  0  0  0  0  0  0  0
    1.3239    7.5139    0.0000 H   0  0  0  0  0  0  0  0  0  0  0  0
    0.3134    1.6812    0.0000 H   0  0  0  0  0  0  0  0  0  0  0  0
    2.5357   -0.4109    0.0000 H   0  0  0  0  0  0  0  0  0  0  0  0
   -0.2604    0.7035    0.0000 H   0  0  0  0  0  0  0  0  0  0  0  0
    0.5249    1.9546    0.0000 H   0  0  0  0  0  0  0  0  0  0  0  0
   -1.6250   -0.2613    0.0000 H   0  0  0  0  0  0  0  0  0  0  0  0
   -2.2803   -3.1888    0.0000 H   0  0  0  0  0  0  0  0  0  0  0  0
    1.0312   -6.2358    0.0000 H   0  0  0  0  0  0  0  0  0  0  0  0
    2.7904   -4.3239    0.0000 H   0  0  0  0  0  0  0  0  0  0  0  0
    3.4897   -1.5742    0.0000 H   0  0  0  0  0  0  0  0  0  0  0  0
    5.4699   -1.2459    0.0000 H   0  0  0  0  0  0  0  0  0  0  0  0
    5.5253    1.6719    0.0000 H   0  0  0  0  0  0  0  0  0  0  0  0
    6.9293    3.9334    0.0000 H   0  0  0  0  0  0  0  0  0  0  0  0
    6.1676    2.6002    0.0000 H   0  0  0  0  0  0  0  0  0  0  0  0
    6.3117    3.4083    0.0000 H   0  0  0  0  0  0  0  0  0  0  0  0
    5.5109    5.6187    0.0000 H   0  0  0  0  0  0  0  0  0  0  0  0
    8.4868    9.3177    0.0000 H   0  0  0  0  0  0  0  0  0  0  0  0
   10.9830    8.9306    0.0000 H   0  0  0  0  0  0  0  0  0  0  0  0
   12.6463    7.0294    0.0000 H   0  0  0  0  0  0  0  0  0  0  0  0
   12.7469    4.6806    0.0000 H   0  0  0  0  0  0  0  0  0  0  0  0
    6.2442   -2.3213    0.0000 H   0  0  0  0  0  0  0  0  0  0  0  0
    9.0498   -3.9988    0.0000 H   0  0  0  0  0  0  0  0  0  0  0  0
    5.8695   -3.2892    0.0000 H   0  0  0  0  0  0  0  0  0  0  0  0
    6.4184   -2.0942    0.0000 H   0  0  0  0  0  0  0  0  0  0  0  0
    7.9670   -6.1096    0.0000 H   0  0  0  0  0  0  0  0  0  0  0  0
    8.8249   -4.7192    0.0000 H   0  0  0  0  0  0  0  0  0  0  0  0
    4.5053   -5.5003    0.0000 H   0  0  0  0  0  0  0  0  0  0  0  0
    5.3632   -4.1098    0.0000 H   0  0  0  0  0  0  0  0  0  0  0  0
    6.4327   -8.3889    0.0000 H   0  0  0  0  0  0  0  0  0  0  0  0
    7.4607   -6.9303    0.0000 H   0  0  0  0  0  0  0  0  0  0  0  0
    4.5969   -9.1760    0.0000 H   0  0  0  0  0  0  0  0  0  0  0  0
    3.1565   -7.8939    0.0000 H   0  0  0  0  0  0  0  0  0  0  0  0
    3.9990   -6.3209    0.0000 H   0  0  0  0  0  0  0  0  0  0  0  0
   12.0526   -4.0623    0.0000 H   0  0  0  0  0  0  0  0  0  0  0  0
   14.6206   -1.3958    0.0000 H   0  0  0  0  0  0  0  0  0  0  0  0
   14.9143    0.1113    0.0000 H   0  0  0  0  0  0  0  0  0  0  0  0
   14.9876    0.6877    0.0000 H   0  0  0  0  0  0  0  0  0  0  0  0
   14.7209    2.0368    0.0000 H   0  0  0  0  0  0  0  0  0  0  0  0
   14.4143    2.7240    0.0000 H   0  0  0  0  0  0  0  0  0  0  0  0
   13.4192    3.8934    0.0000 H   0  0  0  0  0  0  0  0  0  0  0  0
   12.6376    4.6805    0.0000 H   0  0  0  0  0  0  0  0  0  0  0  0
   15.1843   -3.0627    0.0000 H   0  0  0  0  0  0  0  0  0  0  0  0
   15.7597   -1.5194    0.0000 H   0  0  0  0  0  0  0  0  0  0  0  0
   14.8049   -0.4714    0.0000 H   0  0  0  0  0  0  0  0  0  0  0  0
   15.7166   -2.4803    0.0000 H   0  0  0  0  0  0  0  0  0  0  0  0
   13.5653   -4.9551    0.0000 H   0  0  0  0  0  0  0  0  0  0  0  0
   15.5196   -7.8767    0.0000 H   0  0  0  0  0  0  0  0  0  0  0  0
   16.4457   -6.5307    0.0000 H   0  0  0  0  0  0  0  0  0  0  0  0
   13.0187   -5.7495    0.0000 H   0  0  0  0  0  0  0  0  0  0  0  0
   12.2081   -9.4362    0.0000 H   0  0  0  0  0  0  0  0  0  0  0  0
   13.8736  -10.0766    0.0000 H   0  0  0  0  0  0  0  0  0  0  0  0
   14.9730   -8.6710    0.0000 H   0  0  0  0  0  0  0  0  0  0  0  0
   11.3144   -8.5571    0.0000 H   0  0  0  0  0  0  0  0  0  0  0  0
   10.6469   -6.9022    0.0000 H   0  0  0  0  0  0  0  0  0  0  0  0
   12.2174   -5.7833    0.0000 H   0  0  0  0  0  0  0  0  0  0  0  0
  1  2  1  0
  2  3  1  0
  3  4  2  0
  4  5  1  0
  5  6  2  0
  6  7  1  0
  7  8  2  0
  7  9  1  0
  9 10  1  0
 10 11  1  0
 11 12  2  0
  9 13  1  0
 13 14  1  0
 14 15  2  0
 15 16  1  0
 16 17  2  0
 17 18  1  0
 16 19  1  0
 14 20  1  0
 20 21  1  0
 21 22  2  0
 22 23  1  0
 23 24  2  0
 24 25  1  0
 25 26  2  0
 25 27  1  0
  1 28  2  0
  1 29  1  0
 29 30  1  0
 30 31  1  0
 31 32  1  0
 32 33  2  0
 32 34  1  0
 34 35  1  0
 35 36  1  0
 35 37  1  0
 37 38  2  0
 37 39  1  0
 39 40  1  0
 40 41  1  0
 41 42  1  0
 42 43  1  0
 43 44  1  0
 40 45  1  0
 45 46  2  0
 45 47  1  0
 48 47  1  1
 48 49  1  0
 49 50  1  0
 50 51  1  0
 51 52  1  0
 48 53  1  0
 48 54  1  0
 54 55  2  0
 54 56  1  0
 56 57  1  0
 57 58  1  0
 58 59  1  0
 59 60  2  0
 60 61  1  0
 61 62  2  0
 62 63  1  0
 62 64  1  0
 64 65  2  0
 57 66  1  0
 66 67  2  0
 66 68  1  0
 68 69  1  0
 69 70  1  0
 70 71  1  0
 71 72  2  0
 72 73  1  0
 73 74  1  0
 74 75  1  0
 75 76  2  0
 76 77  1  0
 77 78  2  0
 78 79  1  0
 69 80  1  0
 80 81  2  0
 80 82  1  0
 82 83  1  0
 83 84  1  0
 84 85  1  0
 85 86  1  0
 86 87  1  0
 87 88  1  0
 83 89  1  0
 89 90  2  0
 89 91  1  0
 91 92  1  0
 92 93  1  0
 93 94  1  0
 94 95  1  0
 95 96  1  0
 92 97  1  0
 92 98  1  1
 98 99  2  0
 98100  1  0
100101  1  0
101102  1  0
102103  1  0
103104  1  0
103105  1  0
101106  1  0
106107  2  0
106108  1  0
  8  3  1  0
 65 59  1  0
 79 71  1  0
 11  6  1  0
 52 74  2  0
 96 79  2  0
 18 13  2  0
 22  9  1  0
 26 21  1  0
  2109  1  0
  4110  1  0
  5111  1  0
  8112  1  0
 15113  1  0
 17114  1  0
 18115  1  0
 19116  1  0
 23117  1  0
 24118  1  0
 26119  1  0
 27120  1  0
 29121  1  0
 30122  1  0
 30123  1  0
 31124  1  0
 31125  1  0
 34126  1  0
 35127  1  1
 36128  1  0
 36129  1  0
 36130  1  0
 39131  1  0
 40132  1  1
 41133  1  0
 41134  1  0
 42135  1  0
 42136  1  0
 44137  1  0
 44138  1  0
 44139  1  0
 47140  1  0
 49141  1  0
 49142  1  0
 50143  1  0
 50144  1  0
 51145  1  0
 51146  1  0
 52147  1  0
 53148  1  0
 53149  1  0
 53150  1  0
 56151  1  0
 57152  1  6
 58153  1  0
 58154  1  0
 60155  1  0
 61156  1  0
 63157  1  0
 64158  1  0
 65159  1  0
 68160  1  0
 69161  1  1
 70162  1  0
 70163  1  0
 72164  1  0
 73165  1  0
 75166  1  0
 76167  1  0
 77168  1  0
 78169  1  0
 82170  1  0
 83171  1  6
 84172  1  0
 84173  1  0
 85174  1  0
 85175  1  0
 86176  1  0
 86177  1  0
 87178  1  0
 87179  1  0
 88180  1  0
 88181  1  0
 88182  1  0
 91183  1  0
 93184  1  0
 93185  1  0
 94186  1  0
 94187  1  0
 95188  1  0
 95189  1  0
 96190  1  0
 97191  1  0
 97192  1  0
 97193  1  0
100194  1  0
101195  1  6
102196  1  0
102197  1  0
103198  1  0
104199  1  0
104200  1  0
104201  1  0
105202  1  0
105203  1  0
105204  1  0
M  CHG  2  88   1 108  -1
M  END
