
     RDKit          2D

303310  0  0  0  0  0  0  0  0999 V2000
   25.2672   -3.0668    0.0000 C   0  0  0  0  0  0  0  0  0  0  0  0
   26.6728   -2.5431    0.0000 N   0  0  0  0  0  0  0  0  0  0  0  0
   27.8291   -3.4985    0.0000 C   0  0  0  0  0  0  0  0  0  0  0  0
   27.5799   -4.9777    0.0000 C   0  0  0  0  0  0  0  0  0  0  0  0
   28.7363   -5.9331    0.0000 C   0  0  0  0  0  0  0  0  0  0  0  0
   30.1419   -5.4093    0.0000 C   0  0  0  0  0  0  0  0  0  0  0  0
   30.3911   -3.9302    0.0000 C   0  0  0  0  0  0  0  0  0  0  0  0
   29.2347   -2.9748    0.0000 C   0  0  0  0  0  0  0  0  0  0  0  0
   31.8749   -3.7101    0.0000 C   0  0  0  0  0  0  0  0  0  0  0  0
   32.5427   -5.0533    0.0000 O   0  0  0  0  0  0  0  0  0  0  0  0
   31.4716   -6.1034    0.0000 C   0  0  0  0  0  0  0  0  0  0  0  0
   31.6917   -7.5872    0.0000 O   0  0  0  0  0  0  0  0  0  0  0  0
   33.3735   -3.6464    0.0000 C   0  0  0  0  0  0  0  0  0  0  0  0
   34.0676   -2.3166    0.0000 C   0  0  0  0  0  0  0  0  0  0  0  0
   35.5663   -2.2529    0.0000 C   0  0  0  0  0  0  0  0  0  0  0  0
   36.3708   -3.5189    0.0000 C   0  0  0  0  0  0  0  0  0  0  0  0
   35.6767   -4.8486    0.0000 C   0  0  0  0  0  0  0  0  0  0  0  0
   34.1780   -4.9124    0.0000 C   0  0  0  0  0  0  0  0  0  0  0  0
   37.8694   -3.4551    0.0000 O   0  0  0  0  0  0  0  0  0  0  0  0
   33.2631   -1.0506    0.0000 O   0  0  0  0  0  0  0  0  0  0  0  0
   31.7644   -1.1144    0.0000 C   0  0  0  0  0  0  0  0  0  0  0  0
   31.0703   -2.4441    0.0000 C   0  0  0  0  0  0  0  0  0  0  0  0
   29.8956   -1.8873    0.0000 C   0  0  0  0  0  0  0  0  0  0  0  0
   29.4665   -1.2122    0.0000 C   0  0  0  0  0  0  0  0  0  0  0  0
   29.8367   -0.5030    0.0000 C   0  0  0  0  0  0  0  0  0  0  0  0
   30.6360   -0.4690    0.0000 C   0  0  0  0  0  0  0  0  0  0  0  0
   28.6567    1.3538    0.0000 O   0  0  0  0  0  0  0  0  0  0  0  0
   25.0179   -4.5460    0.0000 S   0  0  0  0  0  0  0  0  0  0  0  0
   24.1108   -2.1114    0.0000 N   0  0  0  0  0  0  0  0  0  0  0  0
   22.7052   -2.6352    0.0000 C   0  0  0  0  0  0  0  0  0  0  0  0
   21.5488   -1.6798    0.0000 C   0  0  0  0  0  0  0  0  0  0  0  0
   20.1432   -2.2035    0.0000 C   0  0  0  0  0  0  0  0  0  0  0  0
   19.8940   -3.6826    0.0000 O   0  0  0  0  0  0  0  0  0  0  0  0
   18.9869   -1.2481    0.0000 N   0  0  0  0  0  0  0  0  0  0  0  0
   17.5813   -1.7718    0.0000 C   0  0  0  0  0  0  0  0  0  0  0  0
   16.4396   -2.7447    0.0000 C   0  0  0  0  0  0  0  0  0  0  0  0
   15.0262   -2.2424    0.0000 C   0  0  0  0  0  0  0  0  0  0  0  0
   13.8845   -3.2153    0.0000 N   0  0  0  0  0  0  0  0  0  0  0  0
   14.6964   -1.5167    0.0000 O   0  0  0  0  0  0  0  0  0  0  0  0
   16.4249   -0.8164    0.0000 C   0  0  0  0  0  0  0  0  0  0  0  0
   16.6741    0.6627    0.0000 O   0  0  0  0  0  0  0  0  0  0  0  0
   15.0193   -1.3401    0.0000 N   0  0  0  0  0  0  0  0  0  0  0  0
   13.8629   -0.3847    0.0000 C   0  0  0  0  0  0  0  0  0  0  0  0
   13.1031    0.9086    0.0000 C   0  0  0  0  0  0  0  0  0  0  0  0
   11.6031    0.8972    0.0000 C   0  0  0  0  0  0  0  0  0  0  0  0
   10.8433    2.1904    0.0000 C   0  0  0  0  0  0  0  0  0  0  0  0
    9.3531    2.3620    0.0000 O   0  0  0  0  0  0  0  0  0  0  0  0
   11.5834    3.4952    0.0000 O   0  0  0  0  0  0  0  0  0  0  0  0
   12.4574   -0.9085    0.0000 C   0  0  0  0  0  0  0  0  0  0  0  0
   12.0297   -2.3462    0.0000 O   0  0  0  0  0  0  0  0  0  0  0  0
   11.3010    0.0469    0.0000 N   0  0  0  0  0  0  0  0  0  0  0  0
    9.8954   -0.4768    0.0000 C   0  0  0  0  0  0  0  0  0  0  0  0
    8.7537   -1.4497    0.0000 C   0  0  0  0  0  0  0  0  0  0  0  0
    7.3403   -0.9474    0.0000 C   0  0  0  0  0  0  0  0  0  0  0  0
    6.1986   -1.9203    0.0000 C   0  0  0  0  0  0  0  0  0  0  0  0
    6.1839    0.0080    0.0000 C   0  0  0  0  0  0  0  0  0  0  0  0
    8.7390    0.4786    0.0000 C   0  0  0  0  0  0  0  0  0  0  0  0
    8.8061    1.9771    0.0000 O   0  0  0  0  0  0  0  0  0  0  0  0
    7.3334   -0.0451    0.0000 N   0  0  0  0  0  0  0  0  0  0  0  0
    6.1771    0.9103    0.0000 C   0  0  0  0  0  0  0  0  0  0  0  0
    5.4172    2.2036    0.0000 C   0  0  0  0  0  0  0  0  0  0  0  0
    6.1573    3.5083    0.0000 C   0  0  0  0  0  0  0  0  0  0  0  0
    5.3974    4.8016    0.0000 C   0  0  0  0  0  0  0  0  0  0  0  0
    6.1375    6.1063    0.0000 C   0  0  0  0  0  0  0  0  0  0  0  0
    5.3777    7.3996    0.0000 N   0  0  0  0  0  0  0  0  0  0  0  0
    4.7715    0.3865    0.0000 C   0  0  0  0  0  0  0  0  0  0  0  0
    4.3438   -1.0512    0.0000 O   0  0  0  0  0  0  0  0  0  0  0  0
    3.6151    1.3420    0.0000 N   0  0  0  0  0  0  0  0  0  0  0  0
    2.2095    0.8182    0.0000 C   0  0  0  0  0  0  0  0  0  0  0  0
    1.6721   -0.5822    0.0000 C   0  0  0  0  0  0  0  0  0  0  0  0
    0.7458   -1.7620    0.0000 C   0  0  0  0  0  0  0  0  0  0  0  0
   -0.4871   -2.6164    0.0000 C   0  0  0  0  0  0  0  0  0  0  0  0
   -1.9170   -3.0695    0.0000 C   0  0  0  0  0  0  0  0  0  0  0  0
    3.3870   -0.1110    0.0000 C   0  0  0  0  0  0  0  0  0  0  0  0
    2.3102    2.3148    0.0000 C   0  0  0  0  0  0  0  0  0  0  0  0
    3.7308    2.7964    0.0000 O   0  0  0  0  0  0  0  0  0  0  0  0
    1.9653    3.7746    0.0000 N   0  0  0  0  0  0  0  0  0  0  0  0
    1.2054    5.0679    0.0000 C   0  0  0  0  0  0  0  0  0  0  0  0
    1.6723    6.4934    0.0000 C   0  0  0  0  0  0  0  0  0  0  0  0
    3.1403    6.8018    0.0000 O   0  0  0  0  0  0  0  0  0  0  0  0
    0.0981    6.0798    0.0000 C   0  0  0  0  0  0  0  0  0  0  0  0
    0.9337    7.3256    0.0000 O   0  0  0  0  0  0  0  0  0  0  0  0
   -1.2582    6.7203    0.0000 N   0  0  0  0  0  0  0  0  0  0  0  0
   -2.7431    6.9326    0.0000 C   0  0  0  0  0  0  0  0  0  0  0  0
   -3.5665    8.1864    0.0000 C   0  0  0  0  0  0  0  0  0  0  0  0
   -2.8924    9.5264    0.0000 C   0  0  0  0  0  0  0  0  0  0  0  0
   -1.3948    9.6126    0.0000 C   0  0  0  0  0  0  0  0  0  0  0  0
   -0.7207   10.9525    0.0000 C   0  0  0  0  0  0  0  0  0  0  0  0
   -1.5441   12.2063    0.0000 C   0  0  0  0  0  0  0  0  0  0  0  0
   -3.0416   12.1202    0.0000 C   0  0  0  0  0  0  0  0  0  0  0  0
   -3.7157   10.7802    0.0000 C   0  0  0  0  0  0  0  0  0  0  0  0
   -4.2246    6.6978    0.0000 C   0  0  0  0  0  0  0  0  0  0  0  0
   -4.6777    8.1277    0.0000 O   0  0  0  0  0  0  0  0  0  0  0  0
   -5.5711    6.0367    0.0000 N   0  0  0  0  0  0  0  0  0  0  0  0
   -6.6629    5.0081    0.0000 C   0  0  0  0  0  0  0  0  0  0  0  0
   -8.1565    5.1461    0.0000 C   0  0  0  0  0  0  0  0  0  0  0  0
   -8.7838    6.5086    0.0000 C   0  0  0  0  0  0  0  0  0  0  0  0
   -7.9175    7.7331    0.0000 C   0  0  0  0  0  0  0  0  0  0  0  0
   -8.5448    9.0957    0.0000 C   0  0  0  0  0  0  0  0  0  0  0  0
  -10.0385    9.2336    0.0000 C   0  0  0  0  0  0  0  0  0  0  0  0
  -10.9048    8.0091    0.0000 C   0  0  0  0  0  0  0  0  0  0  0  0
  -10.2775    6.6466    0.0000 C   0  0  0  0  0  0  0  0  0  0  0  0
   -7.4030    3.7034    0.0000 C   0  0  0  0  0  0  0  0  0  0  0  0
   -8.8034    4.2407    0.0000 O   0  0  0  0  0  0  0  0  0  0  0  0
   -7.7256    2.2385    0.0000 N   0  0  0  0  0  0  0  0  0  0  0  0
   -7.6021    0.7436    0.0000 C   0  0  0  0  0  0  0  0  0  0  0  0
   -7.0435   -0.6485    0.0000 C   0  0  0  0  0  0  0  0  0  0  0  0
   -6.0994   -1.8141    0.0000 C   0  0  0  0  0  0  0  0  0  0  0  0
   -4.8536   -2.6497    0.0000 C   0  0  0  0  0  0  0  0  0  0  0  0
   -3.4170   -3.0809    0.0000 C   0  0  0  0  0  0  0  0  0  0  0  0
   -9.0155    1.2459    0.0000 C   0  0  0  0  0  0  0  0  0  0  0  0
   -8.6413   -0.3382    0.0000 C   0  0  0  0  0  0  0  0  0  0  0  0
   -8.5851   -1.8371    0.0000 O   0  0  0  0  0  0  0  0  0  0  0  0
  -10.0977    0.0209    0.0000 N   0  0  0  0  0  0  0  0  0  0  0  0
  -11.1368   -1.0608    0.0000 C   0  0  0  0  0  0  0  0  0  0  0  0
  -11.7434   -2.4327    0.0000 C   0  0  0  0  0  0  0  0  0  0  0  0
  -13.2347   -2.5934    0.0000 C   0  0  0  0  0  0  0  0  0  0  0  0
  -13.8412   -3.9654    0.0000 C   0  0  0  0  0  0  0  0  0  0  0  0
  -14.6911   -2.2344    0.0000 C   0  0  0  0  0  0  0  0  0  0  0  0
  -12.5932   -0.7018    0.0000 C   0  0  0  0  0  0  0  0  0  0  0  0
  -13.0105    0.7390    0.0000 O   0  0  0  0  0  0  0  0  0  0  0  0
  -13.6324   -1.7835    0.0000 N   0  0  0  0  0  0  0  0  0  0  0  0
  -15.0888   -1.4244    0.0000 C   0  0  0  0  0  0  0  0  0  0  0  0
  -16.3345   -0.5889    0.0000 C   0  0  0  0  0  0  0  0  0  0  0  0
  -16.2338    0.9077    0.0000 C   0  0  0  0  0  0  0  0  0  0  0  0
  -17.4796    1.7432    0.0000 C   0  0  0  0  0  0  0  0  0  0  0  0
  -17.3789    3.2398    0.0000 N   0  0  0  0  0  0  0  0  0  0  0  0
  -18.6246    4.0754    0.0000 C   0  0  0  0  0  0  0  0  0  0  0  0
  -18.5239    5.5720    0.0000 N   0  0  0  0  0  0  0  0  0  0  0  0
  -19.9711    3.4143    0.0000 N   0  0  0  0  0  0  0  0  0  0  0  0
  -16.1279   -2.5062    0.0000 C   0  0  0  0  0  0  0  0  0  0  0  0
  -15.8894   -3.9871    0.0000 O   0  0  0  0  0  0  0  0  0  0  0  0
  -17.5843   -2.1471    0.0000 N   0  0  0  0  0  0  0  0  0  0  0  0
  -18.6235   -3.2288    0.0000 C   0  0  0  0  0  0  0  0  0  0  0  0
  -19.2300   -4.6008    0.0000 C   0  0  0  0  0  0  0  0  0  0  0  0
  -20.7214   -4.7615    0.0000 C   0  0  0  0  0  0  0  0  0  0  0  0
  -21.3279   -6.1334    0.0000 O   0  0  0  0  0  0  0  0  0  0  0  0
  -21.8730   -3.8004    0.0000 O   0  0  0  0  0  0  0  0  0  0  0  0
  -20.0799   -2.8698    0.0000 C   0  0  0  0  0  0  0  0  0  0  0  0
  -20.4971   -1.4290    0.0000 O   0  0  0  0  0  0  0  0  0  0  0  0
  -21.1190   -3.9515    0.0000 N   0  0  0  0  0  0  0  0  0  0  0  0
  -22.5754   -3.5924    0.0000 C   0  0  0  0  0  0  0  0  0  0  0  0
  -23.8212   -2.7569    0.0000 C   0  0  0  0  0  0  0  0  0  0  0  0
  -25.1676   -3.4180    0.0000 C   0  0  0  0  0  0  0  0  0  0  0  0
  -26.4134   -2.5825    0.0000 C   0  0  0  0  0  0  0  0  0  0  0  0
  -27.8304   -3.0745    0.0000 N   0  0  0  0  0  0  0  0  0  0  0  0
  -26.3127   -1.0859    0.0000 O   0  0  0  0  0  0  0  0  0  0  0  0
  -23.6146   -4.6742    0.0000 C   0  0  0  0  0  0  0  0  0  0  0  0
  -23.1973   -6.1150    0.0000 O   0  0  0  0  0  0  0  0  0  0  0  0
  -25.0710   -4.3151    0.0000 N   0  0  0  0  0  0  0  0  0  0  0  0
  -26.1101   -5.3969    0.0000 C   0  0  0  0  0  0  0  0  0  0  0  0
  -26.7166   -6.7688    0.0000 C   0  0  0  0  0  0  0  0  0  0  0  0
  -28.2080   -6.9295    0.0000 C   0  0  0  0  0  0  0  0  0  0  0  0
  -26.8173   -8.2654    0.0000 C   0  0  0  0  0  0  0  0  0  0  0  0
  -25.5716   -9.1009    0.0000 C   0  0  0  0  0  0  0  0  0  0  0  0
  -27.5665   -5.0378    0.0000 C   0  0  0  0  0  0  0  0  0  0  0  0
  -28.7298   -5.9848    0.0000 O   0  0  0  0  0  0  0  0  0  0  0  0
  -28.1563   -3.6586    0.0000 O   0  0  0  0  0  0  0  0  0  0  0  0
   26.7398   -1.0446    0.0000 H   0  0  0  0  0  0  0  0  0  0  0  0
   26.1743   -5.5014    0.0000 H   0  0  0  0  0  0  0  0  0  0  0  0
   28.4870   -7.4122    0.0000 H   0  0  0  0  0  0  0  0  0  0  0  0
   29.1186   -1.4793    0.0000 H   0  0  0  0  0  0  0  0  0  0  0  0
   36.2604   -0.9231    0.0000 H   0  0  0  0  0  0  0  0  0  0  0  0
   36.4812   -6.1146    0.0000 H   0  0  0  0  0  0  0  0  0  0  0  0
   33.4839   -6.2421    0.0000 H   0  0  0  0  0  0  0  0  0  0  0  0
   38.6740   -4.7211    0.0000 H   0  0  0  0  0  0  0  0  0  0  0  0
   28.8776   -3.8376    0.0000 H   0  0  0  0  0  0  0  0  0  0  0  0
   27.2719   -1.1225    0.0000 H   0  0  0  0  0  0  0  0  0  0  0  0
   31.6540    1.4813    0.0000 H   0  0  0  0  0  0  0  0  0  0  0  0
   29.3508    2.6836    0.0000 H   0  0  0  0  0  0  0  0  0  0  0  0
   24.3600   -0.6323    0.0000 H   0  0  0  0  0  0  0  0  0  0  0  0
   21.5635   -3.6081    0.0000 H   0  0  0  0  0  0  0  0  0  0  0  0
   23.4651   -3.9285    0.0000 H   0  0  0  0  0  0  0  0  0  0  0  0
   20.7890   -0.3865    0.0000 H   0  0  0  0  0  0  0  0  0  0  0  0
   22.6905   -0.7069    0.0000 H   0  0  0  0  0  0  0  0  0  0  0  0
   19.2361    0.2311    0.0000 H   0  0  0  0  0  0  0  0  0  0  0  0
   18.3411   -3.0651    0.0000 H   0  0  0  0  0  0  0  0  0  0  0  0
   15.6995   -4.0494    0.0000 H   0  0  0  0  0  0  0  0  0  0  0  0
   17.5959   -3.7001    0.0000 H   0  0  0  0  0  0  0  0  0  0  0  0
   12.4204   -2.8891    0.0000 H   0  0  0  0  0  0  0  0  0  0  0  0
   14.1562   -4.6905    0.0000 H   0  0  0  0  0  0  0  0  0  0  0  0
   14.4196   -2.7150    0.0000 H   0  0  0  0  0  0  0  0  0  0  0  0
   15.0046    0.5882    0.0000 H   0  0  0  0  0  0  0  0  0  0  0  0
   12.8314    2.3837    0.0000 H   0  0  0  0  0  0  0  0  0  0  0  0
   14.5087    1.4323    0.0000 H   0  0  0  0  0  0  0  0  0  0  0  0
   10.1975    0.3734    0.0000 H   0  0  0  0  0  0  0  0  0  0  0  0
   11.1503   -0.5329    0.0000 H   0  0  0  0  0  0  0  0  0  0  0  0
   11.1849    1.5424    0.0000 H   0  0  0  0  0  0  0  0  0  0  0  0
   10.6552   -1.7701    0.0000 H   0  0  0  0  0  0  0  0  0  0  0  0
    8.1782   -2.8349    0.0000 H   0  0  0  0  0  0  0  0  0  0  0  0
    9.9101   -2.4051    0.0000 H   0  0  0  0  0  0  0  0  0  0  0  0
    7.3811    0.5520    0.0000 H   0  0  0  0  0  0  0  0  0  0  0  0
    4.6991   -1.9580    0.0000 H   0  0  0  0  0  0  0  0  0  0  0  0
    5.4585   -3.2250    0.0000 H   0  0  0  0  0  0  0  0  0  0  0  0
    7.2299   -3.0095    0.0000 H   0  0  0  0  0  0  0  0  0  0  0  0
    4.8526   -0.6832    0.0000 H   0  0  0  0  0  0  0  0  0  0  0  0
    5.4241    1.3013    0.0000 H   0  0  0  0  0  0  0  0  0  0  0  0
    7.4357    0.8345    0.0000 H   0  0  0  0  0  0  0  0  0  0  0  0
    6.7337   -1.4200    0.0000 H   0  0  0  0  0  0  0  0  0  0  0  0
    7.3188    1.8832    0.0000 H   0  0  0  0  0  0  0  0  0  0  0  0
    4.3859    3.2928    0.0000 H   0  0  0  0  0  0  0  0  0  0  0  0
    4.1654    1.3771    0.0000 H   0  0  0  0  0  0  0  0  0  0  0  0
    7.4091    4.3348    0.0000 H   0  0  0  0  0  0  0  0  0  0  0  0
    7.4215    2.7010    0.0000 H   0  0  0  0  0  0  0  0  0  0  0  0
    4.1332    5.6089    0.0000 H   0  0  0  0  0  0  0  0  0  0  0  0
    4.1457    3.9751    0.0000 H   0  0  0  0  0  0  0  0  0  0  0  0
    7.2792    7.0792    0.0000 H   0  0  0  0  0  0  0  0  0  0  0  0
    7.4017    5.2990    0.0000 H   0  0  0  0  0  0  0  0  0  0  0  0
    6.1178    8.7043    0.0000 H   0  0  0  0  0  0  0  0  0  0  0  0
    4.3464    8.4888    0.0000 H   0  0  0  0  0  0  0  0  0  0  0  0
    4.1259    6.5731    0.0000 H   0  0  0  0  0  0  0  0  0  0  0  0
    3.8643    2.8211    0.0000 H   0  0  0  0  0  0  0  0  0  0  0  0
    3.1690   -0.6792    0.0000 H   0  0  0  0  0  0  0  0  0  0  0  0
    2.3666   -1.9118    0.0000 H   0  0  0  0  0  0  0  0  0  0  0  0
    2.0721   -2.4629    0.0000 H   0  0  0  0  0  0  0  0  0  0  0  0
    1.1953   -3.1931    0.0000 H   0  0  0  0  0  0  0  0  0  0  0  0
    0.6951   -3.5398    0.0000 H   0  0  0  0  0  0  0  0  0  0  0  0
   -0.6622   -4.1062    0.0000 H   0  0  0  0  0  0  0  0  0  0  0  0
   -1.6822   -4.5510    0.0000 H   0  0  0  0  0  0  0  0  0  0  0  0
    3.2683   -1.7727    0.0000 H   0  0  0  0  0  0  0  0  0  0  0  0
    4.2608   -1.2789    0.0000 H   0  0  0  0  0  0  0  0  0  0  0  0
    4.4718    0.6379    0.0000 H   0  0  0  0  0  0  0  0  0  0  0  0
    3.3574    4.3333    0.0000 H   0  0  0  0  0  0  0  0  0  0  0  0
    2.6968    5.2286    0.0000 H   0  0  0  0  0  0  0  0  0  0  0  0
    1.6235    7.9926    0.0000 H   0  0  0  0  0  0  0  0  0  0  0  0
    0.2829    7.0587    0.0000 H   0  0  0  0  0  0  0  0  0  0  0  0
    3.4300    8.2736    0.0000 H   0  0  0  0  0  0  0  0  0  0  0  0
   -0.6551    8.0937    0.0000 H   0  0  0  0  0  0  0  0  0  0  0  0
   -1.9389    8.1988    0.0000 H   0  0  0  0  0  0  0  0  0  0  0  0
   -4.7691    9.0830    0.0000 H   0  0  0  0  0  0  0  0  0  0  0  0
   -4.8747    7.4526    0.0000 H   0  0  0  0  0  0  0  0  0  0  0  0
   -0.4248    8.4685    0.0000 H   0  0  0  0  0  0  0  0  0  0  0  0
    0.7768   11.0387    0.0000 H   0  0  0  0  0  0  0  0  0  0  0  0
   -0.8699   13.5463    0.0000 H   0  0  0  0  0  0  0  0  0  0  0  0
   -3.8650   13.3740    0.0000 H   0  0  0  0  0  0  0  0  0  0  0  0
   -5.2133   10.6940    0.0000 H   0  0  0  0  0  0  0  0  0  0  0  0
   -6.2688    7.3645    0.0000 H   0  0  0  0  0  0  0  0  0  0  0  0
   -7.1514    6.4263    0.0000 H   0  0  0  0  0  0  0  0  0  0  0  0
   -9.6073    4.7649    0.0000 H   0  0  0  0  0  0  0  0  0  0  0  0
   -8.3984    3.6657    0.0000 H   0  0  0  0  0  0  0  0  0  0  0  0
   -6.4182    7.7782    0.0000 H   0  0  0  0  0  0  0  0  0  0  0  0
   -7.6785   10.3202    0.0000 H   0  0  0  0  0  0  0  0  0  0  0  0
  -10.6658   10.5962    0.0000 H   0  0  0  0  0  0  0  0  0  0  0  0
  -12.3984    8.1471    0.0000 H   0  0  0  0  0  0  0  0  0  0  0  0
  -11.1438    5.4221    0.0000 H   0  0  0  0  0  0  0  0  0  0  0  0
   -9.2222    2.3392    0.0000 H   0  0  0  0  0  0  0  0  0  0  0  0
   -7.7177   -1.9885    0.0000 H   0  0  0  0  0  0  0  0  0  0  0  0
   -8.5130   -0.9497    0.0000 H   0  0  0  0  0  0  0  0  0  0  0  0
   -6.5271   -3.2519    0.0000 H   0  0  0  0  0  0  0  0  0  0  0  0
   -7.4148   -2.5350    0.0000 H   0  0  0  0  0  0  0  0  0  0  0  0
   -4.6558   -4.1365    0.0000 H   0  0  0  0  0  0  0  0  0  0  0  0
   -6.0216   -3.5909    0.0000 H   0  0  0  0  0  0  0  0  0  0  0  0
   -3.6292   -4.5658    0.0000 H   0  0  0  0  0  0  0  0  0  0  0  0
  -10.3587    0.5781    0.0000 H   0  0  0  0  0  0  0  0  0  0  0  0
  -10.0468    2.3351    0.0000 H   0  0  0  0  0  0  0  0  0  0  0  0
   -8.6132    2.6909    0.0000 H   0  0  0  0  0  0  0  0  0  0  0  0
  -10.6874    1.4001    0.0000 H   0  0  0  0  0  0  0  0  0  0  0  0
   -9.8911   -1.8964    0.0000 H   0  0  0  0  0  0  0  0  0  0  0  0
  -11.6609   -3.9305    0.0000 H   0  0  0  0  0  0  0  0  0  0  0  0
  -10.2870   -2.7918    0.0000 H   0  0  0  0  0  0  0  0  0  0  0  0
  -13.8486   -1.2248    0.0000 H   0  0  0  0  0  0  0  0  0  0  0  0
  -15.2494   -4.4822    0.0000 H   0  0  0  0  0  0  0  0  0  0  0  0
  -13.9420   -5.4620    0.0000 H   0  0  0  0  0  0  0  0  0  0  0  0
  -12.4395   -4.4993    0.0000 H   0  0  0  0  0  0  0  0  0  0  0  0
  -15.4446   -0.9374    0.0000 H   0  0  0  0  0  0  0  0  0  0  0  0
  -16.0258   -2.9190    0.0000 H   0  0  0  0  0  0  0  0  0  0  0  0
  -14.9735   -3.7076    0.0000 H   0  0  0  0  0  0  0  0  0  0  0  0
  -13.5762   -3.2825    0.0000 H   0  0  0  0  0  0  0  0  0  0  0  0
  -14.3196   -0.1367    0.0000 H   0  0  0  0  0  0  0  0  0  0  0  0
  -17.7909   -0.2298    0.0000 H   0  0  0  0  0  0  0  0  0  0  0  0
  -17.3925   -1.6523    0.0000 H   0  0  0  0  0  0  0  0  0  0  0  0
  -15.6273    2.2796    0.0000 H   0  0  0  0  0  0  0  0  0  0  0  0
  -14.7445    0.7288    0.0000 H   0  0  0  0  0  0  0  0  0  0  0  0
  -18.9360    2.1023    0.0000 H   0  0  0  0  0  0  0  0  0  0  0  0
  -18.2488    0.4555    0.0000 H   0  0  0  0  0  0  0  0  0  0  0  0
  -16.0324    3.9009    0.0000 H   0  0  0  0  0  0  0  0  0  0  0  0
  -19.7696    6.4075    0.0000 H   0  0  0  0  0  0  0  0  0  0  0  0
  -17.1774    6.2331    0.0000 H   0  0  0  0  0  0  0  0  0  0  0  0
  -21.2168    4.2498    0.0000 H   0  0  0  0  0  0  0  0  0  0  0  0
  -20.0718    1.9177    0.0000 H   0  0  0  0  0  0  0  0  0  0  0  0
  -18.1741   -0.7679    0.0000 H   0  0  0  0  0  0  0  0  0  0  0  0
  -17.3777   -4.0644    0.0000 H   0  0  0  0  0  0  0  0  0  0  0  0
  -19.3307   -6.0974    0.0000 H   0  0  0  0  0  0  0  0  0  0  0  0
  -17.7736   -4.9598    0.0000 H   0  0  0  0  0  0  0  0  0  0  0  0
  -21.0628   -5.4505    0.0000 H   0  0  0  0  0  0  0  0  0  0  0  0
  -21.9689   -2.2205    0.0000 H   0  0  0  0  0  0  0  0  0  0  0  0
  -24.7060   -1.5457    0.0000 H   0  0  0  0  0  0  0  0  0  0  0  0
  -22.7820   -1.6752    0.0000 H   0  0  0  0  0  0  0  0  0  0  0  0
  -26.2068   -4.4997    0.0000 H   0  0  0  0  0  0  0  0  0  0  0  0
  -24.9551   -4.9029    0.0000 H   0  0  0  0  0  0  0  0  0  0  0  0
  -29.0056   -2.4080    0.0000 H   0  0  0  0  0  0  0  0  0  0  0  0
  -28.4556   -4.6187    0.0000 H   0  0  0  0  0  0  0  0  0  0  0  0
  -25.8244   -3.0181    0.0000 H   0  0  0  0  0  0  0  0  0  0  0  0
  -24.8644   -6.2324    0.0000 H   0  0  0  0  0  0  0  0  0  0  0  0
  -25.2273   -6.9476    0.0000 H   0  0  0  0  0  0  0  0  0  0  0  0
  -28.9772   -8.2172    0.0000 H   0  0  0  0  0  0  0  0  0  0  0  0
  -29.6644   -6.5704    0.0000 H   0  0  0  0  0  0  0  0  0  0  0  0
  -28.8218   -5.5608    0.0000 H   0  0  0  0  0  0  0  0  0  0  0  0
  -27.4239   -9.6373    0.0000 H   0  0  0  0  0  0  0  0  0  0  0  0
  -28.3066   -8.0865    0.0000 H   0  0  0  0  0  0  0  0  0  0  0  0
  -25.6723  -10.5975    0.0000 H   0  0  0  0  0  0  0  0  0  0  0  0
  -24.1152   -9.4600    0.0000 H   0  0  0  0  0  0  0  0  0  0  0  0
  -24.8024   -7.8132    0.0000 H   0  0  0  0  0  0  0  0  0  0  0  0
  1  2  1  0
  2  3  1  0
  3  4  2  0
  4  5  1  0
  5  6  2  0
  6  7  1  0
  7  8  2  0
  7  9  1  0
  9 10  1  0
 10 11  1  0
 11 12  2  0
  9 13  1  0
 13 14  1  0
 14 15  2  0
 15 16  1  0
 16 17  2  0
 17 18  1  0
 16 19  1  0
 14 20  1  0
 20 21  1  0
 21 22  2  0
 22 23  1  0
 23 24  2  0
 24 25  1  0
 25 26  2  0
 25 27  1  0
  1 28  2  0
  1 29  1  0
 29 30  1  0
 30 31  1  0
 31 32  1  0
 32 33  2  0
 32 34  1  0
 34 35  1  0
 35 36  1  0
 36 37  1  0
 37 38  1  0
 37 39  2  0
 35 40  1  0
 40 41  2  0
 40 42  1  0
 42 43  1  0
 43 44  1  0
 44 45  1  0
 45 46  1  0
 46 47  2  0
 46 48  1  0
 43 49  1  0
 49 50  2  0
 49 51  1  0
 51 52  1  0
 52 53  1  0
 53 54  1  0
 54 55  1  0
 54 56  1  0
 52 57  1  0
 57 58  2  0
 57 59  1  0
 59 60  1  0
 60 61  1  0
 61 62  1  0
 62 63  1  0
 63 64  1  0
 64 65  1  0
 60 66  1  0
 66 67  2  0
 66 68  1  0
 69 68  1  1
 69 70  1  0
 70 71  1  0
 71 72  1  0
 72 73  1  0
 69 74  1  0
 69 75  1  0
 75 76  2  0
 75 77  1  0
 77 78  1  0
 78 79  1  0
 79 80  1  0
 78 81  1  0
 81 82  2  0
 81 83  1  0
 83 84  1  0
 84 85  1  0
 85 86  1  0
 86 87  2  0
 87 88  1  0
 88 89  2  0
 89 90  1  0
 90 91  2  0
 84 92  1  0
 92 93  2  0
 92 94  1  0
 94 95  1  0
 95 96  1  0
 96 97  1  0
 97 98  2  0
 98 99  1  0
 99100  2  0
100101  1  0
101102  2  0
 95103  1  0
103104  2  0
103105  1  0
105106  1  0
106107  1  0
107108  1  0
108109  1  0
109110  1  0
106111  1  0
106112  1  1
112113  2  0
112114  1  0
114115  1  0
115116  1  0
116117  1  0
117118  1  0
117119  1  0
115120  1  0
120121  2  0
120122  1  0
122123  1  0
123124  1  0
124125  1  0
125126  1  0
126127  1  0
127128  1  0
128129  2  3
128130  1  0
123131  1  0
131132  2  0
131133  1  0
133134  1  0
134135  1  0
135136  1  0
136137  2  0
136138  1  0
134139  1  0
139140  2  0
139141  1  0
141142  1  0
142143  1  0
143144  1  0
144145  1  0
145146  1  0
145147  2  0
142148  1  0
148149  2  0
148150  1  0
150151  1  0
151152  1  0
152153  1  0
152154  1  0
154155  1  0
151156  1  0
156157  2  0
156158  1  0
  8  3  1  0
 91 86  1  0
102 97  1  0
 11  6  1  0
 73110  2  0
 18 13  2  0
 22  9  1  0
 26 21  1  0
  2159  1  0
  4160  1  0
  5161  1  0
  8162  1  0
 15163  1  0
 17164  1  0
 18165  1  0
 19166  1  0
 23167  1  0
 24168  1  0
 26169  1  0
 27170  1  0
 29171  1  0
 30172  1  0
 30173  1  0
 31174  1  0
 31175  1  0
 34176  1  0
 35177  1  1
 36178  1  0
 36179  1  0
 38180  1  0
 38181  1  0
 42182  1  0
 43183  1  6
 44184  1  0
 44185  1  0
 45186  1  0
 45187  1  0
 51188  1  0
 52189  1  1
 53190  1  0
 53191  1  0
 54192  1  0
 55193  1  0
 55194  1  0
 55195  1  0
 56196  1  0
 56197  1  0
 56198  1  0
 59199  1  0
 60200  1  6
 61201  1  0
 61202  1  0
 62203  1  0
 62204  1  0
 63205  1  0
 63206  1  0
 64207  1  0
 64208  1  0
 65209  1  0
 65210  1  0
 65211  1  0
 68212  1  0
 70213  1  0
 70214  1  0
 71215  1  0
 71216  1  0
 72217  1  0
 72218  1  0
 73219  1  0
 74220  1  0
 74221  1  0
 74222  1  0
 77223  1  0
 78224  1  6
 79225  1  0
 79226  1  0
 80227  1  0
 83228  1  0
 84229  1  6
 85230  1  0
 85231  1  0
 87232  1  0
 88233  1  0
 89234  1  0
 90235  1  0
 91236  1  0
 94237  1  0
 95238  1  6
 96239  1  0
 96240  1  0
 98241  1  0
 99242  1  0
100243  1  0
101244  1  0
102245  1  0
105246  1  0
107247  1  0
107248  1  0
108249  1  0
108250  1  0
109251  1  0
109252  1  0
110253  1  0
111254  1  0
111255  1  0
111256  1  0
114257  1  0
115258  1  1
116259  1  0
116260  1  0
117261  1  0
118262  1  0
118263  1  0
118264  1  0
119265  1  0
119266  1  0
119267  1  0
122268  1  0
123269  1  6
124270  1  0
124271  1  0
125272  1  0
125273  1  0
126274  1  0
126275  1  0
127276  1  0
129277  1  0
129278  1  0
130279  1  0
130280  1  0
133281  1  0
134282  1  1
135283  1  0
135284  1  0
141285  1  0
142286  1  6
143287  1  0
143288  1  0
144289  1  0
144290  1  0
146291  1  0
146292  1  0
150293  1  0
151294  1  1
152295  1  1
153296  1  0
153297  1  0
153298  1  0
154299  1  0
154300  1  0
155301  1  0
155302  1  0
155303  1  0
M  CHG  5  48  -1  65   1 129   1 138  -1 158  -1
M  END
