
     RDKit          2D

448451  0  0  0  0  0  0  0  0999 V2000
  -30.6395    8.1412    0.0000 N   0  0  0  0  0  0  0  0  0  0  0  0
  -29.1395    8.1541    0.0000 C   0  0  0  0  0  0  0  0  0  0  0  0
  -28.4008    9.4596    0.0000 C   0  0  0  0  0  0  0  0  0  0  0  0
  -26.9008    9.4725    0.0000 C   0  0  0  0  0  0  0  0  0  0  0  0
  -26.1397    8.1800    0.0000 O   0  0  0  0  0  0  0  0  0  0  0  0
  -26.1621   10.7780    0.0000 N   0  0  0  0  0  0  0  0  0  0  0  0
  -24.6621   10.7909    0.0000 C   0  0  0  0  0  0  0  0  0  0  0  0
  -24.9353   12.2658    0.0000 C   0  0  0  0  0  0  0  0  0  0  0  0
  -26.3492   12.7667    0.0000 C   0  0  0  0  0  0  0  0  0  0  0  0
  -26.6224   14.2416    0.0000 N   0  0  0  0  0  0  0  0  0  0  0  0
  -27.6002   11.9389    0.0000 O   0  0  0  0  0  0  0  0  0  0  0  0
  -23.2482   10.2901    0.0000 C   0  0  0  0  0  0  0  0  0  0  0  0
  -22.2347   11.3959    0.0000 O   0  0  0  0  0  0  0  0  0  0  0  0
  -22.9750    8.8152    0.0000 N   0  0  0  0  0  0  0  0  0  0  0  0
  -21.5611    8.3143    0.0000 C   0  0  0  0  0  0  0  0  0  0  0  0
  -21.3134    9.7937    0.0000 C   0  0  0  0  0  0  0  0  0  0  0  0
  -19.9083   10.3189    0.0000 C   0  0  0  0  0  0  0  0  0  0  0  0
  -19.6606   11.7983    0.0000 C   0  0  0  0  0  0  0  0  0  0  0  0
  -18.2555   12.3234    0.0000 O   0  0  0  0  0  0  0  0  0  0  0  0
  -20.8179   12.7525    0.0000 O   0  0  0  0  0  0  0  0  0  0  0  0
  -20.4038    7.3601    0.0000 C   0  0  0  0  0  0  0  0  0  0  0  0
  -18.9987    7.8852    0.0000 O   0  0  0  0  0  0  0  0  0  0  0  0
  -20.6515    5.8807    0.0000 N   0  0  0  0  0  0  0  0  0  0  0  0
  -19.4941    4.9264    0.0000 C   0  0  0  0  0  0  0  0  0  0  0  0
  -20.6348    3.9524    0.0000 C   0  0  0  0  0  0  0  0  0  0  0  0
  -22.0488    4.4532    0.0000 C   0  0  0  0  0  0  0  0  0  0  0  0
  -23.1895    3.4792    0.0000 C   0  0  0  0  0  0  0  0  0  0  0  0
  -23.2061    5.4075    0.0000 C   0  0  0  0  0  0  0  0  0  0  0  0
  -18.0802    4.4256    0.0000 C   0  0  0  0  0  0  0  0  0  0  0  0
  -17.0668    5.5314    0.0000 O   0  0  0  0  0  0  0  0  0  0  0  0
  -17.8070    2.9507    0.0000 N   0  0  0  0  0  0  0  0  0  0  0  0
  -16.3931    2.4498    0.0000 C   0  0  0  0  0  0  0  0  0  0  0  0
  -15.1383    3.2716    0.0000 C   0  0  0  0  0  0  0  0  0  0  0  0
  -13.7506    3.8411    0.0000 C   0  0  0  0  0  0  0  0  0  0  0  0
  -12.2802    4.1377    0.0000 C   0  0  0  0  0  0  0  0  0  0  0  0
  -10.7802    4.1506    0.0000 C   0  0  0  0  0  0  0  0  0  0  0  0
   -9.3050    3.8795    0.0000 C   0  0  0  0  0  0  0  0  0  0  0  0
   -7.9076    3.3340    0.0000 C   0  0  0  0  0  0  0  0  0  0  0  0
   -6.6388    2.5339    0.0000 C   0  0  0  0  0  0  0  0  0  0  0  0
  -16.7524    3.9061    0.0000 C   0  0  0  0  0  0  0  0  0  0  0  0
  -17.4697    1.4054    0.0000 C   0  0  0  0  0  0  0  0  0  0  0  0
  -18.7218    2.2314    0.0000 O   0  0  0  0  0  0  0  0  0  0  0  0
  -18.3293    0.1760    0.0000 N   0  0  0  0  0  0  0  0  0  0  0  0
  -18.9406   -1.1937    0.0000 C   0  0  0  0  0  0  0  0  0  0  0  0
  -19.8964   -0.0377    0.0000 C   0  0  0  0  0  0  0  0  0  0  0  0
  -21.3755   -0.2875    0.0000 C   0  0  0  0  0  0  0  0  0  0  0  0
  -21.8987   -1.6933    0.0000 C   0  0  0  0  0  0  0  0  0  0  0  0
  -23.3778   -1.9430    0.0000 N   0  0  0  0  0  0  0  0  0  0  0  0
  -23.9010   -3.3488    0.0000 C   0  0  0  0  0  0  0  0  0  0  0  0
  -25.3801   -3.5986    0.0000 N   0  0  0  0  0  0  0  0  0  0  0  0
  -22.9452   -4.5048    0.0000 N   0  0  0  0  0  0  0  0  0  0  0  0
  -19.2816   -2.6544    0.0000 C   0  0  0  0  0  0  0  0  0  0  0  0
  -20.7326   -2.2741    0.0000 O   0  0  0  0  0  0  0  0  0  0  0  0
  -19.3401   -4.1533    0.0000 N   0  0  0  0  0  0  0  0  0  0  0  0
  -19.1138   -5.6361    0.0000 C   0  0  0  0  0  0  0  0  0  0  0  0
  -20.5429   -5.1804    0.0000 C   0  0  0  0  0  0  0  0  0  0  0  0
  -21.6521   -6.1901    0.0000 O   0  0  0  0  0  0  0  0  0  0  0  0
  -18.6110   -7.0493    0.0000 C   0  0  0  0  0  0  0  0  0  0  0  0
  -19.9700   -7.6842    0.0000 O   0  0  0  0  0  0  0  0  0  0  0  0
  -17.8498   -8.3419    0.0000 N   0  0  0  0  0  0  0  0  0  0  0  0
  -16.8578   -9.4670    0.0000 C   0  0  0  0  0  0  0  0  0  0  0  0
  -18.3064   -9.8562    0.0000 C   0  0  0  0  0  0  0  0  0  0  0  0
  -18.6937  -11.3054    0.0000 C   0  0  0  0  0  0  0  0  0  0  0  0
  -17.6323  -12.3653    0.0000 C   0  0  0  0  0  0  0  0  0  0  0  0
  -18.0195  -13.8145    0.0000 C   0  0  0  0  0  0  0  0  0  0  0  0
  -19.4681  -14.2037    0.0000 C   0  0  0  0  0  0  0  0  0  0  0  0
  -20.5295  -13.1438    0.0000 C   0  0  0  0  0  0  0  0  0  0  0  0
  -20.1423  -11.6946    0.0000 C   0  0  0  0  0  0  0  0  0  0  0  0
  -15.6708  -10.3840    0.0000 C   0  0  0  0  0  0  0  0  0  0  0  0
  -16.3102  -11.7409    0.0000 O   0  0  0  0  0  0  0  0  0  0  0  0
  -14.3316  -11.0598    0.0000 N   0  0  0  0  0  0  0  0  0  0  0  0
  -12.8888  -11.4700    0.0000 C   0  0  0  0  0  0  0  0  0  0  0  0
  -13.8970  -12.5806    0.0000 C   0  0  0  0  0  0  0  0  0  0  0  0
  -13.4393  -14.0091    0.0000 C   0  0  0  0  0  0  0  0  0  0  0  0
  -11.9734  -14.3269    0.0000 C   0  0  0  0  0  0  0  0  0  0  0  0
  -11.5157  -15.7554    0.0000 C   0  0  0  0  0  0  0  0  0  0  0  0
  -12.5239  -16.8660    0.0000 C   0  0  0  0  0  0  0  0  0  0  0  0
  -13.9898  -16.5482    0.0000 C   0  0  0  0  0  0  0  0  0  0  0  0
  -14.4475  -15.1197    0.0000 C   0  0  0  0  0  0  0  0  0  0  0  0
  -11.3944  -11.5997    0.0000 C   0  0  0  0  0  0  0  0  0  0  0  0
  -11.1988  -13.0869    0.0000 O   0  0  0  0  0  0  0  0  0  0  0  0
   -9.9025  -11.4442    0.0000 N   0  0  0  0  0  0  0  0  0  0  0  0
   -8.4670  -11.0093    0.0000 C   0  0  0  0  0  0  0  0  0  0  0  0
   -8.7147  -12.4887    0.0000 C   0  0  0  0  0  0  0  0  0  0  0  0
   -7.1397  -10.3104    0.0000 C   0  0  0  0  0  0  0  0  0  0  0  0
   -6.3179  -11.5653    0.0000 O   0  0  0  0  0  0  0  0  0  0  0  0
   -5.9687   -9.3731    0.0000 N   0  0  0  0  0  0  0  0  0  0  0  0
   -4.9962   -8.2310    0.0000 C   0  0  0  0  0  0  0  0  0  0  0  0
   -4.4047   -9.6095    0.0000 C   0  0  0  0  0  0  0  0  0  0  0  0
   -2.9152   -9.7865    0.0000 C   0  0  0  0  0  0  0  0  0  0  0  0
   -2.3238  -11.1650    0.0000 C   0  0  0  0  0  0  0  0  0  0  0  0
   -1.4550   -9.4435    0.0000 C   0  0  0  0  0  0  0  0  0  0  0  0
   -4.2574   -6.9256    0.0000 C   0  0  0  0  0  0  0  0  0  0  0  0
   -2.8233   -7.3654    0.0000 O   0  0  0  0  0  0  0  0  0  0  0  0
   -3.7790   -5.5039    0.0000 N   0  0  0  0  0  0  0  0  0  0  0  0
   -3.5784   -4.0174    0.0000 C   0  0  0  0  0  0  0  0  0  0  0  0
   -3.6627   -2.5197    0.0000 C   0  0  0  0  0  0  0  0  0  0  0  0
   -4.0289   -1.0651    0.0000 C   0  0  0  0  0  0  0  0  0  0  0  0
   -4.6637    0.2939    0.0000 C   0  0  0  0  0  0  0  0  0  0  0  0
   -5.5443    1.5082    0.0000 C   0  0  0  0  0  0  0  0  0  0  0  0
   -2.1934   -3.4413    0.0000 C   0  0  0  0  0  0  0  0  0  0  0  0
   -2.3356   -4.8573    0.0000 C   0  0  0  0  0  0  0  0  0  0  0  0
   -2.2584   -6.3553    0.0000 O   0  0  0  0  0  0  0  0  0  0  0  0
   -0.9868   -4.2009    0.0000 N   0  0  0  0  0  0  0  0  0  0  0  0
    0.2560   -5.0408    0.0000 C   0  0  0  0  0  0  0  0  0  0  0  0
    1.1366   -6.2551    0.0000 C   0  0  0  0  0  0  0  0  0  0  0  0
    2.6285   -6.0997    0.0000 C   0  0  0  0  0  0  0  0  0  0  0  0
    3.5091   -7.3140    0.0000 O   0  0  0  0  0  0  0  0  0  0  0  0
    3.0397   -5.4167    0.0000 O   0  0  0  0  0  0  0  0  0  0  0  0
    1.6048   -4.3845    0.0000 C   0  0  0  0  0  0  0  0  0  0  0  0
    2.3147   -4.7470    0.0000 O   0  0  0  0  0  0  0  0  0  0  0  0
    1.7108   -2.8882    0.0000 N   0  0  0  0  0  0  0  0  0  0  0  0
    3.0595   -2.2319    0.0000 C   0  0  0  0  0  0  0  0  0  0  0  0
    4.5515   -2.0764    0.0000 C   0  0  0  0  0  0  0  0  0  0  0  0
    5.1628   -0.7066    0.0000 C   0  0  0  0  0  0  0  0  0  0  0  0
    6.6547   -0.5512    0.0000 C   0  0  0  0  0  0  0  0  0  0  0  0
    7.4285    0.7339    0.0000 N   0  0  0  0  0  0  0  0  0  0  0  0
    7.5353   -1.7655    0.0000 O   0  0  0  0  0  0  0  0  0  0  0  0
    3.1655   -0.7356    0.0000 C   0  0  0  0  0  0  0  0  0  0  0  0
    1.9227    0.1043    0.0000 O   0  0  0  0  0  0  0  0  0  0  0  0
    4.5143   -0.0793    0.0000 N   0  0  0  0  0  0  0  0  0  0  0  0
    4.6203    1.4170    0.0000 C   0  0  0  0  0  0  0  0  0  0  0  0
    4.2081    2.8593    0.0000 C   0  0  0  0  0  0  0  0  0  0  0  0
    5.1119    4.0564    0.0000 C   0  0  0  0  0  0  0  0  0  0  0  0
    3.3275    4.0736    0.0000 C   0  0  0  0  0  0  0  0  0  0  0  0
    1.8356    3.9181    0.0000 C   0  0  0  0  0  0  0  0  0  0  0  0
    5.9690    2.0733    0.0000 C   0  0  0  0  0  0  0  0  0  0  0  0
    7.3050    1.3912    0.0000 O   0  0  0  0  0  0  0  0  0  0  0  0
    6.0750    3.5696    0.0000 N   0  0  0  0  0  0  0  0  0  0  0  0
    7.4238    4.2259    0.0000 C   0  0  0  0  0  0  0  0  0  0  0  0
    8.9157    4.3814    0.0000 C   0  0  0  0  0  0  0  0  0  0  0  0
    9.5271    5.7512    0.0000 C   0  0  0  0  0  0  0  0  0  0  0  0
   11.0190    5.9066    0.0000 O   0  0  0  0  0  0  0  0  0  0  0  0
    8.9665    7.1425    0.0000 O   0  0  0  0  0  0  0  0  0  0  0  0
    7.5298    5.7222    0.0000 C   0  0  0  0  0  0  0  0  0  0  0  0
    6.2870    6.5621    0.0000 O   0  0  0  0  0  0  0  0  0  0  0  0
    8.8786    6.3785    0.0000 N   0  0  0  0  0  0  0  0  0  0  0  0
    8.9845    7.8748    0.0000 C   0  0  0  0  0  0  0  0  0  0  0  0
    8.5724    9.3171    0.0000 C   0  0  0  0  0  0  0  0  0  0  0  0
    9.6153   10.3951    0.0000 C   0  0  0  0  0  0  0  0  0  0  0  0
    9.2032   11.8374    0.0000 C   0  0  0  0  0  0  0  0  0  0  0  0
   10.1069   13.0346    0.0000 N   0  0  0  0  0  0  0  0  0  0  0  0
    7.7480   12.2016    0.0000 O   0  0  0  0  0  0  0  0  0  0  0  0
   10.3333    8.5311    0.0000 C   0  0  0  0  0  0  0  0  0  0  0  0
   11.5761    7.6912    0.0000 O   0  0  0  0  0  0  0  0  0  0  0  0
   10.4393   10.0274    0.0000 N   0  0  0  0  0  0  0  0  0  0  0  0
   11.7881   10.6837    0.0000 C   0  0  0  0  0  0  0  0  0  0  0  0
   13.2800   10.8392    0.0000 C   0  0  0  0  0  0  0  0  0  0  0  0
   13.8406    9.4479    0.0000 C   0  0  0  0  0  0  0  0  0  0  0  0
   14.6288   11.4956    0.0000 C   0  0  0  0  0  0  0  0  0  0  0  0
   15.6314   10.3799    0.0000 C   0  0  0  0  0  0  0  0  0  0  0  0
   11.8940   12.1800    0.0000 C   0  0  0  0  0  0  0  0  0  0  0  0
   10.7629   13.1651    0.0000 O   0  0  0  0  0  0  0  0  0  0  0  0
   13.2428   12.8363    0.0000 N   0  0  0  0  0  0  0  0  0  0  0  0
   13.5046   14.3133    0.0000 C   0  0  0  0  0  0  0  0  0  0  0  0
   14.9902   14.5208    0.0000 C   0  0  0  0  0  0  0  0  0  0  0  0
   15.6465   13.1720    0.0000 C   0  0  0  0  0  0  0  0  0  0  0  0
   14.5666   12.1310    0.0000 C   0  0  0  0  0  0  0  0  0  0  0  0
   15.7148   11.1657    0.0000 C   0  0  0  0  0  0  0  0  0  0  0  0
   17.1248   11.6775    0.0000 O   0  0  0  0  0  0  0  0  0  0  0  0
   15.4530    9.6888    0.0000 N   0  0  0  0  0  0  0  0  0  0  0  0
   16.6012    8.7236    0.0000 C   0  0  0  0  0  0  0  0  0  0  0  0
   18.0103    8.2093    0.0000 C   0  0  0  0  0  0  0  0  0  0  0  0
   18.2694    6.7318    0.0000 C   0  0  0  0  0  0  0  0  0  0  0  0
   19.6785    6.2175    0.0000 C   0  0  0  0  0  0  0  0  0  0  0  0
   19.9377    4.7401    0.0000 C   0  0  0  0  0  0  0  0  0  0  0  0
   21.3468    4.2258    0.0000 N   0  0  0  0  0  0  0  0  0  0  0  0
   16.3394    7.2466    0.0000 C   0  0  0  0  0  0  0  0  0  0  0  0
   14.9294    6.7348    0.0000 O   0  0  0  0  0  0  0  0  0  0  0  0
   17.4876    6.2814    0.0000 N   0  0  0  0  0  0  0  0  0  0  0  0
   17.2258    4.8044    0.0000 C   0  0  0  0  0  0  0  0  0  0  0  0
   16.4747    3.5060    0.0000 C   0  0  0  0  0  0  0  0  0  0  0  0
   14.9747    3.5074    0.0000 C   0  0  0  0  0  0  0  0  0  0  0  0
   14.2235    2.2090    0.0000 C   0  0  0  0  0  0  0  0  0  0  0  0
   12.7235    2.2103    0.0000 C   0  0  0  0  0  0  0  0  0  0  0  0
   11.9723    0.9120    0.0000 N   0  0  0  0  0  0  0  0  0  0  0  0
   18.3740    3.8392    0.0000 C   0  0  0  0  0  0  0  0  0  0  0  0
   19.8660    3.9946    0.0000 O   0  0  0  0  0  0  0  0  0  0  0  0
   18.1122    2.3622    0.0000 N   0  0  0  0  0  0  0  0  0  0  0  0
   19.2604    1.3970    0.0000 C   0  0  0  0  0  0  0  0  0  0  0  0
   20.6695    0.8827    0.0000 C   0  0  0  0  0  0  0  0  0  0  0  0
   20.9287   -0.5947    0.0000 C   0  0  0  0  0  0  0  0  0  0  0  0
   22.3377   -1.1090    0.0000 C   0  0  0  0  0  0  0  0  0  0  0  0
   22.5969   -2.5865    0.0000 C   0  0  0  0  0  0  0  0  0  0  0  0
   24.0060   -3.1008    0.0000 N   0  0  0  0  0  0  0  0  0  0  0  0
   18.9986   -0.0800    0.0000 C   0  0  0  0  0  0  0  0  0  0  0  0
   17.5886   -0.5918    0.0000 O   0  0  0  0  0  0  0  0  0  0  0  0
   20.1468   -1.0452    0.0000 N   0  0  0  0  0  0  0  0  0  0  0  0
   19.8851   -2.5222    0.0000 C   0  0  0  0  0  0  0  0  0  0  0  0
   19.1339   -3.8205    0.0000 C   0  0  0  0  0  0  0  0  0  0  0  0
   17.6339   -3.8192    0.0000 C   0  0  0  0  0  0  0  0  0  0  0  0
   16.8827   -5.1176    0.0000 C   0  0  0  0  0  0  0  0  0  0  0  0
   15.3827   -5.1162    0.0000 N   0  0  0  0  0  0  0  0  0  0  0  0
   14.6316   -6.4146    0.0000 C   0  0  0  0  0  0  0  0  0  0  0  0
   13.1316   -6.4132    0.0000 N   0  0  0  0  0  0  0  0  0  0  0  0
   15.3804   -7.7143    0.0000 N   0  0  0  0  0  0  0  0  0  0  0  0
   21.0333   -3.4874    0.0000 C   0  0  0  0  0  0  0  0  0  0  0  0
   22.5252   -3.3320    0.0000 O   0  0  0  0  0  0  0  0  0  0  0  0
   20.7715   -4.9644    0.0000 N   0  0  0  0  0  0  0  0  0  0  0  0
   21.9197   -5.9296    0.0000 C   0  0  0  0  0  0  0  0  0  0  0  0
   23.3287   -6.4439    0.0000 C   0  0  0  0  0  0  0  0  0  0  0  0
   23.5879   -7.9213    0.0000 C   0  0  0  0  0  0  0  0  0  0  0  0
   24.9970   -8.4356    0.0000 C   0  0  0  0  0  0  0  0  0  0  0  0
   25.2561   -9.9130    0.0000 C   0  0  0  0  0  0  0  0  0  0  0  0
   26.6652  -10.4273    0.0000 N   0  0  0  0  0  0  0  0  0  0  0  0
   21.6579   -7.4065    0.0000 C   0  0  0  0  0  0  0  0  0  0  0  0
   20.2479   -7.9183    0.0000 O   0  0  0  0  0  0  0  0  0  0  0  0
   22.8061   -8.3718    0.0000 N   0  0  0  0  0  0  0  0  0  0  0  0
   22.5443   -9.8487    0.0000 C   0  0  0  0  0  0  0  0  0  0  0  0
   21.7931  -11.1471    0.0000 C   0  0  0  0  0  0  0  0  0  0  0  0
   20.2931  -11.1458    0.0000 C   0  0  0  0  0  0  0  0  0  0  0  0
   23.6925  -10.8139    0.0000 C   0  0  0  0  0  0  0  0  0  0  0  0
   23.6127  -12.3118    0.0000 O   0  0  0  0  0  0  0  0  0  0  0  0
   25.1844  -10.6586    0.0000 O   0  0  0  0  0  0  0  0  0  0  0  0
  -31.3783    6.8357    0.0000 H   0  0  0  0  0  0  0  0  0  0  0  0
  -31.4007    9.4337    0.0000 H   0  0  0  0  0  0  0  0  0  0  0  0
  -29.3873    6.6747    0.0000 H   0  0  0  0  0  0  0  0  0  0  0  0
  -27.7256    7.6533    0.0000 H   0  0  0  0  0  0  0  0  0  0  0  0
  -29.8147    9.9605    0.0000 H   0  0  0  0  0  0  0  0  0  0  0  0
  -28.1530   10.9390    0.0000 H   0  0  0  0  0  0  0  0  0  0  0  0
  -27.0751   11.9681    0.0000 H   0  0  0  0  0  0  0  0  0  0  0  0
  -24.9098    9.3115    0.0000 H   0  0  0  0  0  0  0  0  0  0  0  0
  -24.6876   13.7452    0.0000 H   0  0  0  0  0  0  0  0  0  0  0  0
  -23.4354   12.2788    0.0000 H   0  0  0  0  0  0  0  0  0  0  0  0
  -28.0363   14.7425    0.0000 H   0  0  0  0  0  0  0  0  0  0  0  0
  -25.4817   15.2157    0.0000 H   0  0  0  0  0  0  0  0  0  0  0  0
  -24.1157    7.8411    0.0000 H   0  0  0  0  0  0  0  0  0  0  0  0
  -22.4535    7.1086    0.0000 H   0  0  0  0  0  0  0  0  0  0  0  0
  -21.4047   11.2909    0.0000 H   0  0  0  0  0  0  0  0  0  0  0  0
  -22.7719   10.1441    0.0000 H   0  0  0  0  0  0  0  0  0  0  0  0
  -18.4084   10.3318    0.0000 H   0  0  0  0  0  0  0  0  0  0  0  0
  -19.6351    8.8440    0.0000 H   0  0  0  0  0  0  0  0  0  0  0  0
  -22.1101    5.5307    0.0000 H   0  0  0  0  0  0  0  0  0  0  0  0
  -18.7554    6.2319    0.0000 H   0  0  0  0  0  0  0  0  0  0  0  0
  -21.2090    2.5666    0.0000 H   0  0  0  0  0  0  0  0  0  0  0  0
  -19.4775    2.9981    0.0000 H   0  0  0  0  0  0  0  0  0  0  0  0
  -21.8270    5.9368    0.0000 H   0  0  0  0  0  0  0  0  0  0  0  0
  -24.6539    3.8039    0.0000 H   0  0  0  0  0  0  0  0  0  0  0  0
  -23.9282    2.1737    0.0000 H   0  0  0  0  0  0  0  0  0  0  0  0
  -22.1571    2.3910    0.0000 H   0  0  0  0  0  0  0  0  0  0  0  0
  -23.1406    6.9060    0.0000 H   0  0  0  0  0  0  0  0  0  0  0  0
  -24.6200    5.9083    0.0000 H   0  0  0  0  0  0  0  0  0  0  0  0
  -24.0985    4.2018    0.0000 H   0  0  0  0  0  0  0  0  0  0  0  0
  -19.0580    2.1229    0.0000 H   0  0  0  0  0  0  0  0  0  0  0  0
  -15.2155    4.7696    0.0000 H   0  0  0  0  0  0  0  0  0  0  0  0
  -16.3296    4.1830    0.0000 H   0  0  0  0  0  0  0  0  0  0  0  0
  -13.5429    5.3267    0.0000 H   0  0  0  0  0  0  0  0  0  0  0  0
  -14.7479    4.9615    0.0000 H   0  0  0  0  0  0  0  0  0  0  0  0
  -11.7951    5.5571    0.0000 H   0  0  0  0  0  0  0  0  0  0  0  0
  -13.0475    5.4266    0.0000 H   0  0  0  0  0  0  0  0  0  0  0  0
  -10.0353    5.4526    0.0000 H   0  0  0  0  0  0  0  0  0  0  0  0
  -11.2897    5.5614    0.0000 H   0  0  0  0  0  0  0  0  0  0  0  0
   -8.3271    5.0169    0.0000 H   0  0  0  0  0  0  0  0  0  0  0  0
   -9.5382    5.3612    0.0000 H   0  0  0  0  0  0  0  0  0  0  0  0
   -6.6274    4.1156    0.0000 H   0  0  0  0  0  0  0  0  0  0  0  0
   -7.8563    4.8331    0.0000 H   0  0  0  0  0  0  0  0  0  0  0  0
   -5.7218    3.7210    0.0000 H   0  0  0  0  0  0  0  0  0  0  0  0
  -17.7653    4.8003    0.0000 H   0  0  0  0  0  0  0  0  0  0  0  0
  -16.0530    5.3251    0.0000 H   0  0  0  0  0  0  0  0  0  0  0  0
  -15.1124    4.2643    0.0000 H   0  0  0  0  0  0  0  0  0  0  0  0
  -19.5349    1.0684    0.0000 H   0  0  0  0  0  0  0  0  0  0  0  0
  -20.3481   -1.7122    0.0000 H   0  0  0  0  0  0  0  0  0  0  0  0
  -20.5677    1.3037    0.0000 H   0  0  0  0  0  0  0  0  0  0  0  0
  -18.8100    0.9965    0.0000 H   0  0  0  0  0  0  0  0  0  0  0  0
  -22.8508   -0.0163    0.0000 H   0  0  0  0  0  0  0  0  0  0  0  0
  -21.3646    1.2125    0.0000 H   0  0  0  0  0  0  0  0  0  0  0  0
  -21.9096   -3.1932    0.0000 H   0  0  0  0  0  0  0  0  0  0  0  0
  -20.4234   -1.9644    0.0000 H   0  0  0  0  0  0  0  0  0  0  0  0
  -24.3336   -0.7870    0.0000 H   0  0  0  0  0  0  0  0  0  0  0  0
  -25.9033   -5.0044    0.0000 H   0  0  0  0  0  0  0  0  0  0  0  0
  -26.3359   -2.4426    0.0000 H   0  0  0  0  0  0  0  0  0  0  0  0
  -23.6358   -5.8364    0.0000 H   0  0  0  0  0  0  0  0  0  0  0  0
  -21.5705   -3.9046    0.0000 H   0  0  0  0  0  0  0  0  0  0  0  0
  -20.8136   -3.8727    0.0000 H   0  0  0  0  0  0  0  0  0  0  0  0
  -20.1568   -6.7142    0.0000 H   0  0  0  0  0  0  0  0  0  0  0  0
  -21.7299   -4.2634    0.0000 H   0  0  0  0  0  0  0  0  0  0  0  0
  -20.1880   -3.7230    0.0000 H   0  0  0  0  0  0  0  0  0  0  0  0
  -23.1261   -5.9120    0.0000 H   0  0  0  0  0  0  0  0  0  0  0  0
  -19.1624   -9.0679    0.0000 H   0  0  0  0  0  0  0  0  0  0  0  0
  -17.1523  -10.9378    0.0000 H   0  0  0  0  0  0  0  0  0  0  0  0
  -19.8055   -9.9096    0.0000 H   0  0  0  0  0  0  0  0  0  0  0  0
  -18.7958   -8.4383    0.0000 H   0  0  0  0  0  0  0  0  0  0  0  0
  -16.1470  -12.1555    0.0000 H   0  0  0  0  0  0  0  0  0  0  0  0
  -16.9581  -14.8744    0.0000 H   0  0  0  0  0  0  0  0  0  0  0  0
  -19.8553  -15.6528    0.0000 H   0  0  0  0  0  0  0  0  0  0  0  0
  -21.9781  -13.5330    0.0000 H   0  0  0  0  0  0  0  0  0  0  0  0
  -21.2037  -10.6347    0.0000 H   0  0  0  0  0  0  0  0  0  0  0  0
  -15.0434  -12.3802    0.0000 H   0  0  0  0  0  0  0  0  0  0  0  0
  -12.3414  -12.8666    0.0000 H   0  0  0  0  0  0  0  0  0  0  0  0
  -15.1292  -13.4360    0.0000 H   0  0  0  0  0  0  0  0  0  0  0  0
  -15.0753  -11.6524    0.0000 H   0  0  0  0  0  0  0  0  0  0  0  0
  -10.8373  -13.3475    0.0000 H   0  0  0  0  0  0  0  0  0  0  0  0
  -10.0497  -16.0732    0.0000 H   0  0  0  0  0  0  0  0  0  0  0  0
  -12.0662  -18.2945    0.0000 H   0  0  0  0  0  0  0  0  0  0  0  0
  -14.9980  -17.6588    0.0000 H   0  0  0  0  0  0  0  0  0  0  0  0
  -15.9135  -14.8019    0.0000 H   0  0  0  0  0  0  0  0  0  0  0  0
   -9.7874  -12.9398    0.0000 H   0  0  0  0  0  0  0  0  0  0  0  0
   -7.2514  -11.8882    0.0000 H   0  0  0  0  0  0  0  0  0  0  0  0
   -7.5573  -13.4429    0.0000 H   0  0  0  0  0  0  0  0  0  0  0  0
   -9.2888  -13.8744    0.0000 H   0  0  0  0  0  0  0  0  0  0  0  0
  -10.2078  -12.3448    0.0000 H   0  0  0  0  0  0  0  0  0  0  0  0
   -5.0632  -10.5690    0.0000 H   0  0  0  0  0  0  0  0  0  0  0  0
   -3.4996   -8.1301    0.0000 H   0  0  0  0  0  0  0  0  0  0  0  0
   -4.3205  -11.1071    0.0000 H   0  0  0  0  0  0  0  0  0  0  0  0
   -5.7386  -10.2957    0.0000 H   0  0  0  0  0  0  0  0  0  0  0  0
   -2.6346   -8.3130    0.0000 H   0  0  0  0  0  0  0  0  0  0  0  0
   -0.8670  -11.5223    0.0000 H   0  0  0  0  0  0  0  0  0  0  0  0
   -2.2395  -12.6627    0.0000 H   0  0  0  0  0  0  0  0  0  0  0  0
   -3.7313  -11.6835    0.0000 H   0  0  0  0  0  0  0  0  0  0  0  0
   -0.3022  -10.4032    0.0000 H   0  0  0  0  0  0  0  0  0  0  0  0
   -0.2002   -8.6217    0.0000 H   0  0  0  0  0  0  0  0  0  0  0  0
   -2.0464   -8.0650    0.0000 H   0  0  0  0  0  0  0  0  0  0  0  0
   -2.3708   -6.0204    0.0000 H   0  0  0  0  0  0  0  0  0  0  0  0
   -2.2218   -2.9367    0.0000 H   0  0  0  0  0  0  0  0  0  0  0  0
   -2.5220   -1.5457    0.0000 H   0  0  0  0  0  0  0  0  0  0  0  0
   -2.5296   -1.0188    0.0000 H   0  0  0  0  0  0  0  0  0  0  0  0
   -2.9572   -0.0156    0.0000 H   0  0  0  0  0  0  0  0  0  0  0  0
   -3.1711    0.4423    0.0000 H   0  0  0  0  0  0  0  0  0  0  0  0
   -3.9668    1.6222    0.0000 H   0  0  0  0  0  0  0  0  0  0  0  0
   -4.4192    2.5003    0.0000 H   0  0  0  0  0  0  0  0  0  0  0  0
   -1.8583   -1.8094    0.0000 H   0  0  0  0  0  0  0  0  0  0  0  0
   -0.8558   -2.8596    0.0000 H   0  0  0  0  0  0  0  0  0  0  0  0
   -1.4815   -4.5507    0.0000 H   0  0  0  0  0  0  0  0  0  0  0  0
   -0.6992   -2.7287    0.0000 H   0  0  0  0  0  0  0  0  0  0  0  0
   -0.7870   -6.1189    0.0000 H   0  0  0  0  0  0  0  0  0  0  0  0
    1.5488   -7.6974    0.0000 H   0  0  0  0  0  0  0  0  0  0  0  0
   -0.2122   -6.9115    0.0000 H   0  0  0  0  0  0  0  0  0  0  0  0
    0.4680   -2.0483    0.0000 H   0  0  0  0  0  0  0  0  0  0  0  0
    3.4717   -3.6741    0.0000 H   0  0  0  0  0  0  0  0  0  0  0  0
    6.0066   -2.4406    0.0000 H   0  0  0  0  0  0  0  0  0  0  0  0
    4.4455   -3.5727    0.0000 H   0  0  0  0  0  0  0  0  0  0  0  0
    5.2688    0.7896    0.0000 H   0  0  0  0  0  0  0  0  0  0  0  0
    4.0491    0.2982    0.0000 H   0  0  0  0  0  0  0  0  0  0  0  0
    8.7580    0.9741    0.0000 H   0  0  0  0  0  0  0  0  0  0  0  0
    6.9204    2.3204    0.0000 H   0  0  0  0  0  0  0  0  0  0  0  0
    5.9234   -0.5935    0.0000 H   0  0  0  0  0  0  0  0  0  0  0  0
    3.1283    1.2615    0.0000 H   0  0  0  0  0  0  0  0  0  0  0  0
    2.9494    2.0434    0.0000 H   0  0  0  0  0  0  0  0  0  0  0  0
    5.0178    5.4191    0.0000 H   0  0  0  0  0  0  0  0  0  0  0  0
    6.5998    4.5937    0.0000 H   0  0  0  0  0  0  0  0  0  0  0  0
    6.6690    3.4479    0.0000 H   0  0  0  0  0  0  0  0  0  0  0  0
    2.9153    5.5158    0.0000 H   0  0  0  0  0  0  0  0  0  0  0  0
    4.4774    5.0368    0.0000 H   0  0  0  0  0  0  0  0  0  0  0  0
    0.9550    5.1324    0.0000 H   0  0  0  0  0  0  0  0  0  0  0  0
    0.4868    3.2618    0.0000 H   0  0  0  0  0  0  0  0  0  0  0  0
    2.0689    2.4364    0.0000 H   0  0  0  0  0  0  0  0  0  0  0  0
    5.0724    4.6853    0.0000 H   0  0  0  0  0  0  0  0  0  0  0  0
    7.8360    2.7837    0.0000 H   0  0  0  0  0  0  0  0  0  0  0  0
   10.3708    4.0172    0.0000 H   0  0  0  0  0  0  0  0  0  0  0  0
    8.8097    2.8851    0.0000 H   0  0  0  0  0  0  0  0  0  0  0  0
   10.2877    5.8643    0.0000 H   0  0  0  0  0  0  0  0  0  0  0  0
    7.4926    7.7193    0.0000 H   0  0  0  0  0  0  0  0  0  0  0  0
    7.6918   10.5314    0.0000 H   0  0  0  0  0  0  0  0  0  0  0  0
    7.2236    8.6607    0.0000 H   0  0  0  0  0  0  0  0  0  0  0  0
   10.9641   11.0515    0.0000 H   0  0  0  0  0  0  0  0  0  0  0  0
   10.9630    9.7365    0.0000 H   0  0  0  0  0  0  0  0  0  0  0  0
    9.8339   14.3577    0.0000 H   0  0  0  0  0  0  0  0  0  0  0  0
   11.7708   12.9514    0.0000 H   0  0  0  0  0  0  0  0  0  0  0  0
    9.4366   11.1431    0.0000 H   0  0  0  0  0  0  0  0  0  0  0  0
   12.0213    9.2020    0.0000 H   0  0  0  0  0  0  0  0  0  0  0  0
   13.2291   12.3383    0.0000 H   0  0  0  0  0  0  0  0  0  0  0  0
   15.6199    9.2157    0.0000 H   0  0  0  0  0  0  0  0  0  0  0  0
   14.5727    8.1826    0.0000 H   0  0  0  0  0  0  0  0  0  0  0  0
   12.9019    8.8090    0.0000 H   0  0  0  0  0  0  0  0  0  0  0  0
   15.9016   12.2892    0.0000 H   0  0  0  0  0  0  0  0  0  0  0  0
   14.0682   12.8869    0.0000 H   0  0  0  0  0  0  0  0  0  0  0  0
   17.3221   11.1114    0.0000 H   0  0  0  0  0  0  0  0  0  0  0  0
   17.0141    9.9054    0.0000 H   0  0  0  0  0  0  0  0  0  0  0  0
   15.1695    9.3431    0.0000 H   0  0  0  0  0  0  0  0  0  0  0  0
   12.0084   14.4193    0.0000 H   0  0  0  0  0  0  0  0  0  0  0  0
   13.4536   15.8125    0.0000 H   0  0  0  0  0  0  0  0  0  0  0  0
   14.6286   15.9765    0.0000 H   0  0  0  0  0  0  0  0  0  0  0  0
   16.4002   15.0325    0.0000 H   0  0  0  0  0  0  0  0  0  0  0  0
   16.9193   13.9657    0.0000 H   0  0  0  0  0  0  0  0  0  0  0  0
   16.7063   12.1104    0.0000 H   0  0  0  0  0  0  0  0  0  0  0  0
   14.0524   10.7218    0.0000 H   0  0  0  0  0  0  0  0  0  0  0  0
   14.2087    8.8510    0.0000 H   0  0  0  0  0  0  0  0  0  0  0  0
   17.5050    9.9207    0.0000 H   0  0  0  0  0  0  0  0  0  0  0  0
   19.4993    8.3908    0.0000 H   0  0  0  0  0  0  0  0  0  0  0  0
   18.2721    9.6862    0.0000 H   0  0  0  0  0  0  0  0  0  0  0  0
   17.8296    5.2978    0.0000 H   0  0  0  0  0  0  0  0  0  0  0  0
   16.9445    6.0287    0.0000 H   0  0  0  0  0  0  0  0  0  0  0  0
   21.1675    6.3990    0.0000 H   0  0  0  0  0  0  0  0  0  0  0  0
   20.1184    7.6516    0.0000 H   0  0  0  0  0  0  0  0  0  0  0  0
   19.8579    3.2422    0.0000 H   0  0  0  0  0  0  0  0  0  0  0  0
   18.4487    4.5586    0.0000 H   0  0  0  0  0  0  0  0  0  0  0  0
   21.4239    2.7278    0.0000 H   0  0  0  0  0  0  0  0  0  0  0  0
   22.8467    4.2244    0.0000 H   0  0  0  0  0  0  0  0  0  0  0  0
   21.7866    5.6598    0.0000 H   0  0  0  0  0  0  0  0  0  0  0  0
   18.9796    6.4367    0.0000 H   0  0  0  0  0  0  0  0  0  0  0  0
   15.8899    5.4866    0.0000 H   0  0  0  0  0  0  0  0  0  0  0  0
   16.2129    2.0290    0.0000 H   0  0  0  0  0  0  0  0  0  0  0  0
   17.7174    2.6661    0.0000 H   0  0  0  0  0  0  0  0  0  0  0  0
   13.6388    4.1896    0.0000 H   0  0  0  0  0  0  0  0  0  0  0  0
   15.0545    5.0052    0.0000 H   0  0  0  0  0  0  0  0  0  0  0  0
   14.1437    0.7111    0.0000 H   0  0  0  0  0  0  0  0  0  0  0  0
   15.5594    1.5268    0.0000 H   0  0  0  0  0  0  0  0  0  0  0  0
   11.3144    2.7246    0.0000 H   0  0  0  0  0  0  0  0  0  0  0  0
   12.8033    3.7082    0.0000 H   0  0  0  0  0  0  0  0  0  0  0  0
   10.4723    0.9133    0.0000 H   0  0  0  0  0  0  0  0  0  0  0  0
   11.7105   -0.5650    0.0000 H   0  0  0  0  0  0  0  0  0  0  0  0
   13.3082    0.2298    0.0000 H   0  0  0  0  0  0  0  0  0  0  0  0
   16.7751    1.6824    0.0000 H   0  0  0  0  0  0  0  0  0  0  0  0
   20.1643    2.5941    0.0000 H   0  0  0  0  0  0  0  0  0  0  0  0
   22.1585    1.0642    0.0000 H   0  0  0  0  0  0  0  0  0  0  0  0
   20.7493    2.3806    0.0000 H   0  0  0  0  0  0  0  0  0  0  0  0
   20.4888   -2.0288    0.0000 H   0  0  0  0  0  0  0  0  0  0  0  0
   19.6037   -1.2979    0.0000 H   0  0  0  0  0  0  0  0  0  0  0  0
   23.8267   -0.9275    0.0000 H   0  0  0  0  0  0  0  0  0  0  0  0
   22.7776    0.3250    0.0000 H   0  0  0  0  0  0  0  0  0  0  0  0
   22.5171   -4.0844    0.0000 H   0  0  0  0  0  0  0  0  0  0  0  0
   21.1079   -2.7680    0.0000 H   0  0  0  0  0  0  0  0  0  0  0  0
   24.0831   -4.5988    0.0000 H   0  0  0  0  0  0  0  0  0  0  0  0
   25.5060   -3.1021    0.0000 H   0  0  0  0  0  0  0  0  0  0  0  0
   24.4459   -1.6667    0.0000 H   0  0  0  0  0  0  0  0  0  0  0  0
   21.6388   -0.8898    0.0000 H   0  0  0  0  0  0  0  0  0  0  0  0
   18.5492   -1.8400    0.0000 H   0  0  0  0  0  0  0  0  0  0  0  0
   18.8721   -5.2975    0.0000 H   0  0  0  0  0  0  0  0  0  0  0  0
   20.3766   -4.6605    0.0000 H   0  0  0  0  0  0  0  0  0  0  0  0
   16.2248   -3.3049    0.0000 H   0  0  0  0  0  0  0  0  0  0  0  0
   17.7137   -2.3213    0.0000 H   0  0  0  0  0  0  0  0  0  0  0  0
   16.6209   -6.5945    0.0000 H   0  0  0  0  0  0  0  0  0  0  0  0
   18.2186   -5.7998    0.0000 H   0  0  0  0  0  0  0  0  0  0  0  0
   14.6339   -3.8165    0.0000 H   0  0  0  0  0  0  0  0  0  0  0  0
   12.3804   -7.7116    0.0000 H   0  0  0  0  0  0  0  0  0  0  0  0
   12.3827   -5.1135    0.0000 H   0  0  0  0  0  0  0  0  0  0  0  0
   14.6292   -9.0127    0.0000 H   0  0  0  0  0  0  0  0  0  0  0  0
   16.8804   -7.7156    0.0000 H   0  0  0  0  0  0  0  0  0  0  0  0
   19.4344   -5.6442    0.0000 H   0  0  0  0  0  0  0  0  0  0  0  0
   22.8235   -4.7325    0.0000 H   0  0  0  0  0  0  0  0  0  0  0  0
   24.8177   -6.2624    0.0000 H   0  0  0  0  0  0  0  0  0  0  0  0
   23.4085   -4.9460    0.0000 H   0  0  0  0  0  0  0  0  0  0  0  0
   23.1480   -9.3554    0.0000 H   0  0  0  0  0  0  0  0  0  0  0  0
   22.2629   -8.6245    0.0000 H   0  0  0  0  0  0  0  0  0  0  0  0
   26.4859   -8.2541    0.0000 H   0  0  0  0  0  0  0  0  0  0  0  0
   25.4368   -7.0015    0.0000 H   0  0  0  0  0  0  0  0  0  0  0  0
   24.9943  -11.3900    0.0000 H   0  0  0  0  0  0  0  0  0  0  0  0
   23.7671  -10.0946    0.0000 H   0  0  0  0  0  0  0  0  0  0  0  0
   26.9243  -11.9048    0.0000 H   0  0  0  0  0  0  0  0  0  0  0  0
   28.1652  -10.4287    0.0000 H   0  0  0  0  0  0  0  0  0  0  0  0
   27.1051   -8.9933    0.0000 H   0  0  0  0  0  0  0  0  0  0  0  0
   24.2980   -8.2164    0.0000 H   0  0  0  0  0  0  0  0  0  0  0  0
   21.2084   -9.1665    0.0000 H   0  0  0  0  0  0  0  0  0  0  0  0
   21.5313  -12.6241    0.0000 H   0  0  0  0  0  0  0  0  0  0  0  0
   23.1290  -11.8293    0.0000 H   0  0  0  0  0  0  0  0  0  0  0  0
   19.5419  -12.4441    0.0000 H   0  0  0  0  0  0  0  0  0  0  0  0
   18.8840  -10.6315    0.0000 H   0  0  0  0  0  0  0  0  0  0  0  0
   20.3729   -9.6479    0.0000 H   0  0  0  0  0  0  0  0  0  0  0  0
  1  2  1  0
  2  3  1  0
  3  4  1  0
  4  5  2  0
  4  6  1  0
  6  7  1  0
  7  8  1  0
  8  9  1  0
  9 10  1  0
  9 11  2  0
  7 12  1  0
 12 13  2  0
 12 14  1  0
 14 15  1  0
 15 16  1  0
 16 17  1  0
 17 18  1  0
 18 19  2  0
 18 20  1  0
 15 21  1  0
 21 22  2  0
 21 23  1  0
 23 24  1  0
 24 25  1  0
 25 26  1  0
 26 27  1  0
 26 28  1  0
 24 29  1  0
 29 30  2  0
 29 31  1  0
 32 31  1  6
 32 33  1  0
 33 34  1  0
 34 35  1  0
 35 36  1  0
 36 37  1  0
 37 38  1  0
 38 39  1  0
 32 40  1  0
 32 41  1  0
 41 42  2  0
 41 43  1  0
 43 44  1  0
 44 45  1  0
 45 46  1  0
 46 47  1  0
 47 48  1  0
 48 49  1  0
 49 50  2  3
 49 51  1  0
 44 52  1  0
 52 53  2  0
 52 54  1  0
 54 55  1  0
 55 56  1  0
 56 57  1  0
 55 58  1  0
 58 59  2  0
 58 60  1  0
 60 61  1  0
 61 62  1  0
 62 63  1  0
 63 64  2  0
 64 65  1  0
 65 66  2  0
 66 67  1  0
 67 68  2  0
 61 69  1  0
 69 70  2  0
 69 71  1  0
 71 72  1  0
 72 73  1  0
 73 74  1  0
 74 75  2  0
 75 76  1  0
 76 77  2  0
 77 78  1  0
 78 79  2  0
 72 80  1  0
 80 81  2  0
 80 82  1  0
 82 83  1  0
 83 84  1  0
 83 85  1  0
 85 86  2  0
 85 87  1  0
 87 88  1  0
 88 89  1  0
 89 90  1  0
 90 91  1  0
 90 92  1  0
 88 93  1  0
 93 94  2  0
 93 95  1  0
 95 96  1  0
 96 97  1  0
 97 98  1  0
 98 99  1  0
 99100  1  0
 96101  1  0
 96102  1  1
102103  2  0
102104  1  0
104105  1  0
105106  1  0
106107  1  0
107108  2  0
107109  1  0
105110  1  0
110111  2  0
110112  1  0
112113  1  0
113114  1  0
114115  1  0
115116  1  0
116117  1  0
116118  2  0
113119  1  0
119120  2  0
119121  1  0
121122  1  0
122123  1  0
123124  1  0
123125  1  0
125126  1  0
122127  1  0
127128  2  0
127129  1  0
129130  1  0
130131  1  0
131132  1  0
132133  2  0
132134  1  0
130135  1  0
135136  2  0
135137  1  0
137138  1  0
138139  1  0
139140  1  0
140141  1  0
141142  1  0
141143  2  0
138144  1  0
144145  2  0
144146  1  0
146147  1  0
147148  1  0
148149  1  0
148150  1  0
150151  1  0
147152  1  0
152153  2  0
152154  1  0
154155  1  0
155156  1  0
156157  1  0
157158  1  0
158159  1  0
159160  2  0
159161  1  0
161162  1  0
162163  1  0
163164  1  0
164165  1  0
165166  1  0
166167  1  0
162168  1  0
168169  2  0
168170  1  0
170171  1  0
171172  1  0
172173  1  0
173174  1  0
174175  1  0
175176  1  0
171177  1  0
177178  2  0
177179  1  0
179180  1  0
180181  1  0
181182  1  0
182183  1  0
183184  1  0
184185  1  0
180186  1  0
186187  2  0
186188  1  0
188189  1  0
189190  1  0
190191  1  0
191192  1  0
192193  1  0
193194  1  0
194195  2  3
194196  1  0
189197  1  0
197198  2  0
197199  1  0
199200  1  0
200201  1  0
201202  1  0
202203  1  0
203204  1  0
204205  1  0
200206  1  0
206207  2  0
206208  1  0
208209  1  0
209210  1  0
210211  1  0
209212  1  0
212213  2  0
212214  1  0
 68 63  1  0
 79 74  1  0
158154  1  0
 39100  2  0
  1215  1  0
  1216  1  0
  2217  1  0
  2218  1  0
  3219  1  0
  3220  1  0
  6221  1  0
  7222  1  1
  8223  1  0
  8224  1  0
 10225  1  0
 10226  1  0
 14227  1  0
 15228  1  1
 16229  1  0
 16230  1  0
 17231  1  0
 17232  1  0
 23233  1  0
 24234  1  6
 25235  1  0
 25236  1  0
 26237  1  0
 27238  1  0
 27239  1  0
 27240  1  0
 28241  1  0
 28242  1  0
 28243  1  0
 31244  1  0
 33245  1  0
 33246  1  0
 34247  1  0
 34248  1  0
 35249  1  0
 35250  1  0
 36251  1  0
 36252  1  0
 37253  1  0
 37254  1  0
 38255  1  0
 38256  1  0
 39257  1  0
 40258  1  0
 40259  1  0
 40260  1  0
 43261  1  0
 44262  1  6
 45263  1  0
 45264  1  0
 46265  1  0
 46266  1  0
 47267  1  0
 47268  1  0
 48269  1  0
 50270  1  0
 50271  1  0
 51272  1  0
 51273  1  0
 54274  1  0
 55275  1  6
 56276  1  0
 56277  1  0
 57278  1  0
 60279  1  0
 61280  1  6
 62281  1  0
 62282  1  0
 64283  1  0
 65284  1  0
 66285  1  0
 67286  1  0
 68287  1  0
 71288  1  0
 72289  1  6
 73290  1  0
 73291  1  0
 75292  1  0
 76293  1  0
 77294  1  0
 78295  1  0
 79296  1  0
 82297  1  0
 83298  1  6
 84299  1  0
 84300  1  0
 84301  1  0
 87302  1  0
 88303  1  6
 89304  1  0
 89305  1  0
 90306  1  0
 91307  1  0
 91308  1  0
 91309  1  0
 92310  1  0
 92311  1  0
 92312  1  0
 95313  1  0
 97314  1  0
 97315  1  0
 98316  1  0
 98317  1  0
 99318  1  0
 99319  1  0
100320  1  0
101321  1  0
101322  1  0
101323  1  0
104324  1  0
105325  1  6
106326  1  0
106327  1  0
112328  1  0
113329  1  6
114330  1  0
114331  1  0
115332  1  0
115333  1  0
117334  1  0
117335  1  0
121336  1  0
122337  1  1
123338  1  1
124339  1  0
124340  1  0
124341  1  0
125342  1  0
125343  1  0
126344  1  0
126345  1  0
126346  1  0
129347  1  0
130348  1  6
131349  1  0
131350  1  0
137351  1  0
138352  1  1
139353  1  0
139354  1  0
140355  1  0
140356  1  0
142357  1  0
142358  1  0
146359  1  0
147360  1  6
148361  1  1
149362  1  0
149363  1  0
149364  1  0
150365  1  0
150366  1  0
151367  1  0
151368  1  0
151369  1  0
155370  1  0
155371  1  0
156372  1  0
156373  1  0
157374  1  0
157375  1  0
158376  1  0
161377  1  0
162378  1  1
163379  1  0
163380  1  0
164381  1  0
164382  1  0
165383  1  0
165384  1  0
166385  1  0
166386  1  0
167387  1  0
167388  1  0
167389  1  0
170390  1  0
171391  1  6
172392  1  0
172393  1  0
173394  1  0
173395  1  0
174396  1  0
174397  1  0
175398  1  0
175399  1  0
176400  1  0
176401  1  0
176402  1  0
179403  1  0
180404  1  1
181405  1  0
181406  1  0
182407  1  0
182408  1  0
183409  1  0
183410  1  0
184411  1  0
184412  1  0
185413  1  0
185414  1  0
185415  1  0
188416  1  0
189417  1  6
190418  1  0
190419  1  0
191420  1  0
191421  1  0
192422  1  0
192423  1  0
193424  1  0
195425  1  0
195426  1  0
196427  1  0
196428  1  0
199429  1  0
200430  1  1
201431  1  0
201432  1  0
202433  1  0
202434  1  0
203435  1  0
203436  1  0
204437  1  0
204438  1  0
205439  1  0
205440  1  0
205441  1  0
208442  1  0
209443  1  6
210444  1  0
210445  1  0
211446  1  0
211447  1  0
211448  1  0
M  CHG  8  20  -1  50   1 109  -1 134  -1 167   1 176   1 185   1 195   1
M  CHG  2 205   1 214  -1
M  END
