
     RDKit          2D

240247  0  0  0  0  0  0  0  0999 V2000
   24.1135   -2.2562    0.0000 C   0  0  0  0  0  0  0  0  0  0  0  0
   25.5374   -1.7844    0.0000 N   0  0  0  0  0  0  0  0  0  0  0  0
   26.6578   -2.7817    0.0000 C   0  0  0  0  0  0  0  0  0  0  0  0
   26.3544   -4.2507    0.0000 C   0  0  0  0  0  0  0  0  0  0  0  0
   27.4749   -5.2479    0.0000 C   0  0  0  0  0  0  0  0  0  0  0  0
   28.8988   -4.7762    0.0000 C   0  0  0  0  0  0  0  0  0  0  0  0
   29.2022   -3.3072    0.0000 C   0  0  0  0  0  0  0  0  0  0  0  0
   28.0817   -2.3099    0.0000 C   0  0  0  0  0  0  0  0  0  0  0  0
   30.6931   -3.1418    0.0000 C   0  0  0  0  0  0  0  0  0  0  0  0
   31.3111   -4.5086    0.0000 O   0  0  0  0  0  0  0  0  0  0  0  0
   30.2022   -5.5187    0.0000 C   0  0  0  0  0  0  0  0  0  0  0  0
   30.3675   -7.0095    0.0000 O   0  0  0  0  0  0  0  0  0  0  0  0
   32.1930   -3.1332    0.0000 C   0  0  0  0  0  0  0  0  0  0  0  0
   32.9355   -1.8298    0.0000 C   0  0  0  0  0  0  0  0  0  0  0  0
   34.4355   -1.8212    0.0000 C   0  0  0  0  0  0  0  0  0  0  0  0
   35.1930   -3.1159    0.0000 C   0  0  0  0  0  0  0  0  0  0  0  0
   34.4505   -4.4192    0.0000 C   0  0  0  0  0  0  0  0  0  0  0  0
   32.9505   -4.4278    0.0000 C   0  0  0  0  0  0  0  0  0  0  0  0
   36.6930   -3.1072    0.0000 O   0  0  0  0  0  0  0  0  0  0  0  0
   32.1781   -0.5351    0.0000 O   0  0  0  0  0  0  0  0  0  0  0  0
   30.6781   -0.5438    0.0000 C   0  0  0  0  0  0  0  0  0  0  0  0
   29.9356   -1.8471    0.0000 C   0  0  0  0  0  0  0  0  0  0  0  0
   28.7821   -1.2475    0.0000 C   0  0  0  0  0  0  0  0  0  0  0  0
   28.3781   -0.5570    0.0000 C   0  0  0  0  0  0  0  0  0  0  0  0
   28.7741    0.1381    0.0000 C   0  0  0  0  0  0  0  0  0  0  0  0
   29.5741    0.1427    0.0000 C   0  0  0  0  0  0  0  0  0  0  0  0
   27.6632    2.0370    0.0000 O   0  0  0  0  0  0  0  0  0  0  0  0
   23.8101   -3.7252    0.0000 S   0  0  0  0  0  0  0  0  0  0  0  0
   22.9930   -1.2589    0.0000 N   0  0  0  0  0  0  0  0  0  0  0  0
   21.5691   -1.7307    0.0000 C   0  0  0  0  0  0  0  0  0  0  0  0
   20.4486   -0.7334    0.0000 C   0  0  0  0  0  0  0  0  0  0  0  0
   19.0247   -1.2052    0.0000 O   0  0  0  0  0  0  0  0  0  0  0  0
   17.9042   -0.2079    0.0000 C   0  0  0  0  0  0  0  0  0  0  0  0
   16.4803   -0.6796    0.0000 O   0  0  0  0  0  0  0  0  0  0  0  0
   15.3599    0.3176    0.0000 C   0  0  0  0  0  0  0  0  0  0  0  0
   13.9360   -0.1541    0.0000 C   0  0  0  0  0  0  0  0  0  0  0  0
   12.8155    0.8431    0.0000 O   0  0  0  0  0  0  0  0  0  0  0  0
   11.3916    0.3714    0.0000 C   0  0  0  0  0  0  0  0  0  0  0  0
   10.2711    1.3686    0.0000 C   0  0  0  0  0  0  0  0  0  0  0  0
    8.8472    0.8969    0.0000 C   0  0  0  0  0  0  0  0  0  0  0  0
    8.7251   -0.5981    0.0000 O   0  0  0  0  0  0  0  0  0  0  0  0
    7.7267    1.8941    0.0000 N   0  0  0  0  0  0  0  0  0  0  0  0
    6.3029    1.4224    0.0000 C   0  0  0  0  0  0  0  0  0  0  0  0
    5.7144    0.0426    0.0000 C   0  0  0  0  0  0  0  0  0  0  0  0
    4.7454   -1.1024    0.0000 C   0  0  0  0  0  0  0  0  0  0  0  0
    3.4819   -1.9109    0.0000 C   0  0  0  0  0  0  0  0  0  0  0  0
    2.0363   -2.3111    0.0000 C   0  0  0  0  0  0  0  0  0  0  0  0
    7.4455    0.4506    0.0000 C   0  0  0  0  0  0  0  0  0  0  0  0
    6.4585    2.9143    0.0000 C   0  0  0  0  0  0  0  0  0  0  0  0
    7.9374    3.1649    0.0000 O   0  0  0  0  0  0  0  0  0  0  0  0
    6.1675    4.3858    0.0000 N   0  0  0  0  0  0  0  0  0  0  0  0
    5.4556    5.7061    0.0000 C   0  0  0  0  0  0  0  0  0  0  0  0
    4.3862    6.7580    0.0000 C   0  0  0  0  0  0  0  0  0  0  0  0
    5.2670    7.9722    0.0000 O   0  0  0  0  0  0  0  0  0  0  0  0
    3.0543    7.4479    0.0000 N   0  0  0  0  0  0  0  0  0  0  0  0
    1.5782    7.7146    0.0000 C   0  0  0  0  0  0  0  0  0  0  0  0
    0.8015    8.9978    0.0000 C   0  0  0  0  0  0  0  0  0  0  0  0
    0.0891    7.5344    0.0000 C   0  0  0  0  0  0  0  0  0  0  0  0
   -0.3111    8.9800    0.0000 O   0  0  0  0  0  0  0  0  0  0  0  0
   -1.2808    6.9232    0.0000 N   0  0  0  0  0  0  0  0  0  0  0  0
   -2.4096    5.9354    0.0000 C   0  0  0  0  0  0  0  0  0  0  0  0
   -3.8972    6.1282    0.0000 C   0  0  0  0  0  0  0  0  0  0  0  0
   -4.4740    7.5128    0.0000 C   0  0  0  0  0  0  0  0  0  0  0  0
   -3.5633    8.7047    0.0000 C   0  0  0  0  0  0  0  0  0  0  0  0
   -4.1401   10.0894    0.0000 C   0  0  0  0  0  0  0  0  0  0  0  0
   -5.6276   10.2821    0.0000 C   0  0  0  0  0  0  0  0  0  0  0  0
   -6.5384    9.0903    0.0000 C   0  0  0  0  0  0  0  0  0  0  0  0
   -5.9615    7.7056    0.0000 C   0  0  0  0  0  0  0  0  0  0  0  0
   -3.1971    4.6588    0.0000 C   0  0  0  0  0  0  0  0  0  0  0  0
   -4.5769    5.2472    0.0000 O   0  0  0  0  0  0  0  0  0  0  0  0
   -3.5734    3.2067    0.0000 N   0  0  0  0  0  0  0  0  0  0  0  0
   -3.5049    1.7083    0.0000 C   0  0  0  0  0  0  0  0  0  0  0  0
   -2.9978    0.2966    0.0000 C   0  0  0  0  0  0  0  0  0  0  0  0
   -2.0971   -0.9029    0.0000 C   0  0  0  0  0  0  0  0  0  0  0  0
   -0.8829   -1.7836    0.0000 C   0  0  0  0  0  0  0  0  0  0  0  0
    0.5369   -2.2673    0.0000 C   0  0  0  0  0  0  0  0  0  0  0  0
   -4.8989    2.2622    0.0000 C   0  0  0  0  0  0  0  0  0  0  0  0
   -4.5831    0.6655    0.0000 C   0  0  0  0  0  0  0  0  0  0  0  0
   -4.5820   -0.8345    0.0000 O   0  0  0  0  0  0  0  0  0  0  0  0
   -6.0253    1.0778    0.0000 N   0  0  0  0  0  0  0  0  0  0  0  0
   -7.1035    0.0350    0.0000 C   0  0  0  0  0  0  0  0  0  0  0  0
   -7.7600   -1.3137    0.0000 C   0  0  0  0  0  0  0  0  0  0  0  0
   -9.2563   -1.4195    0.0000 C   0  0  0  0  0  0  0  0  0  0  0  0
   -9.9128   -2.7682    0.0000 N   0  0  0  0  0  0  0  0  0  0  0  0
   -9.8491   -0.8866    0.0000 O   0  0  0  0  0  0  0  0  0  0  0  0
   -8.5457    0.4473    0.0000 C   0  0  0  0  0  0  0  0  0  0  0  0
   -8.9098    1.9024    0.0000 O   0  0  0  0  0  0  0  0  0  0  0  0
   -9.6239   -0.5955    0.0000 N   0  0  0  0  0  0  0  0  0  0  0  0
  -11.0661   -0.1832    0.0000 C   0  0  0  0  0  0  0  0  0  0  0  0
  -12.2804    0.6975    0.0000 C   0  0  0  0  0  0  0  0  0  0  0  0
  -13.6502    0.0864    0.0000 C   0  0  0  0  0  0  0  0  0  0  0  0
  -14.8644    0.9671    0.0000 C   0  0  0  0  0  0  0  0  0  0  0  0
  -14.7284   -0.9565    0.0000 C   0  0  0  0  0  0  0  0  0  0  0  0
  -12.1443   -1.2260    0.0000 C   0  0  0  0  0  0  0  0  0  0  0  0
  -11.9604   -2.7147    0.0000 O   0  0  0  0  0  0  0  0  0  0  0  0
  -13.5866   -0.8137    0.0000 N   0  0  0  0  0  0  0  0  0  0  0  0
  -14.6648   -1.8565    0.0000 C   0  0  0  0  0  0  0  0  0  0  0  0
  -15.3213   -3.2052    0.0000 C   0  0  0  0  0  0  0  0  0  0  0  0
  -16.8175   -3.3110    0.0000 C   0  0  0  0  0  0  0  0  0  0  0  0
  -17.6573   -2.0681    0.0000 C   0  0  0  0  0  0  0  0  0  0  0  0
  -19.1535   -2.1739    0.0000 C   0  0  0  0  0  0  0  0  0  0  0  0
  -19.8101   -3.5226    0.0000 C   0  0  0  0  0  0  0  0  0  0  0  0
  -18.9703   -4.7655    0.0000 C   0  0  0  0  0  0  0  0  0  0  0  0
  -17.4740   -4.6597    0.0000 C   0  0  0  0  0  0  0  0  0  0  0  0
  -16.1070   -1.4442    0.0000 C   0  0  0  0  0  0  0  0  0  0  0  0
  -16.6457   -0.0443    0.0000 O   0  0  0  0  0  0  0  0  0  0  0  0
  -17.1852   -2.4870    0.0000 N   0  0  0  0  0  0  0  0  0  0  0  0
  -18.6274   -2.0747    0.0000 C   0  0  0  0  0  0  0  0  0  0  0  0
  -19.8416   -1.1940    0.0000 C   0  0  0  0  0  0  0  0  0  0  0  0
  -19.6860    0.2979    0.0000 C   0  0  0  0  0  0  0  0  0  0  0  0
  -20.9002    1.1787    0.0000 C   0  0  0  0  0  0  0  0  0  0  0  0
  -20.7445    2.6706    0.0000 N   0  0  0  0  0  0  0  0  0  0  0  0
  -22.2700    0.5675    0.0000 O   0  0  0  0  0  0  0  0  0  0  0  0
  -19.7056   -3.1175    0.0000 C   0  0  0  0  0  0  0  0  0  0  0  0
  -19.7045   -4.6175    0.0000 O   0  0  0  0  0  0  0  0  0  0  0  0
  -21.1478   -2.7052    0.0000 N   0  0  0  0  0  0  0  0  0  0  0  0
  -22.2260   -3.7480    0.0000 C   0  0  0  0  0  0  0  0  0  0  0  0
  -22.8825   -5.0967    0.0000 C   0  0  0  0  0  0  0  0  0  0  0  0
  -24.2414   -5.7318    0.0000 O   0  0  0  0  0  0  0  0  0  0  0  0
  -23.6682   -3.3357    0.0000 C   0  0  0  0  0  0  0  0  0  0  0  0
  -24.0322   -1.8805    0.0000 O   0  0  0  0  0  0  0  0  0  0  0  0
  -24.7464   -4.3785    0.0000 N   0  0  0  0  0  0  0  0  0  0  0  0
  -26.1886   -3.9662    0.0000 C   0  0  0  0  0  0  0  0  0  0  0  0
  -27.4028   -3.0854    0.0000 C   0  0  0  0  0  0  0  0  0  0  0  0
  -27.2472   -1.5935    0.0000 C   0  0  0  0  0  0  0  0  0  0  0  0
  -27.2668   -5.0090    0.0000 C   0  0  0  0  0  0  0  0  0  0  0  0
  -28.7485   -4.7755    0.0000 O   0  0  0  0  0  0  0  0  0  0  0  0
  -26.9028   -6.4642    0.0000 O   0  0  0  0  0  0  0  0  0  0  0  0
   25.6594   -0.2894    0.0000 H   0  0  0  0  0  0  0  0  0  0  0  0
   24.9306   -4.7224    0.0000 H   0  0  0  0  0  0  0  0  0  0  0  0
   27.1715   -6.7169    0.0000 H   0  0  0  0  0  0  0  0  0  0  0  0
   28.0207   -0.8112    0.0000 H   0  0  0  0  0  0  0  0  0  0  0  0
   35.1780   -0.5178    0.0000 H   0  0  0  0  0  0  0  0  0  0  0  0
   35.2080   -5.7139    0.0000 H   0  0  0  0  0  0  0  0  0  0  0  0
   32.2080   -5.7312    0.0000 H   0  0  0  0  0  0  0  0  0  0  0  0
   37.4504   -4.4019    0.0000 H   0  0  0  0  0  0  0  0  0  0  0  0
   27.6931   -3.1591    0.0000 H   0  0  0  0  0  0  0  0  0  0  0  0
   26.1883   -0.3868    0.0000 H   0  0  0  0  0  0  0  0  0  0  0  0
   30.6631    2.0543    0.0000 H   0  0  0  0  0  0  0  0  0  0  0  0
   28.4057    3.3403    0.0000 H   0  0  0  0  0  0  0  0  0  0  0  0
   23.2964    0.2101    0.0000 H   0  0  0  0  0  0  0  0  0  0  0  0
   20.3924   -2.6610    0.0000 H   0  0  0  0  0  0  0  0  0  0  0  0
   22.2809   -3.0510    0.0000 H   0  0  0  0  0  0  0  0  0  0  0  0
   19.9030    0.6638    0.0000 H   0  0  0  0  0  0  0  0  0  0  0  0
   21.6253    0.1969    0.0000 H   0  0  0  0  0  0  0  0  0  0  0  0
   17.3587    1.1894    0.0000 H   0  0  0  0  0  0  0  0  0  0  0  0
   18.9587    0.8589    0.0000 H   0  0  0  0  0  0  0  0  0  0  0  0
   14.6480    1.6379    0.0000 H   0  0  0  0  0  0  0  0  0  0  0  0
   16.4144    1.3844    0.0000 H   0  0  0  0  0  0  0  0  0  0  0  0
   12.8815   -1.2209    0.0000 H   0  0  0  0  0  0  0  0  0  0  0  0
   14.6478   -1.4745    0.0000 H   0  0  0  0  0  0  0  0  0  0  0  0
   10.2149   -0.5589    0.0000 H   0  0  0  0  0  0  0  0  0  0  0  0
   11.9372   -1.0259    0.0000 H   0  0  0  0  0  0  0  0  0  0  0  0
    9.5593    2.6890    0.0000 H   0  0  0  0  0  0  0  0  0  0  0  0
   11.4478    2.2989    0.0000 H   0  0  0  0  0  0  0  0  0  0  0  0
    8.2069    3.3152    0.0000 H   0  0  0  0  0  0  0  0  0  0  0  0
    7.2067   -0.1093    0.0000 H   0  0  0  0  0  0  0  0  0  0  0  0
    6.3595   -1.3115    0.0000 H   0  0  0  0  0  0  0  0  0  0  0  0
    6.0450   -1.8514    0.0000 H   0  0  0  0  0  0  0  0  0  0  0  0
    5.1420   -2.5490    0.0000 H   0  0  0  0  0  0  0  0  0  0  0  0
    4.6293   -2.8771    0.0000 H   0  0  0  0  0  0  0  0  0  0  0  0
    3.2521   -3.3932    0.0000 H   0  0  0  0  0  0  0  0  0  0  0  0
    2.2165   -3.8002    0.0000 H   0  0  0  0  0  0  0  0  0  0  0  0
    7.2657   -1.2057    0.0000 H   0  0  0  0  0  0  0  0  0  0  0  0
    8.5412   -0.5121    0.0000 H   0  0  0  0  0  0  0  0  0  0  0  0
    8.4624    1.2893    0.0000 H   0  0  0  0  0  0  0  0  0  0  0  0
    7.5791    4.8929    0.0000 H   0  0  0  0  0  0  0  0  0  0  0  0
    5.9746    7.1135    0.0000 H   0  0  0  0  0  0  0  0  0  0  0  0
    6.9519    5.8119    0.0000 H   0  0  0  0  0  0  0  0  0  0  0  0
    3.5380    8.8678    0.0000 H   0  0  0  0  0  0  0  0  0  0  0  0
    2.4284    8.9504    0.0000 H   0  0  0  0  0  0  0  0  0  0  0  0
    1.5244   10.3121    0.0000 H   0  0  0  0  0  0  0  0  0  0  0  0
   -0.3673    9.9380    0.0000 H   0  0  0  0  0  0  0  0  0  0  0  0
   -0.5329    8.3125    0.0000 H   0  0  0  0  0  0  0  0  0  0  0  0
   -1.9292    8.2758    0.0000 H   0  0  0  0  0  0  0  0  0  0  0  0
   -2.8457    7.3706    0.0000 H   0  0  0  0  0  0  0  0  0  0  0  0
   -5.3609    5.8005    0.0000 H   0  0  0  0  0  0  0  0  0  0  0  0
   -4.1933    4.6577    0.0000 H   0  0  0  0  0  0  0  0  0  0  0  0
   -2.0633    8.6947    0.0000 H   0  0  0  0  0  0  0  0  0  0  0  0
   -3.2294   11.2812    0.0000 H   0  0  0  0  0  0  0  0  0  0  0  0
   -6.2045   11.6668    0.0000 H   0  0  0  0  0  0  0  0  0  0  0  0
   -8.0259    9.2830    0.0000 H   0  0  0  0  0  0  0  0  0  0  0  0
   -6.8723    6.5137    0.0000 H   0  0  0  0  0  0  0  0  0  0  0  0
   -5.0653    3.3623    0.0000 H   0  0  0  0  0  0  0  0  0  0  0  0
   -3.7207   -1.0177    0.0000 H   0  0  0  0  0  0  0  0  0  0  0  0
   -4.4773    0.0496    0.0000 H   0  0  0  0  0  0  0  0  0  0  0  0
   -2.5774   -2.3240    0.0000 H   0  0  0  0  0  0  0  0  0  0  0  0
   -3.4382   -1.5750    0.0000 H   0  0  0  0  0  0  0  0  0  0  0  0
   -0.7399   -3.2768    0.0000 H   0  0  0  0  0  0  0  0  0  0  0  0
   -2.0847   -2.6813    0.0000 H   0  0  0  0  0  0  0  0  0  0  0  0
    0.2702   -3.7434    0.0000 H   0  0  0  0  0  0  0  0  0  0  0  0
   -6.2657    1.6442    0.0000 H   0  0  0  0  0  0  0  0  0  0  0  0
   -5.8895    3.3886    0.0000 H   0  0  0  0  0  0  0  0  0  0  0  0
   -4.4437    3.6914    0.0000 H   0  0  0  0  0  0  0  0  0  0  0  0
   -6.5640    2.4777    0.0000 H   0  0  0  0  0  0  0  0  0  0  0  0
   -5.8893   -0.8458    0.0000 H   0  0  0  0  0  0  0  0  0  0  0  0
   -7.9157   -2.8057    0.0000 H   0  0  0  0  0  0  0  0  0  0  0  0
   -6.3178   -1.7261    0.0000 H   0  0  0  0  0  0  0  0  0  0  0  0
  -11.3850   -3.0556    0.0000 H   0  0  0  0  0  0  0  0  0  0  0  0
   -9.0730   -4.0112    0.0000 H   0  0  0  0  0  0  0  0  0  0  0  0
   -9.6228   -2.0955    0.0000 H   0  0  0  0  0  0  0  0  0  0  0  0
  -10.4096    1.1655    0.0000 H   0  0  0  0  0  0  0  0  0  0  0  0
  -12.9623    2.0335    0.0000 H   0  0  0  0  0  0  0  0  0  0  0  0
  -11.2022    1.7404    0.0000 H   0  0  0  0  0  0  0  0  0  0  0  0
  -13.4924   -1.4053    0.0000 H   0  0  0  0  0  0  0  0  0  0  0  0
  -16.3414    0.7055    0.0000 H   0  0  0  0  0  0  0  0  0  0  0  0
  -15.7042    2.2100    0.0000 H   0  0  0  0  0  0  0  0  0  0  0  0
  -13.9214    2.1336    0.0000 H   0  0  0  0  0  0  0  0  0  0  0  0
  -16.1096   -0.3714    0.0000 H   0  0  0  0  0  0  0  0  0  0  0  0
  -15.3849   -2.3052    0.0000 H   0  0  0  0  0  0  0  0  0  0  0  0
  -13.4159   -1.6826    0.0000 H   0  0  0  0  0  0  0  0  0  0  0  0
  -14.2919    0.5101    0.0000 H   0  0  0  0  0  0  0  0  0  0  0  0
  -13.5670   -2.8787    0.0000 H   0  0  0  0  0  0  0  0  0  0  0  0
  -15.4769   -4.6971    0.0000 H   0  0  0  0  0  0  0  0  0  0  0  0
  -13.8790   -3.6176    0.0000 H   0  0  0  0  0  0  0  0  0  0  0  0
  -17.3466   -0.6006    0.0000 H   0  0  0  0  0  0  0  0  0  0  0  0
  -20.2691   -1.1712    0.0000 H   0  0  0  0  0  0  0  0  0  0  0  0
  -21.3063   -3.6284    0.0000 H   0  0  0  0  0  0  0  0  0  0  0  0
  -19.6268   -6.1142    0.0000 H   0  0  0  0  0  0  0  0  0  0  0  0
  -16.6343   -5.9026    0.0000 H   0  0  0  0  0  0  0  0  0  0  0  0
  -17.1841   -3.9870    0.0000 H   0  0  0  0  0  0  0  0  0  0  0  0
  -17.8114   -0.8161    0.0000 H   0  0  0  0  0  0  0  0  0  0  0  0
  -21.2228   -0.6089    0.0000 H   0  0  0  0  0  0  0  0  0  0  0  0
  -20.8049   -2.3437    0.0000 H   0  0  0  0  0  0  0  0  0  0  0  0
  -19.0295    1.6466    0.0000 H   0  0  0  0  0  0  0  0  0  0  0  0
  -18.2042    0.0645    0.0000 H   0  0  0  0  0  0  0  0  0  0  0  0
  -21.9588    3.5513    0.0000 H   0  0  0  0  0  0  0  0  0  0  0  0
  -19.3747    3.2818    0.0000 H   0  0  0  0  0  0  0  0  0  0  0  0
  -21.6865   -1.3052    0.0000 H   0  0  0  0  0  0  0  0  0  0  0  0
  -21.0118   -4.6287    0.0000 H   0  0  0  0  0  0  0  0  0  0  0  0
  -23.0381   -6.5886    0.0000 H   0  0  0  0  0  0  0  0  0  0  0  0
  -21.4403   -5.5090    0.0000 H   0  0  0  0  0  0  0  0  0  0  0  0
  -25.0353   -6.5512    0.0000 H   0  0  0  0  0  0  0  0  0  0  0  0
  -24.5625   -5.8672    0.0000 H   0  0  0  0  0  0  0  0  0  0  0  0
  -25.3726   -2.7076    0.0000 H   0  0  0  0  0  0  0  0  0  0  0  0
  -28.8450   -2.6731    0.0000 H   0  0  0  0  0  0  0  0  0  0  0  0
  -28.2188   -4.3441    0.0000 H   0  0  0  0  0  0  0  0  0  0  0  0
  -28.4614   -0.7128    0.0000 H   0  0  0  0  0  0  0  0  0  0  0  0
  -26.5907   -0.2448    0.0000 H   0  0  0  0  0  0  0  0  0  0  0  0
  -25.7655   -1.8270    0.0000 H   0  0  0  0  0  0  0  0  0  0  0  0
  1  2  1  0
  2  3  1  0
  3  4  2  0
  4  5  1  0
  5  6  2  0
  6  7  1  0
  7  8  2  0
  7  9  1  0
  9 10  1  0
 10 11  1  0
 11 12  2  0
  9 13  1  0
 13 14  1  0
 14 15  2  0
 15 16  1  0
 16 17  2  0
 17 18  1  0
 16 19  1  0
 14 20  1  0
 20 21  1  0
 21 22  2  0
 22 23  1  0
 23 24  2  0
 24 25  1  0
 25 26  2  0
 25 27  1  0
  1 28  2  0
  1 29  1  0
 29 30  1  0
 30 31  1  0
 31 32  1  0
 32 33  1  0
 33 34  1  0
 34 35  1  0
 35 36  1  0
 36 37  1  0
 37 38  1  0
 38 39  1  0
 39 40  1  0
 40 41  2  0
 40 42  1  0
 43 42  1  1
 43 44  1  0
 44 45  1  0
 45 46  1  0
 46 47  1  0
 43 48  1  0
 43 49  1  0
 49 50  2  0
 49 51  1  0
 51 52  1  0
 52 53  1  0
 53 54  2  0
 53 55  1  0
 55 56  1  0
 56 57  1  0
 56 58  1  0
 58 59  2  0
 58 60  1  0
 60 61  1  0
 61 62  1  0
 62 63  1  0
 63 64  2  0
 64 65  1  0
 65 66  2  0
 66 67  1  0
 67 68  2  0
 61 69  1  0
 69 70  2  0
 69 71  1  0
 71 72  1  0
 72 73  1  0
 73 74  1  0
 74 75  1  0
 75 76  1  0
 72 77  1  0
 72 78  1  1
 78 79  2  0
 78 80  1  0
 80 81  1  0
 81 82  1  0
 82 83  1  0
 83 84  1  0
 83 85  2  0
 81 86  1  0
 86 87  2  0
 86 88  1  0
 88 89  1  0
 89 90  1  0
 90 91  1  0
 91 92  1  0
 91 93  1  0
 89 94  1  0
 94 95  2  0
 94 96  1  0
 96 97  1  0
 97 98  1  0
 98 99  1  0
 99100  2  0
100101  1  0
101102  2  0
102103  1  0
103104  2  0
 97105  1  0
105106  2  0
105107  1  0
107108  1  0
108109  1  0
109110  1  0
110111  1  0
111112  1  0
111113  2  0
108114  1  0
114115  2  0
114116  1  0
116117  1  0
117118  1  0
118119  1  0
117120  1  0
120121  2  0
120122  1  0
122123  1  0
123124  1  0
124125  1  0
123126  1  0
126127  2  0
126128  1  0
  8  3  1  0
 68 63  1  0
104 99  1  0
 11  6  1  0
 47 76  2  0
 18 13  2  0
 22  9  1  0
 26 21  1  0
  2129  1  0
  4130  1  0
  5131  1  0
  8132  1  0
 15133  1  0
 17134  1  0
 18135  1  0
 19136  1  0
 23137  1  0
 24138  1  0
 26139  1  0
 27140  1  0
 29141  1  0
 30142  1  0
 30143  1  0
 31144  1  0
 31145  1  0
 33146  1  0
 33147  1  0
 35148  1  0
 35149  1  0
 36150  1  0
 36151  1  0
 38152  1  0
 38153  1  0
 39154  1  0
 39155  1  0
 42156  1  0
 44157  1  0
 44158  1  0
 45159  1  0
 45160  1  0
 46161  1  0
 46162  1  0
 47163  1  0
 48164  1  0
 48165  1  0
 48166  1  0
 51167  1  0
 52168  1  0
 52169  1  0
 55170  1  0
 56171  1  6
 57172  1  0
 57173  1  0
 57174  1  0
 60175  1  0
 61176  1  6
 62177  1  0
 62178  1  0
 64179  1  0
 65180  1  0
 66181  1  0
 67182  1  0
 68183  1  0
 71184  1  0
 73185  1  0
 73186  1  0
 74187  1  0
 74188  1  0
 75189  1  0
 75190  1  0
 76191  1  0
 77192  1  0
 77193  1  0
 77194  1  0
 80195  1  0
 81196  1  1
 82197  1  0
 82198  1  0
 84199  1  0
 84200  1  0
 88201  1  0
 89202  1  6
 90203  1  0
 90204  1  0
 91205  1  0
 92206  1  0
 92207  1  0
 92208  1  0
 93209  1  0
 93210  1  0
 93211  1  0
 96212  1  0
 97213  1  1
 98214  1  0
 98215  1  0
100216  1  0
101217  1  0
102218  1  0
103219  1  0
104220  1  0
107221  1  0
108222  1  6
109223  1  0
109224  1  0
110225  1  0
110226  1  0
112227  1  0
112228  1  0
116229  1  0
117230  1  1
118231  1  0
118232  1  0
119233  1  0
122234  1  0
123235  1  6
124236  1  0
124237  1  0
125238  1  0
125239  1  0
125240  1  0
M  CHG  1 128  -1
M  END
