
     RDKit          2D

410413  0  0  0  0  0  0  0  0999 V2000
   38.1222  -12.7510    0.0000 N   0  0  0  0  0  0  0  0  0  0  0  0
   36.7511  -12.1427    0.0000 C   0  0  0  0  0  0  0  0  0  0  0  0
   36.5924  -10.6511    0.0000 C   0  0  0  0  0  0  0  0  0  0  0  0
   35.2213  -10.0427    0.0000 C   0  0  0  0  0  0  0  0  0  0  0  0
   34.1256  -11.0671    0.0000 O   0  0  0  0  0  0  0  0  0  0  0  0
   35.0627   -8.5511    0.0000 N   0  0  0  0  0  0  0  0  0  0  0  0
   33.6916   -7.9427    0.0000 C   0  0  0  0  0  0  0  0  0  0  0  0
   33.3305   -9.3986    0.0000 C   0  0  0  0  0  0  0  0  0  0  0  0
   31.8892   -9.8139    0.0000 C   0  0  0  0  0  0  0  0  0  0  0  0
   31.5281  -11.2698    0.0000 C   0  0  0  0  0  0  0  0  0  0  0  0
   30.0867  -11.6851    0.0000 C   0  0  0  0  0  0  0  0  0  0  0  0
   29.7257  -13.1410    0.0000 N   0  0  0  0  0  0  0  0  0  0  0  0
   32.6113   -6.9021    0.0000 C   0  0  0  0  0  0  0  0  0  0  0  0
   31.2313   -7.4900    0.0000 O   0  0  0  0  0  0  0  0  0  0  0  0
   32.9723   -5.4462    0.0000 N   0  0  0  0  0  0  0  0  0  0  0  0
   31.8920   -4.4056    0.0000 C   0  0  0  0  0  0  0  0  0  0  0  0
   31.0548   -5.6502    0.0000 C   0  0  0  0  0  0  0  0  0  0  0  0
   31.2327   -3.0582    0.0000 C   0  0  0  0  0  0  0  0  0  0  0  0
   29.7363   -2.9555    0.0000 O   0  0  0  0  0  0  0  0  0  0  0  0
   32.0700   -1.8136    0.0000 N   0  0  0  0  0  0  0  0  0  0  0  0
   31.4107   -0.4662    0.0000 C   0  0  0  0  0  0  0  0  0  0  0  0
   32.8521   -0.0510    0.0000 C   0  0  0  0  0  0  0  0  0  0  0  0
   34.0645    0.8322    0.0000 O   0  0  0  0  0  0  0  0  0  0  0  0
   33.9324   -1.0916    0.0000 C   0  0  0  0  0  0  0  0  0  0  0  0
   30.3304    0.5744    0.0000 C   0  0  0  0  0  0  0  0  0  0  0  0
   30.6914    2.0303    0.0000 O   0  0  0  0  0  0  0  0  0  0  0  0
   28.8890    0.1591    0.0000 N   0  0  0  0  0  0  0  0  0  0  0  0
   27.8087    1.1997    0.0000 C   0  0  0  0  0  0  0  0  0  0  0  0
   26.9715   -0.0449    0.0000 C   0  0  0  0  0  0  0  0  0  0  0  0
   27.6307   -1.3922    0.0000 C   0  0  0  0  0  0  0  0  0  0  0  0
   26.7935   -2.6368    0.0000 C   0  0  0  0  0  0  0  0  0  0  0  0
   27.4528   -3.9842    0.0000 O   0  0  0  0  0  0  0  0  0  0  0  0
   25.2970   -2.5341    0.0000 O   0  0  0  0  0  0  0  0  0  0  0  0
   27.1494    2.5471    0.0000 C   0  0  0  0  0  0  0  0  0  0  0  0
   26.3534    2.5044    0.0000 O   0  0  0  0  0  0  0  0  0  0  0  0
   27.9867    3.7917    0.0000 N   0  0  0  0  0  0  0  0  0  0  0  0
   27.3274    5.1391    0.0000 C   0  0  0  0  0  0  0  0  0  0  0  0
   27.1687    6.6307    0.0000 C   0  0  0  0  0  0  0  0  0  0  0  0
   28.3812    7.5139    0.0000 C   0  0  0  0  0  0  0  0  0  0  0  0
   28.2225    9.0055    0.0000 C   0  0  0  0  0  0  0  0  0  0  0  0
   29.4349    9.8887    0.0000 C   0  0  0  0  0  0  0  0  0  0  0  0
   30.8060    9.2803    0.0000 C   0  0  0  0  0  0  0  0  0  0  0  0
   32.0184   10.1635    0.0000 O   0  0  0  0  0  0  0  0  0  0  0  0
   30.9647    7.7887    0.0000 C   0  0  0  0  0  0  0  0  0  0  0  0
   29.7522    6.9055    0.0000 C   0  0  0  0  0  0  0  0  0  0  0  0
   26.1150    4.2559    0.0000 C   0  0  0  0  0  0  0  0  0  0  0  0
   26.1021    3.4588    0.0000 O   0  0  0  0  0  0  0  0  0  0  0  0
   24.7439    4.8643    0.0000 N   0  0  0  0  0  0  0  0  0  0  0  0
   23.5315    3.9811    0.0000 C   0  0  0  0  0  0  0  0  0  0  0  0
   22.6943    2.7364    0.0000 C   0  0  0  0  0  0  0  0  0  0  0  0
   21.1964    2.6560    0.0000 C   0  0  0  0  0  0  0  0  0  0  0  0
   22.3332    1.2805    0.0000 C   0  0  0  0  0  0  0  0  0  0  0  0
   23.4135    0.2399    0.0000 C   0  0  0  0  0  0  0  0  0  0  0  0
   22.1604    4.5894    0.0000 C   0  0  0  0  0  0  0  0  0  0  0  0
   22.0017    6.0810    0.0000 O   0  0  0  0  0  0  0  0  0  0  0  0
   20.9480    3.7062    0.0000 N   0  0  0  0  0  0  0  0  0  0  0  0
   19.5769    4.3146    0.0000 C   0  0  0  0  0  0  0  0  0  0  0  0
   18.4966    5.3552    0.0000 C   0  0  0  0  0  0  0  0  0  0  0  0
   17.0552    4.9400    0.0000 C   0  0  0  0  0  0  0  0  0  0  0  0
   15.9749    5.9806    0.0000 C   0  0  0  0  0  0  0  0  0  0  0  0
   14.4937    5.7441    0.0000 N   0  0  0  0  0  0  0  0  0  0  0  0
   16.3359    7.4365    0.0000 O   0  0  0  0  0  0  0  0  0  0  0  0
   18.3645    3.4314    0.0000 C   0  0  0  0  0  0  0  0  0  0  0  0
   18.5232    1.9398    0.0000 O   0  0  0  0  0  0  0  0  0  0  0  0
   16.9934    4.0398    0.0000 N   0  0  0  0  0  0  0  0  0  0  0  0
   15.7810    3.1566    0.0000 C   0  0  0  0  0  0  0  0  0  0  0  0
   14.9438    1.9120    0.0000 C   0  0  0  0  0  0  0  0  0  0  0  0
   13.4473    2.0147    0.0000 C   0  0  0  0  0  0  0  0  0  0  0  0
   12.7880    3.3621    0.0000 C   0  0  0  0  0  0  0  0  0  0  0  0
   11.2916    3.4648    0.0000 C   0  0  0  0  0  0  0  0  0  0  0  0
   10.4543    2.2202    0.0000 C   0  0  0  0  0  0  0  0  0  0  0  0
    8.9579    2.3230    0.0000 O   0  0  0  0  0  0  0  0  0  0  0  0
   11.1136    0.8729    0.0000 C   0  0  0  0  0  0  0  0  0  0  0  0
   12.6101    0.7701    0.0000 C   0  0  0  0  0  0  0  0  0  0  0  0
   14.4099    3.7650    0.0000 C   0  0  0  0  0  0  0  0  0  0  0  0
   14.2512    5.2565    0.0000 O   0  0  0  0  0  0  0  0  0  0  0  0
   13.1975    2.8817    0.0000 N   0  0  0  0  0  0  0  0  0  0  0  0
   11.8264    3.4901    0.0000 C   0  0  0  0  0  0  0  0  0  0  0  0
   10.7461    4.5308    0.0000 C   0  0  0  0  0  0  0  0  0  0  0  0
    9.3047    4.1155    0.0000 C   0  0  0  0  0  0  0  0  0  0  0  0
    8.2244    5.1561    0.0000 C   0  0  0  0  0  0  0  0  0  0  0  0
    6.7432    4.9196    0.0000 C   0  0  0  0  0  0  0  0  0  0  0  0
   10.6140    2.6069    0.0000 C   0  0  0  0  0  0  0  0  0  0  0  0
   10.4070    1.1213    0.0000 O   0  0  0  0  0  0  0  0  0  0  0  0
    9.2429    3.2153    0.0000 N   0  0  0  0  0  0  0  0  0  0  0  0
    8.0305    2.3321    0.0000 C   0  0  0  0  0  0  0  0  0  0  0  0
    7.1933    1.0875    0.0000 C   0  0  0  0  0  0  0  0  0  0  0  0
    5.6968    1.1902    0.0000 C   0  0  0  0  0  0  0  0  0  0  0  0
    4.8596   -0.0544    0.0000 C   0  0  0  0  0  0  0  0  0  0  0  0
    3.3631    0.0484    0.0000 N   0  0  0  0  0  0  0  0  0  0  0  0
    2.5259   -1.1962    0.0000 C   0  0  0  0  0  0  0  0  0  0  0  0
    1.0531   -0.9118    0.0000 N   0  0  0  0  0  0  0  0  0  0  0  0
    3.1851   -2.5436    0.0000 N   0  0  0  0  0  0  0  0  0  0  0  0
    6.6594    2.9405    0.0000 C   0  0  0  0  0  0  0  0  0  0  0  0
    6.3201    4.4016    0.0000 O   0  0  0  0  0  0  0  0  0  0  0  0
    5.4470    2.0573    0.0000 N   0  0  0  0  0  0  0  0  0  0  0  0
    4.0759    2.6656    0.0000 C   0  0  0  0  0  0  0  0  0  0  0  0
    2.9956    3.7063    0.0000 C   0  0  0  0  0  0  0  0  0  0  0  0
    1.5542    3.2910    0.0000 C   0  0  0  0  0  0  0  0  0  0  0  0
    0.4739    4.3316    0.0000 C   0  0  0  0  0  0  0  0  0  0  0  0
   -0.9675    3.9164    0.0000 N   0  0  0  0  0  0  0  0  0  0  0  0
   -2.0478    4.9570    0.0000 C   0  0  0  0  0  0  0  0  0  0  0  0
   -3.4278    4.3691    0.0000 N   0  0  0  0  0  0  0  0  0  0  0  0
   -1.6867    6.4129    0.0000 N   0  0  0  0  0  0  0  0  0  0  0  0
    2.8635    1.7824    0.0000 C   0  0  0  0  0  0  0  0  0  0  0  0
    2.6565    0.2968    0.0000 O   0  0  0  0  0  0  0  0  0  0  0  0
    1.4924    2.3908    0.0000 N   0  0  0  0  0  0  0  0  0  0  0  0
    0.2800    1.5076    0.0000 C   0  0  0  0  0  0  0  0  0  0  0  0
   -0.5572    0.2630    0.0000 C   0  0  0  0  0  0  0  0  0  0  0  0
   -2.0537    0.3658    0.0000 C   0  0  0  0  0  0  0  0  0  0  0  0
   -2.8909   -0.8789    0.0000 C   0  0  0  0  0  0  0  0  0  0  0  0
   -4.3874   -0.7761    0.0000 C   0  0  0  0  0  0  0  0  0  0  0  0
   -5.2246   -2.0207    0.0000 N   0  0  0  0  0  0  0  0  0  0  0  0
   -1.0911    2.1160    0.0000 C   0  0  0  0  0  0  0  0  0  0  0  0
   -1.6060    3.5249    0.0000 O   0  0  0  0  0  0  0  0  0  0  0  0
   -2.3035    1.2328    0.0000 N   0  0  0  0  0  0  0  0  0  0  0  0
   -3.6746    1.8412    0.0000 C   0  0  0  0  0  0  0  0  0  0  0  0
   -4.7549    2.8818    0.0000 C   0  0  0  0  0  0  0  0  0  0  0  0
   -6.1963    2.4665    0.0000 C   0  0  0  0  0  0  0  0  0  0  0  0
   -7.2766    3.5072    0.0000 N   0  0  0  0  0  0  0  0  0  0  0  0
   -6.8989    1.1413    0.0000 O   0  0  0  0  0  0  0  0  0  0  0  0
   -4.8870    0.9580    0.0000 C   0  0  0  0  0  0  0  0  0  0  0  0
   -5.0940   -0.5277    0.0000 O   0  0  0  0  0  0  0  0  0  0  0  0
   -6.2581    1.5663    0.0000 N   0  0  0  0  0  0  0  0  0  0  0  0
   -7.4705    0.6831    0.0000 C   0  0  0  0  0  0  0  0  0  0  0  0
   -8.3077   -0.5615    0.0000 C   0  0  0  0  0  0  0  0  0  0  0  0
   -9.8042   -0.4587    0.0000 C   0  0  0  0  0  0  0  0  0  0  0  0
  -10.7669   -1.6090    0.0000 C   0  0  0  0  0  0  0  0  0  0  0  0
  -12.1584   -1.0488    0.0000 N   0  0  0  0  0  0  0  0  0  0  0  0
  -12.0557    0.4476    0.0000 C   0  0  0  0  0  0  0  0  0  0  0  0
  -10.6007    0.8123    0.0000 N   0  0  0  0  0  0  0  0  0  0  0  0
   -8.8416    1.2915    0.0000 C   0  0  0  0  0  0  0  0  0  0  0  0
   -9.1809    2.7526    0.0000 O   0  0  0  0  0  0  0  0  0  0  0  0
  -10.0540    0.4083    0.0000 N   0  0  0  0  0  0  0  0  0  0  0  0
  -11.4251    1.0167    0.0000 C   0  0  0  0  0  0  0  0  0  0  0  0
  -12.5054    2.0573    0.0000 C   0  0  0  0  0  0  0  0  0  0  0  0
  -13.7921    2.8283    0.0000 O   0  0  0  0  0  0  0  0  0  0  0  0
  -12.1444    3.5132    0.0000 C   0  0  0  0  0  0  0  0  0  0  0  0
  -12.6375    0.1335    0.0000 C   0  0  0  0  0  0  0  0  0  0  0  0
  -12.8445   -1.3522    0.0000 O   0  0  0  0  0  0  0  0  0  0  0  0
  -14.0086    0.7419    0.0000 N   0  0  0  0  0  0  0  0  0  0  0  0
  -15.2210   -0.1413    0.0000 C   0  0  0  0  0  0  0  0  0  0  0  0
  -16.0582   -1.3860    0.0000 C   0  0  0  0  0  0  0  0  0  0  0  0
  -17.5547   -1.2832    0.0000 C   0  0  0  0  0  0  0  0  0  0  0  0
  -18.5174   -2.4335    0.0000 C   0  0  0  0  0  0  0  0  0  0  0  0
  -19.9089   -1.8733    0.0000 N   0  0  0  0  0  0  0  0  0  0  0  0
  -19.8062   -0.3768    0.0000 C   0  0  0  0  0  0  0  0  0  0  0  0
  -18.3512   -0.0121    0.0000 N   0  0  0  0  0  0  0  0  0  0  0  0
  -16.5921    0.4670    0.0000 C   0  0  0  0  0  0  0  0  0  0  0  0
  -16.7508    1.9586    0.0000 O   0  0  0  0  0  0  0  0  0  0  0  0
  -17.8045   -0.4162    0.0000 N   0  0  0  0  0  0  0  0  0  0  0  0
  -19.1756    0.1922    0.0000 C   0  0  0  0  0  0  0  0  0  0  0  0
  -20.2559    1.2328    0.0000 C   0  0  0  0  0  0  0  0  0  0  0  0
  -19.8949    2.6887    0.0000 C   0  0  0  0  0  0  0  0  0  0  0  0
  -20.9752    3.7294    0.0000 C   0  0  0  0  0  0  0  0  0  0  0  0
  -20.6141    5.1853    0.0000 N   0  0  0  0  0  0  0  0  0  0  0  0
  -22.4165    3.3141    0.0000 O   0  0  0  0  0  0  0  0  0  0  0  0
  -20.3880   -0.6910    0.0000 C   0  0  0  0  0  0  0  0  0  0  0  0
  -20.5950   -2.1766    0.0000 O   0  0  0  0  0  0  0  0  0  0  0  0
  -21.7591   -0.0826    0.0000 N   0  0  0  0  0  0  0  0  0  0  0  0
  -22.9715   -0.9658    0.0000 C   0  0  0  0  0  0  0  0  0  0  0  0
  -23.8087   -2.2104    0.0000 C   0  0  0  0  0  0  0  0  0  0  0  0
  -25.3052   -2.1077    0.0000 C   0  0  0  0  0  0  0  0  0  0  0  0
  -26.1424   -3.3523    0.0000 C   0  0  0  0  0  0  0  0  0  0  0  0
  -27.6403   -3.4327    0.0000 N   0  0  0  0  0  0  0  0  0  0  0  0
  -25.4832   -4.6997    0.0000 O   0  0  0  0  0  0  0  0  0  0  0  0
  -24.3426   -0.3574    0.0000 C   0  0  0  0  0  0  0  0  0  0  0  0
  -24.5013    1.1341    0.0000 O   0  0  0  0  0  0  0  0  0  0  0  0
  -25.5550   -1.2406    0.0000 N   0  0  0  0  0  0  0  0  0  0  0  0
  -26.9261   -0.6323    0.0000 C   0  0  0  0  0  0  0  0  0  0  0  0
  -28.0064    0.4084    0.0000 C   0  0  0  0  0  0  0  0  0  0  0  0
  -27.6454    1.8643    0.0000 C   0  0  0  0  0  0  0  0  0  0  0  0
  -28.7257    2.9049    0.0000 O   0  0  0  0  0  0  0  0  0  0  0  0
  -26.2040    2.2795    0.0000 O   0  0  0  0  0  0  0  0  0  0  0  0
  -28.1385   -1.5155    0.0000 C   0  0  0  0  0  0  0  0  0  0  0  0
  -28.1628   -3.0153    0.0000 O   0  0  0  0  0  0  0  0  0  0  0  0
  -29.5096   -0.9071    0.0000 N   0  0  0  0  0  0  0  0  0  0  0  0
  -30.7220   -1.7903    0.0000 C   0  0  0  0  0  0  0  0  0  0  0  0
  -31.5592   -3.0349    0.0000 C   0  0  0  0  0  0  0  0  0  0  0  0
  -33.0557   -2.9322    0.0000 C   0  0  0  0  0  0  0  0  0  0  0  0
  -31.9203   -4.4908    0.0000 C   0  0  0  0  0  0  0  0  0  0  0  0
  -33.3616   -4.9061    0.0000 C   0  0  0  0  0  0  0  0  0  0  0  0
  -32.0931   -1.1819    0.0000 C   0  0  0  0  0  0  0  0  0  0  0  0
  -32.2518    0.3097    0.0000 O   0  0  0  0  0  0  0  0  0  0  0  0
  -33.3055   -2.0651    0.0000 N   0  0  0  0  0  0  0  0  0  0  0  0
  -34.6766   -1.4567    0.0000 C   0  0  0  0  0  0  0  0  0  0  0  0
  -35.7569   -0.4161    0.0000 C   0  0  0  0  0  0  0  0  0  0  0  0
  -35.3959    1.0398    0.0000 C   0  0  0  0  0  0  0  0  0  0  0  0
  -36.4762    2.0804    0.0000 O   0  0  0  0  0  0  0  0  0  0  0  0
  -33.9545    1.4551    0.0000 O   0  0  0  0  0  0  0  0  0  0  0  0
  -35.8890   -2.3400    0.0000 C   0  0  0  0  0  0  0  0  0  0  0  0
  -35.7303   -3.8315    0.0000 O   0  0  0  0  0  0  0  0  0  0  0  0
  -37.2601   -1.7316    0.0000 N   0  0  0  0  0  0  0  0  0  0  0  0
  -38.4725   -2.6148    0.0000 C   0  0  0  0  0  0  0  0  0  0  0  0
  -39.3097   -3.8594    0.0000 C   0  0  0  0  0  0  0  0  0  0  0  0
  -40.8062   -3.7566    0.0000 C   0  0  0  0  0  0  0  0  0  0  0  0
  -41.6434   -5.0013    0.0000 O   0  0  0  0  0  0  0  0  0  0  0  0
  -41.7719   -2.6088    0.0000 O   0  0  0  0  0  0  0  0  0  0  0  0
  -39.8436   -2.0064    0.0000 C   0  0  0  0  0  0  0  0  0  0  0  0
  -40.0023   -0.5148    0.0000 O   0  0  0  0  0  0  0  0  0  0  0  0
  -41.0560   -2.8896    0.0000 N   0  0  0  0  0  0  0  0  0  0  0  0
  -42.4271   -2.2812    0.0000 C   0  0  0  0  0  0  0  0  0  0  0  0
  -43.5074   -1.2406    0.0000 C   0  0  0  0  0  0  0  0  0  0  0  0
  -44.9488   -1.6559    0.0000 C   0  0  0  0  0  0  0  0  0  0  0  0
  -46.0291   -0.6152    0.0000 C   0  0  0  0  0  0  0  0  0  0  0  0
  -46.1612   -2.5391    0.0000 C   0  0  0  0  0  0  0  0  0  0  0  0
  -43.6395   -3.1644    0.0000 C   0  0  0  0  0  0  0  0  0  0  0  0
  -45.0745   -2.7277    0.0000 O   0  0  0  0  0  0  0  0  0  0  0  0
  -43.4808   -4.6560    0.0000 O   0  0  0  0  0  0  0  0  0  0  0  0
   38.2809  -14.2426    0.0000 H   0  0  0  0  0  0  0  0  0  0  0  0
   39.3346  -11.8678    0.0000 H   0  0  0  0  0  0  0  0  0  0  0  0
   36.3900  -13.5986    0.0000 H   0  0  0  0  0  0  0  0  0  0  0  0
   35.2546  -12.0399    0.0000 H   0  0  0  0  0  0  0  0  0  0  0  0
   38.0889  -10.7538    0.0000 H   0  0  0  0  0  0  0  0  0  0  0  0
   36.9535   -9.1952    0.0000 H   0  0  0  0  0  0  0  0  0  0  0  0
   36.2751   -7.6679    0.0000 H   0  0  0  0  0  0  0  0  0  0  0  0
   34.5288   -6.6981    0.0000 H   0  0  0  0  0  0  0  0  0  0  0  0
   33.4892  -10.8902    0.0000 H   0  0  0  0  0  0  0  0  0  0  0  0
   34.7577   -9.8604    0.0000 H   0  0  0  0  0  0  0  0  0  0  0  0
   30.4164   -9.5295    0.0000 H   0  0  0  0  0  0  0  0  0  0  0  0
   31.7305   -8.3223    0.0000 H   0  0  0  0  0  0  0  0  0  0  0  0
   31.8674  -12.7309    0.0000 H   0  0  0  0  0  0  0  0  0  0  0  0
   33.0009  -11.5542    0.0000 H   0  0  0  0  0  0  0  0  0  0  0  0
   28.5903  -11.5823    0.0000 H   0  0  0  0  0  0  0  0  0  0  0  0
   29.7474  -10.2239    0.0000 H   0  0  0  0  0  0  0  0  0  0  0  0
   28.2843  -13.5562    0.0000 H   0  0  0  0  0  0  0  0  0  0  0  0
   29.8844  -14.6326    0.0000 H   0  0  0  0  0  0  0  0  0  0  0  0
   31.1985  -13.4254    0.0000 H   0  0  0  0  0  0  0  0  0  0  0  0
   34.4137   -5.0309    0.0000 H   0  0  0  0  0  0  0  0  0  0  0  0
   33.1044   -3.5224    0.0000 H   0  0  0  0  0  0  0  0  0  0  0  0
   31.5449   -7.0679    0.0000 H   0  0  0  0  0  0  0  0  0  0  0  0
   29.8424   -6.5334    0.0000 H   0  0  0  0  0  0  0  0  0  0  0  0
   29.9744   -4.6096    0.0000 H   0  0  0  0  0  0  0  0  0  0  0  0
   33.5428   -2.0980    0.0000 H   0  0  0  0  0  0  0  0  0  0  0  0
   30.1983   -1.3494    0.0000 H   0  0  0  0  0  0  0  0  0  0  0  0
   32.1928    1.2964    0.0000 H   0  0  0  0  0  0  0  0  0  0  0  0
   35.4995    0.3955    0.0000 H   0  0  0  0  0  0  0  0  0  0  0  0
   35.4136   -0.8551    0.0000 H   0  0  0  0  0  0  0  0  0  0  0  0
   34.5917   -2.4390    0.0000 H   0  0  0  0  0  0  0  0  0  0  0  0
   33.1171   -2.3507    0.0000 H   0  0  0  0  0  0  0  0  0  0  0  0
   28.7081   -1.3299    0.0000 H   0  0  0  0  0  0  0  0  0  0  0  0
   29.0211    2.0830    0.0000 H   0  0  0  0  0  0  0  0  0  0  0  0
   25.7591   -0.9281    0.0000 H   0  0  0  0  0  0  0  0  0  0  0  0
   25.8912    0.9958    0.0000 H   0  0  0  0  0  0  0  0  0  0  0  0
   28.7110   -2.4329    0.0000 H   0  0  0  0  0  0  0  0  0  0  0  0
   29.0792   -1.0023    0.0000 H   0  0  0  0  0  0  0  0  0  0  0  0
   29.4831    3.6890    0.0000 H   0  0  0  0  0  0  0  0  0  0  0  0
   28.7688    5.5544    0.0000 H   0  0  0  0  0  0  0  0  0  0  0  0
   25.7274    6.2154    0.0000 H   0  0  0  0  0  0  0  0  0  0  0  0
   26.5095    7.9780    0.0000 H   0  0  0  0  0  0  0  0  0  0  0  0
   26.8514    9.6138    0.0000 H   0  0  0  0  0  0  0  0  0  0  0  0
   29.2762   11.3802    0.0000 H   0  0  0  0  0  0  0  0  0  0  0  0
   33.3895    9.5551    0.0000 H   0  0  0  0  0  0  0  0  0  0  0  0
   32.3357    7.1803    0.0000 H   0  0  0  0  0  0  0  0  0  0  0  0
   29.9109    5.4139    0.0000 H   0  0  0  0  0  0  0  0  0  0  0  0
   24.5852    6.3558    0.0000 H   0  0  0  0  0  0  0  0  0  0  0  0
   24.6118    2.9404    0.0000 H   0  0  0  0  0  0  0  0  0  0  0  0
   24.1293    2.2997    0.0000 H   0  0  0  0  0  0  0  0  0  0  0  0
   20.2151    1.7059    0.0000 H   0  0  0  0  0  0  0  0  0  0  0  0
   19.8267    3.4476    0.0000 H   0  0  0  0  0  0  0  0  0  0  0  0
   20.8329    4.2941    0.0000 H   0  0  0  0  0  0  0  0  0  0  0  0
   21.4960    0.0359    0.0000 H   0  0  0  0  0  0  0  0  0  0  0  0
   20.8557    1.5391    0.0000 H   0  0  0  0  0  0  0  0  0  0  0  0
   23.0525   -1.2160    0.0000 H   0  0  0  0  0  0  0  0  0  0  0  0
   24.7846   -0.3685    0.0000 H   0  0  0  0  0  0  0  0  0  0  0  0
   24.3962    1.3732    0.0000 H   0  0  0  0  0  0  0  0  0  0  0  0
   20.7410    2.2206    0.0000 H   0  0  0  0  0  0  0  0  0  0  0  0
   20.4141    5.5592    0.0000 H   0  0  0  0  0  0  0  0  0  0  0  0
   17.8373    6.7026    0.0000 H   0  0  0  0  0  0  0  0  0  0  0  0
   19.7090    6.2384    0.0000 H   0  0  0  0  0  0  0  0  0  0  0  0
   15.8428    4.0568    0.0000 H   0  0  0  0  0  0  0  0  0  0  0  0
   17.0046    3.4408    0.0000 H   0  0  0  0  0  0  0  0  0  0  0  0
   13.4532    6.6059    0.0000 H   0  0  0  0  0  0  0  0  0  0  0  0
   13.6079    4.3332    0.0000 H   0  0  0  0  0  0  0  0  0  0  0  0
   16.4785    5.4486    0.0000 H   0  0  0  0  0  0  0  0  0  0  0  0
   16.8613    2.1159    0.0000 H   0  0  0  0  0  0  0  0  0  0  0  0
   14.5827    0.4561    0.0000 H   0  0  0  0  0  0  0  0  0  0  0  0
   16.3149    1.3036    0.0000 H   0  0  0  0  0  0  0  0  0  0  0  0
   13.2992    4.7723    0.0000 H   0  0  0  0  0  0  0  0  0  0  0  0
   10.3259    4.6126    0.0000 H   0  0  0  0  0  0  0  0  0  0  0  0
    8.2786    0.9856    0.0000 H   0  0  0  0  0  0  0  0  0  0  0  0
   10.2764   -0.3718    0.0000 H   0  0  0  0  0  0  0  0  0  0  0  0
   13.2693   -0.5773    0.0000 H   0  0  0  0  0  0  0  0  0  0  0  0
   12.9905    1.3961    0.0000 H   0  0  0  0  0  0  0  0  0  0  0  0
   12.6636    4.7347    0.0000 H   0  0  0  0  0  0  0  0  0  0  0  0
   10.2560    5.9484    0.0000 H   0  0  0  0  0  0  0  0  0  0  0  0
   11.9585    5.4140    0.0000 H   0  0  0  0  0  0  0  0  0  0  0  0
    8.2090    3.0911    0.0000 H   0  0  0  0  0  0  0  0  0  0  0  0
    8.8928    2.6731    0.0000 H   0  0  0  0  0  0  0  0  0  0  0  0
    7.5651    6.5035    0.0000 H   0  0  0  0  0  0  0  0  0  0  0  0
    9.3201    6.1805    0.0000 H   0  0  0  0  0  0  0  0  0  0  0  0
    5.7027    5.7815    0.0000 H   0  0  0  0  0  0  0  0  0  0  0  0
    5.4499    4.0085    0.0000 H   0  0  0  0  0  0  0  0  0  0  0  0
    7.2510    3.3196    0.0000 H   0  0  0  0  0  0  0  0  0  0  0  0
    8.7280    4.6242    0.0000 H   0  0  0  0  0  0  0  0  0  0  0  0
    9.1108    1.2915    0.0000 H   0  0  0  0  0  0  0  0  0  0  0  0
    7.0124   -0.4016    0.0000 H   0  0  0  0  0  0  0  0  0  0  0  0
    8.4800    0.3165    0.0000 H   0  0  0  0  0  0  0  0  0  0  0  0
    4.3257    1.7986    0.0000 H   0  0  0  0  0  0  0  0  0  0  0  0
    5.3319    2.6452    0.0000 H   0  0  0  0  0  0  0  0  0  0  0  0
    4.4985   -1.5103    0.0000 H   0  0  0  0  0  0  0  0  0  0  0  0
    6.1463   -0.8254    0.0000 H   0  0  0  0  0  0  0  0  0  0  0  0
    2.2647    1.0699    0.0000 H   0  0  0  0  0  0  0  0  0  0  0  0
    0.1922   -2.3381    0.0000 H   0  0  0  0  0  0  0  0  0  0  0  0
    0.5173    0.3284    0.0000 H   0  0  0  0  0  0  0  0  0  0  0  0
    2.3479   -3.7882    0.0000 H   0  0  0  0  0  0  0  0  0  0  0  0
    4.6816   -2.6464    0.0000 H   0  0  0  0  0  0  0  0  0  0  0  0
    5.2400    0.5716    0.0000 H   0  0  0  0  0  0  0  0  0  0  0  0
    4.7552    4.0030    0.0000 H   0  0  0  0  0  0  0  0  0  0  0  0
    2.5055    5.1240    0.0000 H   0  0  0  0  0  0  0  0  0  0  0  0
    4.2080    4.5895    0.0000 H   0  0  0  0  0  0  0  0  0  0  0  0
    0.3418    2.4078    0.0000 H   0  0  0  0  0  0  0  0  0  0  0  0
    1.3212    1.8092    0.0000 H   0  0  0  0  0  0  0  0  0  0  0  0
   -0.1854    5.6790    0.0000 H   0  0  0  0  0  0  0  0  0  0  0  0
    1.5696    5.3560    0.0000 H   0  0  0  0  0  0  0  0  0  0  0  0
   -1.8264    2.6866    0.0000 H   0  0  0  0  0  0  0  0  0  0  0  0
   -4.5695    5.5823    0.0000 H   0  0  0  0  0  0  0  0  0  0  0  0
   -3.6906    3.0439    0.0000 H   0  0  0  0  0  0  0  0  0  0  0  0
   -2.7671    7.4535    0.0000 H   0  0  0  0  0  0  0  0  0  0  0  0
   -0.2454    6.8282    0.0000 H   0  0  0  0  0  0  0  0  0  0  0  0
    0.9775    3.7997    0.0000 H   0  0  0  0  0  0  0  0  0  0  0  0
    1.3603    0.4670    0.0000 H   0  0  0  0  0  0  0  0  0  0  0  0
   -0.7381   -1.2260    0.0000 H   0  0  0  0  0  0  0  0  0  0  0  0
    0.9203    0.0045    0.0000 H   0  0  0  0  0  0  0  0  0  0  0  0
   -3.3404    1.1367    0.0000 H   0  0  0  0  0  0  0  0  0  0  0  0
   -2.5932    1.7654    0.0000 H   0  0  0  0  0  0  0  0  0  0  0  0
   -3.0718   -2.3679    0.0000 H   0  0  0  0  0  0  0  0  0  0  0  0
   -1.6042   -1.6498    0.0000 H   0  0  0  0  0  0  0  0  0  0  0  0
   -5.8224   -0.3394    0.0000 H   0  0  0  0  0  0  0  0  0  0  0  0
   -4.2065    0.7129    0.0000 H   0  0  0  0  0  0  0  0  0  0  0  0
   -6.6974   -1.7363    0.0000 H   0  0  0  0  0  0  0  0  0  0  0  0
   -5.5857   -3.4766    0.0000 H   0  0  0  0  0  0  0  0  0  0  0  0
   -3.9379   -2.7917    0.0000 H   0  0  0  0  0  0  0  0  0  0  0  0
   -2.5105   -0.2529    0.0000 H   0  0  0  0  0  0  0  0  0  0  0  0
   -2.8374    3.0858    0.0000 H   0  0  0  0  0  0  0  0  0  0  0  0
   -5.4142    4.2292    0.0000 H   0  0  0  0  0  0  0  0  0  0  0  0
   -3.3648    3.4454    0.0000 H   0  0  0  0  0  0  0  0  0  0  0  0
   -8.7578    3.2707    0.0000 H   0  0  0  0  0  0  0  0  0  0  0  0
   -6.9155    4.9631    0.0000 H   0  0  0  0  0  0  0  0  0  0  0  0
   -6.7730    2.9752    0.0000 H   0  0  0  0  0  0  0  0  0  0  0  0
   -6.5251   -0.4814    0.0000 H   0  0  0  0  0  0  0  0  0  0  0  0
   -8.6688   -2.0174    0.0000 H   0  0  0  0  0  0  0  0  0  0  0  0
   -6.8727   -0.9982    0.0000 H   0  0  0  0  0  0  0  0  0  0  0  0
  -10.4022   -3.0640    0.0000 H   0  0  0  0  0  0  0  0  0  0  0  0
  -13.4295   -1.8453    0.0000 H   0  0  0  0  0  0  0  0  0  0  0  0
  -13.3147    1.2630    0.0000 H   0  0  0  0  0  0  0  0  0  0  0  0
  -10.2610   -1.0773    0.0000 H   0  0  0  0  0  0  0  0  0  0  0  0
  -10.4424    2.1500    0.0000 H   0  0  0  0  0  0  0  0  0  0  0  0
  -13.7331    1.1955    0.0000 H   0  0  0  0  0  0  0  0  0  0  0  0
  -14.2158    4.1268    0.0000 H   0  0  0  0  0  0  0  0  0  0  0  0
  -13.0898    4.6778    0.0000 H   0  0  0  0  0  0  0  0  0  0  0  0
  -11.3071    4.7578    0.0000 H   0  0  0  0  0  0  0  0  0  0  0  0
  -10.7093    3.0765    0.0000 H   0  0  0  0  0  0  0  0  0  0  0  0
  -14.3479    2.2030    0.0000 H   0  0  0  0  0  0  0  0  0  0  0  0
  -14.1407   -1.1820    0.0000 H   0  0  0  0  0  0  0  0  0  0  0  0
  -16.4193   -2.8419    0.0000 H   0  0  0  0  0  0  0  0  0  0  0  0
  -14.6871   -1.9943    0.0000 H   0  0  0  0  0  0  0  0  0  0  0  0
  -18.1527   -3.8885    0.0000 H   0  0  0  0  0  0  0  0  0  0  0  0
  -21.1800   -2.6698    0.0000 H   0  0  0  0  0  0  0  0  0  0  0  0
  -21.0652    0.4385    0.0000 H   0  0  0  0  0  0  0  0  0  0  0  0
  -18.0115   -1.9018    0.0000 H   0  0  0  0  0  0  0  0  0  0  0  0
  -18.1929    1.3255    0.0000 H   0  0  0  0  0  0  0  0  0  0  0  0
  -21.5426    2.0038    0.0000 H   0  0  0  0  0  0  0  0  0  0  0  0
  -21.4836    0.3710    0.0000 H   0  0  0  0  0  0  0  0  0  0  0  0
  -19.0576    3.9333    0.0000 H   0  0  0  0  0  0  0  0  0  0  0  0
  -18.4598    2.2520    0.0000 H   0  0  0  0  0  0  0  0  0  0  0  0
  -21.6944    6.2259    0.0000 H   0  0  0  0  0  0  0  0  0  0  0  0
  -19.1728    5.6005    0.0000 H   0  0  0  0  0  0  0  0  0  0  0  0
  -22.0984    1.3785    0.0000 H   0  0  0  0  0  0  0  0  0  0  0  0
  -21.8912   -2.0064    0.0000 H   0  0  0  0  0  0  0  0  0  0  0  0
  -24.1698   -3.6663    0.0000 H   0  0  0  0  0  0  0  0  0  0  0  0
  -22.4376   -2.8188    0.0000 H   0  0  0  0  0  0  0  0  0  0  0  0
  -26.6763   -1.4993    0.0000 H   0  0  0  0  0  0  0  0  0  0  0  0
  -25.6701   -0.6527    0.0000 H   0  0  0  0  0  0  0  0  0  0  0  0
  -28.4761   -4.4942    0.0000 H   0  0  0  0  0  0  0  0  0  0  0  0
  -28.6490   -2.1069    0.0000 H   0  0  0  0  0  0  0  0  0  0  0  0
  -25.7620   -2.7263    0.0000 H   0  0  0  0  0  0  0  0  0  0  0  0
  -26.0889    0.6123    0.0000 H   0  0  0  0  0  0  0  0  0  0  0  0
  -29.2931    1.1793    0.0000 H   0  0  0  0  0  0  0  0  0  0  0  0
  -29.1199   -0.5967    0.0000 H   0  0  0  0  0  0  0  0  0  0  0  0
  -29.8489    0.5540    0.0000 H   0  0  0  0  0  0  0  0  0  0  0  0
  -29.6417   -2.8309    0.0000 H   0  0  0  0  0  0  0  0  0  0  0  0
  -30.1881   -3.6433    0.0000 H   0  0  0  0  0  0  0  0  0  0  0  0
  -34.0604   -4.0612    0.0000 H   0  0  0  0  0  0  0  0  0  0  0  0
  -34.4268   -2.3238    0.0000 H   0  0  0  0  0  0  0  0  0  0  0  0
  -33.4206   -1.4772    0.0000 H   0  0  0  0  0  0  0  0  0  0  0  0
  -31.7616   -5.9824    0.0000 H   0  0  0  0  0  0  0  0  0  0  0  0
  -30.4238   -4.5936    0.0000 H   0  0  0  0  0  0  0  0  0  0  0  0
  -33.7227   -6.3620    0.0000 H   0  0  0  0  0  0  0  0  0  0  0  0
  -34.8581   -4.8033    0.0000 H   0  0  0  0  0  0  0  0  0  0  0  0
  -33.7009   -3.4450    0.0000 H   0  0  0  0  0  0  0  0  0  0  0  0
  -33.1468   -3.5567    0.0000 H   0  0  0  0  0  0  0  0  0  0  0  0
  -33.8394   -0.2121    0.0000 H   0  0  0  0  0  0  0  0  0  0  0  0
  -37.0436    0.3549    0.0000 H   0  0  0  0  0  0  0  0  0  0  0  0
  -36.8704   -1.4212    0.0000 H   0  0  0  0  0  0  0  0  0  0  0  0
  -37.5994   -0.2705    0.0000 H   0  0  0  0  0  0  0  0  0  0  0  0
  -37.3922   -3.6554    0.0000 H   0  0  0  0  0  0  0  0  0  0  0  0
  -39.6708   -5.3153    0.0000 H   0  0  0  0  0  0  0  0  0  0  0  0
  -37.9386   -4.4678    0.0000 H   0  0  0  0  0  0  0  0  0  0  0  0
  -41.2630   -4.3753    0.0000 H   0  0  0  0  0  0  0  0  0  0  0  0
  -41.5899   -1.0366    0.0000 H   0  0  0  0  0  0  0  0  0  0  0  0
  -43.9975    0.1771    0.0000 H   0  0  0  0  0  0  0  0  0  0  0  0
  -42.2950   -0.3574    0.0000 H   0  0  0  0  0  0  0  0  0  0  0  0
  -44.8163   -3.1500    0.0000 H   0  0  0  0  0  0  0  0  0  0  0  0
  -47.5103   -0.8517    0.0000 H   0  0  0  0  0  0  0  0  0  0  0  0
  -46.6883    0.7321    0.0000 H   0  0  0  0  0  0  0  0  0  0  0  0
  -44.9334    0.4092    0.0000 H   0  0  0  0  0  0  0  0  0  0  0  0
  -47.5962   -2.1024    0.0000 H   0  0  0  0  0  0  0  0  0  0  0  0
  -46.9984   -3.7837    0.0000 H   0  0  0  0  0  0  0  0  0  0  0  0
  -45.0809   -3.5797    0.0000 H   0  0  0  0  0  0  0  0  0  0  0  0
  1  2  1  0
  2  3  1  0
  3  4  1  0
  4  5  2  0
  4  6  1  0
  6  7  1  0
  7  8  1  0
  8  9  1  0
  9 10  1  0
 10 11  1  0
 11 12  1  0
  7 13  1  0
 13 14  2  0
 13 15  1  0
 15 16  1  0
 16 17  1  0
 16 18  1  0
 18 19  2  0
 18 20  1  0
 20 21  1  0
 21 22  1  0
 22 23  1  0
 22 24  1  0
 21 25  1  0
 25 26  2  0
 25 27  1  0
 27 28  1  0
 28 29  1  0
 29 30  1  0
 30 31  1  0
 31 32  2  0
 31 33  1  0
 28 34  1  0
 34 35  2  0
 34 36  1  0
 36 37  1  0
 37 38  1  0
 38 39  1  0
 39 40  2  0
 40 41  1  0
 41 42  2  0
 42 43  1  0
 42 44  1  0
 44 45  2  0
 37 46  1  0
 46 47  2  0
 46 48  1  0
 48 49  1  0
 49 50  1  0
 50 51  1  0
 50 52  1  0
 52 53  1  0
 49 54  1  0
 54 55  2  0
 54 56  1  0
 56 57  1  0
 57 58  1  0
 58 59  1  0
 59 60  1  0
 60 61  1  0
 60 62  2  0
 57 63  1  0
 63 64  2  0
 63 65  1  0
 65 66  1  0
 66 67  1  0
 67 68  1  0
 68 69  2  0
 69 70  1  0
 70 71  2  0
 71 72  1  0
 71 73  1  0
 73 74  2  0
 66 75  1  0
 75 76  2  0
 75 77  1  0
 77 78  1  0
 78 79  1  0
 79 80  1  0
 80 81  1  0
 81 82  1  0
 78 83  1  0
 83 84  2  0
 83 85  1  0
 85 86  1  0
 86 87  1  0
 87 88  1  0
 88 89  1  0
 89 90  1  0
 90 91  1  0
 91 92  2  3
 91 93  1  0
 86 94  1  0
 94 95  2  0
 94 96  1  0
 96 97  1  0
 97 98  1  0
 98 99  1  0
 99100  1  0
100101  1  0
101102  1  0
102103  2  3
102104  1  0
 97105  1  0
105106  2  0
105107  1  0
107108  1  0
108109  1  0
109110  1  0
110111  1  0
111112  1  0
112113  1  0
108114  1  0
114115  2  0
114116  1  0
116117  1  0
117118  1  0
118119  1  0
119120  1  0
119121  2  0
117122  1  0
122123  2  0
122124  1  0
124125  1  0
125126  1  0
126127  1  0
127128  2  0
128129  1  0
129130  1  0
130131  2  0
125132  1  0
132133  2  0
132134  1  0
134135  1  0
135136  1  0
136137  1  0
136138  1  0
135139  1  0
139140  2  0
139141  1  0
141142  1  0
142143  1  0
143144  1  0
144145  2  0
145146  1  0
146147  1  0
147148  2  0
142149  1  0
149150  2  0
149151  1  0
151152  1  0
152153  1  0
153154  1  0
154155  1  0
155156  1  0
155157  2  0
152158  1  0
158159  2  0
158160  1  0
160161  1  0
161162  1  0
162163  1  0
163164  1  0
164165  1  0
164166  2  0
161167  1  0
167168  2  0
167169  1  0
169170  1  0
170171  1  0
171172  1  0
172173  2  0
172174  1  0
170175  1  0
175176  2  0
175177  1  0
177178  1  0
178179  1  0
179180  1  0
179181  1  0
181182  1  0
178183  1  0
183184  2  0
183185  1  0
185186  1  0
186187  1  0
187188  1  0
188189  2  0
188190  1  0
186191  1  0
191192  2  0
191193  1  0
193194  1  0
194195  1  0
195196  1  0
196197  2  0
196198  1  0
194199  1  0
199200  2  0
199201  1  0
201202  1  0
202203  1  0
203204  1  0
204205  1  0
204206  1  0
202207  1  0
207208  2  0
207209  1  0
 45 39  1  0
 74 68  1  0
131127  1  0
148144  1  0
  1210  1  0
  1211  1  0
  2212  1  0
  2213  1  0
  3214  1  0
  3215  1  0
  6216  1  0
  7217  1  1
  8218  1  0
  8219  1  0
  9220  1  0
  9221  1  0
 10222  1  0
 10223  1  0
 11224  1  0
 11225  1  0
 12226  1  0
 12227  1  0
 12228  1  0
 15229  1  0
 16230  1  1
 17231  1  0
 17232  1  0
 17233  1  0
 20234  1  0
 21235  1  6
 22236  1  1
 23237  1  0
 24238  1  0
 24239  1  0
 24240  1  0
 27241  1  0
 28242  1  1
 29243  1  0
 29244  1  0
 30245  1  0
 30246  1  0
 36247  1  0
 37248  1  6
 38249  1  0
 38250  1  0
 40251  1  0
 41252  1  0
 43253  1  0
 44254  1  0
 45255  1  0
 48256  1  0
 49257  1  1
 50258  1  1
 51259  1  0
 51260  1  0
 51261  1  0
 52262  1  0
 52263  1  0
 53264  1  0
 53265  1  0
 53266  1  0
 56267  1  0
 57268  1  6
 58269  1  0
 58270  1  0
 59271  1  0
 59272  1  0
 61273  1  0
 61274  1  0
 65275  1  0
 66276  1  1
 67277  1  0
 67278  1  0
 69279  1  0
 70280  1  0
 72281  1  0
 73282  1  0
 74283  1  0
 77284  1  0
 78285  1  1
 79286  1  0
 79287  1  0
 80288  1  0
 80289  1  0
 81290  1  0
 81291  1  0
 82292  1  0
 82293  1  0
 82294  1  0
 85295  1  0
 86296  1  1
 87297  1  0
 87298  1  0
 88299  1  0
 88300  1  0
 89301  1  0
 89302  1  0
 90303  1  0
 92304  1  0
 92305  1  0
 93306  1  0
 93307  1  0
 96308  1  0
 97309  1  6
 98310  1  0
 98311  1  0
 99312  1  0
 99313  1  0
100314  1  0
100315  1  0
101316  1  0
103317  1  0
103318  1  0
104319  1  0
104320  1  0
107321  1  0
108322  1  1
109323  1  0
109324  1  0
110325  1  0
110326  1  0
111327  1  0
111328  1  0
112329  1  0
112330  1  0
113331  1  0
113332  1  0
113333  1  0
116334  1  0
117335  1  6
118336  1  0
118337  1  0
120338  1  0
120339  1  0
124340  1  0
125341  1  1
126342  1  0
126343  1  0
128344  1  0
129345  1  0
130346  1  0
134347  1  0
135348  1  6
136349  1  1
137350  1  0
138351  1  0
138352  1  0
138353  1  0
141354  1  0
142355  1  1
143356  1  0
143357  1  0
145358  1  0
146359  1  0
147360  1  0
151361  1  0
152362  1  6
153363  1  0
153364  1  0
154365  1  0
154366  1  0
156367  1  0
156368  1  0
160369  1  0
161370  1  1
162371  1  0
162372  1  0
163373  1  0
163374  1  0
165375  1  0
165376  1  0
169377  1  0
170378  1  6
171379  1  0
171380  1  0
177381  1  0
178382  1  1
179383  1  1
180384  1  0
180385  1  0
180386  1  0
181387  1  0
181388  1  0
182389  1  0
182390  1  0
182391  1  0
185392  1  0
186393  1  6
187394  1  0
187395  1  0
193396  1  0
194397  1  1
195398  1  0
195399  1  0
201400  1  0
202401  1  6
203402  1  0
203403  1  0
204404  1  0
205405  1  0
205406  1  0
205407  1  0
206408  1  0
206409  1  0
206410  1  0
M  CHG  8  12   1  33  -1  92   1 103   1 113   1 174  -1 190  -1 198  -1
M  CHG  1 209  -1
M  END
