
     RDKit          2D

274281  0  0  0  0  0  0  0  0999 V2000
   20.2137   -0.8240    0.0000 C   0  0  0  0  0  0  0  0  0  0  0  0
   21.5382   -0.1200    0.0000 N   0  0  0  0  0  0  0  0  0  0  0  0
   22.8102   -0.9150    0.0000 C   0  0  0  0  0  0  0  0  0  0  0  0
   22.7576   -2.4141    0.0000 C   0  0  0  0  0  0  0  0  0  0  0  0
   24.0296   -3.2091    0.0000 C   0  0  0  0  0  0  0  0  0  0  0  0
   25.3541   -2.5050    0.0000 C   0  0  0  0  0  0  0  0  0  0  0  0
   25.4066   -1.0060    0.0000 C   0  0  0  0  0  0  0  0  0  0  0  0
   24.1347   -0.2109    0.0000 C   0  0  0  0  0  0  0  0  0  0  0  0
   26.8486   -0.5927    0.0000 C   0  0  0  0  0  0  0  0  0  0  0  0
   27.6872   -1.8363    0.0000 O   0  0  0  0  0  0  0  0  0  0  0  0
   26.7636   -3.0182    0.0000 C   0  0  0  0  0  0  0  0  0  0  0  0
   27.1769   -4.4602    0.0000 O   0  0  0  0  0  0  0  0  0  0  0  0
   28.3258   -0.3324    0.0000 C   0  0  0  0  0  0  0  0  0  0  0  0
   28.8390    1.0771    0.0000 C   0  0  0  0  0  0  0  0  0  0  0  0
   30.3163    1.3374    0.0000 C   0  0  0  0  0  0  0  0  0  0  0  0
   31.2803    0.1882    0.0000 C   0  0  0  0  0  0  0  0  0  0  0  0
   30.7671   -1.2212    0.0000 C   0  0  0  0  0  0  0  0  0  0  0  0
   29.2899   -1.4815    0.0000 C   0  0  0  0  0  0  0  0  0  0  0  0
   32.7576    0.4485    0.0000 O   0  0  0  0  0  0  0  0  0  0  0  0
   27.8750    2.2263    0.0000 O   0  0  0  0  0  0  0  0  0  0  0  0
   26.3977    1.9660    0.0000 C   0  0  0  0  0  0  0  0  0  0  0  0
   25.8845    0.5565    0.0000 C   0  0  0  0  0  0  0  0  0  0  0  0
   24.6468    0.9540    0.0000 C   0  0  0  0  0  0  0  0  0  0  0  0
   24.1326    1.5669    0.0000 C   0  0  0  0  0  0  0  0  0  0  0  0
   24.4063    2.3186    0.0000 C   0  0  0  0  0  0  0  0  0  0  0  0
   25.1942    2.4574    0.0000 C   0  0  0  0  0  0  0  0  0  0  0  0
   22.9924    4.0040    0.0000 O   0  0  0  0  0  0  0  0  0  0  0  0
   20.1612   -2.3231    0.0000 S   0  0  0  0  0  0  0  0  0  0  0  0
   18.9417   -0.0290    0.0000 N   0  0  0  0  0  0  0  0  0  0  0  0
   17.6172   -0.7330    0.0000 C   0  0  0  0  0  0  0  0  0  0  0  0
   16.3452    0.0620    0.0000 C   0  0  0  0  0  0  0  0  0  0  0  0
   15.0207   -0.6421    0.0000 C   0  0  0  0  0  0  0  0  0  0  0  0
   14.9682   -2.1412    0.0000 O   0  0  0  0  0  0  0  0  0  0  0  0
   13.7487    0.1530    0.0000 N   0  0  0  0  0  0  0  0  0  0  0  0
   12.4242   -0.5511    0.0000 C   0  0  0  0  0  0  0  0  0  0  0  0
   11.4204   -1.6657    0.0000 C   0  0  0  0  0  0  0  0  0  0  0  0
    9.9532   -1.3537    0.0000 C   0  0  0  0  0  0  0  0  0  0  0  0
    8.9494   -2.4683    0.0000 C   0  0  0  0  0  0  0  0  0  0  0  0
    7.4822   -2.1562    0.0000 N   0  0  0  0  0  0  0  0  0  0  0  0
    6.4784   -3.2708    0.0000 C   0  0  0  0  0  0  0  0  0  0  0  0
    5.0602   -2.7823    0.0000 N   0  0  0  0  0  0  0  0  0  0  0  0
    6.9417   -4.6975    0.0000 N   0  0  0  0  0  0  0  0  0  0  0  0
   11.1522    0.2439    0.0000 C   0  0  0  0  0  0  0  0  0  0  0  0
   11.2048    1.7430    0.0000 O   0  0  0  0  0  0  0  0  0  0  0  0
    9.8277   -0.4601    0.0000 N   0  0  0  0  0  0  0  0  0  0  0  0
    8.5558    0.3349    0.0000 C   0  0  0  0  0  0  0  0  0  0  0  0
    7.6324    1.5170    0.0000 C   0  0  0  0  0  0  0  0  0  0  0  0
    8.1945    2.9077    0.0000 C   0  0  0  0  0  0  0  0  0  0  0  0
    7.2711    4.0899    0.0000 C   0  0  0  0  0  0  0  0  0  0  0  0
    7.8332    5.4806    0.0000 N   0  0  0  0  0  0  0  0  0  0  0  0
    6.9098    6.6627    0.0000 C   0  0  0  0  0  0  0  0  0  0  0  0
    7.4719    8.0534    0.0000 N   0  0  0  0  0  0  0  0  0  0  0  0
    5.4244    6.4541    0.0000 N   0  0  0  0  0  0  0  0  0  0  0  0
    7.2313   -0.3692    0.0000 C   0  0  0  0  0  0  0  0  0  0  0  0
    6.9297   -1.4202    0.0000 O   0  0  0  0  0  0  0  0  0  0  0  0
    5.9593    0.4259    0.0000 N   0  0  0  0  0  0  0  0  0  0  0  0
    4.6348   -0.2782    0.0000 C   0  0  0  0  0  0  0  0  0  0  0  0
    3.6310   -1.3928    0.0000 C   0  0  0  0  0  0  0  0  0  0  0  0
    2.1638   -1.0808    0.0000 C   0  0  0  0  0  0  0  0  0  0  0  0
    1.1599   -2.1954    0.0000 C   0  0  0  0  0  0  0  0  0  0  0  0
    0.8918   -0.2857    0.0000 C   0  0  0  0  0  0  0  0  0  0  0  0
    3.3628    0.5168    0.0000 C   0  0  0  0  0  0  0  0  0  0  0  0
    3.5977    1.9983    0.0000 O   0  0  0  0  0  0  0  0  0  0  0  0
    2.0383   -0.1872    0.0000 N   0  0  0  0  0  0  0  0  0  0  0  0
    0.7663    0.6078    0.0000 C   0  0  0  0  0  0  0  0  0  0  0  0
   -0.1570    1.7899    0.0000 C   0  0  0  0  0  0  0  0  0  0  0  0
    0.4050    3.1806    0.0000 C   0  0  0  0  0  0  0  0  0  0  0  0
    1.8905    3.3892    0.0000 C   0  0  0  0  0  0  0  0  0  0  0  0
    2.4525    4.7799    0.0000 C   0  0  0  0  0  0  0  0  0  0  0  0
    1.5292    5.9621    0.0000 C   0  0  0  0  0  0  0  0  0  0  0  0
    0.0437    5.7535    0.0000 C   0  0  0  0  0  0  0  0  0  0  0  0
   -0.5183    4.3628    0.0000 C   0  0  0  0  0  0  0  0  0  0  0  0
   -0.5582   -0.0962    0.0000 C   0  0  0  0  0  0  0  0  0  0  0  0
   -0.7930   -1.5777    0.0000 O   0  0  0  0  0  0  0  0  0  0  0  0
   -1.8302    0.6988    0.0000 N   0  0  0  0  0  0  0  0  0  0  0  0
   -3.1547   -0.0053    0.0000 C   0  0  0  0  0  0  0  0  0  0  0  0
   -4.1585   -1.1199    0.0000 C   0  0  0  0  0  0  0  0  0  0  0  0
   -5.6257   -0.8078    0.0000 C   0  0  0  0  0  0  0  0  0  0  0  0
   -6.6295   -1.9224    0.0000 C   0  0  0  0  0  0  0  0  0  0  0  0
   -8.0967   -1.6104    0.0000 N   0  0  0  0  0  0  0  0  0  0  0  0
   -9.1005   -2.7250    0.0000 C   0  0  0  0  0  0  0  0  0  0  0  0
  -10.5677   -2.4130    0.0000 N   0  0  0  0  0  0  0  0  0  0  0  0
   -8.9961   -4.2214    0.0000 N   0  0  0  0  0  0  0  0  0  0  0  0
   -4.4266    0.7898    0.0000 C   0  0  0  0  0  0  0  0  0  0  0  0
   -4.1918    2.2712    0.0000 O   0  0  0  0  0  0  0  0  0  0  0  0
   -5.7512    0.0857    0.0000 N   0  0  0  0  0  0  0  0  0  0  0  0
   -7.0231    0.8807    0.0000 C   0  0  0  0  0  0  0  0  0  0  0  0
   -7.2687    2.3605    0.0000 C   0  0  0  0  0  0  0  0  0  0  0  0
   -7.9395    3.7021    0.0000 C   0  0  0  0  0  0  0  0  0  0  0  0
   -8.9760    4.7864    0.0000 C   0  0  0  0  0  0  0  0  0  0  0  0
  -10.2860    5.5171    0.0000 C   0  0  0  0  0  0  0  0  0  0  0  0
   -5.6831    1.5548    0.0000 C   0  0  0  0  0  0  0  0  0  0  0  0
   -7.2247   -0.6057    0.0000 C   0  0  0  0  0  0  0  0  0  0  0  0
   -6.5905   -1.0887    0.0000 O   0  0  0  0  0  0  0  0  0  0  0  0
   -7.8553   -1.9666    0.0000 N   0  0  0  0  0  0  0  0  0  0  0  0
   -8.8592   -3.0812    0.0000 C   0  0  0  0  0  0  0  0  0  0  0  0
   -8.6877   -4.5714    0.0000 C   0  0  0  0  0  0  0  0  0  0  0  0
   -7.3114   -5.1680    0.0000 C   0  0  0  0  0  0  0  0  0  0  0  0
   -7.1399   -6.6581    0.0000 C   0  0  0  0  0  0  0  0  0  0  0  0
   -5.7637   -7.2547    0.0000 C   0  0  0  0  0  0  0  0  0  0  0  0
  -10.1469   -3.8504    0.0000 C   0  0  0  0  0  0  0  0  0  0  0  0
   -9.7517   -5.2974    0.0000 O   0  0  0  0  0  0  0  0  0  0  0  0
  -11.6042   -4.2059    0.0000 N   0  0  0  0  0  0  0  0  0  0  0  0
  -13.1015   -4.1160    0.0000 C   0  0  0  0  0  0  0  0  0  0  0  0
  -14.1596   -5.1792    0.0000 C   0  0  0  0  0  0  0  0  0  0  0  0
  -13.7680   -6.6272    0.0000 C   0  0  0  0  0  0  0  0  0  0  0  0
  -14.8261   -7.6903    0.0000 C   0  0  0  0  0  0  0  0  0  0  0  0
  -14.4344   -9.1383    0.0000 C   0  0  0  0  0  0  0  0  0  0  0  0
  -12.9846   -9.5231    0.0000 C   0  0  0  0  0  0  0  0  0  0  0  0
  -11.9265   -8.4599    0.0000 C   0  0  0  0  0  0  0  0  0  0  0  0
  -12.3182   -7.0119    0.0000 C   0  0  0  0  0  0  0  0  0  0  0  0
  -14.5058   -3.5888    0.0000 C   0  0  0  0  0  0  0  0  0  0  0  0
  -15.2364   -4.8988    0.0000 O   0  0  0  0  0  0  0  0  0  0  0  0
  -15.6923   -2.6711    0.0000 N   0  0  0  0  0  0  0  0  0  0  0  0
  -16.5556   -1.4444    0.0000 C   0  0  0  0  0  0  0  0  0  0  0  0
  -18.0466   -1.2800    0.0000 C   0  0  0  0  0  0  0  0  0  0  0  0
  -18.9344   -2.4890    0.0000 C   0  0  0  0  0  0  0  0  0  0  0  0
  -20.4254   -2.3246    0.0000 C   0  0  0  0  0  0  0  0  0  0  0  0
  -19.3552   -3.9288    0.0000 C   0  0  0  0  0  0  0  0  0  0  0  0
  -17.0190   -0.0178    0.0000 C   0  0  0  0  0  0  0  0  0  0  0  0
  -18.4987   -0.2633    0.0000 O   0  0  0  0  0  0  0  0  0  0  0  0
  -17.0412    1.4821    0.0000 N   0  0  0  0  0  0  0  0  0  0  0  0
  -16.6204    2.9218    0.0000 C   0  0  0  0  0  0  0  0  0  0  0  0
  -15.7939    4.1736    0.0000 C   0  0  0  0  0  0  0  0  0  0  0  0
  -14.6352    5.1261    0.0000 C   0  0  0  0  0  0  0  0  0  0  0  0
  -13.2472    5.6948    0.0000 C   0  0  0  0  0  0  0  0  0  0  0  0
  -11.7532    5.8291    0.0000 C   0  0  0  0  0  0  0  0  0  0  0  0
  -18.1058    2.7133    0.0000 C   0  0  0  0  0  0  0  0  0  0  0  0
  -17.4215    4.1900    0.0000 C   0  0  0  0  0  0  0  0  0  0  0  0
  -17.0658    5.6472    0.0000 O   0  0  0  0  0  0  0  0  0  0  0  0
  -18.9203    4.1304    0.0000 N   0  0  0  0  0  0  0  0  0  0  0  0
  -19.7214    5.3986    0.0000 C   0  0  0  0  0  0  0  0  0  0  0  0
  -20.0404    6.8642    0.0000 C   0  0  0  0  0  0  0  0  0  0  0  0
  -20.8414    8.1324    0.0000 O   0  0  0  0  0  0  0  0  0  0  0  0
  -18.9306    7.8734    0.0000 C   0  0  0  0  0  0  0  0  0  0  0  0
  -21.2202    5.3389    0.0000 C   0  0  0  0  0  0  0  0  0  0  0  0
  -22.1698    6.5000    0.0000 O   0  0  0  0  0  0  0  0  0  0  0  0
  -21.9179    4.0111    0.0000 O   0  0  0  0  0  0  0  0  0  0  0  0
   21.4076    1.3743    0.0000 H   0  0  0  0  0  0  0  0  0  0  0  0
   21.4331   -3.1181    0.0000 H   0  0  0  0  0  0  0  0  0  0  0  0
   23.9771   -4.7082    0.0000 H   0  0  0  0  0  0  0  0  0  0  0  0
   23.8229    1.2563    0.0000 H   0  0  0  0  0  0  0  0  0  0  0  0
   30.8295    2.7469    0.0000 H   0  0  0  0  0  0  0  0  0  0  0  0
   31.7312   -2.3704    0.0000 H   0  0  0  0  0  0  0  0  0  0  0  0
   28.7767   -2.8910    0.0000 H   0  0  0  0  0  0  0  0  0  0  0  0
   33.7216   -0.7006    0.0000 H   0  0  0  0  0  0  0  0  0  0  0  0
   23.8941   -1.1133    0.0000 H   0  0  0  0  0  0  0  0  0  0  0  0
   21.9453    1.3671    0.0000 H   0  0  0  0  0  0  0  0  0  0  0  0
   25.9469    4.5246    0.0000 H   0  0  0  0  0  0  0  0  0  0  0  0
   23.5056    5.4135    0.0000 H   0  0  0  0  0  0  0  0  0  0  0  0
   18.9942    1.4701    0.0000 H   0  0  0  0  0  0  0  0  0  0  0  0
   16.6134   -1.8476    0.0000 H   0  0  0  0  0  0  0  0  0  0  0  0
   18.5406   -1.9152    0.0000 H   0  0  0  0  0  0  0  0  0  0  0  0
   15.4219    1.2441    0.0000 H   0  0  0  0  0  0  0  0  0  0  0  0
   17.3490    1.1766    0.0000 H   0  0  0  0  0  0  0  0  0  0  0  0
   13.8013    1.6520    0.0000 H   0  0  0  0  0  0  0  0  0  0  0  0
   13.3476   -1.7332    0.0000 H   0  0  0  0  0  0  0  0  0  0  0  0
   11.0320   -3.1146    0.0000 H   0  0  0  0  0  0  0  0  0  0  0  0
   12.6924   -2.4607    0.0000 H   0  0  0  0  0  0  0  0  0  0  0  0
    8.6812   -0.5586    0.0000 H   0  0  0  0  0  0  0  0  0  0  0  0
    9.7964    0.1381    0.0000 H   0  0  0  0  0  0  0  0  0  0  0  0
    8.3873   -3.8590    0.0000 H   0  0  0  0  0  0  0  0  0  0  0  0
   10.1150   -3.4124    0.0000 H   0  0  0  0  0  0  0  0  0  0  0  0
    6.6874   -0.8841    0.0000 H   0  0  0  0  0  0  0  0  0  0  0  0
    4.0074   -4.0734    0.0000 H   0  0  0  0  0  0  0  0  0  0  0  0
    4.7040   -1.4790    0.0000 H   0  0  0  0  0  0  0  0  0  0  0  0
    5.9379   -5.8121    0.0000 H   0  0  0  0  0  0  0  0  0  0  0  0
    8.4089   -5.0095    0.0000 H   0  0  0  0  0  0  0  0  0  0  0  0
    9.4140   -1.9020    0.0000 H   0  0  0  0  0  0  0  0  0  0  0  0
    9.6880    1.3188    0.0000 H   0  0  0  0  0  0  0  0  0  0  0  0
    6.3604    2.3120    0.0000 H   0  0  0  0  0  0  0  0  0  0  0  0
    6.3887    0.6784    0.0000 H   0  0  0  0  0  0  0  0  0  0  0  0
    9.1983    4.0223    0.0000 H   0  0  0  0  0  0  0  0  0  0  0  0
    9.5539    2.2737    0.0000 H   0  0  0  0  0  0  0  0  0  0  0  0
    5.9991    4.8849    0.0000 H   0  0  0  0  0  0  0  0  0  0  0  0
    6.1389    3.1059    0.0000 H   0  0  0  0  0  0  0  0  0  0  0  0
    9.3186    5.6892    0.0000 H   0  0  0  0  0  0  0  0  0  0  0  0
    6.5486    9.2355    0.0000 H   0  0  0  0  0  0  0  0  0  0  0  0
    8.9573    8.2620    0.0000 H   0  0  0  0  0  0  0  0  0  0  0  0
    4.5011    7.6362    0.0000 H   0  0  0  0  0  0  0  0  0  0  0  0
    4.8623    5.0634    0.0000 H   0  0  0  0  0  0  0  0  0  0  0  0
    5.8287    1.9202    0.0000 H   0  0  0  0  0  0  0  0  0  0  0  0
    5.5581   -1.4603    0.0000 H   0  0  0  0  0  0  0  0  0  0  0  0
    3.2426   -2.8416    0.0000 H   0  0  0  0  0  0  0  0  0  0  0  0
    5.0575   -1.8564    0.0000 H   0  0  0  0  0  0  0  0  0  0  0  0
    2.0070    0.4110    0.0000 H   0  0  0  0  0  0  0  0  0  0  0  0
   -0.3391   -2.2476    0.0000 H   0  0  0  0  0  0  0  0  0  0  0  0
    0.5979   -3.5861    0.0000 H   0  0  0  0  0  0  0  0  0  0  0  0
    2.3255   -3.1395    0.0000 H   0  0  0  0  0  0  0  0  0  0  0  0
    0.5800    1.1815    0.0000 H   0  0  0  0  0  0  0  0  0  0  0  0
   -0.5898   -0.5203    0.0000 H   0  0  0  0  0  0  0  0  0  0  0  0
    0.1644   -1.5976    0.0000 H   0  0  0  0  0  0  0  0  0  0  0  0
    1.6246   -1.6290    0.0000 H   0  0  0  0  0  0  0  0  0  0  0  0
    1.7701    1.7224    0.0000 H   0  0  0  0  0  0  0  0  0  0  0  0
   -1.3226    2.7341    0.0000 H   0  0  0  0  0  0  0  0  0  0  0  0
   -1.4937    1.1092    0.0000 H   0  0  0  0  0  0  0  0  0  0  0  0
    2.9510    2.3285    0.0000 H   0  0  0  0  0  0  0  0  0  0  0  0
    3.9380    4.9885    0.0000 H   0  0  0  0  0  0  0  0  0  0  0  0
    2.0912    7.3528    0.0000 H   0  0  0  0  0  0  0  0  0  0  0  0
   -0.8796    6.9356    0.0000 H   0  0  0  0  0  0  0  0  0  0  0  0
   -2.0038    4.1542    0.0000 H   0  0  0  0  0  0  0  0  0  0  0  0
   -1.9608    2.1931    0.0000 H   0  0  0  0  0  0  0  0  0  0  0  0
   -2.2313   -1.1874    0.0000 H   0  0  0  0  0  0  0  0  0  0  0  0
   -4.5469   -2.5687    0.0000 H   0  0  0  0  0  0  0  0  0  0  0  0
   -2.8865   -1.9149    0.0000 H   0  0  0  0  0  0  0  0  0  0  0  0
   -7.0522   -0.3442    0.0000 H   0  0  0  0  0  0  0  0  0  0  0  0
   -5.5994    0.6919    0.0000 H   0  0  0  0  0  0  0  0  0  0  0  0
   -6.6557   -3.4222    0.0000 H   0  0  0  0  0  0  0  0  0  0  0  0
   -5.4639   -2.8666    0.0000 H   0  0  0  0  0  0  0  0  0  0  0  0
   -8.5601   -0.1838    0.0000 H   0  0  0  0  0  0  0  0  0  0  0  0
  -11.8114   -3.2515    0.0000 H   0  0  0  0  0  0  0  0  0  0  0  0
  -11.0311   -0.9863    0.0000 H   0  0  0  0  0  0  0  0  0  0  0  0
   -9.5088   -5.3371    0.0000 H   0  0  0  0  0  0  0  0  0  0  0  0
   -7.2045   -3.7930    0.0000 H   0  0  0  0  0  0  0  0  0  0  0  0
   -5.9860   -1.3958    0.0000 H   0  0  0  0  0  0  0  0  0  0  0  0
   -5.7828    2.1553    0.0000 H   0  0  0  0  0  0  0  0  0  0  0  0
   -6.3217    3.5237    0.0000 H   0  0  0  0  0  0  0  0  0  0  0  0
   -6.4997    4.1227    0.0000 H   0  0  0  0  0  0  0  0  0  0  0  0
   -7.2121    5.0140    0.0000 H   0  0  0  0  0  0  0  0  0  0  0  0
   -7.6327    5.4539    0.0000 H   0  0  0  0  0  0  0  0  0  0  0  0
   -8.8488    6.2810    0.0000 H   0  0  0  0  0  0  0  0  0  0  0  0
   -9.7588    6.9214    0.0000 H   0  0  0  0  0  0  0  0  0  0  0  0
   -5.4662    3.2066    0.0000 H   0  0  0  0  0  0  0  0  0  0  0  0
   -4.3908    2.2312    0.0000 H   0  0  0  0  0  0  0  0  0  0  0  0
   -4.7706    0.6036    0.0000 H   0  0  0  0  0  0  0  0  0  0  0  0
   -6.7137   -2.9396    0.0000 H   0  0  0  0  0  0  0  0  0  0  0  0
   -7.4303   -3.5378    0.0000 H   0  0  0  0  0  0  0  0  0  0  0  0
   -9.2114   -5.9770    0.0000 H   0  0  0  0  0  0  0  0  0  0  0  0
  -10.1622   -4.8465    0.0000 H   0  0  0  0  0  0  0  0  0  0  0  0
   -5.8143   -5.0747    0.0000 H   0  0  0  0  0  0  0  0  0  0  0  0
   -6.4631   -3.9309    0.0000 H   0  0  0  0  0  0  0  0  0  0  0  0
   -7.4884   -8.1171    0.0000 H   0  0  0  0  0  0  0  0  0  0  0  0
   -8.6370   -6.7515    0.0000 H   0  0  0  0  0  0  0  0  0  0  0  0
   -5.5922   -8.7449    0.0000 H   0  0  0  0  0  0  0  0  0  0  0  0
   -4.2664   -7.3446    0.0000 H   0  0  0  0  0  0  0  0  0  0  0  0
   -5.2399   -5.8491    0.0000 H   0  0  0  0  0  0  0  0  0  0  0  0
  -11.2888   -5.6724    0.0000 H   0  0  0  0  0  0  0  0  0  0  0  0
  -12.5676   -5.5178    0.0000 H   0  0  0  0  0  0  0  0  0  0  0  0
  -15.5176   -5.8164    0.0000 H   0  0  0  0  0  0  0  0  0  0  0  0
  -15.2941   -4.1979    0.0000 H   0  0  0  0  0  0  0  0  0  0  0  0
  -16.2759   -7.3056    0.0000 H   0  0  0  0  0  0  0  0  0  0  0  0
  -15.4926  -10.2015    0.0000 H   0  0  0  0  0  0  0  0  0  0  0  0
  -12.5930  -10.9710    0.0000 H   0  0  0  0  0  0  0  0  0  0  0  0
  -10.4767   -8.8447    0.0000 H   0  0  0  0  0  0  0  0  0  0  0  0
  -11.1383   -6.0857    0.0000 H   0  0  0  0  0  0  0  0  0  0  0  0
  -16.7766   -3.7075    0.0000 H   0  0  0  0  0  0  0  0  0  0  0  0
  -17.1556   -2.8192    0.0000 H   0  0  0  0  0  0  0  0  0  0  0  0
  -19.3004   -0.4566    0.0000 H   0  0  0  0  0  0  0  0  0  0  0  0
  -17.9866    0.2188    0.0000 H   0  0  0  0  0  0  0  0  0  0  0  0
  -17.6806   -3.3124    0.0000 H   0  0  0  0  0  0  0  0  0  0  0  0
  -21.4540   -3.4164    0.0000 H   0  0  0  0  0  0  0  0  0  0  0  0
  -21.7702   -1.6602    0.0000 H   0  0  0  0  0  0  0  0  0  0  0  0
  -20.1832   -0.8443    0.0000 H   0  0  0  0  0  0  0  0  0  0  0  0
  -20.7583   -4.4592    0.0000 H   0  0  0  0  0  0  0  0  0  0  0  0
  -19.2582   -5.4256    0.0000 H   0  0  0  0  0  0  0  0  0  0  0  0
  -17.8643   -4.0932    0.0000 H   0  0  0  0  0  0  0  0  0  0  0  0
  -18.5276    1.6836    0.0000 H   0  0  0  0  0  0  0  0  0  0  0  0
  -16.1856    5.6216    0.0000 H   0  0  0  0  0  0  0  0  0  0  0  0
  -17.1731    4.7634    0.0000 H   0  0  0  0  0  0  0  0  0  0  0  0
  -14.7658    6.6205    0.0000 H   0  0  0  0  0  0  0  0  0  0  0  0
  -15.7793    6.0962    0.0000 H   0  0  0  0  0  0  0  0  0  0  0  0
  -12.7551    7.1118    0.0000 H   0  0  0  0  0  0  0  0  0  0  0  0
  -14.2026    6.8512    0.0000 H   0  0  0  0  0  0  0  0  0  0  0  0
  -11.6633    7.3264    0.0000 H   0  0  0  0  0  0  0  0  0  0  0  0
  -19.2878    3.6368    0.0000 H   0  0  0  0  0  0  0  0  0  0  0  0
  -19.3346    1.8530    0.0000 H   0  0  0  0  0  0  0  0  0  0  0  0
  -18.0015    1.2169    0.0000 H   0  0  0  0  0  0  0  0  0  0  0  0
  -19.7747    2.8975    0.0000 H   0  0  0  0  0  0  0  0  0  0  0  0
  -18.2744    5.7938    0.0000 H   0  0  0  0  0  0  0  0  0  0  0  0
  -21.4874    6.4690    0.0000 H   0  0  0  0  0  0  0  0  0  0  0  0
  -20.3107    9.5354    0.0000 H   0  0  0  0  0  0  0  0  0  0  0  0
  -19.0685    9.3670    0.0000 H   0  0  0  0  0  0  0  0  0  0  0  0
  -17.5425    8.4420    0.0000 H   0  0  0  0  0  0  0  0  0  0  0  0
  -17.9809    6.7123    0.0000 H   0  0  0  0  0  0  0  0  0  0  0  0
  1  2  1  0
  2  3  1  0
  3  4  2  0
  4  5  1  0
  5  6  2  0
  6  7  1  0
  7  8  2  0
  7  9  1  0
  9 10  1  0
 10 11  1  0
 11 12  2  0
  9 13  1  0
 13 14  1  0
 14 15  2  0
 15 16  1  0
 16 17  2  0
 17 18  1  0
 16 19  1  0
 14 20  1  0
 20 21  1  0
 21 22  2  0
 22 23  1  0
 23 24  2  0
 24 25  1  0
 25 26  2  0
 25 27  1  0
  1 28  2  0
  1 29  1  0
 29 30  1  0
 30 31  1  0
 31 32  1  0
 32 33  2  0
 32 34  1  0
 34 35  1  0
 35 36  1  0
 36 37  1  0
 37 38  1  0
 38 39  1  0
 39 40  1  0
 40 41  2  3
 40 42  1  0
 35 43  1  0
 43 44  2  0
 43 45  1  0
 45 46  1  0
 46 47  1  0
 47 48  1  0
 48 49  1  0
 49 50  1  0
 50 51  1  0
 51 52  2  3
 51 53  1  0
 46 54  1  0
 54 55  2  0
 54 56  1  0
 56 57  1  0
 57 58  1  0
 58 59  1  0
 59 60  1  0
 59 61  1  0
 57 62  1  0
 62 63  2  0
 62 64  1  0
 64 65  1  0
 65 66  1  0
 66 67  1  0
 67 68  2  0
 68 69  1  0
 69 70  2  0
 70 71  1  0
 71 72  2  0
 65 73  1  0
 73 74  2  0
 73 75  1  0
 75 76  1  0
 76 77  1  0
 77 78  1  0
 78 79  1  0
 79 80  1  0
 80 81  1  0
 81 82  2  3
 81 83  1  0
 76 84  1  0
 84 85  2  0
 84 86  1  0
 87 86  1  6
 87 88  1  0
 88 89  1  0
 89 90  1  0
 90 91  1  0
 87 92  1  0
 87 93  1  0
 93 94  2  0
 93 95  1  0
 95 96  1  0
 96 97  1  0
 97 98  1  0
 98 99  1  0
 99100  1  0
 96101  1  0
101102  2  0
101103  1  0
103104  1  0
104105  1  0
105106  1  0
106107  2  0
107108  1  0
108109  2  0
109110  1  0
110111  2  0
104112  1  0
112113  2  0
112114  1  0
114115  1  0
115116  1  0
116117  1  0
117118  1  0
117119  1  0
115120  1  0
120121  2  0
120122  1  0
122123  1  0
123124  1  0
124125  1  0
125126  1  0
126127  1  0
123128  1  0
123129  1  6
129130  2  0
129131  1  0
131132  1  0
132133  1  0
133134  1  0
133135  1  0
132136  1  0
136137  2  0
136138  1  0
  8  3  1  0
 72 67  1  0
111106  1  0
 11  6  1  0
 18 13  2  0
 91127  2  0
 22  9  1  0
 26 21  1  0
  2139  1  0
  4140  1  0
  5141  1  0
  8142  1  0
 15143  1  0
 17144  1  0
 18145  1  0
 19146  1  0
 23147  1  0
 24148  1  0
 26149  1  0
 27150  1  0
 29151  1  0
 30152  1  0
 30153  1  0
 31154  1  0
 31155  1  0
 34156  1  0
 35157  1  1
 36158  1  0
 36159  1  0
 37160  1  0
 37161  1  0
 38162  1  0
 38163  1  0
 39164  1  0
 41165  1  0
 41166  1  0
 42167  1  0
 42168  1  0
 45169  1  0
 46170  1  6
 47171  1  0
 47172  1  0
 48173  1  0
 48174  1  0
 49175  1  0
 49176  1  0
 50177  1  0
 52178  1  0
 52179  1  0
 53180  1  0
 53181  1  0
 56182  1  0
 57183  1  1
 58184  1  0
 58185  1  0
 59186  1  0
 60187  1  0
 60188  1  0
 60189  1  0
 61190  1  0
 61191  1  0
 61192  1  0
 64193  1  0
 65194  1  6
 66195  1  0
 66196  1  0
 68197  1  0
 69198  1  0
 70199  1  0
 71200  1  0
 72201  1  0
 75202  1  0
 76203  1  1
 77204  1  0
 77205  1  0
 78206  1  0
 78207  1  0
 79208  1  0
 79209  1  0
 80210  1  0
 82211  1  0
 82212  1  0
 83213  1  0
 83214  1  0
 86215  1  0
 88216  1  0
 88217  1  0
 89218  1  0
 89219  1  0
 90220  1  0
 90221  1  0
 91222  1  0
 92223  1  0
 92224  1  0
 92225  1  0
 95226  1  0
 96227  1  6
 97228  1  0
 97229  1  0
 98230  1  0
 98231  1  0
 99232  1  0
 99233  1  0
100234  1  0
100235  1  0
100236  1  0
103237  1  0
104238  1  1
105239  1  0
105240  1  0
107241  1  0
108242  1  0
109243  1  0
110244  1  0
111245  1  0
114246  1  0
115247  1  1
116248  1  0
116249  1  0
117250  1  0
118251  1  0
118252  1  0
118253  1  0
119254  1  0
119255  1  0
119256  1  0
122257  1  0
124258  1  0
124259  1  0
125260  1  0
125261  1  0
126262  1  0
126263  1  0
127264  1  0
128265  1  0
128266  1  0
128267  1  0
131268  1  0
132269  1  6
133270  1  1
134271  1  0
135272  1  0
135273  1  0
135274  1  0
M  CHG  4  41   1  52   1  82   1 138  -1
M  END
