
     RDKit          2D

316322  0  0  0  0  0  0  0  0999 V2000
   20.3980   -3.3866    0.0000 C   0  0  0  0  0  0  0  0  0  0  0  0
   21.7433   -2.7232    0.0000 N   0  0  0  0  0  0  0  0  0  0  0  0
   22.9905   -3.5566    0.0000 C   0  0  0  0  0  0  0  0  0  0  0  0
   22.8924   -5.0534    0.0000 C   0  0  0  0  0  0  0  0  0  0  0  0
   24.1396   -5.8868    0.0000 C   0  0  0  0  0  0  0  0  0  0  0  0
   25.4849   -5.2234    0.0000 C   0  0  0  0  0  0  0  0  0  0  0  0
   25.5830   -3.7266    0.0000 C   0  0  0  0  0  0  0  0  0  0  0  0
   24.3358   -2.8932    0.0000 C   0  0  0  0  0  0  0  0  0  0  0  0
   27.0369   -3.3574    0.0000 C   0  0  0  0  0  0  0  0  0  0  0  0
   27.8373   -4.6260    0.0000 O   0  0  0  0  0  0  0  0  0  0  0  0
   26.8781   -5.7792    0.0000 C   0  0  0  0  0  0  0  0  0  0  0  0
   27.2473   -7.2331    0.0000 O   0  0  0  0  0  0  0  0  0  0  0  0
   28.5213   -3.1421    0.0000 C   0  0  0  0  0  0  0  0  0  0  0  0
   29.0772   -1.7489    0.0000 C   0  0  0  0  0  0  0  0  0  0  0  0
   30.5617   -1.5337    0.0000 C   0  0  0  0  0  0  0  0  0  0  0  0
   31.4903   -2.7117    0.0000 C   0  0  0  0  0  0  0  0  0  0  0  0
   30.9344   -4.1049    0.0000 C   0  0  0  0  0  0  0  0  0  0  0  0
   29.4500   -4.3201    0.0000 C   0  0  0  0  0  0  0  0  0  0  0  0
   32.9748   -2.4965    0.0000 O   0  0  0  0  0  0  0  0  0  0  0  0
   28.1486   -0.5710    0.0000 O   0  0  0  0  0  0  0  0  0  0  0  0
   26.6641   -0.7862    0.0000 C   0  0  0  0  0  0  0  0  0  0  0  0
   26.1082   -2.1794    0.0000 C   0  0  0  0  0  0  0  0  0  0  0  0
   24.8832   -1.7444    0.0000 C   0  0  0  0  0  0  0  0  0  0  0  0
   24.3879   -1.1162    0.0000 C   0  0  0  0  0  0  0  0  0  0  0  0
   24.6844   -0.3731    0.0000 C   0  0  0  0  0  0  0  0  0  0  0  0
   25.4761   -0.2583    0.0000 C   0  0  0  0  0  0  0  0  0  0  0  0
   23.3224    1.3546    0.0000 O   0  0  0  0  0  0  0  0  0  0  0  0
   20.2999   -4.8834    0.0000 S   0  0  0  0  0  0  0  0  0  0  0  0
   19.1508   -2.5533    0.0000 N   0  0  0  0  0  0  0  0  0  0  0  0
   17.8055   -3.2167    0.0000 C   0  0  0  0  0  0  0  0  0  0  0  0
   16.5583   -2.3833    0.0000 C   0  0  0  0  0  0  0  0  0  0  0  0
   15.2130   -3.0467    0.0000 C   0  0  0  0  0  0  0  0  0  0  0  0
   15.3549   -3.8311    0.0000 O   0  0  0  0  0  0  0  0  0  0  0  0
   13.9658   -2.2133    0.0000 N   0  0  0  0  0  0  0  0  0  0  0  0
   12.6205   -2.8767    0.0000 C   0  0  0  0  0  0  0  0  0  0  0  0
   13.5074   -4.0864    0.0000 C   0  0  0  0  0  0  0  0  0  0  0  0
   14.9985   -3.9231    0.0000 C   0  0  0  0  0  0  0  0  0  0  0  0
   15.8854   -5.1328    0.0000 N   0  0  0  0  0  0  0  0  0  0  0  0
   15.9169   -2.7372    0.0000 O   0  0  0  0  0  0  0  0  0  0  0  0
   11.1294   -3.0400    0.0000 C   0  0  0  0  0  0  0  0  0  0  0  0
   10.8754   -4.5184    0.0000 O   0  0  0  0  0  0  0  0  0  0  0  0
   10.2424   -1.8303    0.0000 N   0  0  0  0  0  0  0  0  0  0  0  0
    8.7513   -1.9936    0.0000 C   0  0  0  0  0  0  0  0  0  0  0  0
    9.1711   -3.4337    0.0000 C   0  0  0  0  0  0  0  0  0  0  0  0
   10.6281   -3.7902    0.0000 C   0  0  0  0  0  0  0  0  0  0  0  0
   11.0478   -5.2303    0.0000 C   0  0  0  0  0  0  0  0  0  0  0  0
   12.5048   -5.5869    0.0000 C   0  0  0  0  0  0  0  0  0  0  0  0
   12.9245   -7.0270    0.0000 N   0  0  0  0  0  0  0  0  0  0  0  0
    7.2943   -1.6371    0.0000 C   0  0  0  0  0  0  0  0  0  0  0  0
    6.5501   -2.9394    0.0000 O   0  0  0  0  0  0  0  0  0  0  0  0
    6.8746   -0.1970    0.0000 N   0  0  0  0  0  0  0  0  0  0  0  0
    5.4176    0.1596    0.0000 C   0  0  0  0  0  0  0  0  0  0  0  0
    5.3195   -1.3372    0.0000 C   0  0  0  0  0  0  0  0  0  0  0  0
    6.5667   -2.1706    0.0000 C   0  0  0  0  0  0  0  0  0  0  0  0
    6.4685   -3.6674    0.0000 C   0  0  0  0  0  0  0  0  0  0  0  0
    8.0237   -2.5271    0.0000 C   0  0  0  0  0  0  0  0  0  0  0  0
    4.1704    0.9930    0.0000 C   0  0  0  0  0  0  0  0  0  0  0  0
    3.0256    0.0237    0.0000 O   0  0  0  0  0  0  0  0  0  0  0  0
    4.2685    2.4897    0.0000 N   0  0  0  0  0  0  0  0  0  0  0  0
    3.0214    3.3231    0.0000 C   0  0  0  0  0  0  0  0  0  0  0  0
    2.8285    1.8356    0.0000 C   0  0  0  0  0  0  0  0  0  0  0  0
    2.3576    0.4114    0.0000 C   0  0  0  0  0  0  0  0  0  0  0  0
    1.6257   -0.8979    0.0000 C   0  0  0  0  0  0  0  0  0  0  0  0
    0.6592   -2.0450    0.0000 C   0  0  0  0  0  0  0  0  0  0  0  0
   -0.5069   -2.9885    0.0000 C   0  0  0  0  0  0  0  0  0  0  0  0
   -1.8305   -3.6943    0.0000 C   0  0  0  0  0  0  0  0  0  0  0  0
   -3.2637   -4.1368    0.0000 C   0  0  0  0  0  0  0  0  0  0  0  0
    4.3219    4.0705    0.0000 C   0  0  0  0  0  0  0  0  0  0  0  0
    2.9292    4.8203    0.0000 C   0  0  0  0  0  0  0  0  0  0  0  0
    4.3713    5.2332    0.0000 O   0  0  0  0  0  0  0  0  0  0  0  0
    2.5554    6.2730    0.0000 N   0  0  0  0  0  0  0  0  0  0  0  0
    1.9134    7.6286    0.0000 C   0  0  0  0  0  0  0  0  0  0  0  0
    2.6034    8.9605    0.0000 C   0  0  0  0  0  0  0  0  0  0  0  0
    4.1019    9.0289    0.0000 C   0  0  0  0  0  0  0  0  0  0  0  0
    4.7919   10.3608    0.0000 C   0  0  0  0  0  0  0  0  0  0  0  0
    6.2903   10.4291    0.0000 N   0  0  0  0  0  0  0  0  0  0  0  0
    6.9803   11.7610    0.0000 C   0  0  0  0  0  0  0  0  0  0  0  0
    8.4788   11.8294    0.0000 N   0  0  0  0  0  0  0  0  0  0  0  0
    6.1719   13.0245    0.0000 N   0  0  0  0  0  0  0  0  0  0  0  0
    1.0265    8.8383    0.0000 C   0  0  0  0  0  0  0  0  0  0  0  0
    2.0164    9.9653    0.0000 O   0  0  0  0  0  0  0  0  0  0  0  0
   -0.0734    9.8583    0.0000 N   0  0  0  0  0  0  0  0  0  0  0  0
   -1.3464   10.6517    0.0000 C   0  0  0  0  0  0  0  0  0  0  0  0
   -1.4860   12.1452    0.0000 C   0  0  0  0  0  0  0  0  0  0  0  0
   -0.2624   13.0128    0.0000 O   0  0  0  0  0  0  0  0  0  0  0  0
   -2.7465   11.1898    0.0000 C   0  0  0  0  0  0  0  0  0  0  0  0
   -2.5231   12.6731    0.0000 O   0  0  0  0  0  0  0  0  0  0  0  0
   -4.2232   11.4532    0.0000 N   0  0  0  0  0  0  0  0  0  0  0  0
   -5.7231   11.4324    0.0000 C   0  0  0  0  0  0  0  0  0  0  0  0
   -6.6480   12.6134    0.0000 C   0  0  0  0  0  0  0  0  0  0  0  0
   -6.0877   14.0048    0.0000 C   0  0  0  0  0  0  0  0  0  0  0  0
   -4.6025   14.2153    0.0000 C   0  0  0  0  0  0  0  0  0  0  0  0
   -4.0422   15.6067    0.0000 C   0  0  0  0  0  0  0  0  0  0  0  0
   -4.9671   16.7877    0.0000 C   0  0  0  0  0  0  0  0  0  0  0  0
   -6.4523   16.5772    0.0000 C   0  0  0  0  0  0  0  0  0  0  0  0
   -7.0126   15.1857    0.0000 C   0  0  0  0  0  0  0  0  0  0  0  0
   -7.1919   11.1282    0.0000 C   0  0  0  0  0  0  0  0  0  0  0  0
   -7.8058   12.4968    0.0000 O   0  0  0  0  0  0  0  0  0  0  0  0
   -8.5766   10.5514    0.0000 N   0  0  0  0  0  0  0  0  0  0  0  0
   -9.8271    9.7230    0.0000 C   0  0  0  0  0  0  0  0  0  0  0  0
  -11.2436   10.2165    0.0000 C   0  0  0  0  0  0  0  0  0  0  0  0
  -11.5245   11.6899    0.0000 C   0  0  0  0  0  0  0  0  0  0  0  0
  -12.9411   12.1833    0.0000 C   0  0  0  0  0  0  0  0  0  0  0  0
  -13.2220   13.6568    0.0000 C   0  0  0  0  0  0  0  0  0  0  0  0
  -14.6385   14.1502    0.0000 N   0  0  0  0  0  0  0  0  0  0  0  0
  -10.8982    8.6729    0.0000 C   0  0  0  0  0  0  0  0  0  0  0  0
  -12.1546    9.4924    0.0000 O   0  0  0  0  0  0  0  0  0  0  0  0
  -11.7513    7.4391    0.0000 N   0  0  0  0  0  0  0  0  0  0  0  0
  -12.3554    6.0662    0.0000 C   0  0  0  0  0  0  0  0  0  0  0  0
  -13.8139    5.7155    0.0000 C   0  0  0  0  0  0  0  0  0  0  0  0
  -12.6888    4.6037    0.0000 C   0  0  0  0  0  0  0  0  0  0  0  0
  -14.1888    4.6138    0.0000 O   0  0  0  0  0  0  0  0  0  0  0  0
  -12.7394    3.1046    0.0000 N   0  0  0  0  0  0  0  0  0  0  0  0
  -12.5054    1.6229    0.0000 C   0  0  0  0  0  0  0  0  0  0  0  0
  -13.5427    0.5394    0.0000 C   0  0  0  0  0  0  0  0  0  0  0  0
  -14.9997    0.8959    0.0000 C   0  0  0  0  0  0  0  0  0  0  0  0
  -16.0370   -0.1876    0.0000 C   0  0  0  0  0  0  0  0  0  0  0  0
  -16.2469    1.7293    0.0000 C   0  0  0  0  0  0  0  0  0  0  0  0
  -11.9952    0.2124    0.0000 C   0  0  0  0  0  0  0  0  0  0  0  0
  -13.2625   -0.5901    0.0000 O   0  0  0  0  0  0  0  0  0  0  0  0
  -11.2272   -1.0762    0.0000 N   0  0  0  0  0  0  0  0  0  0  0  0
  -10.2293   -2.1960    0.0000 C   0  0  0  0  0  0  0  0  0  0  0  0
   -9.0375   -3.1068    0.0000 C   0  0  0  0  0  0  0  0  0  0  0  0
   -7.6948   -3.7756    0.0000 C   0  0  0  0  0  0  0  0  0  0  0  0
   -6.2499   -4.1782    0.0000 C   0  0  0  0  0  0  0  0  0  0  0  0
   -4.7548   -4.3001    0.0000 C   0  0  0  0  0  0  0  0  0  0  0  0
  -11.6759   -2.5929    0.0000 C   0  0  0  0  0  0  0  0  0  0  0  0
  -10.5161   -3.6684    0.0000 C   0  0  0  0  0  0  0  0  0  0  0  0
   -9.6563   -4.8975    0.0000 O   0  0  0  0  0  0  0  0  0  0  0  0
  -11.9346   -4.1561    0.0000 N   0  0  0  0  0  0  0  0  0  0  0  0
  -12.2214   -5.6285    0.0000 C   0  0  0  0  0  0  0  0  0  0  0  0
  -11.9874   -7.1101    0.0000 C   0  0  0  0  0  0  0  0  0  0  0  0
  -13.1535   -8.0536    0.0000 C   0  0  0  0  0  0  0  0  0  0  0  0
  -12.9195   -9.5352    0.0000 C   0  0  0  0  0  0  0  0  0  0  0  0
  -14.0856  -10.4787    0.0000 C   0  0  0  0  0  0  0  0  0  0  0  0
  -13.8515  -11.9603    0.0000 N   0  0  0  0  0  0  0  0  0  0  0  0
  -13.6399   -6.1162    0.0000 C   0  0  0  0  0  0  0  0  0  0  0  0
  -14.7716   -5.1317    0.0000 O   0  0  0  0  0  0  0  0  0  0  0  0
  -13.9267   -7.5885    0.0000 N   0  0  0  0  0  0  0  0  0  0  0  0
  -15.3452   -8.0763    0.0000 C   0  0  0  0  0  0  0  0  0  0  0  0
  -16.8450   -8.0495    0.0000 C   0  0  0  0  0  0  0  0  0  0  0  0
  -17.5717   -6.7373    0.0000 C   0  0  0  0  0  0  0  0  0  0  0  0
  -19.0714   -6.7105    0.0000 C   0  0  0  0  0  0  0  0  0  0  0  0
  -19.7981   -5.3983    0.0000 N   0  0  0  0  0  0  0  0  0  0  0  0
  -19.8445   -7.9959    0.0000 O   0  0  0  0  0  0  0  0  0  0  0  0
  -15.6320   -9.5486    0.0000 C   0  0  0  0  0  0  0  0  0  0  0  0
  -14.7722  -10.7778    0.0000 O   0  0  0  0  0  0  0  0  0  0  0  0
  -17.0505  -10.0364    0.0000 N   0  0  0  0  0  0  0  0  0  0  0  0
  -17.3373  -11.5087    0.0000 C   0  0  0  0  0  0  0  0  0  0  0  0
  -17.1033  -12.9904    0.0000 C   0  0  0  0  0  0  0  0  0  0  0  0
  -18.3757  -13.7847    0.0000 C   0  0  0  0  0  0  0  0  0  0  0  0
  -16.3766  -14.3026    0.0000 C   0  0  0  0  0  0  0  0  0  0  0  0
  -17.1497  -15.5880    0.0000 C   0  0  0  0  0  0  0  0  0  0  0  0
  -18.7558  -11.9965    0.0000 C   0  0  0  0  0  0  0  0  0  0  0  0
  -19.2200  -13.4229    0.0000 O   0  0  0  0  0  0  0  0  0  0  0  0
  -19.8875  -11.0119    0.0000 O   0  0  0  0  0  0  0  0  0  0  0  0
   21.6583   -1.2256    0.0000 H   0  0  0  0  0  0  0  0  0  0  0  0
   21.5471   -5.7168    0.0000 H   0  0  0  0  0  0  0  0  0  0  0  0
   24.0414   -7.3836    0.0000 H   0  0  0  0  0  0  0  0  0  0  0  0
   24.0689   -1.4171    0.0000 H   0  0  0  0  0  0  0  0  0  0  0  0
   31.1175   -0.1405    0.0000 H   0  0  0  0  0  0  0  0  0  0  0  0
   31.8631   -5.2829    0.0000 H   0  0  0  0  0  0  0  0  0  0  0  0
   28.8941   -5.7133    0.0000 H   0  0  0  0  0  0  0  0  0  0  0  0
   33.9034   -3.6745    0.0000 H   0  0  0  0  0  0  0  0  0  0  0  0
   24.0679   -3.7878    0.0000 H   0  0  0  0  0  0  0  0  0  0  0  0
   22.1955   -1.2493    0.0000 H   0  0  0  0  0  0  0  0  0  0  0  0
   26.2913    1.7850    0.0000 H   0  0  0  0  0  0  0  0  0  0  0  0
   23.8782    2.7478    0.0000 H   0  0  0  0  0  0  0  0  0  0  0  0
   19.2489   -1.0565    0.0000 H   0  0  0  0  0  0  0  0  0  0  0  0
   18.6924   -4.4264    0.0000 H   0  0  0  0  0  0  0  0  0  0  0  0
   16.9080   -4.4186    0.0000 H   0  0  0  0  0  0  0  0  0  0  0  0
   17.5956   -1.2998    0.0000 H   0  0  0  0  0  0  0  0  0  0  0  0
   15.6713   -1.1736    0.0000 H   0  0  0  0  0  0  0  0  0  0  0  0
   14.0639   -0.7165    0.0000 H   0  0  0  0  0  0  0  0  0  0  0  0
   12.2007   -1.4367    0.0000 H   0  0  0  0  0  0  0  0  0  0  0  0
   14.0995   -5.4646    0.0000 H   0  0  0  0  0  0  0  0  0  0  0  0
   12.0913   -4.5809    0.0000 H   0  0  0  0  0  0  0  0  0  0  0  0
   17.3853   -5.1525    0.0000 H   0  0  0  0  0  0  0  0  0  0  0  0
   15.2813   -6.5058    0.0000 H   0  0  0  0  0  0  0  0  0  0  0  0
   10.8466   -0.4574    0.0000 H   0  0  0  0  0  0  0  0  0  0  0  0
    9.0312   -0.5199    0.0000 H   0  0  0  0  0  0  0  0  0  0  0  0
    8.8912   -4.9074    0.0000 H   0  0  0  0  0  0  0  0  0  0  0  0
    7.7638   -3.9529    0.0000 H   0  0  0  0  0  0  0  0  0  0  0  0
   12.0881   -3.4464    0.0000 H   0  0  0  0  0  0  0  0  0  0  0  0
   11.0855   -2.3617    0.0000 H   0  0  0  0  0  0  0  0  0  0  0  0
   10.9497   -6.7271    0.0000 H   0  0  0  0  0  0  0  0  0  0  0  0
    9.5877   -5.5741    0.0000 H   0  0  0  0  0  0  0  0  0  0  0  0
   14.0047   -5.6066    0.0000 H   0  0  0  0  0  0  0  0  0  0  0  0
   12.6029   -4.0901    0.0000 H   0  0  0  0  0  0  0  0  0  0  0  0
   14.3815   -7.3835    0.0000 H   0  0  0  0  0  0  0  0  0  0  0  0
   11.8872   -8.1105    0.0000 H   0  0  0  0  0  0  0  0  0  0  0  0
    7.9119    0.8866    0.0000 H   0  0  0  0  0  0  0  0  0  0  0  0
    6.0218    1.5325    0.0000 H   0  0  0  0  0  0  0  0  0  0  0  0
    4.5525   -2.6263    0.0000 H   0  0  0  0  0  0  0  0  0  0  0  0
    3.8625   -0.9807    0.0000 H   0  0  0  0  0  0  0  0  0  0  0  0
    7.4851   -0.9846    0.0000 H   0  0  0  0  0  0  0  0  0  0  0  0
    7.4770   -4.7778    0.0000 H   0  0  0  0  0  0  0  0  0  0  0  0
    5.8644   -5.0403    0.0000 H   0  0  0  0  0  0  0  0  0  0  0  0
    4.9789   -3.4911    0.0000 H   0  0  0  0  0  0  0  0  0  0  0  0
    8.4434   -3.9672    0.0000 H   0  0  0  0  0  0  0  0  0  0  0  0
    9.5100   -2.7295    0.0000 H   0  0  0  0  0  0  0  0  0  0  0  0
    7.9386   -1.0296    0.0000 H   0  0  0  0  0  0  0  0  0  0  0  0
    5.6847    2.9842    0.0000 H   0  0  0  0  0  0  0  0  0  0  0  0
    4.3228    1.9656    0.0000 H   0  0  0  0  0  0  0  0  0  0  0  0
    3.7590    0.6590    0.0000 H   0  0  0  0  0  0  0  0  0  0  0  0
    3.8195    0.0756    0.0000 H   0  0  0  0  0  0  0  0  0  0  0  0
    3.2057   -0.8258    0.0000 H   0  0  0  0  0  0  0  0  0  0  0  0
    3.1238   -0.9723    0.0000 H   0  0  0  0  0  0  0  0  0  0  0  0
    2.3875   -2.1900    0.0000 H   0  0  0  0  0  0  0  0  0  0  0  0
    2.0619   -2.5765    0.0000 H   0  0  0  0  0  0  0  0  0  0  0  0
    1.1627   -3.4580    0.0000 H   0  0  0  0  0  0  0  0  0  0  0  0
    0.7698   -3.7759    0.0000 H   0  0  0  0  0  0  0  0  0  0  0  0
   -0.2799   -4.4713    0.0000 H   0  0  0  0  0  0  0  0  0  0  0  0
   -0.7258   -4.7091    0.0000 H   0  0  0  0  0  0  0  0  0  0  0  0
   -2.0705   -5.1750    0.0000 H   0  0  0  0  0  0  0  0  0  0  0  0
   -2.9595   -5.6056    0.0000 H   0  0  0  0  0  0  0  0  0  0  0  0
    5.7015    3.4817    0.0000 H   0  0  0  0  0  0  0  0  0  0  0  0
    5.4210    5.0913    0.0000 H   0  0  0  0  0  0  0  0  0  0  0  0
    3.6671    5.4201    0.0000 H   0  0  0  0  0  0  0  0  0  0  0  0
    4.0176    6.6074    0.0000 H   0  0  0  0  0  0  0  0  0  0  0  0
    3.3987    7.4192    0.0000 H   0  0  0  0  0  0  0  0  0  0  0  0
    2.7963   10.4481    0.0000 H   0  0  0  0  0  0  0  0  0  0  0  0
    1.3230    9.7418    0.0000 H   0  0  0  0  0  0  0  0  0  0  0  0
    5.5333    8.5806    0.0000 H   0  0  0  0  0  0  0  0  0  0  0  0
    4.2747    7.5389    0.0000 H   0  0  0  0  0  0  0  0  0  0  0  0
    4.9847   11.8483    0.0000 H   0  0  0  0  0  0  0  0  0  0  0  0
    3.4257   10.9802    0.0000 H   0  0  0  0  0  0  0  0  0  0  0  0
    7.0987    9.1656    0.0000 H   0  0  0  0  0  0  0  0  0  0  0  0
    9.1688   13.1613    0.0000 H   0  0  0  0  0  0  0  0  0  0  0  0
    6.8619   14.3564    0.0000 H   0  0  0  0  0  0  0  0  0  0  0  0
    4.6734   12.9561    0.0000 H   0  0  0  0  0  0  0  0  0  0  0  0
    0.8374   11.0501    0.0000 H   0  0  0  0  0  0  0  0  0  0  0  0
   -0.0702   11.4400    0.0000 H   0  0  0  0  0  0  0  0  0  0  0  0
   -1.9579   13.5690    0.0000 H   0  0  0  0  0  0  0  0  0  0  0  0
   -2.9856   12.1102    0.0000 H   0  0  0  0  0  0  0  0  0  0  0  0
   -0.4020   14.5063    0.0000 H   0  0  0  0  0  0  0  0  0  0  0  0
   -3.9200   12.9223    0.0000 H   0  0  0  0  0  0  0  0  0  0  0  0
   -5.0757   12.7855    0.0000 H   0  0  0  0  0  0  0  0  0  0  0  0
   -7.8148   13.5560    0.0000 H   0  0  0  0  0  0  0  0  0  0  0  0
   -7.8906   11.7732    0.0000 H   0  0  0  0  0  0  0  0  0  0  0  0
   -3.5406   13.1559    0.0000 H   0  0  0  0  0  0  0  0  0  0  0  0
   -2.5571   15.8172    0.0000 H   0  0  0  0  0  0  0  0  0  0  0  0
   -4.4068   18.1791    0.0000 H   0  0  0  0  0  0  0  0  0  0  0  0
   -7.3772   17.7581    0.0000 H   0  0  0  0  0  0  0  0  0  0  0  0
   -8.4977   14.9752    0.0000 H   0  0  0  0  0  0  0  0  0  0  0  0
   -9.1157   11.9512    0.0000 H   0  0  0  0  0  0  0  0  0  0  0  0
   -9.8312   11.2230    0.0000 H   0  0  0  0  0  0  0  0  0  0  0  0
  -12.7435   10.1957    0.0000 H   0  0  0  0  0  0  0  0  0  0  0  0
  -11.8347    8.8378    0.0000 H   0  0  0  0  0  0  0  0  0  0  0  0
  -11.1059   13.1303    0.0000 H   0  0  0  0  0  0  0  0  0  0  0  0
  -10.0743   12.0730    0.0000 H   0  0  0  0  0  0  0  0  0  0  0  0
  -14.4409   12.1626    0.0000 H   0  0  0  0  0  0  0  0  0  0  0  0
  -13.3597   10.7430    0.0000 H   0  0  0  0  0  0  0  0  0  0  0  0
  -12.9820   15.1375    0.0000 H   0  0  0  0  0  0  0  0  0  0  0  0
  -11.7359   13.8603    0.0000 H   0  0  0  0  0  0  0  0  0  0  0  0
  -14.9194   15.6237    0.0000 H   0  0  0  0  0  0  0  0  0  0  0  0
  -15.7741   13.1702    0.0000 H   0  0  0  0  0  0  0  0  0  0  0  0
  -13.0606    8.1711    0.0000 H   0  0  0  0  0  0  0  0  0  0  0  0
  -13.3173    7.2172    0.0000 H   0  0  0  0  0  0  0  0  0  0  0  0
  -14.8468    6.8031    0.0000 H   0  0  0  0  0  0  0  0  0  0  0  0
  -15.1560    5.0457    0.0000 H   0  0  0  0  0  0  0  0  0  0  0  0
  -13.5658    4.2361    0.0000 H   0  0  0  0  0  0  0  0  0  0  0  0
  -14.2367    3.1956    0.0000 H   0  0  0  0  0  0  0  0  0  0  0  0
  -13.8715    2.2423    0.0000 H   0  0  0  0  0  0  0  0  0  0  0  0
  -14.1468   -0.8336    0.0000 H   0  0  0  0  0  0  0  0  0  0  0  0
  -12.5342   -0.5710    0.0000 H   0  0  0  0  0  0  0  0  0  0  0  0
  -14.7457    2.3743    0.0000 H   0  0  0  0  0  0  0  0  0  0  0  0
  -17.5266   -0.0113    0.0000 H   0  0  0  0  0  0  0  0  0  0  0  0
  -16.6411   -1.5605    0.0000 H   0  0  0  0  0  0  0  0  0  0  0  0
  -14.9007   -1.1668    0.0000 H   0  0  0  0  0  0  0  0  0  0  0  0
  -17.6630    1.2348    0.0000 H   0  0  0  0  0  0  0  0  0  0  0  0
  -17.1338    2.9390    0.0000 H   0  0  0  0  0  0  0  0  0  0  0  0
  -15.2096    2.8129    0.0000 H   0  0  0  0  0  0  0  0  0  0  0  0
  -12.5360   -1.8090    0.0000 H   0  0  0  0  0  0  0  0  0  0  0  0
   -9.0405   -4.6068    0.0000 H   0  0  0  0  0  0  0  0  0  0  0  0
  -10.1823   -4.0761    0.0000 H   0  0  0  0  0  0  0  0  0  0  0  0
   -7.5956   -5.2723    0.0000 H   0  0  0  0  0  0  0  0  0  0  0  0
   -8.6355   -4.9440    0.0000 H   0  0  0  0  0  0  0  0  0  0  0  0
   -5.6952   -5.5719    0.0000 H   0  0  0  0  0  0  0  0  0  0  0  0
   -7.1088   -5.4080    0.0000 H   0  0  0  0  0  0  0  0  0  0  0  0
   -4.7340   -5.8000    0.0000 H   0  0  0  0  0  0  0  0  0  0  0  0
  -12.3954   -3.9090    0.0000 H   0  0  0  0  0  0  0  0  0  0  0  0
  -13.1709   -2.4710    0.0000 H   0  0  0  0  0  0  0  0  0  0  0  0
  -12.1727   -1.1775    0.0000 H   0  0  0  0  0  0  0  0  0  0  0  0
  -13.1778   -3.3169    0.0000 H   0  0  0  0  0  0  0  0  0  0  0  0
  -10.7217   -5.6553    0.0000 H   0  0  0  0  0  0  0  0  0  0  0  0
  -11.1062   -8.3240    0.0000 H   0  0  0  0  0  0  0  0  0  0  0  0
  -10.5689   -6.6223    0.0000 H   0  0  0  0  0  0  0  0  0  0  0  0
  -14.6209   -8.3648    0.0000 H   0  0  0  0  0  0  0  0  0  0  0  0
  -14.4113   -7.2362    0.0000 H   0  0  0  0  0  0  0  0  0  0  0  0
  -12.1928  -10.8474    0.0000 H   0  0  0  0  0  0  0  0  0  0  0  0
  -11.4521   -9.2240    0.0000 H   0  0  0  0  0  0  0  0  0  0  0  0
  -15.4340  -11.1358    0.0000 H   0  0  0  0  0  0  0  0  0  0  0  0
  -14.9668   -9.2648    0.0000 H   0  0  0  0  0  0  0  0  0  0  0  0
  -15.0176  -12.9038    0.0000 H   0  0  0  0  0  0  0  0  0  0  0  0
  -12.4514  -12.4985    0.0000 H   0  0  0  0  0  0  0  0  0  0  0  0
  -13.0669   -8.8177    0.0000 H   0  0  0  0  0  0  0  0  0  0  0  0
  -15.3969   -6.5772    0.0000 H   0  0  0  0  0  0  0  0  0  0  0  0
  -18.3123   -8.3607    0.0000 H   0  0  0  0  0  0  0  0  0  0  0  0
  -16.9764   -9.5437    0.0000 H   0  0  0  0  0  0  0  0  0  0  0  0
  -17.8057   -5.2557    0.0000 H   0  0  0  0  0  0  0  0  0  0  0  0
  -16.2232   -6.0802    0.0000 H   0  0  0  0  0  0  0  0  0  0  0  0
  -21.2978   -5.3715    0.0000 H   0  0  0  0  0  0  0  0  0  0  0  0
  -19.0250   -4.1128    0.0000 H   0  0  0  0  0  0  0  0  0  0  0  0
  -18.2938   -9.1971    0.0000 H   0  0  0  0  0  0  0  0  0  0  0  0
  -15.8520  -11.7181    0.0000 H   0  0  0  0  0  0  0  0  0  0  0  0
  -15.7549  -12.3333    0.0000 H   0  0  0  0  0  0  0  0  0  0  0  0
  -18.2367  -15.4448    0.0000 H   0  0  0  0  0  0  0  0  0  0  0  0
  -19.6879  -14.4216    0.0000 H   0  0  0  0  0  0  0  0  0  0  0  0
  -19.4182  -12.9693    0.0000 H   0  0  0  0  0  0  0  0  0  0  0  0
  -15.2450  -15.2871    0.0000 H   0  0  0  0  0  0  0  0  0  0  0  0
  -15.1042  -13.5083    0.0000 H   0  0  0  0  0  0  0  0  0  0  0  0
  -16.4230  -16.9002    0.0000 H   0  0  0  0  0  0  0  0  0  0  0  0
  -18.3158  -16.5315    0.0000 H   0  0  0  0  0  0  0  0  0  0  0  0
  -18.4860  -14.9065    0.0000 H   0  0  0  0  0  0  0  0  0  0  0  0
  -21.3060  -11.4997    0.0000 H   0  0  0  0  0  0  0  0  0  0  0  0
  1  2  1  0
  2  3  1  0
  3  4  2  0
  4  5  1  0
  5  6  2  0
  6  7  1  0
  7  8  2  0
  7  9  1  0
  9 10  1  0
 10 11  1  0
 11 12  2  0
  9 13  1  0
 13 14  1  0
 14 15  2  0
 15 16  1  0
 16 17  2  0
 17 18  1  0
 16 19  1  0
 14 20  1  0
 20 21  1  0
 21 22  2  0
 22 23  1  0
 23 24  2  0
 24 25  1  0
 25 26  2  0
 25 27  1  0
  1 28  2  0
  1 29  1  0
 29 30  1  0
 30 31  1  0
 31 32  1  0
 32 33  2  0
 32 34  1  0
 34 35  1  0
 35 36  1  0
 36 37  1  0
 37 38  1  0
 37 39  2  0
 35 40  1  0
 40 41  2  0
 40 42  1  0
 42 43  1  0
 43 44  1  0
 44 45  1  0
 45 46  1  0
 46 47  1  0
 47 48  1  0
 43 49  1  0
 49 50  2  0
 49 51  1  0
 51 52  1  0
 52 53  1  0
 53 54  1  0
 54 55  1  0
 54 56  1  0
 52 57  1  0
 57 58  2  0
 57 59  1  0
 60 59  1  6
 60 61  1  0
 61 62  1  0
 62 63  1  0
 63 64  1  0
 64 65  1  0
 65 66  1  0
 66 67  1  0
 60 68  1  0
 60 69  1  0
 69 70  2  0
 69 71  1  0
 71 72  1  0
 72 73  1  0
 73 74  1  0
 74 75  1  0
 75 76  1  0
 76 77  1  0
 77 78  2  3
 77 79  1  0
 72 80  1  0
 80 81  2  0
 80 82  1  0
 82 83  1  0
 83 84  1  0
 84 85  1  0
 83 86  1  0
 86 87  2  0
 86 88  1  0
 88 89  1  0
 89 90  1  0
 90 91  1  0
 91 92  2  0
 92 93  1  0
 93 94  2  0
 94 95  1  0
 95 96  2  0
 89 97  1  0
 97 98  2  0
 97 99  1  0
 99100  1  0
100101  1  0
101102  1  0
102103  1  0
103104  1  0
104105  1  0
100106  1  0
106107  2  0
106108  1  0
108109  1  0
109110  1  0
109111  1  0
111112  2  0
111113  1  0
113114  1  0
114115  1  0
115116  1  0
116117  1  0
116118  1  0
114119  1  0
119120  2  0
119121  1  0
121122  1  0
122123  1  0
123124  1  0
124125  1  0
125126  1  0
122127  1  0
122128  1  1
128129  2  0
128130  1  0
130131  1  0
131132  1  0
132133  1  0
133134  1  0
134135  1  0
135136  1  0
131137  1  0
137138  2  0
137139  1  0
139140  1  0
140141  1  0
141142  1  0
142143  1  0
143144  1  0
143145  2  0
140146  1  0
146147  2  0
146148  1  0
148149  1  0
149150  1  0
150151  1  0
150152  1  0
152153  1  0
149154  1  0
154155  2  0
154156  1  0
  8  3  1  0
 96 91  1  0
 11  6  1  0
 67126  2  0
 18 13  2  0
 22  9  1  0
 26 21  1  0
  2157  1  0
  4158  1  0
  5159  1  0
  8160  1  0
 15161  1  0
 17162  1  0
 18163  1  0
 19164  1  0
 23165  1  0
 24166  1  0
 26167  1  0
 27168  1  0
 29169  1  0
 30170  1  0
 30171  1  0
 31172  1  0
 31173  1  0
 34174  1  0
 35175  1  1
 36176  1  0
 36177  1  0
 38178  1  0
 38179  1  0
 42180  1  0
 43181  1  1
 44182  1  0
 44183  1  0
 45184  1  0
 45185  1  0
 46186  1  0
 46187  1  0
 47188  1  0
 47189  1  0
 48190  1  0
 48191  1  0
 51192  1  0
 52193  1  1
 53194  1  0
 53195  1  0
 54196  1  0
 55197  1  0
 55198  1  0
 55199  1  0
 56200  1  0
 56201  1  0
 56202  1  0
 59203  1  0
 61204  1  0
 61205  1  0
 62206  1  0
 62207  1  0
 63208  1  0
 63209  1  0
 64210  1  0
 64211  1  0
 65212  1  0
 65213  1  0
 66214  1  0
 66215  1  0
 67216  1  0
 68217  1  0
 68218  1  0
 68219  1  0
 71220  1  0
 72221  1  6
 73222  1  0
 73223  1  0
 74224  1  0
 74225  1  0
 75226  1  0
 75227  1  0
 76228  1  0
 78229  1  0
 79230  1  0
 79231  1  0
 82232  1  0
 83233  1  6
 84234  1  0
 84235  1  0
 85236  1  0
 88237  1  0
 89238  1  6
 90239  1  0
 90240  1  0
 92241  1  0
 93242  1  0
 94243  1  0
 95244  1  0
 96245  1  0
 99246  1  0
100247  1  6
101248  1  0
101249  1  0
102250  1  0
102251  1  0
103252  1  0
103253  1  0
104254  1  0
104255  1  0
105256  1  0
105257  1  0
108258  1  0
109259  1  6
110260  1  0
110261  1  0
110262  1  0
113263  1  0
114264  1  6
115265  1  0
115266  1  0
116267  1  0
117268  1  0
117269  1  0
117270  1  0
118271  1  0
118272  1  0
118273  1  0
121274  1  0
123275  1  0
123276  1  0
124277  1  0
124278  1  0
125279  1  0
125280  1  0
126281  1  0
127282  1  0
127283  1  0
127284  1  0
130285  1  0
131286  1  1
132287  1  0
132288  1  0
133289  1  0
133290  1  0
134291  1  0
134292  1  0
135293  1  0
135294  1  0
136295  1  0
136296  1  0
139297  1  0
140298  1  6
141299  1  0
141300  1  0
142301  1  0
142302  1  0
144303  1  0
144304  1  0
148305  1  0
149306  1  1
150307  1  1
151308  1  0
151309  1  0
151310  1  0
152311  1  0
152312  1  0
153313  1  0
153314  1  0
153315  1  0
156316  1  0
M  END
