
     RDKit          2D

262263  0  0  0  0  0  0  0  0999 V2000
   24.9772  -10.9631    0.0000 N   0  0  0  0  0  0  0  0  0  0  0  0
   24.3604   -9.5958    0.0000 C   0  0  0  0  0  0  0  0  0  0  0  0
   22.8679   -9.4463    0.0000 C   0  0  0  0  0  0  0  0  0  0  0  0
   22.2510   -8.0790    0.0000 O   0  0  0  0  0  0  0  0  0  0  0  0
   20.7585   -7.9296    0.0000 C   0  0  0  0  0  0  0  0  0  0  0  0
   20.1417   -6.5623    0.0000 C   0  0  0  0  0  0  0  0  0  0  0  0
   18.6492   -6.4128    0.0000 O   0  0  0  0  0  0  0  0  0  0  0  0
   18.0323   -5.0455    0.0000 C   0  0  0  0  0  0  0  0  0  0  0  0
   16.5398   -4.8960    0.0000 C   0  0  0  0  0  0  0  0  0  0  0  0
   16.1568   -5.5951    0.0000 O   0  0  0  0  0  0  0  0  0  0  0  0
   15.9230   -3.5287    0.0000 N   0  0  0  0  0  0  0  0  0  0  0  0
   14.4304   -3.3792    0.0000 C   0  0  0  0  0  0  0  0  0  0  0  0
   14.5424   -4.8751    0.0000 C   0  0  0  0  0  0  0  0  0  0  0  0
   13.0790   -2.7283    0.0000 C   0  0  0  0  0  0  0  0  0  0  0  0
   11.9518   -3.7180    0.0000 O   0  0  0  0  0  0  0  0  0  0  0  0
   12.9671   -1.2325    0.0000 N   0  0  0  0  0  0  0  0  0  0  0  0
   11.6157   -0.5816    0.0000 C   0  0  0  0  0  0  0  0  0  0  0  0
   11.2093   -2.0255    0.0000 C   0  0  0  0  0  0  0  0  0  0  0  0
    9.7556   -2.3955    0.0000 C   0  0  0  0  0  0  0  0  0  0  0  0
    8.6018   -1.4370    0.0000 C   0  0  0  0  0  0  0  0  0  0  0  0
    7.3337   -2.2381    0.0000 N   0  0  0  0  0  0  0  0  0  0  0  0
    7.7037   -3.6917    0.0000 C   0  0  0  0  0  0  0  0  0  0  0  0
    9.2006   -3.7890    0.0000 N   0  0  0  0  0  0  0  0  0  0  0  0
   10.5684    0.4923    0.0000 C   0  0  0  0  0  0  0  0  0  0  0  0
    9.0805    0.3022    0.0000 O   0  0  0  0  0  0  0  0  0  0  0  0
   10.9748    1.9362    0.0000 N   0  0  0  0  0  0  0  0  0  0  0  0
    9.9275    3.0101    0.0000 C   0  0  0  0  0  0  0  0  0  0  0  0
   11.1669    3.8550    0.0000 C   0  0  0  0  0  0  0  0  0  0  0  0
   12.5183    3.2041    0.0000 C   0  0  0  0  0  0  0  0  0  0  0  0
   13.7577    4.0489    0.0000 C   0  0  0  0  0  0  0  0  0  0  0  0
   13.5656    2.1302    0.0000 C   0  0  0  0  0  0  0  0  0  0  0  0
    8.5761    3.6610    0.0000 C   0  0  0  0  0  0  0  0  0  0  0  0
    8.6473    5.1593    0.0000 O   0  0  0  0  0  0  0  0  0  0  0  0
    7.3367    2.8161    0.0000 N   0  0  0  0  0  0  0  0  0  0  0  0
    5.9853    3.4671    0.0000 C   0  0  0  0  0  0  0  0  0  0  0  0
    6.0021    1.9672    0.0000 C   0  0  0  0  0  0  0  0  0  0  0  0
    5.7349    0.4912    0.0000 C   0  0  0  0  0  0  0  0  0  0  0  0
    5.1931   -0.9076    0.0000 C   0  0  0  0  0  0  0  0  0  0  0  0
    4.3964   -2.1785    0.0000 C   0  0  0  0  0  0  0  0  0  0  0  0
    3.3735   -3.2757    0.0000 C   0  0  0  0  0  0  0  0  0  0  0  0
    2.1615   -4.1595    0.0000 C   0  0  0  0  0  0  0  0  0  0  0  0
    0.8042   -4.7979    0.0000 C   0  0  0  0  0  0  0  0  0  0  0  0
    7.1686    4.3889    0.0000 C   0  0  0  0  0  0  0  0  0  0  0  0
    5.6848    4.9367    0.0000 C   0  0  0  0  0  0  0  0  0  0  0  0
    7.0550    5.5470    0.0000 O   0  0  0  0  0  0  0  0  0  0  0  0
    5.1117    6.3229    0.0000 N   0  0  0  0  0  0  0  0  0  0  0  0
    4.2866    7.5755    0.0000 C   0  0  0  0  0  0  0  0  0  0  0  0
    4.7837    8.9908    0.0000 C   0  0  0  0  0  0  0  0  0  0  0  0
    6.2579    9.2679    0.0000 C   0  0  0  0  0  0  0  0  0  0  0  0
    6.7550   10.6831    0.0000 C   0  0  0  0  0  0  0  0  0  0  0  0
    7.7379    9.0240    0.0000 C   0  0  0  0  0  0  0  0  0  0  0  0
    3.2393    8.6494    0.0000 C   0  0  0  0  0  0  0  0  0  0  0  0
    4.0620    9.9037    0.0000 O   0  0  0  0  0  0  0  0  0  0  0  0
    2.0077    9.5057    0.0000 N   0  0  0  0  0  0  0  0  0  0  0  0
    0.6363   10.1134    0.0000 C   0  0  0  0  0  0  0  0  0  0  0  0
    0.2894   11.5728    0.0000 C   0  0  0  0  0  0  0  0  0  0  0  0
    1.3798   12.6029    0.0000 S   0  0  0  0  0  0  0  0  0  0  0  0
   -0.8253   10.4506    0.0000 C   0  0  0  0  0  0  0  0  0  0  0  0
   -0.8112   11.9506    0.0000 O   0  0  0  0  0  0  0  0  0  0  0  0
   -2.3243   10.5051    0.0000 N   0  0  0  0  0  0  0  0  0  0  0  0
   -3.8065   10.2750    0.0000 C   0  0  0  0  0  0  0  0  0  0  0  0
   -4.8873   11.3151    0.0000 C   0  0  0  0  0  0  0  0  0  0  0  0
   -4.5270   12.7712    0.0000 C   0  0  0  0  0  0  0  0  0  0  0  0
   -5.6078   13.8113    0.0000 C   0  0  0  0  0  0  0  0  0  0  0  0
   -3.6903   14.0162    0.0000 C   0  0  0  0  0  0  0  0  0  0  0  0
   -5.2184    9.7684    0.0000 C   0  0  0  0  0  0  0  0  0  0  0  0
   -6.0175   11.0379    0.0000 O   0  0  0  0  0  0  0  0  0  0  0  0
   -6.5089    9.0039    0.0000 N   0  0  0  0  0  0  0  0  0  0  0  0
   -7.6314    8.0089    0.0000 C   0  0  0  0  0  0  0  0  0  0  0  0
   -9.1030    8.2996    0.0000 C   0  0  0  0  0  0  0  0  0  0  0  0
   -9.5870    9.7193    0.0000 C   0  0  0  0  0  0  0  0  0  0  0  0
  -11.0586   10.0100    0.0000 C   0  0  0  0  0  0  0  0  0  0  0  0
  -11.5427   11.4297    0.0000 O   0  0  0  0  0  0  0  0  0  0  0  0
  -12.0461    8.8809    0.0000 O   0  0  0  0  0  0  0  0  0  0  0  0
   -8.5453    6.8194    0.0000 C   0  0  0  0  0  0  0  0  0  0  0  0
   -9.9039    7.4553    0.0000 O   0  0  0  0  0  0  0  0  0  0  0  0
   -9.2176    5.4785    0.0000 N   0  0  0  0  0  0  0  0  0  0  0  0
   -9.6240    4.0346    0.0000 C   0  0  0  0  0  0  0  0  0  0  0  0
  -11.0191    3.4836    0.0000 C   0  0  0  0  0  0  0  0  0  0  0  0
  -12.1939    4.4162    0.0000 C   0  0  0  0  0  0  0  0  0  0  0  0
  -13.5890    3.8652    0.0000 C   0  0  0  0  0  0  0  0  0  0  0  0
  -14.7638    4.7978    0.0000 C   0  0  0  0  0  0  0  0  0  0  0  0
  -16.1589    4.2468    0.0000 N   0  0  0  0  0  0  0  0  0  0  0  0
   -9.7497    2.5399    0.0000 C   0  0  0  0  0  0  0  0  0  0  0  0
  -11.2364    2.3403    0.0000 O   0  0  0  0  0  0  0  0  0  0  0  0
   -9.5904    1.0484    0.0000 N   0  0  0  0  0  0  0  0  0  0  0  0
   -9.1516   -0.3860    0.0000 C   0  0  0  0  0  0  0  0  0  0  0  0
  -10.0273   -1.6038    0.0000 C   0  0  0  0  0  0  0  0  0  0  0  0
  -11.5198   -1.4544    0.0000 C   0  0  0  0  0  0  0  0  0  0  0  0
  -12.3955   -2.6722    0.0000 C   0  0  0  0  0  0  0  0  0  0  0  0
  -12.8712   -0.8034    0.0000 C   0  0  0  0  0  0  0  0  0  0  0  0
   -8.4493   -1.7114    0.0000 C   0  0  0  0  0  0  0  0  0  0  0  0
   -9.5920   -2.6831    0.0000 O   0  0  0  0  0  0  0  0  0  0  0  0
   -7.5088   -2.8800    0.0000 N   0  0  0  0  0  0  0  0  0  0  0  0
   -6.3642   -3.8495    0.0000 C   0  0  0  0  0  0  0  0  0  0  0  0
   -5.0568   -4.5848    0.0000 C   0  0  0  0  0  0  0  0  0  0  0  0
   -3.6339   -5.0594    0.0000 C   0  0  0  0  0  0  0  0  0  0  0  0
   -2.1469   -5.2561    0.0000 C   0  0  0  0  0  0  0  0  0  0  0  0
   -0.6495   -5.1679    0.0000 C   0  0  0  0  0  0  0  0  0  0  0  0
   -7.7412   -4.4445    0.0000 C   0  0  0  0  0  0  0  0  0  0  0  0
   -6.4425   -5.3474    0.0000 C   0  0  0  0  0  0  0  0  0  0  0  0
   -5.4194   -6.4443    0.0000 O   0  0  0  0  0  0  0  0  0  0  0  0
   -7.7789   -6.0286    0.0000 N   0  0  0  0  0  0  0  0  0  0  0  0
   -7.8572   -7.5265    0.0000 C   0  0  0  0  0  0  0  0  0  0  0  0
   -9.1936   -8.2077    0.0000 C   0  0  0  0  0  0  0  0  0  0  0  0
  -10.4517   -7.3910    0.0000 O   0  0  0  0  0  0  0  0  0  0  0  0
   -9.2719   -9.7057    0.0000 N   0  0  0  0  0  0  0  0  0  0  0  0
  -10.6083  -10.3869    0.0000 C   0  0  0  0  0  0  0  0  0  0  0  0
  -12.0971  -10.5699    0.0000 C   0  0  0  0  0  0  0  0  0  0  0  0
  -13.0000   -9.3721    0.0000 C   0  0  0  0  0  0  0  0  0  0  0  0
  -14.4888   -9.5551    0.0000 C   0  0  0  0  0  0  0  0  0  0  0  0
  -13.4388   -7.9377    0.0000 C   0  0  0  0  0  0  0  0  0  0  0  0
  -10.6866  -11.8848    0.0000 C   0  0  0  0  0  0  0  0  0  0  0  0
   -9.4285  -12.7016    0.0000 O   0  0  0  0  0  0  0  0  0  0  0  0
  -12.0230  -12.5660    0.0000 N   0  0  0  0  0  0  0  0  0  0  0  0
  -12.1013  -14.0640    0.0000 C   0  0  0  0  0  0  0  0  0  0  0  0
  -11.6625  -15.4984    0.0000 C   0  0  0  0  0  0  0  0  0  0  0  0
  -12.6853  -16.5955    0.0000 C   0  0  0  0  0  0  0  0  0  0  0  0
  -13.4377  -14.7452    0.0000 C   0  0  0  0  0  0  0  0  0  0  0  0
  -13.6980  -16.2224    0.0000 O   0  0  0  0  0  0  0  0  0  0  0  0
  -14.6958  -13.9284    0.0000 O   0  0  0  0  0  0  0  0  0  0  0  0
   26.4698  -11.1126    0.0000 H   0  0  0  0  0  0  0  0  0  0  0  0
   24.1015  -12.1810    0.0000 H   0  0  0  0  0  0  0  0  0  0  0  0
   25.8141   -9.2258    0.0000 H   0  0  0  0  0  0  0  0  0  0  0  0
   24.2484   -8.1000    0.0000 H   0  0  0  0  0  0  0  0  0  0  0  0
   22.9799  -10.9422    0.0000 H   0  0  0  0  0  0  0  0  0  0  0  0
   21.4702   -9.9908    0.0000 H   0  0  0  0  0  0  0  0  0  0  0  0
   20.6873   -9.4279    0.0000 H   0  0  0  0  0  0  0  0  0  0  0  0
   19.3049   -8.2996    0.0000 H   0  0  0  0  0  0  0  0  0  0  0  0
   21.5953   -6.1922    0.0000 H   0  0  0  0  0  0  0  0  0  0  0  0
   20.2129   -5.0639    0.0000 H   0  0  0  0  0  0  0  0  0  0  0  0
   19.4300   -4.5010    0.0000 H   0  0  0  0  0  0  0  0  0  0  0  0
   17.9204   -3.5497    0.0000 H   0  0  0  0  0  0  0  0  0  0  0  0
   16.7987   -2.3109    0.0000 H   0  0  0  0  0  0  0  0  0  0  0  0
   14.8368   -1.9353    0.0000 H   0  0  0  0  0  0  0  0  0  0  0  0
   15.2131   -5.3060    0.0000 H   0  0  0  0  0  0  0  0  0  0  0  0
   14.1360   -6.3190    0.0000 H   0  0  0  0  0  0  0  0  0  0  0  0
   13.0499   -4.7256    0.0000 H   0  0  0  0  0  0  0  0  0  0  0  0
   14.2065   -0.3876    0.0000 H   0  0  0  0  0  0  0  0  0  0  0  0
   12.3364    0.7339    0.0000 H   0  0  0  0  0  0  0  0  0  0  0  0
   11.1381   -3.5238    0.0000 H   0  0  0  0  0  0  0  0  0  0  0  0
   12.6213   -2.5317    0.0000 H   0  0  0  0  0  0  0  0  0  0  0  0
    8.5160    0.0606    0.0000 H   0  0  0  0  0  0  0  0  0  0  0  0
    5.8473   -2.0367    0.0000 H   0  0  0  0  0  0  0  0  0  0  0  0
    6.7452   -4.8455    0.0000 H   0  0  0  0  0  0  0  0  0  0  0  0
   12.4627    2.1263    0.0000 H   0  0  0  0  0  0  0  0  0  0  0  0
    9.0518    1.7923    0.0000 H   0  0  0  0  0  0  0  0  0  0  0  0
   11.8876    5.1705    0.0000 H   0  0  0  0  0  0  0  0  0  0  0  0
   10.1196    4.9289    0.0000 H   0  0  0  0  0  0  0  0  0  0  0  0
   12.1373    1.7532    0.0000 H   0  0  0  0  0  0  0  0  0  0  0  0
   15.1784    3.5676    0.0000 H   0  0  0  0  0  0  0  0  0  0  0  0
   14.6334    5.2668    0.0000 H   0  0  0  0  0  0  0  0  0  0  0  0
   12.8492    5.2425    0.0000 H   0  0  0  0  0  0  0  0  0  0  0  0
   15.0535    2.3202    0.0000 H   0  0  0  0  0  0  0  0  0  0  0  0
   14.1824    0.7629    0.0000 H   0  0  0  0  0  0  0  0  0  0  0  0
   12.2324    1.4427    0.0000 H   0  0  0  0  0  0  0  0  0  0  0  0
    7.8073    1.3919    0.0000 H   0  0  0  0  0  0  0  0  0  0  0  0
    7.4637    2.3047    0.0000 H   0  0  0  0  0  0  0  0  0  0  0  0
    7.2059    1.0723    0.0000 H   0  0  0  0  0  0  0  0  0  0  0  0
    7.2338    0.5461    0.0000 H   0  0  0  0  0  0  0  0  0  0  0  0
    6.8749   -0.4837    0.0000 H   0  0  0  0  0  0  0  0  0  0  0  0
    6.6923   -0.9550    0.0000 H   0  0  0  0  0  0  0  0  0  0  0  0
    5.9780   -2.1858    0.0000 H   0  0  0  0  0  0  0  0  0  0  0  0
    5.8084   -2.6847    0.0000 H   0  0  0  0  0  0  0  0  0  0  0  0
    5.0924   -3.5072    0.0000 H   0  0  0  0  0  0  0  0  0  0  0  0
    4.7478   -3.8769    0.0000 H   0  0  0  0  0  0  0  0  0  0  0  0
    3.8055   -4.7121    0.0000 H   0  0  0  0  0  0  0  0  0  0  0  0
    3.3972   -5.0099    0.0000 H   0  0  0  0  0  0  0  0  0  0  0  0
    2.1308   -5.6591    0.0000 H   0  0  0  0  0  0  0  0  0  0  0  0
    1.3107   -6.2098    0.0000 H   0  0  0  0  0  0  0  0  0  0  0  0
    8.6537    4.1781    0.0000 H   0  0  0  0  0  0  0  0  0  0  0  0
    7.9653    5.6598    0.0000 H   0  0  0  0  0  0  0  0  0  0  0  0
    6.3317    5.6337    0.0000 H   0  0  0  0  0  0  0  0  0  0  0  0
    6.5128    6.8584    0.0000 H   0  0  0  0  0  0  0  0  0  0  0  0
    5.7866    7.5757    0.0000 H   0  0  0  0  0  0  0  0  0  0  0  0
    4.7668   10.4907    0.0000 H   0  0  0  0  0  0  0  0  0  0  0  0
    3.4066    9.5855    0.0000 H   0  0  0  0  0  0  0  0  0  0  0  0
    6.6372    7.8166    0.0000 H   0  0  0  0  0  0  0  0  0  0  0  0
    8.1844   11.1378    0.0000 H   0  0  0  0  0  0  0  0  0  0  0  0
    6.7381   12.1830    0.0000 H   0  0  0  0  0  0  0  0  0  0  0  0
    5.3157   11.1055    0.0000 H   0  0  0  0  0  0  0  0  0  0  0  0
    8.8234   10.0593    0.0000 H   0  0  0  0  0  0  0  0  0  0  0  0
    9.0453    8.2887    0.0000 H   0  0  0  0  0  0  0  0  0  0  0  0
    7.2408    7.6088    0.0000 H   0  0  0  0  0  0  0  0  0  0  0  0
    2.7431   10.8131    0.0000 H   0  0  0  0  0  0  0  0  0  0  0  0
    1.7898   11.0723    0.0000 H   0  0  0  0  0  0  0  0  0  0  0  0
   -0.3768   12.9167    0.0000 H   0  0  0  0  0  0  0  0  0  0  0  0
   -1.1906   11.3286    0.0000 H   0  0  0  0  0  0  0  0  0  0  0  0
    1.0329   14.0622    0.0000 H   0  0  0  0  0  0  0  0  0  0  0  0
   -2.2293   12.0021    0.0000 H   0  0  0  0  0  0  0  0  0  0  0  0
   -3.1836   11.6395    0.0000 H   0  0  0  0  0  0  0  0  0  0  0  0
   -6.2587   11.9228    0.0000 H   0  0  0  0  0  0  0  0  0  0  0  0
   -6.0004   10.3095    0.0000 H   0  0  0  0  0  0  0  0  0  0  0  0
   -3.0493   12.5133    0.0000 H   0  0  0  0  0  0  0  0  0  0  0  0
   -5.4276   15.3004    0.0000 H   0  0  0  0  0  0  0  0  0  0  0  0
   -6.9792   14.4190    0.0000 H   0  0  0  0  0  0  0  0  0  0  0  0
   -6.5899   12.6775    0.0000 H   0  0  0  0  0  0  0  0  0  0  0  0
   -4.1811   15.4336    0.0000 H   0  0  0  0  0  0  0  0  0  0  0  0
   -2.4783   14.9000    0.0000 H   0  0  0  0  0  0  0  0  0  0  0  0
   -2.6095   12.9761    0.0000 H   0  0  0  0  0  0  0  0  0  0  0  0
   -7.2384   10.3146    0.0000 H   0  0  0  0  0  0  0  0  0  0  0  0
   -7.8451    9.4936    0.0000 H   0  0  0  0  0  0  0  0  0  0  0  0
  -10.6022    8.2518    0.0000 H   0  0  0  0  0  0  0  0  0  0  0  0
   -9.4957    6.8519    0.0000 H   0  0  0  0  0  0  0  0  0  0  0  0
   -9.5563   11.2190    0.0000 H   0  0  0  0  0  0  0  0  0  0  0  0
   -8.2045   10.3013    0.0000 H   0  0  0  0  0  0  0  0  0  0  0  0
  -10.5399    6.1868    0.0000 H   0  0  0  0  0  0  0  0  0  0  0  0
  -10.6064    5.1681    0.0000 H   0  0  0  0  0  0  0  0  0  0  0  0
  -12.1416    2.4886    0.0000 H   0  0  0  0  0  0  0  0  0  0  0  0
  -10.5668    2.0534    0.0000 H   0  0  0  0  0  0  0  0  0  0  0  0
  -12.8172    5.7806    0.0000 H   0  0  0  0  0  0  0  0  0  0  0  0
  -11.3455    5.6533    0.0000 H   0  0  0  0  0  0  0  0  0  0  0  0
  -14.5818    2.7408    0.0000 H   0  0  0  0  0  0  0  0  0  0  0  0
  -12.9657    2.5008    0.0000 H   0  0  0  0  0  0  0  0  0  0  0  0
  -15.5487    6.0761    0.0000 H   0  0  0  0  0  0  0  0  0  0  0  0
  -13.7709    5.9222    0.0000 H   0  0  0  0  0  0  0  0  0  0  0  0
  -17.3337    5.1794    0.0000 H   0  0  0  0  0  0  0  0  0  0  0  0
  -17.2814    3.2518    0.0000 H   0  0  0  0  0  0  0  0  0  0  0  0
  -15.5356    2.8824    0.0000 H   0  0  0  0  0  0  0  0  0  0  0  0
  -11.0856    0.9294    0.0000 H   0  0  0  0  0  0  0  0  0  0  0  0
  -10.5909    0.0364    0.0000 H   0  0  0  0  0  0  0  0  0  0  0  0
  -10.4337   -3.0477    0.0000 H   0  0  0  0  0  0  0  0  0  0  0  0
   -8.8736   -2.5624    0.0000 H   0  0  0  0  0  0  0  0  0  0  0  0
  -11.4749    0.0450    0.0000 H   0  0  0  0  0  0  0  0  0  0  0  0
  -13.8952   -2.7058    0.0000 H   0  0  0  0  0  0  0  0  0  0  0  0
  -12.8019   -4.1161    0.0000 H   0  0  0  0  0  0  0  0  0  0  0  0
  -11.1336   -3.4830    0.0000 H   0  0  0  0  0  0  0  0  0  0  0  0
  -14.2044   -1.4909    0.0000 H   0  0  0  0  0  0  0  0  0  0  0  0
  -13.9185    0.2705    0.0000 H   0  0  0  0  0  0  0  0  0  0  0  0
  -11.9955    0.4144    0.0000 H   0  0  0  0  0  0  0  0  0  0  0  0
   -8.7024   -3.7885    0.0000 H   0  0  0  0  0  0  0  0  0  0  0  0
   -4.8502   -6.0705    0.0000 H   0  0  0  0  0  0  0  0  0  0  0  0
   -6.0550   -5.7045    0.0000 H   0  0  0  0  0  0  0  0  0  0  0  0
   -3.3265   -6.5276    0.0000 H   0  0  0  0  0  0  0  0  0  0  0  0
   -4.4021   -6.3478    0.0000 H   0  0  0  0  0  0  0  0  0  0  0  0
   -1.4029   -6.5586    0.0000 H   0  0  0  0  0  0  0  0  0  0  0  0
   -2.8255   -6.5939    0.0000 H   0  0  0  0  0  0  0  0  0  0  0  0
   -0.4193   -6.6502    0.0000 H   0  0  0  0  0  0  0  0  0  0  0  0
   -8.2697   -5.8483    0.0000 H   0  0  0  0  0  0  0  0  0  0  0  0
   -9.2386   -4.5327    0.0000 H   0  0  0  0  0  0  0  0  0  0  0  0
   -8.4309   -3.1125    0.0000 H   0  0  0  0  0  0  0  0  0  0  0  0
   -9.1272   -5.3713    0.0000 H   0  0  0  0  0  0  0  0  0  0  0  0
   -7.4184   -8.9609    0.0000 H   0  0  0  0  0  0  0  0  0  0  0  0
   -6.3684   -7.3435    0.0000 H   0  0  0  0  0  0  0  0  0  0  0  0
   -8.0138  -10.5225    0.0000 H   0  0  0  0  0  0  0  0  0  0  0  0
  -10.8690   -8.9097    0.0000 H   0  0  0  0  0  0  0  0  0  0  0  0
  -13.4335  -11.2511    0.0000 H   0  0  0  0  0  0  0  0  0  0  0  0
  -12.0184  -12.0678    0.0000 H   0  0  0  0  0  0  0  0  0  0  0  0
  -11.7566   -8.5331    0.0000 H   0  0  0  0  0  0  0  0  0  0  0  0
  -15.5310   -8.4763    0.0000 H   0  0  0  0  0  0  0  0  0  0  0  0
  -15.8252  -10.2363    0.0000 H   0  0  0  0  0  0  0  0  0  0  0  0
  -14.2281  -11.0323    0.0000 H   0  0  0  0  0  0  0  0  0  0  0  0
  -14.8484   -7.4248    0.0000 H   0  0  0  0  0  0  0  0  0  0  0  0
  -13.3605   -6.4397    0.0000 H   0  0  0  0  0  0  0  0  0  0  0  0
  -11.9500   -7.7547    0.0000 H   0  0  0  0  0  0  0  0  0  0  0  0
  -13.3713  -11.9087    0.0000 H   0  0  0  0  0  0  0  0  0  0  0  0
  -10.6125  -13.8809    0.0000 H   0  0  0  0  0  0  0  0  0  0  0  0
  -10.7596  -16.6962    0.0000 H   0  0  0  0  0  0  0  0  0  0  0  0
  -10.3261  -14.8172    0.0000 H   0  0  0  0  0  0  0  0  0  0  0  0
  -12.2466  -18.0299    0.0000 H   0  0  0  0  0  0  0  0  0  0  0  0
  -14.0217  -17.2767    0.0000 H   0  0  0  0  0  0  0  0  0  0  0  0
  -13.9576  -15.8010    0.0000 H   0  0  0  0  0  0  0  0  0  0  0  0
  1  2  1  0
  2  3  1  0
  3  4  1  0
  4  5  1  0
  5  6  1  0
  6  7  1  0
  7  8  1  0
  8  9  1  0
  9 10  2  0
  9 11  1  0
 11 12  1  0
 12 13  1  0
 12 14  1  0
 14 15  2  0
 14 16  1  0
 16 17  1  0
 17 18  1  0
 18 19  1  0
 19 20  2  0
 20 21  1  0
 21 22  1  0
 22 23  2  0
 17 24  1  0
 24 25  2  0
 24 26  1  0
 26 27  1  0
 27 28  1  0
 28 29  1  0
 29 30  1  0
 29 31  1  0
 27 32  1  0
 32 33  2  0
 32 34  1  0
 35 34  1  6
 35 36  1  0
 36 37  1  0
 37 38  1  0
 38 39  1  0
 39 40  1  0
 40 41  1  0
 41 42  1  0
 35 43  1  0
 35 44  1  0
 44 45  2  0
 44 46  1  0
 46 47  1  0
 47 48  1  0
 48 49  1  0
 49 50  1  0
 49 51  1  0
 47 52  1  0
 52 53  2  0
 52 54  1  0
 54 55  1  0
 55 56  1  0
 56 57  1  0
 55 58  1  0
 58 59  2  0
 58 60  1  0
 60 61  1  0
 61 62  1  0
 62 63  1  0
 63 64  1  0
 63 65  1  0
 61 66  1  0
 66 67  2  0
 66 68  1  0
 68 69  1  0
 69 70  1  0
 70 71  1  0
 71 72  1  0
 72 73  2  0
 72 74  1  0
 69 75  1  0
 75 76  2  0
 75 77  1  0
 77 78  1  0
 78 79  1  0
 79 80  1  0
 80 81  1  0
 81 82  1  0
 82 83  1  0
 78 84  1  0
 84 85  2  0
 84 86  1  0
 86 87  1  0
 87 88  1  0
 88 89  1  0
 89 90  1  0
 89 91  1  0
 87 92  1  0
 92 93  2  0
 92 94  1  0
 94 95  1  0
 95 96  1  0
 96 97  1  0
 97 98  1  0
 98 99  1  0
 95100  1  0
 95101  1  1
101102  2  0
101103  1  0
103104  1  0
104105  1  0
105106  2  0
105107  1  0
107108  1  0
108109  1  0
109110  1  0
110111  1  0
110112  1  0
108113  1  0
113114  2  0
113115  1  0
115116  1  0
116117  1  0
117118  1  0
116119  1  0
119120  2  0
119121  1  0
 23 19  1  0
 42 99  2  0
  1122  1  0
  1123  1  0
  2124  1  0
  2125  1  0
  3126  1  0
  3127  1  0
  5128  1  0
  5129  1  0
  6130  1  0
  6131  1  0
  8132  1  0
  8133  1  0
 11134  1  0
 12135  1  1
 13136  1  0
 13137  1  0
 13138  1  0
 16139  1  0
 17140  1  1
 18141  1  0
 18142  1  0
 20143  1  0
 21144  1  0
 22145  1  0
 26146  1  0
 27147  1  6
 28148  1  0
 28149  1  0
 29150  1  0
 30151  1  0
 30152  1  0
 30153  1  0
 31154  1  0
 31155  1  0
 31156  1  0
 34157  1  0
 36158  1  0
 36159  1  0
 37160  1  0
 37161  1  0
 38162  1  0
 38163  1  0
 39164  1  0
 39165  1  0
 40166  1  0
 40167  1  0
 41168  1  0
 41169  1  0
 42170  1  0
 43171  1  0
 43172  1  0
 43173  1  0
 46174  1  0
 47175  1  6
 48176  1  0
 48177  1  0
 49178  1  0
 50179  1  0
 50180  1  0
 50181  1  0
 51182  1  0
 51183  1  0
 51184  1  0
 54185  1  0
 55186  1  6
 56187  1  0
 56188  1  0
 57189  1  0
 60190  1  0
 61191  1  6
 62192  1  0
 62193  1  0
 63194  1  0
 64195  1  0
 64196  1  0
 64197  1  0
 65198  1  0
 65199  1  0
 65200  1  0
 68201  1  0
 69202  1  6
 70203  1  0
 70204  1  0
 71205  1  0
 71206  1  0
 77207  1  0
 78208  1  6
 79209  1  0
 79210  1  0
 80211  1  0
 80212  1  0
 81213  1  0
 81214  1  0
 82215  1  0
 82216  1  0
 83217  1  0
 83218  1  0
 83219  1  0
 86220  1  0
 87221  1  6
 88222  1  0
 88223  1  0
 89224  1  0
 90225  1  0
 90226  1  0
 90227  1  0
 91228  1  0
 91229  1  0
 91230  1  0
 94231  1  0
 96232  1  0
 96233  1  0
 97234  1  0
 97235  1  0
 98236  1  0
 98237  1  0
 99238  1  0
100239  1  0
100240  1  0
100241  1  0
103242  1  0
104243  1  0
104244  1  0
107245  1  0
108246  1  6
109247  1  0
109248  1  0
110249  1  0
111250  1  0
111251  1  0
111252  1  0
112253  1  0
112254  1  0
112255  1  0
115256  1  0
116257  1  1
117258  1  0
117259  1  0
118260  1  0
118261  1  0
118262  1  0
M  CHG  3  74  -1  83   1 121  -1
M  END
