
     RDKit          2D

330338  0  0  0  0  0  0  0  0999 V2000
   22.0420   -2.1936    0.0000 C   0  0  0  0  0  0  0  0  0  0  0  0
   23.1334   -1.1646    0.0000 N   0  0  0  0  0  0  0  0  0  0  0  0
   24.5703   -1.5953    0.0000 C   0  0  0  0  0  0  0  0  0  0  0  0
   24.9157   -3.0550    0.0000 C   0  0  0  0  0  0  0  0  0  0  0  0
   26.3525   -3.4857    0.0000 C   0  0  0  0  0  0  0  0  0  0  0  0
   27.4439   -2.4568    0.0000 C   0  0  0  0  0  0  0  0  0  0  0  0
   27.0985   -0.9971    0.0000 C   0  0  0  0  0  0  0  0  0  0  0  0
   25.6617   -0.5664    0.0000 C   0  0  0  0  0  0  0  0  0  0  0  0
   28.3800   -0.2175    0.0000 C   0  0  0  0  0  0  0  0  0  0  0  0
   29.5175   -1.1954    0.0000 O   0  0  0  0  0  0  0  0  0  0  0  0
   28.9389   -2.5793    0.0000 C   0  0  0  0  0  0  0  0  0  0  0  0
   29.7185   -3.8608    0.0000 O   0  0  0  0  0  0  0  0  0  0  0  0
   29.7360    0.4239    0.0000 C   0  0  0  0  0  0  0  0  0  0  0  0
   29.8586    1.9188    0.0000 C   0  0  0  0  0  0  0  0  0  0  0  0
   31.2146    2.5602    0.0000 C   0  0  0  0  0  0  0  0  0  0  0  0
   32.4480    1.7065    0.0000 C   0  0  0  0  0  0  0  0  0  0  0  0
   32.3254    0.2116    0.0000 C   0  0  0  0  0  0  0  0  0  0  0  0
   30.9694   -0.4298    0.0000 C   0  0  0  0  0  0  0  0  0  0  0  0
   33.8039    2.3479    0.0000 O   0  0  0  0  0  0  0  0  0  0  0  0
   28.6252    2.7725    0.0000 O   0  0  0  0  0  0  0  0  0  0  0  0
   27.2692    2.1311    0.0000 C   0  0  0  0  0  0  0  0  0  0  0  0
   27.1466    0.6361    0.0000 C   0  0  0  0  0  0  0  0  0  0  0  0
   25.8478    0.6925    0.0000 C   0  0  0  0  0  0  0  0  0  0  0  0
   25.1900    1.1477    0.0000 C   0  0  0  0  0  0  0  0  0  0  0  0
   25.2554    1.9451    0.0000 C   0  0  0  0  0  0  0  0  0  0  0  0
   25.9786    2.2871    0.0000 C   0  0  0  0  0  0  0  0  0  0  0  0
   23.4464    3.1971    0.0000 O   0  0  0  0  0  0  0  0  0  0  0  0
   22.5628   -3.6003    0.0000 S   0  0  0  0  0  0  0  0  0  0  0  0
   20.6052   -1.7629    0.0000 N   0  0  0  0  0  0  0  0  0  0  0  0
   19.5138   -2.7919    0.0000 C   0  0  0  0  0  0  0  0  0  0  0  0
   18.0769   -2.3612    0.0000 C   0  0  0  0  0  0  0  0  0  0  0  0
   16.9855   -3.3901    0.0000 C   0  0  0  0  0  0  0  0  0  0  0  0
   17.3513   -4.0984    0.0000 O   0  0  0  0  0  0  0  0  0  0  0  0
   15.5487   -2.9594    0.0000 N   0  0  0  0  0  0  0  0  0  0  0  0
   14.4572   -3.9884    0.0000 C   0  0  0  0  0  0  0  0  0  0  0  0
   15.6601   -4.8846    0.0000 C   0  0  0  0  0  0  0  0  0  0  0  0
   17.0376   -4.2909    0.0000 C   0  0  0  0  0  0  0  0  0  0  0  0
   17.3671   -2.8275    0.0000 C   0  0  0  0  0  0  0  0  0  0  0  0
   18.8606   -2.6887    0.0000 N   0  0  0  0  0  0  0  0  0  0  0  0
   19.4543   -4.0662    0.0000 C   0  0  0  0  0  0  0  0  0  0  0  0
   20.8752   -4.5468    0.0000 C   0  0  0  0  0  0  0  0  0  0  0  0
   21.1695   -6.0176    0.0000 C   0  0  0  0  0  0  0  0  0  0  0  0
   20.0428   -7.0079    0.0000 C   0  0  0  0  0  0  0  0  0  0  0  0
   18.6219   -6.5273    0.0000 C   0  0  0  0  0  0  0  0  0  0  0  0
   18.3276   -5.0564    0.0000 C   0  0  0  0  0  0  0  0  0  0  0  0
   13.0797   -4.5820    0.0000 C   0  0  0  0  0  0  0  0  0  0  0  0
   13.2707   -6.0698    0.0000 O   0  0  0  0  0  0  0  0  0  0  0  0
   11.8768   -3.6859    0.0000 N   0  0  0  0  0  0  0  0  0  0  0  0
   10.4993   -4.2795    0.0000 C   0  0  0  0  0  0  0  0  0  0  0  0
   11.3231   -5.5330    0.0000 C   0  0  0  0  0  0  0  0  0  0  0  0
   12.8206   -5.4463    0.0000 C   0  0  0  0  0  0  0  0  0  0  0  0
   13.6444   -6.6999    0.0000 N   0  0  0  0  0  0  0  0  0  0  0  0
   13.7986   -4.3090    0.0000 O   0  0  0  0  0  0  0  0  0  0  0  0
    9.0018   -4.3662    0.0000 C   0  0  0  0  0  0  0  0  0  0  0  0
    8.6725   -5.8296    0.0000 O   0  0  0  0  0  0  0  0  0  0  0  0
    8.1780   -3.1127    0.0000 N   0  0  0  0  0  0  0  0  0  0  0  0
    6.6805   -3.1994    0.0000 C   0  0  0  0  0  0  0  0  0  0  0  0
    7.0259   -4.6590    0.0000 C   0  0  0  0  0  0  0  0  0  0  0  0
    8.4627   -5.0898    0.0000 C   0  0  0  0  0  0  0  0  0  0  0  0
    8.8082   -6.5494    0.0000 C   0  0  0  0  0  0  0  0  0  0  0  0
   10.1818   -7.1521    0.0000 O   0  0  0  0  0  0  0  0  0  0  0  0
    7.7167   -7.5784    0.0000 O   0  0  0  0  0  0  0  0  0  0  0  0
    5.2437   -2.7686    0.0000 C   0  0  0  0  0  0  0  0  0  0  0  0
    4.4337   -4.0311    0.0000 O   0  0  0  0  0  0  0  0  0  0  0  0
    4.8983   -1.3090    0.0000 N   0  0  0  0  0  0  0  0  0  0  0  0
    3.4614   -0.8782    0.0000 C   0  0  0  0  0  0  0  0  0  0  0  0
    3.2868   -2.3680    0.0000 C   0  0  0  0  0  0  0  0  0  0  0  0
    4.4896   -3.2642    0.0000 C   0  0  0  0  0  0  0  0  0  0  0  0
    4.3150   -4.7540    0.0000 C   0  0  0  0  0  0  0  0  0  0  0  0
    5.9265   -3.6949    0.0000 C   0  0  0  0  0  0  0  0  0  0  0  0
    2.2586    0.0179    0.0000 C   0  0  0  0  0  0  0  0  0  0  0  0
    1.0656   -0.8914    0.0000 O   0  0  0  0  0  0  0  0  0  0  0  0
    2.4332    1.5077    0.0000 N   0  0  0  0  0  0  0  0  0  0  0  0
    1.2304    2.4039    0.0000 C   0  0  0  0  0  0  0  0  0  0  0  0
    0.9616    0.9282    0.0000 C   0  0  0  0  0  0  0  0  0  0  0  0
    0.4183   -0.4700    0.0000 C   0  0  0  0  0  0  0  0  0  0  0  0
   -0.3797   -1.7401    0.0000 C   0  0  0  0  0  0  0  0  0  0  0  0
   -1.4037   -2.8363    0.0000 C   0  0  0  0  0  0  0  0  0  0  0  0
   -2.6166   -3.7188    0.0000 C   0  0  0  0  0  0  0  0  0  0  0  0
   -3.9746   -4.3558    0.0000 C   0  0  0  0  0  0  0  0  0  0  0  0
   -5.4286   -4.7244    0.0000 C   0  0  0  0  0  0  0  0  0  0  0  0
    2.5675    3.0837    0.0000 C   0  0  0  0  0  0  0  0  0  0  0  0
    1.2150    3.9038    0.0000 C   0  0  0  0  0  0  0  0  0  0  0  0
    2.6763    4.2423    0.0000 O   0  0  0  0  0  0  0  0  0  0  0  0
    0.9161    5.3737    0.0000 N   0  0  0  0  0  0  0  0  0  0  0  0
    0.3444    6.7605    0.0000 C   0  0  0  0  0  0  0  0  0  0  0  0
    1.1017    8.0553    0.0000 C   0  0  0  0  0  0  0  0  0  0  0  0
    2.6017    8.0468    0.0000 C   0  0  0  0  0  0  0  0  0  0  0  0
    3.3590    9.3416    0.0000 C   0  0  0  0  0  0  0  0  0  0  0  0
    4.8590    9.3331    0.0000 N   0  0  0  0  0  0  0  0  0  0  0  0
    5.6163   10.6279    0.0000 C   0  0  0  0  0  0  0  0  0  0  0  0
    7.1163   10.6195    0.0000 N   0  0  0  0  0  0  0  0  0  0  0  0
    4.8736   11.9312    0.0000 N   0  0  0  0  0  0  0  0  0  0  0  0
   -0.4794    8.0140    0.0000 C   0  0  0  0  0  0  0  0  0  0  0  0
    0.5669    9.0888    0.0000 O   0  0  0  0  0  0  0  0  0  0  0  0
   -1.5256    9.0890    0.0000 N   0  0  0  0  0  0  0  0  0  0  0  0
   -2.7563    9.9465    0.0000 C   0  0  0  0  0  0  0  0  0  0  0  0
   -2.8192   11.4452    0.0000 C   0  0  0  0  0  0  0  0  0  0  0  0
   -1.5528   12.2490    0.0000 O   0  0  0  0  0  0  0  0  0  0  0  0
   -4.1270   10.5557    0.0000 C   0  0  0  0  0  0  0  0  0  0  0  0
   -3.8279   12.0255    0.0000 O   0  0  0  0  0  0  0  0  0  0  0  0
   -5.5883   10.8944    0.0000 N   0  0  0  0  0  0  0  0  0  0  0  0
   -7.0872   10.9504    0.0000 C   0  0  0  0  0  0  0  0  0  0  0  0
   -7.9504   12.1772    0.0000 C   0  0  0  0  0  0  0  0  0  0  0  0
   -7.3196   13.5381    0.0000 C   0  0  0  0  0  0  0  0  0  0  0  0
   -5.8256   13.6722    0.0000 C   0  0  0  0  0  0  0  0  0  0  0  0
   -5.1948   15.0332    0.0000 C   0  0  0  0  0  0  0  0  0  0  0  0
   -6.0580   16.2599    0.0000 C   0  0  0  0  0  0  0  0  0  0  0  0
   -7.5520   16.1257    0.0000 C   0  0  0  0  0  0  0  0  0  0  0  0
   -8.1828   14.7648    0.0000 C   0  0  0  0  0  0  0  0  0  0  0  0
   -8.5697   10.7218    0.0000 C   0  0  0  0  0  0  0  0  0  0  0  0
   -9.1127   12.1200    0.0000 O   0  0  0  0  0  0  0  0  0  0  0  0
   -9.9821   10.2167    0.0000 N   0  0  0  0  0  0  0  0  0  0  0  0
  -11.2734    9.4535    0.0000 C   0  0  0  0  0  0  0  0  0  0  0  0
  -12.6628   10.0188    0.0000 C   0  0  0  0  0  0  0  0  0  0  0  0
  -12.8679   11.5047    0.0000 C   0  0  0  0  0  0  0  0  0  0  0  0
  -14.2573   12.0701    0.0000 C   0  0  0  0  0  0  0  0  0  0  0  0
  -14.4624   13.5560    0.0000 N   0  0  0  0  0  0  0  0  0  0  0  0
  -15.8518   14.1213    0.0000 C   0  0  0  0  0  0  0  0  0  0  0  0
  -16.0569   15.6072    0.0000 N   0  0  0  0  0  0  0  0  0  0  0  0
  -17.0361   13.2007    0.0000 N   0  0  0  0  0  0  0  0  0  0  0  0
  -12.3970    8.4596    0.0000 C   0  0  0  0  0  0  0  0  0  0  0  0
  -13.6097    9.3423    0.0000 O   0  0  0  0  0  0  0  0  0  0  0  0
  -13.3121    7.2711    0.0000 N   0  0  0  0  0  0  0  0  0  0  0  0
  -13.9858    5.9309    0.0000 C   0  0  0  0  0  0  0  0  0  0  0  0
  -15.4602    5.6554    0.0000 C   0  0  0  0  0  0  0  0  0  0  0  0
  -16.4361    6.7945    0.0000 O   0  0  0  0  0  0  0  0  0  0  0  0
  -14.3936    4.4874    0.0000 C   0  0  0  0  0  0  0  0  0  0  0  0
  -15.8911    4.5743    0.0000 O   0  0  0  0  0  0  0  0  0  0  0  0
  -14.5209    2.9928    0.0000 N   0  0  0  0  0  0  0  0  0  0  0  0
  -14.3631    1.5012    0.0000 C   0  0  0  0  0  0  0  0  0  0  0  0
  -15.4545    0.4722    0.0000 C   0  0  0  0  0  0  0  0  0  0  0  0
  -16.8913    0.9029    0.0000 C   0  0  0  0  0  0  0  0  0  0  0  0
  -17.9828   -0.1261    0.0000 C   0  0  0  0  0  0  0  0  0  0  0  0
  -18.0942    1.7991    0.0000 C   0  0  0  0  0  0  0  0  0  0  0  0
  -13.9258    0.0663    0.0000 C   0  0  0  0  0  0  0  0  0  0  0  0
  -15.2325   -0.6701    0.0000 O   0  0  0  0  0  0  0  0  0  0  0  0
  -13.2249   -1.2598    0.0000 N   0  0  0  0  0  0  0  0  0  0  0  0
  -12.2856   -2.4294    0.0000 C   0  0  0  0  0  0  0  0  0  0  0  0
  -11.1420   -3.4000    0.0000 C   0  0  0  0  0  0  0  0  0  0  0  0
   -9.8354   -4.1367    0.0000 C   0  0  0  0  0  0  0  0  0  0  0  0
   -8.4129   -4.6128    0.0000 C   0  0  0  0  0  0  0  0  0  0  0  0
   -6.9261   -4.8110    0.0000 C   0  0  0  0  0  0  0  0  0  0  0  0
  -13.7506   -2.7516    0.0000 C   0  0  0  0  0  0  0  0  0  0  0  0
  -12.6475   -3.8851    0.0000 C   0  0  0  0  0  0  0  0  0  0  0  0
  -11.8518   -5.1566    0.0000 O   0  0  0  0  0  0  0  0  0  0  0  0
  -14.0891   -4.2995    0.0000 N   0  0  0  0  0  0  0  0  0  0  0  0
  -14.4509   -5.7552    0.0000 C   0  0  0  0  0  0  0  0  0  0  0  0
  -14.2931   -7.2469    0.0000 C   0  0  0  0  0  0  0  0  0  0  0  0
  -15.5060   -8.1294    0.0000 C   0  0  0  0  0  0  0  0  0  0  0  0
  -15.3481   -9.6211    0.0000 O   0  0  0  0  0  0  0  0  0  0  0  0
  -16.9834   -7.8701    0.0000 O   0  0  0  0  0  0  0  0  0  0  0  0
  -15.8925   -6.1697    0.0000 C   0  0  0  0  0  0  0  0  0  0  0  0
  -16.9723   -5.1285    0.0000 O   0  0  0  0  0  0  0  0  0  0  0  0
  -16.2544   -7.6254    0.0000 N   0  0  0  0  0  0  0  0  0  0  0  0
  -17.6960   -8.0399    0.0000 C   0  0  0  0  0  0  0  0  0  0  0  0
  -19.1924   -7.9363    0.0000 C   0  0  0  0  0  0  0  0  0  0  0  0
  -20.0303   -9.1804    0.0000 C   0  0  0  0  0  0  0  0  0  0  0  0
  -21.5267   -9.0769    0.0000 C   0  0  0  0  0  0  0  0  0  0  0  0
  -22.5101  -10.2096    0.0000 N   0  0  0  0  0  0  0  0  0  0  0  0
  -22.1852   -7.7291    0.0000 O   0  0  0  0  0  0  0  0  0  0  0  0
  -18.0578   -9.4956    0.0000 C   0  0  0  0  0  0  0  0  0  0  0  0
  -16.9781  -10.5368    0.0000 O   0  0  0  0  0  0  0  0  0  0  0  0
  -19.4994   -9.9100    0.0000 N   0  0  0  0  0  0  0  0  0  0  0  0
  -19.8613  -11.3657    0.0000 C   0  0  0  0  0  0  0  0  0  0  0  0
  -19.7034  -12.8574    0.0000 C   0  0  0  0  0  0  0  0  0  0  0  0
  -20.9164  -13.7400    0.0000 C   0  0  0  0  0  0  0  0  0  0  0  0
  -19.0449  -14.2051    0.0000 C   0  0  0  0  0  0  0  0  0  0  0  0
  -17.5485  -14.3087    0.0000 C   0  0  0  0  0  0  0  0  0  0  0  0
  -21.3029  -11.7802    0.0000 C   0  0  0  0  0  0  0  0  0  0  0  0
  -21.8395  -13.1810    0.0000 O   0  0  0  0  0  0  0  0  0  0  0  0
  -22.5015  -10.8784    0.0000 O   0  0  0  0  0  0  0  0  0  0  0  0
   22.6127    0.2421    0.0000 H   0  0  0  0  0  0  0  0  0  0  0  0
   23.8243   -4.0840    0.0000 H   0  0  0  0  0  0  0  0  0  0  0  0
   26.6979   -4.9454    0.0000 H   0  0  0  0  0  0  0  0  0  0  0  0
   24.9733    0.7664    0.0000 H   0  0  0  0  0  0  0  0  0  0  0  0
   31.3371    4.0552    0.0000 H   0  0  0  0  0  0  0  0  0  0  0  0
   33.5588   -0.6421    0.0000 H   0  0  0  0  0  0  0  0  0  0  0  0
   30.8469   -1.9248    0.0000 H   0  0  0  0  0  0  0  0  0  0  0  0
   35.0374    1.4943    0.0000 H   0  0  0  0  0  0  0  0  0  0  0  0
   25.6681   -1.5002    0.0000 H   0  0  0  0  0  0  0  0  0  0  0  0
   23.1332    0.3772    0.0000 H   0  0  0  0  0  0  0  0  0  0  0  0
   26.1583    4.4797    0.0000 H   0  0  0  0  0  0  0  0  0  0  0  0
   23.5690    4.6920    0.0000 H   0  0  0  0  0  0  0  0  0  0  0  0
   20.2598   -0.3032    0.0000 H   0  0  0  0  0  0  0  0  0  0  0  0
   20.7166   -3.6880    0.0000 H   0  0  0  0  0  0  0  0  0  0  0  0
   19.1844   -4.2553    0.0000 H   0  0  0  0  0  0  0  0  0  0  0  0
   18.7506   -1.0209    0.0000 H   0  0  0  0  0  0  0  0  0  0  0  0
   16.9923   -1.3251    0.0000 H   0  0  0  0  0  0  0  0  0  0  0  0
   15.2033   -1.4997    0.0000 H   0  0  0  0  0  0  0  0  0  0  0  0
   13.6334   -2.7349    0.0000 H   0  0  0  0  0  0  0  0  0  0  0  0
   16.4839   -6.1381    0.0000 H   0  0  0  0  0  0  0  0  0  0  0  0
   14.7023   -6.0389    0.0000 H   0  0  0  0  0  0  0  0  0  0  0  0
   16.2469   -1.8300    0.0000 H   0  0  0  0  0  0  0  0  0  0  0  0
   19.6262   -1.3987    0.0000 H   0  0  0  0  0  0  0  0  0  0  0  0
   22.1142   -3.7012    0.0000 H   0  0  0  0  0  0  0  0  0  0  0  0
   22.5904   -6.4982    0.0000 H   0  0  0  0  0  0  0  0  0  0  0  0
   20.3370   -8.4787    0.0000 H   0  0  0  0  0  0  0  0  0  0  0  0
   17.4952   -7.5176    0.0000 H   0  0  0  0  0  0  0  0  0  0  0  0
   12.0515   -2.1961    0.0000 H   0  0  0  0  0  0  0  0  0  0  0  0
   10.1539   -2.8198    0.0000 H   0  0  0  0  0  0  0  0  0  0  0  0
   11.6685   -6.9927    0.0000 H   0  0  0  0  0  0  0  0  0  0  0  0
   10.0282   -6.2901    0.0000 H   0  0  0  0  0  0  0  0  0  0  0  0
   15.1413   -6.7964    0.0000 H   0  0  0  0  0  0  0  0  0  0  0  0
   12.9708   -8.0401    0.0000 H   0  0  0  0  0  0  0  0  0  0  0  0
    8.8517   -1.7725    0.0000 H   0  0  0  0  0  0  0  0  0  0  0  0
    7.0355   -1.7420    0.0000 H   0  0  0  0  0  0  0  0  0  0  0  0
    6.8512   -6.1488    0.0000 H   0  0  0  0  0  0  0  0  0  0  0  0
    5.5939   -5.1055    0.0000 H   0  0  0  0  0  0  0  0  0  0  0  0
    9.9602   -5.0031    0.0000 H   0  0  0  0  0  0  0  0  0  0  0  0
    8.9927   -3.6865    0.0000 H   0  0  0  0  0  0  0  0  0  0  0  0
    8.0621   -9.0381    0.0000 H   0  0  0  0  0  0  0  0  0  0  0  0
    5.9897   -0.2800    0.0000 H   0  0  0  0  0  0  0  0  0  0  0  0
    4.1351    0.4620    0.0000 H   0  0  0  0  0  0  0  0  0  0  0  0
    2.4547   -3.6161    0.0000 H   0  0  0  0  0  0  0  0  0  0  0  0
    1.8499   -1.9373    0.0000 H   0  0  0  0  0  0  0  0  0  0  0  0
    5.4676   -2.1268    0.0000 H   0  0  0  0  0  0  0  0  0  0  0  0
    5.2652   -5.9146    0.0000 H   0  0  0  0  0  0  0  0  0  0  0  0
    3.6413   -6.0942    0.0000 H   0  0  0  0  0  0  0  0  0  0  0  0
    2.8363   -4.5016    0.0000 H   0  0  0  0  0  0  0  0  0  0  0  0
    6.2719   -5.1546    0.0000 H   0  0  0  0  0  0  0  0  0  0  0  0
    7.4004   -3.9732    0.0000 H   0  0  0  0  0  0  0  0  0  0  0  0
    5.9182   -2.1949    0.0000 H   0  0  0  0  0  0  0  0  0  0  0  0
    3.8728    1.9290    0.0000 H   0  0  0  0  0  0  0  0  0  0  0  0
    2.4606    0.9815    0.0000 H   0  0  0  0  0  0  0  0  0  0  0  0
    1.8305   -0.2945    0.0000 H   0  0  0  0  0  0  0  0  0  0  0  0
    1.8611   -0.8803    0.0000 H   0  0  0  0  0  0  0  0  0  0  0  0
    1.2020   -1.7491    0.0000 H   0  0  0  0  0  0  0  0  0  0  0  0
    1.1127   -1.8911    0.0000 H   0  0  0  0  0  0  0  0  0  0  0  0
    0.3150   -3.0696    0.0000 H   0  0  0  0  0  0  0  0  0  0  0  0
   -0.0300   -3.4389    0.0000 H   0  0  0  0  0  0  0  0  0  0  0  0
   -0.9732   -4.2732    0.0000 H   0  0  0  0  0  0  0  0  0  0  0  0
   -1.3818   -4.5705    0.0000 H   0  0  0  0  0  0  0  0  0  0  0  0
   -2.4658   -5.2112    0.0000 H   0  0  0  0  0  0  0  0  0  0  0  0
   -2.9233   -5.4258    0.0000 H   0  0  0  0  0  0  0  0  0  0  0  0
   -4.2900   -5.8223    0.0000 H   0  0  0  0  0  0  0  0  0  0  0  0
   -5.1999   -6.2068    0.0000 H   0  0  0  0  0  0  0  0  0  0  0  0
    3.9151    2.4250    0.0000 H   0  0  0  0  0  0  0  0  0  0  0  0
    3.7174    4.0468    0.0000 H   0  0  0  0  0  0  0  0  0  0  0  0
    1.9827    4.4650    0.0000 H   0  0  0  0  0  0  0  0  0  0  0  0
    2.3935    5.6328    0.0000 H   0  0  0  0  0  0  0  0  0  0  0  0
    1.8170    6.4753    0.0000 H   0  0  0  0  0  0  0  0  0  0  0  0
    1.3705    9.5310    0.0000 H   0  0  0  0  0  0  0  0  0  0  0  0
   -0.1370    8.9011    0.0000 H   0  0  0  0  0  0  0  0  0  0  0  0
    4.0083    7.5258    0.0000 H   0  0  0  0  0  0  0  0  0  0  0  0
    2.6980    6.5499    0.0000 H   0  0  0  0  0  0  0  0  0  0  0  0
    3.6278   10.8173    0.0000 H   0  0  0  0  0  0  0  0  0  0  0  0
    2.0264   10.0301    0.0000 H   0  0  0  0  0  0  0  0  0  0  0  0
    5.6016    8.0299    0.0000 H   0  0  0  0  0  0  0  0  0  0  0  0
    7.8736   11.9142    0.0000 H   0  0  0  0  0  0  0  0  0  0  0  0
    5.6310   13.2260    0.0000 H   0  0  0  0  0  0  0  0  0  0  0  0
    3.3737   11.9396    0.0000 H   0  0  0  0  0  0  0  0  0  0  0  0
   -0.5549   10.2326    0.0000 H   0  0  0  0  0  0  0  0  0  0  0  0
   -1.4414   10.6684    0.0000 H   0  0  0  0  0  0  0  0  0  0  0  0
   -3.2176   12.8913    0.0000 H   0  0  0  0  0  0  0  0  0  0  0  0
   -4.3186   11.4871    0.0000 H   0  0  0  0  0  0  0  0  0  0  0  0
   -1.6157   13.7477    0.0000 H   0  0  0  0  0  0  0  0  0  0  0  0
   -5.2103   12.3459    0.0000 H   0  0  0  0  0  0  0  0  0  0  0  0
   -6.3714   12.2686    0.0000 H   0  0  0  0  0  0  0  0  0  0  0  0
   -9.0674   13.1783    0.0000 H   0  0  0  0  0  0  0  0  0  0  0  0
   -9.2344   11.4017    0.0000 H   0  0  0  0  0  0  0  0  0  0  0  0
   -4.8193   12.5599    0.0000 H   0  0  0  0  0  0  0  0  0  0  0  0
   -3.7008   15.1673    0.0000 H   0  0  0  0  0  0  0  0  0  0  0  0
   -5.4272   17.6208    0.0000 H   0  0  0  0  0  0  0  0  0  0  0  0
   -8.4152   17.3525    0.0000 H   0  0  0  0  0  0  0  0  0  0  0  0
   -9.6768   14.6307    0.0000 H   0  0  0  0  0  0  0  0  0  0  0  0
  -10.4489   11.6422    0.0000 H   0  0  0  0  0  0  0  0  0  0  0  0
  -11.2007   10.9517    0.0000 H   0  0  0  0  0  0  0  0  0  0  0  0
  -14.1618   10.0749    0.0000 H   0  0  0  0  0  0  0  0  0  0  0  0
  -13.3238    8.6723    0.0000 H   0  0  0  0  0  0  0  0  0  0  0  0
  -12.5524   12.9712    0.0000 H   0  0  0  0  0  0  0  0  0  0  0  0
  -11.3999   11.8130    0.0000 H   0  0  0  0  0  0  0  0  0  0  0  0
  -15.7562   12.1261    0.0000 H   0  0  0  0  0  0  0  0  0  0  0  0
  -14.7492   10.6530    0.0000 H   0  0  0  0  0  0  0  0  0  0  0  0
  -13.2781   14.4765    0.0000 H   0  0  0  0  0  0  0  0  0  0  0  0
  -17.4462   16.1726    0.0000 H   0  0  0  0  0  0  0  0  0  0  0  0
  -18.4254   13.7661    0.0000 H   0  0  0  0  0  0  0  0  0  0  0  0
  -16.8310   11.7148    0.0000 H   0  0  0  0  0  0  0  0  0  0  0  0
  -14.5822    8.0691    0.0000 H   0  0  0  0  0  0  0  0  0  0  0  0
  -14.8874    7.1297    0.0000 H   0  0  0  0  0  0  0  0  0  0  0  0
  -16.8349    5.0552    0.0000 H   0  0  0  0  0  0  0  0  0  0  0  0
  -15.2883    4.1652    0.0000 H   0  0  0  0  0  0  0  0  0  0  0  0
  -17.9106    6.5189    0.0000 H   0  0  0  0  0  0  0  0  0  0  0  0
  -16.0115    3.1605    0.0000 H   0  0  0  0  0  0  0  0  0  0  0  0
  -15.6957    2.1897    0.0000 H   0  0  0  0  0  0  0  0  0  0  0  0
  -16.1282   -0.8680    0.0000 H   0  0  0  0  0  0  0  0  0  0  0  0
  -14.5042   -0.6884    0.0000 H   0  0  0  0  0  0  0  0  0  0  0  0
  -16.5620    2.3663    0.0000 H   0  0  0  0  0  0  0  0  0  0  0  0
  -19.4614    0.1263    0.0000 H   0  0  0  0  0  0  0  0  0  0  0  0
  -18.6564   -1.4663    0.0000 H   0  0  0  0  0  0  0  0  0  0  0  0
  -16.8981   -1.1622    0.0000 H   0  0  0  0  0  0  0  0  0  0  0  0
  -19.5338    1.3778    0.0000 H   0  0  0  0  0  0  0  0  0  0  0  0
  -18.9180    3.0526    0.0000 H   0  0  0  0  0  0  0  0  0  0  0  0
  -17.0028    2.8281    0.0000 H   0  0  0  0  0  0  0  0  0  0  0  0
  -14.5694   -1.9247    0.0000 H   0  0  0  0  0  0  0  0  0  0  0  0
  -11.2218   -4.8979    0.0000 H   0  0  0  0  0  0  0  0  0  0  0  0
  -12.3350   -4.3093    0.0000 H   0  0  0  0  0  0  0  0  0  0  0  0
   -9.8129   -5.6365    0.0000 H   0  0  0  0  0  0  0  0  0  0  0  0
  -10.8347   -5.2553    0.0000 H   0  0  0  0  0  0  0  0  0  0  0  0
   -7.9303   -6.0330    0.0000 H   0  0  0  0  0  0  0  0  0  0  0  0
   -9.3337   -5.7969    0.0000 H   0  0  0  0  0  0  0  0  0  0  0  0
   -6.9821   -6.3100    0.0000 H   0  0  0  0  0  0  0  0  0  0  0  0
  -14.5366   -4.0292    0.0000 H   0  0  0  0  0  0  0  0  0  0  0  0
  -15.2374   -2.5533    0.0000 H   0  0  0  0  0  0  0  0  0  0  0  0
  -14.1743   -1.3126    0.0000 H   0  0  0  0  0  0  0  0  0  0  0  0
  -15.2877   -3.3977    0.0000 H   0  0  0  0  0  0  0  0  0  0  0  0
  -12.9545   -5.8588    0.0000 H   0  0  0  0  0  0  0  0  0  0  0  0
  -13.6346   -8.5946    0.0000 H   0  0  0  0  0  0  0  0  0  0  0  0
  -12.8515   -6.8324    0.0000 H   0  0  0  0  0  0  0  0  0  0  0  0
  -18.1857   -8.1193    0.0000 H   0  0  0  0  0  0  0  0  0  0  0  0
  -15.4587   -8.8970    0.0000 H   0  0  0  0  0  0  0  0  0  0  0  0
  -17.8538   -6.5482    0.0000 H   0  0  0  0  0  0  0  0  0  0  0  0
  -20.5631   -7.3272    0.0000 H   0  0  0  0  0  0  0  0  0  0  0  0
  -18.8305   -6.4806    0.0000 H   0  0  0  0  0  0  0  0  0  0  0  0
  -20.3922  -10.6361    0.0000 H   0  0  0  0  0  0  0  0  0  0  0  0
  -19.1061  -10.3619    0.0000 H   0  0  0  0  0  0  0  0  0  0  0  0
  -23.8611  -10.2174    0.0000 H   0  0  0  0  0  0  0  0  0  0  0  0
  -22.2826  -11.8599    0.0000 H   0  0  0  0  0  0  0  0  0  0  0  0
  -20.7990   -9.1610    0.0000 H   0  0  0  0  0  0  0  0  0  0  0  0
  -18.3649  -11.4693    0.0000 H   0  0  0  0  0  0  0  0  0  0  0  0
  -18.3231  -12.2703    0.0000 H   0  0  0  0  0  0  0  0  0  0  0  0
  -20.9415  -15.2397    0.0000 H   0  0  0  0  0  0  0  0  0  0  0  0
  -22.3580  -14.1544    0.0000 H   0  0  0  0  0  0  0  0  0  0  0  0
  -22.1306  -12.8593    0.0000 H   0  0  0  0  0  0  0  0  0  0  0  0
  -18.8871  -15.6968    0.0000 H   0  0  0  0  0  0  0  0  0  0  0  0
  -20.4253  -14.7923    0.0000 H   0  0  0  0  0  0  0  0  0  0  0  0
  -16.8900  -15.6565    0.0000 H   0  0  0  0  0  0  0  0  0  0  0  0
  -16.1069  -13.8943    0.0000 H   0  0  0  0  0  0  0  0  0  0  0  0
  -17.5234  -12.8089    0.0000 H   0  0  0  0  0  0  0  0  0  0  0  0
  -23.8242  -11.1535    0.0000 H   0  0  0  0  0  0  0  0  0  0  0  0
  1  2  1  0
  2  3  1  0
  3  4  2  0
  4  5  1  0
  5  6  2  0
  6  7  1  0
  7  8  2  0
  7  9  1  0
  9 10  1  0
 10 11  1  0
 11 12  2  0
  9 13  1  0
 13 14  1  0
 14 15  2  0
 15 16  1  0
 16 17  2  0
 17 18  1  0
 16 19  1  0
 14 20  1  0
 20 21  1  0
 21 22  2  0
 22 23  1  0
 23 24  2  0
 24 25  1  0
 25 26  2  0
 25 27  1  0
  1 28  2  0
  1 29  1  0
 29 30  1  0
 30 31  1  0
 31 32  1  0
 32 33  2  0
 32 34  1  0
 34 35  1  0
 35 36  1  0
 36 37  1  0
 37 38  2  0
 38 39  1  0
 39 40  1  0
 40 41  2  0
 41 42  1  0
 42 43  2  0
 43 44  1  0
 44 45  2  0
 35 46  1  0
 46 47  2  0
 46 48  1  0
 48 49  1  0
 49 50  1  0
 50 51  1  0
 51 52  1  0
 51 53  2  0
 49 54  1  0
 54 55  2  0
 54 56  1  0
 56 57  1  0
 57 58  1  0
 58 59  1  0
 59 60  1  0
 60 61  2  0
 60 62  1  0
 57 63  1  0
 63 64  2  0
 63 65  1  0
 65 66  1  0
 66 67  1  0
 67 68  1  0
 68 69  1  0
 68 70  1  0
 66 71  1  0
 71 72  2  0
 71 73  1  0
 74 73  1  6
 74 75  1  0
 75 76  1  0
 76 77  1  0
 77 78  1  0
 78 79  1  0
 79 80  1  0
 80 81  1  0
 74 82  1  0
 74 83  1  0
 83 84  2  0
 83 85  1  0
 85 86  1  0
 86 87  1  0
 87 88  1  0
 88 89  1  0
 89 90  1  0
 90 91  1  0
 91 92  2  3
 91 93  1  0
 86 94  1  0
 94 95  2  0
 94 96  1  0
 96 97  1  0
 97 98  1  0
 98 99  1  0
 97100  1  0
100101  2  0
100102  1  0
102103  1  0
103104  1  0
104105  1  0
105106  2  0
106107  1  0
107108  2  0
108109  1  0
109110  2  0
103111  1  0
111112  2  0
111113  1  0
113114  1  0
114115  1  0
115116  1  0
116117  1  0
117118  1  0
118119  1  0
119120  2  3
119121  1  0
114122  1  0
122123  2  0
122124  1  0
124125  1  0
125126  1  0
126127  1  0
125128  1  0
128129  2  0
128130  1  0
130131  1  0
131132  1  0
132133  1  0
133134  1  0
133135  1  0
131136  1  0
136137  2  0
136138  1  0
138139  1  0
139140  1  0
140141  1  0
141142  1  0
142143  1  0
139144  1  0
139145  1  1
145146  2  0
145147  1  0
147148  1  0
148149  1  0
149150  1  0
150151  2  0
150152  1  0
148153  1  0
153154  2  0
153155  1  0
155156  1  0
156157  1  0
157158  1  0
158159  1  0
159160  1  0
159161  2  0
156162  1  0
162163  2  0
162164  1  0
164165  1  0
165166  1  0
166167  1  0
166168  1  0
168169  1  0
165170  1  0
170171  2  0
170172  1  0
  8  3  1  0
 45 37  1  0
110105  1  0
 11  6  1  0
 45 40  1  0
 81143  2  0
 18 13  2  0
 22  9  1  0
 26 21  1  0
  2173  1  0
  4174  1  0
  5175  1  0
  8176  1  0
 15177  1  0
 17178  1  0
 18179  1  0
 19180  1  0
 23181  1  0
 24182  1  0
 26183  1  0
 27184  1  0
 29185  1  0
 30186  1  0
 30187  1  0
 31188  1  0
 31189  1  0
 34190  1  0
 35191  1  1
 36192  1  0
 36193  1  0
 38194  1  0
 39195  1  0
 41196  1  0
 42197  1  0
 43198  1  0
 44199  1  0
 48200  1  0
 49201  1  1
 50202  1  0
 50203  1  0
 52204  1  0
 52205  1  0
 56206  1  0
 57207  1  1
 58208  1  0
 58209  1  0
 59210  1  0
 59211  1  0
 62212  1  0
 65213  1  0
 66214  1  1
 67215  1  0
 67216  1  0
 68217  1  0
 69218  1  0
 69219  1  0
 69220  1  0
 70221  1  0
 70222  1  0
 70223  1  0
 73224  1  0
 75225  1  0
 75226  1  0
 76227  1  0
 76228  1  0
 77229  1  0
 77230  1  0
 78231  1  0
 78232  1  0
 79233  1  0
 79234  1  0
 80235  1  0
 80236  1  0
 81237  1  0
 82238  1  0
 82239  1  0
 82240  1  0
 85241  1  0
 86242  1  6
 87243  1  0
 87244  1  0
 88245  1  0
 88246  1  0
 89247  1  0
 89248  1  0
 90249  1  0
 92250  1  0
 93251  1  0
 93252  1  0
 96253  1  0
 97254  1  6
 98255  1  0
 98256  1  0
 99257  1  0
102258  1  0
103259  1  6
104260  1  0
104261  1  0
106262  1  0
107263  1  0
108264  1  0
109265  1  0
110266  1  0
113267  1  0
114268  1  6
115269  1  0
115270  1  0
116271  1  0
116272  1  0
117273  1  0
117274  1  0
118275  1  0
120276  1  0
121277  1  0
121278  1  0
124279  1  0
125280  1  6
126281  1  0
126282  1  0
127283  1  0
130284  1  0
131285  1  6
132286  1  0
132287  1  0
133288  1  0
134289  1  0
134290  1  0
134291  1  0
135292  1  0
135293  1  0
135294  1  0
138295  1  0
140296  1  0
140297  1  0
141298  1  0
141299  1  0
142300  1  0
142301  1  0
143302  1  0
144303  1  0
144304  1  0
144305  1  0
147306  1  0
148307  1  1
149308  1  0
149309  1  0
152310  1  0
155311  1  0
156312  1  6
157313  1  0
157314  1  0
158315  1  0
158316  1  0
160317  1  0
160318  1  0
164319  1  0
165320  1  1
166321  1  1
167322  1  0
167323  1  0
167324  1  0
168325  1  0
168326  1  0
169327  1  0
169328  1  0
169329  1  0
172330  1  0
M  END
