
     RDKit          2D

397404  0  0  0  0  0  0  0  0999 V2000
  -23.8189   -6.0288    0.0000 C   0  0  0  0  0  0  0  0  0  0  0  0
  -23.5547   -7.5054    0.0000 N   0  0  0  0  0  0  0  0  0  0  0  0
  -24.7014   -8.4724    0.0000 C   0  0  0  0  0  0  0  0  0  0  0  0
  -26.1122   -7.9629    0.0000 C   0  0  0  0  0  0  0  0  0  0  0  0
  -27.2589   -8.9299    0.0000 C   0  0  0  0  0  0  0  0  0  0  0  0
  -26.9947  -10.4065    0.0000 C   0  0  0  0  0  0  0  0  0  0  0  0
  -25.5839  -10.9160    0.0000 C   0  0  0  0  0  0  0  0  0  0  0  0
  -24.4372   -9.9490    0.0000 C   0  0  0  0  0  0  0  0  0  0  0  0
  -25.6325  -12.4152    0.0000 C   0  0  0  0  0  0  0  0  0  0  0  0
  -27.0733  -12.8323    0.0000 O   0  0  0  0  0  0  0  0  0  0  0  0
  -27.9152  -11.5908    0.0000 C   0  0  0  0  0  0  0  0  0  0  0  0
  -29.4144  -11.5422    0.0000 O   0  0  0  0  0  0  0  0  0  0  0  0
  -25.8375  -13.9011    0.0000 C   0  0  0  0  0  0  0  0  0  0  0  0
  -24.6532  -14.8217    0.0000 C   0  0  0  0  0  0  0  0  0  0  0  0
  -24.8583  -16.3076    0.0000 C   0  0  0  0  0  0  0  0  0  0  0  0
  -26.2477  -16.8730    0.0000 C   0  0  0  0  0  0  0  0  0  0  0  0
  -27.4320  -15.9524    0.0000 C   0  0  0  0  0  0  0  0  0  0  0  0
  -27.2269  -14.4665    0.0000 C   0  0  0  0  0  0  0  0  0  0  0  0
  -26.4527  -18.3589    0.0000 O   0  0  0  0  0  0  0  0  0  0  0  0
  -23.2639  -14.2563    0.0000 O   0  0  0  0  0  0  0  0  0  0  0  0
  -23.0588  -12.7704    0.0000 C   0  0  0  0  0  0  0  0  0  0  0  0
  -24.2431  -11.8499    0.0000 C   0  0  0  0  0  0  0  0  0  0  0  0
  -23.4854  -10.7935    0.0000 C   0  0  0  0  0  0  0  0  0  0  0  0
  -22.7444  -10.4920    0.0000 C   0  0  0  0  0  0  0  0  0  0  0  0
  -22.1128  -10.9829    0.0000 C   0  0  0  0  0  0  0  0  0  0  0  0
  -22.2221  -11.7754    0.0000 C   0  0  0  0  0  0  0  0  0  0  0  0
  -20.0750  -10.1537    0.0000 O   0  0  0  0  0  0  0  0  0  0  0  0
  -25.2297   -5.5193    0.0000 S   0  0  0  0  0  0  0  0  0  0  0  0
  -22.6722   -5.0618    0.0000 N   0  0  0  0  0  0  0  0  0  0  0  0
  -22.9364   -3.5852    0.0000 C   0  0  0  0  0  0  0  0  0  0  0  0
  -21.7897   -2.6182    0.0000 C   0  0  0  0  0  0  0  0  0  0  0  0
  -22.0539   -1.1416    0.0000 C   0  0  0  0  0  0  0  0  0  0  0  0
  -22.8311   -0.9642    0.0000 O   0  0  0  0  0  0  0  0  0  0  0  0
  -20.9072   -0.1746    0.0000 N   0  0  0  0  0  0  0  0  0  0  0  0
  -21.1714    1.3020    0.0000 C   0  0  0  0  0  0  0  0  0  0  0  0
  -22.5796    0.7854    0.0000 C   0  0  0  0  0  0  0  0  0  0  0  0
  -24.0796    0.7817    0.0000 O   0  0  0  0  0  0  0  0  0  0  0  0
  -23.0146   -0.6501    0.0000 C   0  0  0  0  0  0  0  0  0  0  0  0
  -20.9146    2.7798    0.0000 C   0  0  0  0  0  0  0  0  0  0  0  0
  -22.2644    3.4340    0.0000 O   0  0  0  0  0  0  0  0  0  0  0  0
  -19.5063    3.2964    0.0000 N   0  0  0  0  0  0  0  0  0  0  0  0
  -19.2495    4.7742    0.0000 C   0  0  0  0  0  0  0  0  0  0  0  0
  -20.7495    4.7705    0.0000 C   0  0  0  0  0  0  0  0  0  0  0  0
  -21.4963    3.4696    0.0000 C   0  0  0  0  0  0  0  0  0  0  0  0
  -22.9963    3.4659    0.0000 C   0  0  0  0  0  0  0  0  0  0  0  0
  -23.7430    2.1650    0.0000 N   0  0  0  0  0  0  0  0  0  0  0  0
  -25.2430    2.1612    0.0000 C   0  0  0  0  0  0  0  0  0  0  0  0
  -25.9898    0.8603    0.0000 N   0  0  0  0  0  0  0  0  0  0  0  0
  -25.9963    3.4584    0.0000 N   0  0  0  0  0  0  0  0  0  0  0  0
  -18.5028    6.0752    0.0000 C   0  0  0  0  0  0  0  0  0  0  0  0
  -19.5475    7.1515    0.0000 O   0  0  0  0  0  0  0  0  0  0  0  0
  -17.0028    6.0789    0.0000 N   0  0  0  0  0  0  0  0  0  0  0  0
  -16.2560    7.3798    0.0000 C   0  0  0  0  0  0  0  0  0  0  0  0
  -17.6668    7.8893    0.0000 C   0  0  0  0  0  0  0  0  0  0  0  0
  -18.8135    6.9223    0.0000 C   0  0  0  0  0  0  0  0  0  0  0  0
  -20.2243    7.4318    0.0000 C   0  0  0  0  0  0  0  0  0  0  0  0
  -21.4803    6.6117    0.0000 N   0  0  0  0  0  0  0  0  0  0  0  0
  -20.4885    8.9083    0.0000 O   0  0  0  0  0  0  0  0  0  0  0  0
  -15.1094    8.3468    0.0000 C   0  0  0  0  0  0  0  0  0  0  0  0
  -15.5515    9.7802    0.0000 O   0  0  0  0  0  0  0  0  0  0  0  0
  -13.6986    7.8373    0.0000 N   0  0  0  0  0  0  0  0  0  0  0  0
  -12.5519    8.8044    0.0000 C   0  0  0  0  0  0  0  0  0  0  0  0
  -13.8120    9.6182    0.0000 C   0  0  0  0  0  0  0  0  0  0  0  0
  -11.1436    9.3209    0.0000 C   0  0  0  0  0  0  0  0  0  0  0  0
  -11.2521   10.8170    0.0000 O   0  0  0  0  0  0  0  0  0  0  0  0
   -9.9922    8.3596    0.0000 N   0  0  0  0  0  0  0  0  0  0  0  0
   -8.5839    8.8761    0.0000 C   0  0  0  0  0  0  0  0  0  0  0  0
   -9.3372   10.1733    0.0000 C   0  0  0  0  0  0  0  0  0  0  0  0
  -10.8372   10.1696    0.0000 C   0  0  0  0  0  0  0  0  0  0  0  0
  -11.5904   11.4667    0.0000 C   0  0  0  0  0  0  0  0  0  0  0  0
  -13.0904   11.4630    0.0000 N   0  0  0  0  0  0  0  0  0  0  0  0
  -13.8436   12.7602    0.0000 C   0  0  0  0  0  0  0  0  0  0  0  0
  -15.3436   12.7564    0.0000 N   0  0  0  0  0  0  0  0  0  0  0  0
  -13.0969   14.0611    0.0000 N   0  0  0  0  0  0  0  0  0  0  0  0
   -7.0839    8.8799    0.0000 C   0  0  0  0  0  0  0  0  0  0  0  0
   -6.6741   10.3228    0.0000 O   0  0  0  0  0  0  0  0  0  0  0  0
   -6.3307    7.5827    0.0000 N   0  0  0  0  0  0  0  0  0  0  0  0
   -4.8307    7.5865    0.0000 C   0  0  0  0  0  0  0  0  0  0  0  0
   -5.0948    9.0630    0.0000 C   0  0  0  0  0  0  0  0  0  0  0  0
   -6.5057    9.5725    0.0000 C   0  0  0  0  0  0  0  0  0  0  0  0
   -6.7698   11.0491    0.0000 C   0  0  0  0  0  0  0  0  0  0  0  0
   -8.1806   11.5586    0.0000 N   0  0  0  0  0  0  0  0  0  0  0  0
   -8.4448   13.0352    0.0000 C   0  0  0  0  0  0  0  0  0  0  0  0
   -9.8556   13.5447    0.0000 N   0  0  0  0  0  0  0  0  0  0  0  0
   -7.2981   14.0022    0.0000 N   0  0  0  0  0  0  0  0  0  0  0  0
   -3.4199    7.0770    0.0000 C   0  0  0  0  0  0  0  0  0  0  0  0
   -2.5413    8.2927    0.0000 O   0  0  0  0  0  0  0  0  0  0  0  0
   -3.1557    5.6004    0.0000 N   0  0  0  0  0  0  0  0  0  0  0  0
   -1.7449    5.0909    0.0000 C   0  0  0  0  0  0  0  0  0  0  0  0
   -1.4881    6.5687    0.0000 C   0  0  0  0  0  0  0  0  0  0  0  0
   -2.6396    7.5301    0.0000 C   0  0  0  0  0  0  0  0  0  0  0  0
   -2.3828    9.0079    0.0000 N   0  0  0  0  0  0  0  0  0  0  0  0
   -4.1310    7.3696    0.0000 O   0  0  0  0  0  0  0  0  0  0  0  0
   -0.5934    4.1296    0.0000 C   0  0  0  0  0  0  0  0  0  0  0  0
    0.5361    5.1166    0.0000 O   0  0  0  0  0  0  0  0  0  0  0  0
   -0.8502    2.6517    0.0000 N   0  0  0  0  0  0  0  0  0  0  0  0
    0.3012    1.6904    0.0000 C   0  0  0  0  0  0  0  0  0  0  0  0
    0.6808    3.1416    0.0000 C   0  0  0  0  0  0  0  0  0  0  0  0
    1.4093    4.4528    0.0000 C   0  0  0  0  0  0  0  0  0  0  0  0
    2.4410    5.5416    0.0000 C   0  0  0  0  0  0  0  0  0  0  0  0
    3.7111    6.3397    0.0000 C   0  0  0  0  0  0  0  0  0  0  0  0
    5.1398    6.7968    0.0000 C   0  0  0  0  0  0  0  0  0  0  0  0
    6.6372    6.8843    0.0000 C   0  0  0  0  0  0  0  0  0  0  0  0
    8.1094    6.5966    0.0000 C   0  0  0  0  0  0  0  0  0  0  0  0
   -1.0589    1.0578    0.0000 C   0  0  0  0  0  0  0  0  0  0  0  0
    0.2945    0.1904    0.0000 C   0  0  0  0  0  0  0  0  0  0  0  0
   -1.1945    0.0091    0.0000 O   0  0  0  0  0  0  0  0  0  0  0  0
    0.6610   -1.2641    0.0000 N   0  0  0  0  0  0  0  0  0  0  0  0
    1.3777   -2.5818    0.0000 C   0  0  0  0  0  0  0  0  0  0  0  0
    0.8193   -3.9740    0.0000 C   0  0  0  0  0  0  0  0  0  0  0  0
   -0.6656   -4.1864    0.0000 C   0  0  0  0  0  0  0  0  0  0  0  0
   -1.2240   -5.5786    0.0000 C   0  0  0  0  0  0  0  0  0  0  0  0
   -2.7089   -5.7911    0.0000 N   0  0  0  0  0  0  0  0  0  0  0  0
   -3.2673   -7.1833    0.0000 C   0  0  0  0  0  0  0  0  0  0  0  0
   -4.7522   -7.3957    0.0000 N   0  0  0  0  0  0  0  0  0  0  0  0
   -2.3409   -8.3630    0.0000 N   0  0  0  0  0  0  0  0  0  0  0  0
    2.3997   -3.6799    0.0000 C   0  0  0  0  0  0  0  0  0  0  0  0
    1.4383   -4.8313    0.0000 O   0  0  0  0  0  0  0  0  0  0  0  0
    3.6625   -4.4893    0.0000 N   0  0  0  0  0  0  0  0  0  0  0  0
    5.0870   -4.9592    0.0000 C   0  0  0  0  0  0  0  0  0  0  0  0
    5.6329   -6.3563    0.0000 C   0  0  0  0  0  0  0  0  0  0  0  0
    4.6959   -7.5277    0.0000 C   0  0  0  0  0  0  0  0  0  0  0  0
    5.2419   -8.9248    0.0000 C   0  0  0  0  0  0  0  0  0  0  0  0
    4.3049  -10.0961    0.0000 N   0  0  0  0  0  0  0  0  0  0  0  0
    4.8508  -11.4933    0.0000 C   0  0  0  0  0  0  0  0  0  0  0  0
    3.9138  -12.6646    0.0000 N   0  0  0  0  0  0  0  0  0  0  0  0
    6.3337  -11.7191    0.0000 N   0  0  0  0  0  0  0  0  0  0  0  0
    6.5836   -5.0601    0.0000 C   0  0  0  0  0  0  0  0  0  0  0  0
    6.6711   -6.5575    0.0000 O   0  0  0  0  0  0  0  0  0  0  0  0
    8.0583   -4.7856    0.0000 N   0  0  0  0  0  0  0  0  0  0  0  0
    9.4184   -4.1531    0.0000 C   0  0  0  0  0  0  0  0  0  0  0  0
   10.7727   -4.7978    0.0000 C   0  0  0  0  0  0  0  0  0  0  0  0
   10.8916   -6.2931    0.0000 C   0  0  0  0  0  0  0  0  0  0  0  0
   12.2459   -6.9379    0.0000 C   0  0  0  0  0  0  0  0  0  0  0  0
   12.3647   -8.4331    0.0000 N   0  0  0  0  0  0  0  0  0  0  0  0
   13.7191   -9.0779    0.0000 C   0  0  0  0  0  0  0  0  0  0  0  0
   14.3660  -10.4312    0.0000 N   0  0  0  0  0  0  0  0  0  0  0  0
   15.0491   -8.3843    0.0000 N   0  0  0  0  0  0  0  0  0  0  0  0
   10.5784   -3.2021    0.0000 C   0  0  0  0  0  0  0  0  0  0  0  0
   11.5334   -4.3589    0.0000 O   0  0  0  0  0  0  0  0  0  0  0  0
   11.4655   -1.9926    0.0000 N   0  0  0  0  0  0  0  0  0  0  0  0
   12.0240   -0.6004    0.0000 C   0  0  0  0  0  0  0  0  0  0  0  0
   12.2084    0.8882    0.0000 C   0  0  0  0  0  0  0  0  0  0  0  0
   12.9180    2.2097    0.0000 C   0  0  0  0  0  0  0  0  0  0  0  0
   11.4181    2.1944    0.0000 C   0  0  0  0  0  0  0  0  0  0  0  0
   10.2592    3.1467    0.0000 N   0  0  0  0  0  0  0  0  0  0  0  0
    9.9837    4.6212    0.0000 C   0  0  0  0  0  0  0  0  0  0  0  0
   10.7203    5.9279    0.0000 C   0  0  0  0  0  0  0  0  0  0  0  0
   12.1245    6.4553    0.0000 C   0  0  0  0  0  0  0  0  0  0  0  0
   13.5393    5.9567    0.0000 C   0  0  0  0  0  0  0  0  0  0  0  0
   14.3025    4.6654    0.0000 C   0  0  0  0  0  0  0  0  0  0  0  0
   14.0572    3.1856    0.0000 C   0  0  0  0  0  0  0  0  0  0  0  0
   12.3898   -2.0551    0.0000 C   0  0  0  0  0  0  0  0  0  0  0  0
   11.3424   -3.1288    0.0000 O   0  0  0  0  0  0  0  0  0  0  0  0
   13.2564   -3.2794    0.0000 N   0  0  0  0  0  0  0  0  0  0  0  0
   14.5068   -4.1080    0.0000 C   0  0  0  0  0  0  0  0  0  0  0  0
   14.7824   -5.5825    0.0000 C   0  0  0  0  0  0  0  0  0  0  0  0
   13.6433   -6.5584    0.0000 C   0  0  0  0  0  0  0  0  0  0  0  0
   13.9188   -8.0328    0.0000 C   0  0  0  0  0  0  0  0  0  0  0  0
   12.7797   -9.0087    0.0000 N   0  0  0  0  0  0  0  0  0  0  0  0
   13.0553  -10.4832    0.0000 C   0  0  0  0  0  0  0  0  0  0  0  0
   11.9162  -11.4591    0.0000 N   0  0  0  0  0  0  0  0  0  0  0  0
   14.3073  -11.3093    0.0000 N   0  0  0  0  0  0  0  0  0  0  0  0
   15.9721   -4.4289    0.0000 C   0  0  0  0  0  0  0  0  0  0  0  0
   15.9258   -5.9282    0.0000 O   0  0  0  0  0  0  0  0  0  0  0  0
   17.4543   -4.1989    0.0000 N   0  0  0  0  0  0  0  0  0  0  0  0
   18.7534   -3.4489    0.0000 C   0  0  0  0  0  0  0  0  0  0  0  0
   20.1961   -3.8595    0.0000 C   0  0  0  0  0  0  0  0  0  0  0  0
   20.5620   -5.3142    0.0000 C   0  0  0  0  0  0  0  0  0  0  0  0
   22.0047   -5.7247    0.0000 C   0  0  0  0  0  0  0  0  0  0  0  0
   22.3705   -7.1794    0.0000 O   0  0  0  0  0  0  0  0  0  0  0  0
   23.0816   -4.6806    0.0000 O   0  0  0  0  0  0  0  0  0  0  0  0
   19.6938   -2.2804    0.0000 C   0  0  0  0  0  0  0  0  0  0  0  0
   21.0153   -2.9900    0.0000 O   0  0  0  0  0  0  0  0  0  0  0  0
   20.1486   -0.8510    0.0000 N   0  0  0  0  0  0  0  0  0  0  0  0
   20.0563    0.6462    0.0000 C   0  0  0  0  0  0  0  0  0  0  0  0
   19.4294    2.0089    0.0000 C   0  0  0  0  0  0  0  0  0  0  0  0
   18.3526    3.0532    0.0000 C   0  0  0  0  0  0  0  0  0  0  0  0
   16.9712    3.6379    0.0000 C   0  0  0  0  0  0  0  0  0  0  0  0
   15.4719    3.6841    0.0000 C   0  0  0  0  0  0  0  0  0  0  0  0
   21.4710    0.1476    0.0000 C   0  0  0  0  0  0  0  0  0  0  0  0
   21.0669    1.7547    0.0000 C   0  0  0  0  0  0  0  0  0  0  0  0
   20.7898    3.2289    0.0000 O   0  0  0  0  0  0  0  0  0  0  0  0
   22.5321    1.4337    0.0000 N   0  0  0  0  0  0  0  0  0  0  0  0
   23.5427    2.5422    0.0000 C   0  0  0  0  0  0  0  0  0  0  0  0
   24.1132    3.9295    0.0000 C   0  0  0  0  0  0  0  0  0  0  0  0
   25.5999    4.1291    0.0000 C   0  0  0  0  0  0  0  0  0  0  0  0
   26.1704    5.5163    0.0000 C   0  0  0  0  0  0  0  0  0  0  0  0
   27.6216    5.8956    0.0000 N   0  0  0  0  0  0  0  0  0  0  0  0
   25.2542    6.7040    0.0000 O   0  0  0  0  0  0  0  0  0  0  0  0
   25.0080    2.2213    0.0000 C   0  0  0  0  0  0  0  0  0  0  0  0
   25.4627    0.7919    0.0000 O   0  0  0  0  0  0  0  0  0  0  0  0
   26.0185    3.3298    0.0000 N   0  0  0  0  0  0  0  0  0  0  0  0
   27.4838    3.0088    0.0000 C   0  0  0  0  0  0  0  0  0  0  0  0
   28.7509    2.2061    0.0000 C   0  0  0  0  0  0  0  0  0  0  0  0
   28.6893    0.7074    0.0000 C   0  0  0  0  0  0  0  0  0  0  0  0
   29.9564   -0.0954    0.0000 C   0  0  0  0  0  0  0  0  0  0  0  0
   29.8948   -1.5941    0.0000 N   0  0  0  0  0  0  0  0  0  0  0  0
   31.1619   -2.3968    0.0000 C   0  0  0  0  0  0  0  0  0  0  0  0
   31.1003   -3.8956    0.0000 N   0  0  0  0  0  0  0  0  0  0  0  0
   32.4907   -1.7009    0.0000 N   0  0  0  0  0  0  0  0  0  0  0  0
   28.4944    4.1173    0.0000 C   0  0  0  0  0  0  0  0  0  0  0  0
   29.9878    3.9774    0.0000 O   0  0  0  0  0  0  0  0  0  0  0  0
   28.2173    5.5915    0.0000 O   0  0  0  0  0  0  0  0  0  0  0  0
  -22.0923   -7.8391    0.0000 H   0  0  0  0  0  0  0  0  0  0  0  0
  -26.3763   -6.4863    0.0000 H   0  0  0  0  0  0  0  0  0  0  0  0
  -28.6697   -8.4204    0.0000 H   0  0  0  0  0  0  0  0  0  0  0  0
  -22.9450  -10.1020    0.0000 H   0  0  0  0  0  0  0  0  0  0  0  0
  -23.6740  -17.2281    0.0000 H   0  0  0  0  0  0  0  0  0  0  0  0
  -28.8213  -16.5178    0.0000 H   0  0  0  0  0  0  0  0  0  0  0  0
  -28.4112  -13.5460    0.0000 H   0  0  0  0  0  0  0  0  0  0  0  0
  -27.8421  -18.9243    0.0000 H   0  0  0  0  0  0  0  0  0  0  0  0
  -25.2224   -9.4434    0.0000 H   0  0  0  0  0  0  0  0  0  0  0  0
  -22.2640   -8.3487    0.0000 H   0  0  0  0  0  0  0  0  0  0  0  0
  -20.4851  -13.1256    0.0000 H   0  0  0  0  0  0  0  0  0  0  0  0
  -18.8907  -11.0743    0.0000 H   0  0  0  0  0  0  0  0  0  0  0  0
  -21.2614   -5.5713    0.0000 H   0  0  0  0  0  0  0  0  0  0  0  0
  -24.3446   -4.1018    0.0000 H   0  0  0  0  0  0  0  0  0  0  0  0
  -23.6896   -2.2881    0.0000 H   0  0  0  0  0  0  0  0  0  0  0  0
  -21.0365   -3.9153    0.0000 H   0  0  0  0  0  0  0  0  0  0  0  0
  -20.3815   -2.1016    0.0000 H   0  0  0  0  0  0  0  0  0  0  0  0
  -19.4964   -0.6841    0.0000 H   0  0  0  0  0  0  0  0  0  0  0  0
  -19.6714    1.3057    0.0000 H   0  0  0  0  0  0  0  0  0  0  0  0
  -23.1932    2.1542    0.0000 H   0  0  0  0  0  0  0  0  0  0  0  0
  -24.9794   -0.4185    0.0000 H   0  0  0  0  0  0  0  0  0  0  0  0
  -24.1674   -1.3547    0.0000 H   0  0  0  0  0  0  0  0  0  0  0  0
  -22.5723   -2.1690    0.0000 H   0  0  0  0  0  0  0  0  0  0  0  0
  -21.3956   -1.0936    0.0000 H   0  0  0  0  0  0  0  0  0  0  0  0
  -18.3549    2.3351    0.0000 H   0  0  0  0  0  0  0  0  0  0  0  0
  -17.8387    4.2647    0.0000 H   0  0  0  0  0  0  0  0  0  0  0  0
  -22.0877    5.4482    0.0000 H   0  0  0  0  0  0  0  0  0  0  0  0
  -20.6748    6.2686    0.0000 H   0  0  0  0  0  0  0  0  0  0  0  0
  -21.7531    1.9917    0.0000 H   0  0  0  0  0  0  0  0  0  0  0  0
  -20.2507    2.6338    0.0000 H   0  0  0  0  0  0  0  0  0  0  0  0
  -24.4071    3.9754    0.0000 H   0  0  0  0  0  0  0  0  0  0  0  0
  -22.9216    4.9640    0.0000 H   0  0  0  0  0  0  0  0  0  0  0  0
  -23.3261    0.7241    0.0000 H   0  0  0  0  0  0  0  0  0  0  0  0
  -27.4898    0.8566    0.0000 H   0  0  0  0  0  0  0  0  0  0  0  0
  -27.4963    3.4546    0.0000 H   0  0  0  0  0  0  0  0  0  0  0  0
  -25.2495    4.7593    0.0000 H   0  0  0  0  0  0  0  0  0  0  0  0
  -16.2495    4.7817    0.0000 H   0  0  0  0  0  0  0  0  0  0  0  0
  -15.1046    6.4185    0.0000 H   0  0  0  0  0  0  0  0  0  0  0  0
  -18.8183    8.8506    0.0000 H   0  0  0  0  0  0  0  0  0  0  0  0
  -16.9201    9.1902    0.0000 H   0  0  0  0  0  0  0  0  0  0  0  0
  -19.5603    5.6214    0.0000 H   0  0  0  0  0  0  0  0  0  0  0  0
  -17.9289    5.7109    0.0000 H   0  0  0  0  0  0  0  0  0  0  0  0
  -22.7818    6.9742    0.0000 H   0  0  0  0  0  0  0  0  0  0  0  0
  -21.5108    4.9461    0.0000 H   0  0  0  0  0  0  0  0  0  0  0  0
  -13.4344    6.3608    0.0000 H   0  0  0  0  0  0  0  0  0  0  0  0
  -11.7987    7.5072    0.0000 H   0  0  0  0  0  0  0  0  0  0  0  0
  -15.1641    9.4247    0.0000 H   0  0  0  0  0  0  0  0  0  0  0  0
  -14.4566   11.0628    0.0000 H   0  0  0  0  0  0  0  0  0  0  0  0
  -12.8248   10.9815    0.0000 H   0  0  0  0  0  0  0  0  0  0  0  0
  -10.2490    6.8817    0.0000 H   0  0  0  0  0  0  0  0  0  0  0  0
   -8.3198    7.3996    0.0000 H   0  0  0  0  0  0  0  0  0  0  0  0
   -9.4194   11.6711    0.0000 H   0  0  0  0  0  0  0  0  0  0  0  0
   -8.0957   11.0153    0.0000 H   0  0  0  0  0  0  0  0  0  0  0  0
  -12.2454    9.6530    0.0000 H   0  0  0  0  0  0  0  0  0  0  0  0
  -10.9381    8.6730    0.0000 H   0  0  0  0  0  0  0  0  0  0  0  0
  -11.8545   12.9433    0.0000 H   0  0  0  0  0  0  0  0  0  0  0  0
  -10.2556   12.1511    0.0000 H   0  0  0  0  0  0  0  0  0  0  0  0
  -13.9902   10.2628    0.0000 H   0  0  0  0  0  0  0  0  0  0  0  0
  -16.0969   14.0536    0.0000 H   0  0  0  0  0  0  0  0  0  0  0  0
  -13.8501   15.3582    0.0000 H   0  0  0  0  0  0  0  0  0  0  0  0
  -11.5969   14.0648    0.0000 H   0  0  0  0  0  0  0  0  0  0  0  0
   -7.0774    6.2818    0.0000 H   0  0  0  0  0  0  0  0  0  0  0  0
   -5.0875    6.1086    0.0000 H   0  0  0  0  0  0  0  0  0  0  0  0
   -4.6598   10.4986    0.0000 H   0  0  0  0  0  0  0  0  0  0  0  0
   -3.6065    9.2496    0.0000 H   0  0  0  0  0  0  0  0  0  0  0  0
   -8.0057    9.5688    0.0000 H   0  0  0  0  0  0  0  0  0  0  0  0
   -7.1124    8.2007    0.0000 H   0  0  0  0  0  0  0  0  0  0  0  0
   -6.5130   12.5270    0.0000 H   0  0  0  0  0  0  0  0  0  0  0  0
   -5.2815   11.2357    0.0000 H   0  0  0  0  0  0  0  0  0  0  0  0
   -9.5272   10.8978    0.0000 H   0  0  0  0  0  0  0  0  0  0  0  0
  -10.1198   15.0212    0.0000 H   0  0  0  0  0  0  0  0  0  0  0  0
   -7.5623   15.4788    0.0000 H   0  0  0  0  0  0  0  0  0  0  0  0
   -5.8873   13.4927    0.0000 H   0  0  0  0  0  0  0  0  0  0  0  0
   -4.3024    4.6334    0.0000 H   0  0  0  0  0  0  0  0  0  0  0  0
   -2.4917    3.7900    0.0000 H   0  0  0  0  0  0  0  0  0  0  0  0
   -0.7414    7.8696    0.0000 H   0  0  0  0  0  0  0  0  0  0  0  0
   -0.0773    6.0592    0.0000 H   0  0  0  0  0  0  0  0  0  0  0  0
   -3.4085   10.1024    0.0000 H   0  0  0  0  0  0  0  0  0  0  0  0
   -0.9745    9.5245    0.0000 H   0  0  0  0  0  0  0  0  0  0  0  0
   -2.3109    2.3107    0.0000 H   0  0  0  0  0  0  0  0  0  0  0  0
   -0.8165    3.2321    0.0000 H   0  0  0  0  0  0  0  0  0  0  0  0
   -0.0405    4.4568    0.0000 H   0  0  0  0  0  0  0  0  0  0  0  0
    0.1353    5.2446    0.0000 H   0  0  0  0  0  0  0  0  0  0  0  0
    0.6972    5.7730    0.0000 H   0  0  0  0  0  0  0  0  0  0  0  0
    1.0844    6.1817    0.0000 H   0  0  0  0  0  0  0  0  0  0  0  0
    2.0796    6.9974    0.0000 H   0  0  0  0  0  0  0  0  0  0  0  0
    2.5563    7.2970    0.0000 H   0  0  0  0  0  0  0  0  0  0  0  0
    3.7230    7.8396    0.0000 H   0  0  0  0  0  0  0  0  0  0  0  0
    4.2593    8.0112    0.0000 H   0  0  0  0  0  0  0  0  0  0  0  0
    5.5243    8.2467    0.0000 H   0  0  0  0  0  0  0  0  0  0  0  0
    6.0865    8.2795    0.0000 H   0  0  0  0  0  0  0  0  0  0  0  0
    7.5243    8.0938    0.0000 H   0  0  0  0  0  0  0  0  0  0  0  0
    8.5793    8.0211    0.0000 H   0  0  0  0  0  0  0  0  0  0  0  0
   -2.3826    1.7633    0.0000 H   0  0  0  0  0  0  0  0  0  0  0  0
   -2.1206   -0.0018    0.0000 H   0  0  0  0  0  0  0  0  0  0  0  0
   -0.5228   -0.3431    0.0000 H   0  0  0  0  0  0  0  0  0  0  0  0
   -0.7922   -1.6357    0.0000 H   0  0  0  0  0  0  0  0  0  0  0  0
   -0.1192   -2.4861    0.0000 H   0  0  0  0  0  0  0  0  0  0  0  0
    0.9538   -5.4679    0.0000 H   0  0  0  0  0  0  0  0  0  0  0  0
    2.1691   -4.6282    0.0000 H   0  0  0  0  0  0  0  0  0  0  0  0
   -2.1336   -3.8782    0.0000 H   0  0  0  0  0  0  0  0  0  0  0  0
   -0.9812   -2.7200    0.0000 H   0  0  0  0  0  0  0  0  0  0  0  0
   -1.2726   -7.0778    0.0000 H   0  0  0  0  0  0  0  0  0  0  0  0
    0.1955   -6.0635    0.0000 H   0  0  0  0  0  0  0  0  0  0  0  0
   -3.6353   -4.6114    0.0000 H   0  0  0  0  0  0  0  0  0  0  0  0
   -5.3106   -8.7879    0.0000 H   0  0  0  0  0  0  0  0  0  0  0  0
   -2.8993   -9.7551    0.0000 H   0  0  0  0  0  0  0  0  0  0  0  0
   -0.8560   -8.1505    0.0000 H   0  0  0  0  0  0  0  0  0  0  0  0
    2.8575   -5.7549    0.0000 H   0  0  0  0  0  0  0  0  0  0  0  0
    3.9303   -5.9141    0.0000 H   0  0  0  0  0  0  0  0  0  0  0  0
    6.7537   -7.3533    0.0000 H   0  0  0  0  0  0  0  0  0  0  0  0
    7.0648   -5.9093    0.0000 H   0  0  0  0  0  0  0  0  0  0  0  0
    3.4148   -8.3079    0.0000 H   0  0  0  0  0  0  0  0  0  0  0  0
    3.4620   -6.6747    0.0000 H   0  0  0  0  0  0  0  0  0  0  0  0
    6.2327  -10.0510    0.0000 H   0  0  0  0  0  0  0  0  0  0  0  0
    6.6085   -8.3065    0.0000 H   0  0  0  0  0  0  0  0  0  0  0  0
    2.8220   -9.8704    0.0000 H   0  0  0  0  0  0  0  0  0  0  0  0
    4.4597  -14.0617    0.0000 H   0  0  0  0  0  0  0  0  0  0  0  0
    6.8796  -13.1162    0.0000 H   0  0  0  0  0  0  0  0  0  0  0  0
    7.2707  -10.5477    0.0000 H   0  0  0  0  0  0  0  0  0  0  0  0
    8.3379   -6.2594    0.0000 H   0  0  0  0  0  0  0  0  0  0  0  0
    9.2289   -5.6410    0.0000 H   0  0  0  0  0  0  0  0  0  0  0  0
   12.2722   -4.7574    0.0000 H   0  0  0  0  0  0  0  0  0  0  0  0
   11.3458   -3.4116    0.0000 H   0  0  0  0  0  0  0  0  0  0  0  0
   10.4918   -7.7389    0.0000 H   0  0  0  0  0  0  0  0  0  0  0  0
    9.4082   -6.5160    0.0000 H   0  0  0  0  0  0  0  0  0  0  0  0
   13.6602   -7.4376    0.0000 H   0  0  0  0  0  0  0  0  0  0  0  0
   12.4665   -5.4542    0.0000 H   0  0  0  0  0  0  0  0  0  0  0  0
   11.0347   -9.1267    0.0000 H   0  0  0  0  0  0  0  0  0  0  0  0
   15.2820  -11.1114    0.0000 H   0  0  0  0  0  0  0  0  0  0  0  0
   16.3090   -8.8721    0.0000 H   0  0  0  0  0  0  0  0  0  0  0  0
   15.0190   -6.7287    0.0000 H   0  0  0  0  0  0  0  0  0  0  0  0
   12.2811   -3.2515    0.0000 H   0  0  0  0  0  0  0  0  0  0  0  0
   10.5268   -0.6927    0.0000 H   0  0  0  0  0  0  0  0  0  0  0  0
   10.8264    0.3050    0.0000 H   0  0  0  0  0  0  0  0  0  0  0  0
   11.0132    1.7946    0.0000 H   0  0  0  0  0  0  0  0  0  0  0  0
   10.7508    0.8510    0.0000 H   0  0  0  0  0  0  0  0  0  0  0  0
    8.9680    2.3835    0.0000 H   0  0  0  0  0  0  0  0  0  0  0  0
    9.7444    7.0670    0.0000 H   0  0  0  0  0  0  0  0  0  0  0  0
   12.1092    7.9552    0.0000 H   0  0  0  0  0  0  0  0  0  0  0  0
   14.4916    7.1156    0.0000 H   0  0  0  0  0  0  0  0  0  0  0  0
   15.6665    5.2896    0.0000 H   0  0  0  0  0  0  0  0  0  0  0  0
   12.5038   -4.5769    0.0000 H   0  0  0  0  0  0  0  0  0  0  0  0
   13.0931   -4.6093    0.0000 H   0  0  0  0  0  0  0  0  0  0  0  0
   15.8354   -6.6507    0.0000 H   0  0  0  0  0  0  0  0  0  0  0  0
   16.2725   -5.4105    0.0000 H   0  0  0  0  0  0  0  0  0  0  0  0
   12.4084   -7.4099    0.0000 H   0  0  0  0  0  0  0  0  0  0  0  0
   13.0431   -5.1837    0.0000 H   0  0  0  0  0  0  0  0  0  0  0  0
   14.6821   -9.3241    0.0000 H   0  0  0  0  0  0  0  0  0  0  0  0
   15.3231   -7.5054    0.0000 H   0  0  0  0  0  0  0  0  0  0  0  0
   11.3148   -8.6863    0.0000 H   0  0  0  0  0  0  0  0  0  0  0  0
   12.1917  -12.9336    0.0000 H   0  0  0  0  0  0  0  0  0  0  0  0
   14.7456  -12.4562    0.0000 H   0  0  0  0  0  0  0  0  0  0  0  0
   15.6091  -10.0059    0.0000 H   0  0  0  0  0  0  0  0  0  0  0  0
   17.9528   -5.6137    0.0000 H   0  0  0  0  0  0  0  0  0  0  0  0
   18.7549   -4.9489    0.0000 H   0  0  0  0  0  0  0  0  0  0  0  0
   21.6923   -3.7518    0.0000 H   0  0  0  0  0  0  0  0  0  0  0  0
   20.7064   -2.4489    0.0000 H   0  0  0  0  0  0  0  0  0  0  0  0
   20.4082   -6.8063    0.0000 H   0  0  0  0  0  0  0  0  0  0  0  0
   19.0901   -5.6034    0.0000 H   0  0  0  0  0  0  0  0  0  0  0  0
   24.5243   -5.0911    0.0000 H   0  0  0  0  0  0  0  0  0  0  0  0
   21.6372   -1.0353    0.0000 H   0  0  0  0  0  0  0  0  0  0  0  0
   19.9713    3.4076    0.0000 H   0  0  0  0  0  0  0  0  0  0  0  0
   20.8730    2.4165    0.0000 H   0  0  0  0  0  0  0  0  0  0  0  0
   18.5354    4.5420    0.0000 H   0  0  0  0  0  0  0  0  0  0  0  0
   19.6524    3.8018    0.0000 H   0  0  0  0  0  0  0  0  0  0  0  0
   16.6039    5.0922    0.0000 H   0  0  0  0  0  0  0  0  0  0  0  0
   17.9128    4.8055    0.0000 H   0  0  0  0  0  0  0  0  0  0  0  0
   15.4243    5.1834    0.0000 H   0  0  0  0  0  0  0  0  0  0  0  0
   22.8124    0.8189    0.0000 H   0  0  0  0  0  0  0  0  0  0  0  0
   22.5052   -0.9389    0.0000 H   0  0  0  0  0  0  0  0  0  0  0  0
   21.0724   -1.2984    0.0000 H   0  0  0  0  0  0  0  0  0  0  0  0
   23.1577    0.0704    0.0000 H   0  0  0  0  0  0  0  0  0  0  0  0
   22.2756    3.3450    0.0000 H   0  0  0  0  0  0  0  0  0  0  0  0
   24.1748    5.4282    0.0000 H   0  0  0  0  0  0  0  0  0  0  0  0
   22.6480    4.2504    0.0000 H   0  0  0  0  0  0  0  0  0  0  0  0
   27.0651    3.8081    0.0000 H   0  0  0  0  0  0  0  0  0  0  0  0
   26.2492    2.7769    0.0000 H   0  0  0  0  0  0  0  0  0  0  0  0
   28.2276    7.1032    0.0000 H   0  0  0  0  0  0  0  0  0  0  0  0
   28.8758    4.7991    0.0000 H   0  0  0  0  0  0  0  0  0  0  0  0
   25.9233    4.8267    0.0000 H   0  0  0  0  0  0  0  0  0  0  0  0
   26.7485    1.7014    0.0000 H   0  0  0  0  0  0  0  0  0  0  0  0
   30.2444    2.0662    0.0000 H   0  0  0  0  0  0  0  0  0  0  0  0
   29.4863    3.5135    0.0000 H   0  0  0  0  0  0  0  0  0  0  0  0
   28.1188   -0.6799    0.0000 H   0  0  0  0  0  0  0  0  0  0  0  0
   27.1959    0.8473    0.0000 H   0  0  0  0  0  0  0  0  0  0  0  0
   31.4217   -0.4163    0.0000 H   0  0  0  0  0  0  0  0  0  0  0  0
   30.6918    1.2120    0.0000 H   0  0  0  0  0  0  0  0  0  0  0  0
   28.5661   -2.2901    0.0000 H   0  0  0  0  0  0  0  0  0  0  0  0
   32.3674   -4.6983    0.0000 H   0  0  0  0  0  0  0  0  0  0  0  0
   33.7578   -2.5036    0.0000 H   0  0  0  0  0  0  0  0  0  0  0  0
   32.5523   -0.2021    0.0000 H   0  0  0  0  0  0  0  0  0  0  0  0
   29.0503    6.6552    0.0000 H   0  0  0  0  0  0  0  0  0  0  0  0
  1  2  1  0
  2  3  1  0
  3  4  2  0
  4  5  1  0
  5  6  2  0
  6  7  1  0
  7  8  2  0
  7  9  1  0
  9 10  1  0
 10 11  1  0
 11 12  2  0
  9 13  1  0
 13 14  1  0
 14 15  2  0
 15 16  1  0
 16 17  2  0
 17 18  1  0
 16 19  1  0
 14 20  1  0
 20 21  1  0
 21 22  2  0
 22 23  1  0
 23 24  2  0
 24 25  1  0
 25 26  2  0
 25 27  1  0
  1 28  2  0
  1 29  1  0
 29 30  1  0
 30 31  1  0
 31 32  1  0
 32 33  2  0
 32 34  1  0
 34 35  1  0
 35 36  1  0
 36 37  1  0
 36 38  1  0
 35 39  1  0
 39 40  2  0
 39 41  1  0
 41 42  1  0
 42 43  1  0
 43 44  1  0
 44 45  1  0
 45 46  1  0
 46 47  1  0
 47 48  2  3
 47 49  1  0
 42 50  1  0
 50 51  2  0
 50 52  1  0
 52 53  1  0
 53 54  1  0
 54 55  1  0
 55 56  1  0
 56 57  1  0
 56 58  2  0
 53 59  1  0
 59 60  2  0
 59 61  1  0
 61 62  1  0
 62 63  1  0
 62 64  1  0
 64 65  2  0
 64 66  1  0
 66 67  1  0
 67 68  1  0
 68 69  1  0
 69 70  1  0
 70 71  1  0
 71 72  1  0
 72 73  2  3
 72 74  1  0
 67 75  1  0
 75 76  2  0
 75 77  1  0
 77 78  1  0
 78 79  1  0
 79 80  1  0
 80 81  1  0
 81 82  1  0
 82 83  1  0
 83 84  2  3
 83 85  1  0
 78 86  1  0
 86 87  2  0
 86 88  1  0
 88 89  1  0
 89 90  1  0
 90 91  1  0
 91 92  1  0
 91 93  2  0
 89 94  1  0
 94 95  2  0
 94 96  1  0
 97 96  1  6
 97 98  1  0
 98 99  1  0
 99100  1  0
100101  1  0
101102  1  0
102103  1  0
103104  1  0
 97105  1  0
 97106  1  0
106107  2  0
106108  1  0
108109  1  0
109110  1  0
110111  1  0
111112  1  0
112113  1  0
113114  1  0
114115  2  3
114116  1  0
109117  1  0
117118  2  0
117119  1  0
119120  1  0
120121  1  0
121122  1  0
122123  1  0
123124  1  0
124125  1  0
125126  2  3
125127  1  0
120128  1  0
128129  2  0
128130  1  0
130131  1  0
131132  1  0
132133  1  0
133134  1  0
134135  1  0
135136  1  0
136137  2  3
136138  1  0
131139  1  0
139140  2  0
139141  1  0
141142  1  0
142143  1  0
143144  1  0
144145  2  0
145146  1  0
146147  1  0
147148  1  0
148149  2  0
149150  1  0
150151  2  0
151152  1  0
142153  1  0
153154  2  0
153155  1  0
155156  1  0
156157  1  0
157158  1  0
158159  1  0
159160  1  0
160161  1  0
161162  2  3
161163  1  0
156164  1  0
164165  2  0
164166  1  0
166167  1  0
167168  1  0
168169  1  0
169170  1  0
170171  2  0
170172  1  0
167173  1  0
173174  2  0
173175  1  0
175176  1  0
176177  1  0
177178  1  0
178179  1  0
179180  1  0
176181  1  0
176182  1  1
182183  2  0
182184  1  0
184185  1  0
185186  1  0
186187  1  0
187188  1  0
188189  1  0
188190  2  0
185191  1  0
191192  2  0
191193  1  0
193194  1  0
194195  1  0
195196  1  0
196197  1  0
197198  1  0
198199  1  0
199200  2  3
199201  1  0
194202  1  0
202203  2  0
202204  1  0
  8  3  1  0
152144  1  0
 11  6  1  0
104147  2  0
180152  2  0
 18 13  2  0
 22  9  1  0
 26 21  1  0
  2205  1  0
  4206  1  0
  5207  1  0
  8208  1  0
 15209  1  0
 17210  1  0
 18211  1  0
 19212  1  0
 23213  1  0
 24214  1  0
 26215  1  0
 27216  1  0
 29217  1  0
 30218  1  0
 30219  1  0
 31220  1  0
 31221  1  0
 34222  1  0
 35223  1  1
 36224  1  6
 37225  1  0
 38226  1  0
 38227  1  0
 38228  1  0
 41229  1  0
 42230  1  1
 43231  1  0
 43232  1  0
 44233  1  0
 44234  1  0
 45235  1  0
 45236  1  0
 46237  1  0
 48238  1  0
 49239  1  0
 49240  1  0
 52241  1  0
 53242  1  1
 54243  1  0
 54244  1  0
 55245  1  0
 55246  1  0
 57247  1  0
 57248  1  0
 61249  1  0
 62250  1  1
 63251  1  0
 63252  1  0
 63253  1  0
 66254  1  0
 67255  1  1
 68256  1  0
 68257  1  0
 69258  1  0
 69259  1  0
 70260  1  0
 70261  1  0
 71262  1  0
 73263  1  0
 74264  1  0
 74265  1  0
 77266  1  0
 78267  1  1
 79268  1  0
 79269  1  0
 80270  1  0
 80271  1  0
 81272  1  0
 81273  1  0
 82274  1  0
 84275  1  0
 85276  1  0
 85277  1  0
 88278  1  0
 89279  1  1
 90280  1  0
 90281  1  0
 92282  1  0
 92283  1  0
 96284  1  0
 98285  1  0
 98286  1  0
 99287  1  0
 99288  1  0
100289  1  0
100290  1  0
101291  1  0
101292  1  0
102293  1  0
102294  1  0
103295  1  0
103296  1  0
104297  1  0
105298  1  0
105299  1  0
105300  1  0
108301  1  0
109302  1  6
110303  1  0
110304  1  0
111305  1  0
111306  1  0
112307  1  0
112308  1  0
113309  1  0
115310  1  0
116311  1  0
116312  1  0
119313  1  0
120314  1  6
121315  1  0
121316  1  0
122317  1  0
122318  1  0
123319  1  0
123320  1  0
124321  1  0
126322  1  0
127323  1  0
127324  1  0
130325  1  0
131326  1  6
132327  1  0
132328  1  0
133329  1  0
133330  1  0
134331  1  0
134332  1  0
135333  1  0
137334  1  0
138335  1  0
138336  1  0
141337  1  0
142338  1  1
143339  1  0
143340  1  0
145341  1  0
146342  1  0
148343  1  0
149344  1  0
150345  1  0
151346  1  0
155347  1  0
156348  1  6
157349  1  0
157350  1  0
158351  1  0
158352  1  0
159353  1  0
159354  1  0
160355  1  0
162356  1  0
163357  1  0
163358  1  0
166359  1  0
167360  1  6
168361  1  0
168362  1  0
169363  1  0
169364  1  0
172365  1  0
175366  1  0
177367  1  0
177368  1  0
178369  1  0
178370  1  0
179371  1  0
179372  1  0
180373  1  0
181374  1  0
181375  1  0
181376  1  0
184377  1  0
185378  1  1
186379  1  0
186380  1  0
187381  1  0
187382  1  0
189383  1  0
189384  1  0
193385  1  0
194386  1  6
195387  1  0
195388  1  0
196389  1  0
196390  1  0
197391  1  0
197392  1  0
198393  1  0
200394  1  0
201395  1  0
201396  1  0
204397  1  0
M  END
