
     RDKit          2D

285288  0  0  0  0  0  0  0  0999 V2000
  -17.7401   -7.0914    0.0000 N   0  0  0  0  0  0  0  0  0  0  0  0
  -16.2532   -6.8935    0.0000 C   0  0  0  0  0  0  0  0  0  0  0  0
  -15.6811   -5.5069    0.0000 C   0  0  0  0  0  0  0  0  0  0  0  0
  -14.1942   -5.3090    0.0000 C   0  0  0  0  0  0  0  0  0  0  0  0
  -13.4311   -6.6004    0.0000 O   0  0  0  0  0  0  0  0  0  0  0  0
  -13.6221   -3.9224    0.0000 N   0  0  0  0  0  0  0  0  0  0  0  0
  -12.1353   -3.7245    0.0000 C   0  0  0  0  0  0  0  0  0  0  0  0
  -11.0030   -4.7084    0.0000 C   0  0  0  0  0  0  0  0  0  0  0  0
   -9.6311   -5.3149    0.0000 C   0  0  0  0  0  0  0  0  0  0  0  0
   -8.1414   -5.4900    0.0000 C   0  0  0  0  0  0  0  0  0  0  0  0
   -6.6662   -5.2182    0.0000 C   0  0  0  0  0  0  0  0  0  0  0  0
  -12.7383   -5.0979    0.0000 C   0  0  0  0  0  0  0  0  0  0  0  0
  -12.9272   -2.4506    0.0000 C   0  0  0  0  0  0  0  0  0  0  0  0
  -13.7773   -2.6991    0.0000 O   0  0  0  0  0  0  0  0  0  0  0  0
  -13.3084   -0.9998    0.0000 N   0  0  0  0  0  0  0  0  0  0  0  0
  -13.2451    0.4988    0.0000 C   0  0  0  0  0  0  0  0  0  0  0  0
  -14.6372   -0.0598    0.0000 C   0  0  0  0  0  0  0  0  0  0  0  0
  -15.8170    0.8664    0.0000 C   0  0  0  0  0  0  0  0  0  0  0  0
  -17.2091    0.3077    0.0000 C   0  0  0  0  0  0  0  0  0  0  0  0
  -18.3890    1.2340    0.0000 N   0  0  0  0  0  0  0  0  0  0  0  0
  -19.7810    0.6753    0.0000 C   0  0  0  0  0  0  0  0  0  0  0  0
  -20.9609    1.6016    0.0000 N   0  0  0  0  0  0  0  0  0  0  0  0
  -19.9933   -0.8096    0.0000 N   0  0  0  0  0  0  0  0  0  0  0  0
  -12.7428    1.9123    0.0000 C   0  0  0  0  0  0  0  0  0  0  0  0
  -14.0656    2.6195    0.0000 O   0  0  0  0  0  0  0  0  0  0  0  0
  -11.8463    3.1148    0.0000 N   0  0  0  0  0  0  0  0  0  0  0  0
  -10.6351    3.9997    0.0000 C   0  0  0  0  0  0  0  0  0  0  0  0
  -11.9398    4.7398    0.0000 C   0  0  0  0  0  0  0  0  0  0  0  0
  -11.9513    6.2397    0.0000 C   0  0  0  0  0  0  0  0  0  0  0  0
  -13.2560    6.9798    0.0000 C   0  0  0  0  0  0  0  0  0  0  0  0
  -13.2675    8.4798    0.0000 N   0  0  0  0  0  0  0  0  0  0  0  0
  -14.5722    9.2198    0.0000 C   0  0  0  0  0  0  0  0  0  0  0  0
  -14.5837   10.7198    0.0000 N   0  0  0  0  0  0  0  0  0  0  0  0
  -15.8655    8.4599    0.0000 N   0  0  0  0  0  0  0  0  0  0  0  0
   -9.2169    4.4883    0.0000 C   0  0  0  0  0  0  0  0  0  0  0  0
   -9.4887    5.9635    0.0000 O   0  0  0  0  0  0  0  0  0  0  0  0
   -7.7177    4.5372    0.0000 N   0  0  0  0  0  0  0  0  0  0  0  0
   -6.2707    4.1420    0.0000 C   0  0  0  0  0  0  0  0  0  0  0  0
   -6.5056    5.6235    0.0000 C   0  0  0  0  0  0  0  0  0  0  0  0
   -5.3400    6.5676    0.0000 C   0  0  0  0  0  0  0  0  0  0  0  0
   -5.5749    8.0491    0.0000 N   0  0  0  0  0  0  0  0  0  0  0  0
   -3.8845    6.2050    0.0000 O   0  0  0  0  0  0  0  0  0  0  0  0
   -5.0045    3.3378    0.0000 C   0  0  0  0  0  0  0  0  0  0  0  0
   -4.6675    4.7994    0.0000 O   0  0  0  0  0  0  0  0  0  0  0  0
   -4.0316    2.1961    0.0000 N   0  0  0  0  0  0  0  0  0  0  0  0
   -3.4384    0.8184    0.0000 C   0  0  0  0  0  0  0  0  0  0  0  0
   -3.2776   -0.6729    0.0000 C   0  0  0  0  0  0  0  0  0  0  0  0
   -3.5636   -2.1454    0.0000 C   0  0  0  0  0  0  0  0  0  0  0  0
   -4.2709   -3.4682    0.0000 C   0  0  0  0  0  0  0  0  0  0  0  0
   -5.3366   -4.5237    0.0000 C   0  0  0  0  0  0  0  0  0  0  0  0
   -2.9815    2.3454    0.0000 C   0  0  0  0  0  0  0  0  0  0  0  0
   -2.9424    3.7118    0.0000 C   0  0  0  0  0  0  0  0  0  0  0  0
   -2.6454    5.0460    0.0000 C   0  0  0  0  0  0  0  0  0  0  0  0
   -2.1013    6.3000    0.0000 C   0  0  0  0  0  0  0  0  0  0  0  0
   -2.2898   -0.2867    0.0000 C   0  0  0  0  0  0  0  0  0  0  0  0
   -4.2733   -1.2384    0.0000 O   0  0  0  0  0  0  0  0  0  0  0  0
   -1.5840   -1.4573    0.0000 N   0  0  0  0  0  0  0  0  0  0  0  0
   -0.6695   -2.4732    0.0000 C   0  0  0  0  0  0  0  0  0  0  0  0
   -1.4221   -4.4626    0.0000 C   0  0  0  0  0  0  0  0  0  0  0  0
   -0.2854   -5.4414    0.0000 C   0  0  0  0  0  0  0  0  0  0  0  0
   -0.5647   -6.9152    0.0000 C   0  0  0  0  0  0  0  0  0  0  0  0
    0.5719   -7.8939    0.0000 N   0  0  0  0  0  0  0  0  0  0  0  0
    0.2926   -9.3677    0.0000 C   0  0  0  0  0  0  0  0  0  0  0  0
    1.1587  -10.5924    0.0000 N   0  0  0  0  0  0  0  0  0  0  0  0
   -1.1233   -9.8627    0.0000 N   0  0  0  0  0  0  0  0  0  0  0  0
    0.4209   -3.2976    0.0000 C   0  0  0  0  0  0  0  0  0  0  0  0
   -0.1182   -4.6265    0.0000 O   0  0  0  0  0  0  0  0  0  0  0  0
    1.6475   -3.9008    0.0000 N   0  0  0  0  0  0  0  0  0  0  0  0
    2.9661   -4.2610    0.0000 C   0  0  0  0  0  0  0  0  0  0  0  0
    3.4085   -6.3415    0.0000 C   0  0  0  0  0  0  0  0  0  0  0  0
    2.4850   -7.5235    0.0000 C   0  0  0  0  0  0  0  0  0  0  0  0
    3.0468   -8.9143    0.0000 C   0  0  0  0  0  0  0  0  0  0  0  0
    2.1232  -10.0962    0.0000 N   0  0  0  0  0  0  0  0  0  0  0  0
    2.6850  -11.4871    0.0000 C   0  0  0  0  0  0  0  0  0  0  0  0
    1.7615  -12.6690    0.0000 N   0  0  0  0  0  0  0  0  0  0  0  0
    4.1704  -11.6959    0.0000 N   0  0  0  0  0  0  0  0  0  0  0  0
    4.3291   -4.3651    0.0000 C   0  0  0  0  0  0  0  0  0  0  0  0
    4.5534   -6.5500    0.0000 O   0  0  0  0  0  0  0  0  0  0  0  0
    5.6871   -4.2093    0.0000 N   0  0  0  0  0  0  0  0  0  0  0  0
    6.9911   -3.7994    0.0000 C   0  0  0  0  0  0  0  0  0  0  0  0
    8.4881   -5.3105    0.0000 C   0  0  0  0  0  0  0  0  0  0  0  0
    8.3502   -6.8041    0.0000 C   0  0  0  0  0  0  0  0  0  0  0  0
    9.5747   -7.6704    0.0000 C   0  0  0  0  0  0  0  0  0  0  0  0
    9.4368   -9.1641    0.0000 N   0  0  0  0  0  0  0  0  0  0  0  0
   10.6614  -10.0303    0.0000 C   0  0  0  0  0  0  0  0  0  0  0  0
   10.5234  -11.5240    0.0000 N   0  0  0  0  0  0  0  0  0  0  0  0
   12.0239   -9.4030    0.0000 N   0  0  0  0  0  0  0  0  0  0  0  0
    8.1940   -3.1501    0.0000 C   0  0  0  0  0  0  0  0  0  0  0  0
    9.5640   -4.8669    0.0000 O   0  0  0  0  0  0  0  0  0  0  0  0
    9.2522   -2.2849    0.0000 N   0  0  0  0  0  0  0  0  0  0  0  0
   10.1276   -1.2350    0.0000 C   0  0  0  0  0  0  0  0  0  0  0  0
   12.2039   -1.6969    0.0000 C   0  0  0  0  0  0  0  0  0  0  0  0
   12.8954   -3.0280    0.0000 C   0  0  0  0  0  0  0  0  0  0  0  0
   12.2249   -4.3698    0.0000 C   0  0  0  0  0  0  0  0  0  0  0  0
   13.2939   -5.4221    0.0000 N   0  0  0  0  0  0  0  0  0  0  0  0
   14.6250   -4.7306    0.0000 C   0  0  0  0  0  0  0  0  0  0  0  0
   16.0296   -5.2572    0.0000 C   0  0  0  0  0  0  0  0  0  0  0  0
   17.1878   -4.3040    0.0000 C   0  0  0  0  0  0  0  0  0  0  0  0
   16.9415   -2.8244    0.0000 C   0  0  0  0  0  0  0  0  0  0  0  0
   15.5370   -2.2979    0.0000 C   0  0  0  0  0  0  0  0  0  0  0  0
   14.3787   -3.2510    0.0000 C   0  0  0  0  0  0  0  0  0  0  0  0
   10.7885   -0.0385    0.0000 C   0  0  0  0  0  0  0  0  0  0  0  0
   12.8692   -0.7421    0.0000 O   0  0  0  0  0  0  0  0  0  0  0  0
   11.2109    1.2615    0.0000 N   0  0  0  0  0  0  0  0  0  0  0  0
   11.3798    2.6180    0.0000 C   0  0  0  0  0  0  0  0  0  0  0  0
   13.3762    3.3520    0.0000 C   0  0  0  0  0  0  0  0  0  0  0  0
   14.6776    2.6060    0.0000 C   0  0  0  0  0  0  0  0  0  0  0  0
   15.9743    3.3600    0.0000 C   0  0  0  0  0  0  0  0  0  0  0  0
   17.2756    2.6141    0.0000 N   0  0  0  0  0  0  0  0  0  0  0  0
   18.5723    3.3681    0.0000 C   0  0  0  0  0  0  0  0  0  0  0  0
   19.8737    2.6222    0.0000 N   0  0  0  0  0  0  0  0  0  0  0  0
   18.5677    4.8681    0.0000 N   0  0  0  0  0  0  0  0  0  0  0  0
   11.2888    3.9818    0.0000 C   0  0  0  0  0  0  0  0  0  0  0  0
   13.4196    4.5149    0.0000 O   0  0  0  0  0  0  0  0  0  0  0  0
   10.9414    5.3039    0.0000 N   0  0  0  0  0  0  0  0  0  0  0  0
   10.3501    6.5363    0.0000 C   0  0  0  0  0  0  0  0  0  0  0  0
   11.6328    8.2331    0.0000 C   0  0  0  0  0  0  0  0  0  0  0  0
   13.1308    8.3091    0.0000 C   0  0  0  0  0  0  0  0  0  0  0  0
   13.8140    9.6445    0.0000 C   0  0  0  0  0  0  0  0  0  0  0  0
   15.3121    9.7205    0.0000 O   0  0  0  0  0  0  0  0  0  0  0  0
   12.9991   10.9039    0.0000 O   0  0  0  0  0  0  0  0  0  0  0  0
    9.5362    7.6345    0.0000 C   0  0  0  0  0  0  0  0  0  0  0  0
   11.0406    9.2349    0.0000 O   0  0  0  0  0  0  0  0  0  0  0  0
    8.5292    8.5588    0.0000 N   0  0  0  0  0  0  0  0  0  0  0  0
    7.3655    9.2759    0.0000 C   0  0  0  0  0  0  0  0  0  0  0  0
    6.0870    9.7598    0.0000 C   0  0  0  0  0  0  0  0  0  0  0  0
    4.7402    9.9929    0.0000 C   0  0  0  0  0  0  0  0  0  0  0  0
    3.3735    9.9670    0.0000 C   0  0  0  0  0  0  0  0  0  0  0  0
    2.0364    9.6829    0.0000 C   0  0  0  0  0  0  0  0  0  0  0  0
    0.7773    9.1509    0.0000 C   0  0  0  0  0  0  0  0  0  0  0  0
   -0.3584    8.3902    0.0000 C   0  0  0  0  0  0  0  0  0  0  0  0
   -1.3296    7.4283    0.0000 C   0  0  0  0  0  0  0  0  0  0  0  0
    8.9465   10.6989    0.0000 C   0  0  0  0  0  0  0  0  0  0  0  0
    7.5271   11.3968    0.0000 C   0  0  0  0  0  0  0  0  0  0  0  0
    8.6307   12.4128    0.0000 O   0  0  0  0  0  0  0  0  0  0  0  0
    6.3511   12.3279    0.0000 O   0  0  0  0  0  0  0  0  0  0  0  0
  -18.3121   -8.4780    0.0000 H   0  0  0  0  0  0  0  0  0  0  0  0
  -18.6549   -5.9027    0.0000 H   0  0  0  0  0  0  0  0  0  0  0  0
  -16.3165   -8.3922    0.0000 H   0  0  0  0  0  0  0  0  0  0  0  0
  -14.7883   -7.2161    0.0000 H   0  0  0  0  0  0  0  0  0  0  0  0
  -17.1460   -5.1843    0.0000 H   0  0  0  0  0  0  0  0  0  0  0  0
  -15.6178   -4.0082    0.0000 H   0  0  0  0  0  0  0  0  0  0  0  0
  -14.1817   -3.3546    0.0000 H   0  0  0  0  0  0  0  0  0  0  0  0
  -10.9916   -6.2084    0.0000 H   0  0  0  0  0  0  0  0  0  0  0  0
  -12.2789   -5.4972    0.0000 H   0  0  0  0  0  0  0  0  0  0  0  0
   -9.3557   -6.7894    0.0000 H   0  0  0  0  0  0  0  0  0  0  0  0
  -10.6178   -6.4447    0.0000 H   0  0  0  0  0  0  0  0  0  0  0  0
   -7.2869   -6.7229    0.0000 H   0  0  0  0  0  0  0  0  0  0  0  0
   -8.7512   -6.8604    0.0000 H   0  0  0  0  0  0  0  0  0  0  0  0
   -6.1776   -6.6364    0.0000 H   0  0  0  0  0  0  0  0  0  0  0  0
  -13.8892   -5.8056    0.0000 H   0  0  0  0  0  0  0  0  0  0  0  0
  -12.2919   -6.6156    0.0000 H   0  0  0  0  0  0  0  0  0  0  0  0
  -11.2725   -5.9161    0.0000 H   0  0  0  0  0  0  0  0  0  0  0  0
  -14.7998   -1.1606    0.0000 H   0  0  0  0  0  0  0  0  0  0  0  0
  -14.1921    1.6621    0.0000 H   0  0  0  0  0  0  0  0  0  0  0  0
  -15.6239   -1.1896    0.0000 H   0  0  0  0  0  0  0  0  0  0  0  0
  -14.1770   -1.4875    0.0000 H   0  0  0  0  0  0  0  0  0  0  0  0
  -16.6089    2.1403    0.0000 H   0  0  0  0  0  0  0  0  0  0  0  0
  -14.8303    1.9962    0.0000 H   0  0  0  0  0  0  0  0  0  0  0  0
  -18.3262   -0.6933    0.0000 H   0  0  0  0  0  0  0  0  0  0  0  0
  -16.5784   -1.0532    0.0000 H   0  0  0  0  0  0  0  0  0  0  0  0
  -18.1767    2.7189    0.0000 H   0  0  0  0  0  0  0  0  0  0  0  0
  -22.3530    1.0429    0.0000 H   0  0  0  0  0  0  0  0  0  0  0  0
  -20.7487    3.0865    0.0000 H   0  0  0  0  0  0  0  0  0  0  0  0
  -21.3853   -1.3683    0.0000 H   0  0  0  0  0  0  0  0  0  0  0  0
  -18.8134   -1.7358    0.0000 H   0  0  0  0  0  0  0  0  0  0  0  0
  -12.9018    4.1806    0.0000 H   0  0  0  0  0  0  0  0  0  0  0  0
  -10.3161    5.4654    0.0000 H   0  0  0  0  0  0  0  0  0  0  0  0
  -13.4384    4.8068    0.0000 H   0  0  0  0  0  0  0  0  0  0  0  0
  -12.7692    3.4899    0.0000 H   0  0  0  0  0  0  0  0  0  0  0  0
  -11.4491    7.6532    0.0000 H   0  0  0  0  0  0  0  0  0  0  0  0
  -10.4528    6.1727    0.0000 H   0  0  0  0  0  0  0  0  0  0  0  0
  -14.7352    7.2290    0.0000 H   0  0  0  0  0  0  0  0  0  0  0  0
  -13.9268    5.6381    0.0000 H   0  0  0  0  0  0  0  0  0  0  0  0
  -11.9742    9.2397    0.0000 H   0  0  0  0  0  0  0  0  0  0  0  0
  -15.8884   11.4598    0.0000 H   0  0  0  0  0  0  0  0  0  0  0  0
  -13.2904   11.4797    0.0000 H   0  0  0  0  0  0  0  0  0  0  0  0
  -17.1702    9.1999    0.0000 H   0  0  0  0  0  0  0  0  0  0  0  0
  -15.8540    6.9599    0.0000 H   0  0  0  0  0  0  0  0  0  0  0  0
   -7.5426    6.0269    0.0000 H   0  0  0  0  0  0  0  0  0  0  0  0
   -5.2534    5.2443    0.0000 H   0  0  0  0  0  0  0  0  0  0  0  0
   -7.2330    6.9353    0.0000 H   0  0  0  0  0  0  0  0  0  0  0  0
   -7.9999    5.4926    0.0000 H   0  0  0  0  0  0  0  0  0  0  0  0
   -4.4094    8.9933    0.0000 H   0  0  0  0  0  0  0  0  0  0  0  0
   -6.9754    8.5864    0.0000 H   0  0  0  0  0  0  0  0  0  0  0  0
   -2.7576    2.9880    0.0000 H   0  0  0  0  0  0  0  0  0  0  0  0
   -1.9843    0.0870    0.0000 H   0  0  0  0  0  0  0  0  0  0  0  0
   -2.1678   -1.6820    0.0000 H   0  0  0  0  0  0  0  0  0  0  0  0
   -2.0771   -2.3467    0.0000 H   0  0  0  0  0  0  0  0  0  0  0  0
   -2.9636   -3.5202    0.0000 H   0  0  0  0  0  0  0  0  0  0  0  0
   -2.9098   -4.0986    0.0000 H   0  0  0  0  0  0  0  0  0  0  0  0
   -3.7471   -4.8738    0.0000 H   0  0  0  0  0  0  0  0  0  0  0  0
   -4.4517   -5.7349    0.0000 H   0  0  0  0  0  0  0  0  0  0  0  0
   -4.8991    1.4249    0.0000 H   0  0  0  0  0  0  0  0  0  0  0  0
   -4.9086    3.1593    0.0000 H   0  0  0  0  0  0  0  0  0  0  0  0
   -5.1339    3.7009    0.0000 H   0  0  0  0  0  0  0  0  0  0  0  0
   -4.6806    4.8757    0.0000 H   0  0  0  0  0  0  0  0  0  0  0  0
   -4.7993    5.4501    0.0000 H   0  0  0  0  0  0  0  0  0  0  0  0
   -4.1320    6.5179    0.0000 H   0  0  0  0  0  0  0  0  0  0  0  0
   -4.0270    7.3636    0.0000 H   0  0  0  0  0  0  0  0  0  0  0  0
   -2.9514   -3.1398    0.0000 H   0  0  0  0  0  0  0  0  0  0  0  0
   -2.5273   -3.5661    0.0000 H   0  0  0  0  0  0  0  0  0  0  0  0
   -2.3401   -5.6490    0.0000 H   0  0  0  0  0  0  0  0  0  0  0  0
   -2.9221   -4.4698    0.0000 H   0  0  0  0  0  0  0  0  0  0  0  0
    1.0423   -6.1394    0.0000 H   0  0  0  0  0  0  0  0  0  0  0  0
    0.7703   -4.3758    0.0000 H   0  0  0  0  0  0  0  0  0  0  0  0
   -1.3312   -8.2045    0.0000 H   0  0  0  0  0  0  0  0  0  0  0  0
   -2.0219   -6.5592    0.0000 H   0  0  0  0  0  0  0  0  0  0  0  0
    2.0656   -7.7563    0.0000 H   0  0  0  0  0  0  0  0  0  0  0  0
    1.1500  -11.8202    0.0000 H   0  0  0  0  0  0  0  0  0  0  0  0
    2.9745  -10.2816    0.0000 H   0  0  0  0  0  0  0  0  0  0  0  0
   -1.4026  -11.3365    0.0000 H   0  0  0  0  0  0  0  0  0  0  0  0
   -2.2600   -8.8840    0.0000 H   0  0  0  0  0  0  0  0  0  0  0  0
    0.8687   -5.9584    0.0000 H   0  0  0  0  0  0  0  0  0  0  0  0
    1.8500   -6.0717    0.0000 H   0  0  0  0  0  0  0  0  0  0  0  0
    4.4122   -7.4563    0.0000 H   0  0  0  0  0  0  0  0  0  0  0  0
    4.8352   -5.8782    0.0000 H   0  0  0  0  0  0  0  0  0  0  0  0
    1.4430   -8.6025    0.0000 H   0  0  0  0  0  0  0  0  0  0  0  0
    1.3529   -6.5393    0.0000 H   0  0  0  0  0  0  0  0  0  0  0  0
    4.0504  -10.0291    0.0000 H   0  0  0  0  0  0  0  0  0  0  0  0
    4.4063   -8.2805    0.0000 H   0  0  0  0  0  0  0  0  0  0  0  0
    0.6314  -10.2530    0.0000 H   0  0  0  0  0  0  0  0  0  0  0  0
    2.3233  -14.0598    0.0000 H   0  0  0  0  0  0  0  0  0  0  0  0
    0.2761  -12.4602    0.0000 H   0  0  0  0  0  0  0  0  0  0  0  0
    4.7322  -13.0867    0.0000 H   0  0  0  0  0  0  0  0  0  0  0  0
    5.0940  -10.5140    0.0000 H   0  0  0  0  0  0  0  0  0  0  0  0
    5.9632   -6.3883    0.0000 H   0  0  0  0  0  0  0  0  0  0  0  0
    6.8522   -5.8867    0.0000 H   0  0  0  0  0  0  0  0  0  0  0  0
    9.9351   -5.7057    0.0000 H   0  0  0  0  0  0  0  0  0  0  0  0
    9.4378   -4.1494    0.0000 H   0  0  0  0  0  0  0  0  0  0  0  0
    7.7097   -8.1605    0.0000 H   0  0  0  0  0  0  0  0  0  0  0  0
    6.8505   -6.7708    0.0000 H   0  0  0  0  0  0  0  0  0  0  0  0
   11.0217   -8.0656    0.0000 H   0  0  0  0  0  0  0  0  0  0  0  0
   10.3758   -6.4022    0.0000 H   0  0  0  0  0  0  0  0  0  0  0  0
    8.0743   -9.7914    0.0000 H   0  0  0  0  0  0  0  0  0  0  0  0
   11.7480  -12.3903    0.0000 H   0  0  0  0  0  0  0  0  0  0  0  0
    9.1609  -12.1513    0.0000 H   0  0  0  0  0  0  0  0  0  0  0  0
   13.2484  -10.2693    0.0000 H   0  0  0  0  0  0  0  0  0  0  0  0
   12.1618   -7.9093    0.0000 H   0  0  0  0  0  0  0  0  0  0  0  0
   10.6625   -3.9687    0.0000 H   0  0  0  0  0  0  0  0  0  0  0  0
   11.3111   -3.0025    0.0000 H   0  0  0  0  0  0  0  0  0  0  0  0
   13.6790   -1.4249    0.0000 H   0  0  0  0  0  0  0  0  0  0  0  0
   12.3751   -0.2067    0.0000 H   0  0  0  0  0  0  0  0  0  0  0  0
   10.7864   -4.7947    0.0000 H   0  0  0  0  0  0  0  0  0  0  0  0
   13.0709   -6.9055    0.0000 H   0  0  0  0  0  0  0  0  0  0  0  0
   16.2759   -6.7368    0.0000 H   0  0  0  0  0  0  0  0  0  0  0  0
   18.5924   -4.8305    0.0000 H   0  0  0  0  0  0  0  0  0  0  0  0
   18.0998   -1.8713    0.0000 H   0  0  0  0  0  0  0  0  0  0  0  0
   15.2907   -0.8182    0.0000 H   0  0  0  0  0  0  0  0  0  0  0  0
   13.3077    0.6074    0.0000 H   0  0  0  0  0  0  0  0  0  0  0  0
   13.2208    1.6245    0.0000 H   0  0  0  0  0  0  0  0  0  0  0  0
   14.3368    4.5040    0.0000 H   0  0  0  0  0  0  0  0  0  0  0  0
   12.7145    4.6981    0.0000 H   0  0  0  0  0  0  0  0  0  0  0  0
   15.6453    1.4599    0.0000 H   0  0  0  0  0  0  0  0  0  0  0  0
   14.0243    1.2557    0.0000 H   0  0  0  0  0  0  0  0  0  0  0  0
   16.9349    4.5121    0.0000 H   0  0  0  0  0  0  0  0  0  0  0  0
   15.1534    4.6155    0.0000 H   0  0  0  0  0  0  0  0  0  0  0  0
   17.2803    1.1141    0.0000 H   0  0  0  0  0  0  0  0  0  0  0  0
   21.1704    3.3762    0.0000 H   0  0  0  0  0  0  0  0  0  0  0  0
   19.8783    1.1222    0.0000 H   0  0  0  0  0  0  0  0  0  0  0  0
   19.8644    5.6221    0.0000 H   0  0  0  0  0  0  0  0  0  0  0  0
   17.2663    5.6141    0.0000 H   0  0  0  0  0  0  0  0  0  0  0  0
   13.0590    5.8873    0.0000 H   0  0  0  0  0  0  0  0  0  0  0  0
   12.4359    6.6959    0.0000 H   0  0  0  0  0  0  0  0  0  0  0  0
   11.9981    9.6879    0.0000 H   0  0  0  0  0  0  0  0  0  0  0  0
   10.3483    9.0078    0.0000 H   0  0  0  0  0  0  0  0  0  0  0  0
   14.5646    7.8682    0.0000 H   0  0  0  0  0  0  0  0  0  0  0  0
   13.3113    6.8200    0.0000 H   0  0  0  0  0  0  0  0  0  0  0  0
    9.9952   10.1944    0.0000 H   0  0  0  0  0  0  0  0  0  0  0  0
    5.8444   11.8729    0.0000 H   0  0  0  0  0  0  0  0  0  0  0  0
    7.0904   11.6917    0.0000 H   0  0  0  0  0  0  0  0  0  0  0  0
    4.2694   12.0964    0.0000 H   0  0  0  0  0  0  0  0  0  0  0  0
    5.3598   12.0799    0.0000 H   0  0  0  0  0  0  0  0  0  0  0  0
    2.5132   11.9433    0.0000 H   0  0  0  0  0  0  0  0  0  0  0  0
    3.7641   12.0868    0.0000 H   0  0  0  0  0  0  0  0  0  0  0  0
    0.8176   11.4607    0.0000 H   0  0  0  0  0  0  0  0  0  0  0  0
    2.0188   11.8383    0.0000 H   0  0  0  0  0  0  0  0  0  0  0  0
   -0.7560   10.6659    0.0000 H   0  0  0  0  0  0  0  0  0  0  0  0
    0.3521   11.2640    0.0000 H   0  0  0  0  0  0  0  0  0  0  0  0
   -2.2205    9.4183    0.0000 H   0  0  0  0  0  0  0  0  0  0  0  0
   -1.1759   10.3846    0.0000 H   0  0  0  0  0  0  0  0  0  0  0  0
   -3.0193    8.8372    0.0000 H   0  0  0  0  0  0  0  0  0  0  0  0
    9.0774   12.1931    0.0000 H   0  0  0  0  0  0  0  0  0  0  0  0
   10.3648   11.1872    0.0000 H   0  0  0  0  0  0  0  0  0  0  0  0
    9.8281    9.4853    0.0000 H   0  0  0  0  0  0  0  0  0  0  0  0
  1  2  1  0
  2  3  1  0
  3  4  1  0
  4  5  2  0
  4  6  1  0
  7  6  1  6
  7  8  1  0
  8  9  1  0
  9 10  1  0
 10 11  1  0
  7 12  1  0
  7 13  1  0
 13 14  2  0
 13 15  1  0
 15 16  1  0
 16 17  1  0
 17 18  1  0
 18 19  1  0
 19 20  1  0
 20 21  1  0
 21 22  2  3
 21 23  1  0
 16 24  1  0
 24 25  2  0
 24 26  1  0
 26 27  1  0
 27 28  1  0
 28 29  1  0
 29 30  1  0
 30 31  1  0
 31 32  1  0
 32 33  2  3
 32 34  1  0
 27 35  1  0
 35 36  2  0
 35 37  1  0
 37 38  1  0
 38 39  1  0
 39 40  1  0
 40 41  1  0
 40 42  2  0
 38 43  1  0
 43 44  2  0
 43 45  1  0
 45 46  1  0
 46 47  1  0
 47 48  1  0
 48 49  1  0
 49 50  1  0
 46 51  1  0
 51 52  1  0
 52 53  1  0
 53 54  1  0
 46 55  1  0
 55 56  2  0
 55 57  1  0
 57 58  1  0
 58 59  1  0
 59 60  1  0
 60 61  1  0
 61 62  1  0
 62 63  1  0
 63 64  2  3
 63 65  1  0
 58 66  1  0
 66 67  2  0
 66 68  1  0
 68 69  1  0
 69 70  1  0
 70 71  1  0
 71 72  1  0
 72 73  1  0
 73 74  1  0
 74 75  2  3
 74 76  1  0
 69 77  1  0
 77 78  2  0
 77 79  1  0
 79 80  1  0
 80 81  1  0
 81 82  1  0
 82 83  1  0
 83 84  1  0
 84 85  1  0
 85 86  2  3
 85 87  1  0
 80 88  1  0
 88 89  2  0
 88 90  1  0
 90 91  1  0
 91 92  1  0
 92 93  1  0
 93 94  2  0
 94 95  1  0
 95 96  1  0
 96 97  2  0
 97 98  1  0
 98 99  2  0
 99100  1  0
100101  2  0
 91102  1  0
102103  2  0
102104  1  0
104105  1  0
105106  1  0
106107  1  0
107108  1  0
108109  1  0
109110  1  0
110111  2  3
110112  1  0
105113  1  0
113114  2  0
113115  1  0
115116  1  0
116117  1  0
117118  1  0
118119  1  0
119120  2  0
119121  1  0
116122  1  0
122123  2  0
122124  1  0
124125  1  0
125126  1  0
126127  1  0
127128  1  0
128129  1  0
129130  1  0
130131  1  0
131132  1  0
125133  1  0
125134  1  1
134135  2  0
134136  1  0
101 93  1  0
101 96  1  0
 11 50  2  0
 54132  2  0
  1137  1  0
  1138  1  0
  2139  1  0
  2140  1  0
  3141  1  0
  3142  1  0
  6143  1  0
  8144  1  0
  8145  1  0
  9146  1  0
  9147  1  0
 10148  1  0
 10149  1  0
 11150  1  0
 12151  1  0
 12152  1  0
 12153  1  0
 15154  1  0
 16155  1  1
 17156  1  0
 17157  1  0
 18158  1  0
 18159  1  0
 19160  1  0
 19161  1  0
 20162  1  0
 22163  1  0
 22164  1  0
 23165  1  0
 23166  1  0
 26167  1  0
 27168  1  1
 28169  1  0
 28170  1  0
 29171  1  0
 29172  1  0
 30173  1  0
 30174  1  0
 31175  1  0
 33176  1  0
 33177  1  0
 34178  1  0
 34179  1  0
 37180  1  0
 38181  1  1
 39182  1  0
 39183  1  0
 41184  1  0
 41185  1  0
 45186  1  0
 47187  1  0
 47188  1  0
 48189  1  0
 48190  1  0
 49191  1  0
 49192  1  0
 50193  1  0
 51194  1  0
 51195  1  0
 52196  1  0
 52197  1  0
 53198  1  0
 53199  1  0
 54200  1  0
 57201  1  0
 58202  1  6
 59203  1  0
 59204  1  0
 60205  1  0
 60206  1  0
 61207  1  0
 61208  1  0
 62209  1  0
 64210  1  0
 64211  1  0
 65212  1  0
 65213  1  0
 68214  1  0
 69215  1  6
 70216  1  0
 70217  1  0
 71218  1  0
 71219  1  0
 72220  1  0
 72221  1  0
 73222  1  0
 75223  1  0
 75224  1  0
 76225  1  0
 76226  1  0
 79227  1  0
 80228  1  6
 81229  1  0
 81230  1  0
 82231  1  0
 82232  1  0
 83233  1  0
 83234  1  0
 84235  1  0
 86236  1  0
 86237  1  0
 87238  1  0
 87239  1  0
 90240  1  0
 91241  1  6
 92242  1  0
 92243  1  0
 94244  1  0
 95245  1  0
 97246  1  0
 98247  1  0
 99248  1  0
100249  1  0
104250  1  0
105251  1  6
106252  1  0
106253  1  0
107254  1  0
107255  1  0
108256  1  0
108257  1  0
109258  1  0
111259  1  0
111260  1  0
112261  1  0
112262  1  0
115263  1  0
116264  1  6
117265  1  0
117266  1  0
118267  1  0
118268  1  0
124269  1  0
126270  1  0
126271  1  0
127272  1  0
127273  1  0
128274  1  0
128275  1  0
129276  1  0
129277  1  0
130278  1  0
130279  1  0
131280  1  0
131281  1  0
132282  1  0
133283  1  0
133284  1  0
133285  1  0
M  CHG  8  22   1  33   1  64   1  75   1  86   1 111   1 121  -1 136  -1
M  END
