
     RDKit          2D

415419  0  0  0  0  0  0  0  0999 V2000
  -32.2454   -8.5345    0.0000 N   0  0  0  0  0  0  0  0  0  0  0  0
  -30.7454   -8.5446    0.0000 C   0  0  0  0  0  0  0  0  0  0  0  0
  -30.0042   -9.8486    0.0000 C   0  0  0  0  0  0  0  0  0  0  0  0
  -28.5042   -9.8587    0.0000 C   0  0  0  0  0  0  0  0  0  0  0  0
  -27.7455   -8.5647    0.0000 O   0  0  0  0  0  0  0  0  0  0  0  0
  -27.7629  -11.1627    0.0000 N   0  0  0  0  0  0  0  0  0  0  0  0
  -26.2629  -11.1728    0.0000 C   0  0  0  0  0  0  0  0  0  0  0  0
  -26.5333  -12.6482    0.0000 C   0  0  0  0  0  0  0  0  0  0  0  0
  -27.9463  -13.1518    0.0000 C   0  0  0  0  0  0  0  0  0  0  0  0
  -28.2166  -14.6272    0.0000 N   0  0  0  0  0  0  0  0  0  0  0  0
  -29.1988  -12.3264    0.0000 O   0  0  0  0  0  0  0  0  0  0  0  0
  -24.8500  -10.6692    0.0000 C   0  0  0  0  0  0  0  0  0  0  0  0
  -23.8344  -11.7731    0.0000 O   0  0  0  0  0  0  0  0  0  0  0  0
  -24.5796   -9.1938    0.0000 N   0  0  0  0  0  0  0  0  0  0  0  0
  -23.1667   -8.6902    0.0000 C   0  0  0  0  0  0  0  0  0  0  0  0
  -22.9161  -10.1691    0.0000 C   0  0  0  0  0  0  0  0  0  0  0  0
  -21.5101  -10.6916    0.0000 C   0  0  0  0  0  0  0  0  0  0  0  0
  -21.2595  -12.1705    0.0000 C   0  0  0  0  0  0  0  0  0  0  0  0
  -19.8534  -12.6930    0.0000 N   0  0  0  0  0  0  0  0  0  0  0  0
  -22.4150  -13.1270    0.0000 O   0  0  0  0  0  0  0  0  0  0  0  0
  -22.0112   -7.7337    0.0000 C   0  0  0  0  0  0  0  0  0  0  0  0
  -20.6051   -8.2562    0.0000 O   0  0  0  0  0  0  0  0  0  0  0  0
  -22.2618   -6.2548    0.0000 N   0  0  0  0  0  0  0  0  0  0  0  0
  -21.1063   -5.2983    0.0000 C   0  0  0  0  0  0  0  0  0  0  0  0
  -22.2488   -4.3265    0.0000 C   0  0  0  0  0  0  0  0  0  0  0  0
  -23.6618   -4.8300    0.0000 C   0  0  0  0  0  0  0  0  0  0  0  0
  -24.8044   -3.8582    0.0000 C   0  0  0  0  0  0  0  0  0  0  0  0
  -24.8173   -5.7865    0.0000 C   0  0  0  0  0  0  0  0  0  0  0  0
  -19.6933   -4.7948    0.0000 C   0  0  0  0  0  0  0  0  0  0  0  0
  -18.6777   -5.8987    0.0000 O   0  0  0  0  0  0  0  0  0  0  0  0
  -19.4229   -3.3193    0.0000 N   0  0  0  0  0  0  0  0  0  0  0  0
  -18.0100   -2.8158    0.0000 C   0  0  0  0  0  0  0  0  0  0  0  0
  -16.7536   -3.6352    0.0000 C   0  0  0  0  0  0  0  0  0  0  0  0
  -15.3648   -4.2020    0.0000 C   0  0  0  0  0  0  0  0  0  0  0  0
  -13.8938   -4.4957    0.0000 C   0  0  0  0  0  0  0  0  0  0  0  0
  -12.3939   -4.5058    0.0000 C   0  0  0  0  0  0  0  0  0  0  0  0
  -10.9191   -4.2318    0.0000 C   0  0  0  0  0  0  0  0  0  0  0  0
   -9.5229   -3.6836    0.0000 C   0  0  0  0  0  0  0  0  0  0  0  0
   -8.2556   -2.8811    0.0000 C   0  0  0  0  0  0  0  0  0  0  0  0
  -18.3665   -4.2728    0.0000 C   0  0  0  0  0  0  0  0  0  0  0  0
  -19.0886   -1.7734    0.0000 C   0  0  0  0  0  0  0  0  0  0  0  0
  -20.3391   -2.6018    0.0000 O   0  0  0  0  0  0  0  0  0  0  0  0
  -19.9505   -0.5457    0.0000 N   0  0  0  0  0  0  0  0  0  0  0  0
  -20.5645    0.8229    0.0000 C   0  0  0  0  0  0  0  0  0  0  0  0
  -21.5181   -0.3350    0.0000 C   0  0  0  0  0  0  0  0  0  0  0  0
  -22.9976   -0.0881    0.0000 C   0  0  0  0  0  0  0  0  0  0  0  0
  -23.5236    1.3167    0.0000 C   0  0  0  0  0  0  0  0  0  0  0  0
  -25.0031    1.5636    0.0000 N   0  0  0  0  0  0  0  0  0  0  0  0
  -25.5290    2.9684    0.0000 C   0  0  0  0  0  0  0  0  0  0  0  0
  -27.0086    3.2153    0.0000 N   0  0  0  0  0  0  0  0  0  0  0  0
  -24.5754    4.1263    0.0000 N   0  0  0  0  0  0  0  0  0  0  0  0
  -20.9083    2.2829    0.0000 C   0  0  0  0  0  0  0  0  0  0  0  0
  -22.3586    1.8998    0.0000 O   0  0  0  0  0  0  0  0  0  0  0  0
  -20.9697    3.7817    0.0000 N   0  0  0  0  0  0  0  0  0  0  0  0
  -20.7463    5.2649    0.0000 C   0  0  0  0  0  0  0  0  0  0  0  0
  -22.1745    4.8065    0.0000 C   0  0  0  0  0  0  0  0  0  0  0  0
  -23.2856    5.8141    0.0000 O   0  0  0  0  0  0  0  0  0  0  0  0
  -20.2462    6.6791    0.0000 C   0  0  0  0  0  0  0  0  0  0  0  0
  -21.6064    7.3114    0.0000 O   0  0  0  0  0  0  0  0  0  0  0  0
  -19.4875    7.9731    0.0000 N   0  0  0  0  0  0  0  0  0  0  0  0
  -18.4976    9.1001    0.0000 C   0  0  0  0  0  0  0  0  0  0  0  0
  -19.9470    9.4866    0.0000 C   0  0  0  0  0  0  0  0  0  0  0  0
  -20.3370   10.9350    0.0000 C   0  0  0  0  0  0  0  0  0  0  0  0
  -19.2776   11.9969    0.0000 C   0  0  0  0  0  0  0  0  0  0  0  0
  -19.6677   13.4454    0.0000 C   0  0  0  0  0  0  0  0  0  0  0  0
  -21.1170   13.8318    0.0000 C   0  0  0  0  0  0  0  0  0  0  0  0
  -22.1764   12.7698    0.0000 C   0  0  0  0  0  0  0  0  0  0  0  0
  -21.7864   11.3214    0.0000 C   0  0  0  0  0  0  0  0  0  0  0  0
  -17.3123   10.0194    0.0000 C   0  0  0  0  0  0  0  0  0  0  0  0
  -17.9544   11.3751    0.0000 O   0  0  0  0  0  0  0  0  0  0  0  0
  -15.9745   10.6978    0.0000 N   0  0  0  0  0  0  0  0  0  0  0  0
  -14.5325   11.1108    0.0000 C   0  0  0  0  0  0  0  0  0  0  0  0
  -15.5428   12.2195    0.0000 C   0  0  0  0  0  0  0  0  0  0  0  0
  -15.0879   13.6488    0.0000 C   0  0  0  0  0  0  0  0  0  0  0  0
  -13.6225   13.9694    0.0000 C   0  0  0  0  0  0  0  0  0  0  0  0
  -13.1676   15.3988    0.0000 C   0  0  0  0  0  0  0  0  0  0  0  0
  -14.1779   16.5075    0.0000 C   0  0  0  0  0  0  0  0  0  0  0  0
  -15.6433   16.1868    0.0000 C   0  0  0  0  0  0  0  0  0  0  0  0
  -16.0982   14.7575    0.0000 C   0  0  0  0  0  0  0  0  0  0  0  0
  -13.0383   11.2433    0.0000 C   0  0  0  0  0  0  0  0  0  0  0  0
  -12.8455   12.7309    0.0000 O   0  0  0  0  0  0  0  0  0  0  0  0
  -11.5461   11.0908    0.0000 N   0  0  0  0  0  0  0  0  0  0  0  0
  -10.1098   10.6585    0.0000 C   0  0  0  0  0  0  0  0  0  0  0  0
  -10.3603   12.1375    0.0000 C   0  0  0  0  0  0  0  0  0  0  0  0
   -8.7811    9.9623    0.0000 C   0  0  0  0  0  0  0  0  0  0  0  0
   -7.9617   11.2187    0.0000 O   0  0  0  0  0  0  0  0  0  0  0  0
   -7.6083    9.0272    0.0000 N   0  0  0  0  0  0  0  0  0  0  0  0
   -6.6336    7.8870    0.0000 C   0  0  0  0  0  0  0  0  0  0  0  0
   -6.0448    9.2666    0.0000 C   0  0  0  0  0  0  0  0  0  0  0  0
   -4.5557    9.4465    0.0000 C   0  0  0  0  0  0  0  0  0  0  0  0
   -3.9669   10.8261    0.0000 C   0  0  0  0  0  0  0  0  0  0  0  0
   -3.0948    9.1062    0.0000 C   0  0  0  0  0  0  0  0  0  0  0  0
   -5.8923    6.5829    0.0000 C   0  0  0  0  0  0  0  0  0  0  0  0
   -4.4591    7.0255    0.0000 O   0  0  0  0  0  0  0  0  0  0  0  0
   -5.4113    5.1622    0.0000 N   0  0  0  0  0  0  0  0  0  0  0  0
   -5.2077    3.6760    0.0000 C   0  0  0  0  0  0  0  0  0  0  0  0
   -5.2891    2.1783    0.0000 C   0  0  0  0  0  0  0  0  0  0  0  0
   -5.6525    0.7229    0.0000 C   0  0  0  0  0  0  0  0  0  0  0  0
   -6.2848   -0.6373    0.0000 C   0  0  0  0  0  0  0  0  0  0  0  0
   -7.1631   -1.8533    0.0000 C   0  0  0  0  0  0  0  0  0  0  0  0
   -3.8216    3.1027    0.0000 C   0  0  0  0  0  0  0  0  0  0  0  0
   -3.9665    4.5183    0.0000 C   0  0  0  0  0  0  0  0  0  0  0  0
   -3.8922    6.0165    0.0000 O   0  0  0  0  0  0  0  0  0  0  0  0
   -2.6165    3.8646    0.0000 N   0  0  0  0  0  0  0  0  0  0  0  0
   -1.3753    4.7069    0.0000 C   0  0  0  0  0  0  0  0  0  0  0  0
   -0.4971    5.9229    0.0000 C   0  0  0  0  0  0  0  0  0  0  0  0
    0.9952    5.7703    0.0000 C   0  0  0  0  0  0  0  0  0  0  0  0
    1.8734    6.9863    0.0000 O   0  0  0  0  0  0  0  0  0  0  0  0
    1.4077    5.0882    0.0000 O   0  0  0  0  0  0  0  0  0  0  0  0
   -0.0253    4.0531    0.0000 C   0  0  0  0  0  0  0  0  0  0  0  0
    0.6840    4.4170    0.0000 O   0  0  0  0  0  0  0  0  0  0  0  0
    0.0836    2.5571    0.0000 N   0  0  0  0  0  0  0  0  0  0  0  0
    1.4336    1.9033    0.0000 C   0  0  0  0  0  0  0  0  0  0  0  0
    2.9258    1.7507    0.0000 C   0  0  0  0  0  0  0  0  0  0  0  0
    3.5398    0.3821    0.0000 C   0  0  0  0  0  0  0  0  0  0  0  0
    5.0320    0.2296    0.0000 C   0  0  0  0  0  0  0  0  0  0  0  0
    5.8082   -1.0540    0.0000 N   0  0  0  0  0  0  0  0  0  0  0  0
    5.9103    1.4456    0.0000 O   0  0  0  0  0  0  0  0  0  0  0  0
    1.5425    0.4073    0.0000 C   0  0  0  0  0  0  0  0  0  0  0  0
    0.3013   -0.4350    0.0000 O   0  0  0  0  0  0  0  0  0  0  0  0
    2.8925   -0.2465    0.0000 N   0  0  0  0  0  0  0  0  0  0  0  0
    3.0014   -1.7425    0.0000 C   0  0  0  0  0  0  0  0  0  0  0  0
    2.5920   -3.1856    0.0000 C   0  0  0  0  0  0  0  0  0  0  0  0
    3.3456   -4.4825    0.0000 C   0  0  0  0  0  0  0  0  0  0  0  0
    1.7137   -4.4016    0.0000 C   0  0  0  0  0  0  0  0  0  0  0  0
    0.2215   -4.2490    0.0000 C   0  0  0  0  0  0  0  0  0  0  0  0
    4.3514   -2.3963    0.0000 C   0  0  0  0  0  0  0  0  0  0  0  0
    5.6860   -1.7116    0.0000 O   0  0  0  0  0  0  0  0  0  0  0  0
    4.4602   -3.8923    0.0000 N   0  0  0  0  0  0  0  0  0  0  0  0
    3.3139   -4.8597    0.0000 C   0  0  0  0  0  0  0  0  0  0  0  0
    3.8797   -6.2489    0.0000 C   0  0  0  0  0  0  0  0  0  0  0  0
    5.3758   -6.1401    0.0000 C   0  0  0  0  0  0  0  0  0  0  0  0
    5.7346   -4.6836    0.0000 C   0  0  0  0  0  0  0  0  0  0  0  0
    7.1455   -5.1927    0.0000 C   0  0  0  0  0  0  0  0  0  0  0  0
    7.5882   -6.6259    0.0000 O   0  0  0  0  0  0  0  0  0  0  0  0
    8.2919   -4.2252    0.0000 N   0  0  0  0  0  0  0  0  0  0  0  0
    9.7029   -4.7343    0.0000 C   0  0  0  0  0  0  0  0  0  0  0  0
   10.8546   -5.6952    0.0000 C   0  0  0  0  0  0  0  0  0  0  0  0
   12.2627   -5.1782    0.0000 C   0  0  0  0  0  0  0  0  0  0  0  0
   13.4145   -6.1392    0.0000 C   0  0  0  0  0  0  0  0  0  0  0  0
   14.8751   -5.7977    0.0000 O   0  0  0  0  0  0  0  0  0  0  0  0
   13.1582   -7.6171    0.0000 O   0  0  0  0  0  0  0  0  0  0  0  0
   10.8492   -3.7669    0.0000 C   0  0  0  0  0  0  0  0  0  0  0  0
   10.5846   -2.2904    0.0000 O   0  0  0  0  0  0  0  0  0  0  0  0
   12.2602   -4.2759    0.0000 N   0  0  0  0  0  0  0  0  0  0  0  0
   13.4065   -3.3085    0.0000 C   0  0  0  0  0  0  0  0  0  0  0  0
   14.1529   -2.0074    0.0000 C   0  0  0  0  0  0  0  0  0  0  0  0
   13.3992   -0.7105    0.0000 C   0  0  0  0  0  0  0  0  0  0  0  0
   14.1455    0.5907    0.0000 C   0  0  0  0  0  0  0  0  0  0  0  0
   12.2474    0.2505    0.0000 C   0  0  0  0  0  0  0  0  0  0  0  0
   14.8175   -3.8176    0.0000 C   0  0  0  0  0  0  0  0  0  0  0  0
   15.2601   -5.2508    0.0000 O   0  0  0  0  0  0  0  0  0  0  0  0
   15.9638   -2.8502    0.0000 N   0  0  0  0  0  0  0  0  0  0  0  0
   17.3748   -3.3592    0.0000 C   0  0  0  0  0  0  0  0  0  0  0  0
   18.5266   -4.3202    0.0000 C   0  0  0  0  0  0  0  0  0  0  0  0
   19.9347   -3.8032    0.0000 C   0  0  0  0  0  0  0  0  0  0  0  0
   21.0865   -4.7641    0.0000 C   0  0  0  0  0  0  0  0  0  0  0  0
   22.5471   -4.4226    0.0000 O   0  0  0  0  0  0  0  0  0  0  0  0
   20.8302   -6.2420    0.0000 O   0  0  0  0  0  0  0  0  0  0  0  0
   18.5212   -2.3918    0.0000 C   0  0  0  0  0  0  0  0  0  0  0  0
   18.2565   -0.9153    0.0000 O   0  0  0  0  0  0  0  0  0  0  0  0
   19.9321   -2.9009    0.0000 N   0  0  0  0  0  0  0  0  0  0  0  0
   21.0785   -1.9334    0.0000 C   0  0  0  0  0  0  0  0  0  0  0  0
   21.8248   -0.6323    0.0000 C   0  0  0  0  0  0  0  0  0  0  0  0
   21.0712    0.6646    0.0000 C   0  0  0  0  0  0  0  0  0  0  0  0
   21.8175    1.9658    0.0000 N   0  0  0  0  0  0  0  0  0  0  0  0
   19.5712    0.6604    0.0000 O   0  0  0  0  0  0  0  0  0  0  0  0
   22.4895   -2.4425    0.0000 C   0  0  0  0  0  0  0  0  0  0  0  0
   22.9321   -3.8757    0.0000 O   0  0  0  0  0  0  0  0  0  0  0  0
   23.6358   -1.4751    0.0000 N   0  0  0  0  0  0  0  0  0  0  0  0
   25.0468   -1.9841    0.0000 C   0  0  0  0  0  0  0  0  0  0  0  0
   26.1986   -2.9451    0.0000 C   0  0  0  0  0  0  0  0  0  0  0  0
   27.6067   -2.4281    0.0000 C   0  0  0  0  0  0  0  0  0  0  0  0
   28.7584   -3.3890    0.0000 N   0  0  0  0  0  0  0  0  0  0  0  0
   28.2130   -1.0561    0.0000 O   0  0  0  0  0  0  0  0  0  0  0  0
   26.1931   -1.0167    0.0000 C   0  0  0  0  0  0  0  0  0  0  0  0
   25.9285    0.4598    0.0000 O   0  0  0  0  0  0  0  0  0  0  0  0
   27.6041   -1.5258    0.0000 N   0  0  0  0  0  0  0  0  0  0  0  0
   28.7505   -0.5584    0.0000 C   0  0  0  0  0  0  0  0  0  0  0  0
   29.4968    0.7428    0.0000 C   0  0  0  0  0  0  0  0  0  0  0  0
   30.9968    0.7470    0.0000 C   0  0  0  0  0  0  0  0  0  0  0  0
   31.7431    2.0482    0.0000 C   0  0  0  0  0  0  0  0  0  0  0  0
   33.2314    2.2352    0.0000 O   0  0  0  0  0  0  0  0  0  0  0  0
   30.9895    3.3451    0.0000 O   0  0  0  0  0  0  0  0  0  0  0  0
   30.1614   -1.0674    0.0000 C   0  0  0  0  0  0  0  0  0  0  0  0
   30.6041   -2.5006    0.0000 O   0  0  0  0  0  0  0  0  0  0  0  0
   31.3078   -0.1000    0.0000 N   0  0  0  0  0  0  0  0  0  0  0  0
   32.7188   -0.6090    0.0000 C   0  0  0  0  0  0  0  0  0  0  0  0
   33.8705   -1.5700    0.0000 C   0  0  0  0  0  0  0  0  0  0  0  0
   35.2786   -1.0530    0.0000 C   0  0  0  0  0  0  0  0  0  0  0  0
   36.4304   -2.0139    0.0000 C   0  0  0  0  0  0  0  0  0  0  0  0
   37.8385   -1.4969    0.0000 C   0  0  0  0  0  0  0  0  0  0  0  0
   38.9903   -2.4579    0.0000 N   0  0  0  0  0  0  0  0  0  0  0  0
   33.8651    0.3584    0.0000 C   0  0  0  0  0  0  0  0  0  0  0  0
   33.7824    1.8561    0.0000 O   0  0  0  0  0  0  0  0  0  0  0  0
   35.2761   -0.1507    0.0000 N   0  0  0  0  0  0  0  0  0  0  0  0
   36.4224    0.8167    0.0000 C   0  0  0  0  0  0  0  0  0  0  0  0
   37.0046    2.1992    0.0000 C   0  0  0  0  0  0  0  0  0  0  0  0
   37.8334    0.3077    0.0000 C   0  0  0  0  0  0  0  0  0  0  0  0
   38.4475   -1.0609    0.0000 O   0  0  0  0  0  0  0  0  0  0  0  0
   38.9798    1.2751    0.0000 N   0  0  0  0  0  0  0  0  0  0  0  0
   40.4362    0.9163    0.0000 C   0  0  0  0  0  0  0  0  0  0  0  0
   41.2275    2.1906    0.0000 C   0  0  0  0  0  0  0  0  0  0  0  0
   40.2601    3.3370    0.0000 C   0  0  0  0  0  0  0  0  0  0  0  0
   38.8709    2.7711    0.0000 C   0  0  0  0  0  0  0  0  0  0  0  0
   38.4534    4.2119    0.0000 C   0  0  0  0  0  0  0  0  0  0  0  0
   36.9969    4.5706    0.0000 O   0  0  0  0  0  0  0  0  0  0  0  0
   39.3527    5.4124    0.0000 O   0  0  0  0  0  0  0  0  0  0  0  0
  -32.9867   -7.2305    0.0000 H   0  0  0  0  0  0  0  0  0  0  0  0
  -33.0041   -9.8285    0.0000 H   0  0  0  0  0  0  0  0  0  0  0  0
  -30.9960   -7.0657    0.0000 H   0  0  0  0  0  0  0  0  0  0  0  0
  -29.3325   -8.0410    0.0000 H   0  0  0  0  0  0  0  0  0  0  0  0
  -31.4171  -10.3522    0.0000 H   0  0  0  0  0  0  0  0  0  0  0  0
  -29.7536  -11.3275    0.0000 H   0  0  0  0  0  0  0  0  0  0  0  0
  -28.6737  -12.3546    0.0000 H   0  0  0  0  0  0  0  0  0  0  0  0
  -26.5135   -9.6938    0.0000 H   0  0  0  0  0  0  0  0  0  0  0  0
  -26.2827  -14.1271    0.0000 H   0  0  0  0  0  0  0  0  0  0  0  0
  -25.0333  -12.6582    0.0000 H   0  0  0  0  0  0  0  0  0  0  0  0
  -29.6296  -15.1308    0.0000 H   0  0  0  0  0  0  0  0  0  0  0  0
  -27.0740  -15.5991    0.0000 H   0  0  0  0  0  0  0  0  0  0  0  0
  -25.7222   -8.2219    0.0000 H   0  0  0  0  0  0  0  0  0  0  0  0
  -24.0614   -7.4862    0.0000 H   0  0  0  0  0  0  0  0  0  0  0  0
  -23.0046  -11.6665    0.0000 H   0  0  0  0  0  0  0  0  0  0  0  0
  -24.3739  -10.5223    0.0000 H   0  0  0  0  0  0  0  0  0  0  0  0
  -20.0101  -10.7016    0.0000 H   0  0  0  0  0  0  0  0  0  0  0  0
  -21.2397   -9.2161    0.0000 H   0  0  0  0  0  0  0  0  0  0  0  0
  -19.6028  -14.1719    0.0000 H   0  0  0  0  0  0  0  0  0  0  0  0
  -18.6979  -11.7365    0.0000 H   0  0  0  0  0  0  0  0  0  0  0  0
  -23.7210   -5.9076    0.0000 H   0  0  0  0  0  0  0  0  0  0  0  0
  -20.3650   -6.6024    0.0000 H   0  0  0  0  0  0  0  0  0  0  0  0
  -22.8256   -2.9418    0.0000 H   0  0  0  0  0  0  0  0  0  0  0  0
  -21.0933   -3.3700    0.0000 H   0  0  0  0  0  0  0  0  0  0  0  0
  -23.4372   -6.3131    0.0000 H   0  0  0  0  0  0  0  0  0  0  0  0
  -26.2681   -4.1858    0.0000 H   0  0  0  0  0  0  0  0  0  0  0  0
  -25.5456   -2.5542    0.0000 H   0  0  0  0  0  0  0  0  0  0  0  0
  -23.7741   -2.7680    0.0000 H   0  0  0  0  0  0  0  0  0  0  0  0
  -24.7489   -7.2849    0.0000 H   0  0  0  0  0  0  0  0  0  0  0  0
  -26.2302   -6.2901    0.0000 H   0  0  0  0  0  0  0  0  0  0  0  0
  -25.7120   -4.5826    0.0000 H   0  0  0  0  0  0  0  0  0  0  0  0
  -20.6755   -2.4940    0.0000 H   0  0  0  0  0  0  0  0  0  0  0  0
  -16.8279   -5.1333    0.0000 H   0  0  0  0  0  0  0  0  0  0  0  0
  -17.9432   -4.5489    0.0000 H   0  0  0  0  0  0  0  0  0  0  0  0
  -15.1542   -5.6871    0.0000 H   0  0  0  0  0  0  0  0  0  0  0  0
  -16.3600   -5.3243    0.0000 H   0  0  0  0  0  0  0  0  0  0  0  0
  -13.4060   -5.9142    0.0000 H   0  0  0  0  0  0  0  0  0  0  0  0
  -14.6586   -5.7861    0.0000 H   0  0  0  0  0  0  0  0  0  0  0  0
  -11.6464   -5.8063    0.0000 H   0  0  0  0  0  0  0  0  0  0  0  0
  -12.9006   -5.9176    0.0000 H   0  0  0  0  0  0  0  0  0  0  0  0
   -9.9390   -5.3673    0.0000 H   0  0  0  0  0  0  0  0  0  0  0  0
  -11.1495   -5.7140    0.0000 H   0  0  0  0  0  0  0  0  0  0  0  0
   -8.2411   -4.4627    0.0000 H   0  0  0  0  0  0  0  0  0  0  0  0
   -9.4686   -5.1826    0.0000 H   0  0  0  0  0  0  0  0  0  0  0  0
   -7.3362   -4.0664    0.0000 H   0  0  0  0  0  0  0  0  0  0  0  0
  -19.3776   -5.1688    0.0000 H   0  0  0  0  0  0  0  0  0  0  0  0
  -17.6643   -5.6904    0.0000 H   0  0  0  0  0  0  0  0  0  0  0  0
  -16.7258   -4.6278    0.0000 H   0  0  0  0  0  0  0  0  0  0  0  0
  -21.1545   -1.4404    0.0000 H   0  0  0  0  0  0  0  0  0  0  0  0
  -21.9730    1.3387    0.0000 H   0  0  0  0  0  0  0  0  0  0  0  0
  -22.1868   -1.6777    0.0000 H   0  0  0  0  0  0  0  0  0  0  0  0
  -20.4296   -1.3671    0.0000 H   0  0  0  0  0  0  0  0  0  0  0  0
  -24.4724   -0.3621    0.0000 H   0  0  0  0  0  0  0  0  0  0  0  0
  -22.9839   -1.5880    0.0000 H   0  0  0  0  0  0  0  0  0  0  0  0
  -23.5373    2.8167    0.0000 H   0  0  0  0  0  0  0  0  0  0  0  0
  -22.0488    1.5907    0.0000 H   0  0  0  0  0  0  0  0  0  0  0  0
  -25.9567    0.4058    0.0000 H   0  0  0  0  0  0  0  0  0  0  0  0
  -27.5345    4.6201    0.0000 H   0  0  0  0  0  0  0  0  0  0  0  0
  -27.9622    2.0575    0.0000 H   0  0  0  0  0  0  0  0  0  0  0  0
  -25.2687    5.4565    0.0000 H   0  0  0  0  0  0  0  0  0  0  0  0
  -23.1996    3.5287    0.0000 H   0  0  0  0  0  0  0  0  0  0  0  0
  -22.4427    3.4982    0.0000 H   0  0  0  0  0  0  0  0  0  0  0  0
  -21.7913    6.3410    0.0000 H   0  0  0  0  0  0  0  0  0  0  0  0
  -23.3597    3.8871    0.0000 H   0  0  0  0  0  0  0  0  0  0  0  0
  -21.8168    3.3497    0.0000 H   0  0  0  0  0  0  0  0  0  0  0  0
  -24.7591    5.5331    0.0000 H   0  0  0  0  0  0  0  0  0  0  0  0
  -20.8015    8.6966    0.0000 H   0  0  0  0  0  0  0  0  0  0  0  0
  -18.7950   10.5704    0.0000 H   0  0  0  0  0  0  0  0  0  0  0  0
  -21.4461    9.5371    0.0000 H   0  0  0  0  0  0  0  0  0  0  0  0
  -20.4337    8.0677    0.0000 H   0  0  0  0  0  0  0  0  0  0  0  0
  -17.7920   11.7901    0.0000 H   0  0  0  0  0  0  0  0  0  0  0  0
  -18.6083   14.5073    0.0000 H   0  0  0  0  0  0  0  0  0  0  0  0
  -21.5070   15.2802    0.0000 H   0  0  0  0  0  0  0  0  0  0  0  0
  -23.6257   13.1563    0.0000 H   0  0  0  0  0  0  0  0  0  0  0  0
  -22.8457   10.2595    0.0000 H   0  0  0  0  0  0  0  0  0  0  0  0
  -16.6888   12.0169    0.0000 H   0  0  0  0  0  0  0  0  0  0  0  0
  -13.9878   12.5084    0.0000 H   0  0  0  0  0  0  0  0  0  0  0  0
  -16.7767   13.0725    0.0000 H   0  0  0  0  0  0  0  0  0  0  0  0
  -16.7193   11.2890    0.0000 H   0  0  0  0  0  0  0  0  0  0  0  0
  -12.4846   12.9922    0.0000 H   0  0  0  0  0  0  0  0  0  0  0  0
  -11.7022   15.7194    0.0000 H   0  0  0  0  0  0  0  0  0  0  0  0
  -13.7230   17.9368    0.0000 H   0  0  0  0  0  0  0  0  0  0  0  0
  -16.6536   17.2955    0.0000 H   0  0  0  0  0  0  0  0  0  0  0  0
  -17.5635   14.4368    0.0000 H   0  0  0  0  0  0  0  0  0  0  0  0
  -11.4339   12.5866    0.0000 H   0  0  0  0  0  0  0  0  0  0  0  0
   -8.8959   11.5398    0.0000 H   0  0  0  0  0  0  0  0  0  0  0  0
   -9.2048   13.0939    0.0000 H   0  0  0  0  0  0  0  0  0  0  0  0
  -10.9371   13.5221    0.0000 H   0  0  0  0  0  0  0  0  0  0  0  0
  -11.8531   11.9907    0.0000 H   0  0  0  0  0  0  0  0  0  0  0  0
   -6.7052   10.2248    0.0000 H   0  0  0  0  0  0  0  0  0  0  0  0
   -5.1368    7.7889    0.0000 H   0  0  0  0  0  0  0  0  0  0  0  0
   -5.9634   10.7644    0.0000 H   0  0  0  0  0  0  0  0  0  0  0  0
   -7.3800    9.9502    0.0000 H   0  0  0  0  0  0  0  0  0  0  0  0
   -4.2722    7.9735    0.0000 H   0  0  0  0  0  0  0  0  0  0  0  0
   -2.5108   11.1862    0.0000 H   0  0  0  0  0  0  0  0  0  0  0  0
   -3.8855   12.3239    0.0000 H   0  0  0  0  0  0  0  0  0  0  0  0
   -5.3754   11.3419    0.0000 H   0  0  0  0  0  0  0  0  0  0  0  0
   -1.9438   10.0682    0.0000 H   0  0  0  0  0  0  0  0  0  0  0  0
   -1.8384    8.2868    0.0000 H   0  0  0  0  0  0  0  0  0  0  0  0
   -3.6836    7.7266    0.0000 H   0  0  0  0  0  0  0  0  0  0  0  0
   -4.0040    5.6815    0.0000 H   0  0  0  0  0  0  0  0  0  0  0  0
   -3.8491    2.5980    0.0000 H   0  0  0  0  0  0  0  0  0  0  0  0
   -4.1466    1.2064    0.0000 H   0  0  0  0  0  0  0  0  0  0  0  0
   -4.1532    0.6795    0.0000 H   0  0  0  0  0  0  0  0  0  0  0  0
   -4.5789   -0.3245    0.0000 H   0  0  0  0  0  0  0  0  0  0  0  0
   -4.7919   -0.7828    0.0000 H   0  0  0  0  0  0  0  0  0  0  0  0
   -5.5853   -1.9642    0.0000 H   0  0  0  0  0  0  0  0  0  0  0  0
   -6.0360   -2.8432    0.0000 H   0  0  0  0  0  0  0  0  0  0  0  0
   -3.4834    1.4714    0.0000 H   0  0  0  0  0  0  0  0  0  0  0  0
   -2.4829    2.5236    0.0000 H   0  0  0  0  0  0  0  0  0  0  0  0
   -3.1119    4.2134    0.0000 H   0  0  0  0  0  0  0  0  0  0  0  0
   -2.3261    2.3930    0.0000 H   0  0  0  0  0  0  0  0  0  0  0  0
   -2.4203    5.7829    0.0000 H   0  0  0  0  0  0  0  0  0  0  0  0
   -0.0877    7.3659    0.0000 H   0  0  0  0  0  0  0  0  0  0  0  0
   -1.8471    6.5766    0.0000 H   0  0  0  0  0  0  0  0  0  0  0  0
   -1.1576    1.7148    0.0000 H   0  0  0  0  0  0  0  0  0  0  0  0
    1.8430    3.3464    0.0000 H   0  0  0  0  0  0  0  0  0  0  0  0
    4.3802    2.1177    0.0000 H   0  0  0  0  0  0  0  0  0  0  0  0
    2.8170    3.2468    0.0000 H   0  0  0  0  0  0  0  0  0  0  0  0
    3.6486   -1.1139    0.0000 H   0  0  0  0  0  0  0  0  0  0  0  0
    2.4280   -0.6248    0.0000 H   0  0  0  0  0  0  0  0  0  0  0  0
    7.1382   -1.2916    0.0000 H   0  0  0  0  0  0  0  0  0  0  0  0
    5.3032   -2.6415    0.0000 H   0  0  0  0  0  0  0  0  0  0  0  0
    4.3006    0.2705    0.0000 H   0  0  0  0  0  0  0  0  0  0  0  0
    1.5091   -1.5899    0.0000 H   0  0  0  0  0  0  0  0  0  0  0  0
    1.3317   -2.3721    0.0000 H   0  0  0  0  0  0  0  0  0  0  0  0
    3.3775   -5.7100    0.0000 H   0  0  0  0  0  0  0  0  0  0  0  0
    4.8335   -5.2997    0.0000 H   0  0  0  0  0  0  0  0  0  0  0  0
    5.1279   -3.9766    0.0000 H   0  0  0  0  0  0  0  0  0  0  0  0
    1.1315   -5.7840    0.0000 H   0  0  0  0  0  0  0  0  0  0  0  0
    2.7397   -5.4958    0.0000 H   0  0  0  0  0  0  0  0  0  0  0  0
   -0.6568   -5.4650    0.0000 H   0  0  0  0  0  0  0  0  0  0  0  0
   -1.1285   -3.5952    0.0000 H   0  0  0  0  0  0  0  0  0  0  0  0
    0.4519   -2.7668    0.0000 H   0  0  0  0  0  0  0  0  0  0  0  0
    2.1963   -3.8592    0.0000 H   0  0  0  0  0  0  0  0  0  0  0  0
    2.0876   -5.7236    0.0000 H   0  0  0  0  0  0  0  0  0  0  0  0
    2.4390   -6.6664    0.0000 H   0  0  0  0  0  0  0  0  0  0  0  0
    4.1444   -7.7254    0.0000 H   0  0  0  0  0  0  0  0  0  0  0  0
    5.3276   -7.6393    0.0000 H   0  0  0  0  0  0  0  0  0  0  0  0
    6.8257   -6.5243    0.0000 H   0  0  0  0  0  0  0  0  0  0  0  0
    6.3883   -3.3336    0.0000 H   0  0  0  0  0  0  0  0  0  0  0  0
    8.0272   -2.7488    0.0000 H   0  0  0  0  0  0  0  0  0  0  0  0
    8.9565   -6.0354    0.0000 H   0  0  0  0  0  0  0  0  0  0  0  0
   11.6083   -6.9922    0.0000 H   0  0  0  0  0  0  0  0  0  0  0  0
    9.7083   -6.6627    0.0000 H   0  0  0  0  0  0  0  0  0  0  0  0
   13.4091   -4.2108    0.0000 H   0  0  0  0  0  0  0  0  0  0  0  0
   12.2063   -3.6793    0.0000 H   0  0  0  0  0  0  0  0  0  0  0  0
   12.8742   -5.6445    0.0000 H   0  0  0  0  0  0  0  0  0  0  0  0
   12.1462   -2.4951    0.0000 H   0  0  0  0  0  0  0  0  0  0  0  0
   15.2992   -1.0400    0.0000 H   0  0  0  0  0  0  0  0  0  0  0  0
   15.5029   -2.6611    0.0000 H   0  0  0  0  0  0  0  0  0  0  0  0
   12.1435   -1.5309    0.0000 H   0  0  0  0  0  0  0  0  0  0  0  0
   13.5556    1.9698    0.0000 H   0  0  0  0  0  0  0  0  0  0  0  0
   15.2919    1.5581    0.0000 H   0  0  0  0  0  0  0  0  0  0  0  0
   15.4059   -0.2227    0.0000 H   0  0  0  0  0  0  0  0  0  0  0  0
   12.3217    1.7486    0.0000 H   0  0  0  0  0  0  0  0  0  0  0  0
   10.8364    0.7595    0.0000 H   0  0  0  0  0  0  0  0  0  0  0  0
   11.5011   -1.0507    0.0000 H   0  0  0  0  0  0  0  0  0  0  0  0
   15.8812   -1.3524    0.0000 H   0  0  0  0  0  0  0  0  0  0  0  0
   16.6285   -4.6604    0.0000 H   0  0  0  0  0  0  0  0  0  0  0  0
   19.2803   -5.6171    0.0000 H   0  0  0  0  0  0  0  0  0  0  0  0
   17.3803   -5.2876    0.0000 H   0  0  0  0  0  0  0  0  0  0  0  0
   21.0810   -2.8357    0.0000 H   0  0  0  0  0  0  0  0  0  0  0  0
   19.8783   -2.3042    0.0000 H   0  0  0  0  0  0  0  0  0  0  0  0
   20.5462   -4.2694    0.0000 H   0  0  0  0  0  0  0  0  0  0  0  0
   19.9267   -0.9725    0.0000 H   0  0  0  0  0  0  0  0  0  0  0  0
   22.8447    0.4676    0.0000 H   0  0  0  0  0  0  0  0  0  0  0  0
   23.1749   -1.2860    0.0000 H   0  0  0  0  0  0  0  0  0  0  0  0
   21.0638    3.2627    0.0000 H   0  0  0  0  0  0  0  0  0  0  0  0
   23.3175    1.9700    0.0000 H   0  0  0  0  0  0  0  0  0  0  0  0
   23.5531    0.0226    0.0000 H   0  0  0  0  0  0  0  0  0  0  0  0
   24.3005   -3.2853    0.0000 H   0  0  0  0  0  0  0  0  0  0  0  0
   26.9522   -4.2420    0.0000 H   0  0  0  0  0  0  0  0  0  0  0  0
   25.0522   -3.9125    0.0000 H   0  0  0  0  0  0  0  0  0  0  0  0
   30.2191   -3.0475    0.0000 H   0  0  0  0  0  0  0  0  0  0  0  0
   28.5021   -4.8669    0.0000 H   0  0  0  0  0  0  0  0  0  0  0  0
   28.2182   -2.8943    0.0000 H   0  0  0  0  0  0  0  0  0  0  0  0
   27.5987    0.4026    0.0000 H   0  0  0  0  0  0  0  0  0  0  0  0
   29.7531    2.2207    0.0000 H   0  0  0  0  0  0  0  0  0  0  0  0
   28.0858    1.2518    0.0000 H   0  0  0  0  0  0  0  0  0  0  0  0
   32.4078    0.2380    0.0000 H   0  0  0  0  0  0  0  0  0  0  0  0
   31.4645   -0.6782    0.0000 H   0  0  0  0  0  0  0  0  0  0  0  0
   31.4083    1.3966    0.0000 H   0  0  0  0  0  0  0  0  0  0  0  0
   31.9724   -1.9102    0.0000 H   0  0  0  0  0  0  0  0  0  0  0  0
   34.4605   -2.9491    0.0000 H   0  0  0  0  0  0  0  0  0  0  0  0
   32.7242   -2.5374    0.0000 H   0  0  0  0  0  0  0  0  0  0  0  0
   36.2985    0.0470    0.0000 H   0  0  0  0  0  0  0  0  0  0  0  0
   35.2222    0.4460    0.0000 H   0  0  0  0  0  0  0  0  0  0  0  0
   37.0204   -3.3930    0.0000 H   0  0  0  0  0  0  0  0  0  0  0  0
   35.4105   -3.1139    0.0000 H   0  0  0  0  0  0  0  0  0  0  0  0
   38.9848   -0.5295    0.0000 H   0  0  0  0  0  0  0  0  0  0  0  0
   37.2486   -0.1178    0.0000 H   0  0  0  0  0  0  0  0  0  0  0  0
   40.3984   -1.9409    0.0000 H   0  0  0  0  0  0  0  0  0  0  0  0
   39.7439   -3.7548    0.0000 H   0  0  0  0  0  0  0  0  0  0  0  0
   37.9704   -3.5578    0.0000 H   0  0  0  0  0  0  0  0  0  0  0  0
   35.8901   -1.5192    0.0000 H   0  0  0  0  0  0  0  0  0  0  0  0
   35.2707    1.7777    0.0000 H   0  0  0  0  0  0  0  0  0  0  0  0
   36.4151    3.4148    0.0000 H   0  0  0  0  0  0  0  0  0  0  0  0
   38.0470    3.3339    0.0000 H   0  0  0  0  0  0  0  0  0  0  0  0
   38.5188    1.4642    0.0000 H   0  0  0  0  0  0  0  0  0  0  0  0
   39.9272   -0.4947    0.0000 H   0  0  0  0  0  0  0  0  0  0  0  0
   41.7863    0.2626    0.0000 H   0  0  0  0  0  0  0  0  0  0  0  0
   42.4121    1.2705    0.0000 H   0  0  0  0  0  0  0  0  0  0  0  0
   42.2665    3.2726    0.0000 H   0  0  0  0  0  0  0  0  0  0  0  0
   41.5013    4.1793    0.0000 H   0  0  0  0  0  0  0  0  0  0  0  0
   39.7186    4.7358    0.0000 H   0  0  0  0  0  0  0  0  0  0  0  0
   37.3732    2.6885    0.0000 H   0  0  0  0  0  0  0  0  0  0  0  0
  1  2  1  0
  2  3  1  0
  3  4  1  0
  4  5  2  0
  4  6  1  0
  6  7  1  0
  7  8  1  0
  8  9  1  0
  9 10  1  0
  9 11  2  0
  7 12  1  0
 12 13  2  0
 12 14  1  0
 14 15  1  0
 15 16  1  0
 16 17  1  0
 17 18  1  0
 18 19  1  0
 18 20  2  0
 15 21  1  0
 21 22  2  0
 21 23  1  0
 23 24  1  0
 24 25  1  0
 25 26  1  0
 26 27  1  0
 26 28  1  0
 24 29  1  0
 29 30  2  0
 29 31  1  0
 32 31  1  1
 32 33  1  0
 33 34  1  0
 34 35  1  0
 35 36  1  0
 36 37  1  0
 37 38  1  0
 38 39  1  0
 32 40  1  0
 32 41  1  0
 41 42  2  0
 41 43  1  0
 43 44  1  0
 44 45  1  0
 45 46  1  0
 46 47  1  0
 47 48  1  0
 48 49  1  0
 49 50  2  3
 49 51  1  0
 44 52  1  0
 52 53  2  0
 52 54  1  0
 54 55  1  0
 55 56  1  0
 56 57  1  0
 55 58  1  0
 58 59  2  0
 58 60  1  0
 60 61  1  0
 61 62  1  0
 62 63  1  0
 63 64  2  0
 64 65  1  0
 65 66  2  0
 66 67  1  0
 67 68  2  0
 61 69  1  0
 69 70  2  0
 69 71  1  0
 71 72  1  0
 72 73  1  0
 73 74  1  0
 74 75  2  0
 75 76  1  0
 76 77  2  0
 77 78  1  0
 78 79  2  0
 72 80  1  0
 80 81  2  0
 80 82  1  0
 82 83  1  0
 83 84  1  0
 83 85  1  0
 85 86  2  0
 85 87  1  0
 87 88  1  0
 88 89  1  0
 89 90  1  0
 90 91  1  0
 90 92  1  0
 88 93  1  0
 93 94  2  0
 93 95  1  0
 95 96  1  0
 96 97  1  0
 97 98  1  0
 98 99  1  0
 99100  1  0
 96101  1  0
 96102  1  6
102103  2  0
102104  1  0
104105  1  0
105106  1  0
106107  1  0
107108  2  0
107109  1  0
105110  1  0
110111  2  0
110112  1  0
112113  1  0
113114  1  0
114115  1  0
115116  1  0
116117  1  0
116118  2  0
113119  1  0
119120  2  0
119121  1  0
121122  1  0
122123  1  0
123124  1  0
123125  1  0
125126  1  0
122127  1  0
127128  2  0
127129  1  0
129130  1  0
130131  1  0
131132  1  0
132133  1  0
133134  1  0
134135  2  0
134136  1  0
136137  1  0
137138  1  0
138139  1  0
139140  1  0
140141  2  0
140142  1  0
137143  1  0
143144  2  0
143145  1  0
145146  1  0
146147  1  0
147148  1  0
148149  1  0
148150  1  0
146151  1  0
151152  2  0
151153  1  0
153154  1  0
154155  1  0
155156  1  0
156157  1  0
157158  2  0
157159  1  0
154160  1  0
160161  2  0
160162  1  0
162163  1  0
163164  1  0
164165  1  0
165166  1  0
165167  2  0
163168  1  0
168169  2  0
168170  1  0
170171  1  0
171172  1  0
172173  1  0
173174  1  0
173175  2  0
171176  1  0
176177  2  0
176178  1  0
178179  1  0
179180  1  0
180181  1  0
181182  1  0
182183  2  0
182184  1  0
179185  1  0
185186  2  0
185187  1  0
187188  1  0
188189  1  0
189190  1  0
190191  1  0
191192  1  0
192193  1  0
188194  1  0
194195  2  0
194196  1  0
196197  1  0
197198  1  0
197199  1  0
199200  2  0
199201  1  0
201202  1  0
202203  1  0
203204  1  0
204205  1  0
205206  1  0
206207  2  0
206208  1  0
 68 63  1  0
 79 74  1  0
133129  1  0
205201  1  0
 39100  2  0
  1209  1  0
  1210  1  0
  2211  1  0
  2212  1  0
  3213  1  0
  3214  1  0
  6215  1  0
  7216  1  6
  8217  1  0
  8218  1  0
 10219  1  0
 10220  1  0
 14221  1  0
 15222  1  6
 16223  1  0
 16224  1  0
 17225  1  0
 17226  1  0
 19227  1  0
 19228  1  0
 23229  1  0
 24230  1  1
 25231  1  0
 25232  1  0
 26233  1  0
 27234  1  0
 27235  1  0
 27236  1  0
 28237  1  0
 28238  1  0
 28239  1  0
 31240  1  0
 33241  1  0
 33242  1  0
 34243  1  0
 34244  1  0
 35245  1  0
 35246  1  0
 36247  1  0
 36248  1  0
 37249  1  0
 37250  1  0
 38251  1  0
 38252  1  0
 39253  1  0
 40254  1  0
 40255  1  0
 40256  1  0
 43257  1  0
 44258  1  1
 45259  1  0
 45260  1  0
 46261  1  0
 46262  1  0
 47263  1  0
 47264  1  0
 48265  1  0
 50266  1  0
 50267  1  0
 51268  1  0
 51269  1  0
 54270  1  0
 55271  1  1
 56272  1  0
 56273  1  0
 57274  1  0
 60275  1  0
 61276  1  1
 62277  1  0
 62278  1  0
 64279  1  0
 65280  1  0
 66281  1  0
 67282  1  0
 68283  1  0
 71284  1  0
 72285  1  1
 73286  1  0
 73287  1  0
 75288  1  0
 76289  1  0
 77290  1  0
 78291  1  0
 79292  1  0
 82293  1  0
 83294  1  1
 84295  1  0
 84296  1  0
 84297  1  0
 87298  1  0
 88299  1  1
 89300  1  0
 89301  1  0
 90302  1  0
 91303  1  0
 91304  1  0
 91305  1  0
 92306  1  0
 92307  1  0
 92308  1  0
 95309  1  0
 97310  1  0
 97311  1  0
 98312  1  0
 98313  1  0
 99314  1  0
 99315  1  0
100316  1  0
101317  1  0
101318  1  0
101319  1  0
104320  1  0
105321  1  1
106322  1  0
106323  1  0
112324  1  0
113325  1  1
114326  1  0
114327  1  0
115328  1  0
115329  1  0
117330  1  0
117331  1  0
121332  1  0
122333  1  6
123334  1  6
124335  1  0
124336  1  0
124337  1  0
125338  1  0
125339  1  0
126340  1  0
126341  1  0
126342  1  0
130343  1  0
130344  1  0
131345  1  0
131346  1  0
132347  1  0
132348  1  0
133349  1  0
136350  1  0
137351  1  6
138352  1  0
138353  1  0
139354  1  0
139355  1  0
145356  1  0
146357  1  1
147358  1  0
147359  1  0
148360  1  0
149361  1  0
149362  1  0
149363  1  0
150364  1  0
150365  1  0
150366  1  0
153367  1  0
154368  1  6
155369  1  0
155370  1  0
156371  1  0
156372  1  0
162373  1  0
163374  1  1
164375  1  0
164376  1  0
166377  1  0
166378  1  0
170379  1  0
171380  1  6
172381  1  0
172382  1  0
174383  1  0
174384  1  0
178385  1  0
179386  1  1
180387  1  0
180388  1  0
181389  1  0
181390  1  0
187391  1  0
188392  1  6
189393  1  0
189394  1  0
190395  1  0
190396  1  0
191397  1  0
191398  1  0
192399  1  0
192400  1  0
193401  1  0
193402  1  0
193403  1  0
196404  1  0
197405  1  1
198406  1  0
198407  1  0
198408  1  0
202409  1  0
202410  1  0
203411  1  0
203412  1  0
204413  1  0
204414  1  0
205415  1  0
M  CHG  7  50   1 109  -1 142  -1 159  -1 184  -1 193   1 208  -1
M  END
