
     RDKit          2D

167168  0  0  0  0  0  0  0  0999 V2000
  -16.1141   -2.6163    0.0000 N   0  0  0  0  0  0  0  0  0  0  0  0
  -14.6255   -2.8004    0.0000 C   0  0  0  0  0  0  0  0  0  0  0  0
  -13.7217   -1.6033    0.0000 C   0  0  0  0  0  0  0  0  0  0  0  0
  -12.2330   -1.7874    0.0000 C   0  0  0  0  0  0  0  0  0  0  0  0
  -11.6482   -3.1687    0.0000 O   0  0  0  0  0  0  0  0  0  0  0  0
  -11.3293   -0.5902    0.0000 N   0  0  0  0  0  0  0  0  0  0  0  0
   -9.8406   -0.7744    0.0000 C   0  0  0  0  0  0  0  0  0  0  0  0
   -9.9178    0.7236    0.0000 C   0  0  0  0  0  0  0  0  0  0  0  0
  -11.2537    1.4058    0.0000 C   0  0  0  0  0  0  0  0  0  0  0  0
  -11.3309    2.9038    0.0000 C   0  0  0  0  0  0  0  0  0  0  0  0
  -12.6668    3.5860    0.0000 C   0  0  0  0  0  0  0  0  0  0  0  0
  -12.7439    5.0840    0.0000 N   0  0  0  0  0  0  0  0  0  0  0  0
   -8.5047   -1.4565    0.0000 C   0  0  0  0  0  0  0  0  0  0  0  0
   -7.2460   -0.6407    0.0000 O   0  0  0  0  0  0  0  0  0  0  0  0
   -8.4275   -2.9545    0.0000 N   0  0  0  0  0  0  0  0  0  0  0  0
   -7.0916   -3.6367    0.0000 C   0  0  0  0  0  0  0  0  0  0  0  0
   -7.9954   -4.8339    0.0000 C   0  0  0  0  0  0  0  0  0  0  0  0
   -9.4841   -4.6497    0.0000 C   0  0  0  0  0  0  0  0  0  0  0  0
  -10.3878   -5.8469    0.0000 N   0  0  0  0  0  0  0  0  0  0  0  0
  -10.2329   -3.3501    0.0000 O   0  0  0  0  0  0  0  0  0  0  0  0
   -5.6030   -3.8208    0.0000 C   0  0  0  0  0  0  0  0  0  0  0  0
   -5.1908   -5.2631    0.0000 O   0  0  0  0  0  0  0  0  0  0  0  0
   -4.6992   -2.6237    0.0000 N   0  0  0  0  0  0  0  0  0  0  0  0
   -3.2105   -2.8078    0.0000 C   0  0  0  0  0  0  0  0  0  0  0  0
   -2.3636   -4.0458    0.0000 C   0  0  0  0  0  0  0  0  0  0  0  0
   -1.1893   -4.9792    0.0000 C   0  0  0  0  0  0  0  0  0  0  0  0
    0.2079   -5.5249    0.0000 C   0  0  0  0  0  0  0  0  0  0  0  0
    1.7039   -5.6346    0.0000 C   0  0  0  0  0  0  0  0  0  0  0  0
   -4.1410   -3.9844    0.0000 C   0  0  0  0  0  0  0  0  0  0  0  0
   -3.6550   -1.3752    0.0000 C   0  0  0  0  0  0  0  0  0  0  0  0
   -5.1543   -1.4187    0.0000 O   0  0  0  0  0  0  0  0  0  0  0  0
   -3.6574    0.1248    0.0000 N   0  0  0  0  0  0  0  0  0  0  0  0
   -3.2175    1.5589    0.0000 C   0  0  0  0  0  0  0  0  0  0  0  0
   -4.7056    1.3700    0.0000 C   0  0  0  0  0  0  0  0  0  0  0  0
   -6.0393    0.6835    0.0000 O   0  0  0  0  0  0  0  0  0  0  0  0
   -5.6132    2.5642    0.0000 C   0  0  0  0  0  0  0  0  0  0  0  0
   -2.3746    2.7996    0.0000 C   0  0  0  0  0  0  0  0  0  0  0  0
   -3.4758    3.8181    0.0000 O   0  0  0  0  0  0  0  0  0  0  0  0
   -1.2033    3.7367    0.0000 N   0  0  0  0  0  0  0  0  0  0  0  0
    0.1921    4.2870    0.0000 C   0  0  0  0  0  0  0  0  0  0  0  0
   -0.8834    5.3326    0.0000 C   0  0  0  0  0  0  0  0  0  0  0  0
   -0.5156    6.7868    0.0000 C   0  0  0  0  0  0  0  0  0  0  0  0
   -1.4759    7.9391    0.0000 C   0  0  0  0  0  0  0  0  0  0  0  0
   -0.6767    9.2085    0.0000 N   0  0  0  0  0  0  0  0  0  0  0  0
    0.7775    8.8407    0.0000 C   0  0  0  0  0  0  0  0  0  0  0  0
    0.8771    7.3440    0.0000 N   0  0  0  0  0  0  0  0  0  0  0  0
    1.6877    4.4015    0.0000 C   0  0  0  0  0  0  0  0  0  0  0  0
    1.7974    5.8975    0.0000 O   0  0  0  0  0  0  0  0  0  0  0  0
    3.1507    4.0701    0.0000 N   0  0  0  0  0  0  0  0  0  0  0  0
    4.4509    3.3221    0.0000 C   0  0  0  0  0  0  0  0  0  0  0  0
    4.5979    4.8149    0.0000 C   0  0  0  0  0  0  0  0  0  0  0  0
    5.9641    5.4341    0.0000 C   0  0  0  0  0  0  0  0  0  0  0  0
    6.1111    6.9268    0.0000 C   0  0  0  0  0  0  0  0  0  0  0  0
    7.4773    7.5460    0.0000 N   0  0  0  0  0  0  0  0  0  0  0  0
    4.8918    7.8005    0.0000 O   0  0  0  0  0  0  0  0  0  0  0  0
    5.4729    2.2242    0.0000 C   0  0  0  0  0  0  0  0  0  0  0  0
    6.7109    3.0712    0.0000 O   0  0  0  0  0  0  0  0  0  0  0  0
    6.1259    0.8738    0.0000 N   0  0  0  0  0  0  0  0  0  0  0  0
    6.3519   -0.6091    0.0000 C   0  0  0  0  0  0  0  0  0  0  0  0
    6.1307   -2.0927    0.0000 C   0  0  0  0  0  0  0  0  0  0  0  0
    5.4820   -3.4452    0.0000 C   0  0  0  0  0  0  0  0  0  0  0  0
    4.4636   -4.5464    0.0000 C   0  0  0  0  0  0  0  0  0  0  0  0
    3.1657   -5.2985    0.0000 C   0  0  0  0  0  0  0  0  0  0  0  0
    7.7028   -1.2611    0.0000 C   0  0  0  0  0  0  0  0  0  0  0  0
    7.6106    0.2068    0.0000 C   0  0  0  0  0  0  0  0  0  0  0  0
    7.7166    1.7030    0.0000 O   0  0  0  0  0  0  0  0  0  0  0  0
    8.9465   -0.4754    0.0000 N   0  0  0  0  0  0  0  0  0  0  0  0
   10.2052    0.3404    0.0000 C   0  0  0  0  0  0  0  0  0  0  0  0
   11.1090    1.5376    0.0000 C   0  0  0  0  0  0  0  0  0  0  0  0
   10.5242    2.9189    0.0000 C   0  0  0  0  0  0  0  0  0  0  0  0
   11.4279    4.1160    0.0000 O   0  0  0  0  0  0  0  0  0  0  0  0
    9.0355    3.1030    0.0000 O   0  0  0  0  0  0  0  0  0  0  0  0
   11.5411   -0.3417    0.0000 C   0  0  0  0  0  0  0  0  0  0  0  0
   12.8899    0.3146    0.0000 O   0  0  0  0  0  0  0  0  0  0  0  0
   11.6183   -1.8397    0.0000 N   0  0  0  0  0  0  0  0  0  0  0  0
   12.9542   -2.5219    0.0000 C   0  0  0  0  0  0  0  0  0  0  0  0
   14.4429   -2.7060    0.0000 C   0  0  0  0  0  0  0  0  0  0  0  0
   15.0278   -4.0873    0.0000 C   0  0  0  0  0  0  0  0  0  0  0  0
   15.9047   -2.3699    0.0000 C   0  0  0  0  0  0  0  0  0  0  0  0
   16.3446   -0.9358    0.0000 C   0  0  0  0  0  0  0  0  0  0  0  0
   13.0314   -4.0199    0.0000 C   0  0  0  0  0  0  0  0  0  0  0  0
   14.2742   -4.8599    0.0000 O   0  0  0  0  0  0  0  0  0  0  0  0
   11.7727   -4.8358    0.0000 O   0  0  0  0  0  0  0  0  0  0  0  0
  -17.0179   -3.8135    0.0000 H   0  0  0  0  0  0  0  0  0  0  0  0
  -16.6990   -1.2350    0.0000 H   0  0  0  0  0  0  0  0  0  0  0  0
  -15.0653   -4.2345    0.0000 H   0  0  0  0  0  0  0  0  0  0  0  0
  -13.2896   -3.4826    0.0000 H   0  0  0  0  0  0  0  0  0  0  0  0
  -15.0576   -0.9211    0.0000 H   0  0  0  0  0  0  0  0  0  0  0  0
  -13.2819   -0.1692    0.0000 H   0  0  0  0  0  0  0  0  0  0  0  0
  -11.7273    0.1005    0.0000 H   0  0  0  0  0  0  0  0  0  0  0  0
  -10.2804   -2.2084    0.0000 H   0  0  0  0  0  0  0  0  0  0  0  0
   -9.3064    2.0934    0.0000 H   0  0  0  0  0  0  0  0  0  0  0  0
   -8.4291    0.5395    0.0000 H   0  0  0  0  0  0  0  0  0  0  0  0
  -12.7537    1.4071    0.0000 H   0  0  0  0  0  0  0  0  0  0  0  0
  -11.7997    0.7084    0.0000 H   0  0  0  0  0  0  0  0  0  0  0  0
  -10.7195    4.2736    0.0000 H   0  0  0  0  0  0  0  0  0  0  0  0
   -9.8309    2.9025    0.0000 H   0  0  0  0  0  0  0  0  0  0  0  0
  -14.1554    3.7701    0.0000 H   0  0  0  0  0  0  0  0  0  0  0  0
  -13.2781    2.2162    0.0000 H   0  0  0  0  0  0  0  0  0  0  0  0
  -14.0799    5.7662    0.0000 H   0  0  0  0  0  0  0  0  0  0  0  0
  -12.3041    6.5181    0.0000 H   0  0  0  0  0  0  0  0  0  0  0  0
  -11.2439    5.0827    0.0000 H   0  0  0  0  0  0  0  0  0  0  0  0
   -9.7763   -3.6109    0.0000 H   0  0  0  0  0  0  0  0  0  0  0  0
   -6.6518   -2.2026    0.0000 H   0  0  0  0  0  0  0  0  0  0  0  0
   -8.4352   -6.2679    0.0000 H   0  0  0  0  0  0  0  0  0  0  0  0
   -6.6595   -5.5160    0.0000 H   0  0  0  0  0  0  0  0  0  0  0  0
  -11.8765   -5.6628    0.0000 H   0  0  0  0  0  0  0  0  0  0  0  0
   -9.8030   -7.2282    0.0000 H   0  0  0  0  0  0  0  0  0  0  0  0
   -5.4481   -1.3240    0.0000 H   0  0  0  0  0  0  0  0  0  0  0  0
   -2.7313   -5.5000    0.0000 H   0  0  0  0  0  0  0  0  0  0  0  0
   -3.7973   -4.4867    0.0000 H   0  0  0  0  0  0  0  0  0  0  0  0
   -1.2953   -6.4754    0.0000 H   0  0  0  0  0  0  0  0  0  0  0  0
   -2.4294   -5.8231    0.0000 H   0  0  0  0  0  0  0  0  0  0  0  0
    0.7232   -6.9336    0.0000 H   0  0  0  0  0  0  0  0  0  0  0  0
   -0.7284   -6.6969    0.0000 H   0  0  0  0  0  0  0  0  0  0  0  0
    1.8184   -7.1302    0.0000 H   0  0  0  0  0  0  0  0  0  0  0  0
   -5.4333   -4.3784    0.0000 H   0  0  0  0  0  0  0  0  0  0  0  0
   -4.0924   -5.5656    0.0000 H   0  0  0  0  0  0  0  0  0  0  0  0
   -2.9294   -5.1463    0.0000 H   0  0  0  0  0  0  0  0  0  0  0  0
   -5.1410    0.3460    0.0000 H   0  0  0  0  0  0  0  0  0  0  0  0
   -3.8400    2.9236    0.0000 H   0  0  0  0  0  0  0  0  0  0  0  0
   -4.6210   -0.1276    0.0000 H   0  0  0  0  0  0  0  0  0  0  0  0
   -7.3902    1.3355    0.0000 H   0  0  0  0  0  0  0  0  0  0  0  0
   -7.1132    2.5581    0.0000 H   0  0  0  0  0  0  0  0  0  0  0  0
   -6.0577    3.9969    0.0000 H   0  0  0  0  0  0  0  0  0  0  0  0
   -4.3731    3.4082    0.0000 H   0  0  0  0  0  0  0  0  0  0  0  0
   -1.9554    5.0346    0.0000 H   0  0  0  0  0  0  0  0  0  0  0  0
    0.7029    5.6974    0.0000 H   0  0  0  0  0  0  0  0  0  0  0  0
   -2.2516    5.9474    0.0000 H   0  0  0  0  0  0  0  0  0  0  0  0
   -2.0015    4.3328    0.0000 H   0  0  0  0  0  0  0  0  0  0  0  0
   -2.9725    7.8396    0.0000 H   0  0  0  0  0  0  0  0  0  0  0  0
   -1.2339   10.6012    0.0000 H   0  0  0  0  0  0  0  0  0  0  0  0
    1.9298    9.8010    0.0000 H   0  0  0  0  0  0  0  0  0  0  0  0
    3.6964    5.4672    0.0000 H   0  0  0  0  0  0  0  0  0  0  0  0
    5.9199    3.6254    0.0000 H   0  0  0  0  0  0  0  0  0  0  0  0
    4.2254    6.2680    0.0000 H   0  0  0  0  0  0  0  0  0  0  0  0
    3.1190    5.0657    0.0000 H   0  0  0  0  0  0  0  0  0  0  0  0
    7.4598    5.5486    0.0000 H   0  0  0  0  0  0  0  0  0  0  0  0
    6.5109    4.0373    0.0000 H   0  0  0  0  0  0  0  0  0  0  0  0
    7.6243    9.0388    0.0000 H   0  0  0  0  0  0  0  0  0  0  0  0
    8.6967    6.6723    0.0000 H   0  0  0  0  0  0  0  0  0  0  0  0
    7.4937    1.4896    0.0000 H   0  0  0  0  0  0  0  0  0  0  0  0
    7.6130   -1.8631    0.0000 H   0  0  0  0  0  0  0  0  0  0  0  0
    7.0967   -3.2402    0.0000 H   0  0  0  0  0  0  0  0  0  0  0  0
    6.9662   -3.6627    0.0000 H   0  0  0  0  0  0  0  0  0  0  0  0
    6.2309   -4.7449    0.0000 H   0  0  0  0  0  0  0  0  0  0  0  0
    5.8176   -5.1917    0.0000 H   0  0  0  0  0  0  0  0  0  0  0  0
    4.6153   -6.0387    0.0000 H   0  0  0  0  0  0  0  0  0  0  0  0
    3.7160   -6.6939    0.0000 H   0  0  0  0  0  0  0  0  0  0  0  0
    9.0374   -1.0511    0.0000 H   0  0  0  0  0  0  0  0  0  0  0  0
    8.3497   -2.7047    0.0000 H   0  0  0  0  0  0  0  0  0  0  0  0
    7.1204   -2.8355    0.0000 H   0  0  0  0  0  0  0  0  0  0  0  0
    9.2057   -1.9528    0.0000 H   0  0  0  0  0  0  0  0  0  0  0  0
    9.1832    1.4384    0.0000 H   0  0  0  0  0  0  0  0  0  0  0  0
   12.3678    2.3534    0.0000 H   0  0  0  0  0  0  0  0  0  0  0  0
   12.2573    0.5724    0.0000 H   0  0  0  0  0  0  0  0  0  0  0  0
   10.3596   -2.6556    0.0000 H   0  0  0  0  0  0  0  0  0  0  0  0
   13.3941   -1.0878    0.0000 H   0  0  0  0  0  0  0  0  0  0  0  0
   14.1837   -1.2286    0.0000 H   0  0  0  0  0  0  0  0  0  0  0  0
   16.4829   -4.4515    0.0000 H   0  0  0  0  0  0  0  0  0  0  0  0
   15.1049   -5.5853    0.0000 H   0  0  0  0  0  0  0  0  0  0  0  0
   13.7835   -4.9251    0.0000 H   0  0  0  0  0  0  0  0  0  0  0  0
   17.3934   -2.5540    0.0000 H   0  0  0  0  0  0  0  0  0  0  0  0
   16.1639   -3.8473    0.0000 H   0  0  0  0  0  0  0  0  0  0  0  0
   17.8064   -0.5997    0.0000 H   0  0  0  0  0  0  0  0  0  0  0  0
   16.2674    0.5622    0.0000 H   0  0  0  0  0  0  0  0  0  0  0  0
   14.8895   -0.5716    0.0000 H   0  0  0  0  0  0  0  0  0  0  0  0
  1  2  1  0
  2  3  1  0
  3  4  1  0
  4  5  2  0
  4  6  1  0
  6  7  1  0
  7  8  1  0
  8  9  1  0
  9 10  1  0
 10 11  1  0
 11 12  1  0
  7 13  1  0
 13 14  2  0
 13 15  1  0
 15 16  1  0
 16 17  1  0
 17 18  1  0
 18 19  1  0
 18 20  2  0
 16 21  1  0
 21 22  2  0
 21 23  1  0
 24 23  1  6
 24 25  1  0
 25 26  1  0
 26 27  1  0
 27 28  1  0
 24 29  1  0
 24 30  1  0
 30 31  2  0
 30 32  1  0
 32 33  1  0
 33 34  1  0
 34 35  1  0
 34 36  1  0
 33 37  1  0
 37 38  2  0
 37 39  1  0
 39 40  1  0
 40 41  1  0
 41 42  1  0
 42 43  2  0
 43 44  1  0
 44 45  1  0
 45 46  2  0
 40 47  1  0
 47 48  2  0
 47 49  1  0
 49 50  1  0
 50 51  1  0
 51 52  1  0
 52 53  1  0
 53 54  1  0
 53 55  2  0
 50 56  1  0
 56 57  2  0
 56 58  1  0
 58 59  1  0
 59 60  1  0
 60 61  1  0
 61 62  1  0
 62 63  1  0
 59 64  1  0
 59 65  1  6
 65 66  2  0
 65 67  1  0
 67 68  1  0
 68 69  1  0
 69 70  1  0
 70 71  2  0
 70 72  1  0
 68 73  1  0
 73 74  2  0
 73 75  1  0
 75 76  1  0
 76 77  1  0
 77 78  1  0
 77 79  1  0
 79 80  1  0
 76 81  1  0
 81 82  2  0
 81 83  1  0
 46 42  1  0
 28 63  2  0
  1 84  1  0
  1 85  1  0
  2 86  1  0
  2 87  1  0
  3 88  1  0
  3 89  1  0
  6 90  1  0
  7 91  1  1
  8 92  1  0
  8 93  1  0
  9 94  1  0
  9 95  1  0
 10 96  1  0
 10 97  1  0
 11 98  1  0
 11 99  1  0
 12100  1  0
 12101  1  0
 12102  1  0
 15103  1  0
 16104  1  6
 17105  1  0
 17106  1  0
 19107  1  0
 19108  1  0
 23109  1  0
 25110  1  0
 25111  1  0
 26112  1  0
 26113  1  0
 27114  1  0
 27115  1  0
 28116  1  0
 29117  1  0
 29118  1  0
 29119  1  0
 32120  1  0
 33121  1  1
 34122  1  1
 35123  1  0
 36124  1  0
 36125  1  0
 36126  1  0
 39127  1  0
 40128  1  1
 41129  1  0
 41130  1  0
 43131  1  0
 44132  1  0
 45133  1  0
 49134  1  0
 50135  1  1
 51136  1  0
 51137  1  0
 52138  1  0
 52139  1  0
 54140  1  0
 54141  1  0
 58142  1  0
 60143  1  0
 60144  1  0
 61145  1  0
 61146  1  0
 62147  1  0
 62148  1  0
 63149  1  0
 64150  1  0
 64151  1  0
 64152  1  0
 67153  1  0
 68154  1  1
 69155  1  0
 69156  1  0
 75157  1  0
 76158  1  1
 77159  1  1
 78160  1  0
 78161  1  0
 78162  1  0
 79163  1  0
 79164  1  0
 80165  1  0
 80166  1  0
 80167  1  0
M  CHG  3  12   1  72  -1  83  -1
M  END
