
     RDKit          2D

345352  0  0  0  0  0  0  0  0999 V2000
   37.1333   -1.8874    0.0000 C   0  0  0  0  0  0  0  0  0  0  0  0
   38.4282   -1.1303    0.0000 N   0  0  0  0  0  0  0  0  0  0  0  0
   39.7313   -1.8733    0.0000 C   0  0  0  0  0  0  0  0  0  0  0  0
   39.7395   -3.3733    0.0000 C   0  0  0  0  0  0  0  0  0  0  0  0
   41.0426   -4.1162    0.0000 C   0  0  0  0  0  0  0  0  0  0  0  0
   42.3375   -3.3592    0.0000 C   0  0  0  0  0  0  0  0  0  0  0  0
   42.3294   -1.8592    0.0000 C   0  0  0  0  0  0  0  0  0  0  0  0
   41.0263   -1.1162    0.0000 C   0  0  0  0  0  0  0  0  0  0  0  0
   43.7534   -1.3879    0.0000 C   0  0  0  0  0  0  0  0  0  0  0  0
   44.6417   -2.5966    0.0000 O   0  0  0  0  0  0  0  0  0  0  0  0
   43.7666   -3.8149    0.0000 C   0  0  0  0  0  0  0  0  0  0  0  0
   44.2378   -5.2390    0.0000 O   0  0  0  0  0  0  0  0  0  0  0  0
   45.2189   -1.0681    0.0000 C   0  0  0  0  0  0  0  0  0  0  0  0
   45.6747    0.3610    0.0000 C   0  0  0  0  0  0  0  0  0  0  0  0
   47.1402    0.6808    0.0000 C   0  0  0  0  0  0  0  0  0  0  0  0
   48.1499   -0.4284    0.0000 C   0  0  0  0  0  0  0  0  0  0  0  0
   47.6942   -1.8575    0.0000 C   0  0  0  0  0  0  0  0  0  0  0  0
   46.2286   -2.1773    0.0000 C   0  0  0  0  0  0  0  0  0  0  0  0
   49.6154   -0.1086    0.0000 O   0  0  0  0  0  0  0  0  0  0  0  0
   44.6650    1.4702    0.0000 O   0  0  0  0  0  0  0  0  0  0  0  0
   43.1995    1.1504    0.0000 C   0  0  0  0  0  0  0  0  0  0  0  0
   42.7437   -0.2787    0.0000 C   0  0  0  0  0  0  0  0  0  0  0  0
   41.4909    0.0684    0.0000 C   0  0  0  0  0  0  0  0  0  0  0  0
   40.9523    0.6600    0.0000 C   0  0  0  0  0  0  0  0  0  0  0  0
   41.1954    1.4222    0.0000 C   0  0  0  0  0  0  0  0  0  0  0  0
   41.9770    1.5928    0.0000 C   0  0  0  0  0  0  0  0  0  0  0  0
   39.7145    3.0491    0.0000 O   0  0  0  0  0  0  0  0  0  0  0  0
   37.1414   -3.3874    0.0000 S   0  0  0  0  0  0  0  0  0  0  0  0
   35.8302   -1.1444    0.0000 N   0  0  0  0  0  0  0  0  0  0  0  0
   34.5352   -1.9015    0.0000 C   0  0  0  0  0  0  0  0  0  0  0  0
   33.2322   -1.1586    0.0000 C   0  0  0  0  0  0  0  0  0  0  0  0
   31.9372   -1.9156    0.0000 O   0  0  0  0  0  0  0  0  0  0  0  0
   30.6341   -1.1727    0.0000 C   0  0  0  0  0  0  0  0  0  0  0  0
   29.3392   -1.9297    0.0000 C   0  0  0  0  0  0  0  0  0  0  0  0
   28.0361   -1.1868    0.0000 O   0  0  0  0  0  0  0  0  0  0  0  0
   26.7411   -1.9438    0.0000 C   0  0  0  0  0  0  0  0  0  0  0  0
   25.4380   -1.2009    0.0000 C   0  0  0  0  0  0  0  0  0  0  0  0
   24.1431   -1.9579    0.0000 O   0  0  0  0  0  0  0  0  0  0  0  0
   22.8400   -1.2150    0.0000 C   0  0  0  0  0  0  0  0  0  0  0  0
   21.5451   -1.9720    0.0000 C   0  0  0  0  0  0  0  0  0  0  0  0
   20.2420   -1.2291    0.0000 O   0  0  0  0  0  0  0  0  0  0  0  0
   18.9470   -1.9861    0.0000 C   0  0  0  0  0  0  0  0  0  0  0  0
   17.6439   -1.2432    0.0000 C   0  0  0  0  0  0  0  0  0  0  0  0
   16.3490   -2.0002    0.0000 O   0  0  0  0  0  0  0  0  0  0  0  0
   15.0459   -1.2573    0.0000 C   0  0  0  0  0  0  0  0  0  0  0  0
   13.7509   -2.0143    0.0000 C   0  0  0  0  0  0  0  0  0  0  0  0
   12.4479   -1.2714    0.0000 O   0  0  0  0  0  0  0  0  0  0  0  0
   11.1529   -2.0284    0.0000 C   0  0  0  0  0  0  0  0  0  0  0  0
    9.8498   -1.2855    0.0000 C   0  0  0  0  0  0  0  0  0  0  0  0
    8.5549   -2.0425    0.0000 C   0  0  0  0  0  0  0  0  0  0  0  0
    8.7520   -2.8150    0.0000 O   0  0  0  0  0  0  0  0  0  0  0  0
    7.2518   -1.2996    0.0000 N   0  0  0  0  0  0  0  0  0  0  0  0
    5.9568   -2.0566    0.0000 C   0  0  0  0  0  0  0  0  0  0  0  0
    6.9272   -3.2005    0.0000 C   0  0  0  0  0  0  0  0  0  0  0  0
    8.4030   -2.9320    0.0000 C   0  0  0  0  0  0  0  0  0  0  0  0
    9.3734   -4.0758    0.0000 N   0  0  0  0  0  0  0  0  0  0  0  0
    9.2351   -1.6839    0.0000 O   0  0  0  0  0  0  0  0  0  0  0  0
    4.4811   -2.3251    0.0000 C   0  0  0  0  0  0  0  0  0  0  0  0
    4.3324   -3.8178    0.0000 O   0  0  0  0  0  0  0  0  0  0  0  0
    3.5106   -1.1813    0.0000 N   0  0  0  0  0  0  0  0  0  0  0  0
    2.0349   -1.4498    0.0000 C   0  0  0  0  0  0  0  0  0  0  0  0
    2.5555   -2.8565    0.0000 C   0  0  0  0  0  0  0  0  0  0  0  0
    4.0342   -3.1090    0.0000 C   0  0  0  0  0  0  0  0  0  0  0  0
    4.5548   -4.5157    0.0000 C   0  0  0  0  0  0  0  0  0  0  0  0
    5.9916   -4.9465    0.0000 N   0  0  0  0  0  0  0  0  0  0  0  0
    3.5969   -5.6700    0.0000 O   0  0  0  0  0  0  0  0  0  0  0  0
    0.5563   -1.1974    0.0000 C   0  0  0  0  0  0  0  0  0  0  0  0
   -0.0939   -2.5491    0.0000 O   0  0  0  0  0  0  0  0  0  0  0  0
    0.0356    0.2094    0.0000 N   0  0  0  0  0  0  0  0  0  0  0  0
   -1.4430    0.4618    0.0000 C   0  0  0  0  0  0  0  0  0  0  0  0
   -1.4349   -1.0382    0.0000 C   0  0  0  0  0  0  0  0  0  0  0  0
   -0.1318   -1.7811    0.0000 C   0  0  0  0  0  0  0  0  0  0  0  0
   -0.1236   -3.2811    0.0000 C   0  0  0  0  0  0  0  0  0  0  0  0
    1.3468   -2.0335    0.0000 C   0  0  0  0  0  0  0  0  0  0  0  0
   -2.7461    1.2048    0.0000 C   0  0  0  0  0  0  0  0  0  0  0  0
   -3.8194    0.1569    0.0000 O   0  0  0  0  0  0  0  0  0  0  0  0
   -2.7542    2.7047    0.0000 N   0  0  0  0  0  0  0  0  0  0  0  0
   -4.0573    3.4477    0.0000 C   0  0  0  0  0  0  0  0  0  0  0  0
   -4.1443    1.9502    0.0000 C   0  0  0  0  0  0  0  0  0  0  0  0
   -4.5132    0.4963    0.0000 C   0  0  0  0  0  0  0  0  0  0  0  0
   -5.1505   -0.8616    0.0000 C   0  0  0  0  0  0  0  0  0  0  0  0
   -6.0333   -2.0743    0.0000 C   0  0  0  0  0  0  0  0  0  0  0  0
   -7.1296   -3.0981    0.0000 C   0  0  0  0  0  0  0  0  0  0  0  0
   -8.3999   -3.8958    0.0000 C   0  0  0  0  0  0  0  0  0  0  0  0
   -9.7982   -4.4387    0.0000 C   0  0  0  0  0  0  0  0  0  0  0  0
   -2.8130    4.2853    0.0000 C   0  0  0  0  0  0  0  0  0  0  0  0
   -4.2553    4.9346    0.0000 C   0  0  0  0  0  0  0  0  0  0  0  0
   -2.8461    5.4486    0.0000 O   0  0  0  0  0  0  0  0  0  0  0  0
   -4.7311    6.3571    0.0000 N   0  0  0  0  0  0  0  0  0  0  0  0
   -5.4675    7.6639    0.0000 C   0  0  0  0  0  0  0  0  0  0  0  0
   -4.8736    9.0413    0.0000 C   0  0  0  0  0  0  0  0  0  0  0  0
   -3.3837    9.2156    0.0000 C   0  0  0  0  0  0  0  0  0  0  0  0
   -2.7898   10.5931    0.0000 C   0  0  0  0  0  0  0  0  0  0  0  0
   -1.3000   10.7674    0.0000 N   0  0  0  0  0  0  0  0  0  0  0  0
   -0.7060   12.1448    0.0000 C   0  0  0  0  0  0  0  0  0  0  0  0
    0.7838   12.3192    0.0000 N   0  0  0  0  0  0  0  0  0  0  0  0
   -1.6019   13.3479    0.0000 N   0  0  0  0  0  0  0  0  0  0  0  0
   -6.4379    8.8077    0.0000 C   0  0  0  0  0  0  0  0  0  0  0  0
   -5.5303   10.0020    0.0000 O   0  0  0  0  0  0  0  0  0  0  0  0
   -7.6072    9.7472    0.0000 N   0  0  0  0  0  0  0  0  0  0  0  0
   -8.9332   10.4484    0.0000 C   0  0  0  0  0  0  0  0  0  0  0  0
   -9.1783   11.9283    0.0000 C   0  0  0  0  0  0  0  0  0  0  0  0
   -8.0192   12.8804    0.0000 O   0  0  0  0  0  0  0  0  0  0  0  0
  -10.3680   10.8860    0.0000 C   0  0  0  0  0  0  0  0  0  0  0  0
  -10.2501   12.3814    0.0000 O   0  0  0  0  0  0  0  0  0  0  0  0
  -11.8596   11.0442    0.0000 N   0  0  0  0  0  0  0  0  0  0  0  0
  -13.3542   10.9172    0.0000 C   0  0  0  0  0  0  0  0  0  0  0  0
  -14.3604   12.0296    0.0000 C   0  0  0  0  0  0  0  0  0  0  0  0
  -13.9001   13.4573    0.0000 C   0  0  0  0  0  0  0  0  0  0  0  0
  -12.4336   13.7724    0.0000 C   0  0  0  0  0  0  0  0  0  0  0  0
  -11.9733   15.2001    0.0000 C   0  0  0  0  0  0  0  0  0  0  0  0
  -12.9795   16.3125    0.0000 C   0  0  0  0  0  0  0  0  0  0  0  0
  -14.4460   15.9973    0.0000 C   0  0  0  0  0  0  0  0  0  0  0  0
  -14.9063   14.5697    0.0000 C   0  0  0  0  0  0  0  0  0  0  0  0
  -14.7978   10.5096    0.0000 C   0  0  0  0  0  0  0  0  0  0  0  0
  -15.5071   11.8313    0.0000 O   0  0  0  0  0  0  0  0  0  0  0  0
  -16.1382    9.8362    0.0000 N   0  0  0  0  0  0  0  0  0  0  0  0
  -17.3269    8.9214    0.0000 C   0  0  0  0  0  0  0  0  0  0  0  0
  -18.7748    9.3132    0.0000 C   0  0  0  0  0  0  0  0  0  0  0  0
  -19.1594   10.7631    0.0000 C   0  0  0  0  0  0  0  0  0  0  0  0
  -18.0960   11.8211    0.0000 C   0  0  0  0  0  0  0  0  0  0  0  0
  -18.4806   13.2709    0.0000 C   0  0  0  0  0  0  0  0  0  0  0  0
  -19.9286   13.6628    0.0000 C   0  0  0  0  0  0  0  0  0  0  0  0
  -20.9919   12.6048    0.0000 C   0  0  0  0  0  0  0  0  0  0  0  0
  -20.6073   11.1549    0.0000 C   0  0  0  0  0  0  0  0  0  0  0  0
  -18.3209    7.7981    0.0000 C   0  0  0  0  0  0  0  0  0  0  0  0
  -19.6322    8.5264    0.0000 O   0  0  0  0  0  0  0  0  0  0  0  0
  -19.0844    6.5069    0.0000 N   0  0  0  0  0  0  0  0  0  0  0  0
  -19.5898    5.0946    0.0000 C   0  0  0  0  0  0  0  0  0  0  0  0
  -21.0197    4.6415    0.0000 C   0  0  0  0  0  0  0  0  0  0  0  0
  -19.8188    3.6122    0.0000 C   0  0  0  0  0  0  0  0  0  0  0  0
  -21.3157    3.5160    0.0000 O   0  0  0  0  0  0  0  0  0  0  0  0
  -19.7630    2.1132    0.0000 N   0  0  0  0  0  0  0  0  0  0  0  0
  -19.4246    0.6519    0.0000 C   0  0  0  0  0  0  0  0  0  0  0  0
  -20.3826   -0.5024    0.0000 C   0  0  0  0  0  0  0  0  0  0  0  0
  -21.8612   -0.2499    0.0000 C   0  0  0  0  0  0  0  0  0  0  0  0
  -22.8191   -1.4042    0.0000 C   0  0  0  0  0  0  0  0  0  0  0  0
  -23.1643    0.4930    0.0000 C   0  0  0  0  0  0  0  0  0  0  0  0
  -18.8158   -0.7190    0.0000 C   0  0  0  0  0  0  0  0  0  0  0  0
  -20.0231   -1.6092    0.0000 O   0  0  0  0  0  0  0  0  0  0  0  0
  -17.9585   -1.9499    0.0000 N   0  0  0  0  0  0  0  0  0  0  0  0
  -16.8838   -2.9963    0.0000 C   0  0  0  0  0  0  0  0  0  0  0  0
  -15.6304   -3.8203    0.0000 C   0  0  0  0  0  0  0  0  0  0  0  0
  -14.2438   -4.3923    0.0000 C   0  0  0  0  0  0  0  0  0  0  0  0
  -12.7739   -4.6916    0.0000 C   0  0  0  0  0  0  0  0  0  0  0  0
  -11.2740   -4.7072    0.0000 C   0  0  0  0  0  0  0  0  0  0  0  0
  -18.2986   -3.4945    0.0000 C   0  0  0  0  0  0  0  0  0  0  0  0
  -17.0656   -4.4852    0.0000 C   0  0  0  0  0  0  0  0  0  0  0  0
  -16.1209   -5.6503    0.0000 O   0  0  0  0  0  0  0  0  0  0  0  0
  -18.4459   -5.0722    0.0000 N   0  0  0  0  0  0  0  0  0  0  0  0
  -18.6277   -6.5612    0.0000 C   0  0  0  0  0  0  0  0  0  0  0  0
  -18.2893   -8.0225    0.0000 C   0  0  0  0  0  0  0  0  0  0  0  0
  -19.3857   -9.0462    0.0000 C   0  0  0  0  0  0  0  0  0  0  0  0
  -19.0473  -10.5075    0.0000 O   0  0  0  0  0  0  0  0  0  0  0  0
  -20.8837   -8.9688    0.0000 O   0  0  0  0  0  0  0  0  0  0  0  0
  -20.0081   -7.1482    0.0000 C   0  0  0  0  0  0  0  0  0  0  0  0
  -21.2067   -6.2463    0.0000 O   0  0  0  0  0  0  0  0  0  0  0  0
  -20.1899   -8.6371    0.0000 N   0  0  0  0  0  0  0  0  0  0  0  0
  -21.5703   -9.2241    0.0000 C   0  0  0  0  0  0  0  0  0  0  0  0
  -23.0682   -9.3036    0.0000 C   0  0  0  0  0  0  0  0  0  0  0  0
  -23.7483  -10.6406    0.0000 C   0  0  0  0  0  0  0  0  0  0  0  0
  -25.2462  -10.7201    0.0000 C   0  0  0  0  0  0  0  0  0  0  0  0
  -26.0841  -11.9642    0.0000 N   0  0  0  0  0  0  0  0  0  0  0  0
  -26.0640   -9.4627    0.0000 O   0  0  0  0  0  0  0  0  0  0  0  0
  -21.7521  -10.7131    0.0000 C   0  0  0  0  0  0  0  0  0  0  0  0
  -20.5535  -11.6150    0.0000 O   0  0  0  0  0  0  0  0  0  0  0  0
  -23.1325  -11.3001    0.0000 N   0  0  0  0  0  0  0  0  0  0  0  0
  -23.3143  -12.7890    0.0000 C   0  0  0  0  0  0  0  0  0  0  0  0
  -22.9759  -14.2504    0.0000 C   0  0  0  0  0  0  0  0  0  0  0  0
  -24.0722  -15.2741    0.0000 C   0  0  0  0  0  0  0  0  0  0  0  0
  -22.1581  -15.5078    0.0000 C   0  0  0  0  0  0  0  0  0  0  0  0
  -20.6602  -15.4283    0.0000 C   0  0  0  0  0  0  0  0  0  0  0  0
  -24.6946  -13.3761    0.0000 C   0  0  0  0  0  0  0  0  0  0  0  0
  -25.0566  -14.8317    0.0000 O   0  0  0  0  0  0  0  0  0  0  0  0
  -25.9942  -12.6270    0.0000 O   0  0  0  0  0  0  0  0  0  0  0  0
   38.2373    0.3575    0.0000 H   0  0  0  0  0  0  0  0  0  0  0  0
   38.4445   -4.1303    0.0000 H   0  0  0  0  0  0  0  0  0  0  0  0
   41.0507   -5.6162    0.0000 H   0  0  0  0  0  0  0  0  0  0  0  0
   40.6554    0.3372    0.0000 H   0  0  0  0  0  0  0  0  0  0  0  0
   47.5960    2.1099    0.0000 H   0  0  0  0  0  0  0  0  0  0  0  0
   48.7039   -2.9668    0.0000 H   0  0  0  0  0  0  0  0  0  0  0  0
   45.7729   -3.6064    0.0000 H   0  0  0  0  0  0  0  0  0  0  0  0
   50.6252   -1.2178    0.0000 H   0  0  0  0  0  0  0  0  0  0  0  0
   40.8224   -2.0276    0.0000 H   0  0  0  0  0  0  0  0  0  0  0  0
   38.7749    0.3720    0.0000 H   0  0  0  0  0  0  0  0  0  0  0  0
   42.6455    3.6888    0.0000 H   0  0  0  0  0  0  0  0  0  0  0  0
   40.1703    4.4782    0.0000 H   0  0  0  0  0  0  0  0  0  0  0  0
   35.8221    0.3555    0.0000 H   0  0  0  0  0  0  0  0  0  0  0  0
   35.5057   -3.0453    0.0000 H   0  0  0  0  0  0  0  0  0  0  0  0
   33.5773   -3.0558    0.0000 H   0  0  0  0  0  0  0  0  0  0  0  0
   34.1901   -0.0043    0.0000 H   0  0  0  0  0  0  0  0  0  0  0  0
   32.4084    0.0950    0.0000 H   0  0  0  0  0  0  0  0  0  0  0  0
   31.4442    0.0898    0.0000 H   0  0  0  0  0  0  0  0  0  0  0  0
   29.6637   -0.0288    0.0000 H   0  0  0  0  0  0  0  0  0  0  0  0
   30.3096   -3.0735    0.0000 H   0  0  0  0  0  0  0  0  0  0  0  0
   28.5291   -3.1921    0.0000 H   0  0  0  0  0  0  0  0  0  0  0  0
   27.5649   -3.1974    0.0000 H   0  0  0  0  0  0  0  0  0  0  0  0
   25.7832   -3.0981    0.0000 H   0  0  0  0  0  0  0  0  0  0  0  0
   26.3960   -0.0466    0.0000 H   0  0  0  0  0  0  0  0  0  0  0  0
   24.6143    0.0527    0.0000 H   0  0  0  0  0  0  0  0  0  0  0  0
   23.6501    0.0475    0.0000 H   0  0  0  0  0  0  0  0  0  0  0  0
   21.8696   -0.0712    0.0000 H   0  0  0  0  0  0  0  0  0  0  0  0
   22.5155   -3.1158    0.0000 H   0  0  0  0  0  0  0  0  0  0  0  0
   20.7350   -3.2345    0.0000 H   0  0  0  0  0  0  0  0  0  0  0  0
   19.7708   -3.2397    0.0000 H   0  0  0  0  0  0  0  0  0  0  0  0
   17.9891   -3.1404    0.0000 H   0  0  0  0  0  0  0  0  0  0  0  0
   18.6019   -0.0889    0.0000 H   0  0  0  0  0  0  0  0  0  0  0  0
   16.8202    0.0104    0.0000 H   0  0  0  0  0  0  0  0  0  0  0  0
   15.8560    0.0052    0.0000 H   0  0  0  0  0  0  0  0  0  0  0  0
   14.0755   -0.1135    0.0000 H   0  0  0  0  0  0  0  0  0  0  0  0
   14.7214   -3.1581    0.0000 H   0  0  0  0  0  0  0  0  0  0  0  0
   12.9409   -3.2768    0.0000 H   0  0  0  0  0  0  0  0  0  0  0  0
   11.9766   -3.2820    0.0000 H   0  0  0  0  0  0  0  0  0  0  0  0
   10.3428   -3.2909    0.0000 H   0  0  0  0  0  0  0  0  0  0  0  0
   10.8077   -0.1312    0.0000 H   0  0  0  0  0  0  0  0  0  0  0  0
    8.8794   -0.1417    0.0000 H   0  0  0  0  0  0  0  0  0  0  0  0
    7.2436    0.2004    0.0000 H   0  0  0  0  0  0  0  0  0  0  0  0
    5.4362   -0.6499    0.0000 H   0  0  0  0  0  0  0  0  0  0  0  0
    7.4479   -4.6072    0.0000 H   0  0  0  0  0  0  0  0  0  0  0  0
    5.7342   -4.1097    0.0000 H   0  0  0  0  0  0  0  0  0  0  0  0
   10.8709   -3.9892    0.0000 H   0  0  0  0  0  0  0  0  0  0  0  0
    8.8680   -5.4881    0.0000 H   0  0  0  0  0  0  0  0  0  0  0  0
    4.0160    0.2310    0.0000 H   0  0  0  0  0  0  0  0  0  0  0  0
    2.2096    0.0400    0.0000 H   0  0  0  0  0  0  0  0  0  0  0  0
    2.5637   -4.3565    0.0000 H   0  0  0  0  0  0  0  0  0  0  0  0
    1.1886   -3.4741    0.0000 H   0  0  0  0  0  0  0  0  0  0  0  0
    5.5099   -2.8405    0.0000 H   0  0  0  0  0  0  0  0  0  0  0  0
    4.3892   -1.6516    0.0000 H   0  0  0  0  0  0  0  0  0  0  0  0
    6.5541   -6.1749    0.0000 H   0  0  0  0  0  0  0  0  0  0  0  0
    7.2841   -3.8954    0.0000 H   0  0  0  0  0  0  0  0  0  0  0  0
    0.9935    1.3637    0.0000 H   0  0  0  0  0  0  0  0  0  0  0  0
   -0.9376    1.8741    0.0000 H   0  0  0  0  0  0  0  0  0  0  0  0
   -2.1086   -2.3783    0.0000 H   0  0  0  0  0  0  0  0  0  0  0  0
   -2.9135   -0.7857    0.0000 H   0  0  0  0  0  0  0  0  0  0  0  0
    0.7003   -0.5330    0.0000 H   0  0  0  0  0  0  0  0  0  0  0  0
    0.9610   -4.3172    0.0000 H   0  0  0  0  0  0  0  0  0  0  0  0
   -0.6290   -4.6934    0.0000 H   0  0  0  0  0  0  0  0  0  0  0  0
   -1.6220   -3.2107    0.0000 H   0  0  0  0  0  0  0  0  0  0  0  0
    1.8675   -3.4403    0.0000 H   0  0  0  0  0  0  0  0  0  0  0  0
    2.8437   -2.1301    0.0000 H   0  0  0  0  0  0  0  0  0  0  0  0
    1.1559   -0.5457    0.0000 H   0  0  0  0  0  0  0  0  0  0  0  0
   -1.3767    3.2983    0.0000 H   0  0  0  0  0  0  0  0  0  0  0  0
   -2.6630    2.1858    0.0000 H   0  0  0  0  0  0  0  0  0  0  0  0
   -3.1329    0.8425    0.0000 H   0  0  0  0  0  0  0  0  0  0  0  0
   -3.0311    0.2648    0.0000 H   0  0  0  0  0  0  0  0  0  0  0  0
   -3.5795   -0.6778    0.0000 H   0  0  0  0  0  0  0  0  0  0  0  0
   -3.6508   -0.8297    0.0000 H   0  0  0  0  0  0  0  0  0  0  0  0
   -4.2991   -2.0965    0.0000 H   0  0  0  0  0  0  0  0  0  0  0  0
   -4.5965   -2.5051    0.0000 H   0  0  0  0  0  0  0  0  0  0  0  0
   -5.4309   -3.4481    0.0000 H   0  0  0  0  0  0  0  0  0  0  0  0
   -5.8003   -3.7930    0.0000 H   0  0  0  0  0  0  0  0  0  0  0  0
   -6.7982   -4.5610    0.0000 H   0  0  0  0  0  0  0  0  0  0  0  0
   -7.2261   -4.8298    0.0000 H   0  0  0  0  0  0  0  0  0  0  0  0
   -8.5344   -5.3898    0.0000 H   0  0  0  0  0  0  0  0  0  0  0  0
   -9.3907   -5.8823    0.0000 H   0  0  0  0  0  0  0  0  0  0  0  0
   -1.3952    3.7957    0.0000 H   0  0  0  0  0  0  0  0  0  0  0  0
   -1.7890    5.3814    0.0000 H   0  0  0  0  0  0  0  0  0  0  0  0
   -3.5617    5.5851    0.0000 H   0  0  0  0  0  0  0  0  0  0  0  0
   -3.2962    6.7943    0.0000 H   0  0  0  0  0  0  0  0  0  0  0  0
   -3.9711    7.5602    0.0000 H   0  0  0  0  0  0  0  0  0  0  0  0
   -4.7865   10.5388    0.0000 H   0  0  0  0  0  0  0  0  0  0  0  0
   -6.2061    9.7299    0.0000 H   0  0  0  0  0  0  0  0  0  0  0  0
   -1.9241    8.8699    0.0000 H   0  0  0  0  0  0  0  0  0  0  0  0
   -3.1058    7.7416    0.0000 H   0  0  0  0  0  0  0  0  0  0  0  0
   -2.7028   12.0905    0.0000 H   0  0  0  0  0  0  0  0  0  0  0  0
   -4.1964   11.1141    0.0000 H   0  0  0  0  0  0  0  0  0  0  0  0
   -0.4041    9.5643    0.0000 H   0  0  0  0  0  0  0  0  0  0  0  0
    1.3777   13.6966    0.0000 H   0  0  0  0  0  0  0  0  0  0  0  0
   -1.0080   14.7253    0.0000 H   0  0  0  0  0  0  0  0  0  0  0  0
   -3.0918   13.1735    0.0000 H   0  0  0  0  0  0  0  0  0  0  0  0
   -6.7831   11.0006    0.0000 H   0  0  0  0  0  0  0  0  0  0  0  0
   -7.7161   11.3251    0.0000 H   0  0  0  0  0  0  0  0  0  0  0  0
   -9.7499   13.3151    0.0000 H   0  0  0  0  0  0  0  0  0  0  0  0
  -10.6716   11.7871    0.0000 H   0  0  0  0  0  0  0  0  0  0  0  0
   -8.2642   14.3603    0.0000 H   0  0  0  0  0  0  0  0  0  0  0  0
  -11.6612   12.5310    0.0000 H   0  0  0  0  0  0  0  0  0  0  0  0
  -12.8043   12.3127    0.0000 H   0  0  0  0  0  0  0  0  0  0  0  0
  -15.5911   12.8873    0.0000 H   0  0  0  0  0  0  0  0  0  0  0  0
  -15.5404   11.1035    0.0000 H   0  0  0  0  0  0  0  0  0  0  0  0
  -11.2993   12.7909    0.0000 H   0  0  0  0  0  0  0  0  0  0  0  0
  -10.5068   15.5152    0.0000 H   0  0  0  0  0  0  0  0  0  0  0  0
  -12.5192   17.7401    0.0000 H   0  0  0  0  0  0  0  0  0  0  0  0
  -15.4522   17.1098    0.0000 H   0  0  0  0  0  0  0  0  0  0  0  0
  -16.3729   14.2545    0.0000 H   0  0  0  0  0  0  0  0  0  0  0  0
  -16.7751   11.1943    0.0000 H   0  0  0  0  0  0  0  0  0  0  0  0
  -17.6187   10.3927    0.0000 H   0  0  0  0  0  0  0  0  0  0  0  0
  -20.2737    9.3694    0.0000 H   0  0  0  0  0  0  0  0  0  0  0  0
  -19.2667    7.8962    0.0000 H   0  0  0  0  0  0  0  0  0  0  0  0
  -16.6112   11.6086    0.0000 H   0  0  0  0  0  0  0  0  0  0  0  0
  -17.4173   14.3289    0.0000 H   0  0  0  0  0  0  0  0  0  0  0  0
  -20.3132   15.1126    0.0000 H   0  0  0  0  0  0  0  0  0  0  0  0
  -22.4398   12.9966    0.0000 H   0  0  0  0  0  0  0  0  0  0  0  0
  -21.6706   10.0969    0.0000 H   0  0  0  0  0  0  0  0  0  0  0  0
  -20.4423    7.1442    0.0000 H   0  0  0  0  0  0  0  0  0  0  0  0
  -20.6308    6.1746    0.0000 H   0  0  0  0  0  0  0  0  0  0  0  0
  -22.1271    5.6532    0.0000 H   0  0  0  0  0  0  0  0  0  0  0  0
  -22.3111    3.8783    0.0000 H   0  0  0  0  0  0  0  0  0  0  0  0
  -20.6675    3.1834    0.0000 H   0  0  0  0  0  0  0  0  0  0  0  0
  -21.2630    2.0980    0.0000 H   0  0  0  0  0  0  0  0  0  0  0  0
  -20.8312    1.1730    0.0000 H   0  0  0  0  0  0  0  0  0  0  0  0
  -20.8879   -1.9147    0.0000 H   0  0  0  0  0  0  0  0  0  0  0  0
  -19.2980   -1.5386    0.0000 H   0  0  0  0  0  0  0  0  0  0  0  0
  -21.7126    1.2427    0.0000 H   0  0  0  0  0  0  0  0  0  0  0  0
  -24.3174   -1.3339    0.0000 H   0  0  0  0  0  0  0  0  0  0  0  0
  -23.3245   -2.8165    0.0000 H   0  0  0  0  0  0  0  0  0  0  0  0
  -21.6163   -2.3005    0.0000 H   0  0  0  0  0  0  0  0  0  0  0  0
  -24.5418   -0.1005    0.0000 H   0  0  0  0  0  0  0  0  0  0  0  0
  -24.1347    1.6368    0.0000 H   0  0  0  0  0  0  0  0  0  0  0  0
  -22.2063    1.6473    0.0000 H   0  0  0  0  0  0  0  0  0  0  0  0
  -19.2121   -2.7736    0.0000 H   0  0  0  0  0  0  0  0  0  0  0  0
  -15.5272   -5.3168    0.0000 H   0  0  0  0  0  0  0  0  0  0  0  0
  -16.7037   -4.8682    0.0000 H   0  0  0  0  0  0  0  0  0  0  0  0
  -14.0388   -5.8783    0.0000 H   0  0  0  0  0  0  0  0  0  0  0  0
  -15.0993   -5.6244    0.0000 H   0  0  0  0  0  0  0  0  0  0  0  0
  -12.1219   -6.0424    0.0000 H   0  0  0  0  0  0  0  0  0  0  0  0
  -13.5435   -5.9791    0.0000 H   0  0  0  0  0  0  0  0  0  0  0  0
  -11.1470   -6.2018    0.0000 H   0  0  0  0  0  0  0  0  0  0  0  0
  -18.9230   -4.8584    0.0000 H   0  0  0  0  0  0  0  0  0  0  0  0
  -19.7985   -3.4789    0.0000 H   0  0  0  0  0  0  0  0  0  0  0  0
  -18.8944   -2.1180    0.0000 H   0  0  0  0  0  0  0  0  0  0  0  0
  -19.7455   -4.3231    0.0000 H   0  0  0  0  0  0  0  0  0  0  0  0
  -17.1299   -6.4816    0.0000 H   0  0  0  0  0  0  0  0  0  0  0  0
  -17.4715   -9.2799    0.0000 H   0  0  0  0  0  0  0  0  0  0  0  0
  -16.9090   -7.4355    0.0000 H   0  0  0  0  0  0  0  0  0  0  0  0
  -22.0466   -9.3626    0.0000 H   0  0  0  0  0  0  0  0  0  0  0  0
  -19.2452   -9.8023    0.0000 H   0  0  0  0  0  0  0  0  0  0  0  0
  -21.9087   -7.7628    0.0000 H   0  0  0  0  0  0  0  0  0  0  0  0
  -24.5029   -8.8660    0.0000 H   0  0  0  0  0  0  0  0  0  0  0  0
  -22.8864   -7.8147    0.0000 H   0  0  0  0  0  0  0  0  0  0  0  0
  -23.9301  -12.1295    0.0000 H   0  0  0  0  0  0  0  0  0  0  0  0
  -22.6870  -11.7007    0.0000 H   0  0  0  0  0  0  0  0  0  0  0  0
  -27.4241  -12.1366    0.0000 H   0  0  0  0  0  0  0  0  0  0  0  0
  -25.6573  -13.5745    0.0000 H   0  0  0  0  0  0  0  0  0  0  0  0
  -24.5136  -10.7150    0.0000 H   0  0  0  0  0  0  0  0  0  0  0  0
  -21.8164  -12.7095    0.0000 H   0  0  0  0  0  0  0  0  0  0  0  0
  -21.6773  -13.4995    0.0000 H   0  0  0  0  0  0  0  0  0  0  0  0
  -23.9145  -16.7658    0.0000 H   0  0  0  0  0  0  0  0  0  0  0  0
  -25.4526  -15.8611    0.0000 H   0  0  0  0  0  0  0  0  0  0  0  0
  -25.3847  -14.5479    0.0000 H   0  0  0  0  0  0  0  0  0  0  0  0
  -21.8197  -16.9692    0.0000 H   0  0  0  0  0  0  0  0  0  0  0  0
  -23.4566  -16.2587    0.0000 H   0  0  0  0  0  0  0  0  0  0  0  0
  -19.8424  -16.6858    0.0000 H   0  0  0  0  0  0  0  0  0  0  0  0
  -19.2798  -14.8413    0.0000 H   0  0  0  0  0  0  0  0  0  0  0  0
  -20.8179  -13.9366    0.0000 H   0  0  0  0  0  0  0  0  0  0  0  0
  -27.2735  -13.0612    0.0000 H   0  0  0  0  0  0  0  0  0  0  0  0
  1  2  1  0
  2  3  1  0
  3  4  2  0
  4  5  1  0
  5  6  2  0
  6  7  1  0
  7  8  2  0
  7  9  1  0
  9 10  1  0
 10 11  1  0
 11 12  2  0
  9 13  1  0
 13 14  1  0
 14 15  2  0
 15 16  1  0
 16 17  2  0
 17 18  1  0
 16 19  1  0
 14 20  1  0
 20 21  1  0
 21 22  2  0
 22 23  1  0
 23 24  2  0
 24 25  1  0
 25 26  2  0
 25 27  1  0
  1 28  2  0
  1 29  1  0
 29 30  1  0
 30 31  1  0
 31 32  1  0
 32 33  1  0
 33 34  1  0
 34 35  1  0
 35 36  1  0
 36 37  1  0
 37 38  1  0
 38 39  1  0
 39 40  1  0
 40 41  1  0
 41 42  1  0
 42 43  1  0
 43 44  1  0
 44 45  1  0
 45 46  1  0
 46 47  1  0
 47 48  1  0
 48 49  1  0
 49 50  1  0
 50 51  2  0
 50 52  1  0
 52 53  1  0
 53 54  1  0
 54 55  1  0
 55 56  1  0
 55 57  2  0
 53 58  1  0
 58 59  2  0
 58 60  1  0
 60 61  1  0
 61 62  1  0
 62 63  1  0
 63 64  1  0
 64 65  1  0
 64 66  2  0
 61 67  1  0
 67 68  2  0
 67 69  1  0
 69 70  1  0
 70 71  1  0
 71 72  1  0
 72 73  1  0
 72 74  1  0
 70 75  1  0
 75 76  2  0
 75 77  1  0
 78 77  1  6
 78 79  1  0
 79 80  1  0
 80 81  1  0
 81 82  1  0
 82 83  1  0
 83 84  1  0
 84 85  1  0
 78 86  1  0
 78 87  1  0
 87 88  2  0
 87 89  1  0
 89 90  1  0
 90 91  1  0
 91 92  1  0
 92 93  1  0
 93 94  1  0
 94 95  1  0
 95 96  2  3
 95 97  1  0
 90 98  1  0
 98 99  2  0
 98100  1  0
100101  1  0
101102  1  0
102103  1  0
101104  1  0
104105  2  0
104106  1  0
106107  1  0
107108  1  0
108109  1  0
109110  2  0
110111  1  0
111112  2  0
112113  1  0
113114  2  0
107115  1  0
115116  2  0
115117  1  0
117118  1  0
118119  1  0
119120  1  0
120121  2  0
121122  1  0
122123  2  0
123124  1  0
124125  2  0
118126  1  0
126127  2  0
126128  1  0
128129  1  0
129130  1  0
129131  1  0
131132  2  0
131133  1  0
133134  1  0
134135  1  0
135136  1  0
136137  1  0
136138  1  0
134139  1  0
139140  2  0
139141  1  0
141142  1  0
142143  1  0
143144  1  0
144145  1  0
145146  1  0
142147  1  0
142148  1  1
148149  2  0
148150  1  0
150151  1  0
151152  1  0
152153  1  0
153154  2  0
153155  1  0
151156  1  0
156157  2  0
156158  1  0
158159  1  0
159160  1  0
160161  1  0
161162  1  0
162163  1  0
162164  2  0
159165  1  0
165166  2  0
165167  1  0
167168  1  0
168169  1  0
169170  1  0
169171  1  0
171172  1  0
168173  1  0
173174  2  0
173175  1  0
  8  3  1  0
114109  1  0
125120  1  0
 11  6  1  0
 85146  2  0
 18 13  2  0
 22  9  1  0
 26 21  1  0
  2176  1  0
  4177  1  0
  5178  1  0
  8179  1  0
 15180  1  0
 17181  1  0
 18182  1  0
 19183  1  0
 23184  1  0
 24185  1  0
 26186  1  0
 27187  1  0
 29188  1  0
 30189  1  0
 30190  1  0
 31191  1  0
 31192  1  0
 33193  1  0
 33194  1  0
 34195  1  0
 34196  1  0
 36197  1  0
 36198  1  0
 37199  1  0
 37200  1  0
 39201  1  0
 39202  1  0
 40203  1  0
 40204  1  0
 42205  1  0
 42206  1  0
 43207  1  0
 43208  1  0
 45209  1  0
 45210  1  0
 46211  1  0
 46212  1  0
 48213  1  0
 48214  1  0
 49215  1  0
 49216  1  0
 52217  1  0
 53218  1  1
 54219  1  0
 54220  1  0
 56221  1  0
 56222  1  0
 60223  1  0
 61224  1  1
 62225  1  0
 62226  1  0
 63227  1  0
 63228  1  0
 65229  1  0
 65230  1  0
 69231  1  0
 70232  1  1
 71233  1  0
 71234  1  0
 72235  1  0
 73236  1  0
 73237  1  0
 73238  1  0
 74239  1  0
 74240  1  0
 74241  1  0
 77242  1  0
 79243  1  0
 79244  1  0
 80245  1  0
 80246  1  0
 81247  1  0
 81248  1  0
 82249  1  0
 82250  1  0
 83251  1  0
 83252  1  0
 84253  1  0
 84254  1  0
 85255  1  0
 86256  1  0
 86257  1  0
 86258  1  0
 89259  1  0
 90260  1  6
 91261  1  0
 91262  1  0
 92263  1  0
 92264  1  0
 93265  1  0
 93266  1  0
 94267  1  0
 96268  1  0
 97269  1  0
 97270  1  0
100271  1  0
101272  1  6
102273  1  0
102274  1  0
103275  1  0
106276  1  0
107277  1  6
108278  1  0
108279  1  0
110280  1  0
111281  1  0
112282  1  0
113283  1  0
114284  1  0
117285  1  0
118286  1  6
119287  1  0
119288  1  0
121289  1  0
122290  1  0
123291  1  0
124292  1  0
125293  1  0
128294  1  0
129295  1  6
130296  1  0
130297  1  0
130298  1  0
133299  1  0
134300  1  6
135301  1  0
135302  1  0
136303  1  0
137304  1  0
137305  1  0
137306  1  0
138307  1  0
138308  1  0
138309  1  0
141310  1  0
143311  1  0
143312  1  0
144313  1  0
144314  1  0
145315  1  0
145316  1  0
146317  1  0
147318  1  0
147319  1  0
147320  1  0
150321  1  0
151322  1  1
152323  1  0
152324  1  0
155325  1  0
158326  1  0
159327  1  6
160328  1  0
160329  1  0
161330  1  0
161331  1  0
163332  1  0
163333  1  0
167334  1  0
168335  1  1
169336  1  1
170337  1  0
170338  1  0
170339  1  0
171340  1  0
171341  1  0
172342  1  0
172343  1  0
172344  1  0
175345  1  0
M  END
