
     RDKit          2D

332339  0  0  0  0  0  0  0  0999 V2000
  -17.1488   -3.0030    0.0000 C   0  0  0  0  0  0  0  0  0  0  0  0
  -17.4758   -4.4669    0.0000 N   0  0  0  0  0  0  0  0  0  0  0  0
  -18.9071   -4.9157    0.0000 C   0  0  0  0  0  0  0  0  0  0  0  0
  -20.0114   -3.9005    0.0000 C   0  0  0  0  0  0  0  0  0  0  0  0
  -21.4427   -4.3492    0.0000 C   0  0  0  0  0  0  0  0  0  0  0  0
  -21.7697   -5.8132    0.0000 C   0  0  0  0  0  0  0  0  0  0  0  0
  -20.6654   -6.8283    0.0000 C   0  0  0  0  0  0  0  0  0  0  0  0
  -19.2341   -6.3796    0.0000 C   0  0  0  0  0  0  0  0  0  0  0  0
  -21.2897   -8.1923    0.0000 C   0  0  0  0  0  0  0  0  0  0  0  0
  -22.7798   -8.0201    0.0000 O   0  0  0  0  0  0  0  0  0  0  0  0
  -23.0764   -6.5497    0.0000 C   0  0  0  0  0  0  0  0  0  0  0  0
  -24.4404   -5.9254    0.0000 O   0  0  0  0  0  0  0  0  0  0  0  0
  -22.0531   -9.4835    0.0000 C   0  0  0  0  0  0  0  0  0  0  0  0
  -21.3166  -10.7902    0.0000 C   0  0  0  0  0  0  0  0  0  0  0  0
  -22.0800  -12.0814    0.0000 C   0  0  0  0  0  0  0  0  0  0  0  0
  -23.5799  -12.0659    0.0000 C   0  0  0  0  0  0  0  0  0  0  0  0
  -24.3164  -10.7592    0.0000 C   0  0  0  0  0  0  0  0  0  0  0  0
  -23.5530   -9.4680    0.0000 C   0  0  0  0  0  0  0  0  0  0  0  0
  -24.3433  -13.3571    0.0000 O   0  0  0  0  0  0  0  0  0  0  0  0
  -19.8166  -10.8057    0.0000 O   0  0  0  0  0  0  0  0  0  0  0  0
  -19.0532   -9.5145    0.0000 C   0  0  0  0  0  0  0  0  0  0  0  0
  -19.7898   -8.2078    0.0000 C   0  0  0  0  0  0  0  0  0  0  0  0
  -18.6827   -7.5264    0.0000 C   0  0  0  0  0  0  0  0  0  0  0  0
  -17.8827   -7.5347    0.0000 C   0  0  0  0  0  0  0  0  0  0  0  0
  -17.4899   -8.2316    0.0000 C   0  0  0  0  0  0  0  0  0  0  0  0
  -17.8970   -8.9202    0.0000 C   0  0  0  0  0  0  0  0  0  0  0  0
  -15.2900   -8.2544    0.0000 O   0  0  0  0  0  0  0  0  0  0  0  0
  -18.2530   -1.9878    0.0000 S   0  0  0  0  0  0  0  0  0  0  0  0
  -15.7175   -2.5543    0.0000 N   0  0  0  0  0  0  0  0  0  0  0  0
  -15.3904   -1.0904    0.0000 C   0  0  0  0  0  0  0  0  0  0  0  0
  -13.9591   -0.6416    0.0000 C   0  0  0  0  0  0  0  0  0  0  0  0
  -13.6321    0.8223    0.0000 C   0  0  0  0  0  0  0  0  0  0  0  0
  -14.3320    1.2038    0.0000 O   0  0  0  0  0  0  0  0  0  0  0  0
  -12.2008    1.2710    0.0000 N   0  0  0  0  0  0  0  0  0  0  0  0
  -11.8738    2.7349    0.0000 C   0  0  0  0  0  0  0  0  0  0  0  0
  -13.3722    2.8028    0.0000 C   0  0  0  0  0  0  0  0  0  0  0  0
  -14.1802    1.5390    0.0000 C   0  0  0  0  0  0  0  0  0  0  0  0
  -15.6787    1.6069    0.0000 C   0  0  0  0  0  0  0  0  0  0  0  0
  -16.4867    0.3431    0.0000 N   0  0  0  0  0  0  0  0  0  0  0  0
  -17.9851    0.4110    0.0000 C   0  0  0  0  0  0  0  0  0  0  0  0
  -18.7931   -0.8528    0.0000 N   0  0  0  0  0  0  0  0  0  0  0  0
  -18.6756    1.7426    0.0000 N   0  0  0  0  0  0  0  0  0  0  0  0
  -11.0658    3.9987    0.0000 C   0  0  0  0  0  0  0  0  0  0  0  0
  -12.0579    5.1237    0.0000 O   0  0  0  0  0  0  0  0  0  0  0  0
   -9.5673    3.9309    0.0000 N   0  0  0  0  0  0  0  0  0  0  0  0
   -8.7593    5.1946    0.0000 C   0  0  0  0  0  0  0  0  0  0  0  0
  -10.1442    5.7709    0.0000 C   0  0  0  0  0  0  0  0  0  0  0  0
  -11.3357    4.8597    0.0000 C   0  0  0  0  0  0  0  0  0  0  0  0
  -12.7206    5.4360    0.0000 C   0  0  0  0  0  0  0  0  0  0  0  0
  -13.9121    4.5248    0.0000 N   0  0  0  0  0  0  0  0  0  0  0  0
  -15.2970    5.1010    0.0000 C   0  0  0  0  0  0  0  0  0  0  0  0
  -16.4885    4.1898    0.0000 N   0  0  0  0  0  0  0  0  0  0  0  0
  -15.4903    6.5885    0.0000 N   0  0  0  0  0  0  0  0  0  0  0  0
   -7.5678    6.1059    0.0000 C   0  0  0  0  0  0  0  0  0  0  0  0
   -8.1153    7.5023    0.0000 O   0  0  0  0  0  0  0  0  0  0  0  0
   -6.1829    5.5296    0.0000 N   0  0  0  0  0  0  0  0  0  0  0  0
   -4.9914    6.4408    0.0000 C   0  0  0  0  0  0  0  0  0  0  0  0
   -6.0957    7.4560    0.0000 C   0  0  0  0  0  0  0  0  0  0  0  0
   -7.5270    7.0072    0.0000 C   0  0  0  0  0  0  0  0  0  0  0  0
   -8.6312    8.0224    0.0000 C   0  0  0  0  0  0  0  0  0  0  0  0
  -10.0625    7.5737    0.0000 N   0  0  0  0  0  0  0  0  0  0  0  0
  -11.1668    8.5888    0.0000 C   0  0  0  0  0  0  0  0  0  0  0  0
  -12.5981    8.1401    0.0000 N   0  0  0  0  0  0  0  0  0  0  0  0
  -10.8398   10.0528    0.0000 N   0  0  0  0  0  0  0  0  0  0  0  0
   -3.5601    6.8895    0.0000 C   0  0  0  0  0  0  0  0  0  0  0  0
   -3.5970    8.3891    0.0000 O   0  0  0  0  0  0  0  0  0  0  0  0
   -2.4558    5.8744    0.0000 N   0  0  0  0  0  0  0  0  0  0  0  0
   -1.0245    6.3231    0.0000 C   0  0  0  0  0  0  0  0  0  0  0  0
   -1.7150    7.6547    0.0000 C   0  0  0  0  0  0  0  0  0  0  0  0
   -3.2134    7.7226    0.0000 C   0  0  0  0  0  0  0  0  0  0  0  0
   -3.9039    9.0542    0.0000 C   0  0  0  0  0  0  0  0  0  0  0  0
   -5.4024    9.1221    0.0000 N   0  0  0  0  0  0  0  0  0  0  0  0
   -6.0928   10.4537    0.0000 C   0  0  0  0  0  0  0  0  0  0  0  0
   -7.5913   10.5216    0.0000 N   0  0  0  0  0  0  0  0  0  0  0  0
   -5.2848   11.7175    0.0000 N   0  0  0  0  0  0  0  0  0  0  0  0
    0.4740    6.2553    0.0000 C   0  0  0  0  0  0  0  0  0  0  0  0
    1.1219    7.6081    0.0000 O   0  0  0  0  0  0  0  0  0  0  0  0
    1.1644    4.9236    0.0000 N   0  0  0  0  0  0  0  0  0  0  0  0
    2.6629    4.8558    0.0000 C   0  0  0  0  0  0  0  0  0  0  0  0
    3.6955    5.9438    0.0000 C   0  0  0  0  0  0  0  0  0  0  0  0
    4.9927    6.6968    0.0000 C   0  0  0  0  0  0  0  0  0  0  0  0
    6.4496    7.0539    0.0000 C   0  0  0  0  0  0  0  0  0  0  0  0
    7.9481    6.9860    0.0000 C   0  0  0  0  0  0  0  0  0  0  0  0
    1.9367    6.1683    0.0000 C   0  0  0  0  0  0  0  0  0  0  0  0
    1.9787    3.5209    0.0000 C   0  0  0  0  0  0  0  0  0  0  0  0
    0.5112    3.8316    0.0000 O   0  0  0  0  0  0  0  0  0  0  0  0
    1.6983    2.0473    0.0000 N   0  0  0  0  0  0  0  0  0  0  0  0
    1.8443    0.5545    0.0000 C   0  0  0  0  0  0  0  0  0  0  0  0
    0.4257    1.0417    0.0000 C   0  0  0  0  0  0  0  0  0  0  0  0
   -0.7056    0.0568    0.0000 C   0  0  0  0  0  0  0  0  0  0  0  0
   -2.1243    0.5441    0.0000 C   0  0  0  0  0  0  0  0  0  0  0  0
   -3.2556   -0.4409    0.0000 N   0  0  0  0  0  0  0  0  0  0  0  0
   -4.6742    0.0464    0.0000 C   0  0  0  0  0  0  0  0  0  0  0  0
   -5.8055   -0.9386    0.0000 N   0  0  0  0  0  0  0  0  0  0  0  0
   -4.9616    1.5186    0.0000 N   0  0  0  0  0  0  0  0  0  0  0  0
    2.4051   -0.8368    0.0000 C   0  0  0  0  0  0  0  0  0  0  0  0
    1.1078   -1.5898    0.0000 O   0  0  0  0  0  0  0  0  0  0  0  0
    3.3351   -2.0137    0.0000 N   0  0  0  0  0  0  0  0  0  0  0  0
    4.5590   -2.8809    0.0000 C   0  0  0  0  0  0  0  0  0  0  0  0
    3.2617   -3.6339    0.0000 C   0  0  0  0  0  0  0  0  0  0  0  0
    3.2653   -5.1339    0.0000 C   0  0  0  0  0  0  0  0  0  0  0  0
    1.9680   -5.8870    0.0000 C   0  0  0  0  0  0  0  0  0  0  0  0
    1.9715   -7.3870    0.0000 N   0  0  0  0  0  0  0  0  0  0  0  0
    0.6742   -8.1400    0.0000 C   0  0  0  0  0  0  0  0  0  0  0  0
    0.6777   -9.6400    0.0000 N   0  0  0  0  0  0  0  0  0  0  0  0
   -0.6266   -7.3931    0.0000 N   0  0  0  0  0  0  0  0  0  0  0  0
    5.9777   -3.3682    0.0000 C   0  0  0  0  0  0  0  0  0  0  0  0
    5.6972   -4.8417    0.0000 O   0  0  0  0  0  0  0  0  0  0  0  0
    7.4761   -3.4360    0.0000 N   0  0  0  0  0  0  0  0  0  0  0  0
    8.9330   -3.0790    0.0000 C   0  0  0  0  0  0  0  0  0  0  0  0
    8.6526   -4.5525    0.0000 C   0  0  0  0  0  0  0  0  0  0  0  0
    9.7885   -5.5321    0.0000 C   0  0  0  0  0  0  0  0  0  0  0  0
    9.5081   -7.0057    0.0000 C   0  0  0  0  0  0  0  0  0  0  0  0
   10.6440   -7.9853    0.0000 N   0  0  0  0  0  0  0  0  0  0  0  0
   10.3636   -9.4589    0.0000 C   0  0  0  0  0  0  0  0  0  0  0  0
   11.4995  -10.4385    0.0000 N   0  0  0  0  0  0  0  0  0  0  0  0
    8.9473   -9.9528    0.0000 N   0  0  0  0  0  0  0  0  0  0  0  0
   10.2303   -2.3259    0.0000 C   0  0  0  0  0  0  0  0  0  0  0  0
   11.1603   -3.5028    0.0000 O   0  0  0  0  0  0  0  0  0  0  0  0
   11.2629   -1.2379    0.0000 N   0  0  0  0  0  0  0  0  0  0  0  0
   11.4070    1.4368    0.0000 C   0  0  0  0  0  0  0  0  0  0  0  0
   11.6873    2.9104    0.0000 C   0  0  0  0  0  0  0  0  0  0  0  0
   12.4092    4.2252    0.0000 C   0  0  0  0  0  0  0  0  0  0  0  0
   10.9116    4.1407    0.0000 C   0  0  0  0  0  0  0  0  0  0  0  0
    9.7100    5.0386    0.0000 N   0  0  0  0  0  0  0  0  0  0  0  0
    9.3667    6.4988    0.0000 C   0  0  0  0  0  0  0  0  0  0  0  0
   10.0423    7.8380    0.0000 C   0  0  0  0  0  0  0  0  0  0  0  0
   11.4207    8.4297    0.0000 C   0  0  0  0  0  0  0  0  0  0  0  0
   12.8569    7.9969    0.0000 C   0  0  0  0  0  0  0  0  0  0  0  0
   13.6789    6.7422    0.0000 C   0  0  0  0  0  0  0  0  0  0  0  0
   13.5021    5.2526    0.0000 C   0  0  0  0  0  0  0  0  0  0  0  0
   11.5958   -0.0513    0.0000 C   0  0  0  0  0  0  0  0  0  0  0  0
   10.1556   -0.4705    0.0000 O   0  0  0  0  0  0  0  0  0  0  0  0
   12.2352   -1.4082    0.0000 N   0  0  0  0  0  0  0  0  0  0  0  0
   13.2626   -2.5011    0.0000 C   0  0  0  0  0  0  0  0  0  0  0  0
   11.8463   -2.9951    0.0000 C   0  0  0  0  0  0  0  0  0  0  0  0
   11.5661   -4.4687    0.0000 C   0  0  0  0  0  0  0  0  0  0  0  0
   10.1498   -4.9628    0.0000 C   0  0  0  0  0  0  0  0  0  0  0  0
    9.8695   -6.4364    0.0000 N   0  0  0  0  0  0  0  0  0  0  0  0
    8.4532   -6.9304    0.0000 C   0  0  0  0  0  0  0  0  0  0  0  0
    7.8247   -8.2924    0.0000 N   0  0  0  0  0  0  0  0  0  0  0  0
    7.2062   -6.0967    0.0000 N   0  0  0  0  0  0  0  0  0  0  0  0
   14.5775   -3.2230    0.0000 C   0  0  0  0  0  0  0  0  0  0  0  0
   14.0701   -4.6346    0.0000 O   0  0  0  0  0  0  0  0  0  0  0  0
   16.0511   -3.5033    0.0000 N   0  0  0  0  0  0  0  0  0  0  0  0
   17.5391   -3.3145    0.0000 C   0  0  0  0  0  0  0  0  0  0  0  0
   17.1064   -4.7507    0.0000 C   0  0  0  0  0  0  0  0  0  0  0  0
   18.1338   -5.8436    0.0000 C   0  0  0  0  0  0  0  0  0  0  0  0
   17.7010   -7.2798    0.0000 C   0  0  0  0  0  0  0  0  0  0  0  0
   18.7284   -8.3727    0.0000 N   0  0  0  0  0  0  0  0  0  0  0  0
   18.2956   -9.8089    0.0000 C   0  0  0  0  0  0  0  0  0  0  0  0
   19.3230  -10.9018    0.0000 N   0  0  0  0  0  0  0  0  0  0  0  0
   16.8354  -10.1522    0.0000 N   0  0  0  0  0  0  0  0  0  0  0  0
   18.8960   -2.6751    0.0000 C   0  0  0  0  0  0  0  0  0  0  0  0
   19.7398   -3.9153    0.0000 O   0  0  0  0  0  0  0  0  0  0  0  0
   19.9889   -1.6477    0.0000 N   0  0  0  0  0  0  0  0  0  0  0  0
   20.7109   -0.3328    0.0000 C   0  0  0  0  0  0  0  0  0  0  0  0
   20.9911    1.1407    0.0000 C   0  0  0  0  0  0  0  0  0  0  0  0
   20.8023    2.6288    0.0000 C   0  0  0  0  0  0  0  0  0  0  0  0
   20.1629    3.9857    0.0000 C   0  0  0  0  0  0  0  0  0  0  0  0
   19.1355    5.0786    0.0000 C   0  0  0  0  0  0  0  0  0  0  0  0
   17.8207    5.8005    0.0000 C   0  0  0  0  0  0  0  0  0  0  0  0
   16.3471    6.0808    0.0000 C   0  0  0  0  0  0  0  0  0  0  0  0
   14.8590    5.8920    0.0000 C   0  0  0  0  0  0  0  0  0  0  0  0
   22.2020   -0.1701    0.0000 C   0  0  0  0  0  0  0  0  0  0  0  0
   21.6184   -1.5271    0.0000 C   0  0  0  0  0  0  0  0  0  0  0  0
   23.1184   -1.5211    0.0000 O   0  0  0  0  0  0  0  0  0  0  0  0
   21.2108   -2.9707    0.0000 O   0  0  0  0  0  0  0  0  0  0  0  0
  -16.2560   -5.3399    0.0000 H   0  0  0  0  0  0  0  0  0  0  0  0
  -19.6843   -2.4366    0.0000 H   0  0  0  0  0  0  0  0  0  0  0  0
  -22.5469   -3.3341    0.0000 H   0  0  0  0  0  0  0  0  0  0  0  0
  -17.9170   -7.0974    0.0000 H   0  0  0  0  0  0  0  0  0  0  0  0
  -21.3434  -13.3881    0.0000 H   0  0  0  0  0  0  0  0  0  0  0  0
  -25.8163  -10.7436    0.0000 H   0  0  0  0  0  0  0  0  0  0  0  0
  -24.2895   -8.1612    0.0000 H   0  0  0  0  0  0  0  0  0  0  0  0
  -25.8432  -13.3416    0.0000 H   0  0  0  0  0  0  0  0  0  0  0  0
  -19.7629   -5.6099    0.0000 H   0  0  0  0  0  0  0  0  0  0  0  0
  -16.6113   -5.7436    0.0000 H   0  0  0  0  0  0  0  0  0  0  0  0
  -16.8168  -10.8368    0.0000 H   0  0  0  0  0  0  0  0  0  0  0  0
  -14.5535   -9.5611    0.0000 H   0  0  0  0  0  0  0  0  0  0  0  0
  -14.6132   -3.5695    0.0000 H   0  0  0  0  0  0  0  0  0  0  0  0
  -16.8889   -1.0225    0.0000 H   0  0  0  0  0  0  0  0  0  0  0  0
  -15.9380    0.3061    0.0000 H   0  0  0  0  0  0  0  0  0  0  0  0
  -13.7657   -2.1291    0.0000 H   0  0  0  0  0  0  0  0  0  0  0  0
  -12.4607   -0.7095    0.0000 H   0  0  0  0  0  0  0  0  0  0  0  0
  -11.0965    0.2559    0.0000 H   0  0  0  0  0  0  0  0  0  0  0  0
  -10.4889    2.1587    0.0000 H   0  0  0  0  0  0  0  0  0  0  0  0
  -14.6765    3.5436    0.0000 H   0  0  0  0  0  0  0  0  0  0  0  0
  -13.4091    4.3023    0.0000 H   0  0  0  0  0  0  0  0  0  0  0  0
  -14.5072    0.0751    0.0000 H   0  0  0  0  0  0  0  0  0  0  0  0
  -12.9759    0.6448    0.0000 H   0  0  0  0  0  0  0  0  0  0  0  0
  -17.0636    2.1831    0.0000 H   0  0  0  0  0  0  0  0  0  0  0  0
  -15.5325    3.0997    0.0000 H   0  0  0  0  0  0  0  0  0  0  0  0
  -16.1389   -1.1160    0.0000 H   0  0  0  0  0  0  0  0  0  0  0  0
  -20.2916   -0.7850    0.0000 H   0  0  0  0  0  0  0  0  0  0  0  0
  -20.1741    1.8104    0.0000 H   0  0  0  0  0  0  0  0  0  0  0  0
  -17.8676    3.0064    0.0000 H   0  0  0  0  0  0  0  0  0  0  0  0
   -8.8768    2.5992    0.0000 H   0  0  0  0  0  0  0  0  0  0  0  0
   -7.6550    4.1795    0.0000 H   0  0  0  0  0  0  0  0  0  0  0  0
  -11.1165    6.9131    0.0000 H   0  0  0  0  0  0  0  0  0  0  0  0
   -9.6660    7.1927    0.0000 H   0  0  0  0  0  0  0  0  0  0  0  0
  -12.1437    3.5959    0.0000 H   0  0  0  0  0  0  0  0  0  0  0  0
  -10.5099    3.6075    0.0000 H   0  0  0  0  0  0  0  0  0  0  0  0
  -13.8248    6.4511    0.0000 H   0  0  0  0  0  0  0  0  0  0  0  0
  -12.0727    6.7888    0.0000 H   0  0  0  0  0  0  0  0  0  0  0  0
  -14.0844    3.0347    0.0000 H   0  0  0  0  0  0  0  0  0  0  0  0
  -17.8734    4.7661    0.0000 H   0  0  0  0  0  0  0  0  0  0  0  0
  -16.8752    7.1648    0.0000 H   0  0  0  0  0  0  0  0  0  0  0  0
  -14.2988    7.4997    0.0000 H   0  0  0  0  0  0  0  0  0  0  0  0
   -5.9895    4.0421    0.0000 H   0  0  0  0  0  0  0  0  0  0  0  0
   -4.3009    5.1092    0.0000 H   0  0  0  0  0  0  0  0  0  0  0  0
   -6.6187    8.8619    0.0000 H   0  0  0  0  0  0  0  0  0  0  0  0
   -5.1601    8.6284    0.0000 H   0  0  0  0  0  0  0  0  0  0  0  0
   -8.7185    6.0960    0.0000 H   0  0  0  0  0  0  0  0  0  0  0  0
   -7.1792    5.5481    0.0000 H   0  0  0  0  0  0  0  0  0  0  0  0
   -9.3217    9.3541    0.0000 H   0  0  0  0  0  0  0  0  0  0  0  0
   -7.5597    9.0721    0.0000 H   0  0  0  0  0  0  0  0  0  0  0  0
  -10.7341    6.2324    0.0000 H   0  0  0  0  0  0  0  0  0  0  0  0
  -13.7024    9.1553    0.0000 H   0  0  0  0  0  0  0  0  0  0  0  0
  -11.9441   11.0679    0.0000 H   0  0  0  0  0  0  0  0  0  0  0  0
   -9.4085   10.5015    0.0000 H   0  0  0  0  0  0  0  0  0  0  0  0
   -2.7828    4.4105    0.0000 H   0  0  0  0  0  0  0  0  0  0  0  0
   -0.8311    4.8356    0.0000 H   0  0  0  0  0  0  0  0  0  0  0  0
   -1.7256    9.1547    0.0000 H   0  0  0  0  0  0  0  0  0  0  0  0
   -0.2837    8.1035    0.0000 H   0  0  0  0  0  0  0  0  0  0  0  0
   -4.6447    7.2739    0.0000 H   0  0  0  0  0  0  0  0  0  0  0  0
   -3.3857    6.2325    0.0000 H   0  0  0  0  0  0  0  0  0  0  0  0
   -4.0973   10.5417    0.0000 H   0  0  0  0  0  0  0  0  0  0  0  0
   -2.5380    9.6741    0.0000 H   0  0  0  0  0  0  0  0  0  0  0  0
   -6.4922    8.0914    0.0000 H   0  0  0  0  0  0  0  0  0  0  0  0
   -8.2818   11.8532    0.0000 H   0  0  0  0  0  0  0  0  0  0  0  0
   -5.9753   13.0491    0.0000 H   0  0  0  0  0  0  0  0  0  0  0  0
   -3.7864   11.6497    0.0000 H   0  0  0  0  0  0  0  0  0  0  0  0
    0.2084    3.7678    0.0000 H   0  0  0  0  0  0  0  0  0  0  0  0
    3.5494    7.4367    0.0000 H   0  0  0  0  0  0  0  0  0  0  0  0
    2.3468    6.6004    0.0000 H   0  0  0  0  0  0  0  0  0  0  0  0
    5.0914    8.1936    0.0000 H   0  0  0  0  0  0  0  0  0  0  0  0
    3.8837    7.7068    0.0000 H   0  0  0  0  0  0  0  0  0  0  0  0
    7.1338    8.3888    0.0000 H   0  0  0  0  0  0  0  0  0  0  0  0
    5.6700    8.3354    0.0000 H   0  0  0  0  0  0  0  0  0  0  0  0
    8.2285    8.4596    0.0000 H   0  0  0  0  0  0  0  0  0  0  0  0
    0.7260    6.7678    0.0000 H   0  0  0  0  0  0  0  0  0  0  0  0
    2.2425    7.7204    0.0000 H   0  0  0  0  0  0  0  0  0  0  0  0
    3.3215    7.1171    0.0000 H   0  0  0  0  0  0  0  0  0  0  0  0
    0.1998    2.1152    0.0000 H   0  0  0  0  0  0  0  0  0  0  0  0
    0.9521   -0.6513    0.0000 H   0  0  0  0  0  0  0  0  0  0  0  0
   -0.6171    2.1200    0.0000 H   0  0  0  0  0  0  0  0  0  0  0  0
    0.8127    2.4909    0.0000 H   0  0  0  0  0  0  0  0  0  0  0  0
   -1.4318   -1.2557    0.0000 H   0  0  0  0  0  0  0  0  0  0  0  0
    0.3372   -1.0214    0.0000 H   0  0  0  0  0  0  0  0  0  0  0  0
   -3.2907    1.4872    0.0000 H   0  0  0  0  0  0  0  0  0  0  0  0
   -1.5635    1.9353    0.0000 H   0  0  0  0  0  0  0  0  0  0  0  0
   -2.9682   -1.9131    0.0000 H   0  0  0  0  0  0  0  0  0  0  0  0
   -7.2242   -0.4513    0.0000 H   0  0  0  0  0  0  0  0  0  0  0  0
   -6.3802    2.0059    0.0000 H   0  0  0  0  0  0  0  0  0  0  0  0
   -3.8302    2.5036    0.0000 H   0  0  0  0  0  0  0  0  0  0  0  0
    2.3025   -3.1017    0.0000 H   0  0  0  0  0  0  0  0  0  0  0  0
    4.8860   -4.3448    0.0000 H   0  0  0  0  0  0  0  0  0  0  0  0
    1.7640   -3.7159    0.0000 H   0  0  0  0  0  0  0  0  0  0  0  0
    2.4200   -2.3924    0.0000 H   0  0  0  0  0  0  0  0  0  0  0  0
    3.7816   -6.5423    0.0000 H   0  0  0  0  0  0  0  0  0  0  0  0
    4.7630   -5.0519    0.0000 H   0  0  0  0  0  0  0  0  0  0  0  0
    0.4914   -6.1509    0.0000 H   0  0  0  0  0  0  0  0  0  0  0  0
    1.2838   -4.5521    0.0000 H   0  0  0  0  0  0  0  0  0  0  0  0
    3.2723   -8.1339    0.0000 H   0  0  0  0  0  0  0  0  0  0  0  0
   -0.6195  -10.3931    0.0000 H   0  0  0  0  0  0  0  0  0  0  0  0
   -1.9238   -8.1461    0.0000 H   0  0  0  0  0  0  0  0  0  0  0  0
   -0.6301   -5.8931    0.0000 H   0  0  0  0  0  0  0  0  0  0  0  0
    7.8031   -4.8999    0.0000 H   0  0  0  0  0  0  0  0  0  0  0  0
   10.3304   -3.6243    0.0000 H   0  0  0  0  0  0  0  0  0  0  0  0
    7.5961   -5.6173    0.0000 H   0  0  0  0  0  0  0  0  0  0  0  0
    7.1957   -4.1954    0.0000 H   0  0  0  0  0  0  0  0  0  0  0  0
   11.1157   -6.2312    0.0000 H   0  0  0  0  0  0  0  0  0  0  0  0
   10.7074   -4.3465    0.0000 H   0  0  0  0  0  0  0  0  0  0  0  0
    8.9034   -8.3784    0.0000 H   0  0  0  0  0  0  0  0  0  0  0  0
    8.0081   -7.0117    0.0000 H   0  0  0  0  0  0  0  0  0  0  0  0
   12.0604   -7.4914    0.0000 H   0  0  0  0  0  0  0  0  0  0  0  0
   11.2191  -11.9121    0.0000 H   0  0  0  0  0  0  0  0  0  0  0  0
    8.6668  -11.4264    0.0000 H   0  0  0  0  0  0  0  0  0  0  0  0
    7.7004   -9.1189    0.0000 H   0  0  0  0  0  0  0  0  0  0  0  0
   12.2405   -2.3755    0.0000 H   0  0  0  0  0  0  0  0  0  0  0  0
    9.9077    1.4831    0.0000 H   0  0  0  0  0  0  0  0  0  0  0  0
   10.5177    3.8496    0.0000 H   0  0  0  0  0  0  0  0  0  0  0  0
   10.2799    2.3916    0.0000 H   0  0  0  0  0  0  0  0  0  0  0  0
   10.3070    2.7679    0.0000 H   0  0  0  0  0  0  0  0  0  0  0  0
    8.4553    4.2166    0.0000 H   0  0  0  0  0  0  0  0  0  0  0  0
    9.0149    8.9309    0.0000 H   0  0  0  0  0  0  0  0  0  0  0  0
   11.3362    9.9273    0.0000 H   0  0  0  0  0  0  0  0  0  0  0  0
   13.7548    9.1985    0.0000 H   0  0  0  0  0  0  0  0  0  0  0  0
   15.0127    7.4286    0.0000 H   0  0  0  0  0  0  0  0  0  0  0  0
   11.2361   -2.5270    0.0000 H   0  0  0  0  0  0  0  0  0  0  0  0
   13.3211   -3.9999    0.0000 H   0  0  0  0  0  0  0  0  0  0  0  0
   10.3552   -3.1580    0.0000 H   0  0  0  0  0  0  0  0  0  0  0  0
   10.9387   -1.8009    0.0000 H   0  0  0  0  0  0  0  0  0  0  0  0
   11.9854   -5.9089    0.0000 H   0  0  0  0  0  0  0  0  0  0  0  0
   13.0523   -4.6715    0.0000 H   0  0  0  0  0  0  0  0  0  0  0  0
    8.6896   -5.3062    0.0000 H   0  0  0  0  0  0  0  0  0  0  0  0
    9.9091   -3.4822    0.0000 H   0  0  0  0  0  0  0  0  0  0  0  0
   11.2088   -7.1119    0.0000 H   0  0  0  0  0  0  0  0  0  0  0  0
    6.7566   -8.8981    0.0000 H   0  0  0  0  0  0  0  0  0  0  0  0
    5.9009   -6.4450    0.0000 H   0  0  0  0  0  0  0  0  0  0  0  0
    7.5974   -4.4773    0.0000 H   0  0  0  0  0  0  0  0  0  0  0  0
   16.0048   -5.0026    0.0000 H   0  0  0  0  0  0  0  0  0  0  0  0
   18.7861   -4.1482    0.0000 H   0  0  0  0  0  0  0  0  0  0  0  0
   16.0687   -5.8339    0.0000 H   0  0  0  0  0  0  0  0  0  0  0  0
   15.6434   -4.4192    0.0000 H   0  0  0  0  0  0  0  0  0  0  0  0
   19.4730   -6.5192    0.0000 H   0  0  0  0  0  0  0  0  0  0  0  0
   19.1714   -4.7604    0.0000 H   0  0  0  0  0  0  0  0  0  0  0  0
   16.8031   -8.4814    0.0000 H   0  0  0  0  0  0  0  0  0  0  0  0
   16.2894   -6.7725    0.0000 H   0  0  0  0  0  0  0  0  0  0  0  0
   20.1886   -8.0294    0.0000 H   0  0  0  0  0  0  0  0  0  0  0  0
   18.8903  -12.3380    0.0000 H   0  0  0  0  0  0  0  0  0  0  0  0
   16.4027  -11.5884    0.0000 H   0  0  0  0  0  0  0  0  0  0  0  0
   15.8080   -9.0593    0.0000 H   0  0  0  0  0  0  0  0  0  0  0  0
   21.0538   -2.7041    0.0000 H   0  0  0  0  0  0  0  0  0  0  0  0
   22.3184    0.4419    0.0000 H   0  0  0  0  0  0  0  0  0  0  0  0
   22.2738    1.9185    0.0000 H   0  0  0  0  0  0  0  0  0  0  0  0
   22.2806    2.3743    0.0000 H   0  0  0  0  0  0  0  0  0  0  0  0
   21.9130    3.6370    0.0000 H   0  0  0  0  0  0  0  0  0  0  0  0
   21.6475    4.2005    0.0000 H   0  0  0  0  0  0  0  0  0  0  0  0
   20.9077    5.2877    0.0000 H   0  0  0  0  0  0  0  0  0  0  0  0
   20.4810    5.7416    0.0000 H   0  0  0  0  0  0  0  0  0  0  0  0
   19.4415    6.5471    0.0000 H   0  0  0  0  0  0  0  0  0  0  0  0
   18.8955    6.8469    0.0000 H   0  0  0  0  0  0  0  0  0  0  0  0
   17.6579    7.2917    0.0000 H   0  0  0  0  0  0  0  0  0  0  0  0
   17.0459    7.4081    0.0000 H   0  0  0  0  0  0  0  0  0  0  0  0
   15.7315    7.4487    0.0000 H   0  0  0  0  0  0  0  0  0  0  0  0
   14.6185    7.3726    0.0000 H   0  0  0  0  0  0  0  0  0  0  0  0
   23.3022   -0.9542    0.0000 H   0  0  0  0  0  0  0  0  0  0  0  0
   23.4257    0.8325    0.0000 H   0  0  0  0  0  0  0  0  0  0  0  0
   22.1796    1.5084    0.0000 H   0  0  0  0  0  0  0  0  0  0  0  0
   21.9454   -4.1046    0.0000 H   0  0  0  0  0  0  0  0  0  0  0  0
  1  2  1  0
  2  3  1  0
  3  4  2  0
  4  5  1  0
  5  6  2  0
  6  7  1  0
  7  8  2  0
  7  9  1  0
  9 10  1  0
 10 11  1  0
 11 12  2  0
  9 13  1  0
 13 14  1  0
 14 15  2  0
 15 16  1  0
 16 17  2  0
 17 18  1  0
 16 19  1  0
 14 20  1  0
 20 21  1  0
 21 22  2  0
 22 23  1  0
 23 24  2  0
 24 25  1  0
 25 26  2  0
 25 27  1  0
  1 28  2  0
  1 29  1  0
 29 30  1  0
 30 31  1  0
 31 32  1  0
 32 33  2  0
 32 34  1  0
 34 35  1  0
 35 36  1  0
 36 37  1  0
 37 38  1  0
 38 39  1  0
 39 40  1  0
 40 41  2  3
 40 42  1  0
 35 43  1  0
 43 44  2  0
 43 45  1  0
 45 46  1  0
 46 47  1  0
 47 48  1  0
 48 49  1  0
 49 50  1  0
 50 51  1  0
 51 52  2  3
 51 53  1  0
 46 54  1  0
 54 55  2  0
 54 56  1  0
 56 57  1  0
 57 58  1  0
 58 59  1  0
 59 60  1  0
 60 61  1  0
 61 62  1  0
 62 63  2  3
 62 64  1  0
 57 65  1  0
 65 66  2  0
 65 67  1  0
 67 68  1  0
 68 69  1  0
 69 70  1  0
 70 71  1  0
 71 72  1  0
 72 73  1  0
 73 74  2  3
 73 75  1  0
 68 76  1  0
 76 77  2  0
 76 78  1  0
 79 78  1  6
 79 80  1  0
 80 81  1  0
 81 82  1  0
 82 83  1  0
 79 84  1  0
 79 85  1  0
 85 86  2  0
 85 87  1  0
 87 88  1  0
 88 89  1  0
 89 90  1  0
 90 91  1  0
 91 92  1  0
 92 93  1  0
 93 94  2  3
 93 95  1  0
 88 96  1  0
 96 97  2  0
 96 98  1  0
 98 99  1  0
 99100  1  0
100101  1  0
101102  1  0
102103  1  0
103104  1  0
104105  2  3
104106  1  0
 99107  1  0
107108  2  0
107109  1  0
109110  1  0
110111  1  0
111112  1  0
112113  1  0
113114  1  0
114115  1  0
115116  2  3
115117  1  0
110118  1  0
118119  2  0
118120  1  0
120121  1  0
121122  1  0
122123  1  0
123124  2  0
124125  1  0
125126  1  0
126127  1  0
127128  2  0
128129  1  0
129130  2  0
130131  1  0
121132  1  0
132133  2  0
132134  1  0
134135  1  0
135136  1  0
136137  1  0
137138  1  0
138139  1  0
139140  1  0
140141  2  3
140142  1  0
135143  1  0
143144  2  0
143145  1  0
145146  1  0
146147  1  0
147148  1  0
148149  1  0
149150  1  0
150151  1  0
151152  2  3
151153  1  0
146154  1  0
154155  2  0
154156  1  0
156157  1  0
157158  1  0
158159  1  0
159160  1  0
160161  1  0
161162  1  0
162163  1  0
163164  1  0
157165  1  0
157166  1  1
166167  2  0
166168  1  0
  8  3  1  0
131123  1  0
 11  6  1  0
 83126  2  0
164131  2  0
 18 13  2  0
 22  9  1  0
 26 21  1  0
  2169  1  0
  4170  1  0
  5171  1  0
  8172  1  0
 15173  1  0
 17174  1  0
 18175  1  0
 19176  1  0
 23177  1  0
 24178  1  0
 26179  1  0
 27180  1  0
 29181  1  0
 30182  1  0
 30183  1  0
 31184  1  0
 31185  1  0
 34186  1  0
 35187  1  1
 36188  1  0
 36189  1  0
 37190  1  0
 37191  1  0
 38192  1  0
 38193  1  0
 39194  1  0
 41195  1  0
 42196  1  0
 42197  1  0
 45198  1  0
 46199  1  1
 47200  1  0
 47201  1  0
 48202  1  0
 48203  1  0
 49204  1  0
 49205  1  0
 50206  1  0
 52207  1  0
 53208  1  0
 53209  1  0
 56210  1  0
 57211  1  1
 58212  1  0
 58213  1  0
 59214  1  0
 59215  1  0
 60216  1  0
 60217  1  0
 61218  1  0
 63219  1  0
 64220  1  0
 64221  1  0
 67222  1  0
 68223  1  1
 69224  1  0
 69225  1  0
 70226  1  0
 70227  1  0
 71228  1  0
 71229  1  0
 72230  1  0
 74231  1  0
 75232  1  0
 75233  1  0
 78234  1  0
 80235  1  0
 80236  1  0
 81237  1  0
 81238  1  0
 82239  1  0
 82240  1  0
 83241  1  0
 84242  1  0
 84243  1  0
 84244  1  0
 87245  1  0
 88246  1  6
 89247  1  0
 89248  1  0
 90249  1  0
 90250  1  0
 91251  1  0
 91252  1  0
 92253  1  0
 94254  1  0
 95255  1  0
 95256  1  0
 98257  1  0
 99258  1  6
100259  1  0
100260  1  0
101261  1  0
101262  1  0
102263  1  0
102264  1  0
103265  1  0
105266  1  0
106267  1  0
106268  1  0
109269  1  0
110270  1  6
111271  1  0
111272  1  0
112273  1  0
112274  1  0
113275  1  0
113276  1  0
114277  1  0
116278  1  0
117279  1  0
117280  1  0
120281  1  0
121282  1  1
122283  1  0
122284  1  0
124285  1  0
125286  1  0
127287  1  0
128288  1  0
129289  1  0
130290  1  0
134291  1  0
135292  1  6
136293  1  0
136294  1  0
137295  1  0
137296  1  0
138297  1  0
138298  1  0
139299  1  0
141300  1  0
142301  1  0
142302  1  0
145303  1  0
146304  1  6
147305  1  0
147306  1  0
148307  1  0
148308  1  0
149309  1  0
149310  1  0
150311  1  0
152312  1  0
153313  1  0
153314  1  0
156315  1  0
158316  1  0
158317  1  0
159318  1  0
159319  1  0
160320  1  0
160321  1  0
161322  1  0
161323  1  0
162324  1  0
162325  1  0
163326  1  0
163327  1  0
164328  1  0
165329  1  0
165330  1  0
165331  1  0
168332  1  0
M  END
