
     RDKit          2D

267274  0  0  0  0  0  0  0  0999 V2000
   20.2086   -0.8081    0.0000 C   0  0  0  0  0  0  0  0  0  0  0  0
   21.5284   -0.0952    0.0000 N   0  0  0  0  0  0  0  0  0  0  0  0
   22.8056   -0.8818    0.0000 C   0  0  0  0  0  0  0  0  0  0  0  0
   22.7631   -2.3812    0.0000 C   0  0  0  0  0  0  0  0  0  0  0  0
   24.0403   -3.1678    0.0000 C   0  0  0  0  0  0  0  0  0  0  0  0
   25.3601   -2.4549    0.0000 C   0  0  0  0  0  0  0  0  0  0  0  0
   25.4027   -0.9556    0.0000 C   0  0  0  0  0  0  0  0  0  0  0  0
   24.1255   -0.1690    0.0000 C   0  0  0  0  0  0  0  0  0  0  0  0
   26.8418   -0.5327    0.0000 C   0  0  0  0  0  0  0  0  0  0  0  0
   27.6887   -1.7708    0.0000 O   0  0  0  0  0  0  0  0  0  0  0  0
   26.7730   -2.9588    0.0000 C   0  0  0  0  0  0  0  0  0  0  0  0
   27.1958   -4.3979    0.0000 O   0  0  0  0  0  0  0  0  0  0  0  0
   28.3173   -0.2626    0.0000 C   0  0  0  0  0  0  0  0  0  0  0  0
   28.8212    1.1502    0.0000 C   0  0  0  0  0  0  0  0  0  0  0  0
   30.2966    1.4203    0.0000 C   0  0  0  0  0  0  0  0  0  0  0  0
   31.2683    0.2776    0.0000 C   0  0  0  0  0  0  0  0  0  0  0  0
   30.7645   -1.1353    0.0000 C   0  0  0  0  0  0  0  0  0  0  0  0
   29.2890   -1.4054    0.0000 C   0  0  0  0  0  0  0  0  0  0  0  0
   32.7438    0.5477    0.0000 O   0  0  0  0  0  0  0  0  0  0  0  0
   27.8495    2.2930    0.0000 O   0  0  0  0  0  0  0  0  0  0  0  0
   26.3740    2.0229    0.0000 C   0  0  0  0  0  0  0  0  0  0  0  0
   25.8702    0.6101    0.0000 C   0  0  0  0  0  0  0  0  0  0  0  0
   24.6298    0.9993    0.0000 C   0  0  0  0  0  0  0  0  0  0  0  0
   24.1116    1.6088    0.0000 C   0  0  0  0  0  0  0  0  0  0  0  0
   24.3803    2.3623    0.0000 C   0  0  0  0  0  0  0  0  0  0  0  0
   25.1672    2.5063    0.0000 C   0  0  0  0  0  0  0  0  0  0  0  0
   22.9552    4.0383    0.0000 O   0  0  0  0  0  0  0  0  0  0  0  0
   20.1660   -2.3075    0.0000 S   0  0  0  0  0  0  0  0  0  0  0  0
   18.9314   -0.0215    0.0000 N   0  0  0  0  0  0  0  0  0  0  0  0
   17.6116   -0.7343    0.0000 C   0  0  0  0  0  0  0  0  0  0  0  0
   16.3344    0.0522    0.0000 C   0  0  0  0  0  0  0  0  0  0  0  0
   15.0146   -0.6606    0.0000 C   0  0  0  0  0  0  0  0  0  0  0  0
   14.9720   -2.1600    0.0000 O   0  0  0  0  0  0  0  0  0  0  0  0
   13.7373    0.1260    0.0000 N   0  0  0  0  0  0  0  0  0  0  0  0
   12.4175   -0.5868    0.0000 C   0  0  0  0  0  0  0  0  0  0  0  0
   11.4211   -1.7081    0.0000 C   0  0  0  0  0  0  0  0  0  0  0  0
    9.9519   -1.4058    0.0000 C   0  0  0  0  0  0  0  0  0  0  0  0
    8.9555   -2.5270    0.0000 C   0  0  0  0  0  0  0  0  0  0  0  0
    7.4863   -2.2247    0.0000 N   0  0  0  0  0  0  0  0  0  0  0  0
    6.4899   -3.3460    0.0000 C   0  0  0  0  0  0  0  0  0  0  0  0
    5.0684   -2.8668    0.0000 N   0  0  0  0  0  0  0  0  0  0  0  0
    6.9627   -4.7695    0.0000 N   0  0  0  0  0  0  0  0  0  0  0  0
   11.1403    0.1997    0.0000 C   0  0  0  0  0  0  0  0  0  0  0  0
   11.1829    1.6991    0.0000 O   0  0  0  0  0  0  0  0  0  0  0  0
    9.8205   -0.5131    0.0000 N   0  0  0  0  0  0  0  0  0  0  0  0
    8.5433    0.2735    0.0000 C   0  0  0  0  0  0  0  0  0  0  0  0
    7.6121    1.4494    0.0000 C   0  0  0  0  0  0  0  0  0  0  0  0
    8.1649    2.8438    0.0000 C   0  0  0  0  0  0  0  0  0  0  0  0
    7.2337    4.0198    0.0000 C   0  0  0  0  0  0  0  0  0  0  0  0
    7.7866    5.4142    0.0000 N   0  0  0  0  0  0  0  0  0  0  0  0
    6.8554    6.5902    0.0000 C   0  0  0  0  0  0  0  0  0  0  0  0
    7.4082    7.9846    0.0000 N   0  0  0  0  0  0  0  0  0  0  0  0
    5.3714    6.3718    0.0000 N   0  0  0  0  0  0  0  0  0  0  0  0
    7.2235   -0.4394    0.0000 C   0  0  0  0  0  0  0  0  0  0  0  0
    6.9289   -1.4924    0.0000 O   0  0  0  0  0  0  0  0  0  0  0  0
    5.9462    0.3472    0.0000 N   0  0  0  0  0  0  0  0  0  0  0  0
    4.6264   -0.3656    0.0000 C   0  0  0  0  0  0  0  0  0  0  0  0
    3.6300   -1.4869    0.0000 C   0  0  0  0  0  0  0  0  0  0  0  0
    2.1608   -1.1846    0.0000 C   0  0  0  0  0  0  0  0  0  0  0  0
    1.1644   -2.3058    0.0000 C   0  0  0  0  0  0  0  0  0  0  0  0
    0.8836   -0.3980    0.0000 C   0  0  0  0  0  0  0  0  0  0  0  0
    3.3492    0.4209    0.0000 C   0  0  0  0  0  0  0  0  0  0  0  0
    3.5742    1.9040    0.0000 O   0  0  0  0  0  0  0  0  0  0  0  0
    2.0294   -0.2919    0.0000 N   0  0  0  0  0  0  0  0  0  0  0  0
    0.7522    0.4947    0.0000 C   0  0  0  0  0  0  0  0  0  0  0  0
   -0.1790    1.6707    0.0000 C   0  0  0  0  0  0  0  0  0  0  0  0
    0.3738    3.0651    0.0000 C   0  0  0  0  0  0  0  0  0  0  0  0
    1.8578    3.2835    0.0000 C   0  0  0  0  0  0  0  0  0  0  0  0
    2.4107    4.6779    0.0000 C   0  0  0  0  0  0  0  0  0  0  0  0
    1.4795    5.8539    0.0000 C   0  0  0  0  0  0  0  0  0  0  0  0
   -0.0045    5.6354    0.0000 C   0  0  0  0  0  0  0  0  0  0  0  0
   -0.5573    4.2410    0.0000 C   0  0  0  0  0  0  0  0  0  0  0  0
   -0.5676   -0.2181    0.0000 C   0  0  0  0  0  0  0  0  0  0  0  0
   -0.7926   -1.7012    0.0000 O   0  0  0  0  0  0  0  0  0  0  0  0
   -1.8448    0.5684    0.0000 N   0  0  0  0  0  0  0  0  0  0  0  0
   -3.1646   -0.1444    0.0000 C   0  0  0  0  0  0  0  0  0  0  0  0
   -4.1611   -1.2656    0.0000 C   0  0  0  0  0  0  0  0  0  0  0  0
   -5.6303   -0.9633    0.0000 C   0  0  0  0  0  0  0  0  0  0  0  0
   -6.6267   -2.0846    0.0000 C   0  0  0  0  0  0  0  0  0  0  0  0
   -8.0959   -1.7823    0.0000 N   0  0  0  0  0  0  0  0  0  0  0  0
   -9.0923   -2.9035    0.0000 C   0  0  0  0  0  0  0  0  0  0  0  0
  -10.5615   -2.6012    0.0000 N   0  0  0  0  0  0  0  0  0  0  0  0
   -8.9780   -4.3992    0.0000 N   0  0  0  0  0  0  0  0  0  0  0  0
   -4.4419    0.6422    0.0000 C   0  0  0  0  0  0  0  0  0  0  0  0
   -4.2168    2.1252    0.0000 O   0  0  0  0  0  0  0  0  0  0  0  0
   -5.7617   -0.0707    0.0000 N   0  0  0  0  0  0  0  0  0  0  0  0
   -7.0389    0.7159    0.0000 C   0  0  0  0  0  0  0  0  0  0  0  0
   -7.2943    2.1940    0.0000 C   0  0  0  0  0  0  0  0  0  0  0  0
   -7.9740    3.5312    0.0000 C   0  0  0  0  0  0  0  0  0  0  0  0
   -9.0176    4.6086    0.0000 C   0  0  0  0  0  0  0  0  0  0  0  0
  -10.3325    5.3305    0.0000 C   0  0  0  0  0  0  0  0  0  0  0  0
   -5.7034    1.3989    0.0000 C   0  0  0  0  0  0  0  0  0  0  0  0
   -7.2306   -0.7718    0.0000 C   0  0  0  0  0  0  0  0  0  0  0  0
   -6.5932   -1.2506    0.0000 O   0  0  0  0  0  0  0  0  0  0  0  0
   -7.8522   -2.1369    0.0000 N   0  0  0  0  0  0  0  0  0  0  0  0
   -8.8486   -3.2582    0.0000 C   0  0  0  0  0  0  0  0  0  0  0  0
   -8.6672   -4.7472    0.0000 C   0  0  0  0  0  0  0  0  0  0  0  0
   -7.2870   -5.3346    0.0000 C   0  0  0  0  0  0  0  0  0  0  0  0
   -7.1057   -6.8236    0.0000 N   0  0  0  0  0  0  0  0  0  0  0  0
   -6.0882   -4.4330    0.0000 O   0  0  0  0  0  0  0  0  0  0  0  0
  -10.1312   -4.0359    0.0000 C   0  0  0  0  0  0  0  0  0  0  0  0
   -9.7264   -5.4802    0.0000 O   0  0  0  0  0  0  0  0  0  0  0  0
  -11.5861   -4.4010    0.0000 N   0  0  0  0  0  0  0  0  0  0  0  0
  -13.0840   -4.3211    0.0000 C   0  0  0  0  0  0  0  0  0  0  0  0
  -14.1351   -5.3912    0.0000 C   0  0  0  0  0  0  0  0  0  0  0  0
  -13.7338   -6.8366    0.0000 C   0  0  0  0  0  0  0  0  0  0  0  0
  -14.7848   -7.9067    0.0000 C   0  0  0  0  0  0  0  0  0  0  0  0
  -14.3836   -9.3521    0.0000 C   0  0  0  0  0  0  0  0  0  0  0  0
  -12.9312   -9.7272    0.0000 C   0  0  0  0  0  0  0  0  0  0  0  0
  -11.8802   -8.6570    0.0000 C   0  0  0  0  0  0  0  0  0  0  0  0
  -12.2815   -7.2117    0.0000 C   0  0  0  0  0  0  0  0  0  0  0  0
  -14.4918   -3.8032    0.0000 C   0  0  0  0  0  0  0  0  0  0  0  0
  -15.2137   -5.1180    0.0000 O   0  0  0  0  0  0  0  0  0  0  0  0
  -15.6843   -2.8933    0.0000 N   0  0  0  0  0  0  0  0  0  0  0  0
  -16.5557   -1.6724    0.0000 C   0  0  0  0  0  0  0  0  0  0  0  0
  -18.0477   -1.5179    0.0000 C   0  0  0  0  0  0  0  0  0  0  0  0
  -18.9276   -2.7328    0.0000 C   0  0  0  0  0  0  0  0  0  0  0  0
  -20.4196   -2.5783    0.0000 C   0  0  0  0  0  0  0  0  0  0  0  0
  -19.3388   -4.1753    0.0000 C   0  0  0  0  0  0  0  0  0  0  0  0
  -17.0285   -0.2489    0.0000 C   0  0  0  0  0  0  0  0  0  0  0  0
  -18.5066   -0.5042    0.0000 O   0  0  0  0  0  0  0  0  0  0  0  0
  -17.0608    1.2508    0.0000 N   0  0  0  0  0  0  0  0  0  0  0  0
  -16.6495    2.6933    0.0000 C   0  0  0  0  0  0  0  0  0  0  0  0
  -15.8313    3.9505    0.0000 C   0  0  0  0  0  0  0  0  0  0  0  0
  -14.6790    4.9107    0.0000 C   0  0  0  0  0  0  0  0  0  0  0  0
  -13.2947    5.4886    0.0000 C   0  0  0  0  0  0  0  0  0  0  0  0
  -11.8017    5.6328    0.0000 C   0  0  0  0  0  0  0  0  0  0  0  0
  -18.1335    2.4749    0.0000 C   0  0  0  0  0  0  0  0  0  0  0  0
  -17.4590    3.9561    0.0000 C   0  0  0  0  0  0  0  0  0  0  0  0
  -17.1129    5.4157    0.0000 O   0  0  0  0  0  0  0  0  0  0  0  0
  -18.9574    3.8866    0.0000 N   0  0  0  0  0  0  0  0  0  0  0  0
  -19.7668    5.1494    0.0000 C   0  0  0  0  0  0  0  0  0  0  0  0
  -20.0956    6.6129    0.0000 C   0  0  0  0  0  0  0  0  0  0  0  0
  -20.9050    7.8758    0.0000 O   0  0  0  0  0  0  0  0  0  0  0  0
  -18.9925    7.6294    0.0000 C   0  0  0  0  0  0  0  0  0  0  0  0
  -21.2652    5.0798    0.0000 C   0  0  0  0  0  0  0  0  0  0  0  0
  -22.2226    6.2346    0.0000 O   0  0  0  0  0  0  0  0  0  0  0  0
  -21.9541    3.7474    0.0000 O   0  0  0  0  0  0  0  0  0  0  0  0
   21.3879    1.3982    0.0000 H   0  0  0  0  0  0  0  0  0  0  0  0
   21.4433   -3.0940    0.0000 H   0  0  0  0  0  0  0  0  0  0  0  0
   23.9977   -4.6672    0.0000 H   0  0  0  0  0  0  0  0  0  0  0  0
   23.8039    1.2962    0.0000 H   0  0  0  0  0  0  0  0  0  0  0  0
   30.8005    2.8332    0.0000 H   0  0  0  0  0  0  0  0  0  0  0  0
   31.7361   -2.2780    0.0000 H   0  0  0  0  0  0  0  0  0  0  0  0
   28.7852   -2.8182    0.0000 H   0  0  0  0  0  0  0  0  0  0  0  0
   33.7154   -0.5951    0.0000 H   0  0  0  0  0  0  0  0  0  0  0  0
   23.8909   -1.0729    0.0000 H   0  0  0  0  0  0  0  0  0  0  0  0
   21.9257    1.3945    0.0000 H   0  0  0  0  0  0  0  0  0  0  0  0
   25.9062    4.5785    0.0000 H   0  0  0  0  0  0  0  0  0  0  0  0
   23.4591    5.4512    0.0000 H   0  0  0  0  0  0  0  0  0  0  0  0
   18.9740    1.4779    0.0000 H   0  0  0  0  0  0  0  0  0  0  0  0
   16.6152   -1.8556    0.0000 H   0  0  0  0  0  0  0  0  0  0  0  0
   18.5428   -1.9103    0.0000 H   0  0  0  0  0  0  0  0  0  0  0  0
   15.4032    1.2282    0.0000 H   0  0  0  0  0  0  0  0  0  0  0  0
   17.3308    1.1735    0.0000 H   0  0  0  0  0  0  0  0  0  0  0  0
   13.7799    1.6254    0.0000 H   0  0  0  0  0  0  0  0  0  0  0  0
   13.3487   -1.7628    0.0000 H   0  0  0  0  0  0  0  0  0  0  0  0
   11.0424   -3.1595    0.0000 H   0  0  0  0  0  0  0  0  0  0  0  0
   12.6984   -2.4947    0.0000 H   0  0  0  0  0  0  0  0  0  0  0  0
    8.6747   -0.6192    0.0000 H   0  0  0  0  0  0  0  0  0  0  0  0
    9.7852    0.0849    0.0000 H   0  0  0  0  0  0  0  0  0  0  0  0
    8.4027   -3.9214    0.0000 H   0  0  0  0  0  0  0  0  0  0  0  0
   10.1273   -3.4634    0.0000 H   0  0  0  0  0  0  0  0  0  0  0  0
    6.6830   -0.9579    0.0000 H   0  0  0  0  0  0  0  0  0  0  0  0
    4.0242   -4.1649    0.0000 H   0  0  0  0  0  0  0  0  0  0  0  0
    5.9663   -5.8907    0.0000 H   0  0  0  0  0  0  0  0  0  0  0  0
    8.4319   -5.0718    0.0000 H   0  0  0  0  0  0  0  0  0  0  0  0
    9.4164   -1.9576    0.0000 H   0  0  0  0  0  0  0  0  0  0  0  0
    9.6689    1.2649    0.0000 H   0  0  0  0  0  0  0  0  0  0  0  0
    6.3349    2.2360    0.0000 H   0  0  0  0  0  0  0  0  0  0  0  0
    6.3740    0.6026    0.0000 H   0  0  0  0  0  0  0  0  0  0  0  0
    9.1613    3.9651    0.0000 H   0  0  0  0  0  0  0  0  0  0  0  0
    9.5285    2.2188    0.0000 H   0  0  0  0  0  0  0  0  0  0  0  0
    5.9565    4.8064    0.0000 H   0  0  0  0  0  0  0  0  0  0  0  0
    6.1081    3.0284    0.0000 H   0  0  0  0  0  0  0  0  0  0  0  0
    9.2706    5.6327    0.0000 H   0  0  0  0  0  0  0  0  0  0  0  0
    6.4770    9.1606    0.0000 H   0  0  0  0  0  0  0  0  0  0  0  0
    4.4402    7.5477    0.0000 H   0  0  0  0  0  0  0  0  0  0  0  0
    4.8186    4.9773    0.0000 H   0  0  0  0  0  0  0  0  0  0  0  0
    5.8057    1.8406    0.0000 H   0  0  0  0  0  0  0  0  0  0  0  0
    5.5576   -1.5416    0.0000 H   0  0  0  0  0  0  0  0  0  0  0  0
    3.2513   -2.9383    0.0000 H   0  0  0  0  0  0  0  0  0  0  0  0
    4.9936   -2.1119    0.0000 H   0  0  0  0  0  0  0  0  0  0  0  0
    1.9941    0.3061    0.0000 H   0  0  0  0  0  0  0  0  0  0  0  0
   -0.3343   -2.3680    0.0000 H   0  0  0  0  0  0  0  0  0  0  0  0
    0.6116   -3.7002    0.0000 H   0  0  0  0  0  0  0  0  0  0  0  0
    2.3362   -3.2422    0.0000 H   0  0  0  0  0  0  0  0  0  0  0  0
    0.5621    1.0671    0.0000 H   0  0  0  0  0  0  0  0  0  0  0  0
   -0.5964   -0.6424    0.0000 H   0  0  0  0  0  0  0  0  0  0  0  0
    0.1649   -1.7146    0.0000 H   0  0  0  0  0  0  0  0  0  0  0  0
    1.6253   -1.7364    0.0000 H   0  0  0  0  0  0  0  0  0  0  0  0
    1.7486    1.6159    0.0000 H   0  0  0  0  0  0  0  0  0  0  0  0
   -1.3508    2.6070    0.0000 H   0  0  0  0  0  0  0  0  0  0  0  0
   -1.5111    0.9811    0.0000 H   0  0  0  0  0  0  0  0  0  0  0  0
    2.9254    2.2298    0.0000 H   0  0  0  0  0  0  0  0  0  0  0  0
    3.8947    4.8964    0.0000 H   0  0  0  0  0  0  0  0  0  0  0  0
    2.0323    7.2483    0.0000 H   0  0  0  0  0  0  0  0  0  0  0  0
   -0.9357    6.8114    0.0000 H   0  0  0  0  0  0  0  0  0  0  0  0
   -2.0414    4.0226    0.0000 H   0  0  0  0  0  0  0  0  0  0  0  0
   -1.9854    2.0618    0.0000 H   0  0  0  0  0  0  0  0  0  0  0  0
   -2.2335   -1.3204    0.0000 H   0  0  0  0  0  0  0  0  0  0  0  0
   -4.5398   -2.7170    0.0000 H   0  0  0  0  0  0  0  0  0  0  0  0
   -2.8838   -2.0522    0.0000 H   0  0  0  0  0  0  0  0  0  0  0  0
   -7.0599   -0.5092    0.0000 H   0  0  0  0  0  0  0  0  0  0  0  0
   -5.6140    0.5366    0.0000 H   0  0  0  0  0  0  0  0  0  0  0  0
   -6.8257   -3.5713    0.0000 H   0  0  0  0  0  0  0  0  0  0  0  0
   -5.4549   -3.0210    0.0000 H   0  0  0  0  0  0  0  0  0  0  0  0
   -8.5687   -0.3588    0.0000 H   0  0  0  0  0  0  0  0  0  0  0  0
  -11.7996   -3.4480    0.0000 H   0  0  0  0  0  0  0  0  0  0  0  0
   -9.4833   -5.5182    0.0000 H   0  0  0  0  0  0  0  0  0  0  0  0
   -7.1489   -4.1802    0.0000 H   0  0  0  0  0  0  0  0  0  0  0  0
   -5.9867   -1.5537    0.0000 H   0  0  0  0  0  0  0  0  0  0  0  0
   -5.8070    1.9987    0.0000 H   0  0  0  0  0  0  0  0  0  0  0  0
   -6.3550    3.3635    0.0000 H   0  0  0  0  0  0  0  0  0  0  0  0
   -6.5370    3.9613    0.0000 H   0  0  0  0  0  0  0  0  0  0  0  0
   -7.2553    4.8478    0.0000 H   0  0  0  0  0  0  0  0  0  0  0  0
   -7.6788    5.2850    0.0000 H   0  0  0  0  0  0  0  0  0  0  0  0
   -8.9004    6.1040    0.0000 H   0  0  0  0  0  0  0  0  0  0  0  0
   -9.8146    6.7383    0.0000 H   0  0  0  0  0  0  0  0  0  0  0  0
   -5.4974    3.0521    0.0000 H   0  0  0  0  0  0  0  0  0  0  0  0
   -4.4156    2.0838    0.0000 H   0  0  0  0  0  0  0  0  0  0  0  0
   -4.7846    0.4538    0.0000 H   0  0  0  0  0  0  0  0  0  0  0  0
   -6.7041   -3.1022    0.0000 H   0  0  0  0  0  0  0  0  0  0  0  0
   -7.4820   -3.8764    0.0000 H   0  0  0  0  0  0  0  0  0  0  0  0
   -9.0061   -6.2084    0.0000 H   0  0  0  0  0  0  0  0  0  0  0  0
  -10.1399   -5.0320    0.0000 H   0  0  0  0  0  0  0  0  0  0  0  0
   -5.7255   -7.4110    0.0000 H   0  0  0  0  0  0  0  0  0  0  0  0
   -8.3045   -7.7251    0.0000 H   0  0  0  0  0  0  0  0  0  0  0  0
  -11.2610   -5.8653    0.0000 H   0  0  0  0  0  0  0  0  0  0  0  0
  -12.5408   -5.7193    0.0000 H   0  0  0  0  0  0  0  0  0  0  0  0
  -15.4887   -6.0374    0.0000 H   0  0  0  0  0  0  0  0  0  0  0  0
  -15.2760   -4.4174    0.0000 H   0  0  0  0  0  0  0  0  0  0  0  0
  -16.2372   -7.5316    0.0000 H   0  0  0  0  0  0  0  0  0  0  0  0
  -15.4346  -10.4222    0.0000 H   0  0  0  0  0  0  0  0  0  0  0  0
  -12.5300  -11.1726    0.0000 H   0  0  0  0  0  0  0  0  0  0  0  0
  -10.4279   -9.0322    0.0000 H   0  0  0  0  0  0  0  0  0  0  0  0
  -11.1078   -6.2776    0.0000 H   0  0  0  0  0  0  0  0  0  0  0  0
  -16.7617   -3.9370    0.0000 H   0  0  0  0  0  0  0  0  0  0  0  0
  -17.1465   -3.0511    0.0000 H   0  0  0  0  0  0  0  0  0  0  0  0
  -19.3070   -0.7028    0.0000 H   0  0  0  0  0  0  0  0  0  0  0  0
  -17.9978   -0.0187    0.0000 H   0  0  0  0  0  0  0  0  0  0  0  0
  -17.6683   -3.5478    0.0000 H   0  0  0  0  0  0  0  0  0  0  0  0
  -21.4409   -3.6768    0.0000 H   0  0  0  0  0  0  0  0  0  0  0  0
  -21.7688   -1.9228    0.0000 H   0  0  0  0  0  0  0  0  0  0  0  0
  -20.1872   -1.0964    0.0000 H   0  0  0  0  0  0  0  0  0  0  0  0
  -20.7383   -4.7150    0.0000 H   0  0  0  0  0  0  0  0  0  0  0  0
  -19.2319   -5.6715    0.0000 H   0  0  0  0  0  0  0  0  0  0  0  0
  -17.8468   -4.3298    0.0000 H   0  0  0  0  0  0  0  0  0  0  0  0
  -18.5485    1.4424    0.0000 H   0  0  0  0  0  0  0  0  0  0  0  0
  -16.2326    5.3959    0.0000 H   0  0  0  0  0  0  0  0  0  0  0  0
  -17.2144    4.5311    0.0000 H   0  0  0  0  0  0  0  0  0  0  0  0
  -14.8195    6.4041    0.0000 H   0  0  0  0  0  0  0  0  0  0  0  0
  -15.8294    5.8732    0.0000 H   0  0  0  0  0  0  0  0  0  0  0  0
  -12.8121    6.9088    0.0000 H   0  0  0  0  0  0  0  0  0  0  0  0
  -14.2578    6.6386    0.0000 H   0  0  0  0  0  0  0  0  0  0  0  0
  -11.7217    7.1307    0.0000 H   0  0  0  0  0  0  0  0  0  0  0  0
  -19.3216    3.3906    0.0000 H   0  0  0  0  0  0  0  0  0  0  0  0
  -19.3566    1.6065    0.0000 H   0  0  0  0  0  0  0  0  0  0  0  0
  -18.0192    0.9792    0.0000 H   0  0  0  0  0  0  0  0  0  0  0  0
  -19.8036    2.6480    0.0000 H   0  0  0  0  0  0  0  0  0  0  0  0
  -18.3225    5.5542    0.0000 H   0  0  0  0  0  0  0  0  0  0  0  0
  -21.5399    6.2081    0.0000 H   0  0  0  0  0  0  0  0  0  0  0  0
  -20.3837    9.2822    0.0000 H   0  0  0  0  0  0  0  0  0  0  0  0
  -19.1403    9.1221    0.0000 H   0  0  0  0  0  0  0  0  0  0  0  0
  -17.6082    8.2073    0.0000 H   0  0  0  0  0  0  0  0  0  0  0  0
  -18.0351    6.4746    0.0000 H   0  0  0  0  0  0  0  0  0  0  0  0
  -23.4525    3.6778    0.0000 H   0  0  0  0  0  0  0  0  0  0  0  0
  1  2  1  0
  2  3  1  0
  3  4  2  0
  4  5  1  0
  5  6  2  0
  6  7  1  0
  7  8  2  0
  7  9  1  0
  9 10  1  0
 10 11  1  0
 11 12  2  0
  9 13  1  0
 13 14  1  0
 14 15  2  0
 15 16  1  0
 16 17  2  0
 17 18  1  0
 16 19  1  0
 14 20  1  0
 20 21  1  0
 21 22  2  0
 22 23  1  0
 23 24  2  0
 24 25  1  0
 25 26  2  0
 25 27  1  0
  1 28  2  0
  1 29  1  0
 29 30  1  0
 30 31  1  0
 31 32  1  0
 32 33  2  0
 32 34  1  0
 34 35  1  0
 35 36  1  0
 36 37  1  0
 37 38  1  0
 38 39  1  0
 39 40  1  0
 40 41  2  3
 40 42  1  0
 35 43  1  0
 43 44  2  0
 43 45  1  0
 45 46  1  0
 46 47  1  0
 47 48  1  0
 48 49  1  0
 49 50  1  0
 50 51  1  0
 51 52  2  3
 51 53  1  0
 46 54  1  0
 54 55  2  0
 54 56  1  0
 56 57  1  0
 57 58  1  0
 58 59  1  0
 59 60  1  0
 59 61  1  0
 57 62  1  0
 62 63  2  0
 62 64  1  0
 64 65  1  0
 65 66  1  0
 66 67  1  0
 67 68  2  0
 68 69  1  0
 69 70  2  0
 70 71  1  0
 71 72  2  0
 65 73  1  0
 73 74  2  0
 73 75  1  0
 75 76  1  0
 76 77  1  0
 77 78  1  0
 78 79  1  0
 79 80  1  0
 80 81  1  0
 81 82  2  3
 81 83  1  0
 76 84  1  0
 84 85  2  0
 84 86  1  0
 87 86  1  6
 87 88  1  0
 88 89  1  0
 89 90  1  0
 90 91  1  0
 87 92  1  0
 87 93  1  0
 93 94  2  0
 93 95  1  0
 95 96  1  0
 96 97  1  0
 97 98  1  0
 98 99  1  0
 98100  2  0
 96101  1  0
101102  2  0
101103  1  0
103104  1  0
104105  1  0
105106  1  0
106107  2  0
107108  1  0
108109  2  0
109110  1  0
110111  2  0
104112  1  0
112113  2  0
112114  1  0
114115  1  0
115116  1  0
116117  1  0
117118  1  0
117119  1  0
115120  1  0
120121  2  0
120122  1  0
122123  1  0
123124  1  0
124125  1  0
125126  1  0
126127  1  0
123128  1  0
123129  1  6
129130  2  0
129131  1  0
131132  1  0
132133  1  0
133134  1  0
133135  1  0
132136  1  0
136137  2  0
136138  1  0
  8  3  1  0
 72 67  1  0
111106  1  0
 11  6  1  0
 91127  2  0
 18 13  2  0
 22  9  1  0
 26 21  1  0
  2139  1  0
  4140  1  0
  5141  1  0
  8142  1  0
 15143  1  0
 17144  1  0
 18145  1  0
 19146  1  0
 23147  1  0
 24148  1  0
 26149  1  0
 27150  1  0
 29151  1  0
 30152  1  0
 30153  1  0
 31154  1  0
 31155  1  0
 34156  1  0
 35157  1  1
 36158  1  0
 36159  1  0
 37160  1  0
 37161  1  0
 38162  1  0
 38163  1  0
 39164  1  0
 41165  1  0
 42166  1  0
 42167  1  0
 45168  1  0
 46169  1  6
 47170  1  0
 47171  1  0
 48172  1  0
 48173  1  0
 49174  1  0
 49175  1  0
 50176  1  0
 52177  1  0
 53178  1  0
 53179  1  0
 56180  1  0
 57181  1  1
 58182  1  0
 58183  1  0
 59184  1  0
 60185  1  0
 60186  1  0
 60187  1  0
 61188  1  0
 61189  1  0
 61190  1  0
 64191  1  0
 65192  1  6
 66193  1  0
 66194  1  0
 68195  1  0
 69196  1  0
 70197  1  0
 71198  1  0
 72199  1  0
 75200  1  0
 76201  1  1
 77202  1  0
 77203  1  0
 78204  1  0
 78205  1  0
 79206  1  0
 79207  1  0
 80208  1  0
 82209  1  0
 83210  1  0
 83211  1  0
 86212  1  0
 88213  1  0
 88214  1  0
 89215  1  0
 89216  1  0
 90217  1  0
 90218  1  0
 91219  1  0
 92220  1  0
 92221  1  0
 92222  1  0
 95223  1  0
 96224  1  6
 97225  1  0
 97226  1  0
 99227  1  0
 99228  1  0
103229  1  0
104230  1  1
105231  1  0
105232  1  0
107233  1  0
108234  1  0
109235  1  0
110236  1  0
111237  1  0
114238  1  0
115239  1  1
116240  1  0
116241  1  0
117242  1  0
118243  1  0
118244  1  0
118245  1  0
119246  1  0
119247  1  0
119248  1  0
122249  1  0
124250  1  0
124251  1  0
125252  1  0
125253  1  0
126254  1  0
126255  1  0
127256  1  0
128257  1  0
128258  1  0
128259  1  0
131260  1  0
132261  1  6
133262  1  1
134263  1  0
135264  1  0
135265  1  0
135266  1  0
138267  1  0
M  END
