
     RDKit          2D

416420  0  0  0  0  0  0  0  0999 V2000
  -30.7917    2.1228    0.0000 N   0  0  0  0  0  0  0  0  0  0  0  0
  -29.3049    2.3212    0.0000 C   0  0  0  0  0  0  0  0  0  0  0  0
  -28.7332    3.7080    0.0000 C   0  0  0  0  0  0  0  0  0  0  0  0
  -27.2464    3.9064    0.0000 C   0  0  0  0  0  0  0  0  0  0  0  0
  -26.3312    2.7179    0.0000 O   0  0  0  0  0  0  0  0  0  0  0  0
  -26.6748    5.2932    0.0000 N   0  0  0  0  0  0  0  0  0  0  0  0
  -25.1880    5.4915    0.0000 C   0  0  0  0  0  0  0  0  0  0  0  0
  -25.6415    6.9213    0.0000 C   0  0  0  0  0  0  0  0  0  0  0  0
  -27.1065    7.2435    0.0000 C   0  0  0  0  0  0  0  0  0  0  0  0
  -27.5600    8.6733    0.0000 N   0  0  0  0  0  0  0  0  0  0  0  0
  -28.2454    6.2673    0.0000 O   0  0  0  0  0  0  0  0  0  0  0  0
  -23.7230    5.1694    0.0000 C   0  0  0  0  0  0  0  0  0  0  0  0
  -22.8540    6.3921    0.0000 O   0  0  0  0  0  0  0  0  0  0  0  0
  -23.2694    3.7396    0.0000 N   0  0  0  0  0  0  0  0  0  0  0  0
  -21.8044    3.4175    0.0000 C   0  0  0  0  0  0  0  0  0  0  0  0
  -21.7416    4.9162    0.0000 C   0  0  0  0  0  0  0  0  0  0  0  0
  -20.4123    5.6111    0.0000 C   0  0  0  0  0  0  0  0  0  0  0  0
  -20.3494    7.1098    0.0000 C   0  0  0  0  0  0  0  0  0  0  0  0
  -19.0201    7.8047    0.0000 O   0  0  0  0  0  0  0  0  0  0  0  0
  -21.6159    7.9136    0.0000 O   0  0  0  0  0  0  0  0  0  0  0  0
  -20.5379    2.6137    0.0000 C   0  0  0  0  0  0  0  0  0  0  0  0
  -19.3032    3.4655    0.0000 O   0  0  0  0  0  0  0  0  0  0  0  0
  -20.6008    1.1151    0.0000 N   0  0  0  0  0  0  0  0  0  0  0  0
  -19.3343    0.3113    0.0000 C   0  0  0  0  0  0  0  0  0  0  0  0
  -18.7627    1.6981    0.0000 C   0  0  0  0  0  0  0  0  0  0  0  0
  -17.2758    1.8965    0.0000 C   0  0  0  0  0  0  0  0  0  0  0  0
  -16.7042    3.2833    0.0000 C   0  0  0  0  0  0  0  0  0  0  0  0
  -15.7825    1.7553    0.0000 C   0  0  0  0  0  0  0  0  0  0  0  0
  -18.4191   -0.8771    0.0000 C   0  0  0  0  0  0  0  0  0  0  0  0
  -16.9323   -0.6788    0.0000 O   0  0  0  0  0  0  0  0  0  0  0  0
  -18.9907   -2.2640    0.0000 N   0  0  0  0  0  0  0  0  0  0  0  0
  -18.0755   -3.4524    0.0000 C   0  0  0  0  0  0  0  0  0  0  0  0
  -19.4048   -4.1473    0.0000 C   0  0  0  0  0  0  0  0  0  0  0  0
  -20.6713   -3.3436    0.0000 C   0  0  0  0  0  0  0  0  0  0  0  0
  -22.0006   -4.0385    0.0000 C   0  0  0  0  0  0  0  0  0  0  0  0
  -23.2671   -3.2347    0.0000 C   0  0  0  0  0  0  0  0  0  0  0  0
  -24.5964   -3.9297    0.0000 N   0  0  0  0  0  0  0  0  0  0  0  0
  -16.8090   -4.2562    0.0000 C   0  0  0  0  0  0  0  0  0  0  0  0
  -17.0541   -5.7360    0.0000 O   0  0  0  0  0  0  0  0  0  0  0  0
  -15.4797   -3.5612    0.0000 N   0  0  0  0  0  0  0  0  0  0  0  0
  -14.2132   -4.3650    0.0000 C   0  0  0  0  0  0  0  0  0  0  0  0
  -13.9779   -5.8464    0.0000 C   0  0  0  0  0  0  0  0  0  0  0  0
  -13.3163   -7.1926    0.0000 C   0  0  0  0  0  0  0  0  0  0  0  0
  -12.2873   -8.2841    0.0000 C   0  0  0  0  0  0  0  0  0  0  0  0
  -10.9823   -9.0237    0.0000 C   0  0  0  0  0  0  0  0  0  0  0  0
  -15.5578   -5.0299    0.0000 C   0  0  0  0  0  0  0  0  0  0  0  0
  -14.0015   -2.8800    0.0000 C   0  0  0  0  0  0  0  0  0  0  0  0
  -15.3751   -2.2774    0.0000 O   0  0  0  0  0  0  0  0  0  0  0  0
  -13.3615   -1.5234    0.0000 N   0  0  0  0  0  0  0  0  0  0  0  0
  -12.3500   -0.4158    0.0000 C   0  0  0  0  0  0  0  0  0  0  0  0
  -13.7756    0.0506    0.0000 C   0  0  0  0  0  0  0  0  0  0  0  0
  -13.9033    1.5452    0.0000 O   0  0  0  0  0  0  0  0  0  0  0  0
  -11.0570    0.3446    0.0000 C   0  0  0  0  0  0  0  0  0  0  0  0
  -11.6161    1.7365    0.0000 O   0  0  0  0  0  0  0  0  0  0  0  0
   -9.5973    0.6900    0.0000 N   0  0  0  0  0  0  0  0  0  0  0  0
   -8.1006    0.5898    0.0000 C   0  0  0  0  0  0  0  0  0  0  0  0
   -8.6249    1.9952    0.0000 C   0  0  0  0  0  0  0  0  0  0  0  0
   -7.6699    3.1519    0.0000 C   0  0  0  0  0  0  0  0  0  0  0  0
   -6.1906    2.9032    0.0000 C   0  0  0  0  0  0  0  0  0  0  0  0
   -5.2356    4.0599    0.0000 C   0  0  0  0  0  0  0  0  0  0  0  0
   -5.7599    5.4653    0.0000 C   0  0  0  0  0  0  0  0  0  0  0  0
   -7.2391    5.7140    0.0000 C   0  0  0  0  0  0  0  0  0  0  0  0
   -8.1941    4.5573    0.0000 C   0  0  0  0  0  0  0  0  0  0  0  0
   -6.7000    0.0529    0.0000 C   0  0  0  0  0  0  0  0  0  0  0  0
   -5.8068    1.2580    0.0000 O   0  0  0  0  0  0  0  0  0  0  0  0
   -5.5198   -0.8729    0.0000 N   0  0  0  0  0  0  0  0  0  0  0  0
   -4.6650   -2.1055    0.0000 C   0  0  0  0  0  0  0  0  0  0  0  0
   -3.8931   -0.8194    0.0000 C   0  0  0  0  0  0  0  0  0  0  0  0
   -2.3933   -0.8448    0.0000 C   0  0  0  0  0  0  0  0  0  0  0  0
   -1.6654   -2.1564    0.0000 C   0  0  0  0  0  0  0  0  0  0  0  0
   -0.1657   -2.1819    0.0000 C   0  0  0  0  0  0  0  0  0  0  0  0
    0.6063   -0.8957    0.0000 C   0  0  0  0  0  0  0  0  0  0  0  0
   -0.1216    0.4158    0.0000 C   0  0  0  0  0  0  0  0  0  0  0  0
   -1.6214    0.4413    0.0000 C   0  0  0  0  0  0  0  0  0  0  0  0
   -4.2115   -3.5353    0.0000 C   0  0  0  0  0  0  0  0  0  0  0  0
   -2.7124   -3.4823    0.0000 O   0  0  0  0  0  0  0  0  0  0  0  0
   -4.1995   -5.0353    0.0000 N   0  0  0  0  0  0  0  0  0  0  0  0
   -4.6302   -6.4721    0.0000 C   0  0  0  0  0  0  0  0  0  0  0  0
   -5.4653   -7.7181    0.0000 C   0  0  0  0  0  0  0  0  0  0  0  0
   -6.6306   -8.6627    0.0000 C   0  0  0  0  0  0  0  0  0  0  0  0
   -8.0225   -9.2218    0.0000 C   0  0  0  0  0  0  0  0  0  0  0  0
   -9.5173   -9.3458    0.0000 C   0  0  0  0  0  0  0  0  0  0  0  0
   -3.6886   -7.6397    0.0000 C   0  0  0  0  0  0  0  0  0  0  0  0
   -3.1434   -6.2737    0.0000 C   0  0  0  0  0  0  0  0  0  0  0  0
   -2.4070   -4.9669    0.0000 O   0  0  0  0  0  0  0  0  0  0  0  0
   -2.2282   -7.4622    0.0000 N   0  0  0  0  0  0  0  0  0  0  0  0
   -0.7414   -7.2638    0.0000 C   0  0  0  0  0  0  0  0  0  0  0  0
    0.5879   -6.5689    0.0000 C   0  0  0  0  0  0  0  0  0  0  0  0
    1.8544   -7.3727    0.0000 C   0  0  0  0  0  0  0  0  0  0  0  0
    3.1837   -6.6777    0.0000 C   0  0  0  0  0  0  0  0  0  0  0  0
    2.7696   -8.5611    0.0000 C   0  0  0  0  0  0  0  0  0  0  0  0
    0.1738   -8.4523    0.0000 C   0  0  0  0  0  0  0  0  0  0  0  0
   -0.3978   -9.8391    0.0000 O   0  0  0  0  0  0  0  0  0  0  0  0
    1.6606   -8.2539    0.0000 N   0  0  0  0  0  0  0  0  0  0  0  0
    2.5758   -9.4424    0.0000 C   0  0  0  0  0  0  0  0  0  0  0  0
    3.0294  -10.8721    0.0000 C   0  0  0  0  0  0  0  0  0  0  0  0
    2.0179  -11.9798    0.0000 C   0  0  0  0  0  0  0  0  0  0  0  0
    2.4714  -13.4096    0.0000 C   0  0  0  0  0  0  0  0  0  0  0  0
    1.4600  -14.5173    0.0000 N   0  0  0  0  0  0  0  0  0  0  0  0
    1.9135  -15.9471    0.0000 C   0  0  0  0  0  0  0  0  0  0  0  0
    0.9020  -17.0547    0.0000 N   0  0  0  0  0  0  0  0  0  0  0  0
    3.3785  -16.2692    0.0000 N   0  0  0  0  0  0  0  0  0  0  0  0
    4.0627   -9.2440    0.0000 C   0  0  0  0  0  0  0  0  0  0  0  0
    4.7991   -7.9372    0.0000 O   0  0  0  0  0  0  0  0  0  0  0  0
    4.9779  -10.4324    0.0000 N   0  0  0  0  0  0  0  0  0  0  0  0
    6.4647  -10.2341    0.0000 C   0  0  0  0  0  0  0  0  0  0  0  0
    7.7940   -9.5391    0.0000 C   0  0  0  0  0  0  0  0  0  0  0  0
    7.8569   -8.0405    0.0000 C   0  0  0  0  0  0  0  0  0  0  0  0
    9.1862   -7.3455    0.0000 O   0  0  0  0  0  0  0  0  0  0  0  0
    6.5904   -7.2367    0.0000 O   0  0  0  0  0  0  0  0  0  0  0  0
    7.3799  -11.4225    0.0000 C   0  0  0  0  0  0  0  0  0  0  0  0
    6.8083  -12.8093    0.0000 O   0  0  0  0  0  0  0  0  0  0  0  0
    8.8667  -11.2242    0.0000 N   0  0  0  0  0  0  0  0  0  0  0  0
    9.7819  -12.4126    0.0000 C   0  0  0  0  0  0  0  0  0  0  0  0
   10.2355  -13.8424    0.0000 C   0  0  0  0  0  0  0  0  0  0  0  0
   11.7005  -14.1645    0.0000 C   0  0  0  0  0  0  0  0  0  0  0  0
   12.1540  -15.5943    0.0000 C   0  0  0  0  0  0  0  0  0  0  0  0
   13.6190  -15.9164    0.0000 N   0  0  0  0  0  0  0  0  0  0  0  0
   11.1425  -16.7020    0.0000 O   0  0  0  0  0  0  0  0  0  0  0  0
   11.2688  -12.2142    0.0000 C   0  0  0  0  0  0  0  0  0  0  0  0
   11.8404  -10.8274    0.0000 O   0  0  0  0  0  0  0  0  0  0  0  0
   12.1840  -13.4027    0.0000 N   0  0  0  0  0  0  0  0  0  0  0  0
   13.6708  -13.2043    0.0000 C   0  0  0  0  0  0  0  0  0  0  0  0
   15.1358  -13.5265    0.0000 C   0  0  0  0  0  0  0  0  0  0  0  0
   16.3852  -12.6964    0.0000 C   0  0  0  0  0  0  0  0  0  0  0  0
   16.4023  -14.3302    0.0000 C   0  0  0  0  0  0  0  0  0  0  0  0
   16.3394  -15.8289    0.0000 C   0  0  0  0  0  0  0  0  0  0  0  0
   14.2424  -11.8175    0.0000 C   0  0  0  0  0  0  0  0  0  0  0  0
   13.3272  -10.6291    0.0000 O   0  0  0  0  0  0  0  0  0  0  0  0
   15.7292  -11.6192    0.0000 N   0  0  0  0  0  0  0  0  0  0  0  0
   16.7636  -12.7054    0.0000 C   0  0  0  0  0  0  0  0  0  0  0  0
   18.1164  -12.0573    0.0000 C   0  0  0  0  0  0  0  0  0  0  0  0
   17.9180  -10.5705    0.0000 C   0  0  0  0  0  0  0  0  0  0  0  0
   16.4427  -10.2997    0.0000 C   0  0  0  0  0  0  0  0  0  0  0  0
   16.8662   -8.8607    0.0000 C   0  0  0  0  0  0  0  0  0  0  0  0
   18.2703   -8.3329    0.0000 O   0  0  0  0  0  0  0  0  0  0  0  0
   15.8318   -7.7745    0.0000 N   0  0  0  0  0  0  0  0  0  0  0  0
   16.2553   -6.3355    0.0000 C   0  0  0  0  0  0  0  0  0  0  0  0
   17.1455   -5.1282    0.0000 C   0  0  0  0  0  0  0  0  0  0  0  0
   16.5450   -3.7536    0.0000 C   0  0  0  0  0  0  0  0  0  0  0  0
   17.4351   -2.5463    0.0000 C   0  0  0  0  0  0  0  0  0  0  0  0
   17.0067   -1.1088    0.0000 O   0  0  0  0  0  0  0  0  0  0  0  0
   18.9258   -2.7135    0.0000 O   0  0  0  0  0  0  0  0  0  0  0  0
   15.2209   -5.2492    0.0000 C   0  0  0  0  0  0  0  0  0  0  0  0
   13.7630   -5.6019    0.0000 O   0  0  0  0  0  0  0  0  0  0  0  0
   15.6445   -3.8102    0.0000 N   0  0  0  0  0  0  0  0  0  0  0  0
   14.6100   -2.7240    0.0000 C   0  0  0  0  0  0  0  0  0  0  0  0
   13.2665   -2.0570    0.0000 C   0  0  0  0  0  0  0  0  0  0  0  0
   12.0171   -2.8871    0.0000 C   0  0  0  0  0  0  0  0  0  0  0  0
   10.6735   -2.2201    0.0000 C   0  0  0  0  0  0  0  0  0  0  0  0
   11.1269   -4.0944    0.0000 C   0  0  0  0  0  0  0  0  0  0  0  0
   15.0336   -1.2850    0.0000 C   0  0  0  0  0  0  0  0  0  0  0  0
   16.4377   -0.7572    0.0000 O   0  0  0  0  0  0  0  0  0  0  0  0
   13.9992   -0.1987    0.0000 N   0  0  0  0  0  0  0  0  0  0  0  0
   14.4227    1.2402    0.0000 C   0  0  0  0  0  0  0  0  0  0  0  0
   15.3128    2.4476    0.0000 C   0  0  0  0  0  0  0  0  0  0  0  0
   14.7123    3.8221    0.0000 C   0  0  0  0  0  0  0  0  0  0  0  0
   15.6025    5.0294    0.0000 C   0  0  0  0  0  0  0  0  0  0  0  0
   15.1740    6.4669    0.0000 O   0  0  0  0  0  0  0  0  0  0  0  0
   17.0931    4.8622    0.0000 O   0  0  0  0  0  0  0  0  0  0  0  0
   13.3883    2.3265    0.0000 C   0  0  0  0  0  0  0  0  0  0  0  0
   11.9303    1.9738    0.0000 O   0  0  0  0  0  0  0  0  0  0  0  0
   13.8118    3.7655    0.0000 N   0  0  0  0  0  0  0  0  0  0  0  0
   12.7774    4.8517    0.0000 C   0  0  0  0  0  0  0  0  0  0  0  0
   11.4338    5.5187    0.0000 C   0  0  0  0  0  0  0  0  0  0  0  0
   10.1845    4.6886    0.0000 C   0  0  0  0  0  0  0  0  0  0  0  0
    8.8409    5.3556    0.0000 N   0  0  0  0  0  0  0  0  0  0  0  0
   10.2786    3.1916    0.0000 O   0  0  0  0  0  0  0  0  0  0  0  0
   13.2009    6.2907    0.0000 C   0  0  0  0  0  0  0  0  0  0  0  0
   14.6050    6.8185    0.0000 O   0  0  0  0  0  0  0  0  0  0  0  0
   12.1665    7.3770    0.0000 N   0  0  0  0  0  0  0  0  0  0  0  0
   12.5901    8.8159    0.0000 C   0  0  0  0  0  0  0  0  0  0  0  0
   13.4802   10.0233    0.0000 C   0  0  0  0  0  0  0  0  0  0  0  0
   12.8797   11.3978    0.0000 C   0  0  0  0  0  0  0  0  0  0  0  0
   13.7698   12.6051    0.0000 N   0  0  0  0  0  0  0  0  0  0  0  0
   11.4738   11.9208    0.0000 O   0  0  0  0  0  0  0  0  0  0  0  0
   11.5556    9.9022    0.0000 C   0  0  0  0  0  0  0  0  0  0  0  0
   10.0977    9.5495    0.0000 O   0  0  0  0  0  0  0  0  0  0  0  0
   11.9792   11.3412    0.0000 N   0  0  0  0  0  0  0  0  0  0  0  0
   10.9448   12.4274    0.0000 C   0  0  0  0  0  0  0  0  0  0  0  0
    9.6012   13.0944    0.0000 C   0  0  0  0  0  0  0  0  0  0  0  0
    9.5070   14.5915    0.0000 C   0  0  0  0  0  0  0  0  0  0  0  0
    8.1635   15.2584    0.0000 C   0  0  0  0  0  0  0  0  0  0  0  0
    7.8875   16.7328    0.0000 O   0  0  0  0  0  0  0  0  0  0  0  0
    6.9141   14.4284    0.0000 O   0  0  0  0  0  0  0  0  0  0  0  0
   11.3683   13.8664    0.0000 C   0  0  0  0  0  0  0  0  0  0  0  0
   12.7724   14.3942    0.0000 O   0  0  0  0  0  0  0  0  0  0  0  0
   10.3339   14.9527    0.0000 N   0  0  0  0  0  0  0  0  0  0  0  0
   10.7574   16.3917    0.0000 C   0  0  0  0  0  0  0  0  0  0  0  0
   11.6476   17.5990    0.0000 C   0  0  0  0  0  0  0  0  0  0  0  0
   11.0471   18.9735    0.0000 C   0  0  0  0  0  0  0  0  0  0  0  0
   11.9372   20.1809    0.0000 C   0  0  0  0  0  0  0  0  0  0  0  0
   11.3367   21.5554    0.0000 C   0  0  0  0  0  0  0  0  0  0  0  0
   12.2268   22.7627    0.0000 N   0  0  0  0  0  0  0  0  0  0  0  0
    9.7230   17.4779    0.0000 C   0  0  0  0  0  0  0  0  0  0  0  0
    8.2329   17.3056    0.0000 O   0  0  0  0  0  0  0  0  0  0  0  0
   10.1465   18.9169    0.0000 N   0  0  0  0  0  0  0  0  0  0  0  0
    9.1121   20.0032    0.0000 C   0  0  0  0  0  0  0  0  0  0  0  0
    7.6973   20.5014    0.0000 C   0  0  0  0  0  0  0  0  0  0  0  0
    9.5357   21.4421    0.0000 C   0  0  0  0  0  0  0  0  0  0  0  0
   10.8649   22.1371    0.0000 O   0  0  0  0  0  0  0  0  0  0  0  0
    8.5012   22.5284    0.0000 N   0  0  0  0  0  0  0  0  0  0  0  0
    8.7720   24.0038    0.0000 C   0  0  0  0  0  0  0  0  0  0  0  0
    7.4526   24.7172    0.0000 C   0  0  0  0  0  0  0  0  0  0  0  0
    6.3663   23.6828    0.0000 C   0  0  0  0  0  0  0  0  0  0  0  0
    7.0144   22.3300    0.0000 C   0  0  0  0  0  0  0  0  0  0  0  0
    5.6013   21.8269    0.0000 C   0  0  0  0  0  0  0  0  0  0  0  0
    5.3305   20.3515    0.0000 O   0  0  0  0  0  0  0  0  0  0  0  0
    4.3490   22.6526    0.0000 O   0  0  0  0  0  0  0  0  0  0  0  0
  -31.3633    0.7360    0.0000 H   0  0  0  0  0  0  0  0  0  0  0  0
  -31.7069    3.3113    0.0000 H   0  0  0  0  0  0  0  0  0  0  0  0
  -29.3677    0.8225    0.0000 H   0  0  0  0  0  0  0  0  0  0  0  0
  -27.8399    1.9991    0.0000 H   0  0  0  0  0  0  0  0  0  0  0  0
  -30.1982    4.0301    0.0000 H   0  0  0  0  0  0  0  0  0  0  0  0
  -28.6704    5.2067    0.0000 H   0  0  0  0  0  0  0  0  0  0  0  0
  -27.7280    6.3612    0.0000 H   0  0  0  0  0  0  0  0  0  0  0  0
  -25.2508    3.9929    0.0000 H   0  0  0  0  0  0  0  0  0  0  0  0
  -25.5787    8.4200    0.0000 H   0  0  0  0  0  0  0  0  0  0  0  0
  -24.1547    7.1197    0.0000 H   0  0  0  0  0  0  0  0  0  0  0  0
  -29.0250    8.9954    0.0000 H   0  0  0  0  0  0  0  0  0  0  0  0
  -26.5486    9.7809    0.0000 H   0  0  0  0  0  0  0  0  0  0  0  0
  -24.2809    2.6320    0.0000 H   0  0  0  0  0  0  0  0  0  0  0  0
  -22.3760    2.0307    0.0000 H   0  0  0  0  0  0  0  0  0  0  0  0
  -22.0174    6.3906    0.0000 H   0  0  0  0  0  0  0  0  0  0  0  0
  -23.2322    5.0835    0.0000 H   0  0  0  0  0  0  0  0  0  0  0  0
  -18.9254    5.8095    0.0000 H   0  0  0  0  0  0  0  0  0  0  0  0
  -19.9587    4.1813    0.0000 H   0  0  0  0  0  0  0  0  0  0  0  0
  -21.9301    0.4201    0.0000 H   0  0  0  0  0  0  0  0  0  0  0  0
  -20.3458   -0.7964    0.0000 H   0  0  0  0  0  0  0  0  0  0  0  0
  -18.6998    3.1968    0.0000 H   0  0  0  0  0  0  0  0  0  0  0  0
  -20.1062    2.3652    0.0000 H   0  0  0  0  0  0  0  0  0  0  0  0
  -17.3387    0.3978    0.0000 H   0  0  0  0  0  0  0  0  0  0  0  0
  -15.2527    3.6614    0.0000 H   0  0  0  0  0  0  0  0  0  0  0  0
  -16.6414    4.7820    0.0000 H   0  0  0  0  0  0  0  0  0  0  0  0
  -18.1190    3.7816    0.0000 H   0  0  0  0  0  0  0  0  0  0  0  0
  -14.6719    2.5505    0.0000 H   0  0  0  0  0  0  0  0  0  0  0  0
  -14.4558    0.9310    0.0000 H   0  0  0  0  0  0  0  0  0  0  0  0
  -16.3825    0.1875    0.0000 H   0  0  0  0  0  0  0  0  0  0  0  0
  -20.4906   -2.2796    0.0000 H   0  0  0  0  0  0  0  0  0  0  0  0
  -17.0640   -2.3447    0.0000 H   0  0  0  0  0  0  0  0  0  0  0  0
  -20.2737   -5.3700    0.0000 H   0  0  0  0  0  0  0  0  0  0  0  0
  -18.4896   -5.3358    0.0000 H   0  0  0  0  0  0  0  0  0  0  0  0
  -21.4348   -2.0524    0.0000 H   0  0  0  0  0  0  0  0  0  0  0  0
  -20.1241   -1.9469    0.0000 H   0  0  0  0  0  0  0  0  0  0  0  0
  -22.8695   -5.2612    0.0000 H   0  0  0  0  0  0  0  0  0  0  0  0
  -21.2371   -5.3296    0.0000 H   0  0  0  0  0  0  0  0  0  0  0  0
  -24.1823   -2.0463    0.0000 H   0  0  0  0  0  0  0  0  0  0  0  0
  -22.3982   -2.0120    0.0000 H   0  0  0  0  0  0  0  0  0  0  0  0
  -25.8629   -3.1259    0.0000 H   0  0  0  0  0  0  0  0  0  0  0  0
  -25.6079   -5.0373    0.0000 H   0  0  0  0  0  0  0  0  0  0  0  0
  -23.8329   -5.2208    0.0000 H   0  0  0  0  0  0  0  0  0  0  0  0
  -15.6000   -2.0661    0.0000 H   0  0  0  0  0  0  0  0  0  0  0  0
  -14.9329   -7.0031    0.0000 H   0  0  0  0  0  0  0  0  0  0  0  0
  -15.4623   -5.6310    0.0000 H   0  0  0  0  0  0  0  0  0  0  0  0
  -14.0527   -8.4994    0.0000 H   0  0  0  0  0  0  0  0  0  0  0  0
  -14.7983   -7.4244    0.0000 H   0  0  0  0  0  0  0  0  0  0  0  0
  -12.4248   -9.7777    0.0000 H   0  0  0  0  0  0  0  0  0  0  0  0
  -13.6352   -8.9423    0.0000 H   0  0  0  0  0  0  0  0  0  0  0  0
  -11.5192  -10.4243    0.0000 H   0  0  0  0  0  0  0  0  0  0  0  0
  -16.8944   -4.8327    0.0000 H   0  0  0  0  0  0  0  0  0  0  0  0
  -16.1909   -6.4797    0.0000 H   0  0  0  0  0  0  0  0  0  0  0  0
  -14.9604   -6.5986    0.0000 H   0  0  0  0  0  0  0  0  0  0  0  0
  -14.6075   -0.6883    0.0000 H   0  0  0  0  0  0  0  0  0  0  0  0
  -12.5112    1.0756    0.0000 H   0  0  0  0  0  0  0  0  0  0  0  0
  -15.2748    0.0013    0.0000 H   0  0  0  0  0  0  0  0  0  0  0  0
  -14.3404   -1.3390    0.0000 H   0  0  0  0  0  0  0  0  0  0  0  0
  -15.4446    2.1775    0.0000 H   0  0  0  0  0  0  0  0  0  0  0  0
   -9.7213    2.1849    0.0000 H   0  0  0  0  0  0  0  0  0  0  0  0
   -7.0352    1.6457    0.0000 H   0  0  0  0  0  0  0  0  0  0  0  0
   -9.5982    3.1366    0.0000 H   0  0  0  0  0  0  0  0  0  0  0  0
  -10.0634    1.5704    0.0000 H   0  0  0  0  0  0  0  0  0  0  0  0
   -5.4990    1.5722    0.0000 H   0  0  0  0  0  0  0  0  0  0  0  0
   -3.7564    3.8112    0.0000 H   0  0  0  0  0  0  0  0  0  0  0  0
   -4.8049    6.6221    0.0000 H   0  0  0  0  0  0  0  0  0  0  0  0
   -7.7633    7.1195    0.0000 H   0  0  0  0  0  0  0  0  0  0  0  0
   -9.6733    4.8060    0.0000 H   0  0  0  0  0  0  0  0  0  0  0  0
   -4.4284    0.1561    0.0000 H   0  0  0  0  0  0  0  0  0  0  0  0
   -3.1752   -2.2802    0.0000 H   0  0  0  0  0  0  0  0  0  0  0  0
   -3.6076    0.6532    0.0000 H   0  0  0  0  0  0  0  0  0  0  0  0
   -5.1222    0.0404    0.0000 H   0  0  0  0  0  0  0  0  0  0  0  0
   -2.2748   -3.5271    0.0000 H   0  0  0  0  0  0  0  0  0  0  0  0
    0.5622   -3.4935    0.0000 H   0  0  0  0  0  0  0  0  0  0  0  0
    2.1061   -0.9212    0.0000 H   0  0  0  0  0  0  0  0  0  0  0  0
    0.6504    1.7020    0.0000 H   0  0  0  0  0  0  0  0  0  0  0  0
   -2.3492    1.7529    0.0000 H   0  0  0  0  0  0  0  0  0  0  0  0
   -2.6998   -5.0644    0.0000 H   0  0  0  0  0  0  0  0  0  0  0  0
   -4.0274   -8.1453    0.0000 H   0  0  0  0  0  0  0  0  0  0  0  0
   -5.0836   -9.1688    0.0000 H   0  0  0  0  0  0  0  0  0  0  0  0
   -5.3825   -9.4947    0.0000 H   0  0  0  0  0  0  0  0  0  0  0  0
   -6.5103  -10.1579    0.0000 H   0  0  0  0  0  0  0  0  0  0  0  0
   -7.0751  -10.3847    0.0000 H   0  0  0  0  0  0  0  0  0  0  0  0
   -8.5243  -10.6354    0.0000 H   0  0  0  0  0  0  0  0  0  0  0  0
   -9.6175  -10.8425    0.0000 H   0  0  0  0  0  0  0  0  0  0  0  0
   -2.3926   -8.0214    0.0000 H   0  0  0  0  0  0  0  0  0  0  0  0
   -3.7220   -9.2213    0.0000 H   0  0  0  0  0  0  0  0  0  0  0  0
   -4.8890   -8.8131    0.0000 H   0  0  0  0  0  0  0  0  0  0  0  0
   -2.6265   -8.9083    0.0000 H   0  0  0  0  0  0  0  0  0  0  0  0
   -1.1949   -5.8340    0.0000 H   0  0  0  0  0  0  0  0  0  0  0  0
    1.4568   -5.3462    0.0000 H   0  0  0  0  0  0  0  0  0  0  0  0
   -0.3273   -5.3804    0.0000 H   0  0  0  0  0  0  0  0  0  0  0  0
    1.4815   -8.8256    0.0000 H   0  0  0  0  0  0  0  0  0  0  0  0
    4.6071   -7.1511    0.0000 H   0  0  0  0  0  0  0  0  0  0  0  0
    4.1952   -5.5701    0.0000 H   0  0  0  0  0  0  0  0  0  0  0  0
    2.4202   -5.3866    0.0000 H   0  0  0  0  0  0  0  0  0  0  0  0
    2.5506  -10.0450    0.0000 H   0  0  0  0  0  0  0  0  0  0  0  0
    4.2400   -8.8575    0.0000 H   0  0  0  0  0  0  0  0  0  0  0  0
    3.9086   -7.5850    0.0000 H   0  0  0  0  0  0  0  0  0  0  0  0
    2.5509   -7.0466    0.0000 H   0  0  0  0  0  0  0  0  0  0  0  0
    1.1717   -9.9701    0.0000 H   0  0  0  0  0  0  0  0  0  0  0  0
    3.9446  -12.0606    0.0000 H   0  0  0  0  0  0  0  0  0  0  0  0
    4.5195  -10.6999    0.0000 H   0  0  0  0  0  0  0  0  0  0  0  0
    0.6886  -12.6747    0.0000 H   0  0  0  0  0  0  0  0  0  0  0  0
    0.9647  -10.9118    0.0000 H   0  0  0  0  0  0  0  0  0  0  0  0
    3.3866  -14.5981    0.0000 H   0  0  0  0  0  0  0  0  0  0  0  0
    3.8756  -12.8819    0.0000 H   0  0  0  0  0  0  0  0  0  0  0  0
   -0.0050  -14.1951    0.0000 H   0  0  0  0  0  0  0  0  0  0  0  0
    1.3556  -18.4845    0.0000 H   0  0  0  0  0  0  0  0  0  0  0  0
   -0.5630  -16.7326    0.0000 H   0  0  0  0  0  0  0  0  0  0  0  0
    3.8320  -17.6990    0.0000 H   0  0  0  0  0  0  0  0  0  0  0  0
    4.3900  -15.1615    0.0000 H   0  0  0  0  0  0  0  0  0  0  0  0
    4.5796  -11.8786    0.0000 H   0  0  0  0  0  0  0  0  0  0  0  0
    6.0112   -8.8043    0.0000 H   0  0  0  0  0  0  0  0  0  0  0  0
    9.2456   -9.1610    0.0000 H   0  0  0  0  0  0  0  0  0  0  0  0
    8.5800  -10.8167    0.0000 H   0  0  0  0  0  0  0  0  0  0  0  0
    9.6031   -9.9174    0.0000 H   0  0  0  0  0  0  0  0  0  0  0  0
    8.4526  -13.1075    0.0000 H   0  0  0  0  0  0  0  0  0  0  0  0
   10.1726  -15.3411    0.0000 H   0  0  0  0  0  0  0  0  0  0  0  0
    8.7486  -14.0408    0.0000 H   0  0  0  0  0  0  0  0  0  0  0  0
   13.2004  -14.1489    0.0000 H   0  0  0  0  0  0  0  0  0  0  0  0
   12.4597  -12.8708    0.0000 H   0  0  0  0  0  0  0  0  0  0  0  0
   14.0725  -17.3462    0.0000 H   0  0  0  0  0  0  0  0  0  0  0  0
   14.6305  -14.8088    0.0000 H   0  0  0  0  0  0  0  0  0  0  0  0
   11.9649  -14.8866    0.0000 H   0  0  0  0  0  0  0  0  0  0  0  0
   13.7911  -14.6995    0.0000 H   0  0  0  0  0  0  0  0  0  0  0  0
   14.5642  -14.9133    0.0000 H   0  0  0  0  0  0  0  0  0  0  0  0
   17.6085  -12.5910    0.0000 H   0  0  0  0  0  0  0  0  0  0  0  0
   17.1117  -11.1622    0.0000 H   0  0  0  0  0  0  0  0  0  0  0  0
   15.5648  -11.0352    0.0000 H   0  0  0  0  0  0  0  0  0  0  0  0
   17.8171  -14.8285    0.0000 H   0  0  0  0  0  0  0  0  0  0  0  0
   17.4330  -13.2404    0.0000 H   0  0  0  0  0  0  0  0  0  0  0  0
   17.6059  -16.6327    0.0000 H   0  0  0  0  0  0  0  0  0  0  0  0
   15.7678  -17.2157    0.0000 H   0  0  0  0  0  0  0  0  0  0  0  0
   14.8744  -15.5068    0.0000 H   0  0  0  0  0  0  0  0  0  0  0  0
   15.8320  -13.8810    0.0000 H   0  0  0  0  0  0  0  0  0  0  0  0
   17.6995  -13.8777    0.0000 H   0  0  0  0  0  0  0  0  0  0  0  0
   18.6196  -13.4704    0.0000 H   0  0  0  0  0  0  0  0  0  0  0  0
   19.5744  -11.7046    0.0000 H   0  0  0  0  0  0  0  0  0  0  0  0
   19.4175  -10.5286    0.0000 H   0  0  0  0  0  0  0  0  0  0  0  0
   18.2146   -9.1001    0.0000 H   0  0  0  0  0  0  0  0  0  0  0  0
   15.0559   -9.7281    0.0000 H   0  0  0  0  0  0  0  0  0  0  0  0
   14.3739   -8.1271    0.0000 H   0  0  0  0  0  0  0  0  0  0  0  0
   17.5989   -7.0025    0.0000 H   0  0  0  0  0  0  0  0  0  0  0  0
   18.3949   -4.2981    0.0000 H   0  0  0  0  0  0  0  0  0  0  0  0
   18.1799   -6.2144    0.0000 H   0  0  0  0  0  0  0  0  0  0  0  0
   15.5106   -2.6673    0.0000 H   0  0  0  0  0  0  0  0  0  0  0  0
   15.0521   -3.8998    0.0000 H   0  0  0  0  0  0  0  0  0  0  0  0
   16.9737   -3.1153    0.0000 H   0  0  0  0  0  0  0  0  0  0  0  0
   13.8737   -4.0308    0.0000 H   0  0  0  0  0  0  0  0  0  0  0  0
   12.2321   -0.9707    0.0000 H   0  0  0  0  0  0  0  0  0  0  0  0
   13.8380   -0.6702    0.0000 H   0  0  0  0  0  0  0  0  0  0  0  0
   12.9114   -4.0913    0.0000 H   0  0  0  0  0  0  0  0  0  0  0  0
    9.3323   -2.8917    0.0000 H   0  0  0  0  0  0  0  0  0  0  0  0
    9.6391   -1.1338    0.0000 H   0  0  0  0  0  0  0  0  0  0  0  0
   11.4099   -0.9133    0.0000 H   0  0  0  0  0  0  0  0  0  0  0  0
    9.6270   -4.1101    0.0000 H   0  0  0  0  0  0  0  0  0  0  0  0
   10.7034   -5.5334    0.0000 H   0  0  0  0  0  0  0  0  0  0  0  0
   12.4705   -4.7614    0.0000 H   0  0  0  0  0  0  0  0  0  0  0  0
   12.5091   -0.3711    0.0000 H   0  0  0  0  0  0  0  0  0  0  0  0
   15.7663    0.5733    0.0000 H   0  0  0  0  0  0  0  0  0  0  0  0
   16.5622    3.2776    0.0000 H   0  0  0  0  0  0  0  0  0  0  0  0
   16.3473    1.3613    0.0000 H   0  0  0  0  0  0  0  0  0  0  0  0
   13.6779    4.9084    0.0000 H   0  0  0  0  0  0  0  0  0  0  0  0
   13.2195    3.6759    0.0000 H   0  0  0  0  0  0  0  0  0  0  0  0
   15.1411    4.4605    0.0000 H   0  0  0  0  0  0  0  0  0  0  0  0
   11.8873    3.6444    0.0000 H   0  0  0  0  0  0  0  0  0  0  0  0
   10.2747    6.4708    0.0000 H   0  0  0  0  0  0  0  0  0  0  0  0
   12.0054    6.9055    0.0000 H   0  0  0  0  0  0  0  0  0  0  0  0
    7.5915    4.5255    0.0000 H   0  0  0  0  0  0  0  0  0  0  0  0
    8.7467    6.8527    0.0000 H   0  0  0  0  0  0  0  0  0  0  0  0
   10.6765    7.2046    0.0000 H   0  0  0  0  0  0  0  0  0  0  0  0
   13.9336    8.1490    0.0000 H   0  0  0  0  0  0  0  0  0  0  0  0
   14.7296   10.8533    0.0000 H   0  0  0  0  0  0  0  0  0  0  0  0
   14.5146    8.9370    0.0000 H   0  0  0  0  0  0  0  0  0  0  0  0
   13.3414   14.0426    0.0000 H   0  0  0  0  0  0  0  0  0  0  0  0
   15.2605   12.4379    0.0000 H   0  0  0  0  0  0  0  0  0  0  0  0
   13.3085   12.0362    0.0000 H   0  0  0  0  0  0  0  0  0  0  0  0
   10.0546   11.2201    0.0000 H   0  0  0  0  0  0  0  0  0  0  0  0
    8.1106   13.2616    0.0000 H   0  0  0  0  0  0  0  0  0  0  0  0
    9.1777   11.6555    0.0000 H   0  0  0  0  0  0  0  0  0  0  0  0
    9.9306   16.0304    0.0000 H   0  0  0  0  0  0  0  0  0  0  0  0
   10.9017   15.1438    0.0000 H   0  0  0  0  0  0  0  0  0  0  0  0
    8.8339   14.9633    0.0000 H   0  0  0  0  0  0  0  0  0  0  0  0
   12.1010   15.7247    0.0000 H   0  0  0  0  0  0  0  0  0  0  0  0
   12.9888   18.2706    0.0000 H   0  0  0  0  0  0  0  0  0  0  0  0
   12.6820   16.5127    0.0000 H   0  0  0  0  0  0  0  0  0  0  0  0
    9.8879   19.9256    0.0000 H   0  0  0  0  0  0  0  0  0  0  0  0
    9.5542   18.8273    0.0000 H   0  0  0  0  0  0  0  0  0  0  0  0
   13.2785   20.8524    0.0000 H   0  0  0  0  0  0  0  0  0  0  0  0
   13.0963   19.2288    0.0000 H   0  0  0  0  0  0  0  0  0  0  0  0
   10.3023   22.6417    0.0000 H   0  0  0  0  0  0  0  0  0  0  0  0
    9.9954   20.8838    0.0000 H   0  0  0  0  0  0  0  0  0  0  0  0
   11.6263   24.1373    0.0000 H   0  0  0  0  0  0  0  0  0  0  0  0
   13.4762   23.5928    0.0000 H   0  0  0  0  0  0  0  0  0  0  0  0
   13.3860   21.8107    0.0000 H   0  0  0  0  0  0  0  0  0  0  0  0
   11.4758   19.6119    0.0000 H   0  0  0  0  0  0  0  0  0  0  0  0
    8.2220   18.7958    0.0000 H   0  0  0  0  0  0  0  0  0  0  0  0
    6.5192   19.8401    0.0000 H   0  0  0  0  0  0  0  0  0  0  0  0
    6.5020   21.4738    0.0000 H   0  0  0  0  0  0  0  0  0  0  0  0
    8.3401   22.0570    0.0000 H   0  0  0  0  0  0  0  0  0  0  0  0
   10.2110   23.5802    0.0000 H   0  0  0  0  0  0  0  0  0  0  0  0
    9.3437   25.3906    0.0000 H   0  0  0  0  0  0  0  0  0  0  0  0
    8.3000   25.9549    0.0000 H   0  0  0  0  0  0  0  0  0  0  0  0
    6.3103   25.6894    0.0000 H   0  0  0  0  0  0  0  0  0  0  0  0
    5.4511   24.8712    0.0000 H   0  0  0  0  0  0  0  0  0  0  0  0
    5.0024   23.0584    0.0000 H   0  0  0  0  0  0  0  0  0  0  0  0
    7.1868   20.8400    0.0000 H   0  0  0  0  0  0  0  0  0  0  0  0
  1  2  1  0
  2  3  1  0
  3  4  1  0
  4  5  2  0
  4  6  1  0
  6  7  1  0
  7  8  1  0
  8  9  1  0
  9 10  1  0
  9 11  2  0
  7 12  1  0
 12 13  2  0
 12 14  1  0
 14 15  1  0
 15 16  1  0
 16 17  1  0
 17 18  1  0
 18 19  2  0
 18 20  1  0
 15 21  1  0
 21 22  2  0
 21 23  1  0
 23 24  1  0
 24 25  1  0
 25 26  1  0
 26 27  1  0
 26 28  1  0
 24 29  1  0
 29 30  2  0
 29 31  1  0
 31 32  1  0
 32 33  1  0
 33 34  1  0
 34 35  1  0
 35 36  1  0
 36 37  1  0
 32 38  1  0
 38 39  2  0
 38 40  1  0
 41 40  1  6
 41 42  1  0
 42 43  1  0
 43 44  1  0
 44 45  1  0
 41 46  1  0
 41 47  1  0
 47 48  2  0
 47 49  1  0
 49 50  1  0
 50 51  1  0
 51 52  1  0
 50 53  1  0
 53 54  2  0
 53 55  1  0
 55 56  1  0
 56 57  1  0
 57 58  1  0
 58 59  2  0
 59 60  1  0
 60 61  2  0
 61 62  1  0
 62 63  2  0
 56 64  1  0
 64 65  2  0
 64 66  1  0
 66 67  1  0
 67 68  1  0
 68 69  1  0
 69 70  2  0
 70 71  1  0
 71 72  2  0
 72 73  1  0
 73 74  2  0
 67 75  1  0
 75 76  2  0
 75 77  1  0
 77 78  1  0
 78 79  1  0
 79 80  1  0
 80 81  1  0
 81 82  1  0
 78 83  1  0
 78 84  1  6
 84 85  2  0
 84 86  1  0
 86 87  1  0
 87 88  1  0
 88 89  1  0
 89 90  1  0
 89 91  1  0
 87 92  1  0
 92 93  2  0
 92 94  1  0
 94 95  1  0
 95 96  1  0
 96 97  1  0
 97 98  1  0
 98 99  1  0
 99100  1  0
100101  2  3
100102  1  0
 95103  1  0
103104  2  0
103105  1  0
105106  1  0
106107  1  0
107108  1  0
108109  2  0
108110  1  0
106111  1  0
111112  2  0
111113  1  0
113114  1  0
114115  1  0
115116  1  0
116117  1  0
117118  1  0
117119  2  0
114120  1  0
120121  2  0
120122  1  0
122123  1  0
123124  1  0
124125  1  0
124126  1  0
126127  1  0
123128  1  0
128129  2  0
128130  1  0
130131  1  0
131132  1  0
132133  1  0
133134  1  0
134135  1  0
135136  2  0
135137  1  0
137138  1  0
138139  1  0
139140  1  0
140141  1  0
141142  2  0
141143  1  0
138144  1  0
144145  2  0
144146  1  0
146147  1  0
147148  1  0
148149  1  0
149150  1  0
149151  1  0
147152  1  0
152153  2  0
152154  1  0
154155  1  0
155156  1  0
156157  1  0
157158  1  0
158159  2  0
158160  1  0
155161  1  0
161162  2  0
161163  1  0
163164  1  0
164165  1  0
165166  1  0
166167  1  0
166168  2  0
164169  1  0
169170  2  0
169171  1  0
171172  1  0
172173  1  0
173174  1  0
174175  1  0
174176  2  0
172177  1  0
177178  2  0
177179  1  0
179180  1  0
180181  1  0
181182  1  0
182183  1  0
183184  2  0
183185  1  0
180186  1  0
186187  2  0
186188  1  0
188189  1  0
189190  1  0
190191  1  0
191192  1  0
192193  1  0
193194  1  0
189195  1  0
195196  2  0
195197  1  0
197198  1  0
198199  1  0
198200  1  0
200201  2  0
200202  1  0
202203  1  0
203204  1  0
204205  1  0
205206  1  0
206207  1  0
207208  2  0
207209  1  0
 63 58  1  0
 74 69  1  0
134130  1  0
206202  1  0
 45 82  2  0
  1210  1  0
  1211  1  0
  2212  1  0
  2213  1  0
  3214  1  0
  3215  1  0
  6216  1  0
  7217  1  1
  8218  1  0
  8219  1  0
 10220  1  0
 10221  1  0
 14222  1  0
 15223  1  1
 16224  1  0
 16225  1  0
 17226  1  0
 17227  1  0
 23228  1  0
 24229  1  1
 25230  1  0
 25231  1  0
 26232  1  0
 27233  1  0
 27234  1  0
 27235  1  0
 28236  1  0
 28237  1  0
 28238  1  0
 31239  1  0
 32240  1  6
 33241  1  0
 33242  1  0
 34243  1  0
 34244  1  0
 35245  1  0
 35246  1  0
 36247  1  0
 36248  1  0
 37249  1  0
 37250  1  0
 37251  1  0
 40252  1  0
 42253  1  0
 42254  1  0
 43255  1  0
 43256  1  0
 44257  1  0
 44258  1  0
 45259  1  0
 46260  1  0
 46261  1  0
 46262  1  0
 49263  1  0
 50264  1  1
 51265  1  0
 51266  1  0
 52267  1  0
 55268  1  0
 56269  1  1
 57270  1  0
 57271  1  0
 59272  1  0
 60273  1  0
 61274  1  0
 62275  1  0
 63276  1  0
 66277  1  0
 67278  1  1
 68279  1  0
 68280  1  0
 70281  1  0
 71282  1  0
 72283  1  0
 73284  1  0
 74285  1  0
 77286  1  0
 79287  1  0
 79288  1  0
 80289  1  0
 80290  1  0
 81291  1  0
 81292  1  0
 82293  1  0
 83294  1  0
 83295  1  0
 83296  1  0
 86297  1  0
 87298  1  1
 88299  1  0
 88300  1  0
 89301  1  0
 90302  1  0
 90303  1  0
 90304  1  0
 91305  1  0
 91306  1  0
 91307  1  0
 94308  1  0
 95309  1  6
 96310  1  0
 96311  1  0
 97312  1  0
 97313  1  0
 98314  1  0
 98315  1  0
 99316  1  0
101317  1  0
101318  1  0
102319  1  0
102320  1  0
105321  1  0
106322  1  1
107323  1  0
107324  1  0
113325  1  0
114326  1  6
115327  1  0
115328  1  0
116329  1  0
116330  1  0
118331  1  0
118332  1  0
122333  1  0
123334  1  6
124335  1  6
125336  1  0
125337  1  0
125338  1  0
126339  1  0
126340  1  0
127341  1  0
127342  1  0
127343  1  0
131344  1  0
131345  1  0
132346  1  0
132347  1  0
133348  1  0
133349  1  0
134350  1  0
137351  1  0
138352  1  6
139353  1  0
139354  1  0
140355  1  0
140356  1  0
146357  1  0
147358  1  1
148359  1  0
148360  1  0
149361  1  0
150362  1  0
150363  1  0
150364  1  0
151365  1  0
151366  1  0
151367  1  0
154368  1  0
155369  1  6
156370  1  0
156371  1  0
157372  1  0
157373  1  0
163374  1  0
164375  1  1
165376  1  0
165377  1  0
167378  1  0
167379  1  0
171380  1  0
172381  1  6
173382  1  0
173383  1  0
175384  1  0
175385  1  0
179386  1  0
180387  1  1
181388  1  0
181389  1  0
182390  1  0
182391  1  0
188392  1  0
189393  1  6
190394  1  0
190395  1  0
191396  1  0
191397  1  0
192398  1  0
192399  1  0
193400  1  0
193401  1  0
194402  1  0
194403  1  0
194404  1  0
197405  1  0
198406  1  1
199407  1  0
199408  1  0
199409  1  0
203410  1  0
203411  1  0
204412  1  0
204413  1  0
205414  1  0
205415  1  0
206416  1  0
M  CHG  8  20  -1  37   1 101   1 110  -1 143  -1 160  -1 185  -1 194   1
M  CHG  1 209  -1
M  END
