
     RDKit          2D

331336  0  0  0  0  0  0  0  0999 V2000
  -28.3245    0.2082    0.0000 C   0  0  0  0  0  0  0  0  0  0  0  0
  -29.6103   -0.5642    0.0000 N   0  0  0  0  0  0  0  0  0  0  0  0
  -30.9222    0.1632    0.0000 C   0  0  0  0  0  0  0  0  0  0  0  0
  -30.9482    1.6629    0.0000 C   0  0  0  0  0  0  0  0  0  0  0  0
  -32.2601    2.3903    0.0000 C   0  0  0  0  0  0  0  0  0  0  0  0
  -33.5459    1.6179    0.0000 C   0  0  0  0  0  0  0  0  0  0  0  0
  -33.5199    0.1181    0.0000 C   0  0  0  0  0  0  0  0  0  0  0  0
  -32.2080   -0.6093    0.0000 C   0  0  0  0  0  0  0  0  0  0  0  0
  -34.9382   -0.3701    0.0000 C   0  0  0  0  0  0  0  0  0  0  0  0
  -35.8408    0.8279    0.0000 O   0  0  0  0  0  0  0  0  0  0  0  0
  -34.9803    2.0566    0.0000 C   0  0  0  0  0  0  0  0  0  0  0  0
  -35.4685    3.4749    0.0000 O   0  0  0  0  0  0  0  0  0  0  0  0
  -36.3998   -0.7074    0.0000 C   0  0  0  0  0  0  0  0  0  0  0  0
  -36.8385   -2.1418    0.0000 C   0  0  0  0  0  0  0  0  0  0  0  0
  -38.3001   -2.4791    0.0000 C   0  0  0  0  0  0  0  0  0  0  0  0
  -39.3230   -1.3820    0.0000 C   0  0  0  0  0  0  0  0  0  0  0  0
  -38.8843    0.0524    0.0000 C   0  0  0  0  0  0  0  0  0  0  0  0
  -37.4227    0.3897    0.0000 C   0  0  0  0  0  0  0  0  0  0  0  0
  -40.7846   -1.7193    0.0000 O   0  0  0  0  0  0  0  0  0  0  0  0
  -35.8156   -3.2390    0.0000 O   0  0  0  0  0  0  0  0  0  0  0  0
  -34.3540   -2.9017    0.0000 C   0  0  0  0  0  0  0  0  0  0  0  0
  -33.9153   -1.4673    0.0000 C   0  0  0  0  0  0  0  0  0  0  0  0
  -32.6585   -1.7994    0.0000 C   0  0  0  0  0  0  0  0  0  0  0  0
  -32.1129   -2.3845    0.0000 C   0  0  0  0  0  0  0  0  0  0  0  0
  -32.3469   -3.1495    0.0000 C   0  0  0  0  0  0  0  0  0  0  0  0
  -33.1264   -3.3294    0.0000 C   0  0  0  0  0  0  0  0  0  0  0  0
  -30.8467   -4.7587    0.0000 O   0  0  0  0  0  0  0  0  0  0  0  0
  -28.3505    1.7080    0.0000 S   0  0  0  0  0  0  0  0  0  0  0  0
  -27.0127   -0.5191    0.0000 N   0  0  0  0  0  0  0  0  0  0  0  0
  -25.7268    0.2533    0.0000 C   0  0  0  0  0  0  0  0  0  0  0  0
  -24.4150   -0.4740    0.0000 C   0  0  0  0  0  0  0  0  0  0  0  0
  -23.1291    0.2984    0.0000 C   0  0  0  0  0  0  0  0  0  0  0  0
  -23.1552    1.7982    0.0000 O   0  0  0  0  0  0  0  0  0  0  0  0
  -21.8173   -0.4289    0.0000 N   0  0  0  0  0  0  0  0  0  0  0  0
  -20.5315    0.3435    0.0000 C   0  0  0  0  0  0  0  0  0  0  0  0
  -19.5874    1.5091    0.0000 C   0  0  0  0  0  0  0  0  0  0  0  0
  -19.0989    2.9273    0.0000 O   0  0  0  0  0  0  0  0  0  0  0  0
  -18.0883    1.4567    0.0000 C   0  0  0  0  0  0  0  0  0  0  0  0
  -19.2196   -0.3839    0.0000 C   0  0  0  0  0  0  0  0  0  0  0  0
  -19.1936   -1.8836    0.0000 O   0  0  0  0  0  0  0  0  0  0  0  0
  -17.9338    0.3886    0.0000 N   0  0  0  0  0  0  0  0  0  0  0  0
  -16.6219   -0.3388    0.0000 C   0  0  0  0  0  0  0  0  0  0  0  0
  -15.6379   -1.4709    0.0000 C   0  0  0  0  0  0  0  0  0  0  0  0
  -16.1264   -2.8892    0.0000 C   0  0  0  0  0  0  0  0  0  0  0  0
  -15.1425   -4.0213    0.0000 C   0  0  0  0  0  0  0  0  0  0  0  0
  -15.6310   -5.4396    0.0000 N   0  0  0  0  0  0  0  0  0  0  0  0
  -14.6470   -6.5717    0.0000 C   0  0  0  0  0  0  0  0  0  0  0  0
  -15.1355   -7.9900    0.0000 N   0  0  0  0  0  0  0  0  0  0  0  0
  -13.1745   -6.2857    0.0000 N   0  0  0  0  0  0  0  0  0  0  0  0
  -15.3361    0.4337    0.0000 C   0  0  0  0  0  0  0  0  0  0  0  0
  -15.3621    1.9334    0.0000 O   0  0  0  0  0  0  0  0  0  0  0  0
  -14.0242   -0.2937    0.0000 N   0  0  0  0  0  0  0  0  0  0  0  0
  -12.7384    0.4787    0.0000 C   0  0  0  0  0  0  0  0  0  0  0  0
  -11.7943    1.6444    0.0000 C   0  0  0  0  0  0  0  0  0  0  0  0
  -10.3128    1.4096    0.0000 C   0  0  0  0  0  0  0  0  0  0  0  0
   -9.3687    2.5752    0.0000 C   0  0  0  0  0  0  0  0  0  0  0  0
   -7.8696    2.5227    0.0000 N   0  0  0  0  0  0  0  0  0  0  0  0
   -9.9061    3.9756    0.0000 O   0  0  0  0  0  0  0  0  0  0  0  0
  -11.4265   -0.2486    0.0000 C   0  0  0  0  0  0  0  0  0  0  0  0
  -11.4005   -1.7484    0.0000 O   0  0  0  0  0  0  0  0  0  0  0  0
  -10.1407    0.5238    0.0000 N   0  0  0  0  0  0  0  0  0  0  0  0
   -8.8289   -0.2035    0.0000 C   0  0  0  0  0  0  0  0  0  0  0  0
   -7.8449   -1.3357    0.0000 C   0  0  0  0  0  0  0  0  0  0  0  0
   -7.5430    0.5689    0.0000 C   0  0  0  0  0  0  0  0  0  0  0  0
   -7.4286    1.6564    0.0000 O   0  0  0  0  0  0  0  0  0  0  0  0
   -6.2312   -0.1584    0.0000 N   0  0  0  0  0  0  0  0  0  0  0  0
   -4.9453    0.6140    0.0000 C   0  0  0  0  0  0  0  0  0  0  0  0
   -4.0012    1.7796    0.0000 C   0  0  0  0  0  0  0  0  0  0  0  0
   -2.5197    1.5448    0.0000 C   0  0  0  0  0  0  0  0  0  0  0  0
   -1.5756    2.7104    0.0000 C   0  0  0  0  0  0  0  0  0  0  0  0
   -0.0941    2.4756    0.0000 N   0  0  0  0  0  0  0  0  0  0  0  0
    0.8500    3.6412    0.0000 C   0  0  0  0  0  0  0  0  0  0  0  0
    2.2918    3.2276    0.0000 N   0  0  0  0  0  0  0  0  0  0  0  0
    0.3126    5.0417    0.0000 N   0  0  0  0  0  0  0  0  0  0  0  0
   -3.6335   -0.1134    0.0000 C   0  0  0  0  0  0  0  0  0  0  0  0
   -3.6075   -1.6131    0.0000 O   0  0  0  0  0  0  0  0  0  0  0  0
   -2.3477    0.6591    0.0000 N   0  0  0  0  0  0  0  0  0  0  0  0
   -1.0358   -0.0683    0.0000 C   0  0  0  0  0  0  0  0  0  0  0  0
   -0.0518   -1.2004    0.0000 C   0  0  0  0  0  0  0  0  0  0  0  0
   -0.5403   -2.6187    0.0000 C   0  0  0  0  0  0  0  0  0  0  0  0
    0.4437   -3.7508    0.0000 C   0  0  0  0  0  0  0  0  0  0  0  0
   -0.0448   -5.1691    0.0000 N   0  0  0  0  0  0  0  0  0  0  0  0
    0.9391   -6.3012    0.0000 C   0  0  0  0  0  0  0  0  0  0  0  0
    0.4506   -7.7195    0.0000 N   0  0  0  0  0  0  0  0  0  0  0  0
    2.4116   -6.0152    0.0000 N   0  0  0  0  0  0  0  0  0  0  0  0
    0.2500    0.7041    0.0000 C   0  0  0  0  0  0  0  0  0  0  0  0
    0.4962    1.7696    0.0000 O   0  0  0  0  0  0  0  0  0  0  0  0
    1.5619   -0.0232    0.0000 N   0  0  0  0  0  0  0  0  0  0  0  0
    2.8477    0.7492    0.0000 C   0  0  0  0  0  0  0  0  0  0  0  0
    3.7918    1.9148    0.0000 C   0  0  0  0  0  0  0  0  0  0  0  0
    5.2733    1.6800    0.0000 C   0  0  0  0  0  0  0  0  0  0  0  0
    6.0683    2.9521    0.0000 N   0  0  0  0  0  0  0  0  0  0  0  0
    5.7305    1.0270    0.0000 O   0  0  0  0  0  0  0  0  0  0  0  0
    4.1596    0.0219    0.0000 C   0  0  0  0  0  0  0  0  0  0  0  0
    4.0026   -1.4699    0.0000 O   0  0  0  0  0  0  0  0  0  0  0  0
    5.4454    0.7943    0.0000 N   0  0  0  0  0  0  0  0  0  0  0  0
    6.7573    0.0670    0.0000 C   0  0  0  0  0  0  0  0  0  0  0  0
    7.0799   -1.3979    0.0000 C   0  0  0  0  0  0  0  0  0  0  0  0
    7.8201   -2.7026    0.0000 C   0  0  0  0  0  0  0  0  0  0  0  0
    8.9119   -3.7312    0.0000 C   0  0  0  0  0  0  0  0  0  0  0  0
   10.2584   -4.3922    0.0000 C   0  0  0  0  0  0  0  0  0  0  0  0
    5.4544   -0.6764    0.0000 C   0  0  0  0  0  0  0  0  0  0  0  0
    6.8807    1.5619    0.0000 C   0  0  0  0  0  0  0  0  0  0  0  0
    5.6415    2.4071    0.0000 O   0  0  0  0  0  0  0  0  0  0  0  0
    7.4393    2.9540    0.0000 N   0  0  0  0  0  0  0  0  0  0  0  0
    8.3834    4.1196    0.0000 C   0  0  0  0  0  0  0  0  0  0  0  0
    8.1341    5.5988    0.0000 C   0  0  0  0  0  0  0  0  0  0  0  0
    6.7285    6.1225    0.0000 C   0  0  0  0  0  0  0  0  0  0  0  0
    6.4792    7.6016    0.0000 C   0  0  0  0  0  0  0  0  0  0  0  0
    5.0736    8.1253    0.0000 N   0  0  0  0  0  0  0  0  0  0  0  0
    4.8243    9.6044    0.0000 C   0  0  0  0  0  0  0  0  0  0  0  0
    3.4187   10.1281    0.0000 N   0  0  0  0  0  0  0  0  0  0  0  0
    5.9807   10.5599    0.0000 N   0  0  0  0  0  0  0  0  0  0  0  0
    9.6291    4.9552    0.0000 C   0  0  0  0  0  0  0  0  0  0  0  0
    8.9885    6.3115    0.0000 O   0  0  0  0  0  0  0  0  0  0  0  0
   11.0658    5.3864    0.0000 N   0  0  0  0  0  0  0  0  0  0  0  0
   12.5657    5.3751    0.0000 C   0  0  0  0  0  0  0  0  0  0  0  0
   13.5667    6.4922    0.0000 C   0  0  0  0  0  0  0  0  0  0  0  0
   13.0998    7.9176    0.0000 C   0  0  0  0  0  0  0  0  0  0  0  0
   14.1008    9.0348    0.0000 C   0  0  0  0  0  0  0  0  0  0  0  0
   13.6339   10.4602    0.0000 N   0  0  0  0  0  0  0  0  0  0  0  0
   14.6349   11.5773    0.0000 C   0  0  0  0  0  0  0  0  0  0  0  0
   14.1680   13.0028    0.0000 N   0  0  0  0  0  0  0  0  0  0  0  0
   16.1029   11.2690    0.0000 N   0  0  0  0  0  0  0  0  0  0  0  0
   13.9957    4.9221    0.0000 C   0  0  0  0  0  0  0  0  0  0  0  0
   14.6567    6.2686    0.0000 O   0  0  0  0  0  0  0  0  0  0  0  0
   15.2286    4.0677    0.0000 N   0  0  0  0  0  0  0  0  0  0  0  0
   16.1549    2.8879    0.0000 C   0  0  0  0  0  0  0  0  0  0  0  0
   17.6524    2.8018    0.0000 C   0  0  0  0  0  0  0  0  0  0  0  0
   18.4758    4.0556    0.0000 C   0  0  0  0  0  0  0  0  0  0  0  0
   19.9733    3.9695    0.0000 C   0  0  0  0  0  0  0  0  0  0  0  0
   20.7967    5.2233    0.0000 N   0  0  0  0  0  0  0  0  0  0  0  0
   22.2942    5.1372    0.0000 C   0  0  0  0  0  0  0  0  0  0  0  0
   23.1175    6.3911    0.0000 N   0  0  0  0  0  0  0  0  0  0  0  0
   22.9684    3.7973    0.0000 N   0  0  0  0  0  0  0  0  0  0  0  0
   16.6923    1.4875    0.0000 C   0  0  0  0  0  0  0  0  0  0  0  0
   18.1572    1.8102    0.0000 O   0  0  0  0  0  0  0  0  0  0  0  0
   16.7931   -0.0091    0.0000 N   0  0  0  0  0  0  0  0  0  0  0  0
   16.4482   -1.4689    0.0000 C   0  0  0  0  0  0  0  0  0  0  0  0
   15.6884   -2.7623    0.0000 C   0  0  0  0  0  0  0  0  0  0  0  0
   14.5811   -3.7741    0.0000 C   0  0  0  0  0  0  0  0  0  0  0  0
   13.2248   -4.4147    0.0000 C   0  0  0  0  0  0  0  0  0  0  0  0
   11.7399   -4.6270    0.0000 C   0  0  0  0  0  0  0  0  0  0  0  0
   17.9207   -1.1829    0.0000 C   0  0  0  0  0  0  0  0  0  0  0  0
   17.3146   -2.6934    0.0000 C   0  0  0  0  0  0  0  0  0  0  0  0
   17.0356   -4.1673    0.0000 O   0  0  0  0  0  0  0  0  0  0  0  0
   18.8082   -2.5554    0.0000 N   0  0  0  0  0  0  0  0  0  0  0  0
   19.6746   -3.7799    0.0000 C   0  0  0  0  0  0  0  0  0  0  0  0
   20.0699   -5.2269    0.0000 C   0  0  0  0  0  0  0  0  0  0  0  0
   19.0144   -6.2927    0.0000 C   0  0  0  0  0  0  0  0  0  0  0  0
   19.4097   -7.7397    0.0000 C   0  0  0  0  0  0  0  0  0  0  0  0
   18.3543   -8.8055    0.0000 N   0  0  0  0  0  0  0  0  0  0  0  0
   18.7496  -10.2525    0.0000 C   0  0  0  0  0  0  0  0  0  0  0  0
   17.6941  -11.3183    0.0000 N   0  0  0  0  0  0  0  0  0  0  0  0
   20.2003  -10.6337    0.0000 N   0  0  0  0  0  0  0  0  0  0  0  0
   21.1682   -3.6419    0.0000 C   0  0  0  0  0  0  0  0  0  0  0  0
   21.7955   -2.2793    0.0000 O   0  0  0  0  0  0  0  0  0  0  0  0
   22.0346   -4.8664    0.0000 N   0  0  0  0  0  0  0  0  0  0  0  0
   23.5282   -4.7284    0.0000 C   0  0  0  0  0  0  0  0  0  0  0  0
   24.8846   -4.0878    0.0000 C   0  0  0  0  0  0  0  0  0  0  0  0
   26.1175   -4.9422    0.0000 C   0  0  0  0  0  0  0  0  0  0  0  0
   27.4738   -4.3016    0.0000 C   0  0  0  0  0  0  0  0  0  0  0  0
   28.7067   -5.1559    0.0000 N   0  0  0  0  0  0  0  0  0  0  0  0
   30.0631   -4.5154    0.0000 C   0  0  0  0  0  0  0  0  0  0  0  0
   31.2960   -5.3697    0.0000 N   0  0  0  0  0  0  0  0  0  0  0  0
   30.1865   -3.0205    0.0000 N   0  0  0  0  0  0  0  0  0  0  0  0
   24.3946   -5.9529    0.0000 C   0  0  0  0  0  0  0  0  0  0  0  0
   25.8939   -5.9979    0.0000 O   0  0  0  0  0  0  0  0  0  0  0  0
   23.7673   -7.3154    0.0000 O   0  0  0  0  0  0  0  0  0  0  0  0
  -29.4017   -2.0496    0.0000 H   0  0  0  0  0  0  0  0  0  0  0  0
  -29.6624    2.4354    0.0000 H   0  0  0  0  0  0  0  0  0  0  0  0
  -32.2861    3.8901    0.0000 H   0  0  0  0  0  0  0  0  0  0  0  0
  -31.8199   -2.0582    0.0000 H   0  0  0  0  0  0  0  0  0  0  0  0
  -38.7388   -3.9135    0.0000 H   0  0  0  0  0  0  0  0  0  0  0  0
  -39.9072    1.1496    0.0000 H   0  0  0  0  0  0  0  0  0  0  0  0
  -36.9840    1.8241    0.0000 H   0  0  0  0  0  0  0  0  0  0  0  0
  -41.8074   -0.6221    0.0000 H   0  0  0  0  0  0  0  0  0  0  0  0
  -32.0150    0.3044    0.0000 H   0  0  0  0  0  0  0  0  0  0  0  0
  -29.9390   -2.0705    0.0000 H   0  0  0  0  0  0  0  0  0  0  0  0
  -33.7698   -5.4332    0.0000 H   0  0  0  0  0  0  0  0  0  0  0  0
  -31.2854   -6.1931    0.0000 H   0  0  0  0  0  0  0  0  0  0  0  0
  -26.9866   -2.0189    0.0000 H   0  0  0  0  0  0  0  0  0  0  0  0
  -24.7827    1.4189    0.0000 H   0  0  0  0  0  0  0  0  0  0  0  0
  -26.7108    1.3855    0.0000 H   0  0  0  0  0  0  0  0  0  0  0  0
  -23.4310   -1.6062    0.0000 H   0  0  0  0  0  0  0  0  0  0  0  0
  -25.3591   -1.6396    0.0000 H   0  0  0  0  0  0  0  0  0  0  0  0
  -21.7913   -1.9287    0.0000 H   0  0  0  0  0  0  0  0  0  0  0  0
  -21.5154    1.4757    0.0000 H   0  0  0  0  0  0  0  0  0  0  0  0
  -20.8992    2.2365    0.0000 H   0  0  0  0  0  0  0  0  0  0  0  0
  -20.0828    4.0595    0.0000 H   0  0  0  0  0  0  0  0  0  0  0  0
  -17.1617    2.4399    0.0000 H   0  0  0  0  0  0  0  0  0  0  0  0
  -16.7940    0.5470    0.0000 H   0  0  0  0  0  0  0  0  0  0  0  0
  -17.8712   -0.2072    0.0000 H   0  0  0  0  0  0  0  0  0  0  0  0
  -17.7768    1.8803    0.0000 H   0  0  0  0  0  0  0  0  0  0  0  0
  -17.7011   -1.3806    0.0000 H   0  0  0  0  0  0  0  0  0  0  0  0
  -14.3261   -2.1983    0.0000 H   0  0  0  0  0  0  0  0  0  0  0  0
  -14.4398   -0.5684    0.0000 H   0  0  0  0  0  0  0  0  0  0  0  0
  -17.0705   -4.0548    0.0000 H   0  0  0  0  0  0  0  0  0  0  0  0
  -17.5172   -2.3272    0.0000 H   0  0  0  0  0  0  0  0  0  0  0  0
  -13.8306   -4.7487    0.0000 H   0  0  0  0  0  0  0  0  0  0  0  0
  -14.0633   -2.9795    0.0000 H   0  0  0  0  0  0  0  0  0  0  0  0
  -17.1034   -5.7256    0.0000 H   0  0  0  0  0  0  0  0  0  0  0  0
  -14.1515   -9.1221    0.0000 H   0  0  0  0  0  0  0  0  0  0  0  0
  -12.1905   -7.4178    0.0000 H   0  0  0  0  0  0  0  0  0  0  0  0
  -12.6860   -4.8674    0.0000 H   0  0  0  0  0  0  0  0  0  0  0  0
  -13.8156   -1.7791    0.0000 H   0  0  0  0  0  0  0  0  0  0  0  0
  -13.7224    1.6109    0.0000 H   0  0  0  0  0  0  0  0  0  0  0  0
  -11.3058    3.0626    0.0000 H   0  0  0  0  0  0  0  0  0  0  0  0
  -13.1062    2.3717    0.0000 H   0  0  0  0  0  0  0  0  0  0  0  0
   -9.0009    0.6822    0.0000 H   0  0  0  0  0  0  0  0  0  0  0  0
  -10.0781   -0.0720    0.0000 H   0  0  0  0  0  0  0  0  0  0  0  0
   -6.9431    3.5060    0.0000 H   0  0  0  0  0  0  0  0  0  0  0  0
   -6.9822    1.1128    0.0000 H   0  0  0  0  0  0  0  0  0  0  0  0
   -9.8031    1.9853    0.0000 H   0  0  0  0  0  0  0  0  0  0  0  0
   -9.7730   -1.3692    0.0000 H   0  0  0  0  0  0  0  0  0  0  0  0
   -8.3334   -2.7539    0.0000 H   0  0  0  0  0  0  0  0  0  0  0  0
   -6.6315   -2.2175    0.0000 H   0  0  0  0  0  0  0  0  0  0  0  0
   -6.6468   -0.4332    0.0000 H   0  0  0  0  0  0  0  0  0  0  0  0
   -6.0225   -1.6439    0.0000 H   0  0  0  0  0  0  0  0  0  0  0  0
   -5.9293    1.7461    0.0000 H   0  0  0  0  0  0  0  0  0  0  0  0
   -3.6893    3.2468    0.0000 H   0  0  0  0  0  0  0  0  0  0  0  0
   -5.3131    2.5069    0.0000 H   0  0  0  0  0  0  0  0  0  0  0  0
   -1.2079    0.8175    0.0000 H   0  0  0  0  0  0  0  0  0  0  0  0
   -2.2851    0.0633    0.0000 H   0  0  0  0  0  0  0  0  0  0  0  0
   -1.0871    4.1287    0.0000 H   0  0  0  0  0  0  0  0  0  0  0  0
   -2.7891    3.5923    0.0000 H   0  0  0  0  0  0  0  0  0  0  0  0
    0.7662    1.2469    0.0000 H   0  0  0  0  0  0  0  0  0  0  0  0
    3.2756    4.5721    0.0000 H   0  0  0  0  0  0  0  0  0  0  0  0
    1.2567    6.2073    0.0000 H   0  0  0  0  0  0  0  0  0  0  0  0
   -1.1690    5.2765    0.0000 H   0  0  0  0  0  0  0  0  0  0  0  0
   -2.0100    2.1206    0.0000 H   0  0  0  0  0  0  0  0  0  0  0  0
   -2.1149   -1.1101    0.0000 H   0  0  0  0  0  0  0  0  0  0  0  0
    1.2600   -1.9278    0.0000 H   0  0  0  0  0  0  0  0  0  0  0  0
    1.1463   -0.2979    0.0000 H   0  0  0  0  0  0  0  0  0  0  0  0
   -1.4844   -3.7843    0.0000 H   0  0  0  0  0  0  0  0  0  0  0  0
   -1.9311   -2.0567    0.0000 H   0  0  0  0  0  0  0  0  0  0  0  0
    1.7555   -4.4782    0.0000 H   0  0  0  0  0  0  0  0  0  0  0  0
    1.5228   -2.7090    0.0000 H   0  0  0  0  0  0  0  0  0  0  0  0
   -1.5173   -5.4551    0.0000 H   0  0  0  0  0  0  0  0  0  0  0  0
    1.4346   -8.8516    0.0000 H   0  0  0  0  0  0  0  0  0  0  0  0
    3.3956   -7.1473    0.0000 H   0  0  0  0  0  0  0  0  0  0  0  0
    2.9001   -4.5969    0.0000 H   0  0  0  0  0  0  0  0  0  0  0  0
    1.7705   -1.5086    0.0000 H   0  0  0  0  0  0  0  0  0  0  0  0
    1.8637    1.8814    0.0000 H   0  0  0  0  0  0  0  0  0  0  0  0
    4.2803    3.3331    0.0000 H   0  0  0  0  0  0  0  0  0  0  0  0
    2.4011    2.4769    0.0000 H   0  0  0  0  0  0  0  0  0  0  0  0
    7.7117    2.9763    0.0000 H   0  0  0  0  0  0  0  0  0  0  0  0
    5.6800    4.2461    0.0000 H   0  0  0  0  0  0  0  0  0  0  0  0
    5.6024    2.2861    0.0000 H   0  0  0  0  0  0  0  0  0  0  0  0
    5.5853   -1.2708    0.0000 H   0  0  0  0  0  0  0  0  0  0  0  0
    6.1951   -2.6092    0.0000 H   0  0  0  0  0  0  0  0  0  0  0  0
    6.4042   -3.1980    0.0000 H   0  0  0  0  0  0  0  0  0  0  0  0
    7.1623   -4.0507    0.0000 H   0  0  0  0  0  0  0  0  0  0  0  0
    7.6054   -4.4681    0.0000 H   0  0  0  0  0  0  0  0  0  0  0  0
    8.8631   -5.2304    0.0000 H   0  0  0  0  0  0  0  0  0  0  0  0
    9.8054   -5.8222    0.0000 H   0  0  0  0  0  0  0  0  0  0  0  0
    5.3242   -2.3372    0.0000 H   0  0  0  0  0  0  0  0  0  0  0  0
    4.1993   -1.4194    0.0000 H   0  0  0  0  0  0  0  0  0  0  0  0
    4.6105    0.3362    0.0000 H   0  0  0  0  0  0  0  0  0  0  0  0
    6.3682    4.0042    0.0000 H   0  0  0  0  0  0  0  0  0  0  0  0
    6.8970    4.3211    0.0000 H   0  0  0  0  0  0  0  0  0  0  0  0
    8.5836    7.0298    0.0000 H   0  0  0  0  0  0  0  0  0  0  0  0
    9.5922    5.9507    0.0000 H   0  0  0  0  0  0  0  0  0  0  0  0
    5.2285    6.1338    0.0000 H   0  0  0  0  0  0  0  0  0  0  0  0
    6.4568    4.6473    0.0000 H   0  0  0  0  0  0  0  0  0  0  0  0
    6.7509    9.0768    0.0000 H   0  0  0  0  0  0  0  0  0  0  0  0
    7.9694    7.7732    0.0000 H   0  0  0  0  0  0  0  0  0  0  0  0
    3.9173    7.1699    0.0000 H   0  0  0  0  0  0  0  0  0  0  0  0
    3.1695   11.6073    0.0000 H   0  0  0  0  0  0  0  0  0  0  0  0
    5.7314   12.0390    0.0000 H   0  0  0  0  0  0  0  0  0  0  0  0
    7.3863   10.0362    0.0000 H   0  0  0  0  0  0  0  0  0  0  0  0
   10.8534    6.8713    0.0000 H   0  0  0  0  0  0  0  0  0  0  0  0
   11.7965    6.6628    0.0000 H   0  0  0  0  0  0  0  0  0  0  0  0
   14.9658    7.0330    0.0000 H   0  0  0  0  0  0  0  0  0  0  0  0
   14.7510    5.5716    0.0000 H   0  0  0  0  0  0  0  0  0  0  0  0
   12.1735    9.0974    0.0000 H   0  0  0  0  0  0  0  0  0  0  0  0
   11.7007    7.3768    0.0000 H   0  0  0  0  0  0  0  0  0  0  0  0
   15.4236    9.7421    0.0000 H   0  0  0  0  0  0  0  0  0  0  0  0
   15.1641    7.9767    0.0000 H   0  0  0  0  0  0  0  0  0  0  0  0
   12.1659   10.7686    0.0000 H   0  0  0  0  0  0  0  0  0  0  0  0
   15.1690   14.1199    0.0000 H   0  0  0  0  0  0  0  0  0  0  0  0
   17.1039   12.3861    0.0000 H   0  0  0  0  0  0  0  0  0  0  0  0
   16.5698    9.8435    0.0000 H   0  0  0  0  0  0  0  0  0  0  0  0
   16.2572    5.1595    0.0000 H   0  0  0  0  0  0  0  0  0  0  0  0
   16.6821    4.2922    0.0000 H   0  0  0  0  0  0  0  0  0  0  0  0
   18.9476    2.0452    0.0000 H   0  0  0  0  0  0  0  0  0  0  0  0
   17.6711    1.3019    0.0000 H   0  0  0  0  0  0  0  0  0  0  0  0
   18.8206    5.5154    0.0000 H   0  0  0  0  0  0  0  0  0  0  0  0
   17.1806    4.8123    0.0000 H   0  0  0  0  0  0  0  0  0  0  0  0
   21.3511    3.3764    0.0000 H   0  0  0  0  0  0  0  0  0  0  0  0
   19.8090    2.4785    0.0000 H   0  0  0  0  0  0  0  0  0  0  0  0
   20.1225    6.5633    0.0000 H   0  0  0  0  0  0  0  0  0  0  0  0
   24.6151    6.3049    0.0000 H   0  0  0  0  0  0  0  0  0  0  0  0
   24.4659    3.7111    0.0000 H   0  0  0  0  0  0  0  0  0  0  0  0
   22.1450    2.5434    0.0000 H   0  0  0  0  0  0  0  0  0  0  0  0
   18.2880   -0.1325    0.0000 H   0  0  0  0  0  0  0  0  0  0  0  0
   16.1553   -4.1877    0.0000 H   0  0  0  0  0  0  0  0  0  0  0  0
   17.0966   -3.2790    0.0000 H   0  0  0  0  0  0  0  0  0  0  0  0
   14.7898   -5.2596    0.0000 H   0  0  0  0  0  0  0  0  0  0  0  0
   15.7744   -4.6830    0.0000 H   0  0  0  0  0  0  0  0  0  0  0  0
   12.8076   -5.8555    0.0000 H   0  0  0  0  0  0  0  0  0  0  0  0
   14.2394   -5.5195    0.0000 H   0  0  0  0  0  0  0  0  0  0  0  0
   11.7285   -6.1270    0.0000 H   0  0  0  0  0  0  0  0  0  0  0  0
   19.1494   -2.0433    0.0000 H   0  0  0  0  0  0  0  0  0  0  0  0
   19.1028   -0.2595    0.0000 H   0  0  0  0  0  0  0  0  0  0  0  0
   17.7381    0.3060    0.0000 H   0  0  0  0  0  0  0  0  0  0  0  0
   19.5969   -1.2795    0.0000 H   0  0  0  0  0  0  0  0  0  0  0  0
   18.2503   -4.2504    0.0000 H   0  0  0  0  0  0  0  0  0  0  0  0
   20.9362   -6.4514    0.0000 H   0  0  0  0  0  0  0  0  0  0  0  0
   21.5409   -4.9336    0.0000 H   0  0  0  0  0  0  0  0  0  0  0  0
   17.6581   -6.9333    0.0000 H   0  0  0  0  0  0  0  0  0  0  0  0
   18.0053   -5.1830    0.0000 H   0  0  0  0  0  0  0  0  0  0  0  0
   20.2761   -8.9642    0.0000 H   0  0  0  0  0  0  0  0  0  0  0  0
   20.8340   -7.2692    0.0000 H   0  0  0  0  0  0  0  0  0  0  0  0
   16.9035   -8.4244    0.0000 H   0  0  0  0  0  0  0  0  0  0  0  0
   18.0894  -12.7653    0.0000 H   0  0  0  0  0  0  0  0  0  0  0  0
   20.5956  -12.0806    0.0000 H   0  0  0  0  0  0  0  0  0  0  0  0
   21.2558   -9.5678    0.0000 H   0  0  0  0  0  0  0  0  0  0  0  0
   21.5781   -6.2952    0.0000 H   0  0  0  0  0  0  0  0  0  0  0  0
   23.1329   -3.2814    0.0000 H   0  0  0  0  0  0  0  0  0  0  0  0
   25.8022   -2.9013    0.0000 H   0  0  0  0  0  0  0  0  0  0  0  0
   24.0182   -2.8633    0.0000 H   0  0  0  0  0  0  0  0  0  0  0  0
   26.9838   -6.1667    0.0000 H   0  0  0  0  0  0  0  0  0  0  0  0
   25.5142   -6.3155    0.0000 H   0  0  0  0  0  0  0  0  0  0  0  0
   28.5293   -3.2358    0.0000 H   0  0  0  0  0  0  0  0  0  0  0  0
   26.7632   -2.9806    0.0000 H   0  0  0  0  0  0  0  0  0  0  0  0
   28.5833   -6.6509    0.0000 H   0  0  0  0  0  0  0  0  0  0  0  0
   32.6524   -4.7292    0.0000 H   0  0  0  0  0  0  0  0  0  0  0  0
   31.5429   -2.3799    0.0000 H   0  0  0  0  0  0  0  0  0  0  0  0
   28.9536   -2.1661    0.0000 H   0  0  0  0  0  0  0  0  0  0  0  0
   24.6336   -8.5399    0.0000 H   0  0  0  0  0  0  0  0  0  0  0  0
  1  2  1  0
  2  3  1  0
  3  4  2  0
  4  5  1  0
  5  6  2  0
  6  7  1  0
  7  8  2  0
  7  9  1  0
  9 10  1  0
 10 11  1  0
 11 12  2  0
  9 13  1  0
 13 14  1  0
 14 15  2  0
 15 16  1  0
 16 17  2  0
 17 18  1  0
 16 19  1  0
 14 20  1  0
 20 21  1  0
 21 22  2  0
 22 23  1  0
 23 24  2  0
 24 25  1  0
 25 26  2  0
 25 27  1  0
  1 28  2  0
  1 29  1  0
 29 30  1  0
 30 31  1  0
 31 32  1  0
 32 33  2  0
 32 34  1  0
 34 35  1  0
 35 36  1  0
 36 37  1  0
 36 38  1  0
 35 39  1  0
 39 40  2  0
 39 41  1  0
 41 42  1  0
 42 43  1  0
 43 44  1  0
 44 45  1  0
 45 46  1  0
 46 47  1  0
 47 48  2  3
 47 49  1  0
 42 50  1  0
 50 51  2  0
 50 52  1  0
 52 53  1  0
 53 54  1  0
 54 55  1  0
 55 56  1  0
 56 57  1  0
 56 58  2  0
 53 59  1  0
 59 60  2  0
 59 61  1  0
 61 62  1  0
 62 63  1  0
 62 64  1  0
 64 65  2  0
 64 66  1  0
 66 67  1  0
 67 68  1  0
 68 69  1  0
 69 70  1  0
 70 71  1  0
 71 72  1  0
 72 73  2  3
 72 74  1  0
 67 75  1  0
 75 76  2  0
 75 77  1  0
 77 78  1  0
 78 79  1  0
 79 80  1  0
 80 81  1  0
 81 82  1  0
 82 83  1  0
 83 84  2  3
 83 85  1  0
 78 86  1  0
 86 87  2  0
 86 88  1  0
 88 89  1  0
 89 90  1  0
 90 91  1  0
 91 92  1  0
 91 93  2  0
 89 94  1  0
 94 95  2  0
 94 96  1  0
 97 96  1  6
 97 98  1  0
 98 99  1  0
 99100  1  0
100101  1  0
 97102  1  0
 97103  1  0
103104  2  0
103105  1  0
105106  1  0
106107  1  0
107108  1  0
108109  1  0
109110  1  0
110111  1  0
111112  2  3
111113  1  0
106114  1  0
114115  2  0
114116  1  0
116117  1  0
117118  1  0
118119  1  0
119120  1  0
120121  1  0
121122  1  0
122123  2  3
122124  1  0
117125  1  0
125126  2  0
125127  1  0
127128  1  0
128129  1  0
129130  1  0
130131  1  0
131132  1  0
132133  1  0
133134  2  3
133135  1  0
128136  1  0
136137  2  0
136138  1  0
138139  1  0
139140  1  0
140141  1  0
141142  1  0
142143  1  0
139144  1  0
139145  1  6
145146  2  0
145147  1  0
147148  1  0
148149  1  0
149150  1  0
150151  1  0
151152  1  0
152153  1  0
153154  2  3
153155  1  0
148156  1  0
156157  2  0
156158  1  0
158159  1  0
159160  1  0
160161  1  0
161162  1  0
162163  1  0
163164  1  0
164165  2  3
164166  1  0
159167  1  0
167168  2  0
167169  1  0
  8  3  1  0
 11  6  1  0
101143  2  0
 18 13  2  0
 22  9  1  0
 26 21  1  0
  2170  1  0
  4171  1  0
  5172  1  0
  8173  1  0
 15174  1  0
 17175  1  0
 18176  1  0
 19177  1  0
 23178  1  0
 24179  1  0
 26180  1  0
 27181  1  0
 29182  1  0
 30183  1  0
 30184  1  0
 31185  1  0
 31186  1  0
 34187  1  0
 35188  1  1
 36189  1  1
 37190  1  0
 38191  1  0
 38192  1  0
 38193  1  0
 41194  1  0
 42195  1  6
 43196  1  0
 43197  1  0
 44198  1  0
 44199  1  0
 45200  1  0
 45201  1  0
 46202  1  0
 48203  1  0
 49204  1  0
 49205  1  0
 52206  1  0
 53207  1  1
 54208  1  0
 54209  1  0
 55210  1  0
 55211  1  0
 57212  1  0
 57213  1  0
 61214  1  0
 62215  1  6
 63216  1  0
 63217  1  0
 63218  1  0
 66219  1  0
 67220  1  1
 68221  1  0
 68222  1  0
 69223  1  0
 69224  1  0
 70225  1  0
 70226  1  0
 71227  1  0
 73228  1  0
 74229  1  0
 74230  1  0
 77231  1  0
 78232  1  6
 79233  1  0
 79234  1  0
 80235  1  0
 80236  1  0
 81237  1  0
 81238  1  0
 82239  1  0
 84240  1  0
 85241  1  0
 85242  1  0
 88243  1  0
 89244  1  1
 90245  1  0
 90246  1  0
 92247  1  0
 92248  1  0
 96249  1  0
 98250  1  0
 98251  1  0
 99252  1  0
 99253  1  0
100254  1  0
100255  1  0
101256  1  0
102257  1  0
102258  1  0
102259  1  0
105260  1  0
106261  1  1
107262  1  0
107263  1  0
108264  1  0
108265  1  0
109266  1  0
109267  1  0
110268  1  0
112269  1  0
113270  1  0
113271  1  0
116272  1  0
117273  1  1
118274  1  0
118275  1  0
119276  1  0
119277  1  0
120278  1  0
120279  1  0
121280  1  0
123281  1  0
124282  1  0
124283  1  0
127284  1  0
128285  1  1
129286  1  0
129287  1  0
130288  1  0
130289  1  0
131290  1  0
131291  1  0
132292  1  0
134293  1  0
135294  1  0
135295  1  0
138296  1  0
140297  1  0
140298  1  0
141299  1  0
141300  1  0
142301  1  0
142302  1  0
143303  1  0
144304  1  0
144305  1  0
144306  1  0
147307  1  0
148308  1  6
149309  1  0
149310  1  0
150311  1  0
150312  1  0
151313  1  0
151314  1  0
152315  1  0
154316  1  0
155317  1  0
155318  1  0
158319  1  0
159320  1  1
160321  1  0
160322  1  0
161323  1  0
161324  1  0
162325  1  0
162326  1  0
163327  1  0
165328  1  0
166329  1  0
166330  1  0
169331  1  0
M  END
