
     RDKit          2D

311317  0  0  0  0  0  0  0  0999 V2000
   21.2450   -1.7076    0.0000 C   0  0  0  0  0  0  0  0  0  0  0  0
   22.2616   -0.6046    0.0000 N   0  0  0  0  0  0  0  0  0  0  0  0
   23.7251   -0.9334    0.0000 C   0  0  0  0  0  0  0  0  0  0  0  0
   24.1721   -2.3653    0.0000 C   0  0  0  0  0  0  0  0  0  0  0  0
   25.6356   -2.6942    0.0000 C   0  0  0  0  0  0  0  0  0  0  0  0
   26.6521   -1.5912    0.0000 C   0  0  0  0  0  0  0  0  0  0  0  0
   26.2052   -0.1593    0.0000 C   0  0  0  0  0  0  0  0  0  0  0  0
   24.7417    0.1696    0.0000 C   0  0  0  0  0  0  0  0  0  0  0  0
   27.4288    0.7082    0.0000 C   0  0  0  0  0  0  0  0  0  0  0  0
   28.6321   -0.1875    0.0000 O   0  0  0  0  0  0  0  0  0  0  0  0
   28.1520   -1.6086    0.0000 C   0  0  0  0  0  0  0  0  0  0  0  0
   29.0196   -2.8322    0.0000 O   0  0  0  0  0  0  0  0  0  0  0  0
   28.7365    1.4431    0.0000 C   0  0  0  0  0  0  0  0  0  0  0  0
   28.7539    2.9430    0.0000 C   0  0  0  0  0  0  0  0  0  0  0  0
   30.0615    3.6779    0.0000 C   0  0  0  0  0  0  0  0  0  0  0  0
   31.3518    2.9129    0.0000 C   0  0  0  0  0  0  0  0  0  0  0  0
   31.3344    1.4130    0.0000 C   0  0  0  0  0  0  0  0  0  0  0  0
   30.0267    0.6781    0.0000 C   0  0  0  0  0  0  0  0  0  0  0  0
   32.6594    3.6478    0.0000 O   0  0  0  0  0  0  0  0  0  0  0  0
   27.4636    3.7080    0.0000 O   0  0  0  0  0  0  0  0  0  0  0  0
   26.1560    2.9732    0.0000 C   0  0  0  0  0  0  0  0  0  0  0  0
   26.1386    1.4733    0.0000 C   0  0  0  0  0  0  0  0  0  0  0  0
   24.8391    1.4383    0.0000 C   0  0  0  0  0  0  0  0  0  0  0  0
   24.1509    1.8463    0.0000 C   0  0  0  0  0  0  0  0  0  0  0  0
   24.1602    2.6463    0.0000 C   0  0  0  0  0  0  0  0  0  0  0  0
   24.8576    3.0382    0.0000 C   0  0  0  0  0  0  0  0  0  0  0  0
   22.2678    3.7683    0.0000 O   0  0  0  0  0  0  0  0  0  0  0  0
   21.6920   -3.1394    0.0000 S   0  0  0  0  0  0  0  0  0  0  0  0
   19.7815   -1.3787    0.0000 N   0  0  0  0  0  0  0  0  0  0  0  0
   18.7650   -2.4817    0.0000 C   0  0  0  0  0  0  0  0  0  0  0  0
   17.3015   -2.1528    0.0000 C   0  0  0  0  0  0  0  0  0  0  0  0
   16.2849   -3.2558    0.0000 C   0  0  0  0  0  0  0  0  0  0  0  0
   16.6995   -3.9367    0.0000 O   0  0  0  0  0  0  0  0  0  0  0  0
   14.8214   -2.9270    0.0000 N   0  0  0  0  0  0  0  0  0  0  0  0
   13.8049   -4.0300    0.0000 C   0  0  0  0  0  0  0  0  0  0  0  0
   15.0676   -4.8396    0.0000 C   0  0  0  0  0  0  0  0  0  0  0  0
   16.4001   -4.1508    0.0000 C   0  0  0  0  0  0  0  0  0  0  0  0
   17.6629   -4.9603    0.0000 C   0  0  0  0  0  0  0  0  0  0  0  0
   18.9954   -4.2715    0.0000 C   0  0  0  0  0  0  0  0  0  0  0  0
   19.0651   -2.7732    0.0000 C   0  0  0  0  0  0  0  0  0  0  0  0
   17.8024   -1.9636    0.0000 C   0  0  0  0  0  0  0  0  0  0  0  0
   16.4699   -2.6524    0.0000 C   0  0  0  0  0  0  0  0  0  0  0  0
   12.4724   -4.7188    0.0000 C   0  0  0  0  0  0  0  0  0  0  0  0
   12.7673   -6.1895    0.0000 O   0  0  0  0  0  0  0  0  0  0  0  0
   11.2096   -3.9092    0.0000 N   0  0  0  0  0  0  0  0  0  0  0  0
    9.8771   -4.5980    0.0000 C   0  0  0  0  0  0  0  0  0  0  0  0
   10.7868   -5.7906    0.0000 C   0  0  0  0  0  0  0  0  0  0  0  0
   12.2745   -5.5991    0.0000 C   0  0  0  0  0  0  0  0  0  0  0  0
   13.1842   -6.7918    0.0000 N   0  0  0  0  0  0  0  0  0  0  0  0
   13.1703   -4.3960    0.0000 O   0  0  0  0  0  0  0  0  0  0  0  0
    8.3894   -4.7895    0.0000 C   0  0  0  0  0  0  0  0  0  0  0  0
    8.1635   -6.2724    0.0000 O   0  0  0  0  0  0  0  0  0  0  0  0
    7.4796   -3.5969    0.0000 N   0  0  0  0  0  0  0  0  0  0  0  0
    5.9919   -3.7884    0.0000 C   0  0  0  0  0  0  0  0  0  0  0  0
    6.4389   -5.2202    0.0000 C   0  0  0  0  0  0  0  0  0  0  0  0
    7.9024   -5.5491    0.0000 C   0  0  0  0  0  0  0  0  0  0  0  0
    6.3691   -6.7186    0.0000 C   0  0  0  0  0  0  0  0  0  0  0  0
    7.6319   -7.5282    0.0000 C   0  0  0  0  0  0  0  0  0  0  0  0
    4.5284   -3.4595    0.0000 C   0  0  0  0  0  0  0  0  0  0  0  0
    3.8090   -4.7757    0.0000 O   0  0  0  0  0  0  0  0  0  0  0  0
    4.0815   -2.0277    0.0000 N   0  0  0  0  0  0  0  0  0  0  0  0
    2.6180   -1.6988    0.0000 C   0  0  0  0  0  0  0  0  0  0  0  0
    2.5482   -3.1972    0.0000 C   0  0  0  0  0  0  0  0  0  0  0  0
    3.8110   -4.0067    0.0000 C   0  0  0  0  0  0  0  0  0  0  0  0
    3.7413   -5.5051    0.0000 N   0  0  0  0  0  0  0  0  0  0  0  0
    5.2706   -3.6608    0.0000 O   0  0  0  0  0  0  0  0  0  0  0  0
    1.3552   -0.8892    0.0000 C   0  0  0  0  0  0  0  0  0  0  0  0
    0.2290   -1.8800    0.0000 O   0  0  0  0  0  0  0  0  0  0  0  0
    1.4249    0.6092    0.0000 N   0  0  0  0  0  0  0  0  0  0  0  0
    0.1622    1.4187    0.0000 C   0  0  0  0  0  0  0  0  0  0  0  0
   -0.0025   -0.0722    0.0000 C   0  0  0  0  0  0  0  0  0  0  0  0
   -0.4463   -1.5050    0.0000 C   0  0  0  0  0  0  0  0  0  0  0  0
   -1.1532   -2.8280    0.0000 C   0  0  0  0  0  0  0  0  0  0  0  0
   -2.0978   -3.9932    0.0000 C   0  0  0  0  0  0  0  0  0  0  0  0
   -3.2458   -4.9587    0.0000 C   0  0  0  0  0  0  0  0  0  0  0  0
   -4.5558   -5.6894    0.0000 C   0  0  0  0  0  0  0  0  0  0  0  0
   -5.9804   -6.1590    0.0000 C   0  0  0  0  0  0  0  0  0  0  0  0
    1.4483    2.1907    0.0000 C   0  0  0  0  0  0  0  0  0  0  0  0
    0.0416    2.9139    0.0000 C   0  0  0  0  0  0  0  0  0  0  0  0
    1.4756    3.3541    0.0000 O   0  0  0  0  0  0  0  0  0  0  0  0
   -0.3596    4.3592    0.0000 N   0  0  0  0  0  0  0  0  0  0  0  0
   -1.0272    5.7025    0.0000 C   0  0  0  0  0  0  0  0  0  0  0  0
   -0.3626    7.0472    0.0000 C   0  0  0  0  0  0  0  0  0  0  0  0
    1.1343    7.1440    0.0000 C   0  0  0  0  0  0  0  0  0  0  0  0
    1.7989    8.4887    0.0000 C   0  0  0  0  0  0  0  0  0  0  0  0
    3.2958    8.5855    0.0000 N   0  0  0  0  0  0  0  0  0  0  0  0
    3.9604    9.9302    0.0000 C   0  0  0  0  0  0  0  0  0  0  0  0
    5.4573   10.0270    0.0000 N   0  0  0  0  0  0  0  0  0  0  0  0
    3.1282   11.1781    0.0000 N   0  0  0  0  0  0  0  0  0  0  0  0
   -1.9369    6.8951    0.0000 C   0  0  0  0  0  0  0  0  0  0  0  0
   -0.9686    8.0407    0.0000 O   0  0  0  0  0  0  0  0  0  0  0  0
   -3.0559    7.8941    0.0000 N   0  0  0  0  0  0  0  0  0  0  0  0
   -4.3437    8.6632    0.0000 C   0  0  0  0  0  0  0  0  0  0  0  0
   -4.5116   10.1537    0.0000 C   0  0  0  0  0  0  0  0  0  0  0  0
   -3.2051   10.8907    0.0000 C   0  0  0  0  0  0  0  0  0  0  0  0
   -5.1792   11.4970    0.0000 C   0  0  0  0  0  0  0  0  0  0  0  0
   -4.3497   12.7468    0.0000 C   0  0  0  0  0  0  0  0  0  0  0  0
   -5.7538    9.1747    0.0000 C   0  0  0  0  0  0  0  0  0  0  0  0
   -5.3787   10.6270    0.0000 O   0  0  0  0  0  0  0  0  0  0  0  0
   -7.2353    9.4100    0.0000 N   0  0  0  0  0  0  0  0  0  0  0  0
   -8.7344    9.3608    0.0000 C   0  0  0  0  0  0  0  0  0  0  0  0
   -9.6816   10.5240    0.0000 C   0  0  0  0  0  0  0  0  0  0  0  0
   -9.1478   11.9258    0.0000 C   0  0  0  0  0  0  0  0  0  0  0  0
  -10.0949   13.0890    0.0000 C   0  0  0  0  0  0  0  0  0  0  0  0
   -9.5611   14.4908    0.0000 C   0  0  0  0  0  0  0  0  0  0  0  0
  -10.5082   15.6540    0.0000 N   0  0  0  0  0  0  0  0  0  0  0  0
  -10.1972    9.0287    0.0000 C   0  0  0  0  0  0  0  0  0  0  0  0
  -10.8370   10.3855    0.0000 O   0  0  0  0  0  0  0  0  0  0  0  0
  -11.5707    8.4258    0.0000 N   0  0  0  0  0  0  0  0  0  0  0  0
  -12.8053    7.5739    0.0000 C   0  0  0  0  0  0  0  0  0  0  0  0
  -14.2309    8.0404    0.0000 C   0  0  0  0  0  0  0  0  0  0  0  0
  -14.5398    9.5083    0.0000 C   0  0  0  0  0  0  0  0  0  0  0  0
  -15.9654    9.9748    0.0000 C   0  0  0  0  0  0  0  0  0  0  0  0
  -16.2742   11.4426    0.0000 O   0  0  0  0  0  0  0  0  0  0  0  0
  -17.0822    8.9734    0.0000 O   0  0  0  0  0  0  0  0  0  0  0  0
  -13.8564    6.5037    0.0000 C   0  0  0  0  0  0  0  0  0  0  0  0
  -15.1281    7.2992    0.0000 O   0  0  0  0  0  0  0  0  0  0  0  0
  -14.6859    5.2539    0.0000 N   0  0  0  0  0  0  0  0  0  0  0  0
  -15.2639    3.8698    0.0000 C   0  0  0  0  0  0  0  0  0  0  0  0
  -16.7154    3.4915    0.0000 C   0  0  0  0  0  0  0  0  0  0  0  0
  -17.7688    4.5594    0.0000 C   0  0  0  0  0  0  0  0  0  0  0  0
  -19.2203    4.1811    0.0000 C   0  0  0  0  0  0  0  0  0  0  0  0
  -18.3934    5.9231    0.0000 C   0  0  0  0  0  0  0  0  0  0  0  0
  -15.5695    2.4012    0.0000 C   0  0  0  0  0  0  0  0  0  0  0  0
  -17.0694    2.3829    0.0000 O   0  0  0  0  0  0  0  0  0  0  0  0
  -15.5916    0.9014    0.0000 N   0  0  0  0  0  0  0  0  0  0  0  0
  -15.3295   -0.5755    0.0000 C   0  0  0  0  0  0  0  0  0  0  0  0
  -14.7927   -1.9762    0.0000 C   0  0  0  0  0  0  0  0  0  0  0  0
  -16.1359   -2.6437    0.0000 O   0  0  0  0  0  0  0  0  0  0  0  0
  -14.0005   -3.2499    0.0000 N   0  0  0  0  0  0  0  0  0  0  0  0
  -12.9815   -4.3506    0.0000 C   0  0  0  0  0  0  0  0  0  0  0  0
  -11.7726   -5.2387    0.0000 C   0  0  0  0  0  0  0  0  0  0  0  0
  -10.4175   -5.8819    0.0000 C   0  0  0  0  0  0  0  0  0  0  0  0
   -8.9652   -6.2570    0.0000 C   0  0  0  0  0  0  0  0  0  0  0  0
   -7.4681   -6.3505    0.0000 C   0  0  0  0  0  0  0  0  0  0  0  0
  -14.4203   -4.7748    0.0000 C   0  0  0  0  0  0  0  0  0  0  0  0
  -13.2403   -5.8281    0.0000 C   0  0  0  0  0  0  0  0  0  0  0  0
  -12.3574   -7.0408    0.0000 O   0  0  0  0  0  0  0  0  0  0  0  0
  -14.6493   -6.3427    0.0000 N   0  0  0  0  0  0  0  0  0  0  0  0
  -14.9082   -7.8202    0.0000 C   0  0  0  0  0  0  0  0  0  0  0  0
  -14.6461   -9.2971    0.0000 C   0  0  0  0  0  0  0  0  0  0  0  0
  -15.7941  -10.2626    0.0000 C   0  0  0  0  0  0  0  0  0  0  0  0
  -15.5320  -11.7395    0.0000 C   0  0  0  0  0  0  0  0  0  0  0  0
  -17.2031  -10.7771    0.0000 C   0  0  0  0  0  0  0  0  0  0  0  0
  -16.3172   -8.3348    0.0000 C   0  0  0  0  0  0  0  0  0  0  0  0
  -17.4673   -7.3719    0.0000 O   0  0  0  0  0  0  0  0  0  0  0  0
  -16.5760   -9.8123    0.0000 N   0  0  0  0  0  0  0  0  0  0  0  0
  -17.9850  -10.3269    0.0000 C   0  0  0  0  0  0  0  0  0  0  0  0
  -19.4850  -10.3285    0.0000 C   0  0  0  0  0  0  0  0  0  0  0  0
  -20.0726   -8.9484    0.0000 C   0  0  0  0  0  0  0  0  0  0  0  0
  -20.8940  -10.8431    0.0000 C   0  0  0  0  0  0  0  0  0  0  0  0
  -22.0441   -9.8801    0.0000 C   0  0  0  0  0  0  0  0  0  0  0  0
  -18.2438  -11.8043    0.0000 C   0  0  0  0  0  0  0  0  0  0  0  0
  -19.4864  -12.6446    0.0000 O   0  0  0  0  0  0  0  0  0  0  0  0
  -17.2197  -12.9003    0.0000 O   0  0  0  0  0  0  0  0  0  0  0  0
   21.6434    0.7621    0.0000 H   0  0  0  0  0  0  0  0  0  0  0  0
   23.1555   -3.4683    0.0000 H   0  0  0  0  0  0  0  0  0  0  0  0
   26.0825   -4.1260    0.0000 H   0  0  0  0  0  0  0  0  0  0  0  0
   23.9615    1.4507    0.0000 H   0  0  0  0  0  0  0  0  0  0  0  0
   30.0789    5.1778    0.0000 H   0  0  0  0  0  0  0  0  0  0  0  0
   32.6246    0.6480    0.0000 H   0  0  0  0  0  0  0  0  0  0  0  0
   30.0093   -0.8218    0.0000 H   0  0  0  0  0  0  0  0  0  0  0  0
   33.9497    2.8828    0.0000 H   0  0  0  0  0  0  0  0  0  0  0  0
   24.8135   -0.7615    0.0000 H   0  0  0  0  0  0  0  0  0  0  0  0
   22.1532    0.9334    0.0000 H   0  0  0  0  0  0  0  0  0  0  0  0
   24.8831    5.2381    0.0000 H   0  0  0  0  0  0  0  0  0  0  0  0
   22.2852    5.2682    0.0000 H   0  0  0  0  0  0  0  0  0  0  0  0
   19.3346    0.0532    0.0000 H   0  0  0  0  0  0  0  0  0  0  0  0
   20.0277   -3.2913    0.0000 H   0  0  0  0  0  0  0  0  0  0  0  0
   18.1870   -3.8659    0.0000 H   0  0  0  0  0  0  0  0  0  0  0  0
   17.7064   -0.7085    0.0000 H   0  0  0  0  0  0  0  0  0  0  0  0
   16.0387   -1.3433    0.0000 H   0  0  0  0  0  0  0  0  0  0  0  0
   14.2033   -1.5603    0.0000 H   0  0  0  0  0  0  0  0  0  0  0  0
   12.8951   -2.8373    0.0000 H   0  0  0  0  0  0  0  0  0  0  0  0
   15.9773   -6.0322    0.0000 H   0  0  0  0  0  0  0  0  0  0  0  0
   14.1931   -6.0583    0.0000 H   0  0  0  0  0  0  0  0  0  0  0  0
   17.5932   -6.4587    0.0000 H   0  0  0  0  0  0  0  0  0  0  0  0
   20.2582   -5.0811    0.0000 H   0  0  0  0  0  0  0  0  0  0  0  0
   20.3976   -2.0844    0.0000 H   0  0  0  0  0  0  0  0  0  0  0  0
   18.0542   -0.4849    0.0000 H   0  0  0  0  0  0  0  0  0  0  0  0
   15.3152   -1.6949    0.0000 H   0  0  0  0  0  0  0  0  0  0  0  0
   11.2793   -2.4108    0.0000 H   0  0  0  0  0  0  0  0  0  0  0  0
    9.4301   -3.1661    0.0000 H   0  0  0  0  0  0  0  0  0  0  0  0
   11.2338   -7.2225    0.0000 H   0  0  0  0  0  0  0  0  0  0  0  0
    9.4543   -6.4794    0.0000 H   0  0  0  0  0  0  0  0  0  0  0  0
   14.6842   -6.7830    0.0000 H   0  0  0  0  0  0  0  0  0  0  0  0
   12.6062   -8.1759    0.0000 H   0  0  0  0  0  0  0  0  0  0  0  0
    8.0576   -2.2127    0.0000 H   0  0  0  0  0  0  0  0  0  0  0  0
    6.0617   -2.2900    0.0000 H   0  0  0  0  0  0  0  0  0  0  0  0
    4.9856   -5.5917    0.0000 H   0  0  0  0  0  0  0  0  0  0  0  0
    8.5205   -6.9158    0.0000 H   0  0  0  0  0  0  0  0  0  0  0  0
    9.3901   -5.3576    0.0000 H   0  0  0  0  0  0  0  0  0  0  0  0
    8.3737   -4.1297    0.0000 H   0  0  0  0  0  0  0  0  0  0  0  0
    5.7911   -8.1028    0.0000 H   0  0  0  0  0  0  0  0  0  0  0  0
    4.8765   -6.5706    0.0000 H   0  0  0  0  0  0  0  0  0  0  0  0
    7.5622   -9.0266    0.0000 H   0  0  0  0  0  0  0  0  0  0  0  0
    9.0954   -7.8571    0.0000 H   0  0  0  0  0  0  0  0  0  0  0  0
    8.6676   -6.4432    0.0000 H   0  0  0  0  0  0  0  0  0  0  0  0
    5.0980   -0.9247    0.0000 H   0  0  0  0  0  0  0  0  0  0  0  0
    3.1960   -0.3146    0.0000 H   0  0  0  0  0  0  0  0  0  0  0  0
    1.9702   -4.5813    0.0000 H   0  0  0  0  0  0  0  0  0  0  0  0
    1.0847   -2.8683    0.0000 H   0  0  0  0  0  0  0  0  0  0  0  0
    4.7706   -6.5962    0.0000 H   0  0  0  0  0  0  0  0  0  0  0  0
    2.4088   -6.1939    0.0000 H   0  0  0  0  0  0  0  0  0  0  0  0
    2.8315    1.1304    0.0000 H   0  0  0  0  0  0  0  0  0  0  0  0
    1.4892    0.0862    0.0000 H   0  0  0  0  0  0  0  0  0  0  0  0
    0.9501   -1.2309    0.0000 H   0  0  0  0  0  0  0  0  0  0  0  0
    1.0217   -1.8131    0.0000 H   0  0  0  0  0  0  0  0  0  0  0  0
    0.4251   -2.7259    0.0000 H   0  0  0  0  0  0  0  0  0  0  0  0
    0.3461   -2.8739    0.0000 H   0  0  0  0  0  0  0  0  0  0  0  0
   -0.3670   -4.1054    0.0000 H   0  0  0  0  0  0  0  0  0  0  0  0
   -0.6853   -4.4980    0.0000 H   0  0  0  0  0  0  0  0  0  0  0  0
   -1.5676   -5.3964    0.0000 H   0  0  0  0  0  0  0  0  0  0  0  0
   -1.9544   -5.7217    0.0000 H   0  0  0  0  0  0  0  0  0  0  0  0
   -2.9907   -6.4368    0.0000 H   0  0  0  0  0  0  0  0  0  0  0  0
   -3.4321   -6.6830    0.0000 H   0  0  0  0  0  0  0  0  0  0  0  0
   -4.7676   -7.1744    0.0000 H   0  0  0  0  0  0  0  0  0  0  0  0
   -5.6483   -7.6218    0.0000 H   0  0  0  0  0  0  0  0  0  0  0  0
    2.8388    1.6281    0.0000 H   0  0  0  0  0  0  0  0  0  0  0  0
    2.5278    3.2321    0.0000 H   0  0  0  0  0  0  0  0  0  0  0  0
    0.7680    3.5276    0.0000 H   0  0  0  0  0  0  0  0  0  0  0  0
    1.0960    4.7214    0.0000 H   0  0  0  0  0  0  0  0  0  0  0  0
    0.4618    5.5213    0.0000 H   0  0  0  0  0  0  0  0  0  0  0  0
   -0.1980    8.5381    0.0000 H   0  0  0  0  0  0  0  0  0  0  0  0
   -1.6576    7.8041    0.0000 H   0  0  0  0  0  0  0  0  0  0  0  0
    2.5740    6.7230    0.0000 H   0  0  0  0  0  0  0  0  0  0  0  0
    1.3353    5.6575    0.0000 H   0  0  0  0  0  0  0  0  0  0  0  0
    1.9635    9.9796    0.0000 H   0  0  0  0  0  0  0  0  0  0  0  0
    0.4213    9.0821    0.0000 H   0  0  0  0  0  0  0  0  0  0  0  0
    4.1280    7.3375    0.0000 H   0  0  0  0  0  0  0  0  0  0  0  0
    6.1219   11.3717    0.0000 H   0  0  0  0  0  0  0  0  0  0  0  0
    3.7928   12.5229    0.0000 H   0  0  0  0  0  0  0  0  0  0  0  0
    1.6313   11.0814    0.0000 H   0  0  0  0  0  0  0  0  0  0  0  0
   -2.0271    8.9857    0.0000 H   0  0  0  0  0  0  0  0  0  0  0  0
   -2.9931    9.3157    0.0000 H   0  0  0  0  0  0  0  0  0  0  0  0
   -6.0103   10.0903    0.0000 H   0  0  0  0  0  0  0  0  0  0  0  0
   -3.2702   12.5553    0.0000 H   0  0  0  0  0  0  0  0  0  0  0  0
   -1.8659   11.4686    0.0000 H   0  0  0  0  0  0  0  0  0  0  0  0
   -2.3319    9.9026    0.0000 H   0  0  0  0  0  0  0  0  0  0  0  0
   -6.2659   12.5309    0.0000 H   0  0  0  0  0  0  0  0  0  0  0  0
   -6.4857   10.7601    0.0000 H   0  0  0  0  0  0  0  0  0  0  0  0
   -5.0173   14.0900    0.0000 H   0  0  0  0  0  0  0  0  0  0  0  0
   -3.1428   13.6375    0.0000 H   0  0  0  0  0  0  0  0  0  0  0  0
   -3.0451   12.0065    0.0000 H   0  0  0  0  0  0  0  0  0  0  0  0
   -7.1418   10.9071    0.0000 H   0  0  0  0  0  0  0  0  0  0  0  0
   -7.9511   10.6400    0.0000 H   0  0  0  0  0  0  0  0  0  0  0  0
  -10.9694   11.2931    0.0000 H   0  0  0  0  0  0  0  0  0  0  0  0
  -10.9080    9.6604    0.0000 H   0  0  0  0  0  0  0  0  0  0  0  0
   -8.0357   12.9325    0.0000 H   0  0  0  0  0  0  0  0  0  0  0  0
   -7.7121   11.4912    0.0000 H   0  0  0  0  0  0  0  0  0  0  0  0
  -11.3827   13.8581    0.0000 H   0  0  0  0  0  0  0  0  0  0  0  0
  -11.2069   12.0823    0.0000 H   0  0  0  0  0  0  0  0  0  0  0  0
   -8.5800   15.6255    0.0000 H   0  0  0  0  0  0  0  0  0  0  0  0
   -8.1891   13.8844    0.0000 H   0  0  0  0  0  0  0  0  0  0  0  0
   -9.9744   17.0558    0.0000 H   0  0  0  0  0  0  0  0  0  0  0  0
  -11.9891   15.4154    0.0000 H   0  0  0  0  0  0  0  0  0  0  0  0
  -12.1363    9.8151    0.0000 H   0  0  0  0  0  0  0  0  0  0  0  0
  -12.8379    9.0735    0.0000 H   0  0  0  0  0  0  0  0  0  0  0  0
  -15.7249    8.1743    0.0000 H   0  0  0  0  0  0  0  0  0  0  0  0
  -14.7958    6.6508    0.0000 H   0  0  0  0  0  0  0  0  0  0  0  0
  -14.3279   10.9932    0.0000 H   0  0  0  0  0  0  0  0  0  0  0  0
  -13.0970    9.9188    0.0000 H   0  0  0  0  0  0  0  0  0  0  0  0
  -18.5078    9.4399    0.0000 H   0  0  0  0  0  0  0  0  0  0  0  0
  -15.9128    6.1169    0.0000 H   0  0  0  0  0  0  0  0  0  0  0  0
  -16.1020    5.1138    0.0000 H   0  0  0  0  0  0  0  0  0  0  0  0
  -17.9500    2.6395    0.0000 H   0  0  0  0  0  0  0  0  0  0  0  0
  -16.4393    2.0171    0.0000 H   0  0  0  0  0  0  0  0  0  0  0  0
  -16.7770    5.6847    0.0000 H   0  0  0  0  0  0  0  0  0  0  0  0
  -20.3960    5.1126    0.0000 H   0  0  0  0  0  0  0  0  0  0  0  0
  -20.4549    3.3291    0.0000 H   0  0  0  0  0  0  0  0  0  0  0  0
  -18.7666    2.7513    0.0000 H   0  0  0  0  0  0  0  0  0  0  0  0
  -19.8584    6.2451    0.0000 H   0  0  0  0  0  0  0  0  0  0  0  0
  -18.5139    7.4183    0.0000 H   0  0  0  0  0  0  0  0  0  0  0  0
  -16.9419    6.3014    0.0000 H   0  0  0  0  0  0  0  0  0  0  0  0
  -17.0868    0.7809    0.0000 H   0  0  0  0  0  0  0  0  0  0  0  0
  -16.3461   -1.6785    0.0000 H   0  0  0  0  0  0  0  0  0  0  0  0
  -16.7693   -0.1545    0.0000 H   0  0  0  0  0  0  0  0  0  0  0  0
  -15.2951   -4.0074    0.0000 H   0  0  0  0  0  0  0  0  0  0  0  0
  -11.7472   -6.7385    0.0000 H   0  0  0  0  0  0  0  0  0  0  0  0
  -12.8988   -6.2294    0.0000 H   0  0  0  0  0  0  0  0  0  0  0  0
  -10.2899   -7.3765    0.0000 H   0  0  0  0  0  0  0  0  0  0  0  0
  -11.3359   -7.0679    0.0000 H   0  0  0  0  0  0  0  0  0  0  0  0
   -8.3841   -7.6399    0.0000 H   0  0  0  0  0  0  0  0  0  0  0  0
   -9.8006   -7.5029    0.0000 H   0  0  0  0  0  0  0  0  0  0  0  0
   -7.4189   -7.8497    0.0000 H   0  0  0  0  0  0  0  0  0  0  0  0
  -15.1147   -6.1044    0.0000 H   0  0  0  0  0  0  0  0  0  0  0  0
  -15.9173   -4.6813    0.0000 H   0  0  0  0  0  0  0  0  0  0  0  0
  -14.9438   -3.3692    0.0000 H   0  0  0  0  0  0  0  0  0  0  0  0
  -15.9082   -5.5272    0.0000 H   0  0  0  0  0  0  0  0  0  0  0  0
  -13.4082   -7.8186    0.0000 H   0  0  0  0  0  0  0  0  0  0  0  0
  -13.7420  -10.4941    0.0000 H   0  0  0  0  0  0  0  0  0  0  0  0
  -13.2371   -8.7826    0.0000 H   0  0  0  0  0  0  0  0  0  0  0  0
  -17.0671   -9.4692    0.0000 H   0  0  0  0  0  0  0  0  0  0  0  0
  -16.4123  -12.9540    0.0000 H   0  0  0  0  0  0  0  0  0  0  0  0
  -14.7806  -13.0377    0.0000 H   0  0  0  0  0  0  0  0  0  0  0  0
  -14.0708  -11.4005    0.0000 H   0  0  0  0  0  0  0  0  0  0  0  0
  -18.5520  -10.1211    0.0000 H   0  0  0  0  0  0  0  0  0  0  0  0
  -17.9287  -12.0899    0.0000 H   0  0  0  0  0  0  0  0  0  0  0  0
  -16.6155  -12.1573    0.0000 H   0  0  0  0  0  0  0  0  0  0  0  0
  -15.6931  -11.0249    0.0000 H   0  0  0  0  0  0  0  0  0  0  0  0
  -18.0651   -8.8290    0.0000 H   0  0  0  0  0  0  0  0  0  0  0  0
  -19.5881  -11.8249    0.0000 H   0  0  0  0  0  0  0  0  0  0  0  0
  -21.7342   -8.8285    0.0000 H   0  0  0  0  0  0  0  0  0  0  0  0
  -20.4985   -7.5534    0.0000 H   0  0  0  0  0  0  0  0  0  0  0  0
  -18.9007   -8.3478    0.0000 H   0  0  0  0  0  0  0  0  0  0  0  0
  -22.0420  -11.8085    0.0000 H   0  0  0  0  0  0  0  0  0  0  0  0
  -20.3064  -12.2232    0.0000 H   0  0  0  0  0  0  0  0  0  0  0  0
  -23.4531  -10.3947    0.0000 H   0  0  0  0  0  0  0  0  0  0  0  0
  -22.7955   -8.5819    0.0000 H   0  0  0  0  0  0  0  0  0  0  0  0
  -21.1638   -8.6656    0.0000 H   0  0  0  0  0  0  0  0  0  0  0  0
  -17.3526  -14.2448    0.0000 H   0  0  0  0  0  0  0  0  0  0  0  0
  1  2  1  0
  2  3  1  0
  3  4  2  0
  4  5  1  0
  5  6  2  0
  6  7  1  0
  7  8  2  0
  7  9  1  0
  9 10  1  0
 10 11  1  0
 11 12  2  0
  9 13  1  0
 13 14  1  0
 14 15  2  0
 15 16  1  0
 16 17  2  0
 17 18  1  0
 16 19  1  0
 14 20  1  0
 20 21  1  0
 21 22  2  0
 22 23  1  0
 23 24  2  0
 24 25  1  0
 25 26  2  0
 25 27  1  0
  1 28  2  0
  1 29  1  0
 29 30  1  0
 30 31  1  0
 31 32  1  0
 32 33  2  0
 32 34  1  0
 34 35  1  0
 35 36  1  0
 36 37  1  0
 37 38  2  0
 38 39  1  0
 39 40  2  0
 40 41  1  0
 41 42  2  0
 35 43  1  0
 43 44  2  0
 43 45  1  0
 45 46  1  0
 46 47  1  0
 47 48  1  0
 48 49  1  0
 48 50  2  0
 46 51  1  0
 51 52  2  0
 51 53  1  0
 53 54  1  0
 54 55  1  0
 55 56  1  0
 55 57  1  0
 57 58  1  0
 54 59  1  0
 59 60  2  0
 59 61  1  0
 61 62  1  0
 62 63  1  0
 63 64  1  0
 64 65  1  0
 64 66  2  0
 62 67  1  0
 67 68  2  0
 67 69  1  0
 70 69  1  6
 70 71  1  0
 71 72  1  0
 72 73  1  0
 73 74  1  0
 74 75  1  0
 75 76  1  0
 76 77  1  0
 70 78  1  0
 70 79  1  0
 79 80  2  0
 79 81  1  0
 81 82  1  0
 82 83  1  0
 83 84  1  0
 84 85  1  0
 85 86  1  0
 86 87  1  0
 87 88  2  3
 87 89  1  0
 82 90  1  0
 90 91  2  0
 90 92  1  0
 92 93  1  0
 93 94  1  0
 94 95  1  0
 94 96  1  0
 96 97  1  0
 93 98  1  0
 98 99  2  0
 98100  1  0
100101  1  0
101102  1  0
102103  1  0
103104  1  0
104105  1  0
105106  1  0
101107  1  0
107108  2  0
107109  1  0
109110  1  0
110111  1  0
111112  1  0
112113  1  0
113114  2  0
113115  1  0
110116  1  0
116117  2  0
116118  1  0
118119  1  0
119120  1  0
120121  1  0
121122  1  0
121123  1  0
119124  1  0
124125  2  0
124126  1  0
126127  1  0
127128  1  0
128129  2  0
128130  1  0
130131  1  0
131132  1  0
132133  1  0
133134  1  0
134135  1  0
131136  1  0
131137  1  1
137138  2  0
137139  1  0
139140  1  0
140141  1  0
141142  1  0
142143  1  0
142144  1  0
140145  1  0
145146  2  0
145147  1  0
147148  1  0
148149  1  0
149150  1  0
149151  1  0
151152  1  0
148153  1  0
153154  2  0
153155  1  0
  8  3  1  0
 42 37  1  0
 11  6  1  0
 77135  2  0
 18 13  2  0
 22  9  1  0
 26 21  1  0
  2156  1  0
  4157  1  0
  5158  1  0
  8159  1  0
 15160  1  0
 17161  1  0
 18162  1  0
 19163  1  0
 23164  1  0
 24165  1  0
 26166  1  0
 27167  1  0
 29168  1  0
 30169  1  0
 30170  1  0
 31171  1  0
 31172  1  0
 34173  1  0
 35174  1  1
 36175  1  0
 36176  1  0
 38177  1  0
 39178  1  0
 40179  1  0
 41180  1  0
 42181  1  0
 45182  1  0
 46183  1  1
 47184  1  0
 47185  1  0
 49186  1  0
 49187  1  0
 53188  1  0
 54189  1  1
 55190  1  6
 56191  1  0
 56192  1  0
 56193  1  0
 57194  1  0
 57195  1  0
 58196  1  0
 58197  1  0
 58198  1  0
 61199  1  0
 62200  1  1
 63201  1  0
 63202  1  0
 65203  1  0
 65204  1  0
 69205  1  0
 71206  1  0
 71207  1  0
 72208  1  0
 72209  1  0
 73210  1  0
 73211  1  0
 74212  1  0
 74213  1  0
 75214  1  0
 75215  1  0
 76216  1  0
 76217  1  0
 77218  1  0
 78219  1  0
 78220  1  0
 78221  1  0
 81222  1  0
 82223  1  6
 83224  1  0
 83225  1  0
 84226  1  0
 84227  1  0
 85228  1  0
 85229  1  0
 86230  1  0
 88231  1  0
 89232  1  0
 89233  1  0
 92234  1  0
 93235  1  6
 94236  1  1
 95237  1  0
 95238  1  0
 95239  1  0
 96240  1  0
 96241  1  0
 97242  1  0
 97243  1  0
 97244  1  0
100245  1  0
101246  1  6
102247  1  0
102248  1  0
103249  1  0
103250  1  0
104251  1  0
104252  1  0
105253  1  0
105254  1  0
106255  1  0
106256  1  0
109257  1  0
110258  1  6
111259  1  0
111260  1  0
112261  1  0
112262  1  0
115263  1  0
118264  1  0
119265  1  6
120266  1  0
120267  1  0
121268  1  0
122269  1  0
122270  1  0
122271  1  0
123272  1  0
123273  1  0
123274  1  0
126275  1  0
127276  1  0
127277  1  0
130278  1  0
132279  1  0
132280  1  0
133281  1  0
133282  1  0
134283  1  0
134284  1  0
135285  1  0
136286  1  0
136287  1  0
136288  1  0
139289  1  0
140290  1  1
141291  1  0
141292  1  0
142293  1  0
143294  1  0
143295  1  0
143296  1  0
144297  1  0
144298  1  0
144299  1  0
147300  1  0
148301  1  6
149302  1  1
150303  1  0
150304  1  0
150305  1  0
151306  1  0
151307  1  0
152308  1  0
152309  1  0
152310  1  0
155311  1  0
M  END
