
     RDKit          2D

246248  0  0  0  0  0  0  0  0999 V2000
    9.2179  -13.0945    0.0000 N   0  0  0  0  0  0  0  0  0  0  0  0
    9.4391  -11.6109    0.0000 C   0  0  0  0  0  0  0  0  0  0  0  0
   10.8345  -11.0606    0.0000 C   0  0  0  0  0  0  0  0  0  0  0  0
   11.0556   -9.5770    0.0000 C   0  0  0  0  0  0  0  0  0  0  0  0
    9.7764   -8.7938    0.0000 O   0  0  0  0  0  0  0  0  0  0  0  0
   12.4511   -9.0267    0.0000 N   0  0  0  0  0  0  0  0  0  0  0  0
   12.6722   -7.5431    0.0000 C   0  0  0  0  0  0  0  0  0  0  0  0
   11.1727   -7.5829    0.0000 C   0  0  0  0  0  0  0  0  0  0  0  0
   10.3885   -6.3043    0.0000 C   0  0  0  0  0  0  0  0  0  0  0  0
    8.8890   -6.3441    0.0000 N   0  0  0  0  0  0  0  0  0  0  0  0
   10.9377   -4.9084    0.0000 O   0  0  0  0  0  0  0  0  0  0  0  0
   13.3874   -6.2246    0.0000 C   0  0  0  0  0  0  0  0  0  0  0  0
   12.7064   -5.3691    0.0000 O   0  0  0  0  0  0  0  0  0  0  0  0
   14.8869   -6.1848    0.0000 N   0  0  0  0  0  0  0  0  0  0  0  0
   15.8005   -7.3744    0.0000 C   0  0  0  0  0  0  0  0  0  0  0  0
   17.2143   -6.8732    0.0000 C   0  0  0  0  0  0  0  0  0  0  0  0
   17.1744   -5.3737    0.0000 C   0  0  0  0  0  0  0  0  0  0  0  0
   15.7360   -4.9482    0.0000 C   0  0  0  0  0  0  0  0  0  0  0  0
   14.4175   -4.2330    0.0000 C   0  0  0  0  0  0  0  0  0  0  0  0
   13.7939   -4.7295    0.0000 O   0  0  0  0  0  0  0  0  0  0  0  0
   14.3777   -2.7335    0.0000 N   0  0  0  0  0  0  0  0  0  0  0  0
   13.0592   -2.0183    0.0000 C   0  0  0  0  0  0  0  0  0  0  0  0
   12.5838   -3.4410    0.0000 C   0  0  0  0  0  0  0  0  0  0  0  0
   13.5781   -4.5640    0.0000 C   0  0  0  0  0  0  0  0  0  0  0  0
   13.1027   -5.9867    0.0000 C   0  0  0  0  0  0  0  0  0  0  0  0
   14.2266   -6.9802    0.0000 O   0  0  0  0  0  0  0  0  0  0  0  0
   11.6330   -6.2863    0.0000 O   0  0  0  0  0  0  0  0  0  0  0  0
   12.0648   -0.8953    0.0000 C   0  0  0  0  0  0  0  0  0  0  0  0
   10.8001   -1.7018    0.0000 O   0  0  0  0  0  0  0  0  0  0  0  0
   12.5402    0.5274    0.0000 N   0  0  0  0  0  0  0  0  0  0  0  0
   11.5459    1.6505    0.0000 C   0  0  0  0  0  0  0  0  0  0  0  0
   10.9312    0.2822    0.0000 C   0  0  0  0  0  0  0  0  0  0  0  0
    9.9405   -0.8441    0.0000 C   0  0  0  0  0  0  0  0  0  0  0  0
    8.6618   -1.6283    0.0000 C   0  0  0  0  0  0  0  0  0  0  0  0
    7.2088   -2.0008    0.0000 C   0  0  0  0  0  0  0  0  0  0  0  0
   12.9785    2.0949    0.0000 C   0  0  0  0  0  0  0  0  0  0  0  0
   11.7300    3.1391    0.0000 C   0  0  0  0  0  0  0  0  0  0  0  0
   13.2294    3.1790    0.0000 O   0  0  0  0  0  0  0  0  0  0  0  0
   11.4671    4.6159    0.0000 N   0  0  0  0  0  0  0  0  0  0  0  0
   10.7806    5.9496    0.0000 C   0  0  0  0  0  0  0  0  0  0  0  0
   11.3263    7.3468    0.0000 C   0  0  0  0  0  0  0  0  0  0  0  0
   12.8257    7.3903    0.0000 C   0  0  0  0  0  0  0  0  0  0  0  0
   11.3613    8.8464    0.0000 C   0  0  0  0  0  0  0  0  0  0  0  0
   12.6774    9.5659    0.0000 C   0  0  0  0  0  0  0  0  0  0  0  0
    9.7315    7.0217    0.0000 C   0  0  0  0  0  0  0  0  0  0  0  0
   10.4826    8.3201    0.0000 O   0  0  0  0  0  0  0  0  0  0  0  0
    8.4130    7.7369    0.0000 N   0  0  0  0  0  0  0  0  0  0  0  0
    6.9423    8.0317    0.0000 C   0  0  0  0  0  0  0  0  0  0  0  0
    6.1901    9.3296    0.0000 C   0  0  0  0  0  0  0  0  0  0  0  0
    6.9380   10.6298    0.0000 C   0  0  0  0  0  0  0  0  0  0  0  0
    6.1859   11.9276    0.0000 C   0  0  0  0  0  0  0  0  0  0  0  0
    8.0855   11.5959    0.0000 C   0  0  0  0  0  0  0  0  0  0  0  0
    5.4500    7.8800    0.0000 C   0  0  0  0  0  0  0  0  0  0  0  0
    5.0774    9.3330    0.0000 O   0  0  0  0  0  0  0  0  0  0  0  0
    4.0687    7.2950    0.0000 N   0  0  0  0  0  0  0  0  0  0  0  0
    2.9212    6.3290    0.0000 C   0  0  0  0  0  0  0  0  0  0  0  0
    1.4376    6.5501    0.0000 C   0  0  0  0  0  0  0  0  0  0  0  0
    0.8873    7.9456    0.0000 C   0  0  0  0  0  0  0  0  0  0  0  0
   -0.5963    8.1667    0.0000 O   0  0  0  0  0  0  0  0  0  0  0  0
    1.8206    9.1198    0.0000 O   0  0  0  0  0  0  0  0  0  0  0  0
    2.1094    5.0676    0.0000 C   0  0  0  0  0  0  0  0  0  0  0  0
    0.7412    5.6823    0.0000 O   0  0  0  0  0  0  0  0  0  0  0  0
    1.7055    3.6230    0.0000 N   0  0  0  0  0  0  0  0  0  0  0  0
    1.7454    2.1236    0.0000 C   0  0  0  0  0  0  0  0  0  0  0  0
    2.2254    0.7025    0.0000 C   0  0  0  0  0  0  0  0  0  0  0  0
    3.1030   -0.5140    0.0000 C   0  0  0  0  0  0  0  0  0  0  0  0
    4.3002   -1.4178    0.0000 C   0  0  0  0  0  0  0  0  0  0  0  0
    5.7106   -1.9285    0.0000 C   0  0  0  0  0  0  0  0  0  0  0  0
    0.3622    2.7040    0.0000 C   0  0  0  0  0  0  0  0  0  0  0  0
    0.6475    1.1015    0.0000 C   0  0  0  0  0  0  0  0  0  0  0  0
    0.6199   -0.3982    0.0000 O   0  0  0  0  0  0  0  0  0  0  0  0
   -0.7866    1.5413    0.0000 N   0  0  0  0  0  0  0  0  0  0  0  0
   -1.8845    0.5193    0.0000 C   0  0  0  0  0  0  0  0  0  0  0  0
   -2.5667   -0.8167    0.0000 C   0  0  0  0  0  0  0  0  0  0  0  0
   -4.0647   -0.8939    0.0000 C   0  0  0  0  0  0  0  0  0  0  0  0
   -4.8827   -2.1512    0.0000 C   0  0  0  0  0  0  0  0  0  0  0  0
   -6.3313   -1.7617    0.0000 N   0  0  0  0  0  0  0  0  0  0  0  0
   -6.4085   -0.2637    0.0000 C   0  0  0  0  0  0  0  0  0  0  0  0
   -5.0077    0.2727    0.0000 N   0  0  0  0  0  0  0  0  0  0  0  0
   -3.3186    0.9590    0.0000 C   0  0  0  0  0  0  0  0  0  0  0  0
   -3.6548    2.4209    0.0000 O   0  0  0  0  0  0  0  0  0  0  0  0
   -4.4165   -0.0630    0.0000 N   0  0  0  0  0  0  0  0  0  0  0  0
   -5.8506    0.3768    0.0000 C   0  0  0  0  0  0  0  0  0  0  0  0
   -7.0478    1.2805    0.0000 C   0  0  0  0  0  0  0  0  0  0  0  0
   -6.8637    2.7692    0.0000 C   0  0  0  0  0  0  0  0  0  0  0  0
   -6.9485   -0.6453    0.0000 C   0  0  0  0  0  0  0  0  0  0  0  0
   -6.9761   -2.1450    0.0000 O   0  0  0  0  0  0  0  0  0  0  0  0
   -8.3826   -0.2055    0.0000 N   0  0  0  0  0  0  0  0  0  0  0  0
   -9.4805   -1.2275    0.0000 C   0  0  0  0  0  0  0  0  0  0  0  0
  -10.1626   -2.5634    0.0000 C   0  0  0  0  0  0  0  0  0  0  0  0
  -11.6607   -2.6406    0.0000 C   0  0  0  0  0  0  0  0  0  0  0  0
  -12.3428   -3.9766    0.0000 C   0  0  0  0  0  0  0  0  0  0  0  0
  -13.8202   -4.2358    0.0000 N   0  0  0  0  0  0  0  0  0  0  0  0
  -11.5269   -5.2353    0.0000 O   0  0  0  0  0  0  0  0  0  0  0  0
  -10.9146   -0.7877    0.0000 C   0  0  0  0  0  0  0  0  0  0  0  0
  -11.2507    0.6741    0.0000 O   0  0  0  0  0  0  0  0  0  0  0  0
  -12.0125   -1.8098    0.0000 N   0  0  0  0  0  0  0  0  0  0  0  0
  -13.4466   -1.3700    0.0000 C   0  0  0  0  0  0  0  0  0  0  0  0
  -14.6437   -0.4662    0.0000 C   0  0  0  0  0  0  0  0  0  0  0  0
  -14.4597    1.0224    0.0000 C   0  0  0  0  0  0  0  0  0  0  0  0
  -15.6568    1.9262    0.0000 C   0  0  0  0  0  0  0  0  0  0  0  0
  -15.4727    3.4149    0.0000 N   0  0  0  0  0  0  0  0  0  0  0  0
  -16.6699    4.3186    0.0000 C   0  0  0  0  0  0  0  0  0  0  0  0
  -16.4858    5.8073    0.0000 N   0  0  0  0  0  0  0  0  0  0  0  0
  -18.0512    3.7337    0.0000 N   0  0  0  0  0  0  0  0  0  0  0  0
  -14.5445   -2.3920    0.0000 C   0  0  0  0  0  0  0  0  0  0  0  0
  -14.3890   -3.8839    0.0000 O   0  0  0  0  0  0  0  0  0  0  0  0
  -15.9786   -1.9522    0.0000 N   0  0  0  0  0  0  0  0  0  0  0  0
  -17.0765   -2.9743    0.0000 C   0  0  0  0  0  0  0  0  0  0  0  0
  -17.7586   -4.3102    0.0000 C   0  0  0  0  0  0  0  0  0  0  0  0
  -19.2360   -4.5694    0.0000 C   0  0  0  0  0  0  0  0  0  0  0  0
  -18.5106   -2.5345    0.0000 C   0  0  0  0  0  0  0  0  0  0  0  0
  -18.8467   -1.0726    0.0000 O   0  0  0  0  0  0  0  0  0  0  0  0
  -19.6085   -3.5565    0.0000 N   0  0  0  0  0  0  0  0  0  0  0  0
  -21.0425   -3.1167    0.0000 C   0  0  0  0  0  0  0  0  0  0  0  0
  -22.2397   -2.2130    0.0000 C   0  0  0  0  0  0  0  0  0  0  0  0
  -22.0556   -0.7243    0.0000 C   0  0  0  0  0  0  0  0  0  0  0  0
  -23.2528    0.1794    0.0000 S   0  0  0  0  0  0  0  0  0  0  0  0
  -23.0687    1.6681    0.0000 C   0  0  0  0  0  0  0  0  0  0  0  0
  -22.1405   -4.1388    0.0000 C   0  0  0  0  0  0  0  0  0  0  0  0
  -23.6175   -3.8771    0.0000 O   0  0  0  0  0  0  0  0  0  0  0  0
  -21.8043   -5.6006    0.0000 O   0  0  0  0  0  0  0  0  0  0  0  0
    7.8225  -13.6448    0.0000 H   0  0  0  0  0  0  0  0  0  0  0  0
   10.3922  -14.0278    0.0000 H   0  0  0  0  0  0  0  0  0  0  0  0
    7.9396  -11.6507    0.0000 H   0  0  0  0  0  0  0  0  0  0  0  0
    9.1395  -10.1411    0.0000 H   0  0  0  0  0  0  0  0  0  0  0  0
   11.1341  -12.5304    0.0000 H   0  0  0  0  0  0  0  0  0  0  0  0
   12.3340  -11.0208    0.0000 H   0  0  0  0  0  0  0  0  0  0  0  0
   13.6253   -9.9600    0.0000 H   0  0  0  0  0  0  0  0  0  0  0  0
   13.9376   -8.3486    0.0000 H   0  0  0  0  0  0  0  0  0  0  0  0
    9.7206   -7.9590    0.0000 H   0  0  0  0  0  0  0  0  0  0  0  0
   11.1078   -9.0815    0.0000 H   0  0  0  0  0  0  0  0  0  0  0  0
    8.1048   -5.0655    0.0000 H   0  0  0  0  0  0  0  0  0  0  0  0
    8.1738   -7.6626    0.0000 H   0  0  0  0  0  0  0  0  0  0  0  0
   16.4468   -8.7281    0.0000 H   0  0  0  0  0  0  0  0  0  0  0  0
   14.6270   -8.3087    0.0000 H   0  0  0  0  0  0  0  0  0  0  0  0
   18.7014   -6.6768    0.0000 H   0  0  0  0  0  0  0  0  0  0  0  0
   17.5650   -8.3316    0.0000 H   0  0  0  0  0  0  0  0  0  0  0  0
   17.4472   -3.8987    0.0000 H   0  0  0  0  0  0  0  0  0  0  0  0
   18.6699   -5.4908    0.0000 H   0  0  0  0  0  0  0  0  0  0  0  0
   16.3095   -3.5622    0.0000 H   0  0  0  0  0  0  0  0  0  0  0  0
   15.6564   -1.9493    0.0000 H   0  0  0  0  0  0  0  0  0  0  0  0
   13.9925   -0.8440    0.0000 H   0  0  0  0  0  0  0  0  0  0  0  0
   11.5143   -4.4927    0.0000 H   0  0  0  0  0  0  0  0  0  0  0  0
   11.2653   -2.7257    0.0000 H   0  0  0  0  0  0  0  0  0  0  0  0
   14.6844   -5.5771    0.0000 H   0  0  0  0  0  0  0  0  0  0  0  0
   14.7679   -3.6505    0.0000 H   0  0  0  0  0  0  0  0  0  0  0  0
   14.0356    0.6456    0.0000 H   0  0  0  0  0  0  0  0  0  0  0  0
   12.3872   -0.0784    0.0000 H   0  0  0  0  0  0  0  0  0  0  0  0
   11.3792   -1.1493    0.0000 H   0  0  0  0  0  0  0  0  0  0  0  0
   11.0001   -1.9058    0.0000 H   0  0  0  0  0  0  0  0  0  0  0  0
   10.3094   -2.2980    0.0000 H   0  0  0  0  0  0  0  0  0  0  0  0
    9.7906   -2.6162    0.0000 H   0  0  0  0  0  0  0  0  0  0  0  0
    8.4038   -3.1060    0.0000 H   0  0  0  0  0  0  0  0  0  0  0  0
    7.3606   -3.4931    0.0000 H   0  0  0  0  0  0  0  0  0  0  0  0
   14.1957    1.2183    0.0000 H   0  0  0  0  0  0  0  0  0  0  0  0
   14.1727    3.0026    0.0000 H   0  0  0  0  0  0  0  0  0  0  0  0
   12.6352    3.5551    0.0000 H   0  0  0  0  0  0  0  0  0  0  0  0
   12.8882    5.0960    0.0000 H   0  0  0  0  0  0  0  0  0  0  0  0
   12.2769    5.8436    0.0000 H   0  0  0  0  0  0  0  0  0  0  0  0
    9.9706    7.9887    0.0000 H   0  0  0  0  0  0  0  0  0  0  0  0
   13.5436    8.8937    0.0000 H   0  0  0  0  0  0  0  0  0  0  0  0
   14.2800    7.2780    0.0000 H   0  0  0  0  0  0  0  0  0  0  0  0
   12.9573    6.0801    0.0000 H   0  0  0  0  0  0  0  0  0  0  0  0
   10.8812   10.2675    0.0000 H   0  0  0  0  0  0  0  0  0  0  0  0
    9.8619    8.8029    0.0000 H   0  0  0  0  0  0  0  0  0  0  0  0
   12.7124   11.0655    0.0000 H   0  0  0  0  0  0  0  0  0  0  0  0
   14.1603    9.7919    0.0000 H   0  0  0  0  0  0  0  0  0  0  0  0
   13.4871    8.3032    0.0000 H   0  0  0  0  0  0  0  0  0  0  0  0
    8.9237    9.1473    0.0000 H   0  0  0  0  0  0  0  0  0  0  0  0
    7.9580    9.1355    0.0000 H   0  0  0  0  0  0  0  0  0  0  0  0
    4.9308   10.1444    0.0000 H   0  0  0  0  0  0  0  0  0  0  0  0
    4.8430    8.6699    0.0000 H   0  0  0  0  0  0  0  0  0  0  0  0
    8.1974    9.8149    0.0000 H   0  0  0  0  0  0  0  0  0  0  0  0
    6.7697   13.3094    0.0000 H   0  0  0  0  0  0  0  0  0  0  0  0
    5.0353   12.8899    0.0000 H   0  0  0  0  0  0  0  0  0  0  0  0
    4.9292   11.1086    0.0000 H   0  0  0  0  0  0  0  0  0  0  0  0
    8.0046   13.0937    0.0000 H   0  0  0  0  0  0  0  0  0  0  0  0
    9.4942   12.1112    0.0000 H   0  0  0  0  0  0  0  0  0  0  0  0
    8.8376   10.2981    0.0000 H   0  0  0  0  0  0  0  0  0  0  0  0
    3.2845    8.5737    0.0000 H   0  0  0  0  0  0  0  0  0  0  0  0
    2.5126    7.7723    0.0000 H   0  0  0  0  0  0  0  0  0  0  0  0
   -0.0322    6.2505    0.0000 H   0  0  0  0  0  0  0  0  0  0  0  0
    1.1134    5.0856    0.0000 H   0  0  0  0  0  0  0  0  0  0  0  0
    0.2169    3.8071    0.0000 H   0  0  0  0  0  0  0  0  0  0  0  0
    1.4775   -0.5978    0.0000 H   0  0  0  0  0  0  0  0  0  0  0  0
    0.7414    0.4838    0.0000 H   0  0  0  0  0  0  0  0  0  0  0  0
    2.5958   -1.9257    0.0000 H   0  0  0  0  0  0  0  0  0  0  0  0
    1.7494   -1.1604    0.0000 H   0  0  0  0  0  0  0  0  0  0  0  0
    4.4147   -2.9134    0.0000 H   0  0  0  0  0  0  0  0  0  0  0  0
    3.0816   -2.2924    0.0000 H   0  0  0  0  0  0  0  0  0  0  0  0
    5.4157   -3.3993    0.0000 H   0  0  0  0  0  0  0  0  0  0  0  0
   -1.0162    2.1122    0.0000 H   0  0  0  0  0  0  0  0  0  0  0  0
   -0.6067    3.8491    0.0000 H   0  0  0  0  0  0  0  0  0  0  0  0
    0.8446    4.1243    0.0000 H   0  0  0  0  0  0  0  0  0  0  0  0
   -1.2985    2.9513    0.0000 H   0  0  0  0  0  0  0  0  0  0  0  0
   -0.6874   -0.3845    0.0000 H   0  0  0  0  0  0  0  0  0  0  0  0
   -2.7508   -2.3053    0.0000 H   0  0  0  0  0  0  0  0  0  0  0  0
   -1.1326   -1.2565    0.0000 H   0  0  0  0  0  0  0  0  0  0  0  0
   -4.3464   -3.5520    0.0000 H   0  0  0  0  0  0  0  0  0  0  0  0
   -7.4978   -2.7047    0.0000 H   0  0  0  0  0  0  0  0  0  0  0  0
   -7.7561    0.3950    0.0000 H   0  0  0  0  0  0  0  0  0  0  0  0
   -4.4441   -1.5627    0.0000 H   0  0  0  0  0  0  0  0  0  0  0  0
   -5.0107    1.6196    0.0000 H   0  0  0  0  0  0  0  0  0  0  0  0
   -8.4176    1.8919    0.0000 H   0  0  0  0  0  0  0  0  0  0  0  0
   -8.1634    0.2779    0.0000 H   0  0  0  0  0  0  0  0  0  0  0  0
   -8.0609    3.6730    0.0000 H   0  0  0  0  0  0  0  0  0  0  0  0
   -6.1815    4.1051    0.0000 H   0  0  0  0  0  0  0  0  0  0  0  0
   -5.3867    2.5075    0.0000 H   0  0  0  0  0  0  0  0  0  0  0  0
   -8.8944    1.2045    0.0000 H   0  0  0  0  0  0  0  0  0  0  0  0
   -8.2833   -2.1313    0.0000 H   0  0  0  0  0  0  0  0  0  0  0  0
  -10.3467   -4.0521    0.0000 H   0  0  0  0  0  0  0  0  0  0  0  0
   -8.7286   -3.0032    0.0000 H   0  0  0  0  0  0  0  0  0  0  0  0
  -13.0947   -2.2009    0.0000 H   0  0  0  0  0  0  0  0  0  0  0  0
  -12.1971   -1.2399    0.0000 H   0  0  0  0  0  0  0  0  0  0  0  0
  -14.5229   -5.3897    0.0000 H   0  0  0  0  0  0  0  0  0  0  0  0
  -14.9804   -3.0403    0.0000 H   0  0  0  0  0  0  0  0  0  0  0  0
  -12.0400   -3.3095    0.0000 H   0  0  0  0  0  0  0  0  0  0  0  0
  -12.6067   -0.1272    0.0000 H   0  0  0  0  0  0  0  0  0  0  0  0
  -16.0778   -0.0264    0.0000 H   0  0  0  0  0  0  0  0  0  0  0  0
  -15.6289   -1.5974    0.0000 H   0  0  0  0  0  0  0  0  0  0  0  0
  -13.7775    2.3584    0.0000 H   0  0  0  0  0  0  0  0  0  0  0  0
  -12.9827    0.7607    0.0000 H   0  0  0  0  0  0  0  0  0  0  0  0
  -17.0909    2.3660    0.0000 H   0  0  0  0  0  0  0  0  0  0  0  0
  -16.4967    0.6834    0.0000 H   0  0  0  0  0  0  0  0  0  0  0  0
  -14.0915    3.9998    0.0000 H   0  0  0  0  0  0  0  0  0  0  0  0
  -17.6830    6.7110    0.0000 H   0  0  0  0  0  0  0  0  0  0  0  0
  -15.1046    6.3922    0.0000 H   0  0  0  0  0  0  0  0  0  0  0  0
  -19.2484    4.6375    0.0000 H   0  0  0  0  0  0  0  0  0  0  0  0
  -18.2353    2.2450    0.0000 H   0  0  0  0  0  0  0  0  0  0  0  0
  -16.4904   -0.5423    0.0000 H   0  0  0  0  0  0  0  0  0  0  0  0
  -15.8793   -3.8780    0.0000 H   0  0  0  0  0  0  0  0  0  0  0  0
  -17.9427   -5.7989    0.0000 H   0  0  0  0  0  0  0  0  0  0  0  0
  -16.3245   -4.7500    0.0000 H   0  0  0  0  0  0  0  0  0  0  0  0
  -19.9388   -5.7233    0.0000 H   0  0  0  0  0  0  0  0  0  0  0  0
  -20.6907   -3.9476    0.0000 H   0  0  0  0  0  0  0  0  0  0  0  0
  -19.7931   -2.9866    0.0000 H   0  0  0  0  0  0  0  0  0  0  0  0
  -19.4530   -5.0485    0.0000 H   0  0  0  0  0  0  0  0  0  0  0  0
  -20.2027   -1.8739    0.0000 H   0  0  0  0  0  0  0  0  0  0  0  0
  -23.6738   -1.7732    0.0000 H   0  0  0  0  0  0  0  0  0  0  0  0
  -23.0796   -3.4558    0.0000 H   0  0  0  0  0  0  0  0  0  0  0  0
  -21.2157    0.5185    0.0000 H   0  0  0  0  0  0  0  0  0  0  0  0
  -20.5786   -0.9860    0.0000 H   0  0  0  0  0  0  0  0  0  0  0  0
  -24.2659    2.5718    0.0000 H   0  0  0  0  0  0  0  0  0  0  0  0
  -22.3866    3.0040    0.0000 H   0  0  0  0  0  0  0  0  0  0  0  0
  -21.5917    1.4064    0.0000 H   0  0  0  0  0  0  0  0  0  0  0  0
  1  2  1  0
  2  3  1  0
  3  4  1  0
  4  5  2  0
  4  6  1  0
  6  7  1  0
  7  8  1  0
  8  9  1  0
  9 10  1  0
  9 11  2  0
  7 12  1  0
 12 13  2  0
 12 14  1  0
 14 15  1  0
 15 16  1  0
 16 17  1  0
 17 18  1  0
 18 19  1  0
 19 20  2  0
 19 21  1  0
 21 22  1  0
 22 23  1  0
 23 24  1  0
 24 25  1  0
 25 26  2  0
 25 27  1  0
 22 28  1  0
 28 29  2  0
 28 30  1  0
 31 30  1  1
 31 32  1  0
 32 33  1  0
 33 34  1  0
 34 35  1  0
 31 36  1  0
 31 37  1  0
 37 38  2  0
 37 39  1  0
 39 40  1  0
 40 41  1  0
 41 42  1  0
 41 43  1  0
 43 44  1  0
 40 45  1  0
 45 46  2  0
 45 47  1  0
 47 48  1  0
 48 49  1  0
 49 50  1  0
 50 51  1  0
 50 52  1  0
 48 53  1  0
 53 54  2  0
 53 55  1  0
 55 56  1  0
 56 57  1  0
 57 58  1  0
 58 59  2  0
 58 60  1  0
 56 61  1  0
 61 62  2  0
 61 63  1  0
 63 64  1  0
 64 65  1  0
 65 66  1  0
 66 67  1  0
 67 68  1  0
 64 69  1  0
 64 70  1  1
 70 71  2  0
 70 72  1  0
 72 73  1  0
 73 74  1  0
 74 75  1  0
 75 76  2  0
 76 77  1  0
 77 78  1  0
 78 79  2  0
 73 80  1  0
 80 81  2  0
 80 82  1  0
 82 83  1  0
 83 84  1  0
 84 85  1  0
 83 86  1  0
 86 87  2  0
 86 88  1  0
 88 89  1  0
 89 90  1  0
 90 91  1  0
 91 92  1  0
 92 93  1  0
 92 94  2  0
 89 95  1  0
 95 96  2  0
 95 97  1  0
 97 98  1  0
 98 99  1  0
 99100  1  0
100101  1  0
101102  1  0
102103  1  0
103104  2  3
103105  1  0
 98106  1  0
106107  2  0
106108  1  0
108109  1  0
109110  1  0
110111  1  0
109112  1  0
112113  2  0
112114  1  0
114115  1  0
115116  1  0
116117  1  0
117118  1  0
118119  1  0
115120  1  0
120121  2  0
120122  1  0
 18 14  1  0
 79 75  1  0
 35 68  2  0
  1123  1  0
  1124  1  0
  2125  1  0
  2126  1  0
  3127  1  0
  3128  1  0
  6129  1  0
  7130  1  1
  8131  1  0
  8132  1  0
 10133  1  0
 10134  1  0
 15135  1  0
 15136  1  0
 16137  1  0
 16138  1  0
 17139  1  0
 17140  1  0
 18141  1  0
 21142  1  0
 22143  1  1
 23144  1  0
 23145  1  0
 24146  1  0
 24147  1  0
 30148  1  0
 32149  1  0
 32150  1  0
 33151  1  0
 33152  1  0
 34153  1  0
 34154  1  0
 35155  1  0
 36156  1  0
 36157  1  0
 36158  1  0
 39159  1  0
 40160  1  6
 41161  1  1
 42162  1  0
 42163  1  0
 42164  1  0
 43165  1  0
 43166  1  0
 44167  1  0
 44168  1  0
 44169  1  0
 47170  1  0
 48171  1  6
 49172  1  0
 49173  1  0
 50174  1  0
 51175  1  0
 51176  1  0
 51177  1  0
 52178  1  0
 52179  1  0
 52180  1  0
 55181  1  0
 56182  1  6
 57183  1  0
 57184  1  0
 63185  1  0
 65186  1  0
 65187  1  0
 66188  1  0
 66189  1  0
 67190  1  0
 67191  1  0
 68192  1  0
 69193  1  0
 69194  1  0
 69195  1  0
 72196  1  0
 73197  1  1
 74198  1  0
 74199  1  0
 76200  1  0
 77201  1  0
 78202  1  0
 82203  1  0
 83204  1  6
 84205  1  0
 84206  1  0
 85207  1  0
 85208  1  0
 85209  1  0
 88210  1  0
 89211  1  1
 90212  1  0
 90213  1  0
 91214  1  0
 91215  1  0
 93216  1  0
 93217  1  0
 97218  1  0
 98219  1  6
 99220  1  0
 99221  1  0
100222  1  0
100223  1  0
101224  1  0
101225  1  0
102226  1  0
104227  1  0
104228  1  0
105229  1  0
105230  1  0
108231  1  0
109232  1  1
110233  1  0
110234  1  0
111235  1  0
111236  1  0
111237  1  0
114238  1  0
115239  1  6
116240  1  0
116241  1  0
117242  1  0
117243  1  0
119244  1  0
119245  1  0
119246  1  0
M  CHG  4  27  -1  60  -1 104   1 122  -1
M  END
