
     RDKit          2D

416422  0  0  0  0  0  0  0  0999 V2000
   40.1084   -4.4225    0.0000 C   0  0  0  0  0  0  0  0  0  0  0  0
   41.5207   -3.9169    0.0000 N   0  0  0  0  0  0  0  0  0  0  0  0
   42.6646   -4.8872    0.0000 C   0  0  0  0  0  0  0  0  0  0  0  0
   42.3963   -6.3630    0.0000 C   0  0  0  0  0  0  0  0  0  0  0  0
   43.5403   -7.3332    0.0000 C   0  0  0  0  0  0  0  0  0  0  0  0
   44.9525   -6.8276    0.0000 C   0  0  0  0  0  0  0  0  0  0  0  0
   45.2208   -5.3518    0.0000 C   0  0  0  0  0  0  0  0  0  0  0  0
   44.0768   -4.3816    0.0000 C   0  0  0  0  0  0  0  0  0  0  0  0
   46.7073   -5.1509    0.0000 C   0  0  0  0  0  0  0  0  0  0  0  0
   47.3577   -6.5026    0.0000 O   0  0  0  0  0  0  0  0  0  0  0  0
   46.2732   -7.5388    0.0000 C   0  0  0  0  0  0  0  0  0  0  0  0
   46.4741   -9.0253    0.0000 O   0  0  0  0  0  0  0  0  0  0  0  0
   48.2066   -5.1065    0.0000 C   0  0  0  0  0  0  0  0  0  0  0  0
   48.9178   -3.7858    0.0000 C   0  0  0  0  0  0  0  0  0  0  0  0
   50.4172   -3.7414    0.0000 C   0  0  0  0  0  0  0  0  0  0  0  0
   51.2053   -5.0176    0.0000 C   0  0  0  0  0  0  0  0  0  0  0  0
   50.4941   -6.3383    0.0000 C   0  0  0  0  0  0  0  0  0  0  0  0
   48.9948   -6.3827    0.0000 C   0  0  0  0  0  0  0  0  0  0  0  0
   52.7047   -4.9732    0.0000 O   0  0  0  0  0  0  0  0  0  0  0  0
   48.1297   -2.5095    0.0000 O   0  0  0  0  0  0  0  0  0  0  0  0
   46.6303   -2.5540    0.0000 C   0  0  0  0  0  0  0  0  0  0  0  0
   45.9191   -3.8747    0.0000 C   0  0  0  0  0  0  0  0  0  0  0  0
   44.7517   -3.3028    0.0000 C   0  0  0  0  0  0  0  0  0  0  0  0
   44.3313   -2.6221    0.0000 C   0  0  0  0  0  0  0  0  0  0  0  0
   44.7106   -1.9177    0.0000 C   0  0  0  0  0  0  0  0  0  0  0  0
   45.5103   -1.8940    0.0000 C   0  0  0  0  0  0  0  0  0  0  0  0
   43.5547   -0.0459    0.0000 O   0  0  0  0  0  0  0  0  0  0  0  0
   39.8402   -5.8983    0.0000 S   0  0  0  0  0  0  0  0  0  0  0  0
   38.9645   -3.4523    0.0000 N   0  0  0  0  0  0  0  0  0  0  0  0
   37.5522   -3.9579    0.0000 C   0  0  0  0  0  0  0  0  0  0  0  0
   36.4083   -2.9876    0.0000 C   0  0  0  0  0  0  0  0  0  0  0  0
   34.9960   -3.4932    0.0000 C   0  0  0  0  0  0  0  0  0  0  0  0
   34.7278   -4.9690    0.0000 O   0  0  0  0  0  0  0  0  0  0  0  0
   33.8521   -2.5230    0.0000 N   0  0  0  0  0  0  0  0  0  0  0  0
   32.4399   -3.0286    0.0000 C   0  0  0  0  0  0  0  0  0  0  0  0
   31.2857   -3.9867    0.0000 C   0  0  0  0  0  0  0  0  0  0  0  0
   29.7858   -4.0051    0.0000 O   0  0  0  0  0  0  0  0  0  0  0  0
   31.2959   -2.0583    0.0000 C   0  0  0  0  0  0  0  0  0  0  0  0
   31.5642   -0.5825    0.0000 O   0  0  0  0  0  0  0  0  0  0  0  0
   29.8837   -2.5639    0.0000 N   0  0  0  0  0  0  0  0  0  0  0  0
   28.7397   -1.5937    0.0000 C   0  0  0  0  0  0  0  0  0  0  0  0
   27.9966   -0.2907    0.0000 C   0  0  0  0  0  0  0  0  0  0  0  0
   26.9794    0.8117    0.0000 O   0  0  0  0  0  0  0  0  0  0  0  0
   28.7534    1.0044    0.0000 C   0  0  0  0  0  0  0  0  0  0  0  0
   27.3275   -2.0993    0.0000 C   0  0  0  0  0  0  0  0  0  0  0  0
   27.0592   -3.5751    0.0000 O   0  0  0  0  0  0  0  0  0  0  0  0
   26.1835   -1.1290    0.0000 N   0  0  0  0  0  0  0  0  0  0  0  0
   24.7713   -1.6346    0.0000 C   0  0  0  0  0  0  0  0  0  0  0  0
   23.6172   -2.5927    0.0000 C   0  0  0  0  0  0  0  0  0  0  0  0
   23.6273   -0.6644    0.0000 C   0  0  0  0  0  0  0  0  0  0  0  0
   23.8956    0.8114    0.0000 O   0  0  0  0  0  0  0  0  0  0  0  0
   22.2151   -1.1700    0.0000 N   0  0  0  0  0  0  0  0  0  0  0  0
   21.0711   -0.1997    0.0000 C   0  0  0  0  0  0  0  0  0  0  0  0
   20.3280    1.1032    0.0000 C   0  0  0  0  0  0  0  0  0  0  0  0
   21.0849    2.3983    0.0000 C   0  0  0  0  0  0  0  0  0  0  0  0
   20.3417    3.7013    0.0000 C   0  0  0  0  0  0  0  0  0  0  0  0
   22.2390    3.3564    0.0000 C   0  0  0  0  0  0  0  0  0  0  0  0
   19.6589   -0.7053    0.0000 C   0  0  0  0  0  0  0  0  0  0  0  0
   19.3907   -2.1811    0.0000 O   0  0  0  0  0  0  0  0  0  0  0  0
   18.5150    0.2649    0.0000 N   0  0  0  0  0  0  0  0  0  0  0  0
   17.1027   -0.2407    0.0000 C   0  0  0  0  0  0  0  0  0  0  0  0
   15.9486   -1.1988    0.0000 C   0  0  0  0  0  0  0  0  0  0  0  0
   14.5418   -0.6783    0.0000 C   0  0  0  0  0  0  0  0  0  0  0  0
   13.3876   -1.6364    0.0000 C   0  0  0  0  0  0  0  0  0  0  0  0
   11.9808   -1.1159    0.0000 N   0  0  0  0  0  0  0  0  0  0  0  0
   10.8267   -2.0740    0.0000 C   0  0  0  0  0  0  0  0  0  0  0  0
    9.4938   -1.3860    0.0000 N   0  0  0  0  0  0  0  0  0  0  0  0
   11.0794   -3.5526    0.0000 N   0  0  0  0  0  0  0  0  0  0  0  0
   15.9588    0.7296    0.0000 C   0  0  0  0  0  0  0  0  0  0  0  0
   16.2270    2.2054    0.0000 O   0  0  0  0  0  0  0  0  0  0  0  0
   14.5465    0.2240    0.0000 N   0  0  0  0  0  0  0  0  0  0  0  0
   13.4026    1.1942    0.0000 C   0  0  0  0  0  0  0  0  0  0  0  0
   12.6594    2.4972    0.0000 C   0  0  0  0  0  0  0  0  0  0  0  0
   13.4163    3.7923    0.0000 C   0  0  0  0  0  0  0  0  0  0  0  0
   12.6732    5.0952    0.0000 C   0  0  0  0  0  0  0  0  0  0  0  0
   13.4300    6.3903    0.0000 O   0  0  0  0  0  0  0  0  0  0  0  0
   11.1732    5.1032    0.0000 O   0  0  0  0  0  0  0  0  0  0  0  0
   11.9904    0.6886    0.0000 C   0  0  0  0  0  0  0  0  0  0  0  0
   11.5403   -0.3079    0.0000 O   0  0  0  0  0  0  0  0  0  0  0  0
   10.8464    1.6589    0.0000 N   0  0  0  0  0  0  0  0  0  0  0  0
    9.4342    1.1533    0.0000 C   0  0  0  0  0  0  0  0  0  0  0  0
    8.2800    0.1952    0.0000 C   0  0  0  0  0  0  0  0  0  0  0  0
    6.8732    0.7156    0.0000 C   0  0  0  0  0  0  0  0  0  0  0  0
    5.7191   -0.2425    0.0000 C   0  0  0  0  0  0  0  0  0  0  0  0
    5.7293    1.6859    0.0000 C   0  0  0  0  0  0  0  0  0  0  0  0
    8.2902    2.1235    0.0000 C   0  0  0  0  0  0  0  0  0  0  0  0
    8.5585    3.5993    0.0000 O   0  0  0  0  0  0  0  0  0  0  0  0
    6.8780    1.6179    0.0000 N   0  0  0  0  0  0  0  0  0  0  0  0
    5.7340    2.5882    0.0000 C   0  0  0  0  0  0  0  0  0  0  0  0
    4.9909    3.8911    0.0000 C   0  0  0  0  0  0  0  0  0  0  0  0
    5.8999    5.0843    0.0000 C   0  0  0  0  0  0  0  0  0  0  0  0
    3.8469    4.8614    0.0000 C   0  0  0  0  0  0  0  0  0  0  0  0
    4.1152    6.3372    0.0000 C   0  0  0  0  0  0  0  0  0  0  0  0
    4.3218    2.0826    0.0000 C   0  0  0  0  0  0  0  0  0  0  0  0
    4.0535    0.6068    0.0000 O   0  0  0  0  0  0  0  0  0  0  0  0
    3.1778    3.0528    0.0000 N   0  0  0  0  0  0  0  0  0  0  0  0
    1.7656    2.5472    0.0000 C   0  0  0  0  0  0  0  0  0  0  0  0
    1.2102    1.1538    0.0000 C   0  0  0  0  0  0  0  0  0  0  0  0
    0.2688   -0.0140    0.0000 C   0  0  0  0  0  0  0  0  0  0  0  0
   -0.9750   -0.8524    0.0000 C   0  0  0  0  0  0  0  0  0  0  0  0
   -2.4107   -1.2869    0.0000 C   0  0  0  0  0  0  0  0  0  0  0  0
    2.9311    1.6029    0.0000 C   0  0  0  0  0  0  0  0  0  0  0  0
    1.8856    4.0424    0.0000 C   0  0  0  0  0  0  0  0  0  0  0  0
    3.3820    4.1466    0.0000 O   0  0  0  0  0  0  0  0  0  0  0  0
    1.5595    5.5066    0.0000 N   0  0  0  0  0  0  0  0  0  0  0  0
    0.8164    6.8095    0.0000 C   0  0  0  0  0  0  0  0  0  0  0  0
    1.3016    8.2289    0.0000 C   0  0  0  0  0  0  0  0  0  0  0  0
    0.3150    9.3588    0.0000 C   0  0  0  0  0  0  0  0  0  0  0  0
    0.8003   10.7781    0.0000 C   0  0  0  0  0  0  0  0  0  0  0  0
   -0.1863   11.9080    0.0000 O   0  0  0  0  0  0  0  0  0  0  0  0
    2.2721   11.0676    0.0000 O   0  0  0  0  0  0  0  0  0  0  0  0
   -0.2778    7.8356    0.0000 C   0  0  0  0  0  0  0  0  0  0  0  0
    0.0025    8.5819    0.0000 O   0  0  0  0  0  0  0  0  0  0  0  0
   -1.6258    8.4935    0.0000 N   0  0  0  0  0  0  0  0  0  0  0  0
   -3.1078    8.7249    0.0000 C   0  0  0  0  0  0  0  0  0  0  0  0
   -3.9150    9.9893    0.0000 C   0  0  0  0  0  0  0  0  0  0  0  0
   -3.2236   11.3204    0.0000 C   0  0  0  0  0  0  0  0  0  0  0  0
   -4.0308   12.5847    0.0000 C   0  0  0  0  0  0  0  0  0  0  0  0
   -2.1187   12.3349    0.0000 C   0  0  0  0  0  0  0  0  0  0  0  0
   -4.5922    8.5092    0.0000 C   0  0  0  0  0  0  0  0  0  0  0  0
   -5.0268    9.9449    0.0000 O   0  0  0  0  0  0  0  0  0  0  0  0
   -5.9471    7.8655    0.0000 N   0  0  0  0  0  0  0  0  0  0  0  0
   -7.0520    6.8511    0.0000 C   0  0  0  0  0  0  0  0  0  0  0  0
   -8.5438    7.0083    0.0000 C   0  0  0  0  0  0  0  0  0  0  0  0
   -9.1535    8.3788    0.0000 C   0  0  0  0  0  0  0  0  0  0  0  0
   -7.8089    5.5560    0.0000 C   0  0  0  0  0  0  0  0  0  0  0  0
   -9.2023    6.1114    0.0000 O   0  0  0  0  0  0  0  0  0  0  0  0
   -8.1504    4.0954    0.0000 N   0  0  0  0  0  0  0  0  0  0  0  0
   -8.0462    2.5990    0.0000 C   0  0  0  0  0  0  0  0  0  0  0  0
   -7.5056    1.1998    0.0000 C   0  0  0  0  0  0  0  0  0  0  0  0
   -6.5765    0.0222    0.0000 C   0  0  0  0  0  0  0  0  0  0  0  0
   -5.3416   -0.8293    0.0000 C   0  0  0  0  0  0  0  0  0  0  0  0
   -3.9106   -1.2790    0.0000 C   0  0  0  0  0  0  0  0  0  0  0  0
   -9.4530    3.1195    0.0000 C   0  0  0  0  0  0  0  0  0  0  0  0
   -9.0992    1.5308    0.0000 C   0  0  0  0  0  0  0  0  0  0  0  0
   -9.0623    0.0312    0.0000 O   0  0  0  0  0  0  0  0  0  0  0  0
  -10.5508    1.9086    0.0000 N   0  0  0  0  0  0  0  0  0  0  0  0
  -11.6039    0.8403    0.0000 C   0  0  0  0  0  0  0  0  0  0  0  0
  -12.2280   -0.5237    0.0000 C   0  0  0  0  0  0  0  0  0  0  0  0
  -13.6929   -0.8461    0.0000 C   0  0  0  0  0  0  0  0  0  0  0  0
  -12.3480   -2.0189    0.0000 C   0  0  0  0  0  0  0  0  0  0  0  0
  -11.1131   -2.8704    0.0000 C   0  0  0  0  0  0  0  0  0  0  0  0
  -13.0555    1.2181    0.0000 C   0  0  0  0  0  0  0  0  0  0  0  0
  -13.4541    2.6642    0.0000 O   0  0  0  0  0  0  0  0  0  0  0  0
  -14.1085    0.1499    0.0000 N   0  0  0  0  0  0  0  0  0  0  0  0
  -15.5601    0.5277    0.0000 C   0  0  0  0  0  0  0  0  0  0  0  0
  -16.7950    1.3792    0.0000 C   0  0  0  0  0  0  0  0  0  0  0  0
  -18.1898    1.9311    0.0000 O   0  0  0  0  0  0  0  0  0  0  0  0
  -16.6750    2.8744    0.0000 C   0  0  0  0  0  0  0  0  0  0  0  0
  -16.6132   -0.5406    0.0000 C   0  0  0  0  0  0  0  0  0  0  0  0
  -16.2145   -1.9866    0.0000 O   0  0  0  0  0  0  0  0  0  0  0  0
  -18.0648   -0.1628    0.0000 N   0  0  0  0  0  0  0  0  0  0  0  0
  -19.1178   -1.2310    0.0000 C   0  0  0  0  0  0  0  0  0  0  0  0
  -19.7419   -2.5950    0.0000 C   0  0  0  0  0  0  0  0  0  0  0  0
  -21.2353   -2.7365    0.0000 C   0  0  0  0  0  0  0  0  0  0  0  0
  -21.8594   -4.1005    0.0000 C   0  0  0  0  0  0  0  0  0  0  0  0
  -23.3243   -4.4229    0.0000 N   0  0  0  0  0  0  0  0  0  0  0  0
  -20.9902   -5.3230    0.0000 O   0  0  0  0  0  0  0  0  0  0  0  0
  -20.5694   -0.8532    0.0000 C   0  0  0  0  0  0  0  0  0  0  0  0
  -20.9681    0.5928    0.0000 O   0  0  0  0  0  0  0  0  0  0  0  0
  -21.6225   -1.9215    0.0000 N   0  0  0  0  0  0  0  0  0  0  0  0
  -23.0741   -1.5437    0.0000 C   0  0  0  0  0  0  0  0  0  0  0  0
  -24.3090   -0.6922    0.0000 C   0  0  0  0  0  0  0  0  0  0  0  0
  -24.1890    0.8030    0.0000 C   0  0  0  0  0  0  0  0  0  0  0  0
  -25.4239    1.6545    0.0000 N   0  0  0  0  0  0  0  0  0  0  0  0
  -22.8341    1.4467    0.0000 O   0  0  0  0  0  0  0  0  0  0  0  0
  -24.1271   -2.6119    0.0000 C   0  0  0  0  0  0  0  0  0  0  0  0
  -23.9077   -4.0958    0.0000 O   0  0  0  0  0  0  0  0  0  0  0  0
  -25.5787   -2.2341    0.0000 N   0  0  0  0  0  0  0  0  0  0  0  0
  -26.6318   -3.3024    0.0000 C   0  0  0  0  0  0  0  0  0  0  0  0
  -27.2559   -4.6664    0.0000 C   0  0  0  0  0  0  0  0  0  0  0  0
  -28.7492   -4.8078    0.0000 C   0  0  0  0  0  0  0  0  0  0  0  0
  -29.3733   -6.1718    0.0000 C   0  0  0  0  0  0  0  0  0  0  0  0
  -30.8383   -6.4943    0.0000 N   0  0  0  0  0  0  0  0  0  0  0  0
  -28.5042   -7.3943    0.0000 O   0  0  0  0  0  0  0  0  0  0  0  0
  -28.0834   -2.9246    0.0000 C   0  0  0  0  0  0  0  0  0  0  0  0
  -28.4820   -1.4785    0.0000 O   0  0  0  0  0  0  0  0  0  0  0  0
  -29.1364   -3.9928    0.0000 N   0  0  0  0  0  0  0  0  0  0  0  0
  -30.5880   -3.6150    0.0000 C   0  0  0  0  0  0  0  0  0  0  0  0
  -31.8229   -2.7635    0.0000 C   0  0  0  0  0  0  0  0  0  0  0  0
  -31.7029   -1.2683    0.0000 C   0  0  0  0  0  0  0  0  0  0  0  0
  -32.9378   -0.4168    0.0000 C   0  0  0  0  0  0  0  0  0  0  0  0
  -32.8178    1.0784    0.0000 C   0  0  0  0  0  0  0  0  0  0  0  0
  -34.0527    1.9299    0.0000 N   0  0  0  0  0  0  0  0  0  0  0  0
  -31.6411   -4.6833    0.0000 C   0  0  0  0  0  0  0  0  0  0  0  0
  -31.4217   -6.1672    0.0000 O   0  0  0  0  0  0  0  0  0  0  0  0
  -33.0927   -4.3055    0.0000 N   0  0  0  0  0  0  0  0  0  0  0  0
  -34.1457   -5.3738    0.0000 C   0  0  0  0  0  0  0  0  0  0  0  0
  -34.5989   -6.8036    0.0000 C   0  0  0  0  0  0  0  0  0  0  0  0
  -35.5973   -4.9959    0.0000 C   0  0  0  0  0  0  0  0  0  0  0  0
  -35.9960   -3.5499    0.0000 O   0  0  0  0  0  0  0  0  0  0  0  0
  -36.6504   -6.0642    0.0000 N   0  0  0  0  0  0  0  0  0  0  0  0
  -36.4051   -7.5440    0.0000 C   0  0  0  0  0  0  0  0  0  0  0  0
  -37.7366   -8.2346    0.0000 C   0  0  0  0  0  0  0  0  0  0  0  0
  -38.8049   -7.1816    0.0000 C   0  0  0  0  0  0  0  0  0  0  0  0
  -38.1335   -5.8402    0.0000 C   0  0  0  0  0  0  0  0  0  0  0  0
  -39.5377   -5.3127    0.0000 C   0  0  0  0  0  0  0  0  0  0  0  0
  -40.8041   -6.1167    0.0000 O   0  0  0  0  0  0  0  0  0  0  0  0
  -39.7830   -3.8329    0.0000 N   0  0  0  0  0  0  0  0  0  0  0  0
  -41.1872   -3.3055    0.0000 C   0  0  0  0  0  0  0  0  0  0  0  0
  -42.6872   -3.2901    0.0000 C   0  0  0  0  0  0  0  0  0  0  0  0
  -43.4238   -1.9834    0.0000 C   0  0  0  0  0  0  0  0  0  0  0  0
  -44.9237   -1.9680    0.0000 C   0  0  0  0  0  0  0  0  0  0  0  0
  -43.6691   -0.5036    0.0000 C   0  0  0  0  0  0  0  0  0  0  0  0
  -41.4325   -1.8256    0.0000 C   0  0  0  0  0  0  0  0  0  0  0  0
  -42.7620   -1.1309    0.0000 O   0  0  0  0  0  0  0  0  0  0  0  0
  -40.2736   -0.8733    0.0000 O   0  0  0  0  0  0  0  0  0  0  0  0
   41.6070   -2.4194    0.0000 H   0  0  0  0  0  0  0  0  0  0  0  0
   40.9841   -6.8686    0.0000 H   0  0  0  0  0  0  0  0  0  0  0  0
   43.2720   -8.8090    0.0000 H   0  0  0  0  0  0  0  0  0  0  0  0
   43.9800   -2.8847    0.0000 H   0  0  0  0  0  0  0  0  0  0  0  0
   51.1283   -2.4207    0.0000 H   0  0  0  0  0  0  0  0  0  0  0  0
   51.2823   -7.6145    0.0000 H   0  0  0  0  0  0  0  0  0  0  0  0
   48.2836   -7.7034    0.0000 H   0  0  0  0  0  0  0  0  0  0  0  0
   53.4928   -6.2494    0.0000 H   0  0  0  0  0  0  0  0  0  0  0  0
   43.7086   -5.2398    0.0000 H   0  0  0  0  0  0  0  0  0  0  0  0
   42.1381   -2.5042    0.0000 H   0  0  0  0  0  0  0  0  0  0  0  0
   46.5534    0.0430    0.0000 H   0  0  0  0  0  0  0  0  0  0  0  0
   44.2659    1.2748    0.0000 H   0  0  0  0  0  0  0  0  0  0  0  0
   39.2327   -1.9765    0.0000 H   0  0  0  0  0  0  0  0  0  0  0  0
   36.3981   -4.9160    0.0000 H   0  0  0  0  0  0  0  0  0  0  0  0
   38.2954   -5.2609    0.0000 H   0  0  0  0  0  0  0  0  0  0  0  0
   35.6651   -1.6847    0.0000 H   0  0  0  0  0  0  0  0  0  0  0  0
   37.5624   -2.0295    0.0000 H   0  0  0  0  0  0  0  0  0  0  0  0
   34.1204   -1.0472    0.0000 H   0  0  0  0  0  0  0  0  0  0  0  0
   33.1830   -4.3316    0.0000 H   0  0  0  0  0  0  0  0  0  0  0  0
   30.5289   -5.2817    0.0000 H   0  0  0  0  0  0  0  0  0  0  0  0
   32.4297   -4.9569    0.0000 H   0  0  0  0  0  0  0  0  0  0  0  0
   28.7248   -4.4243    0.0000 H   0  0  0  0  0  0  0  0  0  0  0  0
   29.4375   -3.9960    0.0000 H   0  0  0  0  0  0  0  0  0  0  0  0
   30.0020   -0.7834    0.0000 H   0  0  0  0  0  0  0  0  0  0  0  0
   26.6449   -0.9411    0.0000 H   0  0  0  0  0  0  0  0  0  0  0  0
   26.9390    2.1770    0.0000 H   0  0  0  0  0  0  0  0  0  0  0  0
   28.1747    2.3882    0.0000 H   0  0  0  0  0  0  0  0  0  0  0  0
   29.9076    1.9625    0.0000 H   0  0  0  0  0  0  0  0  0  0  0  0
   30.0071    0.1808    0.0000 H   0  0  0  0  0  0  0  0  0  0  0  0
   26.2699    0.3685    0.0000 H   0  0  0  0  0  0  0  0  0  0  0  0
   25.5144   -2.9376    0.0000 H   0  0  0  0  0  0  0  0  0  0  0  0
   22.1173   -2.6111    0.0000 H   0  0  0  0  0  0  0  0  0  0  0  0
   22.8603   -3.8878    0.0000 H   0  0  0  0  0  0  0  0  0  0  0  0
   24.7611   -3.5630    0.0000 H   0  0  0  0  0  0  0  0  0  0  0  0
   21.7689   -2.6021    0.0000 H   0  0  0  0  0  0  0  0  0  0  0  0
   22.3335    0.6105    0.0000 H   0  0  0  0  0  0  0  0  0  0  0  0
   19.1841    2.0735    0.0000 H   0  0  0  0  0  0  0  0  0  0  0  0
   18.9763    0.4529    0.0000 H   0  0  0  0  0  0  0  0  0  0  0  0
   22.3386    1.5748    0.0000 H   0  0  0  0  0  0  0  0  0  0  0  0
   20.9351    5.0789    0.0000 H   0  0  0  0  0  0  0  0  0  0  0  0
   19.1978    4.6715    0.0000 H   0  0  0  0  0  0  0  0  0  0  0  0
   19.0794    2.8910    0.0000 H   0  0  0  0  0  0  0  0  0  0  0  0
   22.1684    4.8547    0.0000 H   0  0  0  0  0  0  0  0  0  0  0  0
   23.6512    3.8620    0.0000 H   0  0  0  0  0  0  0  0  0  0  0  0
   22.9821    2.0534    0.0000 H   0  0  0  0  0  0  0  0  0  0  0  0
   18.6013    1.7624    0.0000 H   0  0  0  0  0  0  0  0  0  0  0  0
   17.8459   -1.5436    0.0000 H   0  0  0  0  0  0  0  0  0  0  0  0
   15.3552   -2.5764    0.0000 H   0  0  0  0  0  0  0  0  0  0  0  0
   17.0926   -2.1690    0.0000 H   0  0  0  0  0  0  0  0  0  0  0  0
   13.3978    0.2919    0.0000 H   0  0  0  0  0  0  0  0  0  0  0  0
   14.6019    0.8205    0.0000 H   0  0  0  0  0  0  0  0  0  0  0  0
   12.6308   -2.9315    0.0000 H   0  0  0  0  0  0  0  0  0  0  0  0
   14.4048   -2.7389    0.0000 H   0  0  0  0  0  0  0  0  0  0  0  0
   11.3779    0.2575    0.0000 H   0  0  0  0  0  0  0  0  0  0  0  0
    8.2657   -2.5117    0.0000 H   0  0  0  0  0  0  0  0  0  0  0  0
    9.9252   -4.5107    0.0000 H   0  0  0  0  0  0  0  0  0  0  0  0
   12.4862   -4.0731    0.0000 H   0  0  0  0  0  0  0  0  0  0  0  0
   13.9291   -1.1431    0.0000 H   0  0  0  0  0  0  0  0  0  0  0  0
   14.6649    2.0045    0.0000 H   0  0  0  0  0  0  0  0  0  0  0  0
   11.6423    3.5996    0.0000 H   0  0  0  0  0  0  0  0  0  0  0  0
   11.3078    1.8468    0.0000 H   0  0  0  0  0  0  0  0  0  0  0  0
   14.5704    4.7504    0.0000 H   0  0  0  0  0  0  0  0  0  0  0  0
   14.6700    2.9687    0.0000 H   0  0  0  0  0  0  0  0  0  0  0  0
   10.4301    6.4061    0.0000 H   0  0  0  0  0  0  0  0  0  0  0  0
   10.9328    3.1564    0.0000 H   0  0  0  0  0  0  0  0  0  0  0  0
   10.1773   -0.1497    0.0000 H   0  0  0  0  0  0  0  0  0  0  0  0
    7.6867   -1.1825    0.0000 H   0  0  0  0  0  0  0  0  0  0  0  0
    9.5337   -0.6284    0.0000 H   0  0  0  0  0  0  0  0  0  0  0  0
    6.9333    2.2144    0.0000 H   0  0  0  0  0  0  0  0  0  0  0  0
    4.2192   -0.2608    0.0000 H   0  0  0  0  0  0  0  0  0  0  0  0
    4.9622   -1.5375    0.0000 H   0  0  0  0  0  0  0  0  0  0  0  0
    6.7362   -1.3449    0.0000 H   0  0  0  0  0  0  0  0  0  0  0  0
    5.6324    3.1828    0.0000 H   0  0  0  0  0  0  0  0  0  0  0  0
    4.2383    1.8505    0.0000 H   0  0  0  0  0  0  0  0  0  0  0  0
    4.8202    0.4927    0.0000 H   0  0  0  0  0  0  0  0  0  0  0  0
    6.2606    0.2509    0.0000 H   0  0  0  0  0  0  0  0  0  0  0  0
    6.9963    3.3984    0.0000 H   0  0  0  0  0  0  0  0  0  0  0  0
    3.6392    3.2408    0.0000 H   0  0  0  0  0  0  0  0  0  0  0  0
    5.1825    6.5879    0.0000 H   0  0  0  0  0  0  0  0  0  0  0  0
    6.9019    6.1443    0.0000 H   0  0  0  0  0  0  0  0  0  0  0  0
    7.0014    4.3627    0.0000 H   0  0  0  0  0  0  0  0  0  0  0  0
    2.7201    5.8515    0.0000 H   0  0  0  0  0  0  0  0  0  0  0  0
    2.9379    3.6682    0.0000 H   0  0  0  0  0  0  0  0  0  0  0  0
    3.2400    7.5554    0.0000 H   0  0  0  0  0  0  0  0  0  0  0  0
    4.8720    7.6323    0.0000 H   0  0  0  0  0  0  0  0  0  0  0  0
    5.6061    6.1726    0.0000 H   0  0  0  0  0  0  0  0  0  0  0  0
    3.2642    4.5503    0.0000 H   0  0  0  0  0  0  0  0  0  0  0  0
    2.7057    1.0375    0.0000 H   0  0  0  0  0  0  0  0  0  0  0  0
    1.8875   -0.1846    0.0000 H   0  0  0  0  0  0  0  0  0  0  0  0
    1.5859   -0.7318    0.0000 H   0  0  0  0  0  0  0  0  0  0  0  0
    0.6998   -1.4507    0.0000 H   0  0  0  0  0  0  0  0  0  0  0  0
    0.1951   -1.7909    0.0000 H   0  0  0  0  0  0  0  0  0  0  0  0
   -1.1694   -2.3397    0.0000 H   0  0  0  0  0  0  0  0  0  0  0  0
   -2.1949   -2.7713    0.0000 H   0  0  0  0  0  0  0  0  0  0  0  0
    2.7909   -0.0571    0.0000 H   0  0  0  0  0  0  0  0  0  0  0  0
    3.9270    0.5373    0.0000 H   0  0  0  0  0  0  0  0  0  0  0  0
    3.9277    2.4657    0.0000 H   0  0  0  0  0  0  0  0  0  0  0  0
    2.8824    6.2137    0.0000 H   0  0  0  0  0  0  0  0  0  0  0  0
    2.3097    6.9510    0.0000 H   0  0  0  0  0  0  0  0  0  0  0  0
    2.2430    9.3967    0.0000 H   0  0  0  0  0  0  0  0  0  0  0  0
    2.7514    7.8439    0.0000 H   0  0  0  0  0  0  0  0  0  0  0  0
   -0.9004   10.2378    0.0000 H   0  0  0  0  0  0  0  0  0  0  0  0
   -0.8810    8.4535    0.0000 H   0  0  0  0  0  0  0  0  0  0  0  0
    2.7573   12.4869    0.0000 H   0  0  0  0  0  0  0  0  0  0  0  0
   -1.3539    9.9687    0.0000 H   0  0  0  0  0  0  0  0  0  0  0  0
   -2.1404    9.8713    0.0000 H   0  0  0  0  0  0  0  0  0  0  0  0
   -5.2082   10.7493    0.0000 H   0  0  0  0  0  0  0  0  0  0  0  0
   -5.2326    9.2723    0.0000 H   0  0  0  0  0  0  0  0  0  0  0  0
   -1.9304   10.5604    0.0000 H   0  0  0  0  0  0  0  0  0  0  0  0
   -3.5069   13.9903    0.0000 H   0  0  0  0  0  0  0  0  0  0  0  0
   -5.2217   13.4967    0.0000 H   0  0  0  0  0  0  0  0  0  0  0  0
   -5.2511   11.7126    0.0000 H   0  0  0  0  0  0  0  0  0  0  0  0
   -2.2638   13.8278    0.0000 H   0  0  0  0  0  0  0  0  0  0  0  0
   -0.7334   12.9102    0.0000 H   0  0  0  0  0  0  0  0  0  0  0  0
   -1.3115   11.0706    0.0000 H   0  0  0  0  0  0  0  0  0  0  0  0
   -6.7855    9.1093    0.0000 H   0  0  0  0  0  0  0  0  0  0  0  0
   -7.3451    8.3222    0.0000 H   0  0  0  0  0  0  0  0  0  0  0  0
   -9.9993    6.6458    0.0000 H   0  0  0  0  0  0  0  0  0  0  0  0
   -8.8048    5.5312    0.0000 H   0  0  0  0  0  0  0  0  0  0  0  0
  -10.6452    8.5360    0.0000 H   0  0  0  0  0  0  0  0  0  0  0  0
   -9.2577    9.8752    0.0000 H   0  0  0  0  0  0  0  0  0  0  0  0
   -7.7530    8.9160    0.0000 H   0  0  0  0  0  0  0  0  0  0  0  0
   -9.6456    4.2154    0.0000 H   0  0  0  0  0  0  0  0  0  0  0  0
   -8.1969   -0.1313    0.0000 H   0  0  0  0  0  0  0  0  0  0  0  0
   -8.9788    0.9177    0.0000 H   0  0  0  0  0  0  0  0  0  0  0  0
   -7.0227   -1.4099    0.0000 H   0  0  0  0  0  0  0  0  0  0  0  0
   -7.9011   -0.6817    0.0000 H   0  0  0  0  0  0  0  0  0  0  0  0
   -5.1630   -2.3187    0.0000 H   0  0  0  0  0  0  0  0  0  0  0  0
   -6.5216   -1.7555    0.0000 H   0  0  0  0  0  0  0  0  0  0  0  0
   -4.1420   -2.7611    0.0000 H   0  0  0  0  0  0  0  0  0  0  0  0
  -10.8047    2.4691    0.0000 H   0  0  0  0  0  0  0  0  0  0  0  0
  -10.4702    4.2219    0.0000 H   0  0  0  0  0  0  0  0  0  0  0  0
   -9.0320    4.5592    0.0000 H   0  0  0  0  0  0  0  0  0  0  0  0
  -11.1228    3.2953    0.0000 H   0  0  0  0  0  0  0  0  0  0  0  0
  -10.3690   -0.0112    0.0000 H   0  0  0  0  0  0  0  0  0  0  0  0
  -10.7411   -0.7217    0.0000 H   0  0  0  0  0  0  0  0  0  0  0  0
  -14.5071   -1.9429    0.0000 H   0  0  0  0  0  0  0  0  0  0  0  0
  -15.1729   -0.2873    0.0000 H   0  0  0  0  0  0  0  0  0  0  0  0
  -14.3175    0.7113    0.0000 H   0  0  0  0  0  0  0  0  0  0  0  0
  -12.9721   -3.3828    0.0000 H   0  0  0  0  0  0  0  0  0  0  0  0
  -13.8479   -2.0035    0.0000 H   0  0  0  0  0  0  0  0  0  0  0  0
  -11.2331   -4.3656    0.0000 H   0  0  0  0  0  0  0  0  0  0  0  0
   -9.6615   -3.2482    0.0000 H   0  0  0  0  0  0  0  0  0  0  0  0
  -10.3274   -1.5926    0.0000 H   0  0  0  0  0  0  0  0  0  0  0  0
  -14.0716   -1.3497    0.0000 H   0  0  0  0  0  0  0  0  0  0  0  0
  -14.7744    1.8054    0.0000 H   0  0  0  0  0  0  0  0  0  0  0  0
  -17.7307    0.2068    0.0000 H   0  0  0  0  0  0  0  0  0  0  0  0
  -18.8186    3.1437    0.0000 H   0  0  0  0  0  0  0  0  0  0  0  0
  -17.7969    3.8701    0.0000 H   0  0  0  0  0  0  0  0  0  0  0  0
  -16.0509    4.2384    0.0000 H   0  0  0  0  0  0  0  0  0  0  0  0
  -15.1882    2.6763    0.0000 H   0  0  0  0  0  0  0  0  0  0  0  0
  -18.6367    1.2239    0.0000 H   0  0  0  0  0  0  0  0  0  0  0  0
  -17.8829   -2.0825    0.0000 H   0  0  0  0  0  0  0  0  0  0  0  0
  -19.8619   -4.0902    0.0000 H   0  0  0  0  0  0  0  0  0  0  0  0
  -18.2903   -2.9728    0.0000 H   0  0  0  0  0  0  0  0  0  0  0  0
  -22.6869   -2.3587    0.0000 H   0  0  0  0  0  0  0  0  0  0  0  0
  -21.8314   -1.3600    0.0000 H   0  0  0  0  0  0  0  0  0  0  0  0
  -23.9768   -5.6059    0.0000 H   0  0  0  0  0  0  0  0  0  0  0  0
  -24.5348   -3.2783    0.0000 H   0  0  0  0  0  0  0  0  0  0  0  0
  -21.5856   -3.4210    0.0000 H   0  0  0  0  0  0  0  0  0  0  0  0
  -22.4500   -0.1797    0.0000 H   0  0  0  0  0  0  0  0  0  0  0  0
  -25.7037   -0.1402    0.0000 H   0  0  0  0  0  0  0  0  0  0  0  0
  -25.2446   -1.8646    0.0000 H   0  0  0  0  0  0  0  0  0  0  0  0
  -25.3039    3.1497    0.0000 H   0  0  0  0  0  0  0  0  0  0  0  0
  -26.7787    1.0108    0.0000 H   0  0  0  0  0  0  0  0  0  0  0  0
  -26.1507   -0.8475    0.0000 H   0  0  0  0  0  0  0  0  0  0  0  0
  -25.3969   -4.1539    0.0000 H   0  0  0  0  0  0  0  0  0  0  0  0
  -27.3759   -6.1616    0.0000 H   0  0  0  0  0  0  0  0  0  0  0  0
  -25.8043   -5.0442    0.0000 H   0  0  0  0  0  0  0  0  0  0  0  0
  -30.2009   -4.4300    0.0000 H   0  0  0  0  0  0  0  0  0  0  0  0
  -29.3454   -3.4314    0.0000 H   0  0  0  0  0  0  0  0  0  0  0  0
  -31.4908   -7.6773    0.0000 H   0  0  0  0  0  0  0  0  0  0  0  0
  -32.0488   -5.3497    0.0000 H   0  0  0  0  0  0  0  0  0  0  0  0
  -29.0995   -5.4924    0.0000 H   0  0  0  0  0  0  0  0  0  0  0  0
  -29.8023   -2.3373    0.0000 H   0  0  0  0  0  0  0  0  0  0  0  0
  -33.2746   -2.3857    0.0000 H   0  0  0  0  0  0  0  0  0  0  0  0
  -32.7586   -3.9360    0.0000 H   0  0  0  0  0  0  0  0  0  0  0  0
  -30.9172    0.0094    0.0000 H   0  0  0  0  0  0  0  0  0  0  0  0
  -30.2161   -1.4664    0.0000 H   0  0  0  0  0  0  0  0  0  0  0  0
  -34.3895   -0.0390    0.0000 H   0  0  0  0  0  0  0  0  0  0  0  0
  -33.7236   -1.6946    0.0000 H   0  0  0  0  0  0  0  0  0  0  0  0
  -32.1937    2.4423    0.0000 H   0  0  0  0  0  0  0  0  0  0  0  0
  -31.3310    0.8803    0.0000 H   0  0  0  0  0  0  0  0  0  0  0  0
  -33.9327    3.4251    0.0000 H   0  0  0  0  0  0  0  0  0  0  0  0
  -35.4076    1.2862    0.0000 H   0  0  0  0  0  0  0  0  0  0  0  0
  -33.6646   -2.9188    0.0000 H   0  0  0  0  0  0  0  0  0  0  0  0
  -32.9108   -6.2253    0.0000 H   0  0  0  0  0  0  0  0  0  0  0  0
  -36.0219   -7.5639    0.0000 H   0  0  0  0  0  0  0  0  0  0  0  0
  -34.8898   -8.2329    0.0000 H   0  0  0  0  0  0  0  0  0  0  0  0
  -33.3182   -7.1155    0.0000 H   0  0  0  0  0  0  0  0  0  0  0  0
  -34.9212   -7.3246    0.0000 H   0  0  0  0  0  0  0  0  0  0  0  0
  -35.8575   -8.9405    0.0000 H   0  0  0  0  0  0  0  0  0  0  0  0
  -36.9107   -9.4867    0.0000 H   0  0  0  0  0  0  0  0  0  0  0  0
  -38.8955   -9.1869    0.0000 H   0  0  0  0  0  0  0  0  0  0  0  0
  -39.7405   -8.3541    0.0000 H   0  0  0  0  0  0  0  0  0  0  0  0
  -40.1578   -6.5338    0.0000 H   0  0  0  0  0  0  0  0  0  0  0  0
  -37.7557   -4.3886    0.0000 H   0  0  0  0  0  0  0  0  0  0  0  0
  -38.6241   -2.8806    0.0000 H   0  0  0  0  0  0  0  0  0  0  0  0
  -41.4629   -4.7799    0.0000 H   0  0  0  0  0  0  0  0  0  0  0  0
  -44.0306   -3.9573    0.0000 H   0  0  0  0  0  0  0  0  0  0  0  0
  -42.4419   -4.7699    0.0000 H   0  0  0  0  0  0  0  0  0  0  0  0
  -42.2817   -1.0109    0.0000 H   0  0  0  0  0  0  0  0  0  0  0  0
  -45.8141   -0.7609    0.0000 H   0  0  0  0  0  0  0  0  0  0  0  0
  -46.3384   -2.4665    0.0000 H   0  0  0  0  0  0  0  0  0  0  0  0
  -44.8606   -3.4667    0.0000 H   0  0  0  0  0  0  0  0  0  0  0  0
  -44.9985    0.1911    0.0000 H   0  0  0  0  0  0  0  0  0  0  0  0
  -43.3934    0.9709    0.0000 H   0  0  0  0  0  0  0  0  0  0  0  0
  -42.1692   -0.5190    0.0000 H   0  0  0  0  0  0  0  0  0  0  0  0
  -40.5189    0.6065    0.0000 H   0  0  0  0  0  0  0  0  0  0  0  0
  1  2  1  0
  2  3  1  0
  3  4  2  0
  4  5  1  0
  5  6  2  0
  6  7  1  0
  7  8  2  0
  7  9  1  0
  9 10  1  0
 10 11  1  0
 11 12  2  0
  9 13  1  0
 13 14  1  0
 14 15  2  0
 15 16  1  0
 16 17  2  0
 17 18  1  0
 16 19  1  0
 14 20  1  0
 20 21  1  0
 21 22  2  0
 22 23  1  0
 23 24  2  0
 24 25  1  0
 25 26  2  0
 25 27  1  0
  1 28  2  0
  1 29  1  0
 29 30  1  0
 30 31  1  0
 31 32  1  0
 32 33  2  0
 32 34  1  0
 34 35  1  0
 35 36  1  0
 36 37  1  0
 35 38  1  0
 38 39  2  0
 38 40  1  0
 40 41  1  0
 41 42  1  0
 42 43  1  0
 42 44  1  0
 41 45  1  0
 45 46  2  0
 45 47  1  0
 47 48  1  0
 48 49  1  0
 48 50  1  0
 50 51  2  0
 50 52  1  0
 52 53  1  0
 53 54  1  0
 54 55  1  0
 55 56  1  0
 55 57  1  0
 53 58  1  0
 58 59  2  0
 58 60  1  0
 60 61  1  0
 61 62  1  0
 62 63  1  0
 63 64  1  0
 64 65  1  0
 65 66  1  0
 66 67  2  3
 66 68  1  0
 61 69  1  0
 69 70  2  0
 69 71  1  0
 71 72  1  0
 72 73  1  0
 73 74  1  0
 74 75  1  0
 75 76  2  0
 75 77  1  0
 72 78  1  0
 78 79  2  0
 78 80  1  0
 80 81  1  0
 81 82  1  0
 82 83  1  0
 83 84  1  0
 83 85  1  0
 81 86  1  0
 86 87  2  0
 86 88  1  0
 88 89  1  0
 89 90  1  0
 90 91  1  0
 90 92  1  0
 92 93  1  0
 89 94  1  0
 94 95  2  0
 94 96  1  0
 97 96  1  1
 97 98  1  0
 98 99  1  0
 99100  1  0
100101  1  0
 97102  1  0
 97103  1  0
103104  2  0
103105  1  0
105106  1  0
106107  1  0
107108  1  0
108109  1  0
109110  2  0
109111  1  0
106112  1  0
112113  2  0
112114  1  0
114115  1  0
115116  1  0
116117  1  0
117118  1  0
117119  1  0
115120  1  0
120121  2  0
120122  1  0
122123  1  0
123124  1  0
124125  1  0
123126  1  0
126127  2  0
126128  1  0
128129  1  0
129130  1  0
130131  1  0
131132  1  0
132133  1  0
129134  1  0
129135  1  1
135136  2  0
135137  1  0
137138  1  0
138139  1  0
139140  1  0
139141  1  0
141142  1  0
138143  1  0
143144  2  0
143145  1  0
145146  1  0
146147  1  0
147148  1  0
147149  1  0
146150  1  0
150151  2  0
150152  1  0
152153  1  0
153154  1  0
154155  1  0
155156  1  0
156157  1  0
156158  2  0
153159  1  0
159160  2  0
159161  1  0
161162  1  0
162163  1  0
163164  1  0
164165  1  0
164166  2  0
162167  1  0
167168  2  0
167169  1  0
169170  1  0
170171  1  0
171172  1  0
172173  1  0
173174  1  0
173175  2  0
170176  1  0
176177  2  0
176178  1  0
178179  1  0
179180  1  0
180181  1  0
181182  1  0
182183  1  0
183184  1  0
179185  1  0
185186  2  0
185187  1  0
187188  1  0
188189  1  0
188190  1  0
190191  2  0
190192  1  0
192193  1  0
193194  1  0
194195  1  0
195196  1  0
196197  1  0
197198  2  0
197199  1  0
199200  1  0
200201  1  0
201202  1  0
202203  1  0
202204  1  0
200205  1  0
205206  2  0
205207  1  0
  8  3  1  0
196192  1  0
 11  6  1  0
101133  2  0
 18 13  2  0
 22  9  1  0
 26 21  1  0
  2208  1  0
  4209  1  0
  5210  1  0
  8211  1  0
 15212  1  0
 17213  1  0
 18214  1  0
 19215  1  0
 23216  1  0
 24217  1  0
 26218  1  0
 27219  1  0
 29220  1  0
 30221  1  0
 30222  1  0
 31223  1  0
 31224  1  0
 34225  1  0
 35226  1  1
 36227  1  0
 36228  1  0
 37229  1  0
 40230  1  0
 41231  1  6
 42232  1  1
 43233  1  0
 44234  1  0
 44235  1  0
 44236  1  0
 47237  1  0
 48238  1  1
 49239  1  0
 49240  1  0
 49241  1  0
 52242  1  0
 53243  1  6
 54244  1  0
 54245  1  0
 55246  1  0
 56247  1  0
 56248  1  0
 56249  1  0
 57250  1  0
 57251  1  0
 57252  1  0
 60253  1  0
 61254  1  1
 62255  1  0
 62256  1  0
 63257  1  0
 63258  1  0
 64259  1  0
 64260  1  0
 65261  1  0
 67262  1  0
 68263  1  0
 68264  1  0
 71265  1  0
 72266  1  6
 73267  1  0
 73268  1  0
 74269  1  0
 74270  1  0
 77271  1  0
 80272  1  0
 81273  1  1
 82274  1  0
 82275  1  0
 83276  1  0
 84277  1  0
 84278  1  0
 84279  1  0
 85280  1  0
 85281  1  0
 85282  1  0
 88283  1  0
 89284  1  6
 90285  1  1
 91286  1  0
 91287  1  0
 91288  1  0
 92289  1  0
 92290  1  0
 93291  1  0
 93292  1  0
 93293  1  0
 96294  1  0
 98295  1  0
 98296  1  0
 99297  1  0
 99298  1  0
100299  1  0
100300  1  0
101301  1  0
102302  1  0
102303  1  0
102304  1  0
105305  1  0
106306  1  6
107307  1  0
107308  1  0
108309  1  0
108310  1  0
111311  1  0
114312  1  0
115313  1  6
116314  1  0
116315  1  0
117316  1  0
118317  1  0
118318  1  0
118319  1  0
119320  1  0
119321  1  0
119322  1  0
122323  1  0
123324  1  6
124325  1  0
124326  1  0
125327  1  0
125328  1  0
125329  1  0
128330  1  0
130331  1  0
130332  1  0
131333  1  0
131334  1  0
132335  1  0
132336  1  0
133337  1  0
134338  1  0
134339  1  0
134340  1  0
137341  1  0
138342  1  1
139343  1  1
140344  1  0
140345  1  0
140346  1  0
141347  1  0
141348  1  0
142349  1  0
142350  1  0
142351  1  0
145352  1  0
146353  1  6
147354  1  1
148355  1  0
149356  1  0
149357  1  0
149358  1  0
152359  1  0
153360  1  1
154361  1  0
154362  1  0
155363  1  0
155364  1  0
157365  1  0
157366  1  0
161367  1  0
162368  1  6
163369  1  0
163370  1  0
165371  1  0
165372  1  0
169373  1  0
170374  1  1
171375  1  0
171376  1  0
172377  1  0
172378  1  0
174379  1  0
174380  1  0
178381  1  0
179382  1  6
180383  1  0
180384  1  0
181385  1  0
181386  1  0
182387  1  0
182388  1  0
183389  1  0
183390  1  0
184391  1  0
184392  1  0
187393  1  0
188394  1  1
189395  1  0
189396  1  0
189397  1  0
193398  1  0
193399  1  0
194400  1  0
194401  1  0
195402  1  0
195403  1  0
196404  1  0
199405  1  0
200406  1  1
201407  1  0
201408  1  0
202409  1  0
203410  1  0
203411  1  0
203412  1  0
204413  1  0
204414  1  0
204415  1  0
207416  1  0
M  END
