
     RDKit          2D

299300  0  0  0  0  0  0  0  0999 V2000
  -28.1322   -4.7162    0.0000 N   0  0  0  0  0  0  0  0  0  0  0  0
  -26.7776   -4.0720    0.0000 C   0  0  0  0  0  0  0  0  0  0  0  0
  -25.5424   -4.9231    0.0000 C   0  0  0  0  0  0  0  0  0  0  0  0
  -24.1878   -4.2790    0.0000 C   0  0  0  0  0  0  0  0  0  0  0  0
  -24.2514   -2.7803    0.0000 O   0  0  0  0  0  0  0  0  0  0  0  0
  -22.9526   -5.1301    0.0000 N   0  0  0  0  0  0  0  0  0  0  0  0
  -21.5979   -4.4859    0.0000 C   0  0  0  0  0  0  0  0  0  0  0  0
  -21.1988   -5.9318    0.0000 C   0  0  0  0  0  0  0  0  0  0  0  0
  -22.3739   -6.8642    0.0000 C   0  0  0  0  0  0  0  0  0  0  0  0
  -20.3292   -7.1541    0.0000 C   0  0  0  0  0  0  0  0  0  0  0  0
  -20.7820   -8.5841    0.0000 C   0  0  0  0  0  0  0  0  0  0  0  0
  -20.5453   -3.4173    0.0000 C   0  0  0  0  0  0  0  0  0  0  0  0
  -19.0935   -3.7946    0.0000 O   0  0  0  0  0  0  0  0  0  0  0  0
  -20.9444   -1.9714    0.0000 N   0  0  0  0  0  0  0  0  0  0  0  0
  -19.8918   -0.9028    0.0000 C   0  0  0  0  0  0  0  0  0  0  0  0
  -21.1269   -0.0517    0.0000 C   0  0  0  0  0  0  0  0  0  0  0  0
  -22.4816   -0.6958    0.0000 C   0  0  0  0  0  0  0  0  0  0  0  0
  -23.7168    0.1553    0.0000 C   0  0  0  0  0  0  0  0  0  0  0  0
  -23.5342   -1.7644    0.0000 C   0  0  0  0  0  0  0  0  0  0  0  0
  -18.5371   -0.2586    0.0000 C   0  0  0  0  0  0  0  0  0  0  0  0
  -18.6008    1.2400    0.0000 O   0  0  0  0  0  0  0  0  0  0  0  0
  -17.3019   -1.1097    0.0000 N   0  0  0  0  0  0  0  0  0  0  0  0
  -15.9473   -0.4656    0.0000 C   0  0  0  0  0  0  0  0  0  0  0  0
  -16.8169    0.7566    0.0000 C   0  0  0  0  0  0  0  0  0  0  0  0
  -16.1932    2.1208    0.0000 C   0  0  0  0  0  0  0  0  0  0  0  0
  -17.0628    3.3431    0.0000 C   0  0  0  0  0  0  0  0  0  0  0  0
  -16.4391    4.7072    0.0000 C   0  0  0  0  0  0  0  0  0  0  0  0
  -17.3087    5.9295    0.0000 N   0  0  0  0  0  0  0  0  0  0  0  0
  -14.4540   -0.3236    0.0000 C   0  0  0  0  0  0  0  0  0  0  0  0
  -14.0013    1.1065    0.0000 O   0  0  0  0  0  0  0  0  0  0  0  0
  -13.5844   -1.5458    0.0000 N   0  0  0  0  0  0  0  0  0  0  0  0
  -12.0912   -1.4038    0.0000 C   0  0  0  0  0  0  0  0  0  0  0  0
  -12.4903    0.0421    0.0000 C   0  0  0  0  0  0  0  0  0  0  0  0
  -10.6394   -1.7811    0.0000 C   0  0  0  0  0  0  0  0  0  0  0  0
   -9.5868   -0.7125    0.0000 O   0  0  0  0  0  0  0  0  0  0  0  0
  -10.2403   -3.2271    0.0000 N   0  0  0  0  0  0  0  0  0  0  0  0
   -8.7885   -3.6044    0.0000 C   0  0  0  0  0  0  0  0  0  0  0  0
   -9.4122   -4.9686    0.0000 C   0  0  0  0  0  0  0  0  0  0  0  0
  -10.8770   -5.2915    0.0000 O   0  0  0  0  0  0  0  0  0  0  0  0
   -7.2952   -3.4624    0.0000 C   0  0  0  0  0  0  0  0  0  0  0  0
   -6.5811   -4.7815    0.0000 O   0  0  0  0  0  0  0  0  0  0  0  0
   -6.6716   -2.0982    0.0000 N   0  0  0  0  0  0  0  0  0  0  0  0
   -5.1783   -1.9562    0.0000 C   0  0  0  0  0  0  0  0  0  0  0  0
   -4.0838   -2.9819    0.0000 C   0  0  0  0  0  0  0  0  0  0  0  0
   -2.7356   -3.6394    0.0000 C   0  0  0  0  0  0  0  0  0  0  0  0
   -1.2534   -3.8703    0.0000 C   0  0  0  0  0  0  0  0  0  0  0  0
    0.2309   -3.6540    0.0000 C   0  0  0  0  0  0  0  0  0  0  0  0
   -5.8325   -3.3061    0.0000 C   0  0  0  0  0  0  0  0  0  0  0  0
   -5.9219   -0.6535    0.0000 C   0  0  0  0  0  0  0  0  0  0  0  0
   -7.3764   -1.0200    0.0000 O   0  0  0  0  0  0  0  0  0  0  0  0
   -6.2484    0.8105    0.0000 N   0  0  0  0  0  0  0  0  0  0  0  0
   -6.1290    2.3058    0.0000 C   0  0  0  0  0  0  0  0  0  0  0  0
   -7.5410    1.7997    0.0000 C   0  0  0  0  0  0  0  0  0  0  0  0
   -8.6853    2.7695    0.0000 C   0  0  0  0  0  0  0  0  0  0  0  0
  -10.0974    2.2635    0.0000 O   0  0  0  0  0  0  0  0  0  0  0  0
   -8.4175    4.2454    0.0000 O   0  0  0  0  0  0  0  0  0  0  0  0
   -5.5741    3.6993    0.0000 C   0  0  0  0  0  0  0  0  0  0  0  0
   -6.8694    4.4557    0.0000 O   0  0  0  0  0  0  0  0  0  0  0  0
   -4.6330    4.8675    0.0000 N   0  0  0  0  0  0  0  0  0  0  0  0
   -3.3895    5.7063    0.0000 C   0  0  0  0  0  0  0  0  0  0  0  0
   -4.6656    6.4948    0.0000 C   0  0  0  0  0  0  0  0  0  0  0  0
   -4.6208    7.9941    0.0000 C   0  0  0  0  0  0  0  0  0  0  0  0
   -3.2999    8.7050    0.0000 C   0  0  0  0  0  0  0  0  0  0  0  0
   -3.2551   10.2043    0.0000 C   0  0  0  0  0  0  0  0  0  0  0  0
   -4.5312   10.9928    0.0000 C   0  0  0  0  0  0  0  0  0  0  0  0
   -4.4864   12.4921    0.0000 O   0  0  0  0  0  0  0  0  0  0  0  0
   -5.8520   10.2819    0.0000 C   0  0  0  0  0  0  0  0  0  0  0  0
   -5.8968    8.7826    0.0000 C   0  0  0  0  0  0  0  0  0  0  0  0
   -1.9540    6.1414    0.0000 C   0  0  0  0  0  0  0  0  0  0  0  0
   -1.9877    7.6410    0.0000 O   0  0  0  0  0  0  0  0  0  0  0  0
   -0.4540    6.1339    0.0000 N   0  0  0  0  0  0  0  0  0  0  0  0
    0.9771    5.6847    0.0000 C   0  0  0  0  0  0  0  0  0  0  0  0
    0.7980    7.1740    0.0000 C   0  0  0  0  0  0  0  0  0  0  0  0
    2.0989    7.9208    0.0000 C   0  0  0  0  0  0  0  0  0  0  0  0
    0.1203    8.5122    0.0000 C   0  0  0  0  0  0  0  0  0  0  0  0
    0.9403    9.7682    0.0000 C   0  0  0  0  0  0  0  0  0  0  0  0
    2.2123    4.8336    0.0000 C   0  0  0  0  0  0  0  0  0  0  0  0
    3.2380    5.9282    0.0000 O   0  0  0  0  0  0  0  0  0  0  0  0
    3.1417    3.6563    0.0000 N   0  0  0  0  0  0  0  0  0  0  0  0
    3.6829    2.2573    0.0000 C   0  0  0  0  0  0  0  0  0  0  0  0
    3.7876    0.7610    0.0000 C   0  0  0  0  0  0  0  0  0  0  0  0
    3.4466   -0.6998    0.0000 C   0  0  0  0  0  0  0  0  0  0  0  0
    2.6902   -1.9951    0.0000 C   0  0  0  0  0  0  0  0  0  0  0  0
    1.5856   -3.0099    0.0000 C   0  0  0  0  0  0  0  0  0  0  0  0
    5.1427    1.9127    0.0000 C   0  0  0  0  0  0  0  0  0  0  0  0
    4.7355    3.3259    0.0000 C   0  0  0  0  0  0  0  0  0  0  0  0
    4.5156    4.8097    0.0000 O   0  0  0  0  0  0  0  0  0  0  0  0
    6.1873    2.9486    0.0000 N   0  0  0  0  0  0  0  0  0  0  0  0
    7.2399    4.0172    0.0000 C   0  0  0  0  0  0  0  0  0  0  0  0
    7.8636    5.3814    0.0000 C   0  0  0  0  0  0  0  0  0  0  0  0
    9.3569    5.5234    0.0000 C   0  0  0  0  0  0  0  0  0  0  0  0
    9.9805    6.8876    0.0000 C   0  0  0  0  0  0  0  0  0  0  0  0
   11.4738    7.0296    0.0000 C   0  0  0  0  0  0  0  0  0  0  0  0
   12.0975    8.3938    0.0000 N   0  0  0  0  0  0  0  0  0  0  0  0
    8.6917    3.6399    0.0000 C   0  0  0  0  0  0  0  0  0  0  0  0
    9.8667    4.5722    0.0000 O   0  0  0  0  0  0  0  0  0  0  0  0
    9.0908    2.1940    0.0000 N   0  0  0  0  0  0  0  0  0  0  0  0
   10.5426    1.8167    0.0000 C   0  0  0  0  0  0  0  0  0  0  0  0
   12.0358    1.9586    0.0000 C   0  0  0  0  0  0  0  0  0  0  0  0
   12.6595    3.3228    0.0000 C   0  0  0  0  0  0  0  0  0  0  0  0
   14.1528    3.4648    0.0000 C   0  0  0  0  0  0  0  0  0  0  0  0
   12.7790    4.8181    0.0000 C   0  0  0  0  0  0  0  0  0  0  0  0
   10.9417    0.3707    0.0000 C   0  0  0  0  0  0  0  0  0  0  0  0
    9.8891   -0.6979    0.0000 O   0  0  0  0  0  0  0  0  0  0  0  0
   12.3935   -0.0066    0.0000 N   0  0  0  0  0  0  0  0  0  0  0  0
   12.7926   -1.4525    0.0000 C   0  0  0  0  0  0  0  0  0  0  0  0
   12.6731   -2.9477    0.0000 C   0  0  0  0  0  0  0  0  0  0  0  0
   13.9083   -3.7988    0.0000 C   0  0  0  0  0  0  0  0  0  0  0  0
   13.7888   -5.2941    0.0000 C   0  0  0  0  0  0  0  0  0  0  0  0
   15.1185   -5.9882    0.0000 N   0  0  0  0  0  0  0  0  0  0  0  0
   12.4342   -5.9382    0.0000 O   0  0  0  0  0  0  0  0  0  0  0  0
   14.2444   -1.8298    0.0000 C   0  0  0  0  0  0  0  0  0  0  0  0
   15.2970   -0.7612    0.0000 O   0  0  0  0  0  0  0  0  0  0  0  0
   14.6435   -3.2757    0.0000 N   0  0  0  0  0  0  0  0  0  0  0  0
   16.0953   -3.6530    0.0000 C   0  0  0  0  0  0  0  0  0  0  0  0
   17.3304   -4.5041    0.0000 C   0  0  0  0  0  0  0  0  0  0  0  0
   17.2110   -5.9994    0.0000 C   0  0  0  0  0  0  0  0  0  0  0  0
   18.4461   -6.8505    0.0000 C   0  0  0  0  0  0  0  0  0  0  0  0
   18.3266   -8.3457    0.0000 N   0  0  0  0  0  0  0  0  0  0  0  0
   19.5618   -9.1968    0.0000 C   0  0  0  0  0  0  0  0  0  0  0  0
   19.4423  -10.6920    0.0000 N   0  0  0  0  0  0  0  0  0  0  0  0
   20.9165   -8.5526    0.0000 N   0  0  0  0  0  0  0  0  0  0  0  0
   17.1479   -2.5844    0.0000 C   0  0  0  0  0  0  0  0  0  0  0  0
   16.7488   -1.1385    0.0000 O   0  0  0  0  0  0  0  0  0  0  0  0
   18.5997   -2.9617    0.0000 N   0  0  0  0  0  0  0  0  0  0  0  0
   19.6523   -1.8931    0.0000 C   0  0  0  0  0  0  0  0  0  0  0  0
   20.2760   -0.5289    0.0000 C   0  0  0  0  0  0  0  0  0  0  0  0
   21.7693   -0.3870    0.0000 C   0  0  0  0  0  0  0  0  0  0  0  0
   22.3929    0.9772    0.0000 C   0  0  0  0  0  0  0  0  0  0  0  0
   23.8862    1.1192    0.0000 O   0  0  0  0  0  0  0  0  0  0  0  0
   21.5234    2.1995    0.0000 O   0  0  0  0  0  0  0  0  0  0  0  0
   21.1041   -2.2704    0.0000 C   0  0  0  0  0  0  0  0  0  0  0  0
   22.2792   -1.3381    0.0000 O   0  0  0  0  0  0  0  0  0  0  0  0
   21.5032   -3.7164    0.0000 N   0  0  0  0  0  0  0  0  0  0  0  0
   22.9550   -4.0937    0.0000 C   0  0  0  0  0  0  0  0  0  0  0  0
   24.4483   -3.9517    0.0000 C   0  0  0  0  0  0  0  0  0  0  0  0
   25.0719   -2.5875    0.0000 C   0  0  0  0  0  0  0  0  0  0  0  0
   26.5652   -2.4455    0.0000 C   0  0  0  0  0  0  0  0  0  0  0  0
   27.1889   -1.0813    0.0000 N   0  0  0  0  0  0  0  0  0  0  0  0
   27.4348   -3.6677    0.0000 O   0  0  0  0  0  0  0  0  0  0  0  0
   23.3541   -5.5396    0.0000 C   0  0  0  0  0  0  0  0  0  0  0  0
   24.7491   -6.0911    0.0000 O   0  0  0  0  0  0  0  0  0  0  0  0
   22.3015   -6.6082    0.0000 O   0  0  0  0  0  0  0  0  0  0  0  0
  -29.3674   -3.8651    0.0000 H   0  0  0  0  0  0  0  0  0  0  0  0
  -28.2517   -6.2114    0.0000 H   0  0  0  0  0  0  0  0  0  0  0  0
  -27.6472   -2.8498    0.0000 H   0  0  0  0  0  0  0  0  0  0  0  0
  -25.7249   -3.0034    0.0000 H   0  0  0  0  0  0  0  0  0  0  0  0
  -26.5951   -5.9917    0.0000 H   0  0  0  0  0  0  0  0  0  0  0  0
  -24.6728   -6.1453    0.0000 H   0  0  0  0  0  0  0  0  0  0  0  0
  -23.1125   -5.9110    0.0000 H   0  0  0  0  0  0  0  0  0  0  0  0
  -22.3121   -3.1668    0.0000 H   0  0  0  0  0  0  0  0  0  0  0  0
  -19.8442   -5.2877    0.0000 H   0  0  0  0  0  0  0  0  0  0  0  0
  -23.1796   -6.8280    0.0000 H   0  0  0  0  0  0  0  0  0  0  0  0
  -22.8751   -8.3647    0.0000 H   0  0  0  0  0  0  0  0  0  0  0  0
  -21.1292   -7.9958    0.0000 H   0  0  0  0  0  0  0  0  0  0  0  0
  -19.0941   -8.0052    0.0000 H   0  0  0  0  0  0  0  0  0  0  0  0
  -19.2766   -6.0855    0.0000 H   0  0  0  0  0  0  0  0  0  0  0  0
  -20.0833   -9.7405    0.0000 H   0  0  0  0  0  0  0  0  0  0  0  0
  -22.0055   -9.5869    0.0000 H   0  0  0  0  0  0  0  0  0  0  0  0
  -22.2894   -7.8454    0.0000 H   0  0  0  0  0  0  0  0  0  0  0  0
  -22.4314   -1.7739    0.0000 H   0  0  0  0  0  0  0  0  0  0  0  0
  -19.0222   -2.1250    0.0000 H   0  0  0  0  0  0  0  0  0  0  0  0
  -21.8411    1.2674    0.0000 H   0  0  0  0  0  0  0  0  0  0  0  0
  -20.0743    1.0169    0.0000 H   0  0  0  0  0  0  0  0  0  0  0  0
  -22.1079   -2.1485    0.0000 H   0  0  0  0  0  0  0  0  0  0  0  0
  -25.1398   -0.3189    0.0000 H   0  0  0  0  0  0  0  0  0  0  0  0
  -24.5863    1.3775    0.0000 H   0  0  0  0  0  0  0  0  0  0  0  0
  -22.8022    1.3442    0.0000 H   0  0  0  0  0  0  0  0  0  0  0  0
  -25.0212   -1.5669    0.0000 H   0  0  0  0  0  0  0  0  0  0  0  0
  -24.3196   -3.0424    0.0000 H   0  0  0  0  0  0  0  0  0  0  0  0
  -22.2045   -2.4586    0.0000 H   0  0  0  0  0  0  0  0  0  0  0  0
  -17.4214   -2.6050    0.0000 H   0  0  0  0  0  0  0  0  0  0  0  0
  -15.5482   -1.9115    0.0000 H   0  0  0  0  0  0  0  0  0  0  0  0
  -18.0521    1.6077    0.0000 H   0  0  0  0  0  0  0  0  0  0  0  0
  -18.0968   -0.0255    0.0000 H   0  0  0  0  0  0  0  0  0  0  0  0
  -15.0182    3.0532    0.0000 H   0  0  0  0  0  0  0  0  0  0  0  0
  -14.9580    1.2697    0.0000 H   0  0  0  0  0  0  0  0  0  0  0  0
  -18.3925    4.0372    0.0000 H   0  0  0  0  0  0  0  0  0  0  0  0
  -18.2379    2.4107    0.0000 H   0  0  0  0  0  0  0  0  0  0  0  0
  -15.3865    5.7759    0.0000 H   0  0  0  0  0  0  0  0  0  0  0  0
  -15.1094    4.0131    0.0000 H   0  0  0  0  0  0  0  0  0  0  0  0
  -16.6850    7.2937    0.0000 H   0  0  0  0  0  0  0  0  0  0  0  0
  -18.5439    6.7806    0.0000 H   0  0  0  0  0  0  0  0  0  0  0  0
  -18.4838    4.9971    0.0000 H   0  0  0  0  0  0  0  0  0  0  0  0
  -14.2081   -2.9100    0.0000 H   0  0  0  0  0  0  0  0  0  0  0  0
  -12.2107   -2.8991    0.0000 H   0  0  0  0  0  0  0  0  0  0  0  0
  -13.8853    0.5936    0.0000 H   0  0  0  0  0  0  0  0  0  0  0  0
  -12.3708    1.5373    0.0000 H   0  0  0  0  0  0  0  0  0  0  0  0
  -10.9970    0.1841    0.0000 H   0  0  0  0  0  0  0  0  0  0  0  0
  -11.4153   -4.1594    0.0000 H   0  0  0  0  0  0  0  0  0  0  0  0
   -8.6690   -2.1091    0.0000 H   0  0  0  0  0  0  0  0  0  0  0  0
   -9.5317   -6.4638    0.0000 H   0  0  0  0  0  0  0  0  0  0  0  0
   -7.9604   -5.3459    0.0000 H   0  0  0  0  0  0  0  0  0  0  0  0
  -11.5291   -6.4747    0.0000 H   0  0  0  0  0  0  0  0  0  0  0  0
   -7.6837   -0.9911    0.0000 H   0  0  0  0  0  0  0  0  0  0  0  0
   -4.1286   -4.4812    0.0000 H   0  0  0  0  0  0  0  0  0  0  0  0
   -5.3883   -3.7223    0.0000 H   0  0  0  0  0  0  0  0  0  0  0  0
   -2.5157   -5.1232    0.0000 H   0  0  0  0  0  0  0  0  0  0  0  0
   -3.7639   -4.7314    0.0000 H   0  0  0  0  0  0  0  0  0  0  0  0
   -0.4458   -5.1343    0.0000 H   0  0  0  0  0  0  0  0  0  0  0  0
   -1.9142   -5.2169    0.0000 H   0  0  0  0  0  0  0  0  0  0  0  0
    0.6659   -5.0896    0.0000 H   0  0  0  0  0  0  0  0  0  0  0  0
   -7.0090   -3.9701    0.0000 H   0  0  0  0  0  0  0  0  0  0  0  0
   -5.4432   -4.8394    0.0000 H   0  0  0  0  0  0  0  0  0  0  0  0
   -4.3984   -4.1786    0.0000 H   0  0  0  0  0  0  0  0  0  0  0  0
   -7.7448    0.7058    0.0000 H   0  0  0  0  0  0  0  0  0  0  0  0
   -7.1710    3.3847    0.0000 H   0  0  0  0  0  0  0  0  0  0  0  0
   -8.6948    0.8412    0.0000 H   0  0  0  0  0  0  0  0  0  0  0  0
   -7.1348    0.3558    0.0000 H   0  0  0  0  0  0  0  0  0  0  0  0
   -5.6479    5.9721    0.0000 H   0  0  0  0  0  0  0  0  0  0  0  0
   -3.1957    7.1937    0.0000 H   0  0  0  0  0  0  0  0  0  0  0  0
   -6.1344    6.7992    0.0000 H   0  0  0  0  0  0  0  0  0  0  0  0
   -5.5412    5.2769    0.0000 H   0  0  0  0  0  0  0  0  0  0  0  0
   -1.9373    8.0779    0.0000 H   0  0  0  0  0  0  0  0  0  0  0  0
   -1.9343   10.9152    0.0000 H   0  0  0  0  0  0  0  0  0  0  0  0
   -5.7624   13.2806    0.0000 H   0  0  0  0  0  0  0  0  0  0  0  0
   -7.1281   11.0704    0.0000 H   0  0  0  0  0  0  0  0  0  0  0  0
   -7.2177    8.0717    0.0000 H   0  0  0  0  0  0  0  0  0  0  0  0
   -0.4055    7.6332    0.0000 H   0  0  0  0  0  0  0  0  0  0  0  0
    2.3459    6.2983    0.0000 H   0  0  0  0  0  0  0  0  0  0  0  0
   -0.7002    7.0992    0.0000 H   0  0  0  0  0  0  0  0  0  0  0  0
    2.0213    9.5849    0.0000 H   0  0  0  0  0  0  0  0  0  0  0  0
    3.4337    8.5088    0.0000 H   0  0  0  0  0  0  0  0  0  0  0  0
    2.8339    6.8282    0.0000 H   0  0  0  0  0  0  0  0  0  0  0  0
   -0.9743    9.5378    0.0000 H   0  0  0  0  0  0  0  0  0  0  0  0
   -1.1806    7.7654    0.0000 H   0  0  0  0  0  0  0  0  0  0  0  0
    0.2626   11.1063    0.0000 H   0  0  0  0  0  0  0  0  0  0  0  0
    2.1405   10.6680    0.0000 H   0  0  0  0  0  0  0  0  0  0  0  0
    2.2505    9.0378    0.0000 H   0  0  0  0  0  0  0  0  0  0  0  0
    4.3441    4.5531    0.0000 H   0  0  0  0  0  0  0  0  0  0  0  0
    5.1852    1.3055    0.0000 H   0  0  0  0  0  0  0  0  0  0  0  0
    4.9788   -0.1506    0.0000 H   0  0  0  0  0  0  0  0  0  0  0  0
    4.9426   -0.5914    0.0000 H   0  0  0  0  0  0  0  0  0  0  0  0
    4.4586   -1.8069    0.0000 H   0  0  0  0  0  0  0  0  0  0  0  0
    4.1517   -2.3325    0.0000 H   0  0  0  0  0  0  0  0  0  0  0  0
    3.1609   -3.4193    0.0000 H   0  0  0  0  0  0  0  0  0  0  0  0
    2.4244   -4.2534    0.0000 H   0  0  0  0  0  0  0  0  0  0  0  0
    6.4004    2.4061    0.0000 H   0  0  0  0  0  0  0  0  0  0  0  0
    6.0864    0.6430    0.0000 H   0  0  0  0  0  0  0  0  0  0  0  0
    4.9144    0.2496    0.0000 H   0  0  0  0  0  0  0  0  0  0  0  0
    6.7597    1.5621    0.0000 H   0  0  0  0  0  0  0  0  0  0  0  0
    6.0047    4.8683    0.0000 H   0  0  0  0  0  0  0  0  0  0  0  0
    7.7999    6.8801    0.0000 H   0  0  0  0  0  0  0  0  0  0  0  0
    6.4118    5.7587    0.0000 H   0  0  0  0  0  0  0  0  0  0  0  0
   10.6742    4.8060    0.0000 H   0  0  0  0  0  0  0  0  0  0  0  0
    9.7813    4.0847    0.0000 H   0  0  0  0  0  0  0  0  0  0  0  0
    9.9169    8.3862    0.0000 H   0  0  0  0  0  0  0  0  0  0  0  0
    8.5856    7.4390    0.0000 H   0  0  0  0  0  0  0  0  0  0  0  0
   12.9607    6.8320    0.0000 H   0  0  0  0  0  0  0  0  0  0  0  0
   11.3543    5.5343    0.0000 H   0  0  0  0  0  0  0  0  0  0  0  0
   13.5907    8.5357    0.0000 H   0  0  0  0  0  0  0  0  0  0  0  0
   12.2170    9.8890    0.0000 H   0  0  0  0  0  0  0  0  0  0  0  0
   10.7025    8.9452    0.0000 H   0  0  0  0  0  0  0  0  0  0  0  0
    8.0382    1.1254    0.0000 H   0  0  0  0  0  0  0  0  0  0  0  0
   10.4789    3.3153    0.0000 H   0  0  0  0  0  0  0  0  0  0  0  0
   13.4876    1.5813    0.0000 H   0  0  0  0  0  0  0  0  0  0  0  0
   12.2817    0.4789    0.0000 H   0  0  0  0  0  0  0  0  0  0  0  0
   11.2646    3.8743    0.0000 H   0  0  0  0  0  0  0  0  0  0  0  0
   14.9381    4.7428    0.0000 H   0  0  0  0  0  0  0  0  0  0  0  0
   15.6046    3.0875    0.0000 H   0  0  0  0  0  0  0  0  0  0  0  0
   14.2165    1.9662    0.0000 H   0  0  0  0  0  0  0  0  0  0  0  0
   14.0450    5.6225    0.0000 H   0  0  0  0  0  0  0  0  0  0  0  0
   12.5591    6.3019    0.0000 H   0  0  0  0  0  0  0  0  0  0  0  0
   11.3645    4.3190    0.0000 H   0  0  0  0  0  0  0  0  0  0  0  0
   13.5685    0.9258    0.0000 H   0  0  0  0  0  0  0  0  0  0  0  0
   11.2993   -1.5945    0.0000 H   0  0  0  0  0  0  0  0  0  0  0  0
   12.0494   -4.3119    0.0000 H   0  0  0  0  0  0  0  0  0  0  0  0
   11.2213   -2.5704    0.0000 H   0  0  0  0  0  0  0  0  0  0  0  0
   15.3032   -4.3503    0.0000 H   0  0  0  0  0  0  0  0  0  0  0  0
   15.0995   -2.8872    0.0000 H   0  0  0  0  0  0  0  0  0  0  0  0
   14.9045   -7.6404    0.0000 H   0  0  0  0  0  0  0  0  0  0  0  0
   16.3098   -5.3510    0.0000 H   0  0  0  0  0  0  0  0  0  0  0  0
   13.8807   -4.5673    0.0000 H   0  0  0  0  0  0  0  0  0  0  0  0
   15.4716   -5.0172    0.0000 H   0  0  0  0  0  0  0  0  0  0  0  0
   18.7822   -4.8814    0.0000 H   0  0  0  0  0  0  0  0  0  0  0  0
   18.2657   -3.3314    0.0000 H   0  0  0  0  0  0  0  0  0  0  0  0
   16.5873   -7.3636    0.0000 H   0  0  0  0  0  0  0  0  0  0  0  0
   15.8160   -5.4479    0.0000 H   0  0  0  0  0  0  0  0  0  0  0  0
   19.8979   -7.2278    0.0000 H   0  0  0  0  0  0  0  0  0  0  0  0
   19.2314   -5.5725    0.0000 H   0  0  0  0  0  0  0  0  0  0  0  0
   16.9720   -8.9898    0.0000 H   0  0  0  0  0  0  0  0  0  0  0  0
   20.6775  -11.5431    0.0000 H   0  0  0  0  0  0  0  0  0  0  0  0
   18.0877  -11.3362    0.0000 H   0  0  0  0  0  0  0  0  0  0  0  0
   22.1516   -9.4037    0.0000 H   0  0  0  0  0  0  0  0  0  0  0  0
   21.0359   -7.0574    0.0000 H   0  0  0  0  0  0  0  0  0  0  0  0
   19.1721   -4.3482    0.0000 H   0  0  0  0  0  0  0  0  0  0  0  0
   18.4172   -1.0420    0.0000 H   0  0  0  0  0  0  0  0  0  0  0  0
   20.3955    0.9663    0.0000 H   0  0  0  0  0  0  0  0  0  0  0  0
   18.8242   -0.1516    0.0000 H   0  0  0  0  0  0  0  0  0  0  0  0
   23.2210   -0.7643    0.0000 H   0  0  0  0  0  0  0  0  0  0  0  0
   22.1937   -1.8257    0.0000 H   0  0  0  0  0  0  0  0  0  0  0  0
   20.4506   -4.7850    0.0000 H   0  0  0  0  0  0  0  0  0  0  0  0
   22.8913   -2.5950    0.0000 H   0  0  0  0  0  0  0  0  0  0  0  0
   25.9000   -4.3290    0.0000 H   0  0  0  0  0  0  0  0  0  0  0  0
   24.5119   -5.4503    0.0000 H   0  0  0  0  0  0  0  0  0  0  0  0
   25.1914   -1.0923    0.0000 H   0  0  0  0  0  0  0  0  0  0  0  0
   23.6770   -2.0360    0.0000 H   0  0  0  0  0  0  0  0  0  0  0  0
   28.6821   -0.9393    0.0000 H   0  0  0  0  0  0  0  0  0  0  0  0
   26.3193    0.1409    0.0000 H   0  0  0  0  0  0  0  0  0  0  0  0
  1  2  1  0
  2  3  1  0
  3  4  1  0
  4  5  2  0
  4  6  1  0
  6  7  1  0
  7  8  1  0
  8  9  1  0
  8 10  1  0
 10 11  1  0
  7 12  1  0
 12 13  2  0
 12 14  1  0
 14 15  1  0
 15 16  1  0
 16 17  1  0
 17 18  1  0
 17 19  1  0
 15 20  1  0
 20 21  2  0
 20 22  1  0
 22 23  1  0
 23 24  1  0
 24 25  1  0
 25 26  1  0
 26 27  1  0
 27 28  1  0
 23 29  1  0
 29 30  2  0
 29 31  1  0
 31 32  1  0
 32 33  1  0
 32 34  1  0
 34 35  2  0
 34 36  1  0
 36 37  1  0
 37 38  1  0
 38 39  1  0
 37 40  1  0
 40 41  2  0
 40 42  1  0
 43 42  1  6
 43 44  1  0
 44 45  1  0
 45 46  1  0
 46 47  1  0
 43 48  1  0
 43 49  1  0
 49 50  2  0
 49 51  1  0
 51 52  1  0
 52 53  1  0
 53 54  1  0
 54 55  2  0
 54 56  1  0
 52 57  1  0
 57 58  2  0
 57 59  1  0
 59 60  1  0
 60 61  1  0
 61 62  1  0
 62 63  2  0
 63 64  1  0
 64 65  2  0
 65 66  1  0
 65 67  1  0
 67 68  2  0
 60 69  1  0
 69 70  2  0
 69 71  1  0
 71 72  1  0
 72 73  1  0
 73 74  1  0
 73 75  1  0
 75 76  1  0
 72 77  1  0
 77 78  2  0
 77 79  1  0
 79 80  1  0
 80 81  1  0
 81 82  1  0
 82 83  1  0
 83 84  1  0
 80 85  1  0
 80 86  1  6
 86 87  2  0
 86 88  1  0
 88 89  1  0
 89 90  1  0
 90 91  1  0
 91 92  1  0
 92 93  1  0
 93 94  1  0
 89 95  1  0
 95 96  2  0
 95 97  1  0
 97 98  1  0
 98 99  1  0
 99100  1  0
100101  1  0
100102  1  0
 98103  1  0
103104  2  0
103105  1  0
105106  1  0
106107  1  0
107108  1  0
108109  1  0
109110  1  0
109111  2  0
106112  1  0
112113  2  0
112114  1  0
114115  1  0
115116  1  0
116117  1  0
117118  1  0
118119  1  0
119120  1  0
120121  2  3
120122  1  0
115123  1  0
123124  2  0
123125  1  0
125126  1  0
126127  1  0
127128  1  0
128129  1  0
129130  2  0
129131  1  0
126132  1  0
132133  2  0
132134  1  0
134135  1  0
135136  1  0
136137  1  0
137138  1  0
138139  1  0
138140  2  0
135141  1  0
141142  2  0
141143  1  0
 68 62  1  0
 47 84  2  0
  1144  1  0
  1145  1  0
  2146  1  0
  2147  1  0
  3148  1  0
  3149  1  0
  6150  1  0
  7151  1  6
  8152  1  1
  9153  1  0
  9154  1  0
  9155  1  0
 10156  1  0
 10157  1  0
 11158  1  0
 11159  1  0
 11160  1  0
 14161  1  0
 15162  1  1
 16163  1  0
 16164  1  0
 17165  1  0
 18166  1  0
 18167  1  0
 18168  1  0
 19169  1  0
 19170  1  0
 19171  1  0
 22172  1  0
 23173  1  1
 24174  1  0
 24175  1  0
 25176  1  0
 25177  1  0
 26178  1  0
 26179  1  0
 27180  1  0
 27181  1  0
 28182  1  0
 28183  1  0
 28184  1  0
 31185  1  0
 32186  1  1
 33187  1  0
 33188  1  0
 33189  1  0
 36190  1  0
 37191  1  6
 38192  1  0
 38193  1  0
 39194  1  0
 42195  1  0
 44196  1  0
 44197  1  0
 45198  1  0
 45199  1  0
 46200  1  0
 46201  1  0
 47202  1  0
 48203  1  0
 48204  1  0
 48205  1  0
 51206  1  0
 52207  1  1
 53208  1  0
 53209  1  0
 59210  1  0
 60211  1  1
 61212  1  0
 61213  1  0
 63214  1  0
 64215  1  0
 66216  1  0
 67217  1  0
 68218  1  0
 71219  1  0
 72220  1  1
 73221  1  1
 74222  1  0
 74223  1  0
 74224  1  0
 75225  1  0
 75226  1  0
 76227  1  0
 76228  1  0
 76229  1  0
 79230  1  0
 81231  1  0
 81232  1  0
 82233  1  0
 82234  1  0
 83235  1  0
 83236  1  0
 84237  1  0
 85238  1  0
 85239  1  0
 85240  1  0
 88241  1  0
 89242  1  1
 90243  1  0
 90244  1  0
 91245  1  0
 91246  1  0
 92247  1  0
 92248  1  0
 93249  1  0
 93250  1  0
 94251  1  0
 94252  1  0
 94253  1  0
 97254  1  0
 98255  1  1
 99256  1  0
 99257  1  0
100258  1  0
101259  1  0
101260  1  0
101261  1  0
102262  1  0
102263  1  0
102264  1  0
105265  1  0
106266  1  6
107267  1  0
107268  1  0
108269  1  0
108270  1  0
110271  1  0
110272  1  0
114273  1  0
115274  1  6
116275  1  0
116276  1  0
117277  1  0
117278  1  0
118279  1  0
118280  1  0
119281  1  0
121282  1  0
121283  1  0
122284  1  0
122285  1  0
125286  1  0
126287  1  1
127288  1  0
127289  1  0
128290  1  0
128291  1  0
134292  1  0
135293  1  1
136294  1  0
136295  1  0
137296  1  0
137297  1  0
139298  1  0
139299  1  0
M  CHG  6  28   1  56  -1  94   1 121   1 131  -1 143  -1
M  END
