
     RDKit          2D

263265  0  0  0  0  0  0  0  0999 V2000
  -21.8379    0.7233    0.0000 N   0  0  0  0  0  0  0  0  0  0  0  0
  -20.4812    0.0834    0.0000 C   0  0  0  0  0  0  0  0  0  0  0  0
  -20.3570   -1.4114    0.0000 C   0  0  0  0  0  0  0  0  0  0  0  0
  -19.0004   -2.0513    0.0000 C   0  0  0  0  0  0  0  0  0  0  0  0
  -17.7679   -1.1964    0.0000 O   0  0  0  0  0  0  0  0  0  0  0  0
  -18.8762   -3.5462    0.0000 N   0  0  0  0  0  0  0  0  0  0  0  0
  -17.5195   -4.1861    0.0000 C   0  0  0  0  0  0  0  0  0  0  0  0
  -18.3853   -5.4110    0.0000 C   0  0  0  0  0  0  0  0  0  0  0  0
  -19.8511   -5.0927    0.0000 C   0  0  0  0  0  0  0  0  0  0  0  0
  -18.7799   -6.8582    0.0000 C   0  0  0  0  0  0  0  0  0  0  0  0
  -20.2304   -7.2400    0.0000 C   0  0  0  0  0  0  0  0  0  0  0  0
  -16.0258   -4.3233    0.0000 C   0  0  0  0  0  0  0  0  0  0  0  0
  -15.5686   -5.7520    0.0000 O   0  0  0  0  0  0  0  0  0  0  0  0
  -15.1601   -3.0984    0.0000 N   0  0  0  0  0  0  0  0  0  0  0  0
  -13.6664   -3.2357    0.0000 C   0  0  0  0  0  0  0  0  0  0  0  0
  -14.0610   -4.6829    0.0000 C   0  0  0  0  0  0  0  0  0  0  0  0
  -13.0050   -5.7482    0.0000 C   0  0  0  0  0  0  0  0  0  0  0  0
  -13.3995   -7.1953    0.0000 C   0  0  0  0  0  0  0  0  0  0  0  0
  -12.3435   -8.2606    0.0000 N   0  0  0  0  0  0  0  0  0  0  0  0
  -14.8501   -7.5772    0.0000 O   0  0  0  0  0  0  0  0  0  0  0  0
  -12.2158   -2.8538    0.0000 C   0  0  0  0  0  0  0  0  0  0  0  0
  -11.1598   -3.9191    0.0000 O   0  0  0  0  0  0  0  0  0  0  0  0
  -11.8212   -1.4066    0.0000 N   0  0  0  0  0  0  0  0  0  0  0  0
  -10.3706   -1.0248    0.0000 C   0  0  0  0  0  0  0  0  0  0  0  0
  -10.9986    0.3375    0.0000 C   0  0  0  0  0  0  0  0  0  0  0  0
  -12.4923    0.4747    0.0000 C   0  0  0  0  0  0  0  0  0  0  0  0
  -13.2816    1.7503    0.0000 O   0  0  0  0  0  0  0  0  0  0  0  0
  -13.5009   -0.6355    0.0000 O   0  0  0  0  0  0  0  0  0  0  0  0
   -8.8769   -1.1621    0.0000 C   0  0  0  0  0  0  0  0  0  0  0  0
   -8.1670    0.1593    0.0000 O   0  0  0  0  0  0  0  0  0  0  0  0
   -8.2490   -2.5243    0.0000 N   0  0  0  0  0  0  0  0  0  0  0  0
   -6.7553   -2.6616    0.0000 C   0  0  0  0  0  0  0  0  0  0  0  0
   -5.9599   -3.9333    0.0000 C   0  0  0  0  0  0  0  0  0  0  0  0
   -4.9382   -5.0316    0.0000 C   0  0  0  0  0  0  0  0  0  0  0  0
   -3.7272   -5.9167    0.0000 C   0  0  0  0  0  0  0  0  0  0  0  0
   -2.3705   -6.5566    0.0000 C   0  0  0  0  0  0  0  0  0  0  0  0
   -7.6914   -3.8336    0.0000 C   0  0  0  0  0  0  0  0  0  0  0  0
   -7.2956   -1.2623    0.0000 C   0  0  0  0  0  0  0  0  0  0  0  0
   -8.0924   -1.2853    0.0000 O   0  0  0  0  0  0  0  0  0  0  0  0
   -7.5613    0.2140    0.0000 N   0  0  0  0  0  0  0  0  0  0  0  0
   -7.5428    1.7139    0.0000 C   0  0  0  0  0  0  0  0  0  0  0  0
   -8.8949    1.0644    0.0000 C   0  0  0  0  0  0  0  0  0  0  0  0
  -10.1334    1.9106    0.0000 C   0  0  0  0  0  0  0  0  0  0  0  0
  -11.5546    1.4308    0.0000 C   0  0  0  0  0  0  0  0  0  0  0  0
  -11.0078    3.1294    0.0000 C   0  0  0  0  0  0  0  0  0  0  0  0
   -7.2408    3.1832    0.0000 C   0  0  0  0  0  0  0  0  0  0  0  0
   -8.6104    3.7950    0.0000 O   0  0  0  0  0  0  0  0  0  0  0  0
   -6.6662    4.5688    0.0000 N   0  0  0  0  0  0  0  0  0  0  0  0
   -5.8397    5.8206    0.0000 C   0  0  0  0  0  0  0  0  0  0  0  0
   -7.3283    6.0052    0.0000 C   0  0  0  0  0  0  0  0  0  0  0  0
   -4.7913    6.8933    0.0000 C   0  0  0  0  0  0  0  0  0  0  0  0
   -5.7596    8.0390    0.0000 O   0  0  0  0  0  0  0  0  0  0  0  0
   -3.5588    7.7483    0.0000 N   0  0  0  0  0  0  0  0  0  0  0  0
   -2.1868    8.3546    0.0000 C   0  0  0  0  0  0  0  0  0  0  0  0
   -3.3393    9.3147    0.0000 C   0  0  0  0  0  0  0  0  0  0  0  0
   -3.0841   10.7928    0.0000 C   0  0  0  0  0  0  0  0  0  0  0  0
   -1.6764   11.3108    0.0000 C   0  0  0  0  0  0  0  0  0  0  0  0
   -1.4211   12.7889    0.0000 C   0  0  0  0  0  0  0  0  0  0  0  0
   -2.5736   13.7490    0.0000 C   0  0  0  0  0  0  0  0  0  0  0  0
   -3.9813   13.2310    0.0000 C   0  0  0  0  0  0  0  0  0  0  0  0
   -4.2366   11.7529    0.0000 C   0  0  0  0  0  0  0  0  0  0  0  0
   -0.7249    8.6902    0.0000 C   0  0  0  0  0  0  0  0  0  0  0  0
   -0.7373   10.1902    0.0000 O   0  0  0  0  0  0  0  0  0  0  0  0
    0.7742    8.7431    0.0000 N   0  0  0  0  0  0  0  0  0  0  0  0
    2.2562    8.5114    0.0000 C   0  0  0  0  0  0  0  0  0  0  0  0
    1.8057    9.9421    0.0000 C   0  0  0  0  0  0  0  0  0  0  0  0
    2.8196   11.0476    0.0000 C   0  0  0  0  0  0  0  0  0  0  0  0
    4.2839   10.7224    0.0000 C   0  0  0  0  0  0  0  0  0  0  0  0
    5.2977   11.8279    0.0000 C   0  0  0  0  0  0  0  0  0  0  0  0
    4.8473   13.2586    0.0000 C   0  0  0  0  0  0  0  0  0  0  0  0
    3.3830   13.5839    0.0000 C   0  0  0  0  0  0  0  0  0  0  0  0
    2.3691   12.4784    0.0000 C   0  0  0  0  0  0  0  0  0  0  0  0
    3.6675    8.0034    0.0000 C   0  0  0  0  0  0  0  0  0  0  0  0
    4.4680    9.2719    0.0000 O   0  0  0  0  0  0  0  0  0  0  0  0
    4.9572    7.2374    0.0000 N   0  0  0  0  0  0  0  0  0  0  0  0
    6.0787    6.2412    0.0000 C   0  0  0  0  0  0  0  0  0  0  0  0
    6.4733    7.6884    0.0000 C   0  0  0  0  0  0  0  0  0  0  0  0
    7.9238    8.0703    0.0000 O   0  0  0  0  0  0  0  0  0  0  0  0
    6.9913    5.0508    0.0000 C   0  0  0  0  0  0  0  0  0  0  0  0
    8.2631    5.8462    0.0000 O   0  0  0  0  0  0  0  0  0  0  0  0
    7.6622    3.7092    0.0000 N   0  0  0  0  0  0  0  0  0  0  0  0
    8.0670    2.2649    0.0000 C   0  0  0  0  0  0  0  0  0  0  0  0
    9.1814    3.2690    0.0000 C   0  0  0  0  0  0  0  0  0  0  0  0
   10.6081    2.8060    0.0000 C   0  0  0  0  0  0  0  0  0  0  0  0
   11.7225    3.8101    0.0000 C   0  0  0  0  0  0  0  0  0  0  0  0
   13.1492    3.3471    0.0000 N   0  0  0  0  0  0  0  0  0  0  0  0
   14.2636    4.3512    0.0000 C   0  0  0  0  0  0  0  0  0  0  0  0
   15.6903    3.8882    0.0000 N   0  0  0  0  0  0  0  0  0  0  0  0
   13.9512    5.8183    0.0000 N   0  0  0  0  0  0  0  0  0  0  0  0
    8.1912    0.7700    0.0000 C   0  0  0  0  0  0  0  0  0  0  0  0
    9.6777    0.5688    0.0000 O   0  0  0  0  0  0  0  0  0  0  0  0
    8.0302   -0.7213    0.0000 N   0  0  0  0  0  0  0  0  0  0  0  0
    7.5899   -2.1553    0.0000 C   0  0  0  0  0  0  0  0  0  0  0  0
    6.8862   -3.4799    0.0000 C   0  0  0  0  0  0  0  0  0  0  0  0
    5.9445   -4.6475    0.0000 C   0  0  0  0  0  0  0  0  0  0  0  0
    4.7989   -5.6158    0.0000 C   0  0  0  0  0  0  0  0  0  0  0  0
    3.4907   -6.3497    0.0000 C   0  0  0  0  0  0  0  0  0  0  0  0
    2.0673   -6.8228    0.0000 C   0  0  0  0  0  0  0  0  0  0  0  0
    0.5800   -7.0180    0.0000 C   0  0  0  0  0  0  0  0  0  0  0  0
   -0.9173   -6.9281    0.0000 C   0  0  0  0  0  0  0  0  0  0  0  0
    8.6064   -3.2583    0.0000 C   0  0  0  0  0  0  0  0  0  0  0  0
    9.0702   -1.9130    0.0000 C   0  0  0  0  0  0  0  0  0  0  0  0
    9.7677   -0.5850    0.0000 O   0  0  0  0  0  0  0  0  0  0  0  0
   10.0202   -3.0739    0.0000 N   0  0  0  0  0  0  0  0  0  0  0  0
   11.5005   -2.8316    0.0000 C   0  0  0  0  0  0  0  0  0  0  0  0
   12.8087   -2.0977    0.0000 C   0  0  0  0  0  0  0  0  0  0  0  0
   14.0984   -2.8636    0.0000 C   0  0  0  0  0  0  0  0  0  0  0  0
   15.4066   -2.1297    0.0000 C   0  0  0  0  0  0  0  0  0  0  0  0
   15.0483   -4.0245    0.0000 C   0  0  0  0  0  0  0  0  0  0  0  0
   12.4505   -3.9925    0.0000 C   0  0  0  0  0  0  0  0  0  0  0  0
   11.9201   -5.3956    0.0000 O   0  0  0  0  0  0  0  0  0  0  0  0
   13.9308   -3.7502    0.0000 N   0  0  0  0  0  0  0  0  0  0  0  0
   14.8807   -4.9111    0.0000 C   0  0  0  0  0  0  0  0  0  0  0  0
   15.3764   -6.3268    0.0000 C   0  0  0  0  0  0  0  0  0  0  0  0
   14.3981   -7.4639    0.0000 C   0  0  0  0  0  0  0  0  0  0  0  0
   14.8937   -8.8797    0.0000 C   0  0  0  0  0  0  0  0  0  0  0  0
   13.9155  -10.0168    0.0000 N   0  0  0  0  0  0  0  0  0  0  0  0
   16.3676   -9.1583    0.0000 O   0  0  0  0  0  0  0  0  0  0  0  0
   16.3610   -4.6688    0.0000 C   0  0  0  0  0  0  0  0  0  0  0  0
   17.0585   -3.3408    0.0000 O   0  0  0  0  0  0  0  0  0  0  0  0
   17.3110   -5.8297    0.0000 N   0  0  0  0  0  0  0  0  0  0  0  0
   18.7913   -5.5874    0.0000 C   0  0  0  0  0  0  0  0  0  0  0  0
   20.0995   -4.8535    0.0000 C   0  0  0  0  0  0  0  0  0  0  0  0
   21.3892   -5.6194    0.0000 C   0  0  0  0  0  0  0  0  0  0  0  0
   22.6974   -4.8855    0.0000 N   0  0  0  0  0  0  0  0  0  0  0  0
   21.5537   -7.1104    0.0000 O   0  0  0  0  0  0  0  0  0  0  0  0
   19.7412   -6.7483    0.0000 C   0  0  0  0  0  0  0  0  0  0  0  0
   21.2400   -6.6883    0.0000 O   0  0  0  0  0  0  0  0  0  0  0  0
   19.2109   -8.1514    0.0000 O   0  0  0  0  0  0  0  0  0  0  0  0
  -21.9621    2.2181    0.0000 H   0  0  0  0  0  0  0  0  0  0  0  0
  -23.0704   -0.1317    0.0000 H   0  0  0  0  0  0  0  0  0  0  0  0
  -20.0866    1.5306    0.0000 H   0  0  0  0  0  0  0  0  0  0  0  0
  -18.9875   -0.0539    0.0000 H   0  0  0  0  0  0  0  0  0  0  0  0
  -21.8507   -1.2742    0.0000 H   0  0  0  0  0  0  0  0  0  0  0  0
  -20.7516   -2.8586    0.0000 H   0  0  0  0  0  0  0  0  0  0  0  0
  -20.2037   -4.2445    0.0000 H   0  0  0  0  0  0  0  0  0  0  0  0
  -17.1249   -2.7389    0.0000 H   0  0  0  0  0  0  0  0  0  0  0  0
  -17.0286   -6.0509    0.0000 H   0  0  0  0  0  0  0  0  0  0  0  0
  -20.9094   -6.3792    0.0000 H   0  0  0  0  0  0  0  0  0  0  0  0
  -21.2356   -4.6338    0.0000 H   0  0  0  0  0  0  0  0  0  0  0  0
  -20.0293   -3.7813    0.0000 H   0  0  0  0  0  0  0  0  0  0  0  0
  -18.6557   -8.3530    0.0000 H   0  0  0  0  0  0  0  0  0  0  0  0
  -17.2861   -6.9955    0.0000 H   0  0  0  0  0  0  0  0  0  0  0  0
  -20.6250   -8.6872    0.0000 H   0  0  0  0  0  0  0  0  0  0  0  0
  -21.7241   -7.1028    0.0000 H   0  0  0  0  0  0  0  0  0  0  0  0
  -20.7126   -5.8197    0.0000 H   0  0  0  0  0  0  0  0  0  0  0  0
  -15.7880   -1.7362    0.0000 H   0  0  0  0  0  0  0  0  0  0  0  0
  -13.7905   -1.7408    0.0000 H   0  0  0  0  0  0  0  0  0  0  0  0
  -14.7709   -6.0042    0.0000 H   0  0  0  0  0  0  0  0  0  0  0  0
  -15.5321   -4.3903    0.0000 H   0  0  0  0  0  0  0  0  0  0  0  0
  -11.6483   -6.3880    0.0000 H   0  0  0  0  0  0  0  0  0  0  0  0
  -12.1392   -4.5232    0.0000 H   0  0  0  0  0  0  0  0  0  0  0  0
  -12.7381   -9.7078    0.0000 H   0  0  0  0  0  0  0  0  0  0  0  0
  -10.8930   -7.8788    0.0000 H   0  0  0  0  0  0  0  0  0  0  0  0
  -13.1036   -0.6285    0.0000 H   0  0  0  0  0  0  0  0  0  0  0  0
  -10.2465   -2.5196    0.0000 H   0  0  0  0  0  0  0  0  0  0  0  0
  -11.3041    1.8060    0.0000 H   0  0  0  0  0  0  0  0  0  0  0  0
   -9.5386   -0.0065    0.0000 H   0  0  0  0  0  0  0  0  0  0  0  0
   -9.2576   -3.6346    0.0000 H   0  0  0  0  0  0  0  0  0  0  0  0
   -6.6573   -5.2613    0.0000 H   0  0  0  0  0  0  0  0  0  0  0  0
   -7.4234   -4.2621    0.0000 H   0  0  0  0  0  0  0  0  0  0  0  0
   -5.3718   -6.4676    0.0000 H   0  0  0  0  0  0  0  0  0  0  0  0
   -6.3131   -5.6314    0.0000 H   0  0  0  0  0  0  0  0  0  0  0  0
   -3.6981   -7.4164    0.0000 H   0  0  0  0  0  0  0  0  0  0  0  0
   -4.9637   -6.7658    0.0000 H   0  0  0  0  0  0  0  0  0  0  0  0
   -2.8786   -7.9679    0.0000 H   0  0  0  0  0  0  0  0  0  0  0  0
   -9.0232   -4.0607    0.0000 H   0  0  0  0  0  0  0  0  0  0  0  0
   -7.8436   -5.4082    0.0000 H   0  0  0  0  0  0  0  0  0  0  0  0
   -6.3522   -4.8457    0.0000 H   0  0  0  0  0  0  0  0  0  0  0  0
   -8.9817   -0.2682    0.0000 H   0  0  0  0  0  0  0  0  0  0  0  0
   -8.6038    2.7742    0.0000 H   0  0  0  0  0  0  0  0  0  0  0  0
   -9.8047   -0.1282    0.0000 H   0  0  0  0  0  0  0  0  0  0  0  0
   -8.1756   -0.2519    0.0000 H   0  0  0  0  0  0  0  0  0  0  0  0
   -9.3757    3.2052    0.0000 H   0  0  0  0  0  0  0  0  0  0  0  0
  -12.7240    2.1073    0.0000 H   0  0  0  0  0  0  0  0  0  0  0  0
  -12.9142    0.6219    0.0000 H   0  0  0  0  0  0  0  0  0  0  0  0
  -10.4489    0.1677    0.0000 H   0  0  0  0  0  0  0  0  0  0  0  0
  -12.5074    3.1646    0.0000 H   0  0  0  0  0  0  0  0  0  0  0  0
  -11.4127    4.5737    0.0000 H   0  0  0  0  0  0  0  0  0  0  0  0
   -9.6557    3.7789    0.0000 H   0  0  0  0  0  0  0  0  0  0  0  0
   -8.0668    5.1058    0.0000 H   0  0  0  0  0  0  0  0  0  0  0  0
   -6.3354    7.2363    0.0000 H   0  0  0  0  0  0  0  0  0  0  0  0
   -7.9128    7.3866    0.0000 H   0  0  0  0  0  0  0  0  0  0  0  0
   -8.8203    5.8502    0.0000 H   0  0  0  0  0  0  0  0  0  0  0  0
   -7.6164    4.5331    0.0000 H   0  0  0  0  0  0  0  0  0  0  0  0
   -4.4468    8.9573    0.0000 H   0  0  0  0  0  0  0  0  0  0  0  0
   -1.8384    9.8135    0.0000 H   0  0  0  0  0  0  0  0  0  0  0  0
   -4.6782    9.9909    0.0000 H   0  0  0  0  0  0  0  0  0  0  0  0
   -4.3775    8.2320    0.0000 H   0  0  0  0  0  0  0  0  0  0  0  0
   -0.4154   10.4984    0.0000 H   0  0  0  0  0  0  0  0  0  0  0  0
   -0.0134   13.3070    0.0000 H   0  0  0  0  0  0  0  0  0  0  0  0
   -2.3184   15.2272    0.0000 H   0  0  0  0  0  0  0  0  0  0  0  0
   -5.1338   14.1911    0.0000 H   0  0  0  0  0  0  0  0  0  0  0  0
   -5.6443   11.2349    0.0000 H   0  0  0  0  0  0  0  0  0  0  0  0
    0.6808   10.2402    0.0000 H   0  0  0  0  0  0  0  0  0  0  0  0
    3.3381    9.5503    0.0000 H   0  0  0  0  0  0  0  0  0  0  0  0
    1.0450   11.2349    0.0000 H   0  0  0  0  0  0  0  0  0  0  0  0
    0.3470    9.5927    0.0000 H   0  0  0  0  0  0  0  0  0  0  0  0
    4.9054    9.3572    0.0000 H   0  0  0  0  0  0  0  0  0  0  0  0
    6.7620   11.5026    0.0000 H   0  0  0  0  0  0  0  0  0  0  0  0
    5.8611   14.3641    0.0000 H   0  0  0  0  0  0  0  0  0  0  0  0
    2.9325   15.0147    0.0000 H   0  0  0  0  0  0  0  0  0  0  0  0
    0.9048   12.8037    0.0000 H   0  0  0  0  0  0  0  0  0  0  0  0
    5.6881    8.5473    0.0000 H   0  0  0  0  0  0  0  0  0  0  0  0
    7.5506    6.5303    0.0000 H   0  0  0  0  0  0  0  0  0  0  0  0
    6.5322    9.1872    0.0000 H   0  0  0  0  0  0  0  0  0  0  0  0
    5.0572    8.1830    0.0000 H   0  0  0  0  0  0  0  0  0  0  0  0
    8.3184    9.5174    0.0000 H   0  0  0  0  0  0  0  0  0  0  0  0
    8.9852    4.4160    0.0000 H   0  0  0  0  0  0  0  0  0  0  0  0
    9.3838    1.5464    0.0000 H   0  0  0  0  0  0  0  0  0  0  0  0
    9.8851    4.5937    0.0000 H   0  0  0  0  0  0  0  0  0  0  0  0
    8.2575    4.4507    0.0000 H   0  0  0  0  0  0  0  0  0  0  0  0
   11.7905    1.8829    0.0000 H   0  0  0  0  0  0  0  0  0  0  0  0
   10.2459    1.3504    0.0000 H   0  0  0  0  0  0  0  0  0  0  0  0
   12.4262    5.1348    0.0000 H   0  0  0  0  0  0  0  0  0  0  0  0
   10.6614    4.8704    0.0000 H   0  0  0  0  0  0  0  0  0  0  0  0
   13.4616    1.8800    0.0000 H   0  0  0  0  0  0  0  0  0  0  0  0
   16.8047    4.8923    0.0000 H   0  0  0  0  0  0  0  0  0  0  0  0
   16.0027    2.4211    0.0000 H   0  0  0  0  0  0  0  0  0  0  0  0
   15.0655    6.8224    0.0000 H   0  0  0  0  0  0  0  0  0  0  0  0
   12.5244    6.2813    0.0000 H   0  0  0  0  0  0  0  0  0  0  0  0
    9.5254   -0.8420    0.0000 H   0  0  0  0  0  0  0  0  0  0  0  0
    8.3693   -3.7047    0.0000 H   0  0  0  0  0  0  0  0  0  0  0  0
    7.5142   -4.8422    0.0000 H   0  0  0  0  0  0  0  0  0  0  0  0
    7.2866   -5.3174    0.0000 H   0  0  0  0  0  0  0  0  0  0  0  0
    6.4782   -6.0494    0.0000 H   0  0  0  0  0  0  0  0  0  0  0  0
    6.0922   -6.3756    0.0000 H   0  0  0  0  0  0  0  0  0  0  0  0
    5.0576   -7.0933    0.0000 H   0  0  0  0  0  0  0  0  0  0  0  0
    4.6169   -7.3406    0.0000 H   0  0  0  0  0  0  0  0  0  0  0  0
    3.4651   -7.8495    0.0000 H   0  0  0  0  0  0  0  0  0  0  0  0
    2.9855   -8.0089    0.0000 H   0  0  0  0  0  0  0  0  0  0  0  0
    1.7583   -8.2906    0.0000 H   0  0  0  0  0  0  0  0  0  0  0  0
    1.2572   -8.3564    0.0000 H   0  0  0  0  0  0  0  0  0  0  0  0
   -0.1654   -8.3197    0.0000 H   0  0  0  0  0  0  0  0  0  0  0  0
   -1.1490   -8.4101    0.0000 H   0  0  0  0  0  0  0  0  0  0  0  0
    8.2274   -4.8806    0.0000 H   0  0  0  0  0  0  0  0  0  0  0  0
    9.5775   -4.3467    0.0000 H   0  0  0  0  0  0  0  0  0  0  0  0
    9.7174   -2.5490    0.0000 H   0  0  0  0  0  0  0  0  0  0  0  0
    9.6648   -4.5312    0.0000 H   0  0  0  0  0  0  0  0  0  0  0  0
   11.0049   -1.4159    0.0000 H   0  0  0  0  0  0  0  0  0  0  0  0
   13.6410   -0.8498    0.0000 H   0  0  0  0  0  0  0  0  0  0  0  0
   11.8587   -0.9368    0.0000 H   0  0  0  0  0  0  0  0  0  0  0  0
   13.7686   -4.3269    0.0000 H   0  0  0  0  0  0  0  0  0  0  0  0
   16.8433   -2.5608    0.0000 H   0  0  0  0  0  0  0  0  0  0  0  0
   16.3848   -0.9926    0.0000 H   0  0  0  0  0  0  0  0  0  0  0  0
   14.6052   -0.8617    0.0000 H   0  0  0  0  0  0  0  0  0  0  0  0
   14.8733   -5.5142    0.0000 H   0  0  0  0  0  0  0  0  0  0  0  0
   16.5269   -4.2772    0.0000 H   0  0  0  0  0  0  0  0  0  0  0  0
   16.1579   -3.0151    0.0000 H   0  0  0  0  0  0  0  0  0  0  0  0
   14.7849   -2.5171    0.0000 H   0  0  0  0  0  0  0  0  0  0  0  0
   13.4928   -5.4801    0.0000 H   0  0  0  0  0  0  0  0  0  0  0  0
   16.1777   -7.5948    0.0000 H   0  0  0  0  0  0  0  0  0  0  0  0
   16.8607   -6.1106    0.0000 H   0  0  0  0  0  0  0  0  0  0  0  0
   13.0899   -8.1979    0.0000 H   0  0  0  0  0  0  0  0  0  0  0  0
   13.3137   -6.4275    0.0000 H   0  0  0  0  0  0  0  0  0  0  0  0
   14.4111  -11.4325    0.0000 H   0  0  0  0  0  0  0  0  0  0  0  0
   12.4416   -9.7381    0.0000 H   0  0  0  0  0  0  0  0  0  0  0  0
   16.9556   -7.2870    0.0000 H   0  0  0  0  0  0  0  0  0  0  0  0
   18.2957   -4.1717    0.0000 H   0  0  0  0  0  0  0  0  0  0  0  0
   21.0777   -3.7164    0.0000 H   0  0  0  0  0  0  0  0  0  0  0  0
   19.1495   -3.6926    0.0000 H   0  0  0  0  0  0  0  0  0  0  0  0
   23.9871   -5.6514    0.0000 H   0  0  0  0  0  0  0  0  0  0  0  0
   22.7158   -3.3856    0.0000 H   0  0  0  0  0  0  0  0  0  0  0  0
  1  2  1  0
  2  3  1  0
  3  4  1  0
  4  5  2  0
  4  6  1  0
  6  7  1  0
  7  8  1  0
  8  9  1  0
  8 10  1  0
 10 11  1  0
  7 12  1  0
 12 13  2  0
 12 14  1  0
 14 15  1  0
 15 16  1  0
 16 17  1  0
 17 18  1  0
 18 19  1  0
 18 20  2  0
 15 21  1  0
 21 22  2  0
 21 23  1  0
 23 24  1  0
 24 25  1  0
 25 26  1  0
 26 27  2  0
 26 28  1  0
 24 29  1  0
 29 30  2  0
 29 31  1  0
 32 31  1  6
 32 33  1  0
 33 34  1  0
 34 35  1  0
 35 36  1  0
 32 37  1  0
 32 38  1  0
 38 39  2  0
 38 40  1  0
 40 41  1  0
 41 42  1  0
 42 43  1  0
 43 44  1  0
 43 45  1  0
 41 46  1  0
 46 47  2  0
 46 48  1  0
 48 49  1  0
 49 50  1  0
 49 51  1  0
 51 52  2  0
 51 53  1  0
 53 54  1  0
 54 55  1  0
 55 56  1  0
 56 57  2  0
 57 58  1  0
 58 59  2  0
 59 60  1  0
 60 61  2  0
 54 62  1  0
 62 63  2  0
 62 64  1  0
 64 65  1  0
 65 66  1  0
 66 67  1  0
 67 68  2  0
 68 69  1  0
 69 70  2  0
 70 71  1  0
 71 72  2  0
 65 73  1  0
 73 74  2  0
 73 75  1  0
 75 76  1  0
 76 77  1  0
 77 78  1  0
 76 79  1  0
 79 80  2  0
 79 81  1  0
 81 82  1  0
 82 83  1  0
 83 84  1  0
 84 85  1  0
 85 86  1  0
 86 87  1  0
 87 88  2  3
 87 89  1  0
 82 90  1  0
 90 91  2  0
 90 92  1  0
 92 93  1  0
 93 94  1  0
 94 95  1  0
 95 96  1  0
 96 97  1  0
 97 98  1  0
 98 99  1  0
 99100  1  0
 93101  1  0
 93102  1  1
102103  2  0
102104  1  0
104105  1  0
105106  1  0
106107  1  0
107108  1  0
107109  1  0
105110  1  0
110111  2  0
110112  1  0
112113  1  0
113114  1  0
114115  1  0
115116  1  0
116117  1  0
116118  2  0
113119  1  0
119120  2  0
119121  1  0
121122  1  0
122123  1  0
123124  1  0
124125  1  0
124126  2  0
122127  1  0
127128  2  0
127129  1  0
 61 56  1  0
 72 67  1  0
 36100  2  0
  1130  1  0
  1131  1  0
  2132  1  0
  2133  1  0
  3134  1  0
  3135  1  0
  6136  1  0
  7137  1  6
  8138  1  1
  9139  1  0
  9140  1  0
  9141  1  0
 10142  1  0
 10143  1  0
 11144  1  0
 11145  1  0
 11146  1  0
 14147  1  0
 15148  1  6
 16149  1  0
 16150  1  0
 17151  1  0
 17152  1  0
 19153  1  0
 19154  1  0
 23155  1  0
 24156  1  1
 25157  1  0
 25158  1  0
 31159  1  0
 33160  1  0
 33161  1  0
 34162  1  0
 34163  1  0
 35164  1  0
 35165  1  0
 36166  1  0
 37167  1  0
 37168  1  0
 37169  1  0
 40170  1  0
 41171  1  1
 42172  1  0
 42173  1  0
 43174  1  0
 44175  1  0
 44176  1  0
 44177  1  0
 45178  1  0
 45179  1  0
 45180  1  0
 48181  1  0
 49182  1  1
 50183  1  0
 50184  1  0
 50185  1  0
 53186  1  0
 54187  1  1
 55188  1  0
 55189  1  0
 57190  1  0
 58191  1  0
 59192  1  0
 60193  1  0
 61194  1  0
 64195  1  0
 65196  1  1
 66197  1  0
 66198  1  0
 68199  1  0
 69200  1  0
 70201  1  0
 71202  1  0
 72203  1  0
 75204  1  0
 76205  1  1
 77206  1  0
 77207  1  0
 78208  1  0
 81209  1  0
 82210  1  1
 83211  1  0
 83212  1  0
 84213  1  0
 84214  1  0
 85215  1  0
 85216  1  0
 86217  1  0
 88218  1  0
 88219  1  0
 89220  1  0
 89221  1  0
 92222  1  0
 94223  1  0
 94224  1  0
 95225  1  0
 95226  1  0
 96227  1  0
 96228  1  0
 97229  1  0
 97230  1  0
 98231  1  0
 98232  1  0
 99233  1  0
 99234  1  0
100235  1  0
101236  1  0
101237  1  0
101238  1  0
104239  1  0
105240  1  1
106241  1  0
106242  1  0
107243  1  0
108244  1  0
108245  1  0
108246  1  0
109247  1  0
109248  1  0
109249  1  0
112250  1  0
113251  1  6
114252  1  0
114253  1  0
115254  1  0
115255  1  0
117256  1  0
117257  1  0
121258  1  0
122259  1  1
123260  1  0
123261  1  0
125262  1  0
125263  1  0
M  CHG  3  28  -1  88   1 129  -1
M  END
