
     RDKit          2D

338344  0  0  0  0  0  0  0  0999 V2000
  -29.2710   -2.1326    0.0000 C   0  0  0  0  0  0  0  0  0  0  0  0
  -30.4180   -3.0993    0.0000 N   0  0  0  0  0  0  0  0  0  0  0  0
  -31.8287   -2.5892    0.0000 C   0  0  0  0  0  0  0  0  0  0  0  0
  -32.0923   -1.1126    0.0000 C   0  0  0  0  0  0  0  0  0  0  0  0
  -33.5029   -0.6026    0.0000 C   0  0  0  0  0  0  0  0  0  0  0  0
  -34.6499   -1.5692    0.0000 C   0  0  0  0  0  0  0  0  0  0  0  0
  -34.3863   -3.0459    0.0000 C   0  0  0  0  0  0  0  0  0  0  0  0
  -32.9757   -3.5559    0.0000 C   0  0  0  0  0  0  0  0  0  0  0  0
  -35.7092   -3.7529    0.0000 C   0  0  0  0  0  0  0  0  0  0  0  0
  -36.7905   -2.7133    0.0000 O   0  0  0  0  0  0  0  0  0  0  0  0
  -36.1358   -1.3637    0.0000 C   0  0  0  0  0  0  0  0  0  0  0  0
  -36.8428   -0.0407    0.0000 O   0  0  0  0  0  0  0  0  0  0  0  0
  -37.0988   -4.3178    0.0000 C   0  0  0  0  0  0  0  0  0  0  0  0
  -37.3044   -5.8037    0.0000 C   0  0  0  0  0  0  0  0  0  0  0  0
  -38.6939   -6.3686    0.0000 C   0  0  0  0  0  0  0  0  0  0  0  0
  -39.8779   -5.4476    0.0000 C   0  0  0  0  0  0  0  0  0  0  0  0
  -39.6723   -3.9618    0.0000 C   0  0  0  0  0  0  0  0  0  0  0  0
  -38.2828   -3.3969    0.0000 C   0  0  0  0  0  0  0  0  0  0  0  0
  -41.2675   -6.0125    0.0000 O   0  0  0  0  0  0  0  0  0  0  0  0
  -36.1204   -6.7246    0.0000 O   0  0  0  0  0  0  0  0  0  0  0  0
  -34.7308   -6.1597    0.0000 C   0  0  0  0  0  0  0  0  0  0  0  0
  -34.5252   -4.6739    0.0000 C   0  0  0  0  0  0  0  0  0  0  0  0
  -33.2316   -4.8024    0.0000 C   0  0  0  0  0  0  0  0  0  0  0  0
  -32.6001   -5.2936    0.0000 C   0  0  0  0  0  0  0  0  0  0  0  0
  -32.7098   -6.0860    0.0000 C   0  0  0  0  0  0  0  0  0  0  0  0
  -33.4509   -6.3873    0.0000 C   0  0  0  0  0  0  0  0  0  0  0  0
  -30.9732   -7.4367    0.0000 O   0  0  0  0  0  0  0  0  0  0  0  0
  -29.5347   -0.6560    0.0000 S   0  0  0  0  0  0  0  0  0  0  0  0
  -27.8604   -2.6426    0.0000 N   0  0  0  0  0  0  0  0  0  0  0  0
  -26.7134   -1.6760    0.0000 C   0  0  0  0  0  0  0  0  0  0  0  0
  -25.3028   -2.1860    0.0000 C   0  0  0  0  0  0  0  0  0  0  0  0
  -24.1558   -1.2193    0.0000 C   0  0  0  0  0  0  0  0  0  0  0  0
  -24.4194    0.2573    0.0000 O   0  0  0  0  0  0  0  0  0  0  0  0
  -22.7451   -1.7293    0.0000 N   0  0  0  0  0  0  0  0  0  0  0  0
  -21.5981   -0.7627    0.0000 C   0  0  0  0  0  0  0  0  0  0  0  0
  -20.8509    0.5379    0.0000 C   0  0  0  0  0  0  0  0  0  0  0  0
  -19.3625    0.7240    0.0000 C   0  0  0  0  0  0  0  0  0  0  0  0
  -20.5936    2.0157    0.0000 C   0  0  0  0  0  0  0  0  0  0  0  0
  -21.7448    2.9774    0.0000 C   0  0  0  0  0  0  0  0  0  0  0  0
  -20.1875   -1.2727    0.0000 C   0  0  0  0  0  0  0  0  0  0  0  0
  -19.9239   -2.7494    0.0000 O   0  0  0  0  0  0  0  0  0  0  0  0
  -19.0405   -0.3061    0.0000 N   0  0  0  0  0  0  0  0  0  0  0  0
  -17.6299   -0.8161    0.0000 C   0  0  0  0  0  0  0  0  0  0  0  0
  -16.4787   -1.7778    0.0000 C   0  0  0  0  0  0  0  0  0  0  0  0
  -16.7360   -3.2556    0.0000 C   0  0  0  0  0  0  0  0  0  0  0  0
  -15.5849   -4.2173    0.0000 C   0  0  0  0  0  0  0  0  0  0  0  0
  -17.4833   -4.5562    0.0000 C   0  0  0  0  0  0  0  0  0  0  0  0
  -16.4829    0.1506    0.0000 C   0  0  0  0  0  0  0  0  0  0  0  0
  -16.7465    1.6272    0.0000 O   0  0  0  0  0  0  0  0  0  0  0  0
  -15.0722   -0.3594    0.0000 N   0  0  0  0  0  0  0  0  0  0  0  0
  -13.9252    0.6072    0.0000 C   0  0  0  0  0  0  0  0  0  0  0  0
  -13.1780    1.9078    0.0000 C   0  0  0  0  0  0  0  0  0  0  0  0
  -11.6780    1.9111    0.0000 C   0  0  0  0  0  0  0  0  0  0  0  0
  -10.9308    3.2117    0.0000 C   0  0  0  0  0  0  0  0  0  0  0  0
   -9.4308    3.2149    0.0000 C   0  0  0  0  0  0  0  0  0  0  0  0
   -8.6836    4.5156    0.0000 N   0  0  0  0  0  0  0  0  0  0  0  0
  -12.5146    0.0972    0.0000 C   0  0  0  0  0  0  0  0  0  0  0  0
  -12.2510   -1.3795    0.0000 O   0  0  0  0  0  0  0  0  0  0  0  0
  -11.3676    1.0638    0.0000 N   0  0  0  0  0  0  0  0  0  0  0  0
   -9.9570    0.5538    0.0000 C   0  0  0  0  0  0  0  0  0  0  0  0
   -8.8058   -0.4079    0.0000 C   0  0  0  0  0  0  0  0  0  0  0  0
   -8.8100    1.5205    0.0000 C   0  0  0  0  0  0  0  0  0  0  0  0
   -8.7278    2.7327    0.0000 O   0  0  0  0  0  0  0  0  0  0  0  0
   -7.3993    1.0105    0.0000 N   0  0  0  0  0  0  0  0  0  0  0  0
   -6.2523    1.9771    0.0000 C   0  0  0  0  0  0  0  0  0  0  0  0
   -5.5051    3.2778    0.0000 C   0  0  0  0  0  0  0  0  0  0  0  0
   -4.1823    3.9849    0.0000 O   0  0  0  0  0  0  0  0  0  0  0  0
   -4.8417    1.4671    0.0000 C   0  0  0  0  0  0  0  0  0  0  0  0
   -4.7600   -0.0307    0.0000 O   0  0  0  0  0  0  0  0  0  0  0  0
   -3.6947    2.4337    0.0000 N   0  0  0  0  0  0  0  0  0  0  0  0
   -2.2841    1.9237    0.0000 C   0  0  0  0  0  0  0  0  0  0  0  0
   -1.7331    0.5286    0.0000 C   0  0  0  0  0  0  0  0  0  0  0  0
   -0.7953   -0.6421    0.0000 C   0  0  0  0  0  0  0  0  0  0  0  0
    0.4458   -1.4845    0.0000 C   0  0  0  0  0  0  0  0  0  0  0  0
    1.8801   -1.9235    0.0000 C   0  0  0  0  0  0  0  0  0  0  0  0
   -3.4525    0.9831    0.0000 C   0  0  0  0  0  0  0  0  0  0  0  0
   -2.3994    3.4193    0.0000 C   0  0  0  0  0  0  0  0  0  0  0  0
   -3.2410    3.6955    0.0000 O   0  0  0  0  0  0  0  0  0  0  0  0
   -2.0687    4.8824    0.0000 N   0  0  0  0  0  0  0  0  0  0  0  0
   -1.3215    6.1831    0.0000 C   0  0  0  0  0  0  0  0  0  0  0  0
   -1.8023    7.6039    0.0000 C   0  0  0  0  0  0  0  0  0  0  0  0
   -3.2732    7.8980    0.0000 C   0  0  0  0  0  0  0  0  0  0  0  0
   -3.7540    9.3188    0.0000 O   0  0  0  0  0  0  0  0  0  0  0  0
   -4.2633    6.7712    0.0000 O   0  0  0  0  0  0  0  0  0  0  0  0
   -0.2241    7.2057    0.0000 C   0  0  0  0  0  0  0  0  0  0  0  0
   -1.0718    8.4432    0.0000 O   0  0  0  0  0  0  0  0  0  0  0  0
    1.1259    7.8594    0.0000 N   0  0  0  0  0  0  0  0  0  0  0  0
    2.6087    8.0861    0.0000 C   0  0  0  0  0  0  0  0  0  0  0  0
    3.4198    9.3479    0.0000 C   0  0  0  0  0  0  0  0  0  0  0  0
    2.7326   10.6812    0.0000 C   0  0  0  0  0  0  0  0  0  0  0  0
    3.5437   11.9430    0.0000 C   0  0  0  0  0  0  0  0  0  0  0  0
    2.8566   13.2764    0.0000 C   0  0  0  0  0  0  0  0  0  0  0  0
    1.3583   13.3479    0.0000 C   0  0  0  0  0  0  0  0  0  0  0  0
    0.6711   14.6813    0.0000 O   0  0  0  0  0  0  0  0  0  0  0  0
    0.5472   12.0861    0.0000 C   0  0  0  0  0  0  0  0  0  0  0  0
    1.2343   10.7528    0.0000 C   0  0  0  0  0  0  0  0  0  0  0  0
    4.0924    7.8657    0.0000 C   0  0  0  0  0  0  0  0  0  0  0  0
    4.5315    9.3001    0.0000 O   0  0  0  0  0  0  0  0  0  0  0  0
    5.4453    7.2178    0.0000 N   0  0  0  0  0  0  0  0  0  0  0  0
    6.5470    6.1999    0.0000 C   0  0  0  0  0  0  0  0  0  0  0  0
    8.0392    6.3525    0.0000 C   0  0  0  0  0  0  0  0  0  0  0  0
    8.4818    7.7857    0.0000 C   0  0  0  0  0  0  0  0  0  0  0  0
    9.4936    5.9855    0.0000 C   0  0  0  0  0  0  0  0  0  0  0  0
   10.5387    7.0615    0.0000 C   0  0  0  0  0  0  0  0  0  0  0  0
    7.2998    4.9025    0.0000 C   0  0  0  0  0  0  0  0  0  0  0  0
    8.7517    5.2793    0.0000 O   0  0  0  0  0  0  0  0  0  0  0  0
    7.6367    3.4408    0.0000 N   0  0  0  0  0  0  0  0  0  0  0  0
    7.5278    1.9448    0.0000 C   0  0  0  0  0  0  0  0  0  0  0  0
    6.9828    0.5473    0.0000 C   0  0  0  0  0  0  0  0  0  0  0  0
    6.0501   -0.6275    0.0000 C   0  0  0  0  0  0  0  0  0  0  0  0
    4.8125   -1.4751    0.0000 C   0  0  0  0  0  0  0  0  0  0  0  0
    3.3801   -1.9203    0.0000 C   0  0  0  0  0  0  0  0  0  0  0  0
    8.9363    2.4608    0.0000 C   0  0  0  0  0  0  0  0  0  0  0  0
    8.5775    0.8732    0.0000 C   0  0  0  0  0  0  0  0  0  0  0  0
    8.5359   -0.6262    0.0000 O   0  0  0  0  0  0  0  0  0  0  0  0
   10.0303    1.2465    0.0000 N   0  0  0  0  0  0  0  0  0  0  0  0
   11.0800    0.1749    0.0000 C   0  0  0  0  0  0  0  0  0  0  0  0
   11.6998   -1.1910    0.0000 C   0  0  0  0  0  0  0  0  0  0  0  0
   10.8268   -2.4108    0.0000 C   0  0  0  0  0  0  0  0  0  0  0  0
   11.4467   -3.7767    0.0000 C   0  0  0  0  0  0  0  0  0  0  0  0
   10.5737   -4.9965    0.0000 C   0  0  0  0  0  0  0  0  0  0  0  0
   11.1935   -6.3624    0.0000 N   0  0  0  0  0  0  0  0  0  0  0  0
   12.5328    0.5482    0.0000 C   0  0  0  0  0  0  0  0  0  0  0  0
   12.9359    1.9930    0.0000 O   0  0  0  0  0  0  0  0  0  0  0  0
   13.5824   -0.5234    0.0000 N   0  0  0  0  0  0  0  0  0  0  0  0
   15.0352   -0.1501    0.0000 C   0  0  0  0  0  0  0  0  0  0  0  0
   16.2728    0.6975    0.0000 C   0  0  0  0  0  0  0  0  0  0  0  0
   17.6256    0.0496    0.0000 C   0  0  0  0  0  0  0  0  0  0  0  0
   18.8632    0.8972    0.0000 C   0  0  0  0  0  0  0  0  0  0  0  0
   18.6753   -1.0220    0.0000 C   0  0  0  0  0  0  0  0  0  0  0  0
   16.0849   -1.2217    0.0000 C   0  0  0  0  0  0  0  0  0  0  0  0
   15.6817   -2.6665    0.0000 O   0  0  0  0  0  0  0  0  0  0  0  0
   17.5377   -0.8484    0.0000 N   0  0  0  0  0  0  0  0  0  0  0  0
   18.5874   -1.9200    0.0000 C   0  0  0  0  0  0  0  0  0  0  0  0
   19.2072   -3.2859    0.0000 C   0  0  0  0  0  0  0  0  0  0  0  0
   18.3342   -4.5057    0.0000 C   0  0  0  0  0  0  0  0  0  0  0  0
   18.9541   -5.8716    0.0000 C   0  0  0  0  0  0  0  0  0  0  0  0
   18.0811   -7.0914    0.0000 N   0  0  0  0  0  0  0  0  0  0  0  0
   20.4470   -6.0178    0.0000 O   0  0  0  0  0  0  0  0  0  0  0  0
   20.0402   -1.5467    0.0000 C   0  0  0  0  0  0  0  0  0  0  0  0
   20.6165   -0.1618    0.0000 O   0  0  0  0  0  0  0  0  0  0  0  0
   21.0899   -2.6183    0.0000 N   0  0  0  0  0  0  0  0  0  0  0  0
   22.5427   -2.2450    0.0000 C   0  0  0  0  0  0  0  0  0  0  0  0
   23.7802   -1.3974    0.0000 C   0  0  0  0  0  0  0  0  0  0  0  0
   25.1331   -2.0453    0.0000 C   0  0  0  0  0  0  0  0  0  0  0  0
   26.3706   -1.1977    0.0000 C   0  0  0  0  0  0  0  0  0  0  0  0
   27.7234   -1.8456    0.0000 N   0  0  0  0  0  0  0  0  0  0  0  0
   28.9610   -0.9980    0.0000 C   0  0  0  0  0  0  0  0  0  0  0  0
   30.2248   -1.8060    0.0000 N   0  0  0  0  0  0  0  0  0  0  0  0
   28.8457    0.4976    0.0000 N   0  0  0  0  0  0  0  0  0  0  0  0
   23.5923   -3.3166    0.0000 C   0  0  0  0  0  0  0  0  0  0  0  0
   23.1892   -4.7614    0.0000 O   0  0  0  0  0  0  0  0  0  0  0  0
   25.0451   -2.9433    0.0000 N   0  0  0  0  0  0  0  0  0  0  0  0
   26.0948   -4.0149    0.0000 C   0  0  0  0  0  0  0  0  0  0  0  0
   26.7147   -5.3808    0.0000 C   0  0  0  0  0  0  0  0  0  0  0  0
   25.8417   -6.6006    0.0000 C   0  0  0  0  0  0  0  0  0  0  0  0
   26.4615   -7.9665    0.0000 C   0  0  0  0  0  0  0  0  0  0  0  0
   25.5885   -9.1863    0.0000 O   0  0  0  0  0  0  0  0  0  0  0  0
   27.9544   -8.1127    0.0000 O   0  0  0  0  0  0  0  0  0  0  0  0
   27.5476   -3.6416    0.0000 C   0  0  0  0  0  0  0  0  0  0  0  0
   28.0877   -2.6908    0.0000 O   0  0  0  0  0  0  0  0  0  0  0  0
   28.5973   -4.7132    0.0000 N   0  0  0  0  0  0  0  0  0  0  0  0
   30.0501   -4.3399    0.0000 C   0  0  0  0  0  0  0  0  0  0  0  0
   31.2876   -3.4923    0.0000 C   0  0  0  0  0  0  0  0  0  0  0  0
   32.6405   -4.1402    0.0000 C   0  0  0  0  0  0  0  0  0  0  0  0
   33.8780   -3.2926    0.0000 C   0  0  0  0  0  0  0  0  0  0  0  0
   35.2309   -3.9405    0.0000 N   0  0  0  0  0  0  0  0  0  0  0  0
   33.7627   -1.7970    0.0000 O   0  0  0  0  0  0  0  0  0  0  0  0
   31.0997   -5.4115    0.0000 C   0  0  0  0  0  0  0  0  0  0  0  0
   32.5872   -5.2181    0.0000 O   0  0  0  0  0  0  0  0  0  0  0  0
   30.6966   -6.8563    0.0000 O   0  0  0  0  0  0  0  0  0  0  0  0
  -29.9764   -4.5328    0.0000 H   0  0  0  0  0  0  0  0  0  0  0  0
  -30.9453   -0.1460    0.0000 H   0  0  0  0  0  0  0  0  0  0  0  0
  -33.7666    0.8741    0.0000 H   0  0  0  0  0  0  0  0  0  0  0  0
  -32.5734   -4.4541    0.0000 H   0  0  0  0  0  0  0  0  0  0  0  0
  -38.8995   -7.8544    0.0000 H   0  0  0  0  0  0  0  0  0  0  0  0
  -40.8563   -3.0408    0.0000 H   0  0  0  0  0  0  0  0  0  0  0  0
  -38.0772   -1.9110    0.0000 H   0  0  0  0  0  0  0  0  0  0  0  0
  -42.4515   -5.0915    0.0000 H   0  0  0  0  0  0  0  0  0  0  0  0
  -32.9301   -2.6231    0.0000 H   0  0  0  0  0  0  0  0  0  0  0  0
  -30.5036   -4.6387    0.0000 H   0  0  0  0  0  0  0  0  0  0  0  0
  -33.7524   -8.5665    0.0000 H   0  0  0  0  0  0  0  0  0  0  0  0
  -31.1788   -8.9226    0.0000 H   0  0  0  0  0  0  0  0  0  0  0  0
  -27.5968   -4.1193    0.0000 H   0  0  0  0  0  0  0  0  0  0  0  0
  -25.9662   -0.3753    0.0000 H   0  0  0  0  0  0  0  0  0  0  0  0
  -27.8645   -0.7143    0.0000 H   0  0  0  0  0  0  0  0  0  0  0  0
  -24.1516   -3.1477    0.0000 H   0  0  0  0  0  0  0  0  0  0  0  0
  -26.0500   -3.4866    0.0000 H   0  0  0  0  0  0  0  0  0  0  0  0
  -22.4815   -3.2060    0.0000 H   0  0  0  0  0  0  0  0  0  0  0  0
  -22.7493    0.1990    0.0000 H   0  0  0  0  0  0  0  0  0  0  0  0
  -22.3132    0.8722    0.0000 H   0  0  0  0  0  0  0  0  0  0  0  0
  -18.4507    1.7410    0.0000 H   0  0  0  0  0  0  0  0  0  0  0  0
  -17.9403    0.0312    0.0000 H   0  0  0  0  0  0  0  0  0  0  0  0
  -18.8842   -0.8844    0.0000 H   0  0  0  0  0  0  0  0  0  0  0  0
  -19.8464    3.3164    0.0000 H   0  0  0  0  0  0  0  0  0  0  0  0
  -19.1015    1.8622    0.0000 H   0  0  0  0  0  0  0  0  0  0  0  0
  -21.4875    4.4552    0.0000 H   0  0  0  0  0  0  0  0  0  0  0  0
  -23.1554    3.4874    0.0000 H   0  0  0  0  0  0  0  0  0  0  0  0
  -22.6449    1.7776    0.0000 H   0  0  0  0  0  0  0  0  0  0  0  0
  -18.9390    1.1905    0.0000 H   0  0  0  0  0  0  0  0  0  0  0  0
  -18.5301   -2.0159    0.0000 H   0  0  0  0  0  0  0  0  0  0  0  0
  -15.0681   -2.2878    0.0000 H   0  0  0  0  0  0  0  0  0  0  0  0
  -15.4390   -0.6966    0.0000 H   0  0  0  0  0  0  0  0  0  0  0  0
  -18.1983   -2.9213    0.0000 H   0  0  0  0  0  0  0  0  0  0  0  0
  -15.6602   -5.7154    0.0000 H   0  0  0  0  0  0  0  0  0  0  0  0
  -14.1743   -4.7273    0.0000 H   0  0  0  0  0  0  0  0  0  0  0  0
  -14.6847   -3.0174    0.0000 H   0  0  0  0  0  0  0  0  0  0  0  0
  -16.8942   -5.9357    0.0000 H   0  0  0  0  0  0  0  0  0  0  0  0
  -18.6303   -5.5228    0.0000 H   0  0  0  0  0  0  0  0  0  0  0  0
  -18.6344   -3.5945    0.0000 H   0  0  0  0  0  0  0  0  0  0  0  0
  -14.6306   -1.7929    0.0000 H   0  0  0  0  0  0  0  0  0  0  0  0
  -15.0764    1.5689    0.0000 H   0  0  0  0  0  0  0  0  0  0  0  0
  -13.1028    3.4060    0.0000 H   0  0  0  0  0  0  0  0  0  0  0  0
  -14.5887    2.4179    0.0000 H   0  0  0  0  0  0  0  0  0  0  0  0
  -10.3401    1.2329    0.0000 H   0  0  0  0  0  0  0  0  0  0  0  0
  -11.2113    0.4855    0.0000 H   0  0  0  0  0  0  0  0  0  0  0  0
  -10.8556    4.7098    0.0000 H   0  0  0  0  0  0  0  0  0  0  0  0
  -12.2688    3.8899    0.0000 H   0  0  0  0  0  0  0  0  0  0  0  0
   -7.9685    2.8807    0.0000 H   0  0  0  0  0  0  0  0  0  0  0  0
   -9.5061    1.7168    0.0000 H   0  0  0  0  0  0  0  0  0  0  0  0
   -7.1944    4.3359    0.0000 H   0  0  0  0  0  0  0  0  0  0  0  0
   -8.4263    5.9933    0.0000 H   0  0  0  0  0  0  0  0  0  0  0  0
  -10.0216    5.1937    0.0000 H   0  0  0  0  0  0  0  0  0  0  0  0
  -11.2661    2.5604    0.0000 H   0  0  0  0  0  0  0  0  0  0  0  0
  -10.7042   -0.7468    0.0000 H   0  0  0  0  0  0  0  0  0  0  0  0
   -9.0631   -1.8856    0.0000 H   0  0  0  0  0  0  0  0  0  0  0  0
   -7.4679   -1.0860    0.0000 H   0  0  0  0  0  0  0  0  0  0  0  0
   -7.7661    0.6733    0.0000 H   0  0  0  0  0  0  0  0  0  0  0  0
   -6.9577   -0.4230    0.0000 H   0  0  0  0  0  0  0  0  0  0  0  0
   -7.2777    3.0720    0.0000 H   0  0  0  0  0  0  0  0  0  0  0  0
   -5.2478    4.7555    0.0000 H   0  0  0  0  0  0  0  0  0  0  0  0
   -6.9674    3.6120    0.0000 H   0  0  0  0  0  0  0  0  0  0  0  0
   -3.3375    4.6898    0.0000 H   0  0  0  0  0  0  0  0  0  0  0  0
   -3.9584    3.9104    0.0000 H   0  0  0  0  0  0  0  0  0  0  0  0
   -3.2289    0.4170    0.0000 H   0  0  0  0  0  0  0  0  0  0  0  0
   -2.4145   -0.8077    0.0000 H   0  0  0  0  0  0  0  0  0  0  0  0
   -2.1147   -1.3558    0.0000 H   0  0  0  0  0  0  0  0  0  0  0  0
   -1.2308   -2.0775    0.0000 H   0  0  0  0  0  0  0  0  0  0  0  0
   -0.7272   -2.4193    0.0000 H   0  0  0  0  0  0  0  0  0  0  0  0
    0.6355   -2.9724    0.0000 H   0  0  0  0  0  0  0  0  0  0  0  0
    1.6598   -3.4072    0.0000 H   0  0  0  0  0  0  0  0  0  0  0  0
   -3.3176   -0.6774    0.0000 H   0  0  0  0  0  0  0  0  0  0  0  0
   -4.5738    0.0503    0.0000 H   0  0  0  0  0  0  0  0  0  0  0  0
   -4.4464    1.8490    0.0000 H   0  0  0  0  0  0  0  0  0  0  0  0
   -3.3894    5.5937    0.0000 H   0  0  0  0  0  0  0  0  0  0  0  0
   -2.8144    6.3292    0.0000 H   0  0  0  0  0  0  0  0  0  0  0  0
   -1.7681    9.1035    0.0000 H   0  0  0  0  0  0  0  0  0  0  0  0
   -0.4185    8.1827    0.0000 H   0  0  0  0  0  0  0  0  0  0  0  0
    0.5094    9.2268    0.0000 H   0  0  0  0  0  0  0  0  0  0  0  0
    1.7922    9.3444    0.0000 H   0  0  0  0  0  0  0  0  0  0  0  0
    4.6136   10.2562    0.0000 H   0  0  0  0  0  0  0  0  0  0  0  0
    4.7351    8.6269    0.0000 H   0  0  0  0  0  0  0  0  0  0  0  0
    5.0420   11.8715    0.0000 H   0  0  0  0  0  0  0  0  0  0  0  0
    3.6677   14.5381    0.0000 H   0  0  0  0  0  0  0  0  0  0  0  0
   -0.8272   14.7528    0.0000 H   0  0  0  0  0  0  0  0  0  0  0  0
   -0.9511   12.1577    0.0000 H   0  0  0  0  0  0  0  0  0  0  0  0
    0.2755    9.5993    0.0000 H   0  0  0  0  0  0  0  0  0  0  0  0
    6.2876    8.4590    0.0000 H   0  0  0  0  0  0  0  0  0  0  0  0
    6.8447    7.6701    0.0000 H   0  0  0  0  0  0  0  0  0  0  0  0
    8.2956    4.8745    0.0000 H   0  0  0  0  0  0  0  0  0  0  0  0
   10.1223    8.0757    0.0000 H   0  0  0  0  0  0  0  0  0  0  0  0
    8.7621    9.2171    0.0000 H   0  0  0  0  0  0  0  0  0  0  0  0
    7.2544    8.2626    0.0000 H   0  0  0  0  0  0  0  0  0  0  0  0
   10.7348    5.1431    0.0000 H   0  0  0  0  0  0  0  0  0  0  0  0
    9.0510    4.5522    0.0000 H   0  0  0  0  0  0  0  0  0  0  0  0
   11.9931    6.6945    0.0000 H   0  0  0  0  0  0  0  0  0  0  0  0
   11.1527    8.4301    0.0000 H   0  0  0  0  0  0  0  0  0  0  0  0
    9.5382    8.1791    0.0000 H   0  0  0  0  0  0  0  0  0  0  0  0
    9.1323    3.5561    0.0000 H   0  0  0  0  0  0  0  0  0  0  0  0
    7.6700   -0.7860    0.0000 H   0  0  0  0  0  0  0  0  0  0  0  0
    8.4551    0.2605    0.0000 H   0  0  0  0  0  0  0  0  0  0  0  0
    6.4918   -2.0610    0.0000 H   0  0  0  0  0  0  0  0  0  0  0  0
    7.3725   -1.3355    0.0000 H   0  0  0  0  0  0  0  0  0  0  0  0
    4.6292   -2.9638    0.0000 H   0  0  0  0  0  0  0  0  0  0  0  0
    5.9896   -2.4049    0.0000 H   0  0  0  0  0  0  0  0  0  0  0  0
    3.6069   -3.4031    0.0000 H   0  0  0  0  0  0  0  0  0  0  0  0
   10.2859    1.8062    0.0000 H   0  0  0  0  0  0  0  0  0  0  0  0
    9.9569    3.5601    0.0000 H   0  0  0  0  0  0  0  0  0  0  0  0
    8.5198    3.9019    0.0000 H   0  0  0  0  0  0  0  0  0  0  0  0
   10.6066    2.6314    0.0000 H   0  0  0  0  0  0  0  0  0  0  0  0
    9.7483   -0.5155    0.0000 H   0  0  0  0  0  0  0  0  0  0  0  0
   12.7495   -2.2626    0.0000 H   0  0  0  0  0  0  0  0  0  0  0  0
   13.1057   -0.6680    0.0000 H   0  0  0  0  0  0  0  0  0  0  0  0
    9.4952   -3.1013    0.0000 H   0  0  0  0  0  0  0  0  0  0  0  0
    9.6544   -1.4752    0.0000 H   0  0  0  0  0  0  0  0  0  0  0  0
   12.6191   -4.7123    0.0000 H   0  0  0  0  0  0  0  0  0  0  0  0
   12.7783   -3.0863    0.0000 H   0  0  0  0  0  0  0  0  0  0  0  0
    9.3361   -5.8441    0.0000 H   0  0  0  0  0  0  0  0  0  0  0  0
    9.4012   -4.0609    0.0000 H   0  0  0  0  0  0  0  0  0  0  0  0
   10.3205   -7.5822    0.0000 H   0  0  0  0  0  0  0  0  0  0  0  0
   12.2432   -7.4340    0.0000 H   0  0  0  0  0  0  0  0  0  0  0  0
   12.5252   -5.6720    0.0000 H   0  0  0  0  0  0  0  0  0  0  0  0
   13.3584   -2.0065    0.0000 H   0  0  0  0  0  0  0  0  0  0  0  0
   14.4154    1.2158    0.0000 H   0  0  0  0  0  0  0  0  0  0  0  0
   16.9906    2.0146    0.0000 H   0  0  0  0  0  0  0  0  0  0  0  0
   15.2231    1.7691    0.0000 H   0  0  0  0  0  0  0  0  0  0  0  0
   17.4276   -1.4373    0.0000 H   0  0  0  0  0  0  0  0  0  0  0  0
   20.3326    0.5959    0.0000 H   0  0  0  0  0  0  0  0  0  0  0  0
   19.7362    2.1170    0.0000 H   0  0  0  0  0  0  0  0  0  0  0  0
   17.9520    2.0887    0.0000 H   0  0  0  0  0  0  0  0  0  0  0  0
   18.6337   -2.5214    0.0000 H   0  0  0  0  0  0  0  0  0  0  0  0
   20.1705   -1.1419    0.0000 H   0  0  0  0  0  0  0  0  0  0  0  0
   19.6905    0.0823    0.0000 H   0  0  0  0  0  0  0  0  0  0  0  0
   18.2785    0.4559    0.0000 H   0  0  0  0  0  0  0  0  0  0  0  0
   17.2557   -2.6104    0.0000 H   0  0  0  0  0  0  0  0  0  0  0  0
   20.1184   -4.4774    0.0000 H   0  0  0  0  0  0  0  0  0  0  0  0
   20.6664   -2.9382    0.0000 H   0  0  0  0  0  0  0  0  0  0  0  0
   17.0967   -5.3533    0.0000 H   0  0  0  0  0  0  0  0  0  0  0  0
   17.1618   -3.5701    0.0000 H   0  0  0  0  0  0  0  0  0  0  0  0
   18.7010   -8.4573    0.0000 H   0  0  0  0  0  0  0  0  0  0  0  0
   16.5882   -6.9453    0.0000 H   0  0  0  0  0  0  0  0  0  0  0  0
   20.8658   -4.1014    0.0000 H   0  0  0  0  0  0  0  0  0  0  0  0
   21.9228   -0.8791    0.0000 H   0  0  0  0  0  0  0  0  0  0  0  0
   24.4980   -0.0803    0.0000 H   0  0  0  0  0  0  0  0  0  0  0  0
   22.7306   -0.3258    0.0000 H   0  0  0  0  0  0  0  0  0  0  0  0
   26.1827   -3.1169    0.0000 H   0  0  0  0  0  0  0  0  0  0  0  0
   24.9351   -3.5322    0.0000 H   0  0  0  0  0  0  0  0  0  0  0  0
   27.2436    0.0221    0.0000 H   0  0  0  0  0  0  0  0  0  0  0  0
   25.4594   -0.0062    0.0000 H   0  0  0  0  0  0  0  0  0  0  0  0
   28.1972   -3.2688    0.0000 H   0  0  0  0  0  0  0  0  0  0  0  0
   31.5514   -0.7983    0.0000 H   0  0  0  0  0  0  0  0  0  0  0  0
   30.2648   -3.1564    0.0000 H   0  0  0  0  0  0  0  0  0  0  0  0
   30.0832    1.3452    0.0000 H   0  0  0  0  0  0  0  0  0  0  0  0
   27.4928    1.1455    0.0000 H   0  0  0  0  0  0  0  0  0  0  0  0
   25.7859   -1.6390    0.0000 H   0  0  0  0  0  0  0  0  0  0  0  0
   24.7632   -4.7053    0.0000 H   0  0  0  0  0  0  0  0  0  0  0  0
   27.6259   -6.5723    0.0000 H   0  0  0  0  0  0  0  0  0  0  0  0
   28.1205   -4.8578    0.0000 H   0  0  0  0  0  0  0  0  0  0  0  0
   24.6041   -7.4482    0.0000 H   0  0  0  0  0  0  0  0  0  0  0  0
   24.6692   -5.6650    0.0000 H   0  0  0  0  0  0  0  0  0  0  0  0
   28.3732   -6.1964    0.0000 H   0  0  0  0  0  0  0  0  0  0  0  0
   29.4302   -2.9740    0.0000 H   0  0  0  0  0  0  0  0  0  0  0  0
   32.1606   -2.2725    0.0000 H   0  0  0  0  0  0  0  0  0  0  0  0
   30.0099   -2.7066    0.0000 H   0  0  0  0  0  0  0  0  0  0  0  0
   33.6901   -5.2118    0.0000 H   0  0  0  0  0  0  0  0  0  0  0  0
   32.2627   -5.5919    0.0000 H   0  0  0  0  0  0  0  0  0  0  0  0
   36.4684   -3.0929    0.0000 H   0  0  0  0  0  0  0  0  0  0  0  0
   35.3462   -5.4361    0.0000 H   0  0  0  0  0  0  0  0  0  0  0  0
  1  2  1  0
  2  3  1  0
  3  4  2  0
  4  5  1  0
  5  6  2  0
  6  7  1  0
  7  8  2  0
  7  9  1  0
  9 10  1  0
 10 11  1  0
 11 12  2  0
  9 13  1  0
 13 14  1  0
 14 15  2  0
 15 16  1  0
 16 17  2  0
 17 18  1  0
 16 19  1  0
 14 20  1  0
 20 21  1  0
 21 22  2  0
 22 23  1  0
 23 24  2  0
 24 25  1  0
 25 26  2  0
 25 27  1  0
  1 28  2  0
  1 29  1  0
 29 30  1  0
 30 31  1  0
 31 32  1  0
 32 33  2  0
 32 34  1  0
 34 35  1  0
 35 36  1  0
 36 37  1  0
 36 38  1  0
 38 39  1  0
 35 40  1  0
 40 41  2  0
 40 42  1  0
 42 43  1  0
 43 44  1  0
 44 45  1  0
 45 46  1  0
 45 47  1  0
 43 48  1  0
 48 49  2  0
 48 50  1  0
 50 51  1  0
 51 52  1  0
 52 53  1  0
 53 54  1  0
 54 55  1  0
 55 56  1  0
 51 57  1  0
 57 58  2  0
 57 59  1  0
 59 60  1  0
 60 61  1  0
 60 62  1  0
 62 63  2  0
 62 64  1  0
 64 65  1  0
 65 66  1  0
 66 67  1  0
 65 68  1  0
 68 69  2  0
 68 70  1  0
 71 70  1  6
 71 72  1  0
 72 73  1  0
 73 74  1  0
 74 75  1  0
 71 76  1  0
 71 77  1  0
 77 78  2  0
 77 79  1  0
 79 80  1  0
 80 81  1  0
 81 82  1  0
 82 83  2  0
 82 84  1  0
 80 85  1  0
 85 86  2  0
 85 87  1  0
 87 88  1  0
 88 89  1  0
 89 90  1  0
 90 91  2  0
 91 92  1  0
 92 93  2  0
 93 94  1  0
 93 95  1  0
 95 96  2  0
 88 97  1  0
 97 98  2  0
 97 99  1  0
 99100  1  0
100101  1  0
101102  1  0
101103  1  0
103104  1  0
100105  1  0
105106  2  0
105107  1  0
107108  1  0
108109  1  0
109110  1  0
110111  1  0
111112  1  0
108113  1  0
108114  1  6
114115  2  0
114116  1  0
116117  1  0
117118  1  0
118119  1  0
119120  1  0
120121  1  0
121122  1  0
117123  1  0
123124  2  0
123125  1  0
125126  1  0
126127  1  0
127128  1  0
128129  1  0
128130  1  0
126131  1  0
131132  2  0
131133  1  0
133134  1  0
134135  1  0
135136  1  0
136137  1  0
137138  1  0
137139  2  0
134140  1  0
140141  2  0
140142  1  0
142143  1  0
143144  1  0
144145  1  0
145146  1  0
146147  1  0
147148  1  0
148149  2  3
148150  1  0
143151  1  0
151152  2  0
151153  1  0
153154  1  0
154155  1  0
155156  1  0
156157  1  0
157158  2  0
157159  1  0
154160  1  0
160161  2  0
160162  1  0
162163  1  0
163164  1  0
164165  1  0
165166  1  0
166167  1  0
166168  2  0
163169  1  0
169170  2  0
169171  1  0
  8  3  1  0
 96 90  1  0
 11  6  1  0
 75112  2  0
 18 13  2  0
 22  9  1  0
 26 21  1  0
  2172  1  0
  4173  1  0
  5174  1  0
  8175  1  0
 15176  1  0
 17177  1  0
 18178  1  0
 19179  1  0
 23180  1  0
 24181  1  0
 26182  1  0
 27183  1  0
 29184  1  0
 30185  1  0
 30186  1  0
 31187  1  0
 31188  1  0
 34189  1  0
 35190  1  1
 36191  1  1
 37192  1  0
 37193  1  0
 37194  1  0
 38195  1  0
 38196  1  0
 39197  1  0
 39198  1  0
 39199  1  0
 42200  1  0
 43201  1  6
 44202  1  0
 44203  1  0
 45204  1  0
 46205  1  0
 46206  1  0
 46207  1  0
 47208  1  0
 47209  1  0
 47210  1  0
 50211  1  0
 51212  1  1
 52213  1  0
 52214  1  0
 53215  1  0
 53216  1  0
 54217  1  0
 54218  1  0
 55219  1  0
 55220  1  0
 56221  1  0
 56222  1  0
 56223  1  0
 59224  1  0
 60225  1  6
 61226  1  0
 61227  1  0
 61228  1  0
 64229  1  0
 65230  1  1
 66231  1  0
 66232  1  0
 67233  1  0
 70234  1  0
 72235  1  0
 72236  1  0
 73237  1  0
 73238  1  0
 74239  1  0
 74240  1  0
 75241  1  0
 76242  1  0
 76243  1  0
 76244  1  0
 79245  1  0
 80246  1  1
 81247  1  0
 81248  1  0
 87249  1  0
 88250  1  1
 89251  1  0
 89252  1  0
 91253  1  0
 92254  1  0
 94255  1  0
 95256  1  0
 96257  1  0
 99258  1  0
100259  1  1
101260  1  6
102261  1  0
102262  1  0
102263  1  0
103264  1  0
103265  1  0
104266  1  0
104267  1  0
104268  1  0
107269  1  0
109270  1  0
109271  1  0
110272  1  0
110273  1  0
111274  1  0
111275  1  0
112276  1  0
113277  1  0
113278  1  0
113279  1  0
116280  1  0
117281  1  6
118282  1  0
118283  1  0
119284  1  0
119285  1  0
120286  1  0
120287  1  0
121288  1  0
121289  1  0
122290  1  0
122291  1  0
122292  1  0
125293  1  0
126294  1  1
127295  1  0
127296  1  0
128297  1  0
129298  1  0
129299  1  0
129300  1  0
130301  1  0
130302  1  0
130303  1  0
133304  1  0
134305  1  6
135306  1  0
135307  1  0
136308  1  0
136309  1  0
138310  1  0
138311  1  0
142312  1  0
143313  1  1
144314  1  0
144315  1  0
145316  1  0
145317  1  0
146318  1  0
146319  1  0
147320  1  0
149321  1  0
149322  1  0
150323  1  0
150324  1  0
153325  1  0
154326  1  6
155327  1  0
155328  1  0
156329  1  0
156330  1  0
162331  1  0
163332  1  1
164333  1  0
164334  1  0
165335  1  0
165336  1  0
167337  1  0
167338  1  0
M  CHG  6  56   1  84  -1 122   1 149   1 159  -1 171  -1
M  END
