
     RDKit          2D

445453  0  0  0  0  0  0  0  0999 V2000
   45.5369   -0.6934    0.0000 C   0  0  0  0  0  0  0  0  0  0  0  0
   46.8377    0.0535    0.0000 N   0  0  0  0  0  0  0  0  0  0  0  0
   48.1350   -0.6995    0.0000 C   0  0  0  0  0  0  0  0  0  0  0  0
   48.1315   -2.1995    0.0000 C   0  0  0  0  0  0  0  0  0  0  0  0
   49.4287   -2.9526    0.0000 C   0  0  0  0  0  0  0  0  0  0  0  0
   50.7295   -2.2056    0.0000 C   0  0  0  0  0  0  0  0  0  0  0  0
   50.7331   -0.7057    0.0000 C   0  0  0  0  0  0  0  0  0  0  0  0
   49.4358    0.0474    0.0000 C   0  0  0  0  0  0  0  0  0  0  0  0
   52.1607   -0.2455    0.0000 C   0  0  0  0  0  0  0  0  0  0  0  0
   53.0395   -1.4611    0.0000 O   0  0  0  0  0  0  0  0  0  0  0  0
   52.1550   -2.6725    0.0000 C   0  0  0  0  0  0  0  0  0  0  0  0
   52.6152   -4.1002    0.0000 O   0  0  0  0  0  0  0  0  0  0  0  0
   53.6287    0.0629    0.0000 C   0  0  0  0  0  0  0  0  0  0  0  0
   54.0956    1.4884    0.0000 C   0  0  0  0  0  0  0  0  0  0  0  0
   55.5635    1.7968    0.0000 C   0  0  0  0  0  0  0  0  0  0  0  0
   56.5646    0.6797    0.0000 C   0  0  0  0  0  0  0  0  0  0  0  0
   56.0977   -0.7457    0.0000 C   0  0  0  0  0  0  0  0  0  0  0  0
   54.6298   -1.0542    0.0000 C   0  0  0  0  0  0  0  0  0  0  0  0
   58.0325    0.9881    0.0000 O   0  0  0  0  0  0  0  0  0  0  0  0
   53.0945    2.6055    0.0000 O   0  0  0  0  0  0  0  0  0  0  0  0
   51.6266    2.2971    0.0000 C   0  0  0  0  0  0  0  0  0  0  0  0
   51.1597    0.8716    0.0000 C   0  0  0  0  0  0  0  0  0  0  0  0
   49.9096    1.2284    0.0000 C   0  0  0  0  0  0  0  0  0  0  0  0
   49.3757    1.8242    0.0000 C   0  0  0  0  0  0  0  0  0  0  0  0
   49.6247    2.5844    0.0000 C   0  0  0  0  0  0  0  0  0  0  0  0
   50.4076    2.7489    0.0000 C   0  0  0  0  0  0  0  0  0  0  0  0
   48.1565    4.2228    0.0000 O   0  0  0  0  0  0  0  0  0  0  0  0
   45.5334   -2.1934    0.0000 S   0  0  0  0  0  0  0  0  0  0  0  0
   44.2397    0.0596    0.0000 N   0  0  0  0  0  0  0  0  0  0  0  0
   42.9389   -0.6873    0.0000 C   0  0  0  0  0  0  0  0  0  0  0  0
   41.6416    0.0658    0.0000 C   0  0  0  0  0  0  0  0  0  0  0  0
   40.3408   -0.6812    0.0000 C   0  0  0  0  0  0  0  0  0  0  0  0
   40.3373   -2.1812    0.0000 O   0  0  0  0  0  0  0  0  0  0  0  0
   39.0435    0.0719    0.0000 N   0  0  0  0  0  0  0  0  0  0  0  0
   37.7427   -0.6750    0.0000 C   0  0  0  0  0  0  0  0  0  0  0  0
   36.7758   -1.8218    0.0000 C   0  0  0  0  0  0  0  0  0  0  0  0
   35.2992   -1.5579    0.0000 C   0  0  0  0  0  0  0  0  0  0  0  0
   34.3323   -2.7047    0.0000 C   0  0  0  0  0  0  0  0  0  0  0  0
   32.8558   -2.4407    0.0000 C   0  0  0  0  0  0  0  0  0  0  0  0
   31.8889   -3.5875    0.0000 N   0  0  0  0  0  0  0  0  0  0  0  0
   36.4454    0.0780    0.0000 C   0  0  0  0  0  0  0  0  0  0  0  0
   36.4490    1.5780    0.0000 O   0  0  0  0  0  0  0  0  0  0  0  0
   35.1446   -0.6689    0.0000 N   0  0  0  0  0  0  0  0  0  0  0  0
   33.8474    0.0841    0.0000 C   0  0  0  0  0  0  0  0  0  0  0  0
   32.8859    1.2355    0.0000 C   0  0  0  0  0  0  0  0  0  0  0  0
   32.5466   -0.6628    0.0000 C   0  0  0  0  0  0  0  0  0  0  0  0
   32.2498   -1.8410    0.0000 O   0  0  0  0  0  0  0  0  0  0  0  0
   31.2493    0.0903    0.0000 N   0  0  0  0  0  0  0  0  0  0  0  0
   29.9485   -0.6567    0.0000 C   0  0  0  0  0  0  0  0  0  0  0  0
   28.9816   -1.8035    0.0000 C   0  0  0  0  0  0  0  0  0  0  0  0
   28.4653   -3.2118    0.0000 O   0  0  0  0  0  0  0  0  0  0  0  0
   27.4839   -1.7215    0.0000 C   0  0  0  0  0  0  0  0  0  0  0  0
   28.6512    0.0964    0.0000 C   0  0  0  0  0  0  0  0  0  0  0  0
   28.6548    1.5964    0.0000 O   0  0  0  0  0  0  0  0  0  0  0  0
   27.3504   -0.6506    0.0000 N   0  0  0  0  0  0  0  0  0  0  0  0
   26.0532    0.1025    0.0000 C   0  0  0  0  0  0  0  0  0  0  0  0
   25.0917    1.2538    0.0000 C   0  0  0  0  0  0  0  0  0  0  0  0
   25.6081    2.6622    0.0000 C   0  0  0  0  0  0  0  0  0  0  0  0
   24.6466    3.8135    0.0000 C   0  0  0  0  0  0  0  0  0  0  0  0
   25.1629    5.2218    0.0000 O   0  0  0  0  0  0  0  0  0  0  0  0
   23.1688    3.5565    0.0000 O   0  0  0  0  0  0  0  0  0  0  0  0
   24.7524   -0.6444    0.0000 C   0  0  0  0  0  0  0  0  0  0  0  0
   24.7488   -2.1444    0.0000 O   0  0  0  0  0  0  0  0  0  0  0  0
   23.4551    0.1086    0.0000 N   0  0  0  0  0  0  0  0  0  0  0  0
   22.1543   -0.6383    0.0000 C   0  0  0  0  0  0  0  0  0  0  0  0
   21.1874   -1.7851    0.0000 C   0  0  0  0  0  0  0  0  0  0  0  0
   19.7108   -1.5212    0.0000 C   0  0  0  0  0  0  0  0  0  0  0  0
   19.2011   -0.1104    0.0000 C   0  0  0  0  0  0  0  0  0  0  0  0
   17.7245    0.1535    0.0000 C   0  0  0  0  0  0  0  0  0  0  0  0
   16.7576   -0.9933    0.0000 C   0  0  0  0  0  0  0  0  0  0  0  0
   15.2810   -0.7293    0.0000 O   0  0  0  0  0  0  0  0  0  0  0  0
   17.2673   -2.4040    0.0000 C   0  0  0  0  0  0  0  0  0  0  0  0
   18.7439   -2.6679    0.0000 C   0  0  0  0  0  0  0  0  0  0  0  0
   20.8570    0.1147    0.0000 C   0  0  0  0  0  0  0  0  0  0  0  0
   21.0434    1.6031    0.0000 O   0  0  0  0  0  0  0  0  0  0  0  0
   19.5562   -0.6322    0.0000 N   0  0  0  0  0  0  0  0  0  0  0  0
   18.2590    0.1209    0.0000 C   0  0  0  0  0  0  0  0  0  0  0  0
   17.2975    1.2722    0.0000 C   0  0  0  0  0  0  0  0  0  0  0  0
   17.9817    2.6071    0.0000 C   0  0  0  0  0  0  0  0  0  0  0  0
   16.0002    2.0253    0.0000 C   0  0  0  0  0  0  0  0  0  0  0  0
   16.0038    3.5253    0.0000 C   0  0  0  0  0  0  0  0  0  0  0  0
   16.9582   -0.6261    0.0000 C   0  0  0  0  0  0  0  0  0  0  0  0
   16.5918   -2.0806    0.0000 O   0  0  0  0  0  0  0  0  0  0  0  0
   15.6609    0.1270    0.0000 N   0  0  0  0  0  0  0  0  0  0  0  0
   14.3601   -0.6200    0.0000 C   0  0  0  0  0  0  0  0  0  0  0  0
   13.3932   -1.7667    0.0000 C   0  0  0  0  0  0  0  0  0  0  0  0
   11.9166   -1.5028    0.0000 C   0  0  0  0  0  0  0  0  0  0  0  0
   10.9497   -2.6496    0.0000 C   0  0  0  0  0  0  0  0  0  0  0  0
    9.4520   -2.5676    0.0000 N   0  0  0  0  0  0  0  0  0  0  0  0
   11.4594   -4.0603    0.0000 O   0  0  0  0  0  0  0  0  0  0  0  0
   13.0628    0.1331    0.0000 C   0  0  0  0  0  0  0  0  0  0  0  0
   13.2492    1.6215    0.0000 O   0  0  0  0  0  0  0  0  0  0  0  0
   11.7620   -0.6138    0.0000 N   0  0  0  0  0  0  0  0  0  0  0  0
   10.4648    0.1392    0.0000 C   0  0  0  0  0  0  0  0  0  0  0  0
    9.5033    1.2906    0.0000 C   0  0  0  0  0  0  0  0  0  0  0  0
   10.0196    2.6989    0.0000 C   0  0  0  0  0  0  0  0  0  0  0  0
   11.4975    2.9559    0.0000 C   0  0  0  0  0  0  0  0  0  0  0  0
   12.0138    4.3642    0.0000 C   0  0  0  0  0  0  0  0  0  0  0  0
   11.0523    5.5155    0.0000 C   0  0  0  0  0  0  0  0  0  0  0  0
   11.5687    6.9239    0.0000 O   0  0  0  0  0  0  0  0  0  0  0  0
    9.5745    5.2585    0.0000 C   0  0  0  0  0  0  0  0  0  0  0  0
    9.0582    3.8502    0.0000 C   0  0  0  0  0  0  0  0  0  0  0  0
    9.1640   -0.6077    0.0000 C   0  0  0  0  0  0  0  0  0  0  0  0
    8.9776   -2.0961    0.0000 O   0  0  0  0  0  0  0  0  0  0  0  0
    7.8667    0.1453    0.0000 N   0  0  0  0  0  0  0  0  0  0  0  0
    6.5659   -0.6016    0.0000 C   0  0  0  0  0  0  0  0  0  0  0  0
    5.5990   -1.7484    0.0000 C   0  0  0  0  0  0  0  0  0  0  0  0
    4.1224   -1.4844    0.0000 C   0  0  0  0  0  0  0  0  0  0  0  0
    3.1555   -2.6312    0.0000 N   0  0  0  0  0  0  0  0  0  0  0  0
    3.2865   -0.2389    0.0000 O   0  0  0  0  0  0  0  0  0  0  0  0
    5.2686    0.1515    0.0000 C   0  0  0  0  0  0  0  0  0  0  0  0
    5.2722    1.6515    0.0000 O   0  0  0  0  0  0  0  0  0  0  0  0
    3.9678   -0.5955    0.0000 N   0  0  0  0  0  0  0  0  0  0  0  0
    2.6706    0.1576    0.0000 C   0  0  0  0  0  0  0  0  0  0  0  0
    1.7091    1.3089    0.0000 C   0  0  0  0  0  0  0  0  0  0  0  0
    0.2313    1.0519    0.0000 C   0  0  0  0  0  0  0  0  0  0  0  0
   -0.7302    2.2033    0.0000 C   0  0  0  0  0  0  0  0  0  0  0  0
   -2.2080    1.9463    0.0000 N   0  0  0  0  0  0  0  0  0  0  0  0
   -3.1695    3.0976    0.0000 C   0  0  0  0  0  0  0  0  0  0  0  0
   -4.6050    2.6624    0.0000 N   0  0  0  0  0  0  0  0  0  0  0  0
   -2.6532    4.5059    0.0000 N   0  0  0  0  0  0  0  0  0  0  0  0
    1.3697   -0.5893    0.0000 C   0  0  0  0  0  0  0  0  0  0  0  0
    1.1834   -2.0777    0.0000 O   0  0  0  0  0  0  0  0  0  0  0  0
    0.0725    0.1637    0.0000 N   0  0  0  0  0  0  0  0  0  0  0  0
   -1.2283   -0.5832    0.0000 C   0  0  0  0  0  0  0  0  0  0  0  0
   -2.1952   -1.7300    0.0000 C   0  0  0  0  0  0  0  0  0  0  0  0
   -3.6718   -1.4661    0.0000 C   0  0  0  0  0  0  0  0  0  0  0  0
   -4.6387   -2.6129    0.0000 C   0  0  0  0  0  0  0  0  0  0  0  0
   -6.1153   -2.3489    0.0000 N   0  0  0  0  0  0  0  0  0  0  0  0
   -7.0822   -3.4957    0.0000 C   0  0  0  0  0  0  0  0  0  0  0  0
   -8.5156   -3.0537    0.0000 N   0  0  0  0  0  0  0  0  0  0  0  0
   -6.5725   -4.9064    0.0000 N   0  0  0  0  0  0  0  0  0  0  0  0
   -2.5256    0.1698    0.0000 C   0  0  0  0  0  0  0  0  0  0  0  0
   -2.8851    1.6261    0.0000 O   0  0  0  0  0  0  0  0  0  0  0  0
   -3.8264   -0.5771    0.0000 N   0  0  0  0  0  0  0  0  0  0  0  0
   -5.1237    0.1760    0.0000 C   0  0  0  0  0  0  0  0  0  0  0  0
   -6.0851    1.3273    0.0000 C   0  0  0  0  0  0  0  0  0  0  0  0
   -7.5629    1.0703    0.0000 C   0  0  0  0  0  0  0  0  0  0  0  0
   -8.5244    2.2216    0.0000 C   0  0  0  0  0  0  0  0  0  0  0  0
  -10.0022    1.9646    0.0000 C   0  0  0  0  0  0  0  0  0  0  0  0
  -10.9637    3.1160    0.0000 N   0  0  0  0  0  0  0  0  0  0  0  0
   -6.4245   -0.5710    0.0000 C   0  0  0  0  0  0  0  0  0  0  0  0
   -6.7908   -2.0255    0.0000 O   0  0  0  0  0  0  0  0  0  0  0  0
   -7.7217    0.1821    0.0000 N   0  0  0  0  0  0  0  0  0  0  0  0
   -9.0225   -0.5649    0.0000 C   0  0  0  0  0  0  0  0  0  0  0  0
   -9.9894   -1.7117    0.0000 C   0  0  0  0  0  0  0  0  0  0  0  0
  -11.4660   -1.4477    0.0000 C   0  0  0  0  0  0  0  0  0  0  0  0
  -12.4329   -2.5945    0.0000 N   0  0  0  0  0  0  0  0  0  0  0  0
  -12.3019   -0.2022    0.0000 O   0  0  0  0  0  0  0  0  0  0  0  0
  -10.3198    0.1882    0.0000 C   0  0  0  0  0  0  0  0  0  0  0  0
  -10.6793    1.6445    0.0000 O   0  0  0  0  0  0  0  0  0  0  0  0
  -11.6206   -0.5587    0.0000 N   0  0  0  0  0  0  0  0  0  0  0  0
  -12.9179    0.1943    0.0000 C   0  0  0  0  0  0  0  0  0  0  0  0
  -13.8793    1.3457    0.0000 C   0  0  0  0  0  0  0  0  0  0  0  0
  -15.3572    1.0887    0.0000 C   0  0  0  0  0  0  0  0  0  0  0  0
  -16.0179   -0.2580    0.0000 C   0  0  0  0  0  0  0  0  0  0  0  0
  -17.5028   -0.0457    0.0000 N   0  0  0  0  0  0  0  0  0  0  0  0
  -17.7598    1.4321    0.0000 C   0  0  0  0  0  0  0  0  0  0  0  0
  -16.4337    2.1332    0.0000 N   0  0  0  0  0  0  0  0  0  0  0  0
  -14.2187   -0.5526    0.0000 C   0  0  0  0  0  0  0  0  0  0  0  0
  -14.4050   -2.0410    0.0000 O   0  0  0  0  0  0  0  0  0  0  0  0
  -15.5159    0.2004    0.0000 N   0  0  0  0  0  0  0  0  0  0  0  0
  -16.8167   -0.5465    0.0000 C   0  0  0  0  0  0  0  0  0  0  0  0
  -17.7836   -1.6933    0.0000 C   0  0  0  0  0  0  0  0  0  0  0  0
  -18.3000   -3.1016    0.0000 O   0  0  0  0  0  0  0  0  0  0  0  0
  -19.2802   -1.7945    0.0000 C   0  0  0  0  0  0  0  0  0  0  0  0
  -18.1140    0.2066    0.0000 C   0  0  0  0  0  0  0  0  0  0  0  0
  -18.4735    1.6628    0.0000 O   0  0  0  0  0  0  0  0  0  0  0  0
  -19.4148   -0.5404    0.0000 N   0  0  0  0  0  0  0  0  0  0  0  0
  -20.7121    0.2127    0.0000 C   0  0  0  0  0  0  0  0  0  0  0  0
  -21.6735    1.3640    0.0000 C   0  0  0  0  0  0  0  0  0  0  0  0
  -23.1514    1.1070    0.0000 C   0  0  0  0  0  0  0  0  0  0  0  0
  -23.8121   -0.2396    0.0000 C   0  0  0  0  0  0  0  0  0  0  0  0
  -25.2970   -0.0274    0.0000 N   0  0  0  0  0  0  0  0  0  0  0  0
  -25.5540    1.4505    0.0000 C   0  0  0  0  0  0  0  0  0  0  0  0
  -24.2279    2.1516    0.0000 N   0  0  0  0  0  0  0  0  0  0  0  0
  -22.0129   -0.5343    0.0000 C   0  0  0  0  0  0  0  0  0  0  0  0
  -22.0164   -2.0342    0.0000 O   0  0  0  0  0  0  0  0  0  0  0  0
  -23.3101    0.2188    0.0000 N   0  0  0  0  0  0  0  0  0  0  0  0
  -24.6109   -0.5281    0.0000 C   0  0  0  0  0  0  0  0  0  0  0  0
  -25.5778   -1.6749    0.0000 C   0  0  0  0  0  0  0  0  0  0  0  0
  -27.0544   -1.4110    0.0000 C   0  0  0  0  0  0  0  0  0  0  0  0
  -28.0213   -2.5578    0.0000 C   0  0  0  0  0  0  0  0  0  0  0  0
  -29.5191   -2.4758    0.0000 N   0  0  0  0  0  0  0  0  0  0  0  0
  -27.5116   -3.9685    0.0000 O   0  0  0  0  0  0  0  0  0  0  0  0
  -25.9082    0.2249    0.0000 C   0  0  0  0  0  0  0  0  0  0  0  0
  -26.2677    1.6812    0.0000 O   0  0  0  0  0  0  0  0  0  0  0  0
  -27.2090   -0.5220    0.0000 N   0  0  0  0  0  0  0  0  0  0  0  0
  -28.5063    0.2310    0.0000 C   0  0  0  0  0  0  0  0  0  0  0  0
  -29.4677    1.3824    0.0000 C   0  0  0  0  0  0  0  0  0  0  0  0
  -30.9456    1.1254    0.0000 C   0  0  0  0  0  0  0  0  0  0  0  0
  -31.9070    2.2767    0.0000 C   0  0  0  0  0  0  0  0  0  0  0  0
  -33.4052    2.2018    0.0000 N   0  0  0  0  0  0  0  0  0  0  0  0
  -31.3907    3.6851    0.0000 O   0  0  0  0  0  0  0  0  0  0  0  0
  -29.8071   -0.5159    0.0000 C   0  0  0  0  0  0  0  0  0  0  0  0
  -29.9934   -2.0043    0.0000 O   0  0  0  0  0  0  0  0  0  0  0  0
  -31.1043    0.2372    0.0000 N   0  0  0  0  0  0  0  0  0  0  0  0
  -32.4051   -0.5098    0.0000 C   0  0  0  0  0  0  0  0  0  0  0  0
  -33.3720   -1.6566    0.0000 C   0  0  0  0  0  0  0  0  0  0  0  0
  -34.8486   -1.3926    0.0000 C   0  0  0  0  0  0  0  0  0  0  0  0
  -35.8155   -2.5394    0.0000 O   0  0  0  0  0  0  0  0  0  0  0  0
  -35.6846   -0.1471    0.0000 O   0  0  0  0  0  0  0  0  0  0  0  0
  -33.7024    0.2433    0.0000 C   0  0  0  0  0  0  0  0  0  0  0  0
  -33.8818    1.7325    0.0000 O   0  0  0  0  0  0  0  0  0  0  0  0
  -35.0032   -0.5036    0.0000 N   0  0  0  0  0  0  0  0  0  0  0  0
  -36.3005    0.2494    0.0000 C   0  0  0  0  0  0  0  0  0  0  0  0
  -37.2620    1.4007    0.0000 C   0  0  0  0  0  0  0  0  0  0  0  0
  -38.7601    1.3258    0.0000 C   0  0  0  0  0  0  0  0  0  0  0  0
  -37.7717    2.8115    0.0000 C   0  0  0  0  0  0  0  0  0  0  0  0
  -36.8048    3.9583    0.0000 C   0  0  0  0  0  0  0  0  0  0  0  0
  -37.6013   -0.4975    0.0000 C   0  0  0  0  0  0  0  0  0  0  0  0
  -37.6048   -1.9975    0.0000 O   0  0  0  0  0  0  0  0  0  0  0  0
  -38.8986    0.2555    0.0000 N   0  0  0  0  0  0  0  0  0  0  0  0
  -40.1994   -0.4914    0.0000 C   0  0  0  0  0  0  0  0  0  0  0  0
  -41.1662   -1.6382    0.0000 C   0  0  0  0  0  0  0  0  0  0  0  0
  -42.6428   -1.3742    0.0000 C   0  0  0  0  0  0  0  0  0  0  0  0
  -43.6097   -2.5210    0.0000 O   0  0  0  0  0  0  0  0  0  0  0  0
  -43.4788   -0.1288    0.0000 O   0  0  0  0  0  0  0  0  0  0  0  0
  -41.4966    0.2617    0.0000 C   0  0  0  0  0  0  0  0  0  0  0  0
  -41.4931    1.7617    0.0000 O   0  0  0  0  0  0  0  0  0  0  0  0
  -42.7974   -0.4853    0.0000 N   0  0  0  0  0  0  0  0  0  0  0  0
  -44.0947    0.2678    0.0000 C   0  0  0  0  0  0  0  0  0  0  0  0
  -45.0562    1.4191    0.0000 C   0  0  0  0  0  0  0  0  0  0  0  0
  -46.5340    1.1621    0.0000 C   0  0  0  0  0  0  0  0  0  0  0  0
  -47.4955    2.3135    0.0000 O   0  0  0  0  0  0  0  0  0  0  0  0
  -47.3758   -0.0794    0.0000 O   0  0  0  0  0  0  0  0  0  0  0  0
  -45.3955   -0.4792    0.0000 C   0  0  0  0  0  0  0  0  0  0  0  0
  -45.3990   -1.9792    0.0000 O   0  0  0  0  0  0  0  0  0  0  0  0
  -46.6928    0.2739    0.0000 N   0  0  0  0  0  0  0  0  0  0  0  0
  -47.9936   -0.4730    0.0000 C   0  0  0  0  0  0  0  0  0  0  0  0
  -48.9604   -1.6198    0.0000 C   0  0  0  0  0  0  0  0  0  0  0  0
  -50.4370   -1.3559    0.0000 C   0  0  0  0  0  0  0  0  0  0  0  0
  -51.4039   -2.5027    0.0000 C   0  0  0  0  0  0  0  0  0  0  0  0
  -51.7343   -0.6028    0.0000 C   0  0  0  0  0  0  0  0  0  0  0  0
  -49.2908    0.2800    0.0000 C   0  0  0  0  0  0  0  0  0  0  0  0
  -50.6730   -0.3028    0.0000 O   0  0  0  0  0  0  0  0  0  0  0  0
  -49.2873    1.7800    0.0000 O   0  0  0  0  0  0  0  0  0  0  0  0
   46.6584    1.5428    0.0000 H   0  0  0  0  0  0  0  0  0  0  0  0
   46.8307   -2.9465    0.0000 H   0  0  0  0  0  0  0  0  0  0  0  0
   49.4252   -4.4526    0.0000 H   0  0  0  0  0  0  0  0  0  0  0  0
   49.0763    1.5037    0.0000 H   0  0  0  0  0  0  0  0  0  0  0  0
   56.0304    3.2223    0.0000 H   0  0  0  0  0  0  0  0  0  0  0  0
   57.0988   -1.8628    0.0000 H   0  0  0  0  0  0  0  0  0  0  0  0
   54.1629   -2.4796    0.0000 H   0  0  0  0  0  0  0  0  0  0  0  0
   59.0336   -0.1289    0.0000 H   0  0  0  0  0  0  0  0  0  0  0  0
   49.2248   -0.8623    0.0000 H   0  0  0  0  0  0  0  0  0  0  0  0
   47.1960    1.5531    0.0000 H   0  0  0  0  0  0  0  0  0  0  0  0
   51.0924    4.8396    0.0000 H   0  0  0  0  0  0  0  0  0  0  0  0
   48.6234    5.6483    0.0000 H   0  0  0  0  0  0  0  0  0  0  0  0
   44.2432    1.5596    0.0000 H   0  0  0  0  0  0  0  0  0  0  0  0
   41.9720   -1.8341    0.0000 H   0  0  0  0  0  0  0  0  0  0  0  0
   43.9003   -1.8386    0.0000 H   0  0  0  0  0  0  0  0  0  0  0  0
   40.6801    1.2171    0.0000 H   0  0  0  0  0  0  0  0  0  0  0  0
   42.6085    1.2126    0.0000 H   0  0  0  0  0  0  0  0  0  0  0  0
   39.0471    1.5719    0.0000 H   0  0  0  0  0  0  0  0  0  0  0  0
   38.7042   -1.8264    0.0000 H   0  0  0  0  0  0  0  0  0  0  0  0
   36.4350   -3.2826    0.0000 H   0  0  0  0  0  0  0  0  0  0  0  0
   38.0731   -2.5749    0.0000 H   0  0  0  0  0  0  0  0  0  0  0  0
   34.1034   -0.6523    0.0000 H   0  0  0  0  0  0  0  0  0  0  0  0
   35.0938   -0.0720    0.0000 H   0  0  0  0  0  0  0  0  0  0  0  0
   33.8160   -4.1130    0.0000 H   0  0  0  0  0  0  0  0  0  0  0  0
   35.5281   -3.6103    0.0000 H   0  0  0  0  0  0  0  0  0  0  0  0
   31.4764   -1.8514    0.0000 H   0  0  0  0  0  0  0  0  0  0  0  0
   33.1966   -0.9800    0.0000 H   0  0  0  0  0  0  0  0  0  0  0  0
   30.4555   -3.1455    0.0000 H   0  0  0  0  0  0  0  0  0  0  0  0
   32.3986   -4.9983    0.0000 H   0  0  0  0  0  0  0  0  0  0  0  0
   34.7783   -2.1235    0.0000 H   0  0  0  0  0  0  0  0  0  0  0  0
   34.8143    1.2309    0.0000 H   0  0  0  0  0  0  0  0  0  0  0  0
   33.4023    2.6438    0.0000 H   0  0  0  0  0  0  0  0  0  0  0  0
   31.6901    2.1410    0.0000 H   0  0  0  0  0  0  0  0  0  0  0  0
   31.6703    0.3567    0.0000 H   0  0  0  0  0  0  0  0  0  0  0  0
   31.0700    1.5795    0.0000 H   0  0  0  0  0  0  0  0  0  0  0  0
   30.7625   -1.9166    0.0000 H   0  0  0  0  0  0  0  0  0  0  0  0
   30.3610   -2.3928    0.0000 H   0  0  0  0  0  0  0  0  0  0  0  0
   27.0298   -3.6470    0.0000 H   0  0  0  0  0  0  0  0  0  0  0  0
   26.4056   -2.5599    0.0000 H   0  0  0  0  0  0  0  0  0  0  0  0
   26.2078   -0.7865    0.0000 H   0  0  0  0  0  0  0  0  0  0  0  0
   27.2996   -0.0537    0.0000 H   0  0  0  0  0  0  0  0  0  0  0  0
   27.1641   -2.1389    0.0000 H   0  0  0  0  0  0  0  0  0  0  0  0
   27.1526    1.1229    0.0000 H   0  0  0  0  0  0  0  0  0  0  0  0
   23.8959    2.1594    0.0000 H   0  0  0  0  0  0  0  0  0  0  0  0
   23.8761    0.3751    0.0000 H   0  0  0  0  0  0  0  0  0  0  0  0
   26.5749    3.8090    0.0000 H   0  0  0  0  0  0  0  0  0  0  0  0
   26.9874    2.0728    0.0000 H   0  0  0  0  0  0  0  0  0  0  0  0
   22.2073    4.7078    0.0000 H   0  0  0  0  0  0  0  0  0  0  0  0
   23.2758    1.5979    0.0000 H   0  0  0  0  0  0  0  0  0  0  0  0
   23.1158   -1.7897    0.0000 H   0  0  0  0  0  0  0  0  0  0  0  0
   20.6711   -3.1934    0.0000 H   0  0  0  0  0  0  0  0  0  0  0  0
   22.4847   -2.5382    0.0000 H   0  0  0  0  0  0  0  0  0  0  0  0
   20.0210    1.1457    0.0000 H   0  0  0  0  0  0  0  0  0  0  0  0
   16.8886    1.3990    0.0000 H   0  0  0  0  0  0  0  0  0  0  0  0
   14.4612   -1.9854    0.0000 H   0  0  0  0  0  0  0  0  0  0  0  0
   16.3005   -3.5508    0.0000 H   0  0  0  0  0  0  0  0  0  0  0  0
   19.2536   -4.0787    0.0000 H   0  0  0  0  0  0  0  0  0  0  0  0
   19.1898   -2.0868    0.0000 H   0  0  0  0  0  0  0  0  0  0  0  0
   19.3584    1.1412    0.0000 H   0  0  0  0  0  0  0  0  0  0  0  0
   16.0818    0.3934    0.0000 H   0  0  0  0  0  0  0  0  0  0  0  0
   17.0101    3.9604    0.0000 H   0  0  0  0  0  0  0  0  0  0  0  0
   18.7807    3.8273    0.0000 H   0  0  0  0  0  0  0  0  0  0  0  0
   19.1932    2.0912    0.0000 H   0  0  0  0  0  0  0  0  0  0  0  0
   14.5236    2.2892    0.0000 H   0  0  0  0  0  0  0  0  0  0  0  0
   15.1584    0.7837    0.0000 H   0  0  0  0  0  0  0  0  0  0  0  0
   14.7065    4.2783    0.0000 H   0  0  0  0  0  0  0  0  0  0  0  0
   16.5201    4.9336    0.0000 H   0  0  0  0  0  0  0  0  0  0  0  0
   17.5003    3.6264    0.0000 H   0  0  0  0  0  0  0  0  0  0  0  0
   15.3014    1.5833    0.0000 H   0  0  0  0  0  0  0  0  0  0  0  0
   15.3216   -1.7713    0.0000 H   0  0  0  0  0  0  0  0  0  0  0  0
   12.8769   -3.1751    0.0000 H   0  0  0  0  0  0  0  0  0  0  0  0
   14.5890   -2.6723    0.0000 H   0  0  0  0  0  0  0  0  0  0  0  0
   10.6193   -0.7497    0.0000 H   0  0  0  0  0  0  0  0  0  0  0  0
   11.7112   -0.0169    0.0000 H   0  0  0  0  0  0  0  0  0  0  0  0
    8.5062   -3.5324    0.0000 H   0  0  0  0  0  0  0  0  0  0  0  0
    8.5926   -1.1404    0.0000 H   0  0  0  0  0  0  0  0  0  0  0  0
   11.3956   -2.0684    0.0000 H   0  0  0  0  0  0  0  0  0  0  0  0
   11.4316    1.2860    0.0000 H   0  0  0  0  0  0  0  0  0  0  0  0
    8.3075    2.1961    0.0000 H   0  0  0  0  0  0  0  0  0  0  0  0
    8.2876    0.4118    0.0000 H   0  0  0  0  0  0  0  0  0  0  0  0
   12.5921    1.9303    0.0000 H   0  0  0  0  0  0  0  0  0  0  0  0
   13.4916    4.6212    0.0000 H   0  0  0  0  0  0  0  0  0  0  0  0
   10.6072    8.0752    0.0000 H   0  0  0  0  0  0  0  0  0  0  0  0
    8.6130    6.4099    0.0000 H   0  0  0  0  0  0  0  0  0  0  0  0
    7.5803    3.5932    0.0000 H   0  0  0  0  0  0  0  0  0  0  0  0
    7.6874    1.6346    0.0000 H   0  0  0  0  0  0  0  0  0  0  0  0
    7.5274   -1.7529    0.0000 H   0  0  0  0  0  0  0  0  0  0  0  0
    5.0827   -3.1567    0.0000 H   0  0  0  0  0  0  0  0  0  0  0  0
    6.8963   -2.5014    0.0000 H   0  0  0  0  0  0  0  0  0  0  0  0
    1.6578   -2.5492    0.0000 H   0  0  0  0  0  0  0  0  0  0  0  0
    3.6652   -4.0420    0.0000 H   0  0  0  0  0  0  0  0  0  0  0  0
    3.6014   -2.0500    0.0000 H   0  0  0  0  0  0  0  0  0  0  0  0
    3.6374    1.3044    0.0000 H   0  0  0  0  0  0  0  0  0  0  0  0
    1.3751    2.7713    0.0000 H   0  0  0  0  0  0  0  0  0  0  0  0
    3.0099    2.0559    0.0000 H   0  0  0  0  0  0  0  0  0  0  0  0
   -1.0695    0.3050    0.0000 H   0  0  0  0  0  0  0  0  0  0  0  0
    0.0188   -0.4329    0.0000 H   0  0  0  0  0  0  0  0  0  0  0  0
   -1.2399    3.6140    0.0000 H   0  0  0  0  0  0  0  0  0  0  0  0
    0.4698    3.1032    0.0000 H   0  0  0  0  0  0  0  0  0  0  0  0
   -3.1949    0.8166    0.0000 H   0  0  0  0  0  0  0  0  0  0  0  0
   -5.6088    3.9920    0.0000 H   0  0  0  0  0  0  0  0  0  0  0  0
   -3.6146    5.6573    0.0000 H   0  0  0  0  0  0  0  0  0  0  0  0
   -1.1753    4.7629    0.0000 H   0  0  0  0  0  0  0  0  0  0  0  0
   -0.2870    1.6200    0.0000 H   0  0  0  0  0  0  0  0  0  0  0  0
   -0.2668   -1.7346    0.0000 H   0  0  0  0  0  0  0  0  0  0  0  0
   -2.5360   -3.1908    0.0000 H   0  0  0  0  0  0  0  0  0  0  0  0
   -0.8979   -2.4831    0.0000 H   0  0  0  0  0  0  0  0  0  0  0  0
   -4.9691   -0.7130    0.0000 H   0  0  0  0  0  0  0  0  0  0  0  0
   -4.0568   -0.0163    0.0000 H   0  0  0  0  0  0  0  0  0  0  0  0
   -5.1550   -4.0212    0.0000 H   0  0  0  0  0  0  0  0  0  0  0  0
   -3.4429   -3.5184    0.0000 H   0  0  0  0  0  0  0  0  0  0  0  0
   -7.0968   -1.2146    0.0000 H   0  0  0  0  0  0  0  0  0  0  0  0
   -9.5256   -4.3785    0.0000 H   0  0  0  0  0  0  0  0  0  0  0  0
   -7.5393   -6.0532    0.0000 H   0  0  0  0  0  0  0  0  0  0  0  0
   -5.0959   -5.1704    0.0000 H   0  0  0  0  0  0  0  0  0  0  0  0
   -4.1928   -2.0317    0.0000 H   0  0  0  0  0  0  0  0  0  0  0  0
   -4.1568    1.3227    0.0000 H   0  0  0  0  0  0  0  0  0  0  0  0
   -6.4191    2.7896    0.0000 H   0  0  0  0  0  0  0  0  0  0  0  0
   -4.7030    1.9101    0.0000 H   0  0  0  0  0  0  0  0  0  0  0  0
   -8.7630    0.1704    0.0000 H   0  0  0  0  0  0  0  0  0  0  0  0
   -7.9548   -0.3776    0.0000 H   0  0  0  0  0  0  0  0  0  0  0  0
   -9.0341    3.6324    0.0000 H   0  0  0  0  0  0  0  0  0  0  0  0
   -7.3244    3.1216    0.0000 H   0  0  0  0  0  0  0  0  0  0  0  0
  -11.3844    1.3818    0.0000 H   0  0  0  0  0  0  0  0  0  0  0  0
   -9.6683    0.5023    0.0000 H   0  0  0  0  0  0  0  0  0  0  0  0
  -12.3992    2.6808    0.0000 H   0  0  0  0  0  0  0  0  0  0  0  0
  -10.4474    4.5243    0.0000 H   0  0  0  0  0  0  0  0  0  0  0  0
   -8.0813    1.6384    0.0000 H   0  0  0  0  0  0  0  0  0  0  0  0
   -8.0611   -1.7162    0.0000 H   0  0  0  0  0  0  0  0  0  0  0  0
  -10.5058   -3.1200    0.0000 H   0  0  0  0  0  0  0  0  0  0  0  0
   -8.6100   -2.3010    0.0000 H   0  0  0  0  0  0  0  0  0  0  0  0
  -13.9306   -2.5125    0.0000 H   0  0  0  0  0  0  0  0  0  0  0  0
  -11.9232   -4.0052    0.0000 H   0  0  0  0  0  0  0  0  0  0  0  0
  -11.9870   -2.0133    0.0000 H   0  0  0  0  0  0  0  0  0  0  0  0
  -12.0980    1.4504    0.0000 H   0  0  0  0  0  0  0  0  0  0  0  0
  -14.3890    2.7564    0.0000 H   0  0  0  0  0  0  0  0  0  0  0  0
  -12.4972    1.9285    0.0000 H   0  0  0  0  0  0  0  0  0  0  0  0
  -15.1604   -1.4887    0.0000 H   0  0  0  0  0  0  0  0  0  0  0  0
  -18.6708   -0.9869    0.0000 H   0  0  0  0  0  0  0  0  0  0  0  0
  -19.1064    2.0928    0.0000 H   0  0  0  0  0  0  0  0  0  0  0  0
  -15.8755    1.6567    0.0000 H   0  0  0  0  0  0  0  0  0  0  0  0
  -16.0028   -1.8064    0.0000 H   0  0  0  0  0  0  0  0  0  0  0  0
  -16.4864   -2.4463    0.0000 H   0  0  0  0  0  0  0  0  0  0  0  0
  -17.3385   -4.2529    0.0000 H   0  0  0  0  0  0  0  0  0  0  0  0
  -20.2271   -2.5761    0.0000 H   0  0  0  0  0  0  0  0  0  0  0  0
  -20.5575   -0.6763    0.0000 H   0  0  0  0  0  0  0  0  0  0  0  0
  -19.5536    0.0452    0.0000 H   0  0  0  0  0  0  0  0  0  0  0  0
  -19.6012   -2.0288    0.0000 H   0  0  0  0  0  0  0  0  0  0  0  0
  -19.7452    1.3595    0.0000 H   0  0  0  0  0  0  0  0  0  0  0  0
  -22.1832    2.7748    0.0000 H   0  0  0  0  0  0  0  0  0  0  0  0
  -20.3727    2.1110    0.0000 H   0  0  0  0  0  0  0  0  0  0  0  0
  -22.9546   -1.4703    0.0000 H   0  0  0  0  0  0  0  0  0  0  0  0
  -26.5710   -0.8192    0.0000 H   0  0  0  0  0  0  0  0  0  0  0  0
  -26.9006    2.1112    0.0000 H   0  0  0  0  0  0  0  0  0  0  0  0
  -23.6697    1.6751    0.0000 H   0  0  0  0  0  0  0  0  0  0  0  0
  -23.7970   -1.7881    0.0000 H   0  0  0  0  0  0  0  0  0  0  0  0
  -26.0942   -3.0833    0.0000 H   0  0  0  0  0  0  0  0  0  0  0  0
  -24.2806   -2.4280    0.0000 H   0  0  0  0  0  0  0  0  0  0  0  0
  -28.3517   -0.6579    0.0000 H   0  0  0  0  0  0  0  0  0  0  0  0
  -27.2598    0.0749    0.0000 H   0  0  0  0  0  0  0  0  0  0  0  0
  -30.4648   -3.4406    0.0000 H   0  0  0  0  0  0  0  0  0  0  0  0
  -30.5460   -1.1640    0.0000 H   0  0  0  0  0  0  0  0  0  0  0  0
  -27.5754   -1.9766    0.0000 H   0  0  0  0  0  0  0  0  0  0  0  0
  -27.5394    1.3778    0.0000 H   0  0  0  0  0  0  0  0  0  0  0  0
  -29.9775    2.7931    0.0000 H   0  0  0  0  0  0  0  0  0  0  0  0
  -28.1669    2.1293    0.0000 H   0  0  0  0  0  0  0  0  0  0  0  0
  -32.2464    0.3785    0.0000 H   0  0  0  0  0  0  0  0  0  0  0  0
  -31.3374   -0.3225    0.0000 H   0  0  0  0  0  0  0  0  0  0  0  0
  -34.3463    3.1711    0.0000 H   0  0  0  0  0  0  0  0  0  0  0  0
  -34.2713    0.7787    0.0000 H   0  0  0  0  0  0  0  0  0  0  0  0
  -31.4639    1.6934    0.0000 H   0  0  0  0  0  0  0  0  0  0  0  0
  -31.4437   -1.6611    0.0000 H   0  0  0  0  0  0  0  0  0  0  0  0
  -33.8884   -3.0649    0.0000 H   0  0  0  0  0  0  0  0  0  0  0  0
  -32.0748   -2.4096    0.0000 H   0  0  0  0  0  0  0  0  0  0  0  0
  -36.6969    0.5477    0.0000 H   0  0  0  0  0  0  0  0  0  0  0  0
  -35.3696   -1.9582    0.0000 H   0  0  0  0  0  0  0  0  0  0  0  0
  -35.3336    1.3962    0.0000 H   0  0  0  0  0  0  0  0  0  0  0  0
  -35.8798    1.9836    0.0000 H   0  0  0  0  0  0  0  0  0  0  0  0
  -39.8344    2.1693    0.0000 H   0  0  0  0  0  0  0  0  0  0  0  0
  -40.0406    0.3968    0.0000 H   0  0  0  0  0  0  0  0  0  0  0  0
  -38.9522   -0.3411    0.0000 H   0  0  0  0  0  0  0  0  0  0  0  0
  -38.7331    3.9628    0.0000 H   0  0  0  0  0  0  0  0  0  0  0  0
  -39.2145    2.4015    0.0000 H   0  0  0  0  0  0  0  0  0  0  0  0
  -37.3145    5.3690    0.0000 H   0  0  0  0  0  0  0  0  0  0  0  0
  -35.5040    4.7052    0.0000 H   0  0  0  0  0  0  0  0  0  0  0  0
  -35.7101    2.9327    0.0000 H   0  0  0  0  0  0  0  0  0  0  0  0
  -39.2581    1.7118    0.0000 H   0  0  0  0  0  0  0  0  0  0  0  0
  -39.2379   -1.6427    0.0000 H   0  0  0  0  0  0  0  0  0  0  0  0
  -41.6826   -3.0465    0.0000 H   0  0  0  0  0  0  0  0  0  0  0  0
  -39.8690   -2.3913    0.0000 H   0  0  0  0  0  0  0  0  0  0  0  0
  -44.4911    0.5661    0.0000 H   0  0  0  0  0  0  0  0  0  0  0  0
  -43.1638   -1.9398    0.0000 H   0  0  0  0  0  0  0  0  0  0  0  0
  -43.1278    1.4146    0.0000 H   0  0  0  0  0  0  0  0  0  0  0  0
  -45.5659    2.8299    0.0000 H   0  0  0  0  0  0  0  0  0  0  0  0
  -43.7554    2.1660    0.0000 H   0  0  0  0  0  0  0  0  0  0  0  0
  -48.3914   -0.7695    0.0000 H   0  0  0  0  0  0  0  0  0  0  0  0
  -47.0523    1.7302    0.0000 H   0  0  0  0  0  0  0  0  0  0  0  0
  -47.0321   -1.6244    0.0000 H   0  0  0  0  0  0  0  0  0  0  0  0
  -49.3013   -3.0806    0.0000 H   0  0  0  0  0  0  0  0  0  0  0  0
  -47.6632   -2.3729    0.0000 H   0  0  0  0  0  0  0  0  0  0  0  0
  -50.4598    0.1439    0.0000 H   0  0  0  0  0  0  0  0  0  0  0  0
  -52.9017   -2.4207    0.0000 H   0  0  0  0  0  0  0  0  0  0  0  0
  -51.9203   -3.9110    0.0000 H   0  0  0  0  0  0  0  0  0  0  0  0
  -50.2081   -3.4082    0.0000 H   0  0  0  0  0  0  0  0  0  0  0  0
  -53.1165   -1.1856    0.0000 H   0  0  0  0  0  0  0  0  0  0  0  0
  -52.6958    0.5485    0.0000 H   0  0  0  0  0  0  0  0  0  0  0  0
  -50.7674    0.5440    0.0000 H   0  0  0  0  0  0  0  0  0  0  0  0
  -50.5846    2.5331    0.0000 H   0  0  0  0  0  0  0  0  0  0  0  0
  1  2  1  0
  2  3  1  0
  3  4  2  0
  4  5  1  0
  5  6  2  0
  6  7  1  0
  7  8  2  0
  7  9  1  0
  9 10  1  0
 10 11  1  0
 11 12  2  0
  9 13  1  0
 13 14  1  0
 14 15  2  0
 15 16  1  0
 16 17  2  0
 17 18  1  0
 16 19  1  0
 14 20  1  0
 20 21  1  0
 21 22  2  0
 22 23  1  0
 23 24  2  0
 24 25  1  0
 25 26  2  0
 25 27  1  0
  1 28  2  0
  1 29  1  0
 29 30  1  0
 30 31  1  0
 31 32  1  0
 32 33  2  0
 32 34  1  0
 34 35  1  0
 35 36  1  0
 36 37  1  0
 37 38  1  0
 38 39  1  0
 39 40  1  0
 35 41  1  0
 41 42  2  0
 41 43  1  0
 43 44  1  0
 44 45  1  0
 44 46  1  0
 46 47  2  0
 46 48  1  0
 48 49  1  0
 49 50  1  0
 50 51  1  0
 50 52  1  0
 49 53  1  0
 53 54  2  0
 53 55  1  0
 55 56  1  0
 56 57  1  0
 57 58  1  0
 58 59  1  0
 59 60  2  0
 59 61  1  0
 56 62  1  0
 62 63  2  0
 62 64  1  0
 64 65  1  0
 65 66  1  0
 66 67  1  0
 67 68  2  0
 68 69  1  0
 69 70  2  0
 70 71  1  0
 70 72  1  0
 72 73  2  0
 65 74  1  0
 74 75  2  0
 74 76  1  0
 76 77  1  0
 77 78  1  0
 78 79  1  0
 78 80  1  0
 80 81  1  0
 77 82  1  0
 82 83  2  0
 82 84  1  0
 84 85  1  0
 85 86  1  0
 86 87  1  0
 87 88  1  0
 88 89  1  0
 88 90  2  0
 85 91  1  0
 91 92  2  0
 91 93  1  0
 93 94  1  0
 94 95  1  0
 95 96  1  0
 96 97  2  0
 97 98  1  0
 98 99  2  0
 99100  1  0
 99101  1  0
101102  2  0
 94103  1  0
103104  2  0
103105  1  0
105106  1  0
106107  1  0
107108  1  0
108109  1  0
108110  2  0
106111  1  0
111112  2  0
111113  1  0
113114  1  0
114115  1  0
115116  1  0
116117  1  0
117118  1  0
118119  1  0
119120  2  3
119121  1  0
114122  1  0
122123  2  0
122124  1  0
124125  1  0
125126  1  0
126127  1  0
127128  1  0
128129  1  0
129130  1  0
130131  2  3
130132  1  0
125133  1  0
133134  2  0
133135  1  0
135136  1  0
136137  1  0
137138  1  0
138139  1  0
139140  1  0
140141  1  0
136142  1  0
142143  2  0
142144  1  0
144145  1  0
145146  1  0
146147  1  0
147148  1  0
147149  2  0
145150  1  0
150151  2  0
150152  1  0
152153  1  0
153154  1  0
154155  1  0
155156  2  0
156157  1  0
157158  1  0
158159  2  0
153160  1  0
160161  2  0
160162  1  0
162163  1  0
163164  1  0
164165  1  0
164166  1  0
163167  1  0
167168  2  0
167169  1  0
169170  1  0
170171  1  0
171172  1  0
172173  2  0
173174  1  0
174175  1  0
175176  2  0
170177  1  0
177178  2  0
177179  1  0
179180  1  0
180181  1  0
181182  1  0
182183  1  0
183184  1  0
183185  2  0
180186  1  0
186187  2  0
186188  1  0
188189  1  0
189190  1  0
190191  1  0
191192  1  0
192193  1  0
192194  2  0
189195  1  0
195196  2  0
195197  1  0
197198  1  0
198199  1  0
199200  1  0
200201  2  0
200202  1  0
198203  1  0
203204  2  0
203205  1  0
205206  1  0
206207  1  0
207208  1  0
207209  1  0
209210  1  0
206211  1  0
211212  2  0
211213  1  0
213214  1  0
214215  1  0
215216  1  0
216217  2  0
216218  1  0
214219  1  0
219220  2  0
219221  1  0
221222  1  0
222223  1  0
223224  1  0
224225  2  0
224226  1  0
222227  1  0
227228  2  0
227229  1  0
229230  1  0
230231  1  0
231232  1  0
232233  1  0
232234  1  0
230235  1  0
235236  2  0
235237  1  0
  8  3  1  0
 73 67  1  0
102 96  1  0
159155  1  0
176172  1  0
 11  6  1  0
 18 13  2  0
 22  9  1  0
 26 21  1  0
  2238  1  0
  4239  1  0
  5240  1  0
  8241  1  0
 15242  1  0
 17243  1  0
 18244  1  0
 19245  1  0
 23246  1  0
 24247  1  0
 26248  1  0
 27249  1  0
 29250  1  0
 30251  1  0
 30252  1  0
 31253  1  0
 31254  1  0
 34255  1  0
 35256  1  1
 36257  1  0
 36258  1  0
 37259  1  0
 37260  1  0
 38261  1  0
 38262  1  0
 39263  1  0
 39264  1  0
 40265  1  0
 40266  1  0
 43267  1  0
 44268  1  6
 45269  1  0
 45270  1  0
 45271  1  0
 48272  1  0
 49273  1  1
 50274  1  1
 51275  1  0
 52276  1  0
 52277  1  0
 52278  1  0
 55279  1  0
 56280  1  6
 57281  1  0
 57282  1  0
 58283  1  0
 58284  1  0
 61285  1  0
 64286  1  0
 65287  1  1
 66288  1  0
 66289  1  0
 68290  1  0
 69291  1  0
 71292  1  0
 72293  1  0
 73294  1  0
 76295  1  0
 77296  1  6
 78297  1  1
 79298  1  0
 79299  1  0
 79300  1  0
 80301  1  0
 80302  1  0
 81303  1  0
 81304  1  0
 81305  1  0
 84306  1  0
 85307  1  1
 86308  1  0
 86309  1  0
 87310  1  0
 87311  1  0
 89312  1  0
 89313  1  0
 93314  1  0
 94315  1  6
 95316  1  0
 95317  1  0
 97318  1  0
 98319  1  0
100320  1  0
101321  1  0
102322  1  0
105323  1  0
106324  1  6
107325  1  0
107326  1  0
109327  1  0
109328  1  0
113329  1  0
114330  1  6
115331  1  0
115332  1  0
116333  1  0
116334  1  0
117335  1  0
117336  1  0
118337  1  0
120338  1  0
121339  1  0
121340  1  0
124341  1  0
125342  1  1
126343  1  0
126344  1  0
127345  1  0
127346  1  0
128347  1  0
128348  1  0
129349  1  0
131350  1  0
132351  1  0
132352  1  0
135353  1  0
136354  1  6
137355  1  0
137356  1  0
138357  1  0
138358  1  0
139359  1  0
139360  1  0
140361  1  0
140362  1  0
141363  1  0
141364  1  0
144365  1  0
145366  1  1
146367  1  0
146368  1  0
148369  1  0
148370  1  0
152371  1  0
153372  1  6
154373  1  0
154374  1  0
156375  1  0
157376  1  0
158377  1  0
162378  1  0
163379  1  1
164380  1  1
165381  1  0
166382  1  0
166383  1  0
166384  1  0
169385  1  0
170386  1  6
171387  1  0
171388  1  0
173389  1  0
174390  1  0
175391  1  0
179392  1  0
180393  1  1
181394  1  0
181395  1  0
182396  1  0
182397  1  0
184398  1  0
184399  1  0
188400  1  0
189401  1  6
190402  1  0
190403  1  0
191404  1  0
191405  1  0
193406  1  0
193407  1  0
197408  1  0
198409  1  1
199410  1  0
199411  1  0
202412  1  0
205413  1  0
206414  1  6
207415  1  6
208416  1  0
208417  1  0
208418  1  0
209419  1  0
209420  1  0
210421  1  0
210422  1  0
210423  1  0
213424  1  0
214425  1  1
215426  1  0
215427  1  0
218428  1  0
221429  1  0
222430  1  6
223431  1  0
223432  1  0
226433  1  0
229434  1  0
230435  1  1
231436  1  0
231437  1  0
232438  1  0
233439  1  0
233440  1  0
233441  1  0
234442  1  0
234443  1  0
234444  1  0
237445  1  0
M  END
