
     RDKit          2D

251259  0  0  0  0  0  0  0  0999 V2000
  -18.0797    1.4342    0.0000 C   0  0  0  0  0  0  0  0  0  0  0  0
  -19.5731    1.5743    0.0000 N   0  0  0  0  0  0  0  0  0  0  0  0
  -20.1985    2.9377    0.0000 C   0  0  0  0  0  0  0  0  0  0  0  0
  -19.3304    4.1610    0.0000 C   0  0  0  0  0  0  0  0  0  0  0  0
  -19.9558    5.5244    0.0000 C   0  0  0  0  0  0  0  0  0  0  0  0
  -21.4492    5.6645    0.0000 C   0  0  0  0  0  0  0  0  0  0  0  0
  -22.3173    4.4412    0.0000 C   0  0  0  0  0  0  0  0  0  0  0  0
  -21.6919    3.0778    0.0000 C   0  0  0  0  0  0  0  0  0  0  0  0
  -23.7490    4.8888    0.0000 C   0  0  0  0  0  0  0  0  0  0  0  0
  -23.7657    6.3887    0.0000 O   0  0  0  0  0  0  0  0  0  0  0  0
  -22.3444    6.8681    0.0000 C   0  0  0  0  0  0  0  0  0  0  0  0
  -21.8969    8.2998    0.0000 O   0  0  0  0  0  0  0  0  0  0  0  0
  -25.1260    5.4835    0.0000 C   0  0  0  0  0  0  0  0  0  0  0  0
  -26.3296    4.5883    0.0000 C   0  0  0  0  0  0  0  0  0  0  0  0
  -27.7067    5.1831    0.0000 C   0  0  0  0  0  0  0  0  0  0  0  0
  -27.8801    6.6730    0.0000 C   0  0  0  0  0  0  0  0  0  0  0  0
  -26.6765    7.5682    0.0000 C   0  0  0  0  0  0  0  0  0  0  0  0
  -25.2995    6.9735    0.0000 C   0  0  0  0  0  0  0  0  0  0  0  0
  -29.2572    7.2678    0.0000 O   0  0  0  0  0  0  0  0  0  0  0  0
  -26.1562    3.0984    0.0000 O   0  0  0  0  0  0  0  0  0  0  0  0
  -24.7791    2.5037    0.0000 C   0  0  0  0  0  0  0  0  0  0  0  0
  -23.5755    3.3988    0.0000 C   0  0  0  0  0  0  0  0  0  0  0  0
  -22.7602    2.3863    0.0000 C   0  0  0  0  0  0  0  0  0  0  0  0
  -22.6677    1.5917    0.0000 C   0  0  0  0  0  0  0  0  0  0  0  0
  -23.3096    1.1143    0.0000 C   0  0  0  0  0  0  0  0  0  0  0  0
  -24.0440    1.4315    0.0000 C   0  0  0  0  0  0  0  0  0  0  0  0
  -23.0552   -1.0710    0.0000 O   0  0  0  0  0  0  0  0  0  0  0  0
  -17.2116    2.6575    0.0000 S   0  0  0  0  0  0  0  0  0  0  0  0
  -17.4543    0.0707    0.0000 N   0  0  0  0  0  0  0  0  0  0  0  0
  -15.9609   -0.0694    0.0000 C   0  0  0  0  0  0  0  0  0  0  0  0
  -15.3355   -1.4328    0.0000 C   0  0  0  0  0  0  0  0  0  0  0  0
  -13.8420   -1.5729    0.0000 O   0  0  0  0  0  0  0  0  0  0  0  0
  -13.2167   -2.9363    0.0000 C   0  0  0  0  0  0  0  0  0  0  0  0
  -11.7232   -3.0764    0.0000 O   0  0  0  0  0  0  0  0  0  0  0  0
  -11.0978   -4.4398    0.0000 C   0  0  0  0  0  0  0  0  0  0  0  0
   -9.6044   -4.5800    0.0000 C   0  0  0  0  0  0  0  0  0  0  0  0
   -8.9790   -5.9434    0.0000 O   0  0  0  0  0  0  0  0  0  0  0  0
   -7.4856   -6.0835    0.0000 C   0  0  0  0  0  0  0  0  0  0  0  0
   -6.8602   -7.4469    0.0000 C   0  0  0  0  0  0  0  0  0  0  0  0
   -5.3668   -7.5870    0.0000 C   0  0  0  0  0  0  0  0  0  0  0  0
   -4.9949   -6.1339    0.0000 O   0  0  0  0  0  0  0  0  0  0  0  0
   -4.7414   -8.9504    0.0000 N   0  0  0  0  0  0  0  0  0  0  0  0
   -3.2479   -9.0906    0.0000 C   0  0  0  0  0  0  0  0  0  0  0  0
   -3.7345   -7.6716    0.0000 C   0  0  0  0  0  0  0  0  0  0  0  0
   -3.7811   -6.1724    0.0000 C   0  0  0  0  0  0  0  0  0  0  0  0
   -3.3838   -4.7259    0.0000 C   0  0  0  0  0  0  0  0  0  0  0  0
   -2.5778   -3.4609    0.0000 C   0  0  0  0  0  0  0  0  0  0  0  0
   -3.9899  -10.3942    0.0000 C   0  0  0  0  0  0  0  0  0  0  0  0
   -2.3648  -10.3030    0.0000 C   0  0  0  0  0  0  0  0  0  0  0  0
   -3.4321  -11.3570    0.0000 O   0  0  0  0  0  0  0  0  0  0  0  0
   -1.1635  -11.2013    0.0000 N   0  0  0  0  0  0  0  0  0  0  0  0
    0.2492  -11.7056    0.0000 C   0  0  0  0  0  0  0  0  0  0  0  0
    1.7477  -11.7711    0.0000 C   0  0  0  0  0  0  0  0  0  0  0  0
    1.9063  -13.2627    0.0000 O   0  0  0  0  0  0  0  0  0  0  0  0
    3.1990  -11.3920    0.0000 N   0  0  0  0  0  0  0  0  0  0  0  0
    4.4741  -10.6019    0.0000 C   0  0  0  0  0  0  0  0  0  0  0  0
    5.9102  -11.0352    0.0000 C   0  0  0  0  0  0  0  0  0  0  0  0
    5.4597   -9.4711    0.0000 C   0  0  0  0  0  0  0  0  0  0  0  0
    6.7247  -10.2771    0.0000 O   0  0  0  0  0  0  0  0  0  0  0  0
    6.0681   -8.1001    0.0000 N   0  0  0  0  0  0  0  0  0  0  0  0
    6.2454   -6.6106    0.0000 C   0  0  0  0  0  0  0  0  0  0  0  0
    7.4795   -5.7580    0.0000 C   0  0  0  0  0  0  0  0  0  0  0  0
    8.8350   -6.4004    0.0000 C   0  0  0  0  0  0  0  0  0  0  0  0
    8.9563   -7.8955    0.0000 C   0  0  0  0  0  0  0  0  0  0  0  0
   10.3118   -8.5380    0.0000 C   0  0  0  0  0  0  0  0  0  0  0  0
   11.5459   -7.6853    0.0000 C   0  0  0  0  0  0  0  0  0  0  0  0
   11.4245   -6.1902    0.0000 C   0  0  0  0  0  0  0  0  0  0  0  0
   10.0691   -5.5478    0.0000 C   0  0  0  0  0  0  0  0  0  0  0  0
    5.9758   -5.1350    0.0000 C   0  0  0  0  0  0  0  0  0  0  0  0
    7.0653   -5.0412    0.0000 O   0  0  0  0  0  0  0  0  0  0  0  0
    5.2833   -3.8045    0.0000 N   0  0  0  0  0  0  0  0  0  0  0  0
    4.2293   -2.7372    0.0000 C   0  0  0  0  0  0  0  0  0  0  0  0
    2.9075   -2.0280    0.0000 C   0  0  0  0  0  0  0  0  0  0  0  0
    1.4355   -1.7398    0.0000 C   0  0  0  0  0  0  0  0  0  0  0  0
   -0.0561   -1.8984    0.0000 C   0  0  0  0  0  0  0  0  0  0  0  0
   -1.4347   -2.4896    0.0000 C   0  0  0  0  0  0  0  0  0  0  0  0
    3.7411   -1.2578    0.0000 C   0  0  0  0  0  0  0  0  0  0  0  0
    3.1449   -0.1123    0.0000 C   0  0  0  0  0  0  0  0  0  0  0  0
    2.9128    1.1580    0.0000 C   0  0  0  0  0  0  0  0  0  0  0  0
    3.0654    2.4403    0.0000 C   0  0  0  0  0  0  0  0  0  0  0  0
    5.7864   -2.7871    0.0000 C   0  0  0  0  0  0  0  0  0  0  0  0
    5.0467   -4.8591    0.0000 O   0  0  0  0  0  0  0  0  0  0  0  0
    7.0537   -3.0352    0.0000 N   0  0  0  0  0  0  0  0  0  0  0  0
    8.3378   -2.8987    0.0000 C   0  0  0  0  0  0  0  0  0  0  0  0
    9.6205   -4.5894    0.0000 C   0  0  0  0  0  0  0  0  0  0  0  0
    9.2958   -6.0538    0.0000 C   0  0  0  0  0  0  0  0  0  0  0  0
   10.4017   -7.0672    0.0000 N   0  0  0  0  0  0  0  0  0  0  0  0
    7.8652   -6.5048    0.0000 O   0  0  0  0  0  0  0  0  0  0  0  0
    9.5246   -2.3897    0.0000 C   0  0  0  0  0  0  0  0  0  0  0  0
   10.8329   -4.1540    0.0000 O   0  0  0  0  0  0  0  0  0  0  0  0
   10.5086   -1.5535    0.0000 N   0  0  0  0  0  0  0  0  0  0  0  0
   11.2025   -0.4645    0.0000 C   0  0  0  0  0  0  0  0  0  0  0  0
   13.3242   -0.5157    0.0000 C   0  0  0  0  0  0  0  0  0  0  0  0
   14.2667   -1.6826    0.0000 C   0  0  0  0  0  0  0  0  0  0  0  0
   15.7485   -1.4499    0.0000 C   0  0  0  0  0  0  0  0  0  0  0  0
   14.7532   -3.1015    0.0000 C   0  0  0  0  0  0  0  0  0  0  0  0
   11.5446    0.7807    0.0000 C   0  0  0  0  0  0  0  0  0  0  0  0
   13.7292    0.5207    0.0000 O   0  0  0  0  0  0  0  0  0  0  0  0
   11.5044    2.0715    0.0000 N   0  0  0  0  0  0  0  0  0  0  0  0
   11.0856    3.2930    0.0000 C   0  0  0  0  0  0  0  0  0  0  0  0
   12.4484    4.9198    0.0000 C   0  0  0  0  0  0  0  0  0  0  0  0
   13.9484    4.9291    0.0000 C   0  0  0  0  0  0  0  0  0  0  0  0
   14.7064    3.6347    0.0000 C   0  0  0  0  0  0  0  0  0  0  0  0
   16.2064    3.6440    0.0000 C   0  0  0  0  0  0  0  0  0  0  0  0
   16.9483    4.9477    0.0000 C   0  0  0  0  0  0  0  0  0  0  0  0
   16.1903    6.2421    0.0000 C   0  0  0  0  0  0  0  0  0  0  0  0
   14.6903    6.2328    0.0000 C   0  0  0  0  0  0  0  0  0  0  0  0
   10.3253    4.3368    0.0000 C   0  0  0  0  0  0  0  0  0  0  0  0
   11.8906    5.8826    0.0000 O   0  0  0  0  0  0  0  0  0  0  0  0
    9.2911    5.1101    0.0000 N   0  0  0  0  0  0  0  0  0  0  0  0
    8.0749    5.5443    0.0000 C   0  0  0  0  0  0  0  0  0  0  0  0
    6.7848    5.6007    0.0000 C   0  0  0  0  0  0  0  0  0  0  0  0
    5.5354    5.2743    0.0000 C   0  0  0  0  0  0  0  0  0  0  0  0
    4.4377    4.5941    0.0000 C   0  0  0  0  0  0  0  0  0  0  0  0
    3.5892    3.6206    0.0000 C   0  0  0  0  0  0  0  0  0  0  0  0
    9.2501    7.3115    0.0000 C   0  0  0  0  0  0  0  0  0  0  0  0
    7.6527    7.6241    0.0000 C   0  0  0  0  0  0  0  0  0  0  0  0
    6.2641    8.1914    0.0000 O   0  0  0  0  0  0  0  0  0  0  0  0
    8.5807    8.8026    0.0000 N   0  0  0  0  0  0  0  0  0  0  0  0
    8.0241   10.1955    0.0000 C   0  0  0  0  0  0  0  0  0  0  0  0
    7.0246   11.3140    0.0000 C   0  0  0  0  0  0  0  0  0  0  0  0
    6.9516   12.8123    0.0000 O   0  0  0  0  0  0  0  0  0  0  0  0
    8.9520   11.3741    0.0000 C   0  0  0  0  0  0  0  0  0  0  0  0
   10.4366   11.1597    0.0000 O   0  0  0  0  0  0  0  0  0  0  0  0
    8.3954   12.7669    0.0000 N   0  0  0  0  0  0  0  0  0  0  0  0
    9.3233   13.9455    0.0000 C   0  0  0  0  0  0  0  0  0  0  0  0
   10.5984   14.7355    0.0000 C   0  0  0  0  0  0  0  0  0  0  0  0
   11.9202   14.0263    0.0000 C   0  0  0  0  0  0  0  0  0  0  0  0
    8.7667   15.3383    0.0000 C   0  0  0  0  0  0  0  0  0  0  0  0
    9.5441   16.6212    0.0000 O   0  0  0  0  0  0  0  0  0  0  0  0
    7.2821   15.5527    0.0000 O   0  0  0  0  0  0  0  0  0  0  0  0
  -20.2856    0.2543    0.0000 H   0  0  0  0  0  0  0  0  0  0  0  0
  -17.8370    4.0209    0.0000 H   0  0  0  0  0  0  0  0  0  0  0  0
  -19.0877    6.7477    0.0000 H   0  0  0  0  0  0  0  0  0  0  0  0
  -22.2382    1.6808    0.0000 H   0  0  0  0  0  0  0  0  0  0  0  0
  -28.9103    4.2879    0.0000 H   0  0  0  0  0  0  0  0  0  0  0  0
  -26.8500    9.0582    0.0000 H   0  0  0  0  0  0  0  0  0  0  0  0
  -24.0959    7.8687    0.0000 H   0  0  0  0  0  0  0  0  0  0  0  0
  -29.4306    8.7577    0.0000 H   0  0  0  0  0  0  0  0  0  0  0  0
  -20.9949    3.6993    0.0000 H   0  0  0  0  0  0  0  0  0  0  0  0
  -20.7308    0.5560    0.0000 H   0  0  0  0  0  0  0  0  0  0  0  0
  -25.8093    0.1185    0.0000 H   0  0  0  0  0  0  0  0  0  0  0  0
  -24.2588   -1.9662    0.0000 H   0  0  0  0  0  0  0  0  0  0  0  0
  -18.3224   -1.1526    0.0000 H   0  0  0  0  0  0  0  0  0  0  0  0
  -16.0822    1.4257    0.0000 H   0  0  0  0  0  0  0  0  0  0  0  0
  -14.5096    0.3098    0.0000 H   0  0  0  0  0  0  0  0  0  0  0  0
  -16.7868   -1.8119    0.0000 H   0  0  0  0  0  0  0  0  0  0  0  0
  -15.3973   -2.9315    0.0000 H   0  0  0  0  0  0  0  0  0  0  0  0
  -14.6109   -3.4895    0.0000 H   0  0  0  0  0  0  0  0  0  0  0  0
  -13.2785   -4.4350    0.0000 H   0  0  0  0  0  0  0  0  0  0  0  0
  -12.4921   -4.9931    0.0000 H   0  0  0  0  0  0  0  0  0  0  0  0
  -10.9765   -5.9349    0.0000 H   0  0  0  0  0  0  0  0  0  0  0  0
   -9.7257   -3.0849    0.0000 H   0  0  0  0  0  0  0  0  0  0  0  0
   -8.2101   -4.0268    0.0000 H   0  0  0  0  0  0  0  0  0  0  0  0
   -7.4238   -4.5848    0.0000 H   0  0  0  0  0  0  0  0  0  0  0  0
   -6.0343   -5.7044    0.0000 H   0  0  0  0  0  0  0  0  0  0  0  0
   -8.3115   -7.8260    0.0000 H   0  0  0  0  0  0  0  0  0  0  0  0
   -6.7388   -8.9420    0.0000 H   0  0  0  0  0  0  0  0  0  0  0  0
   -5.7521  -10.0588    0.0000 H   0  0  0  0  0  0  0  0  0  0  0  0
   -5.0437   -8.4036    0.0000 H   0  0  0  0  0  0  0  0  0  0  0  0
   -5.0399   -6.9329    0.0000 H   0  0  0  0  0  0  0  0  0  0  0  0
   -5.2803   -6.1217    0.0000 H   0  0  0  0  0  0  0  0  0  0  0  0
   -5.0442   -5.3632    0.0000 H   0  0  0  0  0  0  0  0  0  0  0  0
   -4.8830   -4.7763    0.0000 H   0  0  0  0  0  0  0  0  0  0  0  0
   -4.2054   -3.4710    0.0000 H   0  0  0  0  0  0  0  0  0  0  0  0
   -3.7086   -2.4753    0.0000 H   0  0  0  0  0  0  0  0  0  0  0  0
   -5.4775  -10.5863    0.0000 H   0  0  0  0  0  0  0  0  0  0  0  0
   -4.2412  -11.8730    0.0000 H   0  0  0  0  0  0  0  0  0  0  0  0
   -2.7412  -11.2254    0.0000 H   0  0  0  0  0  0  0  0  0  0  0  0
   -1.8727  -12.5231    0.0000 H   0  0  0  0  0  0  0  0  0  0  0  0
    0.8058  -13.0985    0.0000 H   0  0  0  0  0  0  0  0  0  0  0  0
   -0.7915  -12.7859    0.0000 H   0  0  0  0  0  0  0  0  0  0  0  0
    3.7902  -12.7706    0.0000 H   0  0  0  0  0  0  0  0  0  0  0  0
    4.6698  -12.0891    0.0000 H   0  0  0  0  0  0  0  0  0  0  0  0
    6.2530  -12.4955    0.0000 H   0  0  0  0  0  0  0  0  0  0  0  0
    7.4078  -10.9511    0.0000 H   0  0  0  0  0  0  0  0  0  0  0  0
    6.4426   -9.6329    0.0000 H   0  0  0  0  0  0  0  0  0  0  0  0
    7.4553   -8.6708    0.0000 H   0  0  0  0  0  0  0  0  0  0  0  0
    7.5302   -7.3848    0.0000 H   0  0  0  0  0  0  0  0  0  0  0  0
    8.4902   -4.6496    0.0000 H   0  0  0  0  0  0  0  0  0  0  0  0
    6.8781   -4.3838    0.0000 H   0  0  0  0  0  0  0  0  0  0  0  0
    7.8354   -8.8922    0.0000 H   0  0  0  0  0  0  0  0  0  0  0  0
   10.4331  -10.0330    0.0000 H   0  0  0  0  0  0  0  0  0  0  0  0
   12.9013   -8.3278    0.0000 H   0  0  0  0  0  0  0  0  0  0  0  0
   12.6586   -5.3376    0.0000 H   0  0  0  0  0  0  0  0  0  0  0  0
   10.6640   -4.1708    0.0000 H   0  0  0  0  0  0  0  0  0  0  0  0
    6.4957   -2.9213    0.0000 H   0  0  0  0  0  0  0  0  0  0  0  0
    2.3893   -0.6203    0.0000 H   0  0  0  0  0  0  0  0  0  0  0  0
    4.0976   -1.1149    0.0000 H   0  0  0  0  0  0  0  0  0  0  0  0
    0.5253   -0.5475    0.0000 H   0  0  0  0  0  0  0  0  0  0  0  0
    1.8074   -0.2867    0.0000 H   0  0  0  0  0  0  0  0  0  0  0  0
   -1.1620   -0.8850    0.0000 H   0  0  0  0  0  0  0  0  0  0  0  0
    0.0541   -0.4025    0.0000 H   0  0  0  0  0  0  0  0  0  0  0  0
   -2.2248   -1.2146    0.0000 H   0  0  0  0  0  0  0  0  0  0  0  0
    2.6359   -3.0696    0.0000 H   0  0  0  0  0  0  0  0  0  0  0  0
    1.6786   -1.5707    0.0000 H   0  0  0  0  0  0  0  0  0  0  0  0
    1.1940   -1.1069    0.0000 H   0  0  0  0  0  0  0  0  0  0  0  0
    1.0817    0.1966    0.0000 H   0  0  0  0  0  0  0  0  0  0  0  0
    0.8094    0.6076    0.0000 H   0  0  0  0  0  0  0  0  0  0  0  0
    0.9284    1.9105    0.0000 H   0  0  0  0  0  0  0  0  0  0  0  0
    0.9440    3.0230    0.0000 H   0  0  0  0  0  0  0  0  0  0  0  0
    7.6689   -5.0884    0.0000 H   0  0  0  0  0  0  0  0  0  0  0  0
    8.4045   -5.0719    0.0000 H   0  0  0  0  0  0  0  0  0  0  0  0
   11.0063   -5.1635    0.0000 H   0  0  0  0  0  0  0  0  0  0  0  0
   10.5748   -3.4320    0.0000 H   0  0  0  0  0  0  0  0  0  0  0  0
   10.4410   -8.5667    0.0000 H   0  0  0  0  0  0  0  0  0  0  0  0
   11.8989   -6.9758    0.0000 H   0  0  0  0  0  0  0  0  0  0  0  0
   12.1671   -2.9990    0.0000 H   0  0  0  0  0  0  0  0  0  0  0  0
   12.5048   -2.0942    0.0000 H   0  0  0  0  0  0  0  0  0  0  0  0
   14.5388    0.3645    0.0000 H   0  0  0  0  0  0  0  0  0  0  0  0
   13.1955    0.9788    0.0000 H   0  0  0  0  0  0  0  0  0  0  0  0
   13.0520   -2.5628    0.0000 H   0  0  0  0  0  0  0  0  0  0  0  0
   16.8262   -2.4932    0.0000 H   0  0  0  0  0  0  0  0  0  0  0  0
   17.0614   -0.7244    0.0000 H   0  0  0  0  0  0  0  0  0  0  0  0
   15.4386    0.0177    0.0000 H   0  0  0  0  0  0  0  0  0  0  0  0
   16.1791   -3.5669    0.0000 H   0  0  0  0  0  0  0  0  0  0  0  0
   14.7251   -4.6013    0.0000 H   0  0  0  0  0  0  0  0  0  0  0  0
   13.2713   -3.3343    0.0000 H   0  0  0  0  0  0  0  0  0  0  0  0
   13.6904    2.2850    0.0000 H   0  0  0  0  0  0  0  0  0  0  0  0
   13.1999    3.4761    0.0000 H   0  0  0  0  0  0  0  0  0  0  0  0
   12.6998    6.3986    0.0000 H   0  0  0  0  0  0  0  0  0  0  0  0
   11.1997    5.7510    0.0000 H   0  0  0  0  0  0  0  0  0  0  0  0
   14.1289    2.2504    0.0000 H   0  0  0  0  0  0  0  0  0  0  0  0
   16.9644    2.3497    0.0000 H   0  0  0  0  0  0  0  0  0  0  0  0
   18.4483    4.9570    0.0000 H   0  0  0  0  0  0  0  0  0  0  0  0
   16.9323    7.5457    0.0000 H   0  0  0  0  0  0  0  0  0  0  0  0
   13.9323    7.5271    0.0000 H   0  0  0  0  0  0  0  0  0  0  0  0
   10.3313    7.0487    0.0000 H   0  0  0  0  0  0  0  0  0  0  0  0
    5.7683    7.4637    0.0000 H   0  0  0  0  0  0  0  0  0  0  0  0
    7.0428    7.7595    0.0000 H   0  0  0  0  0  0  0  0  0  0  0  0
    4.1263    6.9004    0.0000 H   0  0  0  0  0  0  0  0  0  0  0  0
    5.1455    7.4133    0.0000 H   0  0  0  0  0  0  0  0  0  0  0  0
    2.5484    5.5608    0.0000 H   0  0  0  0  0  0  0  0  0  0  0  0
    3.6089    6.5798    0.0000 H   0  0  0  0  0  0  0  0  0  0  0  0
    1.7338    4.8028    0.0000 H   0  0  0  0  0  0  0  0  0  0  0  0
    9.1960    8.8105    0.0000 H   0  0  0  0  0  0  0  0  0  0  0  0
   10.6678    7.8015    0.0000 H   0  0  0  0  0  0  0  0  0  0  0  0
   10.4003    6.3488    0.0000 H   0  0  0  0  0  0  0  0  0  0  0  0
   10.0804    8.7708    0.0000 H   0  0  0  0  0  0  0  0  0  0  0  0
    6.7490    9.4055    0.0000 H   0  0  0  0  0  0  0  0  0  0  0  0
    5.7028   12.0233    0.0000 H   0  0  0  0  0  0  0  0  0  0  0  0
    6.0966   10.1355    0.0000 H   0  0  0  0  0  0  0  0  0  0  0  0
    6.4940   13.8574    0.0000 H   0  0  0  0  0  0  0  0  0  0  0  0
    6.9480   13.1607    0.0000 H   0  0  0  0  0  0  0  0  0  0  0  0
   10.1790   12.7135    0.0000 H   0  0  0  0  0  0  0  0  0  0  0  0
   11.5264   15.9140    0.0000 H   0  0  0  0  0  0  0  0  0  0  0  0
    9.7427   15.9675    0.0000 H   0  0  0  0  0  0  0  0  0  0  0  0
   13.1952   14.8164    0.0000 H   0  0  0  0  0  0  0  0  0  0  0  0
   12.9196   12.9078    0.0000 H   0  0  0  0  0  0  0  0  0  0  0  0
   11.1428   12.7435    0.0000 H   0  0  0  0  0  0  0  0  0  0  0  0
    6.7255   16.9456    0.0000 H   0  0  0  0  0  0  0  0  0  0  0  0
  1  2  1  0
  2  3  1  0
  3  4  2  0
  4  5  1  0
  5  6  2  0
  6  7  1  0
  7  8  2  0
  7  9  1  0
  9 10  1  0
 10 11  1  0
 11 12  2  0
  9 13  1  0
 13 14  1  0
 14 15  2  0
 15 16  1  0
 16 17  2  0
 17 18  1  0
 16 19  1  0
 14 20  1  0
 20 21  1  0
 21 22  2  0
 22 23  1  0
 23 24  2  0
 24 25  1  0
 25 26  2  0
 25 27  1  0
  1 28  2  0
  1 29  1  0
 29 30  1  0
 30 31  1  0
 31 32  1  0
 32 33  1  0
 33 34  1  0
 34 35  1  0
 35 36  1  0
 36 37  1  0
 37 38  1  0
 38 39  1  0
 39 40  1  0
 40 41  2  0
 40 42  1  0
 43 42  1  1
 43 44  1  0
 44 45  1  0
 45 46  1  0
 46 47  1  0
 43 48  1  0
 43 49  1  0
 49 50  2  0
 49 51  1  0
 51 52  1  0
 52 53  1  0
 53 54  2  0
 53 55  1  0
 55 56  1  0
 56 57  1  0
 56 58  1  0
 58 59  2  0
 58 60  1  0
 60 61  1  0
 61 62  1  0
 62 63  1  0
 63 64  2  0
 64 65  1  0
 65 66  2  0
 66 67  1  0
 67 68  2  0
 61 69  1  0
 69 70  2  0
 69 71  1  0
 71 72  1  0
 72 73  1  0
 73 74  1  0
 74 75  1  0
 75 76  1  0
 72 77  1  0
 77 78  1  0
 78 79  1  0
 79 80  1  0
 72 81  1  0
 81 82  2  0
 81 83  1  0
 83 84  1  0
 84 85  1  0
 85 86  1  0
 86 87  1  0
 86 88  2  0
 84 89  1  0
 89 90  2  0
 89 91  1  0
 91 92  1  0
 92 93  1  0
 93 94  1  0
 94 95  1  0
 94 96  1  0
 92 97  1  0
 97 98  2  0
 97 99  1  0
 99100  1  0
100101  1  0
101102  1  0
102103  2  0
103104  1  0
104105  2  0
105106  1  0
106107  2  0
100108  1  0
108109  2  0
108110  1  0
110111  1  0
111112  1  0
112113  1  0
113114  1  0
114115  1  0
111116  1  0
111117  1  6
117118  2  0
117119  1  0
119120  1  0
120121  1  0
121122  1  0
120123  1  0
123124  2  0
123125  1  0
125126  1  0
126127  1  0
127128  1  0
126129  1  0
129130  2  0
129131  1  0
  8  3  1  0
 68 63  1  0
107102  1  0
 11  6  1  0
 47 76  2  0
 18 13  2  0
 80115  2  0
 22  9  1  0
 26 21  1  0
  2132  1  0
  4133  1  0
  5134  1  0
  8135  1  0
 15136  1  0
 17137  1  0
 18138  1  0
 19139  1  0
 23140  1  0
 24141  1  0
 26142  1  0
 27143  1  0
 29144  1  0
 30145  1  0
 30146  1  0
 31147  1  0
 31148  1  0
 33149  1  0
 33150  1  0
 35151  1  0
 35152  1  0
 36153  1  0
 36154  1  0
 38155  1  0
 38156  1  0
 39157  1  0
 39158  1  0
 42159  1  0
 44160  1  0
 44161  1  0
 45162  1  0
 45163  1  0
 46164  1  0
 46165  1  0
 47166  1  0
 48167  1  0
 48168  1  0
 48169  1  0
 51170  1  0
 52171  1  0
 52172  1  0
 55173  1  0
 56174  1  6
 57175  1  0
 57176  1  0
 57177  1  0
 60178  1  0
 61179  1  6
 62180  1  0
 62181  1  0
 64182  1  0
 65183  1  0
 66184  1  0
 67185  1  0
 68186  1  0
 71187  1  0
 73188  1  0
 73189  1  0
 74190  1  0
 74191  1  0
 75192  1  0
 75193  1  0
 76194  1  0
 77195  1  0
 77196  1  0
 78197  1  0
 78198  1  0
 79199  1  0
 79200  1  0
 80201  1  0
 83202  1  0
 84203  1  6
 85204  1  0
 85205  1  0
 87206  1  0
 87207  1  0
 91208  1  0
 92209  1  6
 93210  1  0
 93211  1  0
 94212  1  0
 95213  1  0
 95214  1  0
 95215  1  0
 96216  1  0
 96217  1  0
 96218  1  0
 99219  1  0
100220  1  6
101221  1  0
101222  1  0
103223  1  0
104224  1  0
105225  1  0
106226  1  0
107227  1  0
110228  1  0
112229  1  0
112230  1  0
113231  1  0
113232  1  0
114233  1  0
114234  1  0
115235  1  0
116236  1  0
116237  1  0
116238  1  0
119239  1  0
120240  1  1
121241  1  0
121242  1  0
122243  1  0
125244  1  0
126245  1  6
127246  1  0
127247  1  0
128248  1  0
128249  1  0
128250  1  0
131251  1  0
M  END
