
     RDKit          2D

300301  0  0  0  0  0  0  0  0999 V2000
  -23.7224    6.7296    0.0000 N   0  0  0  0  0  0  0  0  0  0  0  0
  -23.0950    5.3671    0.0000 C   0  0  0  0  0  0  0  0  0  0  0  0
  -23.9612    4.1425    0.0000 C   0  0  0  0  0  0  0  0  0  0  0  0
  -23.3338    2.7801    0.0000 C   0  0  0  0  0  0  0  0  0  0  0  0
  -21.8402    2.6422    0.0000 O   0  0  0  0  0  0  0  0  0  0  0  0
  -24.2000    1.5555    0.0000 N   0  0  0  0  0  0  0  0  0  0  0  0
  -23.5726    0.1930    0.0000 C   0  0  0  0  0  0  0  0  0  0  0  0
  -25.0233   -0.1883    0.0000 C   0  0  0  0  0  0  0  0  0  0  0  0
  -25.4185   -1.6353    0.0000 C   0  0  0  0  0  0  0  0  0  0  0  0
  -24.3629   -2.7010    0.0000 C   0  0  0  0  0  0  0  0  0  0  0  0
  -26.2847   -2.8599    0.0000 C   0  0  0  0  0  0  0  0  0  0  0  0
  -22.5170   -0.8727    0.0000 C   0  0  0  0  0  0  0  0  0  0  0  0
  -22.8901   -1.7834    0.0000 O   0  0  0  0  0  0  0  0  0  0  0  0
  -21.0663   -0.4914    0.0000 N   0  0  0  0  0  0  0  0  0  0  0  0
  -20.0107   -1.5572    0.0000 C   0  0  0  0  0  0  0  0  0  0  0  0
  -21.2436   -2.4116    0.0000 C   0  0  0  0  0  0  0  0  0  0  0  0
  -21.1200   -3.9065    0.0000 C   0  0  0  0  0  0  0  0  0  0  0  0
  -22.3528   -4.7610    0.0000 C   0  0  0  0  0  0  0  0  0  0  0  0
  -22.2292   -6.2559    0.0000 O   0  0  0  0  0  0  0  0  0  0  0  0
  -23.3416   -4.2941    0.0000 O   0  0  0  0  0  0  0  0  0  0  0  0
  -18.6543   -2.1976    0.0000 C   0  0  0  0  0  0  0  0  0  0  0  0
  -18.7139   -3.6964    0.0000 O   0  0  0  0  0  0  0  0  0  0  0  0
  -17.4215   -1.3431    0.0000 N   0  0  0  0  0  0  0  0  0  0  0  0
  -16.0651   -1.9835    0.0000 C   0  0  0  0  0  0  0  0  0  0  0  0
  -16.9313   -3.2081    0.0000 C   0  0  0  0  0  0  0  0  0  0  0  0
  -16.3039   -4.5706    0.0000 C   0  0  0  0  0  0  0  0  0  0  0  0
  -17.1701   -5.7952    0.0000 N   0  0  0  0  0  0  0  0  0  0  0  0
  -14.8046   -4.5254    0.0000 O   0  0  0  0  0  0  0  0  0  0  0  0
  -14.5714   -2.1214    0.0000 C   0  0  0  0  0  0  0  0  0  0  0  0
  -13.9440   -3.4839    0.0000 O   0  0  0  0  0  0  0  0  0  0  0  0
  -13.7052   -0.8968    0.0000 N   0  0  0  0  0  0  0  0  0  0  0  0
  -12.2115   -1.0347    0.0000 C   0  0  0  0  0  0  0  0  0  0  0  0
  -12.3351    0.4602    0.0000 C   0  0  0  0  0  0  0  0  0  0  0  0
  -13.6916    1.1007    0.0000 C   0  0  0  0  0  0  0  0  0  0  0  0
  -13.8151    2.5956    0.0000 C   0  0  0  0  0  0  0  0  0  0  0  0
  -15.1716    3.2360    0.0000 N   0  0  0  0  0  0  0  0  0  0  0  0
  -15.2951    4.7309    0.0000 C   0  0  0  0  0  0  0  0  0  0  0  0
  -16.6516    5.3713    0.0000 N   0  0  0  0  0  0  0  0  0  0  0  0
  -14.0623    5.5854    0.0000 N   0  0  0  0  0  0  0  0  0  0  0  0
  -10.8551   -1.6751    0.0000 C   0  0  0  0  0  0  0  0  0  0  0  0
   -9.6223   -0.8206    0.0000 O   0  0  0  0  0  0  0  0  0  0  0  0
  -10.7315   -3.1700    0.0000 N   0  0  0  0  0  0  0  0  0  0  0  0
   -9.3751   -3.8104    0.0000 C   0  0  0  0  0  0  0  0  0  0  0  0
  -10.2414   -5.0350    0.0000 C   0  0  0  0  0  0  0  0  0  0  0  0
  -11.7350   -4.8971    0.0000 C   0  0  0  0  0  0  0  0  0  0  0  0
  -12.6012   -6.1217    0.0000 C   0  0  0  0  0  0  0  0  0  0  0  0
  -14.0949   -5.9838    0.0000 N   0  0  0  0  0  0  0  0  0  0  0  0
  -11.9738   -7.4842    0.0000 O   0  0  0  0  0  0  0  0  0  0  0  0
   -7.8815   -3.9483    0.0000 C   0  0  0  0  0  0  0  0  0  0  0  0
   -7.4248   -5.3771    0.0000 O   0  0  0  0  0  0  0  0  0  0  0  0
   -7.0152   -2.7237    0.0000 N   0  0  0  0  0  0  0  0  0  0  0  0
   -5.5216   -2.8615    0.0000 C   0  0  0  0  0  0  0  0  0  0  0  0
   -4.6366   -4.0727    0.0000 C   0  0  0  0  0  0  0  0  0  0  0  0
   -3.4340   -4.9692    0.0000 C   0  0  0  0  0  0  0  0  0  0  0  0
   -2.0206   -5.4713    0.0000 C   0  0  0  0  0  0  0  0  0  0  0  0
   -0.5219   -5.5346    0.0000 C   0  0  0  0  0  0  0  0  0  0  0  0
   -6.4151   -4.0664    0.0000 C   0  0  0  0  0  0  0  0  0  0  0  0
   -6.0102   -1.4434    0.0000 C   0  0  0  0  0  0  0  0  0  0  0  0
   -7.5075   -1.5333    0.0000 O   0  0  0  0  0  0  0  0  0  0  0  0
   -6.0592    0.0558    0.0000 N   0  0  0  0  0  0  0  0  0  0  0  0
   -5.6640    1.5029    0.0000 C   0  0  0  0  0  0  0  0  0  0  0  0
   -7.1455    1.2679    0.0000 C   0  0  0  0  0  0  0  0  0  0  0  0
   -8.0897    2.4334    0.0000 C   0  0  0  0  0  0  0  0  0  0  0  0
   -9.5712    2.1985    0.0000 C   0  0  0  0  0  0  0  0  0  0  0  0
  -10.5154    3.3640    0.0000 C   0  0  0  0  0  0  0  0  0  0  0  0
  -11.9572    2.9502    0.0000 N   0  0  0  0  0  0  0  0  0  0  0  0
   -4.8599    2.7691    0.0000 C   0  0  0  0  0  0  0  0  0  0  0  0
   -5.9922    3.7530    0.0000 O   0  0  0  0  0  0  0  0  0  0  0  0
   -3.7183    3.7421    0.0000 N   0  0  0  0  0  0  0  0  0  0  0  0
   -2.3406    4.3354    0.0000 C   0  0  0  0  0  0  0  0  0  0  0  0
   -3.4480    5.3471    0.0000 C   0  0  0  0  0  0  0  0  0  0  0  0
   -3.1254    6.8120    0.0000 C   0  0  0  0  0  0  0  0  0  0  0  0
   -4.2328    7.8238    0.0000 C   0  0  0  0  0  0  0  0  0  0  0  0
   -2.3213    8.0783    0.0000 C   0  0  0  0  0  0  0  0  0  0  0  0
   -0.8492    4.4962    0.0000 C   0  0  0  0  0  0  0  0  0  0  0  0
   -0.7860    5.9948    0.0000 O   0  0  0  0  0  0  0  0  0  0  0  0
    0.6233    4.2103    0.0000 N   0  0  0  0  0  0  0  0  0  0  0  0
    1.9461    3.5030    0.0000 C   0  0  0  0  0  0  0  0  0  0  0  0
    2.0467    4.9997    0.0000 C   0  0  0  0  0  0  0  0  0  0  0  0
    3.3931    5.6609    0.0000 C   0  0  0  0  0  0  0  0  0  0  0  0
    3.4937    7.1575    0.0000 C   0  0  0  0  0  0  0  0  0  0  0  0
    4.8401    7.8187    0.0000 O   0  0  0  0  0  0  0  0  0  0  0  0
    2.2479    7.9929    0.0000 O   0  0  0  0  0  0  0  0  0  0  0  0
    3.0017    2.4373    0.0000 C   0  0  0  0  0  0  0  0  0  0  0  0
    4.2128    3.3223    0.0000 O   0  0  0  0  0  0  0  0  0  0  0  0
    3.6962    1.1078    0.0000 N   0  0  0  0  0  0  0  0  0  0  0  0
    3.9680   -0.3674    0.0000 C   0  0  0  0  0  0  0  0  0  0  0  0
    3.7930   -1.8571    0.0000 C   0  0  0  0  0  0  0  0  0  0  0  0
    3.1866   -3.2291    0.0000 C   0  0  0  0  0  0  0  0  0  0  0  0
    2.2027   -4.3613    0.0000 C   0  0  0  0  0  0  0  0  0  0  0  0
    0.9288   -5.1533    0.0000 C   0  0  0  0  0  0  0  0  0  0  0  0
    5.3385   -0.9771    0.0000 C   0  0  0  0  0  0  0  0  0  0  0  0
    5.2009    0.4871    0.0000 C   0  0  0  0  0  0  0  0  0  0  0  0
    5.2604    1.9859    0.0000 O   0  0  0  0  0  0  0  0  0  0  0  0
    6.5573   -0.1533    0.0000 N   0  0  0  0  0  0  0  0  0  0  0  0
    7.7901    0.7012    0.0000 C   0  0  0  0  0  0  0  0  0  0  0  0
    8.6563    1.9258    0.0000 C   0  0  0  0  0  0  0  0  0  0  0  0
    9.1465    0.0608    0.0000 C   0  0  0  0  0  0  0  0  0  0  0  0
    9.2701   -1.4341    0.0000 O   0  0  0  0  0  0  0  0  0  0  0  0
   10.3793    0.9152    0.0000 N   0  0  0  0  0  0  0  0  0  0  0  0
   11.7358    0.2748    0.0000 C   0  0  0  0  0  0  0  0  0  0  0  0
   12.7913   -0.7909    0.0000 C   0  0  0  0  0  0  0  0  0  0  0  0
   12.3962   -2.2379    0.0000 C   0  0  0  0  0  0  0  0  0  0  0  0
   13.4518   -3.3036    0.0000 N   0  0  0  0  0  0  0  0  0  0  0  0
   10.9455   -2.6192    0.0000 O   0  0  0  0  0  0  0  0  0  0  0  0
   12.9686    1.1293    0.0000 C   0  0  0  0  0  0  0  0  0  0  0  0
   12.8450    2.6242    0.0000 O   0  0  0  0  0  0  0  0  0  0  0  0
   14.3250    0.4889    0.0000 N   0  0  0  0  0  0  0  0  0  0  0  0
   15.5578    1.3434    0.0000 C   0  0  0  0  0  0  0  0  0  0  0  0
   16.4241    2.5680    0.0000 C   0  0  0  0  0  0  0  0  0  0  0  0
   17.9177    2.4301    0.0000 C   0  0  0  0  0  0  0  0  0  0  0  0
   18.7839    3.6547    0.0000 C   0  0  0  0  0  0  0  0  0  0  0  0
   20.2776    3.5168    0.0000 N   0  0  0  0  0  0  0  0  0  0  0  0
   21.1438    4.7414    0.0000 C   0  0  0  0  0  0  0  0  0  0  0  0
   22.6375    4.6036    0.0000 N   0  0  0  0  0  0  0  0  0  0  0  0
   20.5164    6.1039    0.0000 N   0  0  0  0  0  0  0  0  0  0  0  0
   16.9142    0.7030    0.0000 C   0  0  0  0  0  0  0  0  0  0  0  0
   18.2420    1.4008    0.0000 O   0  0  0  0  0  0  0  0  0  0  0  0
   17.0378   -0.7919    0.0000 N   0  0  0  0  0  0  0  0  0  0  0  0
   18.3942   -1.4324    0.0000 C   0  0  0  0  0  0  0  0  0  0  0  0
   19.4498   -2.4981    0.0000 C   0  0  0  0  0  0  0  0  0  0  0  0
   19.0547   -3.9451    0.0000 C   0  0  0  0  0  0  0  0  0  0  0  0
   19.9931   -5.1153    0.0000 C   0  0  0  0  0  0  0  0  0  0  0  0
   19.1701   -6.3694    0.0000 N   0  0  0  0  0  0  0  0  0  0  0  0
   17.7231   -5.9743    0.0000 C   0  0  0  0  0  0  0  0  0  0  0  0
   17.6518   -4.4759    0.0000 N   0  0  0  0  0  0  0  0  0  0  0  0
   19.6271   -0.5779    0.0000 C   0  0  0  0  0  0  0  0  0  0  0  0
   19.6866    0.9209    0.0000 O   0  0  0  0  0  0  0  0  0  0  0  0
   20.9835   -1.2183    0.0000 N   0  0  0  0  0  0  0  0  0  0  0  0
   22.2163   -0.3638    0.0000 C   0  0  0  0  0  0  0  0  0  0  0  0
   23.0825    0.8608    0.0000 C   0  0  0  0  0  0  0  0  0  0  0  0
   24.5762    0.7229    0.0000 C   0  0  0  0  0  0  0  0  0  0  0  0
   25.4424    1.9475    0.0000 C   0  0  0  0  0  0  0  0  0  0  0  0
   25.9326    0.0825    0.0000 C   0  0  0  0  0  0  0  0  0  0  0  0
   23.5727   -1.0042    0.0000 C   0  0  0  0  0  0  0  0  0  0  0  0
   23.6963   -2.4991    0.0000 O   0  0  0  0  0  0  0  0  0  0  0  0
   24.8056   -0.1498    0.0000 N   0  0  0  0  0  0  0  0  0  0  0  0
   26.1620   -0.7902    0.0000 C   0  0  0  0  0  0  0  0  0  0  0  0
   27.2176   -1.8559    0.0000 C   0  0  0  0  0  0  0  0  0  0  0  0
   26.8224   -3.3029    0.0000 C   0  0  0  0  0  0  0  0  0  0  0  0
   27.8780   -4.3686    0.0000 C   0  0  0  0  0  0  0  0  0  0  0  0
   25.9562   -4.5275    0.0000 C   0  0  0  0  0  0  0  0  0  0  0  0
   27.3948    0.0643    0.0000 C   0  0  0  0  0  0  0  0  0  0  0  0
   28.8192   -0.4060    0.0000 O   0  0  0  0  0  0  0  0  0  0  0  0
   27.4544    1.5631    0.0000 O   0  0  0  0  0  0  0  0  0  0  0  0
  -22.8562    7.9542    0.0000 H   0  0  0  0  0  0  0  0  0  0  0  0
  -25.2161    6.8675    0.0000 H   0  0  0  0  0  0  0  0  0  0  0  0
  -21.8622    6.2216    0.0000 H   0  0  0  0  0  0  0  0  0  0  0  0
  -22.0394    4.3014    0.0000 H   0  0  0  0  0  0  0  0  0  0  0  0
  -25.0168    5.2083    0.0000 H   0  0  0  0  0  0  0  0  0  0  0  0
  -25.1941    3.2881    0.0000 H   0  0  0  0  0  0  0  0  0  0  0  0
  -25.1617    1.7647    0.0000 H   0  0  0  0  0  0  0  0  0  0  0  0
  -22.3398    1.0475    0.0000 H   0  0  0  0  0  0  0  0  0  0  0  0
  -26.5170   -0.0504    0.0000 H   0  0  0  0  0  0  0  0  0  0  0  0
  -25.2234    0.7753    0.0000 H   0  0  0  0  0  0  0  0  0  0  0  0
  -26.7749   -0.9949    0.0000 H   0  0  0  0  0  0  0  0  0  0  0  0
  -24.5572   -4.0370    0.0000 H   0  0  0  0  0  0  0  0  0  0  0  0
  -23.4384   -3.2850    0.0000 H   0  0  0  0  0  0  0  0  0  0  0  0
  -23.7946   -1.8976    0.0000 H   0  0  0  0  0  0  0  0  0  0  0  0
  -25.8281   -4.2887    0.0000 H   0  0  0  0  0  0  0  0  0  0  0  0
  -27.5175   -3.7144    0.0000 H   0  0  0  0  0  0  0  0  0  0  0  0
  -27.3403   -1.7942    0.0000 H   0  0  0  0  0  0  0  0  0  0  0  0
  -20.6712    0.9556    0.0000 H   0  0  0  0  0  0  0  0  0  0  0  0
  -19.1445   -0.3325    0.0000 H   0  0  0  0  0  0  0  0  0  0  0  0
  -22.4274   -3.0605    0.0000 H   0  0  0  0  0  0  0  0  0  0  0  0
  -21.9277   -1.5586    0.0000 H   0  0  0  0  0  0  0  0  0  0  0  0
  -20.4925   -5.2690    0.0000 H   0  0  0  0  0  0  0  0  0  0  0  0
  -19.6692   -3.5252    0.0000 H   0  0  0  0  0  0  0  0  0  0  0  0
  -17.5451    0.1518    0.0000 H   0  0  0  0  0  0  0  0  0  0  0  0
  -15.6699   -0.5365    0.0000 H   0  0  0  0  0  0  0  0  0  0  0  0
  -18.0508   -4.2065    0.0000 H   0  0  0  0  0  0  0  0  0  0  0  0
  -18.2134   -2.4295    0.0000 H   0  0  0  0  0  0  0  0  0  0  0  0
  -16.5427   -7.1577    0.0000 H   0  0  0  0  0  0  0  0  0  0  0  0
  -18.6638   -5.6573    0.0000 H   0  0  0  0  0  0  0  0  0  0  0  0
  -14.4940    0.3791    0.0000 H   0  0  0  0  0  0  0  0  0  0  0  0
  -12.6067   -2.4817    0.0000 H   0  0  0  0  0  0  0  0  0  0  0  0
  -11.6016    1.7686    0.0000 H   0  0  0  0  0  0  0  0  0  0  0  0
  -10.8415    0.3224    0.0000 H   0  0  0  0  0  0  0  0  0  0  0  0
  -15.1852    1.2385    0.0000 H   0  0  0  0  0  0  0  0  0  0  0  0
  -14.5791   -0.1086    0.0000 H   0  0  0  0  0  0  0  0  0  0  0  0
  -13.5993    4.0800    0.0000 H   0  0  0  0  0  0  0  0  0  0  0  0
  -12.3215    2.4577    0.0000 H   0  0  0  0  0  0  0  0  0  0  0  0
  -16.4044    2.3815    0.0000 H   0  0  0  0  0  0  0  0  0  0  0  0
  -16.7752    6.8662    0.0000 H   0  0  0  0  0  0  0  0  0  0  0  0
  -17.8844    4.5168    0.0000 H   0  0  0  0  0  0  0  0  0  0  0  0
  -14.1859    7.0803    0.0000 H   0  0  0  0  0  0  0  0  0  0  0  0
  -12.6380    5.1151    0.0000 H   0  0  0  0  0  0  0  0  0  0  0  0
  -12.0593   -3.8678    0.0000 H   0  0  0  0  0  0  0  0  0  0  0  0
   -8.9800   -2.3634    0.0000 H   0  0  0  0  0  0  0  0  0  0  0  0
  -10.6365   -6.4820    0.0000 H   0  0  0  0  0  0  0  0  0  0  0  0
   -8.8849   -5.6754    0.0000 H   0  0  0  0  0  0  0  0  0  0  0  0
  -13.0914   -4.2567    0.0000 H   0  0  0  0  0  0  0  0  0  0  0  0
  -11.8848   -3.4046    0.0000 H   0  0  0  0  0  0  0  0  0  0  0  0
  -14.9611   -7.2084    0.0000 H   0  0  0  0  0  0  0  0  0  0  0  0
  -14.5515   -4.5550    0.0000 H   0  0  0  0  0  0  0  0  0  0  0  0
   -7.8041   -1.4478    0.0000 H   0  0  0  0  0  0  0  0  0  0  0  0
   -4.9592   -5.5376    0.0000 H   0  0  0  0  0  0  0  0  0  0  0  0
   -6.0560   -4.5578    0.0000 H   0  0  0  0  0  0  0  0  0  0  0  0
   -3.4936   -6.4680    0.0000 H   0  0  0  0  0  0  0  0  0  0  0  0
   -4.6473   -5.8511    0.0000 H   0  0  0  0  0  0  0  0  0  0  0  0
   -1.4619   -6.8634    0.0000 H   0  0  0  0  0  0  0  0  0  0  0  0
   -2.9200   -6.6718    0.0000 H   0  0  0  0  0  0  0  0  0  0  0  0
   -0.3611   -7.0260    0.0000 H   0  0  0  0  0  0  0  0  0  0  0  0
   -7.6946   -4.5003    0.0000 H   0  0  0  0  0  0  0  0  0  0  0  0
   -6.3175   -5.6453    0.0000 H   0  0  0  0  0  0  0  0  0  0  0  0
   -5.1681   -5.1901    0.0000 H   0  0  0  0  0  0  0  0  0  0  0  0
   -7.5489    0.2309    0.0000 H   0  0  0  0  0  0  0  0  0  0  0  0
   -6.3285    2.8476    0.0000 H   0  0  0  0  0  0  0  0  0  0  0  0
   -8.3588    0.3859    0.0000 H   0  0  0  0  0  0  0  0  0  0  0  0
   -7.0145   -0.2264    0.0000 H   0  0  0  0  0  0  0  0  0  0  0  0
   -8.4018    3.9006    0.0000 H   0  0  0  0  0  0  0  0  0  0  0  0
   -6.8764    3.3154    0.0000 H   0  0  0  0  0  0  0  0  0  0  0  0
  -10.7845    1.3165    0.0000 H   0  0  0  0  0  0  0  0  0  0  0  0
   -9.2591    0.7313    0.0000 H   0  0  0  0  0  0  0  0  0  0  0  0
  -11.0041    4.7822    0.0000 H   0  0  0  0  0  0  0  0  0  0  0  0
   -9.3021    4.2459    0.0000 H   0  0  0  0  0  0  0  0  0  0  0  0
  -12.5866    4.4927    0.0000 H   0  0  0  0  0  0  0  0  0  0  0  0
  -13.4013    2.7449    0.0000 H   0  0  0  0  0  0  0  0  0  0  0  0
  -11.5083    1.7109    0.0000 H   0  0  0  0  0  0  0  0  0  0  0  0
   -4.5102    5.0160    0.0000 H   0  0  0  0  0  0  0  0  0  0  0  0
   -1.7035    5.6933    0.0000 H   0  0  0  0  0  0  0  0  0  0  0  0
   -4.8940    5.7459    0.0000 H   0  0  0  0  0  0  0  0  0  0  0  0
   -4.5346    4.3131    0.0000 H   0  0  0  0  0  0  0  0  0  0  0  0
   -1.6794    6.4133    0.0000 H   0  0  0  0  0  0  0  0  0  0  0  0
   -4.0913    9.3171    0.0000 H   0  0  0  0  0  0  0  0  0  0  0  0
   -5.6195    8.3958    0.0000 H   0  0  0  0  0  0  0  0  0  0  0  0
   -5.1853    6.6650    0.0000 H   0  0  0  0  0  0  0  0  0  0  0  0
   -2.8486    9.4826    0.0000 H   0  0  0  0  0  0  0  0  0  0  0  0
   -1.1326    8.9932    0.0000 H   0  0  0  0  0  0  0  0  0  0  0  0
   -1.2139    7.0665    0.0000 H   0  0  0  0  0  0  0  0  0  0  0  0
    1.1254    5.6237    0.0000 H   0  0  0  0  0  0  0  0  0  0  0  0
    3.4050    3.8516    0.0000 H   0  0  0  0  0  0  0  0  0  0  0  0
    1.6293    6.4404    0.0000 H   0  0  0  0  0  0  0  0  0  0  0  0
    0.5607    5.2045    0.0000 H   0  0  0  0  0  0  0  0  0  0  0  0
    4.8844    5.8217    0.0000 H   0  0  0  0  0  0  0  0  0  0  0  0
    3.9829    4.2817    0.0000 H   0  0  0  0  0  0  0  0  0  0  0  0
    5.0442    1.7657    0.0000 H   0  0  0  0  0  0  0  0  0  0  0  0
    5.2675   -1.5817    0.0000 H   0  0  0  0  0  0  0  0  0  0  0  0
    4.7941   -2.9741    0.0000 H   0  0  0  0  0  0  0  0  0  0  0  0
    4.6767   -3.4005    0.0000 H   0  0  0  0  0  0  0  0  0  0  0  0
    3.9754   -4.5049    0.0000 H   0  0  0  0  0  0  0  0  0  0  0  0
    3.5762   -4.9644    0.0000 H   0  0  0  0  0  0  0  0  0  0  0  0
    2.4007   -5.8482    0.0000 H   0  0  0  0  0  0  0  0  0  0  0  0
    1.5221   -6.5310    0.0000 H   0  0  0  0  0  0  0  0  0  0  0  0
    6.6660   -0.7259    0.0000 H   0  0  0  0  0  0  0  0  0  0  0  0
    6.0299   -2.4001    0.0000 H   0  0  0  0  0  0  0  0  0  0  0  0
    4.8052   -2.5688    0.0000 H   0  0  0  0  0  0  0  0  0  0  0  0
    6.8622   -1.6220    0.0000 H   0  0  0  0  0  0  0  0  0  0  0  0
    6.7345    1.7669    0.0000 H   0  0  0  0  0  0  0  0  0  0  0  0
   10.1001    2.3325    0.0000 H   0  0  0  0  0  0  0  0  0  0  0  0
    9.0515    3.3728    0.0000 H   0  0  0  0  0  0  0  0  0  0  0  0
    7.2999    2.5662    0.0000 H   0  0  0  0  0  0  0  0  0  0  0  0
   10.4389    2.4141    0.0000 H   0  0  0  0  0  0  0  0  0  0  0  0
   10.8695   -0.9498    0.0000 H   0  0  0  0  0  0  0  0  0  0  0  0
   14.0596   -1.5919    0.0000 H   0  0  0  0  0  0  0  0  0  0  0  0
   13.9281    0.1877    0.0000 H   0  0  0  0  0  0  0  0  0  0  0  0
   13.0566   -4.7506    0.0000 H   0  0  0  0  0  0  0  0  0  0  0  0
   14.9025   -2.9223    0.0000 H   0  0  0  0  0  0  0  0  0  0  0  0
   14.6299   -0.9798    0.0000 H   0  0  0  0  0  0  0  0  0  0  0  0
   14.5022    2.4091    0.0000 H   0  0  0  0  0  0  0  0  0  0  0  0
   16.6399    4.0524    0.0000 H   0  0  0  0  0  0  0  0  0  0  0  0
   15.0676    3.2084    0.0000 H   0  0  0  0  0  0  0  0  0  0  0  0
   19.3421    1.9598    0.0000 H   0  0  0  0  0  0  0  0  0  0  0  0
   18.0675    0.9376    0.0000 H   0  0  0  0  0  0  0  0  0  0  0  0
   19.1791    5.1017    0.0000 H   0  0  0  0  0  0  0  0  0  0  0  0
   17.5157    4.4557    0.0000 H   0  0  0  0  0  0  0  0  0  0  0  0
   20.9050    2.1544    0.0000 H   0  0  0  0  0  0  0  0  0  0  0  0
   23.5037    5.8282    0.0000 H   0  0  0  0  0  0  0  0  0  0  0  0
   23.2649    3.2411    0.0000 H   0  0  0  0  0  0  0  0  0  0  0  0
   21.3826    7.3285    0.0000 H   0  0  0  0  0  0  0  0  0  0  0  0
   19.0227    6.2418    0.0000 H   0  0  0  0  0  0  0  0  0  0  0  0
   15.8050   -1.6464    0.0000 H   0  0  0  0  0  0  0  0  0  0  0  0
   17.5280   -2.6570    0.0000 H   0  0  0  0  0  0  0  0  0  0  0  0
   20.7181   -3.2991    0.0000 H   0  0  0  0  0  0  0  0  0  0  0  0
   20.5866   -1.5195    0.0000 H   0  0  0  0  0  0  0  0  0  0  0  0
   21.4914   -5.0440    0.0000 H   0  0  0  0  0  0  0  0  0  0  0  0
   19.7010   -7.7723    0.0000 H   0  0  0  0  0  0  0  0  0  0  0  0
   16.5529   -6.9126    0.0000 H   0  0  0  0  0  0  0  0  0  0  0  0
   21.2884   -2.6870    0.0000 H   0  0  0  0  0  0  0  0  0  0  0  0
   21.1607    0.7019    0.0000 H   0  0  0  0  0  0  0  0  0  0  0  0
   23.2984    2.3452    0.0000 H   0  0  0  0  0  0  0  0  0  0  0  0
   21.7261    1.5012    0.0000 H   0  0  0  0  0  0  0  0  0  0  0  0
   24.9068   -0.7402    0.0000 H   0  0  0  0  0  0  0  0  0  0  0  0
   26.9250    2.1752    0.0000 H   0  0  0  0  0  0  0  0  0  0  0  0
   25.8376    3.3945    0.0000 H   0  0  0  0  0  0  0  0  0  0  0  0
   24.1742    2.7485    0.0000 H   0  0  0  0  0  0  0  0  0  0  0  0
   26.4143   -1.3381    0.0000 H   0  0  0  0  0  0  0  0  0  0  0  0
   27.3764    0.4892    0.0000 H   0  0  0  0  0  0  0  0  0  0  0  0
   26.5012    1.4705    0.0000 H   0  0  0  0  0  0  0  0  0  0  0  0
   25.0474    1.3306    0.0000 H   0  0  0  0  0  0  0  0  0  0  0  0
   25.1529   -1.9001    0.0000 H   0  0  0  0  0  0  0  0  0  0  0  0
   28.6419   -2.3262    0.0000 H   0  0  0  0  0  0  0  0  0  0  0  0
   28.3544   -0.8773    0.0000 H   0  0  0  0  0  0  0  0  0  0  0  0
   25.3980   -2.8326    0.0000 H   0  0  0  0  0  0  0  0  0  0  0  0
   27.6622   -5.8530    0.0000 H   0  0  0  0  0  0  0  0  0  0  0  0
   29.2344   -5.0090    0.0000 H   0  0  0  0  0  0  0  0  0  0  0  0
   28.8870   -3.2587    0.0000 H   0  0  0  0  0  0  0  0  0  0  0  0
   26.4128   -5.9563    0.0000 H   0  0  0  0  0  0  0  0  0  0  0  0
   24.7233   -5.3820    0.0000 H   0  0  0  0  0  0  0  0  0  0  0  0
   24.9006   -3.4618    0.0000 H   0  0  0  0  0  0  0  0  0  0  0  0
  1  2  1  0
  2  3  1  0
  3  4  1  0
  4  5  2  0
  4  6  1  0
  6  7  1  0
  7  8  1  0
  8  9  1  0
  9 10  1  0
  9 11  1  0
  7 12  1  0
 12 13  2  0
 12 14  1  0
 14 15  1  0
 15 16  1  0
 16 17  1  0
 17 18  1  0
 18 19  2  0
 18 20  1  0
 15 21  1  0
 21 22  2  0
 21 23  1  0
 23 24  1  0
 24 25  1  0
 25 26  1  0
 26 27  1  0
 26 28  2  0
 24 29  1  0
 29 30  2  0
 29 31  1  0
 31 32  1  0
 32 33  1  0
 33 34  1  0
 34 35  1  0
 35 36  1  0
 36 37  1  0
 37 38  2  3
 37 39  1  0
 32 40  1  0
 40 41  2  0
 40 42  1  0
 42 43  1  0
 43 44  1  0
 44 45  1  0
 45 46  1  0
 46 47  1  0
 46 48  2  0
 43 49  1  0
 49 50  2  0
 49 51  1  0
 52 51  1  6
 52 53  1  0
 53 54  1  0
 54 55  1  0
 55 56  1  0
 52 57  1  0
 52 58  1  0
 58 59  2  0
 58 60  1  0
 60 61  1  0
 61 62  1  0
 62 63  1  0
 63 64  1  0
 64 65  1  0
 65 66  1  0
 61 67  1  0
 67 68  2  0
 67 69  1  0
 69 70  1  0
 70 71  1  0
 71 72  1  0
 72 73  1  0
 72 74  1  0
 70 75  1  0
 75 76  2  0
 75 77  1  0
 77 78  1  0
 78 79  1  0
 79 80  1  0
 80 81  1  0
 81 82  2  0
 81 83  1  0
 78 84  1  0
 84 85  2  0
 84 86  1  0
 86 87  1  0
 87 88  1  0
 88 89  1  0
 89 90  1  0
 90 91  1  0
 87 92  1  0
 87 93  1  6
 93 94  2  0
 93 95  1  0
 95 96  1  0
 96 97  1  0
 96 98  1  0
 98 99  2  0
 98100  1  0
100101  1  0
101102  1  0
102103  1  0
103104  1  0
103105  2  0
101106  1  0
106107  2  0
106108  1  0
108109  1  0
109110  1  0
110111  1  0
111112  1  0
112113  1  0
113114  1  0
114115  2  3
114116  1  0
109117  1  0
117118  2  0
117119  1  0
119120  1  0
120121  1  0
121122  1  0
122123  2  0
123124  1  0
124125  1  0
125126  2  0
120127  1  0
127128  2  0
127129  1  0
129130  1  0
130131  1  0
131132  1  0
132133  1  0
132134  1  0
130135  1  0
135136  2  0
135137  1  0
137138  1  0
138139  1  0
139140  1  0
140141  1  0
140142  1  0
138143  1  0
143144  2  0
143145  1  0
126122  1  0
 56 91  2  0
  1146  1  0
  1147  1  0
  2148  1  0
  2149  1  0
  3150  1  0
  3151  1  0
  6152  1  0
  7153  1  6
  8154  1  0
  8155  1  0
  9156  1  0
 10157  1  0
 10158  1  0
 10159  1  0
 11160  1  0
 11161  1  0
 11162  1  0
 14163  1  0
 15164  1  6
 16165  1  0
 16166  1  0
 17167  1  0
 17168  1  0
 23169  1  0
 24170  1  6
 25171  1  0
 25172  1  0
 27173  1  0
 27174  1  0
 31175  1  0
 32176  1  1
 33177  1  0
 33178  1  0
 34179  1  0
 34180  1  0
 35181  1  0
 35182  1  0
 36183  1  0
 38184  1  0
 38185  1  0
 39186  1  0
 39187  1  0
 42188  1  0
 43189  1  6
 44190  1  0
 44191  1  0
 45192  1  0
 45193  1  0
 47194  1  0
 47195  1  0
 51196  1  0
 53197  1  0
 53198  1  0
 54199  1  0
 54200  1  0
 55201  1  0
 55202  1  0
 56203  1  0
 57204  1  0
 57205  1  0
 57206  1  0
 60207  1  0
 61208  1  1
 62209  1  0
 62210  1  0
 63211  1  0
 63212  1  0
 64213  1  0
 64214  1  0
 65215  1  0
 65216  1  0
 66217  1  0
 66218  1  0
 66219  1  0
 69220  1  0
 70221  1  1
 71222  1  0
 71223  1  0
 72224  1  0
 73225  1  0
 73226  1  0
 73227  1  0
 74228  1  0
 74229  1  0
 74230  1  0
 77231  1  0
 78232  1  1
 79233  1  0
 79234  1  0
 80235  1  0
 80236  1  0
 86237  1  0
 88238  1  0
 88239  1  0
 89240  1  0
 89241  1  0
 90242  1  0
 90243  1  0
 91244  1  0
 92245  1  0
 92246  1  0
 92247  1  0
 95248  1  0
 96249  1  1
 97250  1  0
 97251  1  0
 97252  1  0
100253  1  0
101254  1  6
102255  1  0
102256  1  0
104257  1  0
104258  1  0
108259  1  0
109260  1  1
110261  1  0
110262  1  0
111263  1  0
111264  1  0
112265  1  0
112266  1  0
113267  1  0
115268  1  0
115269  1  0
116270  1  0
116271  1  0
119272  1  0
120273  1  6
121274  1  0
121275  1  0
123276  1  0
124277  1  0
125278  1  0
129279  1  0
130280  1  1
131281  1  0
131282  1  0
132283  1  0
133284  1  0
133285  1  0
133286  1  0
134287  1  0
134288  1  0
134289  1  0
137290  1  0
138291  1  6
139292  1  0
139293  1  0
140294  1  0
141295  1  0
141296  1  0
141297  1  0
142298  1  0
142299  1  0
142300  1  0
M  CHG  6  20  -1  38   1  66   1  83  -1 115   1 145  -1
M  END
