
     RDKit          2D

281291  0  0  0  0  0  0  0  0999 V2000
  -29.4889   -0.4244    0.0000 C   0  0  0  0  0  0  0  0  0  0  0  0
  -30.7105   -1.2950    0.0000 N   0  0  0  0  0  0  0  0  0  0  0  0
  -32.0751   -0.6723    0.0000 C   0  0  0  0  0  0  0  0  0  0  0  0
  -32.2182    0.8208    0.0000 C   0  0  0  0  0  0  0  0  0  0  0  0
  -33.5829    1.4435    0.0000 C   0  0  0  0  0  0  0  0  0  0  0  0
  -34.8045    0.5730    0.0000 C   0  0  0  0  0  0  0  0  0  0  0  0
  -34.6614   -0.9202    0.0000 C   0  0  0  0  0  0  0  0  0  0  0  0
  -33.2967   -1.5428    0.0000 C   0  0  0  0  0  0  0  0  0  0  0  0
  -36.0372   -1.5177    0.0000 C   0  0  0  0  0  0  0  0  0  0  0  0
  -37.0306   -0.3939    0.0000 O   0  0  0  0  0  0  0  0  0  0  0  0
  -36.2688    0.8983    0.0000 C   0  0  0  0  0  0  0  0  0  0  0  0
  -36.8663    2.2741    0.0000 O   0  0  0  0  0  0  0  0  0  0  0  0
  -37.4680   -1.9682    0.0000 C   0  0  0  0  0  0  0  0  0  0  0  0
  -37.7933   -3.4325    0.0000 C   0  0  0  0  0  0  0  0  0  0  0  0
  -39.2241   -3.8829    0.0000 C   0  0  0  0  0  0  0  0  0  0  0  0
  -40.3295   -2.8690    0.0000 C   0  0  0  0  0  0  0  0  0  0  0  0
  -40.0042   -1.4047    0.0000 C   0  0  0  0  0  0  0  0  0  0  0  0
  -38.5735   -0.9543    0.0000 C   0  0  0  0  0  0  0  0  0  0  0  0
  -41.7603   -3.3194    0.0000 O   0  0  0  0  0  0  0  0  0  0  0  0
  -36.6878   -4.4463    0.0000 O   0  0  0  0  0  0  0  0  0  0  0  0
  -35.2570   -3.9959    0.0000 C   0  0  0  0  0  0  0  0  0  0  0  0
  -34.9317   -2.5316    0.0000 C   0  0  0  0  0  0  0  0  0  0  0  0
  -33.6528   -2.7645    0.0000 C   0  0  0  0  0  0  0  0  0  0  0  0
  -33.0632   -3.3052    0.0000 C   0  0  0  0  0  0  0  0  0  0  0  0
  -33.2367   -4.0862    0.0000 C   0  0  0  0  0  0  0  0  0  0  0  0
  -33.9998   -4.3264    0.0000 C   0  0  0  0  0  0  0  0  0  0  0  0
  -31.6153   -5.5732    0.0000 O   0  0  0  0  0  0  0  0  0  0  0  0
  -29.6320    1.0687    0.0000 S   0  0  0  0  0  0  0  0  0  0  0  0
  -28.1242   -1.0471    0.0000 N   0  0  0  0  0  0  0  0  0  0  0  0
  -26.9027   -0.1766    0.0000 C   0  0  0  0  0  0  0  0  0  0  0  0
  -25.5380   -0.7992    0.0000 C   0  0  0  0  0  0  0  0  0  0  0  0
  -24.3165    0.0713    0.0000 C   0  0  0  0  0  0  0  0  0  0  0  0
  -24.4596    1.5645    0.0000 O   0  0  0  0  0  0  0  0  0  0  0  0
  -22.9518   -0.5513    0.0000 N   0  0  0  0  0  0  0  0  0  0  0  0
  -21.7302    0.3192    0.0000 C   0  0  0  0  0  0  0  0  0  0  0  0
  -20.8801    1.5550    0.0000 C   0  0  0  0  0  0  0  0  0  0  0  0
  -19.3848    1.4367    0.0000 C   0  0  0  0  0  0  0  0  0  0  0  0
  -18.5346    2.6725    0.0000 N   0  0  0  0  0  0  0  0  0  0  0  0
  -18.8779    0.8214    0.0000 O   0  0  0  0  0  0  0  0  0  0  0  0
  -20.3656   -0.3034    0.0000 C   0  0  0  0  0  0  0  0  0  0  0  0
  -20.2225   -1.7966    0.0000 O   0  0  0  0  0  0  0  0  0  0  0  0
  -19.1440    0.5671    0.0000 N   0  0  0  0  0  0  0  0  0  0  0  0
  -17.7793   -0.0556    0.0000 C   0  0  0  0  0  0  0  0  0  0  0  0
  -16.7099   -1.1074    0.0000 C   0  0  0  0  0  0  0  0  0  0  0  0
  -15.2169   -1.2519    0.0000 O   0  0  0  0  0  0  0  0  0  0  0  0
  -16.5578    0.8149    0.0000 C   0  0  0  0  0  0  0  0  0  0  0  0
  -16.5178    2.3144    0.0000 O   0  0  0  0  0  0  0  0  0  0  0  0
  -15.1931    0.1923    0.0000 N   0  0  0  0  0  0  0  0  0  0  0  0
  -13.9716    1.0628    0.0000 C   0  0  0  0  0  0  0  0  0  0  0  0
  -13.1214    2.2986    0.0000 C   0  0  0  0  0  0  0  0  0  0  0  0
  -11.6830    2.7242    0.0000 O   0  0  0  0  0  0  0  0  0  0  0  0
  -12.6069    0.4402    0.0000 C   0  0  0  0  0  0  0  0  0  0  0  0
  -12.6469   -1.0593    0.0000 O   0  0  0  0  0  0  0  0  0  0  0  0
  -11.3853    1.3107    0.0000 N   0  0  0  0  0  0  0  0  0  0  0  0
  -10.0207    0.6881    0.0000 C   0  0  0  0  0  0  0  0  0  0  0  0
   -8.9513   -0.3638    0.0000 C   0  0  0  0  0  0  0  0  0  0  0  0
   -9.3275   -1.8158    0.0000 C   0  0  0  0  0  0  0  0  0  0  0  0
  -10.7731   -2.2160    0.0000 C   0  0  0  0  0  0  0  0  0  0  0  0
  -11.1493   -3.6681    0.0000 C   0  0  0  0  0  0  0  0  0  0  0  0
  -10.0799   -4.7199    0.0000 C   0  0  0  0  0  0  0  0  0  0  0  0
   -8.6343   -4.3197    0.0000 C   0  0  0  0  0  0  0  0  0  0  0  0
   -8.2581   -2.8677    0.0000 C   0  0  0  0  0  0  0  0  0  0  0  0
   -8.7991    1.5586    0.0000 C   0  0  0  0  0  0  0  0  0  0  0  0
   -8.9422    3.0517    0.0000 O   0  0  0  0  0  0  0  0  0  0  0  0
   -7.4344    0.9359    0.0000 N   0  0  0  0  0  0  0  0  0  0  0  0
   -6.2129    1.8065    0.0000 C   0  0  0  0  0  0  0  0  0  0  0  0
   -5.3627    3.0423    0.0000 C   0  0  0  0  0  0  0  0  0  0  0  0
   -4.8482    1.1838    0.0000 C   0  0  0  0  0  0  0  0  0  0  0  0
   -4.7051   -0.3093    0.0000 O   0  0  0  0  0  0  0  0  0  0  0  0
   -3.6267    2.0543    0.0000 N   0  0  0  0  0  0  0  0  0  0  0  0
   -2.2620    1.4317    0.0000 C   0  0  0  0  0  0  0  0  0  0  0  0
   -1.1926    0.3799    0.0000 C   0  0  0  0  0  0  0  0  0  0  0  0
   -1.5688   -1.0722    0.0000 C   0  0  0  0  0  0  0  0  0  0  0  0
   -0.4994   -2.1240    0.0000 O   0  0  0  0  0  0  0  0  0  0  0  0
   -3.0144   -1.4724    0.0000 O   0  0  0  0  0  0  0  0  0  0  0  0
   -1.0404    2.3022    0.0000 C   0  0  0  0  0  0  0  0  0  0  0  0
   -1.1836    3.7954    0.0000 O   0  0  0  0  0  0  0  0  0  0  0  0
    0.3242    1.6796    0.0000 N   0  0  0  0  0  0  0  0  0  0  0  0
    1.5458    2.5501    0.0000 C   0  0  0  0  0  0  0  0  0  0  0  0
    2.3959    3.7859    0.0000 C   0  0  0  0  0  0  0  0  0  0  0  0
    3.8913    3.6676    0.0000 C   0  0  0  0  0  0  0  0  0  0  0  0
    4.5364    2.3134    0.0000 C   0  0  0  0  0  0  0  0  0  0  0  0
    6.0318    2.1951    0.0000 C   0  0  0  0  0  0  0  0  0  0  0  0
    6.8819    3.4309    0.0000 C   0  0  0  0  0  0  0  0  0  0  0  0
    6.2367    4.7850    0.0000 C   0  0  0  0  0  0  0  0  0  0  0  0
    4.7414    4.9034    0.0000 C   0  0  0  0  0  0  0  0  0  0  0  0
    2.9104    1.9275    0.0000 C   0  0  0  0  0  0  0  0  0  0  0  0
    2.6880    0.4440    0.0000 O   0  0  0  0  0  0  0  0  0  0  0  0
    4.1320    2.7980    0.0000 N   0  0  0  0  0  0  0  0  0  0  0  0
    5.4967    2.1753    0.0000 C   0  0  0  0  0  0  0  0  0  0  0  0
    6.5661    1.1235    0.0000 C   0  0  0  0  0  0  0  0  0  0  0  0
    6.1899   -0.3285    0.0000 C   0  0  0  0  0  0  0  0  0  0  0  0
    4.7443   -0.7288    0.0000 C   0  0  0  0  0  0  0  0  0  0  0  0
    4.3680   -2.1808    0.0000 C   0  0  0  0  0  0  0  0  0  0  0  0
    5.4375   -3.2327    0.0000 C   0  0  0  0  0  0  0  0  0  0  0  0
    6.8831   -2.8324    0.0000 C   0  0  0  0  0  0  0  0  0  0  0  0
    7.2593   -1.3804    0.0000 C   0  0  0  0  0  0  0  0  0  0  0  0
    6.7182    3.0459    0.0000 C   0  0  0  0  0  0  0  0  0  0  0  0
    6.9407    4.5293    0.0000 O   0  0  0  0  0  0  0  0  0  0  0  0
    8.0829    2.4232    0.0000 N   0  0  0  0  0  0  0  0  0  0  0  0
    9.3045    3.2937    0.0000 C   0  0  0  0  0  0  0  0  0  0  0  0
   10.1546    4.5296    0.0000 C   0  0  0  0  0  0  0  0  0  0  0  0
   11.6499    4.4112    0.0000 C   0  0  0  0  0  0  0  0  0  0  0  0
   12.6246    5.5514    0.0000 C   0  0  0  0  0  0  0  0  0  0  0  0
   14.0102    4.9768    0.0000 N   0  0  0  0  0  0  0  0  0  0  0  0
   13.8918    3.4814    0.0000 C   0  0  0  0  0  0  0  0  0  0  0  0
   12.4331    3.1319    0.0000 N   0  0  0  0  0  0  0  0  0  0  0  0
   10.6691    2.6711    0.0000 C   0  0  0  0  0  0  0  0  0  0  0  0
   10.8122    1.1779    0.0000 O   0  0  0  0  0  0  0  0  0  0  0  0
   11.8907    3.5416    0.0000 N   0  0  0  0  0  0  0  0  0  0  0  0
   13.2553    2.9190    0.0000 C   0  0  0  0  0  0  0  0  0  0  0  0
   14.3248    1.8671    0.0000 C   0  0  0  0  0  0  0  0  0  0  0  0
   15.6034    1.0828    0.0000 O   0  0  0  0  0  0  0  0  0  0  0  0
   13.9486    0.4151    0.0000 C   0  0  0  0  0  0  0  0  0  0  0  0
   14.4769    3.7895    0.0000 C   0  0  0  0  0  0  0  0  0  0  0  0
   14.6993    5.2729    0.0000 O   0  0  0  0  0  0  0  0  0  0  0  0
   15.8416    3.1669    0.0000 N   0  0  0  0  0  0  0  0  0  0  0  0
   17.0631    4.0374    0.0000 C   0  0  0  0  0  0  0  0  0  0  0  0
   17.9133    5.2732    0.0000 C   0  0  0  0  0  0  0  0  0  0  0  0
   19.3928    5.5202    0.0000 C   0  0  0  0  0  0  0  0  0  0  0  0
   18.4278    3.4147    0.0000 C   0  0  0  0  0  0  0  0  0  0  0  0
   18.5709    1.9216    0.0000 O   0  0  0  0  0  0  0  0  0  0  0  0
   19.6493    4.2853    0.0000 N   0  0  0  0  0  0  0  0  0  0  0  0
   19.6631    5.7852    0.0000 C   0  0  0  0  0  0  0  0  0  0  0  0
   21.0939    6.2356    0.0000 C   0  0  0  0  0  0  0  0  0  0  0  0
   21.9644    5.0141    0.0000 C   0  0  0  0  0  0  0  0  0  0  0  0
   21.0716    3.8087    0.0000 C   0  0  0  0  0  0  0  0  0  0  0  0
   22.3637    3.0468    0.0000 C   0  0  0  0  0  0  0  0  0  0  0  0
   23.7498    3.6202    0.0000 O   0  0  0  0  0  0  0  0  0  0  0  0
   22.3500    1.5469    0.0000 N   0  0  0  0  0  0  0  0  0  0  0  0
   23.6421    0.7850    0.0000 C   0  0  0  0  0  0  0  0  0  0  0  0
   25.1169    0.5110    0.0000 C   0  0  0  0  0  0  0  0  0  0  0  0
   25.6169   -0.9032    0.0000 C   0  0  0  0  0  0  0  0  0  0  0  0
   24.6423   -2.0434    0.0000 C   0  0  0  0  0  0  0  0  0  0  0  0
   25.1424   -3.4576    0.0000 C   0  0  0  0  0  0  0  0  0  0  0  0
   26.6171   -3.7316    0.0000 C   0  0  0  0  0  0  0  0  0  0  0  0
   27.1172   -5.1457    0.0000 O   0  0  0  0  0  0  0  0  0  0  0  0
   27.5918   -2.5914    0.0000 C   0  0  0  0  0  0  0  0  0  0  0  0
   27.0917   -1.1772    0.0000 C   0  0  0  0  0  0  0  0  0  0  0  0
   23.6283   -0.7150    0.0000 C   0  0  0  0  0  0  0  0  0  0  0  0
   22.2423   -1.2883    0.0000 O   0  0  0  0  0  0  0  0  0  0  0  0
   24.9205   -1.4768    0.0000 N   0  0  0  0  0  0  0  0  0  0  0  0
   24.9067   -2.9768    0.0000 C   0  0  0  0  0  0  0  0  0  0  0  0
   24.3808   -4.3815    0.0000 C   0  0  0  0  0  0  0  0  0  0  0  0
   22.9012   -4.6285    0.0000 C   0  0  0  0  0  0  0  0  0  0  0  0
   22.3753   -6.0332    0.0000 N   0  0  0  0  0  0  0  0  0  0  0  0
   21.9476   -3.4706    0.0000 O   0  0  0  0  0  0  0  0  0  0  0  0
   26.1988   -3.7386    0.0000 C   0  0  0  0  0  0  0  0  0  0  0  0
   27.6445   -3.3385    0.0000 O   0  0  0  0  0  0  0  0  0  0  0  0
   26.1851   -5.2386    0.0000 N   0  0  0  0  0  0  0  0  0  0  0  0
   27.4772   -6.0004    0.0000 C   0  0  0  0  0  0  0  0  0  0  0  0
   28.9519   -6.2744    0.0000 C   0  0  0  0  0  0  0  0  0  0  0  0
   29.4520   -7.6886    0.0000 C   0  0  0  0  0  0  0  0  0  0  0  0
   30.9268   -7.9626    0.0000 C   0  0  0  0  0  0  0  0  0  0  0  0
   29.4383   -9.1886    0.0000 C   0  0  0  0  0  0  0  0  0  0  0  0
   27.4634   -7.5004    0.0000 C   0  0  0  0  0  0  0  0  0  0  0  0
   28.6530   -8.4141    0.0000 O   0  0  0  0  0  0  0  0  0  0  0  0
   26.1576   -8.2384    0.0000 O   0  0  0  0  0  0  0  0  0  0  0  0
  -30.3864   -2.7595    0.0000 H   0  0  0  0  0  0  0  0  0  0  0  0
  -30.9967    1.6913    0.0000 H   0  0  0  0  0  0  0  0  0  0  0  0
  -33.7260    2.9366    0.0000 H   0  0  0  0  0  0  0  0  0  0  0  0
  -32.7965   -2.9570    0.0000 H   0  0  0  0  0  0  0  0  0  0  0  0
  -39.5494   -5.3472    0.0000 H   0  0  0  0  0  0  0  0  0  0  0  0
  -41.1097   -0.3908    0.0000 H   0  0  0  0  0  0  0  0  0  0  0  0
  -38.2482    0.5100    0.0000 H   0  0  0  0  0  0  0  0  0  0  0  0
  -42.8658   -2.3056    0.0000 H   0  0  0  0  0  0  0  0  0  0  0  0
  -33.1757   -0.6169    0.0000 H   0  0  0  0  0  0  0  0  0  0  0  0
  -30.9205   -2.8224    0.0000 H   0  0  0  0  0  0  0  0  0  0  0  0
  -34.4769   -6.4741    0.0000 H   0  0  0  0  0  0  0  0  0  0  0  0
  -31.9406   -7.0375    0.0000 H   0  0  0  0  0  0  0  0  0  0  0  0
  -27.9811   -2.5402    0.0000 H   0  0  0  0  0  0  0  0  0  0  0  0
  -26.0525    1.0592    0.0000 H   0  0  0  0  0  0  0  0  0  0  0  0
  -27.9721    0.8753    0.0000 H   0  0  0  0  0  0  0  0  0  0  0  0
  -24.4686   -1.8510    0.0000 H   0  0  0  0  0  0  0  0  0  0  0  0
  -26.3882   -2.0350    0.0000 H   0  0  0  0  0  0  0  0  0  0  0  0
  -22.8087   -2.0445    0.0000 H   0  0  0  0  0  0  0  0  0  0  0  0
  -22.7997    1.3710    0.0000 H   0  0  0  0  0  0  0  0  0  0  0  0
  -20.5039    3.0071    0.0000 H   0  0  0  0  0  0  0  0  0  0  0  0
  -22.2448    2.1776    0.0000 H   0  0  0  0  0  0  0  0  0  0  0  0
  -17.0360    2.7373    0.0000 H   0  0  0  0  0  0  0  0  0  0  0  0
  -19.1798    4.0266    0.0000 H   0  0  0  0  0  0  0  0  0  0  0  0
  -18.9216    2.0505    0.0000 H   0  0  0  0  0  0  0  0  0  0  0  0
  -18.6295   -1.2914    0.0000 H   0  0  0  0  0  0  0  0  0  0  0  0
  -16.0648   -2.4616    0.0000 H   0  0  0  0  0  0  0  0  0  0  0  0
  -17.9315   -1.9779    0.0000 H   0  0  0  0  0  0  0  0  0  0  0  0
  -14.1949   -1.7590    0.0000 H   0  0  0  0  0  0  0  0  0  0  0  0
  -14.8691   -1.2723    0.0000 H   0  0  0  0  0  0  0  0  0  0  0  0
  -15.0410    2.1147    0.0000 H   0  0  0  0  0  0  0  0  0  0  0  0
  -12.7452    3.7507    0.0000 H   0  0  0  0  0  0  0  0  0  0  0  0
  -14.4861    2.9213    0.0000 H   0  0  0  0  0  0  0  0  0  0  0  0
  -10.7759    3.4161    0.0000 H   0  0  0  0  0  0  0  0  0  0  0  0
  -11.3454    2.8102    0.0000 H   0  0  0  0  0  0  0  0  0  0  0  0
  -10.8708   -0.5477    0.0000 H   0  0  0  0  0  0  0  0  0  0  0  0
   -7.6727   -1.1481    0.0000 H   0  0  0  0  0  0  0  0  0  0  0  0
   -7.8273    0.6296    0.0000 H   0  0  0  0  0  0  0  0  0  0  0  0
  -11.9627   -1.3024    0.0000 H   0  0  0  0  0  0  0  0  0  0  0  0
  -12.5949   -4.0683    0.0000 H   0  0  0  0  0  0  0  0  0  0  0  0
  -10.4561   -6.1720    0.0000 H   0  0  0  0  0  0  0  0  0  0  0  0
   -7.5648   -5.3715    0.0000 H   0  0  0  0  0  0  0  0  0  0  0  0
   -6.8124   -2.4674    0.0000 H   0  0  0  0  0  0  0  0  0  0  0  0
   -7.1104   -0.5286    0.0000 H   0  0  0  0  0  0  0  0  0  0  0  0
   -7.2823    2.8583    0.0000 H   0  0  0  0  0  0  0  0  0  0  0  0
   -3.9244    3.4678    0.0000 H   0  0  0  0  0  0  0  0  0  0  0  0
   -4.9865    4.4943    0.0000 H   0  0  0  0  0  0  0  0  0  0  0  0
   -6.7274    3.6649    0.0000 H   0  0  0  0  0  0  0  0  0  0  0  0
   -3.5867    3.5538    0.0000 H   0  0  0  0  0  0  0  0  0  0  0  0
   -3.1122    0.1959    0.0000 H   0  0  0  0  0  0  0  0  0  0  0  0
    0.0860   -0.4045    0.0000 H   0  0  0  0  0  0  0  0  0  0  0  0
   -0.0687    1.3732    0.0000 H   0  0  0  0  0  0  0  0  0  0  0  0
    0.6483    0.2150    0.0000 H   0  0  0  0  0  0  0  0  0  0  0  0
    0.4764    3.6019    0.0000 H   0  0  0  0  0  0  0  0  0  0  0  0
    2.7721    5.2380    0.0000 H   0  0  0  0  0  0  0  0  0  0  0  0
    1.0313    4.4086    0.0000 H   0  0  0  0  0  0  0  0  0  0  0  0
    3.6863    1.0776    0.0000 H   0  0  0  0  0  0  0  0  0  0  0  0
    6.9854    1.0373    0.0000 H   0  0  0  0  0  0  0  0  0  0  0  0
    8.3772    3.3125    0.0000 H   0  0  0  0  0  0  0  0  0  0  0  0
    7.0869    6.0209    0.0000 H   0  0  0  0  0  0  0  0  0  0  0  0
    4.0962    6.2575    0.0000 H   0  0  0  0  0  0  0  0  0  0  0  0
    4.3544    4.2814    0.0000 H   0  0  0  0  0  0  0  0  0  0  0  0
    4.6465    0.9395    0.0000 H   0  0  0  0  0  0  0  0  0  0  0  0
    7.8447    0.3392    0.0000 H   0  0  0  0  0  0  0  0  0  0  0  0
    7.6900    2.1169    0.0000 H   0  0  0  0  0  0  0  0  0  0  0  0
    3.4521    0.0330    0.0000 H   0  0  0  0  0  0  0  0  0  0  0  0
    2.9224   -2.5811    0.0000 H   0  0  0  0  0  0  0  0  0  0  0  0
    5.0613   -4.6847    0.0000 H   0  0  0  0  0  0  0  0  0  0  0  0
    7.9525   -3.8843    0.0000 H   0  0  0  0  0  0  0  0  0  0  0  0
    8.7049   -0.9802    0.0000 H   0  0  0  0  0  0  0  0  0  0  0  0
    8.4070    0.9586    0.0000 H   0  0  0  0  0  0  0  0  0  0  0  0
    8.2350    4.3456    0.0000 H   0  0  0  0  0  0  0  0  0  0  0  0
   10.5308    5.9816    0.0000 H   0  0  0  0  0  0  0  0  0  0  0  0
    8.7899    5.1522    0.0000 H   0  0  0  0  0  0  0  0  0  0  0  0
   12.2751    7.0101    0.0000 H   0  0  0  0  0  0  0  0  0  0  0  0
   15.2895    5.7599    0.0000 H   0  0  0  0  0  0  0  0  0  0  0  0
   15.1423    2.6530    0.0000 H   0  0  0  0  0  0  0  0  0  0  0  0
   12.1131    5.0250    0.0000 H   0  0  0  0  0  0  0  0  0  0  0  0
   12.2609    1.7960    0.0000 H   0  0  0  0  0  0  0  0  0  0  0  0
   15.5614    2.7161    0.0000 H   0  0  0  0  0  0  0  0  0  0  0  0
   16.0135   -0.2201    0.0000 H   0  0  0  0  0  0  0  0  0  0  0  0
   14.8818   -0.7593    0.0000 H   0  0  0  0  0  0  0  0  0  0  0  0
   13.0984   -0.8207    0.0000 H   0  0  0  0  0  0  0  0  0  0  0  0
   12.5182    0.8667    0.0000 H   0  0  0  0  0  0  0  0  0  0  0  0
   16.1656    1.7023    0.0000 H   0  0  0  0  0  0  0  0  0  0  0  0
   15.9937    5.0892    0.0000 H   0  0  0  0  0  0  0  0  0  0  0  0
   18.2895    6.7252    0.0000 H   0  0  0  0  0  0  0  0  0  0  0  0
   16.5486    5.8958    0.0000 H   0  0  0  0  0  0  0  0  0  0  0  0
   20.2588    6.3907    0.0000 H   0  0  0  0  0  0  0  0  0  0  0  0
   20.9713    4.8956    0.0000 H   0  0  0  0  0  0  0  0  0  0  0  0
   19.9280    3.7464    0.0000 H   0  0  0  0  0  0  0  0  0  0  0  0
   18.1797    6.0076    0.0000 H   0  0  0  0  0  0  0  0  0  0  0  0
   19.3647    7.2552    0.0000 H   0  0  0  0  0  0  0  0  0  0  0  0
   20.4964    7.6115    0.0000 H   0  0  0  0  0  0  0  0  0  0  0  0
   22.3997    6.9737    0.0000 H   0  0  0  0  0  0  0  0  0  0  0  0
   23.0883    6.0075    0.0000 H   0  0  0  0  0  0  0  0  0  0  0  0
   23.1852    4.1425    0.0000 H   0  0  0  0  0  0  0  0  0  0  0  0
   20.4490    2.4440    0.0000 H   0  0  0  0  0  0  0  0  0  0  0  0
   21.0441    0.8088    0.0000 H   0  0  0  0  0  0  0  0  0  0  0  0
   24.1680    2.1898    0.0000 H   0  0  0  0  0  0  0  0  0  0  0  0
   26.5964    0.7579    0.0000 H   0  0  0  0  0  0  0  0  0  0  0  0
   25.1306    2.0109    0.0000 H   0  0  0  0  0  0  0  0  0  0  0  0
   23.1451   -1.9512    0.0000 H   0  0  0  0  0  0  0  0  0  0  0  0
   24.4726   -4.7997    0.0000 H   0  0  0  0  0  0  0  0  0  0  0  0
   28.6144   -5.2379    0.0000 H   0  0  0  0  0  0  0  0  0  0  0  0
   29.0666   -2.8654    0.0000 H   0  0  0  0  0  0  0  0  0  0  0  0
   28.0664   -0.0370    0.0000 H   0  0  0  0  0  0  0  0  0  0  0  0
   26.3661   -1.0767    0.0000 H   0  0  0  0  0  0  0  0  0  0  0  0
   23.4319   -2.7028    0.0000 H   0  0  0  0  0  0  0  0  0  0  0  0
   24.1843   -5.8686    0.0000 H   0  0  0  0  0  0  0  0  0  0  0  0
   25.7454   -5.0043    0.0000 H   0  0  0  0  0  0  0  0  0  0  0  0
   20.8958   -6.2802    0.0000 H   0  0  0  0  0  0  0  0  0  0  0  0
   23.3289   -7.1911    0.0000 H   0  0  0  0  0  0  0  0  0  0  0  0
   24.9789   -6.1303    0.0000 H   0  0  0  0  0  0  0  0  0  0  0  0
   28.0031   -4.5957    0.0000 H   0  0  0  0  0  0  0  0  0  0  0  0
   30.3903   -5.8490    0.0000 H   0  0  0  0  0  0  0  0  0  0  0  0
   29.1484   -4.7874    0.0000 H   0  0  0  0  0  0  0  0  0  0  0  0
   28.1593   -8.4495    0.0000 H   0  0  0  0  0  0  0  0  0  0  0  0
   31.5955   -9.3053    0.0000 H   0  0  0  0  0  0  0  0  0  0  0  0
   32.4063   -7.7157    0.0000 H   0  0  0  0  0  0  0  0  0  0  0  0
   31.1233   -6.4756    0.0000 H   0  0  0  0  0  0  0  0  0  0  0  0
   30.6279  -10.1023    0.0000 H   0  0  0  0  0  0  0  0  0  0  0  0
   28.9124  -10.5933    0.0000 H   0  0  0  0  0  0  0  0  0  0  0  0
   27.9635   -8.9146    0.0000 H   0  0  0  0  0  0  0  0  0  0  0  0
  1  2  1  0
  2  3  1  0
  3  4  2  0
  4  5  1  0
  5  6  2  0
  6  7  1  0
  7  8  2  0
  7  9  1  0
  9 10  1  0
 10 11  1  0
 11 12  2  0
  9 13  1  0
 13 14  1  0
 14 15  2  0
 15 16  1  0
 16 17  2  0
 17 18  1  0
 16 19  1  0
 14 20  1  0
 20 21  1  0
 21 22  2  0
 22 23  1  0
 23 24  2  0
 24 25  1  0
 25 26  2  0
 25 27  1  0
  1 28  2  0
  1 29  1  0
 29 30  1  0
 30 31  1  0
 31 32  1  0
 32 33  2  0
 32 34  1  0
 34 35  1  0
 35 36  1  0
 36 37  1  0
 37 38  1  0
 37 39  2  0
 35 40  1  0
 40 41  2  0
 40 42  1  0
 42 43  1  0
 43 44  1  0
 44 45  1  0
 43 46  1  0
 46 47  2  0
 46 48  1  0
 48 49  1  0
 49 50  1  0
 50 51  1  0
 49 52  1  0
 52 53  2  0
 52 54  1  0
 54 55  1  0
 55 56  1  0
 56 57  1  0
 57 58  2  0
 58 59  1  0
 59 60  2  0
 60 61  1  0
 61 62  2  0
 55 63  1  0
 63 64  2  0
 63 65  1  0
 65 66  1  0
 66 67  1  0
 66 68  1  0
 68 69  2  0
 68 70  1  0
 70 71  1  0
 71 72  1  0
 72 73  1  0
 73 74  2  0
 73 75  1  0
 71 76  1  0
 76 77  2  0
 76 78  1  0
 78 79  1  0
 79 80  1  0
 80 81  1  0
 81 82  2  0
 82 83  1  0
 83 84  2  0
 84 85  1  0
 85 86  2  0
 79 87  1  0
 87 88  2  0
 87 89  1  0
 89 90  1  0
 90 91  1  0
 91 92  1  0
 92 93  2  0
 93 94  1  0
 94 95  2  0
 95 96  1  0
 96 97  2  0
 90 98  1  0
 98 99  2  0
 98100  1  0
100101  1  0
101102  1  0
102103  1  0
103104  2  0
104105  1  0
105106  1  0
106107  2  0
101108  1  0
108109  2  0
108110  1  0
110111  1  0
111112  1  0
112113  1  0
112114  1  0
111115  1  0
115116  2  0
115117  1  0
117118  1  0
118119  1  0
119120  1  0
118121  1  0
121122  2  0
121123  1  0
123124  1  0
124125  1  0
125126  1  0
126127  1  0
127128  1  0
128129  2  0
128130  1  0
130131  1  0
131132  1  0
132133  1  0
133134  2  0
134135  1  0
135136  2  0
136137  1  0
136138  1  0
138139  2  0
131140  1  0
140141  2  0
140142  1  0
142143  1  0
143144  1  0
144145  1  0
145146  1  0
145147  2  0
143148  1  0
148149  2  0
148150  1  0
150151  1  0
151152  1  0
152153  1  0
153154  1  0
153155  1  0
151156  1  0
156157  2  0
156158  1  0
  8  3  1  0
 62 57  1  0
 86 81  1  0
 97 92  1  0
107103  1  0
127123  1  0
139133  1  0
 11  6  1  0
 18 13  2  0
 22  9  1  0
 26 21  1  0
  2159  1  0
  4160  1  0
  5161  1  0
  8162  1  0
 15163  1  0
 17164  1  0
 18165  1  0
 19166  1  0
 23167  1  0
 24168  1  0
 26169  1  0
 27170  1  0
 29171  1  0
 30172  1  0
 30173  1  0
 31174  1  0
 31175  1  0
 34176  1  0
 35177  1  1
 36178  1  0
 36179  1  0
 38180  1  0
 38181  1  0
 42182  1  0
 43183  1  6
 44184  1  0
 44185  1  0
 45186  1  0
 48187  1  0
 49188  1  1
 50189  1  0
 50190  1  0
 51191  1  0
 54192  1  0
 55193  1  6
 56194  1  0
 56195  1  0
 58196  1  0
 59197  1  0
 60198  1  0
 61199  1  0
 62200  1  0
 65201  1  0
 66202  1  1
 67203  1  0
 67204  1  0
 67205  1  0
 70206  1  0
 71207  1  6
 72208  1  0
 72209  1  0
 78210  1  0
 79211  1  1
 80212  1  0
 80213  1  0
 82214  1  0
 83215  1  0
 84216  1  0
 85217  1  0
 86218  1  0
 89219  1  0
 90220  1  6
 91221  1  0
 91222  1  0
 93223  1  0
 94224  1  0
 95225  1  0
 96226  1  0
 97227  1  0
100228  1  0
101229  1  1
102230  1  0
102231  1  0
104232  1  0
105233  1  0
106234  1  0
110235  1  0
111236  1  6
112237  1  1
113238  1  0
114239  1  0
114240  1  0
114241  1  0
117242  1  0
118243  1  1
119244  1  0
119245  1  0
120246  1  0
120247  1  0
120248  1  0
124249  1  0
124250  1  0
125251  1  0
125252  1  0
126253  1  0
126254  1  0
127255  1  0
130256  1  0
131257  1  1
132258  1  0
132259  1  0
134260  1  0
135261  1  0
137262  1  0
138263  1  0
139264  1  0
142265  1  0
143266  1  1
144267  1  0
144268  1  0
146269  1  0
146270  1  0
150271  1  0
151272  1  1
152273  1  0
152274  1  0
153275  1  0
154276  1  0
154277  1  0
154278  1  0
155279  1  0
155280  1  0
155281  1  0
M  CHG  2  75  -1 158  -1
M  END
