
     RDKit          2D

238243  0  0  0  0  0  0  0  0999 V2000
    7.2504    5.3418    0.0000 N   0  0  0  0  0  0  0  0  0  0  0  0
    8.6266    4.7451    0.0000 C   0  0  0  0  0  0  0  0  0  0  0  0
    9.8314    5.6385    0.0000 C   0  0  0  0  0  0  0  0  0  0  0  0
   11.2076    5.0418    0.0000 C   0  0  0  0  0  0  0  0  0  0  0  0
   11.1992    3.9484    0.0000 O   0  0  0  0  0  0  0  0  0  0  0  0
   12.4125    5.9353    0.0000 N   0  0  0  0  0  0  0  0  0  0  0  0
   12.3978    7.4353    0.0000 C   0  0  0  0  0  0  0  0  0  0  0  0
   13.8198    7.9127    0.0000 C   0  0  0  0  0  0  0  0  0  0  0  0
   14.7133    6.7078    0.0000 C   0  0  0  0  0  0  0  0  0  0  0  0
   13.8435    5.4858    0.0000 C   0  0  0  0  0  0  0  0  0  0  0  0
   13.2468    4.1095    0.0000 C   0  0  0  0  0  0  0  0  0  0  0  0
   12.1838    3.8531    0.0000 O   0  0  0  0  0  0  0  0  0  0  0  0
   14.1403    2.9047    0.0000 N   0  0  0  0  0  0  0  0  0  0  0  0
   15.6402    2.9193    0.0000 C   0  0  0  0  0  0  0  0  0  0  0  0
   16.1177    1.4973    0.0000 C   0  0  0  0  0  0  0  0  0  0  0  0
   14.9128    0.6039    0.0000 C   0  0  0  0  0  0  0  0  0  0  0  0
   13.6907    1.4736    0.0000 C   0  0  0  0  0  0  0  0  0  0  0  0
   12.9535    0.1673    0.0000 C   0  0  0  0  0  0  0  0  0  0  0  0
   13.4394   -0.4646    0.0000 O   0  0  0  0  0  0  0  0  0  0  0  0
   11.4535    0.1527    0.0000 N   0  0  0  0  0  0  0  0  0  0  0  0
   10.7163   -1.1536    0.0000 C   0  0  0  0  0  0  0  0  0  0  0  0
   12.1307   -1.6528    0.0000 C   0  0  0  0  0  0  0  0  0  0  0  0
   13.2703   -0.6775    0.0000 C   0  0  0  0  0  0  0  0  0  0  0  0
   14.6848   -1.1767    0.0000 C   0  0  0  0  0  0  0  0  0  0  0  0
   15.8244   -0.2014    0.0000 C   0  0  0  0  0  0  0  0  0  0  0  0
   17.2389   -0.7006    0.0000 N   0  0  0  0  0  0  0  0  0  0  0  0
    9.5767   -2.1290    0.0000 C   0  0  0  0  0  0  0  0  0  0  0  0
   10.3618   -3.4070    0.0000 O   0  0  0  0  0  0  0  0  0  0  0  0
    8.1622   -1.6297    0.0000 N   0  0  0  0  0  0  0  0  0  0  0  0
    7.0226   -2.6051    0.0000 C   0  0  0  0  0  0  0  0  0  0  0  0
    8.1810   -3.5580    0.0000 C   0  0  0  0  0  0  0  0  0  0  0  0
    9.5855   -3.0312    0.0000 C   0  0  0  0  0  0  0  0  0  0  0  0
   10.7439   -3.9841    0.0000 C   0  0  0  0  0  0  0  0  0  0  0  0
   12.1483   -3.4574    0.0000 C   0  0  0  0  0  0  0  0  0  0  0  0
   13.3068   -4.4103    0.0000 N   0  0  0  0  0  0  0  0  0  0  0  0
    5.6181   -3.1318    0.0000 C   0  0  0  0  0  0  0  0  0  0  0  0
    5.7374   -4.6271    0.0000 O   0  0  0  0  0  0  0  0  0  0  0  0
    4.4597   -2.1789    0.0000 N   0  0  0  0  0  0  0  0  0  0  0  0
    3.0552   -2.7057    0.0000 C   0  0  0  0  0  0  0  0  0  0  0  0
    3.8179   -3.9973    0.0000 C   0  0  0  0  0  0  0  0  0  0  0  0
    5.3178   -3.9827    0.0000 C   0  0  0  0  0  0  0  0  0  0  0  0
    6.0804   -5.2743    0.0000 C   0  0  0  0  0  0  0  0  0  0  0  0
    7.5804   -5.2597    0.0000 C   0  0  0  0  0  0  0  0  0  0  0  0
    8.3177   -3.9534    0.0000 C   0  0  0  0  0  0  0  0  0  0  0  0
    7.5550   -2.6617    0.0000 C   0  0  0  0  0  0  0  0  0  0  0  0
    6.0551   -2.6764    0.0000 C   0  0  0  0  0  0  0  0  0  0  0  0
    1.5553   -2.7203    0.0000 C   0  0  0  0  0  0  0  0  0  0  0  0
    1.1560   -4.1662    0.0000 O   0  0  0  0  0  0  0  0  0  0  0  0
    0.7926   -1.4287    0.0000 N   0  0  0  0  0  0  0  0  0  0  0  0
   -0.7073   -1.4433    0.0000 C   0  0  0  0  0  0  0  0  0  0  0  0
   -0.4324   -2.9179    0.0000 C   0  0  0  0  0  0  0  0  0  0  0  0
    0.9821   -3.4172    0.0000 C   0  0  0  0  0  0  0  0  0  0  0  0
    1.2570   -4.8918    0.0000 C   0  0  0  0  0  0  0  0  0  0  0  0
    2.6714   -5.3910    0.0000 N   0  0  0  0  0  0  0  0  0  0  0  0
    2.9463   -6.8656    0.0000 C   0  0  0  0  0  0  0  0  0  0  0  0
    4.3608   -7.3648    0.0000 N   0  0  0  0  0  0  0  0  0  0  0  0
    1.8067   -7.8409    0.0000 N   0  0  0  0  0  0  0  0  0  0  0  0
   -2.1218   -0.9441    0.0000 C   0  0  0  0  0  0  0  0  0  0  0  0
   -2.8360   -2.2631    0.0000 O   0  0  0  0  0  0  0  0  0  0  0  0
   -2.3966    0.5305    0.0000 N   0  0  0  0  0  0  0  0  0  0  0  0
   -3.8111    1.0298    0.0000 C   0  0  0  0  0  0  0  0  0  0  0  0
   -3.6844   -0.4649    0.0000 C   0  0  0  0  0  0  0  0  0  0  0  0
   -4.0039   -1.9304    0.0000 C   0  0  0  0  0  0  0  0  0  0  0  0
   -4.7412   -3.2367    0.0000 C   0  0  0  0  0  0  0  0  0  0  0  0
   -5.8308   -4.2677    0.0000 C   0  0  0  0  0  0  0  0  0  0  0  0
   -2.7743    2.1138    0.0000 C   0  0  0  0  0  0  0  0  0  0  0  0
   -4.3727    2.4207    0.0000 C   0  0  0  0  0  0  0  0  0  0  0  0
   -3.0811    3.1833    0.0000 O   0  0  0  0  0  0  0  0  0  0  0  0
   -5.3194    3.5842    0.0000 N   0  0  0  0  0  0  0  0  0  0  0  0
   -6.5669    4.4171    0.0000 C   0  0  0  0  0  0  0  0  0  0  0  0
   -6.7680    5.9035    0.0000 C   0  0  0  0  0  0  0  0  0  0  0  0
   -5.5812    6.8209    0.0000 C   0  0  0  0  0  0  0  0  0  0  0  0
   -5.7822    8.3073    0.0000 C   0  0  0  0  0  0  0  0  0  0  0  0
   -4.1522    7.2770    0.0000 C   0  0  0  0  0  0  0  0  0  0  0  0
   -8.0045    4.8452    0.0000 C   0  0  0  0  0  0  0  0  0  0  0  0
   -7.7955    6.3306    0.0000 O   0  0  0  0  0  0  0  0  0  0  0  0
   -9.5045    4.8305    0.0000 N   0  0  0  0  0  0  0  0  0  0  0  0
  -10.9334    4.3744    0.0000 C   0  0  0  0  0  0  0  0  0  0  0  0
  -12.2209    5.1441    0.0000 C   0  0  0  0  0  0  0  0  0  0  0  0
  -12.1982    6.6439    0.0000 C   0  0  0  0  0  0  0  0  0  0  0  0
  -10.8879    7.3741    0.0000 C   0  0  0  0  0  0  0  0  0  0  0  0
  -10.8652    8.8739    0.0000 C   0  0  0  0  0  0  0  0  0  0  0  0
  -12.1527    9.6435    0.0000 C   0  0  0  0  0  0  0  0  0  0  0  0
  -13.4630    8.9133    0.0000 C   0  0  0  0  0  0  0  0  0  0  0  0
  -13.4857    7.4135    0.0000 C   0  0  0  0  0  0  0  0  0  0  0  0
  -12.1645    3.5174    0.0000 C   0  0  0  0  0  0  0  0  0  0  0  0
  -13.1954    4.6070    0.0000 O   0  0  0  0  0  0  0  0  0  0  0  0
  -13.0882    2.3356    0.0000 N   0  0  0  0  0  0  0  0  0  0  0  0
  -13.6226    0.9340    0.0000 C   0  0  0  0  0  0  0  0  0  0  0  0
  -15.0270    0.4072    0.0000 C   0  0  0  0  0  0  0  0  0  0  0  0
  -16.1855    1.3601    0.0000 C   0  0  0  0  0  0  0  0  0  0  0  0
  -15.9394    2.8398    0.0000 C   0  0  0  0  0  0  0  0  0  0  0  0
  -17.0979    3.7927    0.0000 C   0  0  0  0  0  0  0  0  0  0  0  0
  -18.5023    3.2660    0.0000 C   0  0  0  0  0  0  0  0  0  0  0  0
  -18.7484    1.7863    0.0000 C   0  0  0  0  0  0  0  0  0  0  0  0
  -17.5899    0.8334    0.0000 C   0  0  0  0  0  0  0  0  0  0  0  0
  -13.7201   -0.5628    0.0000 C   0  0  0  0  0  0  0  0  0  0  0  0
  -15.2147   -0.6895    0.0000 O   0  0  0  0  0  0  0  0  0  0  0  0
  -13.3720   -2.0219    0.0000 N   0  0  0  0  0  0  0  0  0  0  0  0
  -12.6094   -3.3136    0.0000 C   0  0  0  0  0  0  0  0  0  0  0  0
  -11.4999   -4.3230    0.0000 C   0  0  0  0  0  0  0  0  0  0  0  0
  -10.1422   -4.9606    0.0000 C   0  0  0  0  0  0  0  0  0  0  0  0
   -8.6568   -5.1697    0.0000 C   0  0  0  0  0  0  0  0  0  0  0  0
   -7.1758   -4.9317    0.0000 C   0  0  0  0  0  0  0  0  0  0  0  0
  -14.1004   -3.4775    0.0000 C   0  0  0  0  0  0  0  0  0  0  0  0
  -13.0732   -4.7400    0.0000 C   0  0  0  0  0  0  0  0  0  0  0  0
  -12.3693   -6.0647    0.0000 O   0  0  0  0  0  0  0  0  0  0  0  0
  -14.5405   -5.0516    0.0000 N   0  0  0  0  0  0  0  0  0  0  0  0
  -15.0043   -6.4781    0.0000 C   0  0  0  0  0  0  0  0  0  0  0  0
  -14.9523   -7.9772    0.0000 C   0  0  0  0  0  0  0  0  0  0  0  0
  -16.1182   -8.9210    0.0000 O   0  0  0  0  0  0  0  0  0  0  0  0
  -16.4716   -6.7897    0.0000 C   0  0  0  0  0  0  0  0  0  0  0  0
  -17.1059   -8.1490    0.0000 O   0  0  0  0  0  0  0  0  0  0  0  0
  -17.4751   -5.6747    0.0000 O   0  0  0  0  0  0  0  0  0  0  0  0
    6.0455    4.4483    0.0000 H   0  0  0  0  0  0  0  0  0  0  0  0
    7.0790    6.8319    0.0000 H   0  0  0  0  0  0  0  0  0  0  0  0
    7.8000    3.4934    0.0000 H   0  0  0  0  0  0  0  0  0  0  0  0
    9.7157    3.7137    0.0000 H   0  0  0  0  0  0  0  0  0  0  0  0
    8.7423    6.6699    0.0000 H   0  0  0  0  0  0  0  0  0  0  0  0
   10.4993    6.9817    0.0000 H   0  0  0  0  0  0  0  0  0  0  0  0
   12.0717    8.8994    0.0000 H   0  0  0  0  0  0  0  0  0  0  0  0
   10.8979    7.4468    0.0000 H   0  0  0  0  0  0  0  0  0  0  0  0
   15.1115    8.6753    0.0000 H   0  0  0  0  0  0  0  0  0  0  0  0
   13.1964    9.2770    0.0000 H   0  0  0  0  0  0  0  0  0  0  0  0
   15.8378    5.7151    0.0000 H   0  0  0  0  0  0  0  0  0  0  0  0
   15.8182    7.7224    0.0000 H   0  0  0  0  0  0  0  0  0  0  0  0
   15.2300    4.9132    0.0000 H   0  0  0  0  0  0  0  0  0  0  0  0
   15.6518    4.4193    0.0000 H   0  0  0  0  0  0  0  0  0  0  0  0
   17.1044    3.2455    0.0000 H   0  0  0  0  0  0  0  0  0  0  0  0
   17.4820    2.1208    0.0000 H   0  0  0  0  0  0  0  0  0  0  0  0
   16.8803    0.2057    0.0000 H   0  0  0  0  0  0  0  0  0  0  0  0
   16.1646   -0.2227    0.0000 H   0  0  0  0  0  0  0  0  0  0  0  0
   14.3891   -0.8017    0.0000 H   0  0  0  0  0  0  0  0  0  0  0  0
   12.3145    2.0703    0.0000 H   0  0  0  0  0  0  0  0  0  0  0  0
   10.6909    1.4444    0.0000 H   0  0  0  0  0  0  0  0  0  0  0  0
    9.5578   -0.2007    0.0000 H   0  0  0  0  0  0  0  0  0  0  0  0
   13.2892   -2.6058    0.0000 H   0  0  0  0  0  0  0  0  0  0  0  0
   11.2397   -2.8595    0.0000 H   0  0  0  0  0  0  0  0  0  0  0  0
   13.8429    0.7089    0.0000 H   0  0  0  0  0  0  0  0  0  0  0  0
   12.3769    0.5274    0.0000 H   0  0  0  0  0  0  0  0  0  0  0  0
   15.7184   -2.2638    0.0000 H   0  0  0  0  0  0  0  0  0  0  0  0
   14.2855   -2.6226    0.0000 H   0  0  0  0  0  0  0  0  0  0  0  0
   16.8559    0.8877    0.0000 H   0  0  0  0  0  0  0  0  0  0  0  0
   15.0845    1.1034    0.0000 H   0  0  0  0  0  0  0  0  0  0  0  0
   18.3785    0.2747    0.0000 H   0  0  0  0  0  0  0  0  0  0  0  0
   18.3973   -1.6535    0.0000 H   0  0  0  0  0  0  0  0  0  0  0  0
   16.6663   -2.0871    0.0000 H   0  0  0  0  0  0  0  0  0  0  0  0
    7.8873   -0.1551    0.0000 H   0  0  0  0  0  0  0  0  0  0  0  0
    6.2599   -1.3134    0.0000 H   0  0  0  0  0  0  0  0  0  0  0  0
    8.7805   -4.9330    0.0000 H   0  0  0  0  0  0  0  0  0  0  0  0
    7.0414   -4.5333    0.0000 H   0  0  0  0  0  0  0  0  0  0  0  0
   10.5977   -1.9242    0.0000 H   0  0  0  0  0  0  0  0  0  0  0  0
    9.3365   -1.5520    0.0000 H   0  0  0  0  0  0  0  0  0  0  0  0
   11.3434   -5.3591    0.0000 H   0  0  0  0  0  0  0  0  0  0  0  0
    9.7317   -5.0911    0.0000 H   0  0  0  0  0  0  0  0  0  0  0  0
   13.4901   -2.7867    0.0000 H   0  0  0  0  0  0  0  0  0  0  0  0
   11.3857   -2.1657    0.0000 H   0  0  0  0  0  0  0  0  0  0  0  0
   14.7112   -3.8835    0.0000 H   0  0  0  0  0  0  0  0  0  0  0  0
   14.0694   -5.7019    0.0000 H   0  0  0  0  0  0  0  0  0  0  0  0
   12.2946   -5.5173    0.0000 H   0  0  0  0  0  0  0  0  0  0  0  0
    4.5235   -0.6803    0.0000 H   0  0  0  0  0  0  0  0  0  0  0  0
    2.7803   -1.2311    0.0000 H   0  0  0  0  0  0  0  0  0  0  0  0
    4.0928   -5.4719    0.0000 H   0  0  0  0  0  0  0  0  0  0  0  0
    2.5826   -4.8483    0.0000 H   0  0  0  0  0  0  0  0  0  0  0  0
    5.5079   -6.6608    0.0000 H   0  0  0  0  0  0  0  0  0  0  0  0
    8.3430   -6.5514    0.0000 H   0  0  0  0  0  0  0  0  0  0  0  0
    9.8082   -4.1217    0.0000 H   0  0  0  0  0  0  0  0  0  0  0  0
    8.4460   -1.4551    0.0000 H   0  0  0  0  0  0  0  0  0  0  0  0
    5.4556   -1.3014    0.0000 H   0  0  0  0  0  0  0  0  0  0  0  0
    1.5299   -0.1224    0.0000 H   0  0  0  0  0  0  0  0  0  0  0  0
   -0.4612    0.0364    0.0000 H   0  0  0  0  0  0  0  0  0  0  0  0
   -0.8570   -4.3566    0.0000 H   0  0  0  0  0  0  0  0  0  0  0  0
   -1.9323   -2.9326    0.0000 H   0  0  0  0  0  0  0  0  0  0  0  0
    2.4820   -3.4025    0.0000 H   0  0  0  0  0  0  0  0  0  0  0  0
    1.5789   -2.0410    0.0000 H   0  0  0  0  0  0  0  0  0  0  0  0
    1.0109   -6.3714    0.0000 H   0  0  0  0  0  0  0  0  0  0  0  0
   -0.2300   -5.0891    0.0000 H   0  0  0  0  0  0  0  0  0  0  0  0
    4.0132   -4.7204    0.0000 H   0  0  0  0  0  0  0  0  0  0  0  0
    4.6357   -8.8394    0.0000 H   0  0  0  0  0  0  0  0  0  0  0  0
    5.6108   -6.5357    0.0000 H   0  0  0  0  0  0  0  0  0  0  0  0
    2.0816   -9.3155    0.0000 H   0  0  0  0  0  0  0  0  0  0  0  0
    0.3922   -7.3417    0.0000 H   0  0  0  0  0  0  0  0  0  0  0  0
   -1.1467    1.3597    0.0000 H   0  0  0  0  0  0  0  0  0  0  0  0
   -2.2364   -0.0734    0.0000 H   0  0  0  0  0  0  0  0  0  0  0  0
   -2.5979   -1.4990    0.0000 H   0  0  0  0  0  0  0  0  0  0  0  0
   -2.5622   -2.3444    0.0000 H   0  0  0  0  0  0  0  0  0  0  0  0
   -2.9757   -3.0225    0.0000 H   0  0  0  0  0  0  0  0  0  0  0  0
   -3.2748   -3.5526    0.0000 H   0  0  0  0  0  0  0  0  0  0  0  0
   -4.2496   -4.6539    0.0000 H   0  0  0  0  0  0  0  0  0  0  0  0
   -4.9737   -5.4987    0.0000 H   0  0  0  0  0  0  0  0  0  0  0  0
   -1.2846    1.9381    0.0000 H   0  0  0  0  0  0  0  0  0  0  0  0
   -2.1707    3.4870    0.0000 H   0  0  0  0  0  0  0  0  0  0  0  0
   -3.7832    3.2237    0.0000 H   0  0  0  0  0  0  0  0  0  0  0  0
   -4.3099    4.6937    0.0000 H   0  0  0  0  0  0  0  0  0  0  0  0
   -5.2073    5.0507    0.0000 H   0  0  0  0  0  0  0  0  0  0  0  0
   -7.6220    7.1367    0.0000 H   0  0  0  0  0  0  0  0  0  0  0  0
   -8.2648    5.8068    0.0000 H   0  0  0  0  0  0  0  0  0  0  0  0
   -4.7272    5.5877    0.0000 H   0  0  0  0  0  0  0  0  0  0  0  0
   -4.7161    9.3625    0.0000 H   0  0  0  0  0  0  0  0  0  0  0  0
   -6.4795    9.6354    0.0000 H   0  0  0  0  0  0  0  0  0  0  0  0
   -7.2561    8.0288    0.0000 H   0  0  0  0  0  0  0  0  0  0  0  0
   -3.6564    8.6927    0.0000 H   0  0  0  0  0  0  0  0  0  0  0  0
   -2.6534    7.2168    0.0000 H   0  0  0  0  0  0  0  0  0  0  0  0
   -3.9512    5.7905    0.0000 H   0  0  0  0  0  0  0  0  0  0  0  0
   -9.5602    6.3295    0.0000 H   0  0  0  0  0  0  0  0  0  0  0  0
  -10.7615    5.8646    0.0000 H   0  0  0  0  0  0  0  0  0  0  0  0
  -13.6940    5.4269    0.0000 H   0  0  0  0  0  0  0  0  0  0  0  0
  -13.0786    3.9134    0.0000 H   0  0  0  0  0  0  0  0  0  0  0  0
   -9.5162    6.7672    0.0000 H   0  0  0  0  0  0  0  0  0  0  0  0
   -9.5549    9.6041    0.0000 H   0  0  0  0  0  0  0  0  0  0  0  0
  -12.1299   11.1434    0.0000 H   0  0  0  0  0  0  0  0  0  0  0  0
  -14.7505    9.6830    0.0000 H   0  0  0  0  0  0  0  0  0  0  0  0
  -14.7960    6.6833    0.0000 H   0  0  0  0  0  0  0  0  0  0  0  0
  -14.2949    3.2266    0.0000 H   0  0  0  0  0  0  0  0  0  0  0  0
  -14.6804    1.9975    0.0000 H   0  0  0  0  0  0  0  0  0  0  0  0
  -16.1666   -0.5681    0.0000 H   0  0  0  0  0  0  0  0  0  0  0  0
  -14.5996   -1.0306    0.0000 H   0  0  0  0  0  0  0  0  0  0  0  0
  -14.6097    3.5339    0.0000 H   0  0  0  0  0  0  0  0  0  0  0  0
  -16.8518    5.2724    0.0000 H   0  0  0  0  0  0  0  0  0  0  0  0
  -19.6607    4.2189    0.0000 H   0  0  0  0  0  0  0  0  0  0  0  0
  -20.1528    1.2595    0.0000 H   0  0  0  0  0  0  0  0  0  0  0  0
  -17.8360   -0.6463    0.0000 H   0  0  0  0  0  0  0  0  0  0  0  0
  -14.7629   -2.5835    0.0000 H   0  0  0  0  0  0  0  0  0  0  0  0
  -11.5226   -5.8229    0.0000 H   0  0  0  0  0  0  0  0  0  0  0  0
  -12.6912   -5.2345    0.0000 H   0  0  0  0  0  0  0  0  0  0  0  0
   -9.9005   -6.4410    0.0000 H   0  0  0  0  0  0  0  0  0  0  0  0
  -11.0119   -6.1828    0.0000 H   0  0  0  0  0  0  0  0  0  0  0  0
   -7.8307   -6.4217    0.0000 H   0  0  0  0  0  0  0  0  0  0  0  0
   -9.2977   -6.5259    0.0000 H   0  0  0  0  0  0  0  0  0  0  0  0
   -6.7197   -6.3606    0.0000 H   0  0  0  0  0  0  0  0  0  0  0  0
  -15.0183   -4.6638    0.0000 H   0  0  0  0  0  0  0  0  0  0  0  0
  -15.5033   -2.9466    0.0000 H   0  0  0  0  0  0  0  0  0  0  0  0
  -14.3680   -2.0015    0.0000 H   0  0  0  0  0  0  0  0  0  0  0  0
  -15.6724   -4.0673    0.0000 H   0  0  0  0  0  0  0  0  0  0  0  0
  -13.5190   -6.6872    0.0000 H   0  0  0  0  0  0  0  0  0  0  0  0
  -14.3907   -9.3681    0.0000 H   0  0  0  0  0  0  0  0  0  0  0  0
  -13.4850   -7.6656    0.0000 H   0  0  0  0  0  0  0  0  0  0  0  0
  -16.1725  -10.2709    0.0000 H   0  0  0  0  0  0  0  0  0  0  0  0
  1  2  1  0
  2  3  1  0
  3  4  1  0
  4  5  2  0
  4  6  1  0
  6  7  1  0
  7  8  1  0
  8  9  1  0
  9 10  1  0
 10 11  1  0
 11 12  2  0
 11 13  1  0
 13 14  1  0
 14 15  1  0
 15 16  1  0
 16 17  1  0
 17 18  1  0
 18 19  2  0
 18 20  1  0
 20 21  1  0
 21 22  1  0
 22 23  1  0
 23 24  1  0
 24 25  1  0
 25 26  1  0
 21 27  1  0
 27 28  2  0
 27 29  1  0
 29 30  1  0
 30 31  1  0
 31 32  1  0
 32 33  1  0
 33 34  1  0
 34 35  1  0
 30 36  1  0
 36 37  2  0
 36 38  1  0
 38 39  1  0
 39 40  1  0
 40 41  1  0
 41 42  2  0
 42 43  1  0
 43 44  2  0
 44 45  1  0
 45 46  2  0
 39 47  1  0
 47 48  2  0
 47 49  1  0
 49 50  1  0
 50 51  1  0
 51 52  1  0
 52 53  1  0
 53 54  1  0
 54 55  1  0
 55 56  2  3
 55 57  1  0
 50 58  1  0
 58 59  2  0
 58 60  1  0
 61 60  1  1
 61 62  1  0
 62 63  1  0
 63 64  1  0
 64 65  1  0
 61 66  1  0
 61 67  1  0
 67 68  2  0
 67 69  1  0
 69 70  1  0
 70 71  1  0
 71 72  1  0
 72 73  1  0
 72 74  1  0
 70 75  1  0
 75 76  2  0
 75 77  1  0
 77 78  1  0
 78 79  1  0
 79 80  1  0
 80 81  2  0
 81 82  1  0
 82 83  2  0
 83 84  1  0
 84 85  2  0
 78 86  1  0
 86 87  2  0
 86 88  1  0
 88 89  1  0
 89 90  1  0
 90 91  1  0
 91 92  2  0
 92 93  1  0
 93 94  2  0
 94 95  1  0
 95 96  2  0
 89 97  1  0
 97 98  2  0
 97 99  1  0
 99100  1  0
100101  1  0
101102  1  0
102103  1  0
103104  1  0
100105  1  0
100106  1  1
106107  2  0
106108  1  0
108109  1  0
109110  1  0
110111  1  0
109112  1  0
112113  2  0
112114  1  0
 10  6  1  0
 17 13  1  0
 46 41  1  0
 85 80  1  0
 96 91  1  0
 65104  2  0
  1115  1  0
  1116  1  0
  2117  1  0
  2118  1  0
  3119  1  0
  3120  1  0
  7121  1  0
  7122  1  0
  8123  1  0
  8124  1  0
  9125  1  0
  9126  1  0
 10127  1  0
 14128  1  0
 14129  1  0
 15130  1  0
 15131  1  0
 16132  1  0
 16133  1  0
 17134  1  0
 20135  1  0
 21136  1  1
 22137  1  0
 22138  1  0
 23139  1  0
 23140  1  0
 24141  1  0
 24142  1  0
 25143  1  0
 25144  1  0
 26145  1  0
 26146  1  0
 26147  1  0
 29148  1  0
 30149  1  1
 31150  1  0
 31151  1  0
 32152  1  0
 32153  1  0
 33154  1  0
 33155  1  0
 34156  1  0
 34157  1  0
 35158  1  0
 35159  1  0
 35160  1  0
 38161  1  0
 39162  1  1
 40163  1  0
 40164  1  0
 42165  1  0
 43166  1  0
 44167  1  0
 45168  1  0
 46169  1  0
 49170  1  0
 50171  1  1
 51172  1  0
 51173  1  0
 52174  1  0
 52175  1  0
 53176  1  0
 53177  1  0
 54178  1  0
 56179  1  0
 56180  1  0
 57181  1  0
 57182  1  0
 60183  1  0
 62184  1  0
 62185  1  0
 63186  1  0
 63187  1  0
 64188  1  0
 64189  1  0
 65190  1  0
 66191  1  0
 66192  1  0
 66193  1  0
 69194  1  0
 70195  1  6
 71196  1  0
 71197  1  0
 72198  1  0
 73199  1  0
 73200  1  0
 73201  1  0
 74202  1  0
 74203  1  0
 74204  1  0
 77205  1  0
 78206  1  6
 79207  1  0
 79208  1  0
 81209  1  0
 82210  1  0
 83211  1  0
 84212  1  0
 85213  1  0
 88214  1  0
 89215  1  6
 90216  1  0
 90217  1  0
 92218  1  0
 93219  1  0
 94220  1  0
 95221  1  0
 96222  1  0
 99223  1  0
101224  1  0
101225  1  0
102226  1  0
102227  1  0
103228  1  0
103229  1  0
104230  1  0
105231  1  0
105232  1  0
105233  1  0
108234  1  0
109235  1  1
110236  1  0
110237  1  0
111238  1  0
M  CHG  4  26   1  35   1  56   1 114  -1
M  END
