
     RDKit          2D

294297  0  0  0  0  0  0  0  0999 V2000
  -18.7126   -6.1232    0.0000 N   0  0  0  0  0  0  0  0  0  0  0  0
  -17.2154   -6.0315    0.0000 C   0  0  0  0  0  0  0  0  0  0  0  0
  -16.5462   -4.6890    0.0000 C   0  0  0  0  0  0  0  0  0  0  0  0
  -15.0490   -4.5973    0.0000 C   0  0  0  0  0  0  0  0  0  0  0  0
  -14.3796   -5.9396    0.0000 O   0  0  0  0  0  0  0  0  0  0  0  0
  -14.3799   -3.2548    0.0000 N   0  0  0  0  0  0  0  0  0  0  0  0
  -12.8827   -3.1631    0.0000 C   0  0  0  0  0  0  0  0  0  0  0  0
  -11.8232   -4.2249    0.0000 C   0  0  0  0  0  0  0  0  0  0  0  0
  -10.4978   -4.9274    0.0000 C   0  0  0  0  0  0  0  0  0  0  0  0
   -9.0243   -5.2079    0.0000 C   0  0  0  0  0  0  0  0  0  0  0  0
   -7.5336   -5.0416    0.0000 C   0  0  0  0  0  0  0  0  0  0  0  0
  -13.5818   -4.4902    0.0000 C   0  0  0  0  0  0  0  0  0  0  0  0
  -13.5821   -1.8361    0.0000 C   0  0  0  0  0  0  0  0  0  0  0  0
  -14.4477   -2.0236    0.0000 O   0  0  0  0  0  0  0  0  0  0  0  0
  -13.8593   -0.3619    0.0000 N   0  0  0  0  0  0  0  0  0  0  0  0
  -13.6896    1.1284    0.0000 C   0  0  0  0  0  0  0  0  0  0  0  0
  -15.1179    0.6701    0.0000 C   0  0  0  0  0  0  0  0  0  0  0  0
  -16.2289    1.6778    0.0000 C   0  0  0  0  0  0  0  0  0  0  0  0
  -17.6572    1.2195    0.0000 C   0  0  0  0  0  0  0  0  0  0  0  0
  -18.7683    2.2272    0.0000 N   0  0  0  0  0  0  0  0  0  0  0  0
  -20.1965    1.7689    0.0000 C   0  0  0  0  0  0  0  0  0  0  0  0
  -21.3076    2.7766    0.0000 N   0  0  0  0  0  0  0  0  0  0  0  0
  -20.5137    0.3028    0.0000 N   0  0  0  0  0  0  0  0  0  0  0  0
  -13.0882    2.5026    0.0000 C   0  0  0  0  0  0  0  0  0  0  0  0
  -14.3574    3.3021    0.0000 O   0  0  0  0  0  0  0  0  0  0  0  0
  -12.1085    3.6384    0.0000 N   0  0  0  0  0  0  0  0  0  0  0  0
  -10.8375    4.4350    0.0000 C   0  0  0  0  0  0  0  0  0  0  0  0
  -12.0863    5.2659    0.0000 C   0  0  0  0  0  0  0  0  0  0  0  0
  -11.9912    6.7629    0.0000 C   0  0  0  0  0  0  0  0  0  0  0  0
  -13.2400    7.5938    0.0000 C   0  0  0  0  0  0  0  0  0  0  0  0
  -13.1449    9.0908    0.0000 N   0  0  0  0  0  0  0  0  0  0  0  0
  -14.3937    9.9217    0.0000 C   0  0  0  0  0  0  0  0  0  0  0  0
  -14.2986   11.4186    0.0000 N   0  0  0  0  0  0  0  0  0  0  0  0
  -15.7377    9.2556    0.0000 N   0  0  0  0  0  0  0  0  0  0  0  0
   -9.3882    4.8216    0.0000 C   0  0  0  0  0  0  0  0  0  0  0  0
   -9.5544    6.3124    0.0000 O   0  0  0  0  0  0  0  0  0  0  0  0
   -7.8893    4.7638    0.0000 N   0  0  0  0  0  0  0  0  0  0  0  0
   -6.4740    4.2668    0.0000 C   0  0  0  0  0  0  0  0  0  0  0  0
   -6.6030    5.7612    0.0000 C   0  0  0  0  0  0  0  0  0  0  0  0
   -5.3733    6.6202    0.0000 C   0  0  0  0  0  0  0  0  0  0  0  0
   -5.5024    8.1146    0.0000 N   0  0  0  0  0  0  0  0  0  0  0  0
   -3.9473    6.1551    0.0000 O   0  0  0  0  0  0  0  0  0  0  0  0
   -5.2681    3.3747    0.0000 C   0  0  0  0  0  0  0  0  0  0  0  0
   -4.8281    4.8087    0.0000 O   0  0  0  0  0  0  0  0  0  0  0  0
   -4.3788    2.1668    0.0000 N   0  0  0  0  0  0  0  0  0  0  0  0
   -3.8850    0.7504    0.0000 C   0  0  0  0  0  0  0  0  0  0  0  0
   -3.8306   -0.7486    0.0000 C   0  0  0  0  0  0  0  0  0  0  0  0
   -4.2205   -2.1971    0.0000 C   0  0  0  0  0  0  0  0  0  0  0  0
   -5.0200   -3.4662    0.0000 C   0  0  0  0  0  0  0  0  0  0  0  0
   -6.1580   -4.4434    0.0000 C   0  0  0  0  0  0  0  0  0  0  0  0
   -3.3208    2.2411    0.0000 C   0  0  0  0  0  0  0  0  0  0  0  0
   -3.1847    3.6012    0.0000 C   0  0  0  0  0  0  0  0  0  0  0  0
   -2.7936    4.9110    0.0000 C   0  0  0  0  0  0  0  0  0  0  0  0
   -2.1617    6.1231    0.0000 C   0  0  0  0  0  0  0  0  0  0  0  0
   -2.8179   -0.4335    0.0000 C   0  0  0  0  0  0  0  0  0  0  0  0
   -4.8640   -1.2419    0.0000 O   0  0  0  0  0  0  0  0  0  0  0  0
   -2.1970   -1.6513    0.0000 N   0  0  0  0  0  0  0  0  0  0  0  0
   -1.3569   -2.7296    0.0000 C   0  0  0  0  0  0  0  0  0  0  0  0
   -2.2491   -4.6606    0.0000 C   0  0  0  0  0  0  0  0  0  0  0  0
   -1.1848   -5.7176    0.0000 C   0  0  0  0  0  0  0  0  0  0  0  0
   -1.5681   -7.1678    0.0000 C   0  0  0  0  0  0  0  0  0  0  0  0
   -0.5039   -8.2249    0.0000 N   0  0  0  0  0  0  0  0  0  0  0  0
   -0.8872   -9.6751    0.0000 C   0  0  0  0  0  0  0  0  0  0  0  0
   -0.1103  -10.9583    0.0000 N   0  0  0  0  0  0  0  0  0  0  0  0
   -2.3347  -10.0682    0.0000 N   0  0  0  0  0  0  0  0  0  0  0  0
   -0.3280   -3.6295    0.0000 C   0  0  0  0  0  0  0  0  0  0  0  0
   -0.9601   -4.9167    0.0000 O   0  0  0  0  0  0  0  0  0  0  0  0
    0.8527   -4.3183    0.0000 N   0  0  0  0  0  0  0  0  0  0  0  0
    2.1424   -4.7712    0.0000 C   0  0  0  0  0  0  0  0  0  0  0  0
    2.4359   -6.8780    0.0000 C   0  0  0  0  0  0  0  0  0  0  0  0
    1.4306   -7.9913    0.0000 C   0  0  0  0  0  0  0  0  0  0  0  0
    1.8922   -9.4185    0.0000 C   0  0  0  0  0  0  0  0  0  0  0  0
    0.8870  -10.5319    0.0000 N   0  0  0  0  0  0  0  0  0  0  0  0
    1.3486  -11.9591    0.0000 C   0  0  0  0  0  0  0  0  0  0  0  0
    0.3434  -13.0724    0.0000 N   0  0  0  0  0  0  0  0  0  0  0  0
    2.8154  -12.2729    0.0000 N   0  0  0  0  0  0  0  0  0  0  0  0
    3.4945   -4.9719    0.0000 C   0  0  0  0  0  0  0  0  0  0  0  0
    3.5630   -7.1673    0.0000 O   0  0  0  0  0  0  0  0  0  0  0  0
    4.8602   -4.9131    0.0000 N   0  0  0  0  0  0  0  0  0  0  0  0
    6.1900   -4.5968    0.0000 C   0  0  0  0  0  0  0  0  0  0  0  0
    7.5759   -6.2105    0.0000 C   0  0  0  0  0  0  0  0  0  0  0  0
    7.3321   -7.6905    0.0000 C   0  0  0  0  0  0  0  0  0  0  0  0
    8.4921   -8.6416    0.0000 C   0  0  0  0  0  0  0  0  0  0  0  0
    8.2483  -10.1217    0.0000 N   0  0  0  0  0  0  0  0  0  0  0  0
    9.4082  -11.0728    0.0000 C   0  0  0  0  0  0  0  0  0  0  0  0
    9.1645  -12.5529    0.0000 N   0  0  0  0  0  0  0  0  0  0  0  0
   10.8119  -10.5438    0.0000 N   0  0  0  0  0  0  0  0  0  0  0  0
    7.4360   -4.0346    0.0000 C   0  0  0  0  0  0  0  0  0  0  0  0
    8.6805   -5.8444    0.0000 O   0  0  0  0  0  0  0  0  0  0  0  0
    8.5530   -3.2468    0.0000 N   0  0  0  0  0  0  0  0  0  0  0  0
    9.5008   -2.2618    0.0000 C   0  0  0  0  0  0  0  0  0  0  0  0
   11.5390   -2.8700    0.0000 C   0  0  0  0  0  0  0  0  0  0  0  0
   12.1342   -4.2469    0.0000 C   0  0  0  0  0  0  0  0  0  0  0  0
   11.3701   -5.5377    0.0000 C   0  0  0  0  0  0  0  0  0  0  0  0
   12.3616   -6.6633    0.0000 N   0  0  0  0  0  0  0  0  0  0  0  0
   13.7385   -6.0681    0.0000 C   0  0  0  0  0  0  0  0  0  0  0  0
   15.1021   -6.6931    0.0000 C   0  0  0  0  0  0  0  0  0  0  0  0
   16.3251   -5.8247    0.0000 C   0  0  0  0  0  0  0  0  0  0  0  0
   16.1846   -4.3313    0.0000 C   0  0  0  0  0  0  0  0  0  0  0  0
   14.8210   -3.7063    0.0000 C   0  0  0  0  0  0  0  0  0  0  0  0
   13.5979   -4.5747    0.0000 C   0  0  0  0  0  0  0  0  0  0  0  0
   10.2450   -1.1152    0.0000 C   0  0  0  0  0  0  0  0  0  0  0  0
   12.2705   -1.9649    0.0000 O   0  0  0  0  0  0  0  0  0  0  0  0
   10.7588    0.1514    0.0000 N   0  0  0  0  0  0  0  0  0  0  0  0
   11.0236    1.4925    0.0000 C   0  0  0  0  0  0  0  0  0  0  0  0
   13.0671    2.0828    0.0000 C   0  0  0  0  0  0  0  0  0  0  0  0
   14.3122    1.2462    0.0000 C   0  0  0  0  0  0  0  0  0  0  0  0
   15.6592    1.9062    0.0000 C   0  0  0  0  0  0  0  0  0  0  0  0
   16.9042    1.0697    0.0000 N   0  0  0  0  0  0  0  0  0  0  0  0
   18.2512    1.7297    0.0000 C   0  0  0  0  0  0  0  0  0  0  0  0
   19.4963    0.8931    0.0000 N   0  0  0  0  0  0  0  0  0  0  0  0
   18.3532    3.2262    0.0000 N   0  0  0  0  0  0  0  0  0  0  0  0
   11.0298    2.8594    0.0000 C   0  0  0  0  0  0  0  0  0  0  0  0
   13.1931    3.2396    0.0000 O   0  0  0  0  0  0  0  0  0  0  0  0
   10.7772    4.2028    0.0000 N   0  0  0  0  0  0  0  0  0  0  0  0
   10.2749    5.4741    0.0000 C   0  0  0  0  0  0  0  0  0  0  0  0
   11.6749    7.0755    0.0000 C   0  0  0  0  0  0  0  0  0  0  0  0
   13.1746    7.0448    0.0000 C   0  0  0  0  0  0  0  0  0  0  0  0
   13.9509    8.3283    0.0000 C   0  0  0  0  0  0  0  0  0  0  0  0
   15.4506    8.2977    0.0000 N   0  0  0  0  0  0  0  0  0  0  0  0
   16.2270    9.5812    0.0000 C   0  0  0  0  0  0  0  0  0  0  0  0
   17.7267    9.5506    0.0000 N   0  0  0  0  0  0  0  0  0  0  0  0
   15.5036   10.8952    0.0000 N   0  0  0  0  0  0  0  0  0  0  0  0
    9.5411    6.6273    0.0000 C   0  0  0  0  0  0  0  0  0  0  0  0
   11.1554    8.1168    0.0000 O   0  0  0  0  0  0  0  0  0  0  0  0
    8.6024    7.6209    0.0000 N   0  0  0  0  0  0  0  0  0  0  0  0
    7.4925    8.4188    0.0000 C   0  0  0  0  0  0  0  0  0  0  0  0
    6.2517    8.9923    0.0000 C   0  0  0  0  0  0  0  0  0  0  0  0
    4.9248    9.3206    0.0000 C   0  0  0  0  0  0  0  0  0  0  0  0
    3.5597    9.3918    0.0000 C   0  0  0  0  0  0  0  0  0  0  0  0
    2.2058    9.2034    0.0000 C   0  0  0  0  0  0  0  0  0  0  0  0
    0.9121    8.7622    0.0000 C   0  0  0  0  0  0  0  0  0  0  0  0
   -0.2748    8.0842    0.0000 C   0  0  0  0  0  0  0  0  0  0  0  0
   -1.3119    7.1937    0.0000 C   0  0  0  0  0  0  0  0  0  0  0  0
    9.1706    9.7258    0.0000 C   0  0  0  0  0  0  0  0  0  0  0  0
    7.8045   10.5229    0.0000 C   0  0  0  0  0  0  0  0  0  0  0  0
    8.9774   11.4579    0.0000 O   0  0  0  0  0  0  0  0  0  0  0  0
    6.6976   11.5352    0.0000 O   0  0  0  0  0  0  0  0  0  0  0  0
  -19.3817   -7.4657    0.0000 H   0  0  0  0  0  0  0  0  0  0  0  0
  -19.5406   -4.8725    0.0000 H   0  0  0  0  0  0  0  0  0  0  0  0
  -17.3850   -7.5219    0.0000 H   0  0  0  0  0  0  0  0  0  0  0  0
  -15.7771   -6.4574    0.0000 H   0  0  0  0  0  0  0  0  0  0  0  0
  -17.9845   -4.2631    0.0000 H   0  0  0  0  0  0  0  0  0  0  0  0
  -16.3766   -3.1986    0.0000 H   0  0  0  0  0  0  0  0  0  0  0  0
  -14.8977   -2.6487    0.0000 H   0  0  0  0  0  0  0  0  0  0  0  0
  -11.9184   -5.7219    0.0000 H   0  0  0  0  0  0  0  0  0  0  0  0
  -13.1519   -4.9211    0.0000 H   0  0  0  0  0  0  0  0  0  0  0  0
  -10.3279   -6.4177    0.0000 H   0  0  0  0  0  0  0  0  0  0  0  0
  -11.5623   -5.9842    0.0000 H   0  0  0  0  0  0  0  0  0  0  0  0
   -8.2597   -6.4984    0.0000 H   0  0  0  0  0  0  0  0  0  0  0  0
   -9.7300   -6.5315    0.0000 H   0  0  0  0  0  0  0  0  0  0  0  0
   -7.1470   -6.4910    0.0000 H   0  0  0  0  0  0  0  0  0  0  0  0
  -14.7800   -5.1143    0.0000 H   0  0  0  0  0  0  0  0  0  0  0  0
  -13.2443   -6.0357    0.0000 H   0  0  0  0  0  0  0  0  0  0  0  0
  -12.1779   -5.4104    0.0000 H   0  0  0  0  0  0  0  0  0  0  0  0
  -15.3583   -0.4163    0.0000 H   0  0  0  0  0  0  0  0  0  0  0  0
  -14.5516    2.3560    0.0000 H   0  0  0  0  0  0  0  0  0  0  0  0
  -16.1823   -0.3867    0.0000 H   0  0  0  0  0  0  0  0  0  0  0  0
  -14.7604   -0.7867    0.0000 H   0  0  0  0  0  0  0  0  0  0  0  0
  -16.9283    3.0048    0.0000 H   0  0  0  0  0  0  0  0  0  0  0  0
  -15.1645    2.7347    0.0000 H   0  0  0  0  0  0  0  0  0  0  0  0
  -18.8426    0.3003    0.0000 H   0  0  0  0  0  0  0  0  0  0  0  0
  -17.1248   -0.1828    0.0000 H   0  0  0  0  0  0  0  0  0  0  0  0
  -18.4511    3.6933    0.0000 H   0  0  0  0  0  0  0  0  0  0  0  0
  -22.7358    2.3183    0.0000 H   0  0  0  0  0  0  0  0  0  0  0  0
  -20.9904    4.2427    0.0000 H   0  0  0  0  0  0  0  0  0  0  0  0
  -21.9420   -0.1555    0.0000 H   0  0  0  0  0  0  0  0  0  0  0  0
  -19.4026   -0.7049    0.0000 H   0  0  0  0  0  0  0  0  0  0  0  0
  -13.0856    4.7765    0.0000 H   0  0  0  0  0  0  0  0  0  0  0  0
  -10.4152    5.8744    0.0000 H   0  0  0  0  0  0  0  0  0  0  0  0
  -13.5763    5.4393    0.0000 H   0  0  0  0  0  0  0  0  0  0  0  0
  -13.0024    4.0781    0.0000 H   0  0  0  0  0  0  0  0  0  0  0  0
  -11.3898    8.1371    0.0000 H   0  0  0  0  0  0  0  0  0  0  0  0
  -10.5012    6.5896    0.0000 H   0  0  0  0  0  0  0  0  0  0  0  0
  -14.6978    7.9474    0.0000 H   0  0  0  0  0  0  0  0  0  0  0  0
  -14.0045    6.3032    0.0000 H   0  0  0  0  0  0  0  0  0  0  0  0
  -11.8009    9.7569    0.0000 H   0  0  0  0  0  0  0  0  0  0  0  0
  -15.5474   12.2495    0.0000 H   0  0  0  0  0  0  0  0  0  0  0  0
  -12.9546   12.0847    0.0000 H   0  0  0  0  0  0  0  0  0  0  0  0
  -16.9866   10.0865    0.0000 H   0  0  0  0  0  0  0  0  0  0  0  0
  -15.8329    7.7586    0.0000 H   0  0  0  0  0  0  0  0  0  0  0  0
   -7.6087    6.2374    0.0000 H   0  0  0  0  0  0  0  0  0  0  0  0
   -5.3810    5.2941    0.0000 H   0  0  0  0  0  0  0  0  0  0  0  0
   -7.2354    7.1214    0.0000 H   0  0  0  0  0  0  0  0  0  0  0  0
   -8.1028    5.7368    0.0000 H   0  0  0  0  0  0  0  0  0  0  0  0
   -4.2727    8.9736    0.0000 H   0  0  0  0  0  0  0  0  0  0  0  0
   -6.8611    8.7501    0.0000 H   0  0  0  0  0  0  0  0  0  0  0  0
   -3.0518    2.8662    0.0000 H   0  0  0  0  0  0  0  0  0  0  0  0
   -2.4866   -0.0825    0.0000 H   0  0  0  0  0  0  0  0  0  0  0  0
   -2.7953   -1.8340    0.0000 H   0  0  0  0  0  0  0  0  0  0  0  0
   -2.7521   -2.5034    0.0000 H   0  0  0  0  0  0  0  0  0  0  0  0
   -3.7197   -3.6110    0.0000 H   0  0  0  0  0  0  0  0  0  0  0  0
   -3.7071   -4.1918    0.0000 H   0  0  0  0  0  0  0  0  0  0  0  0
   -4.5974   -4.9055    0.0000 H   0  0  0  0  0  0  0  0  0  0  0  0
   -5.3614   -5.7144    0.0000 H   0  0  0  0  0  0  0  0  0  0  0  0
   -5.2989    1.4592    0.0000 H   0  0  0  0  0  0  0  0  0  0  0  0
   -5.1852    3.1898    0.0000 H   0  0  0  0  0  0  0  0  0  0  0  0
   -5.3714    3.7461    0.0000 H   0  0  0  0  0  0  0  0  0  0  0  0
   -4.8358    4.8857    0.0000 H   0  0  0  0  0  0  0  0  0  0  0  0
   -4.9134    5.4671    0.0000 H   0  0  0  0  0  0  0  0  0  0  0  0
   -4.1718    6.4847    0.0000 H   0  0  0  0  0  0  0  0  0  0  0  0
   -4.0071    7.3209    0.0000 H   0  0  0  0  0  0  0  0  0  0  0  0
   -3.6805   -3.2325    0.0000 H   0  0  0  0  0  0  0  0  0  0  0  0
   -3.2877   -3.6878    0.0000 H   0  0  0  0  0  0  0  0  0  0  0  0
   -3.2490   -5.7787    0.0000 H   0  0  0  0  0  0  0  0  0  0  0  0
   -3.7458   -4.5611    0.0000 H   0  0  0  0  0  0  0  0  0  0  0  0
    0.0899   -6.5082    0.0000 H   0  0  0  0  0  0  0  0  0  0  0  0
   -0.0560   -4.7298    0.0000 H   0  0  0  0  0  0  0  0  0  0  0  0
   -2.4243   -8.3995    0.0000 H   0  0  0  0  0  0  0  0  0  0  0  0
   -2.9963   -6.7092    0.0000 H   0  0  0  0  0  0  0  0  0  0  0  0
    0.9958   -8.1937    0.0000 H   0  0  0  0  0  0  0  0  0  0  0  0
   -0.2062  -12.1823    0.0000 H   0  0  0  0  0  0  0  0  0  0  0  0
    1.7229  -10.7772    0.0000 H   0  0  0  0  0  0  0  0  0  0  0  0
   -2.7180  -11.5184    0.0000 H   0  0  0  0  0  0  0  0  0  0  0  0
   -3.3990   -9.0112    0.0000 H   0  0  0  0  0  0  0  0  0  0  0  0
   -0.0703   -6.3153    0.0000 H   0  0  0  0  0  0  0  0  0  0  0  0
    0.9005   -6.4981    0.0000 H   0  0  0  0  0  0  0  0  0  0  0  0
    3.3577   -8.0612    0.0000 H   0  0  0  0  0  0  0  0  0  0  0  0
    3.8918   -6.5171    0.0000 H   0  0  0  0  0  0  0  0  0  0  0  0
    0.3146   -8.9935    0.0000 H   0  0  0  0  0  0  0  0  0  0  0  0
    0.3714   -6.9292    0.0000 H   0  0  0  0  0  0  0  0  0  0  0  0
    2.8141  -10.6018    0.0000 H   0  0  0  0  0  0  0  0  0  0  0  0
    3.2933   -8.8829    0.0000 H   0  0  0  0  0  0  0  0  0  0  0  0
   -0.6122  -10.5822    0.0000 H   0  0  0  0  0  0  0  0  0  0  0  0
    0.8049  -14.4996    0.0000 H   0  0  0  0  0  0  0  0  0  0  0  0
   -1.1234  -12.7585    0.0000 H   0  0  0  0  0  0  0  0  0  0  0  0
    3.2769  -13.7002    0.0000 H   0  0  0  0  0  0  0  0  0  0  0  0
    3.8206  -11.1596    0.0000 H   0  0  0  0  0  0  0  0  0  0  0  0
    4.9807   -7.1062    0.0000 H   0  0  0  0  0  0  0  0  0  0  0  0
    5.9032   -6.6690    0.0000 H   0  0  0  0  0  0  0  0  0  0  0  0
    8.9911   -6.7075    0.0000 H   0  0  0  0  0  0  0  0  0  0  0  0
    8.6056   -5.1198    0.0000 H   0  0  0  0  0  0  0  0  0  0  0  0
    6.5969   -8.9980    0.0000 H   0  0  0  0  0  0  0  0  0  0  0  0
    5.8387   -7.5507    0.0000 H   0  0  0  0  0  0  0  0  0  0  0  0
    9.9073   -9.1387    0.0000 H   0  0  0  0  0  0  0  0  0  0  0  0
    9.3812   -7.4336    0.0000 H   0  0  0  0  0  0  0  0  0  0  0  0
    6.8447  -10.6507    0.0000 H   0  0  0  0  0  0  0  0  0  0  0  0
   10.3244  -13.5040    0.0000 H   0  0  0  0  0  0  0  0  0  0  0  0
    7.7609  -13.0818    0.0000 H   0  0  0  0  0  0  0  0  0  0  0  0
   11.9718  -11.4949    0.0000 H   0  0  0  0  0  0  0  0  0  0  0  0
   11.0556   -9.0638    0.0000 H   0  0  0  0  0  0  0  0  0  0  0  0
    9.8401   -5.0266    0.0000 H   0  0  0  0  0  0  0  0  0  0  0  0
   10.5557   -4.1089    0.0000 H   0  0  0  0  0  0  0  0  0  0  0  0
   13.0298   -2.7035    0.0000 H   0  0  0  0  0  0  0  0  0  0  0  0
   11.8157   -1.3958    0.0000 H   0  0  0  0  0  0  0  0  0  0  0  0
    9.9050   -5.8592    0.0000 H   0  0  0  0  0  0  0  0  0  0  0  0
   12.0338   -8.1270    0.0000 H   0  0  0  0  0  0  0  0  0  0  0  0
   15.2426   -8.1865    0.0000 H   0  0  0  0  0  0  0  0  0  0  0  0
   17.6887   -6.4497    0.0000 H   0  0  0  0  0  0  0  0  0  0  0  0
   17.4076   -3.4629    0.0000 H   0  0  0  0  0  0  0  0  0  0  0  0
   14.6804   -2.2129    0.0000 H   0  0  0  0  0  0  0  0  0  0  0  0
   12.8038   -0.6499    0.0000 H   0  0  0  0  0  0  0  0  0  0  0  0
   12.7893    0.3708    0.0000 H   0  0  0  0  0  0  0  0  0  0  0  0
   14.1071    3.1637    0.0000 H   0  0  0  0  0  0  0  0  0  0  0  0
   12.5028    3.4726    0.0000 H   0  0  0  0  0  0  0  0  0  0  0  0
   15.1960    0.0343    0.0000 H   0  0  0  0  0  0  0  0  0  0  0  0
   13.5646   -0.0542    0.0000 H   0  0  0  0  0  0  0  0  0  0  0  0
   16.6992    2.9871    0.0000 H   0  0  0  0  0  0  0  0  0  0  0  0
   14.9296    3.2168    0.0000 H   0  0  0  0  0  0  0  0  0  0  0  0
   16.8023   -0.4269    0.0000 H   0  0  0  0  0  0  0  0  0  0  0  0
   20.8433    1.5531    0.0000 H   0  0  0  0  0  0  0  0  0  0  0  0
   19.3944   -0.6034    0.0000 H   0  0  0  0  0  0  0  0  0  0  0  0
   19.7002    3.8862    0.0000 H   0  0  0  0  0  0  0  0  0  0  0  0
   17.1081    4.0627    0.0000 H   0  0  0  0  0  0  0  0  0  0  0  0
   12.9308    4.6342    0.0000 H   0  0  0  0  0  0  0  0  0  0  0  0
   12.3668    5.4851    0.0000 H   0  0  0  0  0  0  0  0  0  0  0  0
   11.9655    8.5470    0.0000 H   0  0  0  0  0  0  0  0  0  0  0  0
   10.4488    7.9395    0.0000 H   0  0  0  0  0  0  0  0  0  0  0  0
   14.5734    6.5032    0.0000 H   0  0  0  0  0  0  0  0  0  0  0  0
   13.2488    5.5467    0.0000 H   0  0  0  0  0  0  0  0  0  0  0  0
   14.2415    9.7999    0.0000 H   0  0  0  0  0  0  0  0  0  0  0  0
   12.6286    9.0365    0.0000 H   0  0  0  0  0  0  0  0  0  0  0  0
   16.1740    6.9836    0.0000 H   0  0  0  0  0  0  0  0  0  0  0  0
   18.5030   10.8340    0.0000 H   0  0  0  0  0  0  0  0  0  0  0  0
   18.4500    8.2365    0.0000 H   0  0  0  0  0  0  0  0  0  0  0  0
   16.2800   12.1787    0.0000 H   0  0  0  0  0  0  0  0  0  0  0  0
   14.0040   10.9258    0.0000 H   0  0  0  0  0  0  0  0  0  0  0  0
   10.1809    9.1482    0.0000 H   0  0  0  0  0  0  0  0  0  0  0  0
    6.1598   11.1174    0.0000 H   0  0  0  0  0  0  0  0  0  0  0  0
    7.3898   10.8481    0.0000 H   0  0  0  0  0  0  0  0  0  0  0  0
    4.6047   11.4522    0.0000 H   0  0  0  0  0  0  0  0  0  0  0  0
    5.6911   11.3582    0.0000 H   0  0  0  0  0  0  0  0  0  0  0  0
    2.8420   11.4243    0.0000 H   0  0  0  0  0  0  0  0  0  0  0  0
    4.1000   11.4785    0.0000 H   0  0  0  0  0  0  0  0  0  0  0  0
    1.1164   11.0634    0.0000 H   0  0  0  0  0  0  0  0  0  0  0  0
    2.3414   11.3547    0.0000 H   0  0  0  0  0  0  0  0  0  0  0  0
   -0.5096   10.3824    0.0000 H   0  0  0  0  0  0  0  0  0  0  0  0
    0.6381   10.9002    0.0000 H   0  0  0  0  0  0  0  0  0  0  0  0
   -2.0591    9.2420    0.0000 H   0  0  0  0  0  0  0  0  0  0  0  0
   -0.9485   10.1317    0.0000 H   0  0  0  0  0  0  0  0  0  0  0  0
   -2.8972    8.7191    0.0000 H   0  0  0  0  0  0  0  0  0  0  0  0
    9.4073   11.2071    0.0000 H   0  0  0  0  0  0  0  0  0  0  0  0
   10.6200   10.1121    0.0000 H   0  0  0  0  0  0  0  0  0  0  0  0
    9.9638    8.4527    0.0000 H   0  0  0  0  0  0  0  0  0  0  0  0
  1  2  1  0
  2  3  1  0
  3  4  1  0
  4  5  2  0
  4  6  1  0
  7  6  1  6
  7  8  1  0
  8  9  1  0
  9 10  1  0
 10 11  1  0
  7 12  1  0
  7 13  1  0
 13 14  2  0
 13 15  1  0
 15 16  1  0
 16 17  1  0
 17 18  1  0
 18 19  1  0
 19 20  1  0
 20 21  1  0
 21 22  2  3
 21 23  1  0
 16 24  1  0
 24 25  2  0
 24 26  1  0
 26 27  1  0
 27 28  1  0
 28 29  1  0
 29 30  1  0
 30 31  1  0
 31 32  1  0
 32 33  2  3
 32 34  1  0
 27 35  1  0
 35 36  2  0
 35 37  1  0
 37 38  1  0
 38 39  1  0
 39 40  1  0
 40 41  1  0
 40 42  2  0
 38 43  1  0
 43 44  2  0
 43 45  1  0
 45 46  1  0
 46 47  1  0
 47 48  1  0
 48 49  1  0
 49 50  1  0
 46 51  1  0
 51 52  1  0
 52 53  1  0
 53 54  1  0
 46 55  1  0
 55 56  2  0
 55 57  1  0
 57 58  1  0
 58 59  1  0
 59 60  1  0
 60 61  1  0
 61 62  1  0
 62 63  1  0
 63 64  2  3
 63 65  1  0
 58 66  1  0
 66 67  2  0
 66 68  1  0
 68 69  1  0
 69 70  1  0
 70 71  1  0
 71 72  1  0
 72 73  1  0
 73 74  1  0
 74 75  2  3
 74 76  1  0
 69 77  1  0
 77 78  2  0
 77 79  1  0
 79 80  1  0
 80 81  1  0
 81 82  1  0
 82 83  1  0
 83 84  1  0
 84 85  1  0
 85 86  2  3
 85 87  1  0
 80 88  1  0
 88 89  2  0
 88 90  1  0
 90 91  1  0
 91 92  1  0
 92 93  1  0
 93 94  2  0
 94 95  1  0
 95 96  1  0
 96 97  2  0
 97 98  1  0
 98 99  2  0
 99100  1  0
100101  2  0
 91102  1  0
102103  2  0
102104  1  0
104105  1  0
105106  1  0
106107  1  0
107108  1  0
108109  1  0
109110  1  0
110111  2  3
110112  1  0
105113  1  0
113114  2  0
113115  1  0
115116  1  0
116117  1  0
117118  1  0
118119  1  0
119120  1  0
120121  1  0
121122  2  3
121123  1  0
116124  1  0
124125  2  0
124126  1  0
126127  1  0
127128  1  0
128129  1  0
129130  1  0
130131  1  0
131132  1  0
132133  1  0
133134  1  0
127135  1  0
127136  1  1
136137  2  0
136138  1  0
101 93  1  0
101 96  1  0
 11 50  2  0
 54134  2  0
  1139  1  0
  1140  1  0
  2141  1  0
  2142  1  0
  3143  1  0
  3144  1  0
  6145  1  0
  8146  1  0
  8147  1  0
  9148  1  0
  9149  1  0
 10150  1  0
 10151  1  0
 11152  1  0
 12153  1  0
 12154  1  0
 12155  1  0
 15156  1  0
 16157  1  1
 17158  1  0
 17159  1  0
 18160  1  0
 18161  1  0
 19162  1  0
 19163  1  0
 20164  1  0
 22165  1  0
 22166  1  0
 23167  1  0
 23168  1  0
 26169  1  0
 27170  1  1
 28171  1  0
 28172  1  0
 29173  1  0
 29174  1  0
 30175  1  0
 30176  1  0
 31177  1  0
 33178  1  0
 33179  1  0
 34180  1  0
 34181  1  0
 37182  1  0
 38183  1  1
 39184  1  0
 39185  1  0
 41186  1  0
 41187  1  0
 45188  1  0
 47189  1  0
 47190  1  0
 48191  1  0
 48192  1  0
 49193  1  0
 49194  1  0
 50195  1  0
 51196  1  0
 51197  1  0
 52198  1  0
 52199  1  0
 53200  1  0
 53201  1  0
 54202  1  0
 57203  1  0
 58204  1  6
 59205  1  0
 59206  1  0
 60207  1  0
 60208  1  0
 61209  1  0
 61210  1  0
 62211  1  0
 64212  1  0
 64213  1  0
 65214  1  0
 65215  1  0
 68216  1  0
 69217  1  6
 70218  1  0
 70219  1  0
 71220  1  0
 71221  1  0
 72222  1  0
 72223  1  0
 73224  1  0
 75225  1  0
 75226  1  0
 76227  1  0
 76228  1  0
 79229  1  0
 80230  1  6
 81231  1  0
 81232  1  0
 82233  1  0
 82234  1  0
 83235  1  0
 83236  1  0
 84237  1  0
 86238  1  0
 86239  1  0
 87240  1  0
 87241  1  0
 90242  1  0
 91243  1  6
 92244  1  0
 92245  1  0
 94246  1  0
 95247  1  0
 97248  1  0
 98249  1  0
 99250  1  0
100251  1  0
104252  1  0
105253  1  6
106254  1  0
106255  1  0
107256  1  0
107257  1  0
108258  1  0
108259  1  0
109260  1  0
111261  1  0
111262  1  0
112263  1  0
112264  1  0
115265  1  0
116266  1  6
117267  1  0
117268  1  0
118269  1  0
118270  1  0
119271  1  0
119272  1  0
120273  1  0
122274  1  0
122275  1  0
123276  1  0
123277  1  0
126278  1  0
128279  1  0
128280  1  0
129281  1  0
129282  1  0
130283  1  0
130284  1  0
131285  1  0
131286  1  0
132287  1  0
132288  1  0
133289  1  0
133290  1  0
134291  1  0
135292  1  0
135293  1  0
135294  1  0
M  CHG  8  22   1  33   1  64   1  75   1  86   1 111   1 122   1 138  -1
M  END
