
     RDKit          2D

457466  0  0  0  0  0  0  0  0999 V2000
   32.6472   -5.3478    0.0000 C   0  0  0  0  0  0  0  0  0  0  0  0
   34.0743   -4.8859    0.0000 N   0  0  0  0  0  0  0  0  0  0  0  0
   35.1879   -5.8909    0.0000 C   0  0  0  0  0  0  0  0  0  0  0  0
   34.8744   -7.3578    0.0000 C   0  0  0  0  0  0  0  0  0  0  0  0
   35.9880   -8.3627    0.0000 C   0  0  0  0  0  0  0  0  0  0  0  0
   37.4151   -7.9008    0.0000 C   0  0  0  0  0  0  0  0  0  0  0  0
   37.7286   -6.4339    0.0000 C   0  0  0  0  0  0  0  0  0  0  0  0
   36.6150   -5.4290    0.0000 C   0  0  0  0  0  0  0  0  0  0  0  0
   39.2205   -6.2788    0.0000 C   0  0  0  0  0  0  0  0  0  0  0  0
   39.8291   -7.6498    0.0000 O   0  0  0  0  0  0  0  0  0  0  0  0
   38.7132   -8.6523    0.0000 C   0  0  0  0  0  0  0  0  0  0  0  0
   38.8684  -10.1442    0.0000 O   0  0  0  0  0  0  0  0  0  0  0  0
   40.7205   -6.2805    0.0000 C   0  0  0  0  0  0  0  0  0  0  0  0
   41.4720   -4.9823    0.0000 C   0  0  0  0  0  0  0  0  0  0  0  0
   42.9720   -4.9840    0.0000 C   0  0  0  0  0  0  0  0  0  0  0  0
   43.7205   -6.2839    0.0000 C   0  0  0  0  0  0  0  0  0  0  0  0
   42.9691   -7.5821    0.0000 C   0  0  0  0  0  0  0  0  0  0  0  0
   41.4691   -7.5804    0.0000 C   0  0  0  0  0  0  0  0  0  0  0  0
   45.2205   -6.2856    0.0000 O   0  0  0  0  0  0  0  0  0  0  0  0
   40.7235   -3.6825    0.0000 O   0  0  0  0  0  0  0  0  0  0  0  0
   39.2235   -3.6808    0.0000 C   0  0  0  0  0  0  0  0  0  0  0  0
   38.4720   -4.9789    0.0000 C   0  0  0  0  0  0  0  0  0  0  0  0
   37.3227   -4.3714    0.0000 C   0  0  0  0  0  0  0  0  0  0  0  0
   36.9235   -3.6782    0.0000 C   0  0  0  0  0  0  0  0  0  0  0  0
   37.3243   -2.9858    0.0000 C   0  0  0  0  0  0  0  0  0  0  0  0
   38.1243   -2.9867    0.0000 C   0  0  0  0  0  0  0  0  0  0  0  0
   36.2264   -1.0793    0.0000 O   0  0  0  0  0  0  0  0  0  0  0  0
   32.3337   -6.8147    0.0000 S   0  0  0  0  0  0  0  0  0  0  0  0
   31.5336   -4.3429    0.0000 N   0  0  0  0  0  0  0  0  0  0  0  0
   30.1065   -4.8048    0.0000 C   0  0  0  0  0  0  0  0  0  0  0  0
   28.9929   -3.7998    0.0000 C   0  0  0  0  0  0  0  0  0  0  0  0
   27.5658   -4.2618    0.0000 C   0  0  0  0  0  0  0  0  0  0  0  0
   27.5928   -5.0585    0.0000 O   0  0  0  0  0  0  0  0  0  0  0  0
   26.4522   -3.2568    0.0000 N   0  0  0  0  0  0  0  0  0  0  0  0
   25.0251   -3.7187    0.0000 C   0  0  0  0  0  0  0  0  0  0  0  0
   25.7278   -5.0439    0.0000 C   0  0  0  0  0  0  0  0  0  0  0  0
   27.2269   -5.0980    0.0000 C   0  0  0  0  0  0  0  0  0  0  0  0
   27.9296   -6.4232    0.0000 N   0  0  0  0  0  0  0  0  0  0  0  0
   28.3071   -4.0573    0.0000 O   0  0  0  0  0  0  0  0  0  0  0  0
   23.5261   -3.6647    0.0000 C   0  0  0  0  0  0  0  0  0  0  0  0
   23.0611   -5.0908    0.0000 O   0  0  0  0  0  0  0  0  0  0  0  0
   22.8234   -2.3395    0.0000 N   0  0  0  0  0  0  0  0  0  0  0  0
   21.3244   -2.2854    0.0000 C   0  0  0  0  0  0  0  0  0  0  0  0
   21.5315   -3.7710    0.0000 C   0  0  0  0  0  0  0  0  0  0  0  0
   22.9216   -4.3345    0.0000 C   0  0  0  0  0  0  0  0  0  0  0  0
   23.1287   -5.8202    0.0000 C   0  0  0  0  0  0  0  0  0  0  0  0
   24.4398   -6.5489    0.0000 N   0  0  0  0  0  0  0  0  0  0  0  0
   21.9456   -6.7423    0.0000 O   0  0  0  0  0  0  0  0  0  0  0  0
   19.9342   -1.7219    0.0000 C   0  0  0  0  0  0  0  0  0  0  0  0
   19.0095   -2.9029    0.0000 O   0  0  0  0  0  0  0  0  0  0  0  0
   19.7272   -0.2363    0.0000 N   0  0  0  0  0  0  0  0  0  0  0  0
   18.3370    0.3272    0.0000 C   0  0  0  0  0  0  0  0  0  0  0  0
   18.0235   -1.1397    0.0000 C   0  0  0  0  0  0  0  0  0  0  0  0
   19.1371   -2.1446    0.0000 C   0  0  0  0  0  0  0  0  0  0  0  0
   18.8235   -3.6115    0.0000 C   0  0  0  0  0  0  0  0  0  0  0  0
   20.5272   -2.7081    0.0000 C   0  0  0  0  0  0  0  0  0  0  0  0
   17.2234    1.3321    0.0000 C   0  0  0  0  0  0  0  0  0  0  0  0
   15.9505    0.5386    0.0000 O   0  0  0  0  0  0  0  0  0  0  0  0
   17.5370    2.7990    0.0000 N   0  0  0  0  0  0  0  0  0  0  0  0
   16.4234    3.8040    0.0000 C   0  0  0  0  0  0  0  0  0  0  0  0
   16.0175    2.3599    0.0000 C   0  0  0  0  0  0  0  0  0  0  0  0
   15.3456    1.0188    0.0000 C   0  0  0  0  0  0  0  0  0  0  0  0
   14.4320   -0.1709    0.0000 C   0  0  0  0  0  0  0  0  0  0  0  0
   13.3098   -1.1662    0.0000 C   0  0  0  0  0  0  0  0  0  0  0  0
   12.0196   -1.9312    0.0000 C   0  0  0  0  0  0  0  0  0  0  0  0
   10.6078   -2.4381    0.0000 C   0  0  0  0  0  0  0  0  0  0  0  0
    9.1257   -2.6688    0.0000 C   0  0  0  0  0  0  0  0  0  0  0  0
   17.8183    4.3555    0.0000 C   0  0  0  0  0  0  0  0  0  0  0  0
   16.5487    5.2987    0.0000 C   0  0  0  0  0  0  0  0  0  0  0  0
   18.0353    5.4988    0.0000 O   0  0  0  0  0  0  0  0  0  0  0  0
   16.3889    6.7902    0.0000 N   0  0  0  0  0  0  0  0  0  0  0  0
   15.9496    8.2244    0.0000 C   0  0  0  0  0  0  0  0  0  0  0  0
   16.8250    9.4426    0.0000 C   0  0  0  0  0  0  0  0  0  0  0  0
   18.3176    9.2935    0.0000 C   0  0  0  0  0  0  0  0  0  0  0  0
   19.1929   10.5117    0.0000 C   0  0  0  0  0  0  0  0  0  0  0  0
   20.6855   10.3626    0.0000 N   0  0  0  0  0  0  0  0  0  0  0  0
   21.5608   11.5807    0.0000 C   0  0  0  0  0  0  0  0  0  0  0  0
   23.0534   11.4317    0.0000 N   0  0  0  0  0  0  0  0  0  0  0  0
   20.9436   12.9479    0.0000 N   0  0  0  0  0  0  0  0  0  0  0  0
   15.2469    9.5497    0.0000 C   0  0  0  0  0  0  0  0  0  0  0  0
   16.3894   10.5217    0.0000 O   0  0  0  0  0  0  0  0  0  0  0  0
   14.3061   10.7179    0.0000 N   0  0  0  0  0  0  0  0  0  0  0  0
   13.1612   11.6871    0.0000 C   0  0  0  0  0  0  0  0  0  0  0  0
   13.2390   13.1850    0.0000 C   0  0  0  0  0  0  0  0  0  0  0  0
   14.5752   13.8666    0.0000 O   0  0  0  0  0  0  0  0  0  0  0  0
   11.8536   12.4220    0.0000 C   0  0  0  0  0  0  0  0  0  0  0  0
   12.2892   13.8574    0.0000 O   0  0  0  0  0  0  0  0  0  0  0  0
   10.4305   12.8962    0.0000 N   0  0  0  0  0  0  0  0  0  0  0  0
    8.9434   13.0925    0.0000 C   0  0  0  0  0  0  0  0  0  0  0  0
    8.1990   14.3947    0.0000 C   0  0  0  0  0  0  0  0  0  0  0  0
    8.9546   15.6905    0.0000 C   0  0  0  0  0  0  0  0  0  0  0  0
   10.4546   15.6841    0.0000 C   0  0  0  0  0  0  0  0  0  0  0  0
   11.2102   16.9799    0.0000 C   0  0  0  0  0  0  0  0  0  0  0  0
   10.4658   18.2821    0.0000 C   0  0  0  0  0  0  0  0  0  0  0  0
    8.9658   18.2886    0.0000 C   0  0  0  0  0  0  0  0  0  0  0  0
    8.2102   16.9928    0.0000 C   0  0  0  0  0  0  0  0  0  0  0  0
    7.4460   13.0038    0.0000 C   0  0  0  0  0  0  0  0  0  0  0  0
    7.0365   14.4468    0.0000 O   0  0  0  0  0  0  0  0  0  0  0  0
    5.9925   12.6333    0.0000 N   0  0  0  0  0  0  0  0  0  0  0  0
    4.6354   11.9944    0.0000 C   0  0  0  0  0  0  0  0  0  0  0  0
    3.3051   12.6875    0.0000 C   0  0  0  0  0  0  0  0  0  0  0  0
    3.2402   14.1861    0.0000 C   0  0  0  0  0  0  0  0  0  0  0  0
    4.5055   14.9916    0.0000 C   0  0  0  0  0  0  0  0  0  0  0  0
    4.4406   16.4902    0.0000 C   0  0  0  0  0  0  0  0  0  0  0  0
    3.1103   17.1833    0.0000 C   0  0  0  0  0  0  0  0  0  0  0  0
    1.8449   16.3778    0.0000 C   0  0  0  0  0  0  0  0  0  0  0  0
    1.9099   14.8792    0.0000 C   0  0  0  0  0  0  0  0  0  0  0  0
    3.4236   11.1103    0.0000 C   0  0  0  0  0  0  0  0  0  0  0  0
    2.2989   12.1028    0.0000 O   0  0  0  0  0  0  0  0  0  0  0  0
    2.4011   10.0128    0.0000 N   0  0  0  0  0  0  0  0  0  0  0  0
    1.6048    8.7416    0.0000 C   0  0  0  0  0  0  0  0  0  0  0  0
    0.1110    8.6055    0.0000 C   0  0  0  0  0  0  0  0  0  0  0  0
    1.0635    7.3427    0.0000 C   0  0  0  0  0  0  0  0  0  0  0  0
   -0.4193    7.5696    0.0000 O   0  0  0  0  0  0  0  0  0  0  0  0
    0.7966    5.8666    0.0000 N   0  0  0  0  0  0  0  0  0  0  0  0
    0.8140    4.3667    0.0000 C   0  0  0  0  0  0  0  0  0  0  0  0
   -0.3691    3.4446    0.0000 C   0  0  0  0  0  0  0  0  0  0  0  0
   -1.7592    4.0081    0.0000 C   0  0  0  0  0  0  0  0  0  0  0  0
   -2.9423    3.0859    0.0000 C   0  0  0  0  0  0  0  0  0  0  0  0
   -2.8728    5.0130    0.0000 C   0  0  0  0  0  0  0  0  0  0  0  0
    1.1149    2.8972    0.0000 C   0  0  0  0  0  0  0  0  0  0  0  0
   -0.2552    2.2865    0.0000 O   0  0  0  0  0  0  0  0  0  0  0  0
    1.6884    1.5112    0.0000 N   0  0  0  0  0  0  0  0  0  0  0  0
    2.5139    0.2588    0.0000 C   0  0  0  0  0  0  0  0  0  0  0  0
    3.5615   -0.8148    0.0000 C   0  0  0  0  0  0  0  0  0  0  0  0
    4.7934   -1.6707    0.0000 C   0  0  0  0  0  0  0  0  0  0  0  0
    6.1649   -2.2780    0.0000 C   0  0  0  0  0  0  0  0  0  0  0  0
    7.6266   -2.6147    0.0000 C   0  0  0  0  0  0  0  0  0  0  0  0
    1.0252    0.0753    0.0000 C   0  0  0  0  0  0  0  0  0  0  0  0
    2.0172   -1.1566    0.0000 C   0  0  0  0  0  0  0  0  0  0  0  0
    2.6903   -2.4971    0.0000 O   0  0  0  0  0  0  0  0  0  0  0  0
    0.5431   -1.4341    0.0000 N   0  0  0  0  0  0  0  0  0  0  0  0
    0.0464   -2.8495    0.0000 C   0  0  0  0  0  0  0  0  0  0  0  0
    0.0638   -4.3494    0.0000 C   0  0  0  0  0  0  0  0  0  0  0  0
   -1.2265   -5.1144    0.0000 C   0  0  0  0  0  0  0  0  0  0  0  0
   -1.2092   -6.6143    0.0000 O   0  0  0  0  0  0  0  0  0  0  0  0
   -2.6731   -4.7177    0.0000 O   0  0  0  0  0  0  0  0  0  0  0  0
   -1.4277   -3.1270    0.0000 C   0  0  0  0  0  0  0  0  0  0  0  0
   -2.4051   -1.9892    0.0000 O   0  0  0  0  0  0  0  0  0  0  0  0
   -1.9244   -4.5424    0.0000 N   0  0  0  0  0  0  0  0  0  0  0  0
   -3.3985   -4.8199    0.0000 C   0  0  0  0  0  0  0  0  0  0  0  0
   -4.8786   -4.5766    0.0000 C   0  0  0  0  0  0  0  0  0  0  0  0
   -5.8294   -5.7367    0.0000 C   0  0  0  0  0  0  0  0  0  0  0  0
   -7.3096   -5.4933    0.0000 C   0  0  0  0  0  0  0  0  0  0  0  0
   -8.3947   -6.5289    0.0000 N   0  0  0  0  0  0  0  0  0  0  0  0
   -7.8389   -4.0898    0.0000 O   0  0  0  0  0  0  0  0  0  0  0  0
   -3.8952   -6.2353    0.0000 C   0  0  0  0  0  0  0  0  0  0  0  0
   -2.9178   -7.3732    0.0000 O   0  0  0  0  0  0  0  0  0  0  0  0
   -5.3693   -6.5128    0.0000 N   0  0  0  0  0  0  0  0  0  0  0  0
   -5.8660   -7.9282    0.0000 C   0  0  0  0  0  0  0  0  0  0  0  0
   -5.8486   -9.4281    0.0000 C   0  0  0  0  0  0  0  0  0  0  0  0
   -6.9155  -10.4826    0.0000 C   0  0  0  0  0  0  0  0  0  0  0  0
   -5.3193  -10.8316    0.0000 C   0  0  0  0  0  0  0  0  0  0  0  0
   -3.8392  -11.0750    0.0000 C   0  0  0  0  0  0  0  0  0  0  0  0
   -7.3401   -8.2058    0.0000 C   0  0  0  0  0  0  0  0  0  0  0  0
   -8.4489   -7.1955    0.0000 O   0  0  0  0  0  0  0  0  0  0  0  0
   -7.8368   -9.6211    0.0000 N   0  0  0  0  0  0  0  0  0  0  0  0
   -6.9837  -10.8549    0.0000 C   0  0  0  0  0  0  0  0  0  0  0  0
   -7.8934  -12.0475    0.0000 C   0  0  0  0  0  0  0  0  0  0  0  0
   -9.3088  -11.5508    0.0000 C   0  0  0  0  0  0  0  0  0  0  0  0
   -9.2738  -10.0512    0.0000 C   0  0  0  0  0  0  0  0  0  0  0  0
  -10.7688  -10.1732    0.0000 C   0  0  0  0  0  0  0  0  0  0  0  0
  -11.5712  -11.4405    0.0000 O   0  0  0  0  0  0  0  0  0  0  0  0
  -11.6219   -8.9394    0.0000 N   0  0  0  0  0  0  0  0  0  0  0  0
  -13.1170   -9.0613    0.0000 C   0  0  0  0  0  0  0  0  0  0  0  0
  -14.4801   -9.6872    0.0000 C   0  0  0  0  0  0  0  0  0  0  0  0
  -15.7038   -8.8196    0.0000 C   0  0  0  0  0  0  0  0  0  0  0  0
  -17.0670   -9.4455    0.0000 C   0  0  0  0  0  0  0  0  0  0  0  0
  -18.3872   -8.7336    0.0000 O   0  0  0  0  0  0  0  0  0  0  0  0
  -17.2065  -10.9390    0.0000 O   0  0  0  0  0  0  0  0  0  0  0  0
  -13.9701   -7.8275    0.0000 C   0  0  0  0  0  0  0  0  0  0  0  0
  -13.3282   -6.4718    0.0000 O   0  0  0  0  0  0  0  0  0  0  0  0
  -15.4651   -7.9495    0.0000 N   0  0  0  0  0  0  0  0  0  0  0  0
  -16.3182   -6.7157    0.0000 C   0  0  0  0  0  0  0  0  0  0  0  0
  -16.6979   -5.2645    0.0000 C   0  0  0  0  0  0  0  0  0  0  0  0
  -15.6310   -4.2101    0.0000 C   0  0  0  0  0  0  0  0  0  0  0  0
  -16.0107   -2.7590    0.0000 C   0  0  0  0  0  0  0  0  0  0  0  0
  -14.2679   -3.5842    0.0000 C   0  0  0  0  0  0  0  0  0  0  0  0
  -17.8133   -6.8376    0.0000 C   0  0  0  0  0  0  0  0  0  0  0  0
  -18.6157   -8.1050    0.0000 O   0  0  0  0  0  0  0  0  0  0  0  0
  -18.6664   -5.6038    0.0000 N   0  0  0  0  0  0  0  0  0  0  0  0
  -20.1614   -5.7258    0.0000 C   0  0  0  0  0  0  0  0  0  0  0  0
  -21.5246   -6.3517    0.0000 C   0  0  0  0  0  0  0  0  0  0  0  0
  -22.7482   -5.4841    0.0000 C   0  0  0  0  0  0  0  0  0  0  0  0
  -24.1114   -6.1100    0.0000 C   0  0  0  0  0  0  0  0  0  0  0  0
  -25.4317   -5.3980    0.0000 O   0  0  0  0  0  0  0  0  0  0  0  0
  -24.2509   -7.6035    0.0000 O   0  0  0  0  0  0  0  0  0  0  0  0
  -21.0145   -4.4920    0.0000 C   0  0  0  0  0  0  0  0  0  0  0  0
  -20.3726   -3.1363    0.0000 O   0  0  0  0  0  0  0  0  0  0  0  0
  -22.5096   -4.6139    0.0000 N   0  0  0  0  0  0  0  0  0  0  0  0
  -23.3627   -3.3802    0.0000 C   0  0  0  0  0  0  0  0  0  0  0  0
  -23.7424   -1.9290    0.0000 C   0  0  0  0  0  0  0  0  0  0  0  0
  -22.6755   -0.8746    0.0000 C   0  0  0  0  0  0  0  0  0  0  0  0
  -23.0552    0.5765    0.0000 N   0  0  0  0  0  0  0  0  0  0  0  0
  -21.2289   -1.2714    0.0000 O   0  0  0  0  0  0  0  0  0  0  0  0
  -24.8577   -3.5021    0.0000 C   0  0  0  0  0  0  0  0  0  0  0  0
  -25.6601   -4.7694    0.0000 O   0  0  0  0  0  0  0  0  0  0  0  0
  -25.7108   -2.2683    0.0000 N   0  0  0  0  0  0  0  0  0  0  0  0
  -27.2059   -2.3902    0.0000 C   0  0  0  0  0  0  0  0  0  0  0  0
  -28.5690   -3.0161    0.0000 C   0  0  0  0  0  0  0  0  0  0  0  0
  -29.7927   -2.1486    0.0000 C   0  0  0  0  0  0  0  0  0  0  0  0
  -31.1558   -2.7745    0.0000 N   0  0  0  0  0  0  0  0  0  0  0  0
  -30.0187   -0.6657    0.0000 O   0  0  0  0  0  0  0  0  0  0  0  0
  -28.0590   -1.1565    0.0000 C   0  0  0  0  0  0  0  0  0  0  0  0
  -27.4170    0.1992    0.0000 O   0  0  0  0  0  0  0  0  0  0  0  0
  -29.5540   -1.2784    0.0000 N   0  0  0  0  0  0  0  0  0  0  0  0
  -30.4071   -0.0446    0.0000 C   0  0  0  0  0  0  0  0  0  0  0  0
  -30.7868    1.4065    0.0000 C   0  0  0  0  0  0  0  0  0  0  0  0
  -32.2334    1.8033    0.0000 C   0  0  0  0  0  0  0  0  0  0  0  0
  -32.6131    3.2544    0.0000 C   0  0  0  0  0  0  0  0  0  0  0  0
  -34.0005    3.8246    0.0000 O   0  0  0  0  0  0  0  0  0  0  0  0
  -31.5462    4.3088    0.0000 O   0  0  0  0  0  0  0  0  0  0  0  0
  -31.9022   -0.1665    0.0000 C   0  0  0  0  0  0  0  0  0  0  0  0
  -32.7046   -1.4339    0.0000 O   0  0  0  0  0  0  0  0  0  0  0  0
  -32.7553    1.0672    0.0000 N   0  0  0  0  0  0  0  0  0  0  0  0
  -34.2503    0.9453    0.0000 C   0  0  0  0  0  0  0  0  0  0  0  0
  -35.6135    0.3194    0.0000 C   0  0  0  0  0  0  0  0  0  0  0  0
  -36.8371    1.1870    0.0000 C   0  0  0  0  0  0  0  0  0  0  0  0
  -38.2003    0.5611    0.0000 C   0  0  0  0  0  0  0  0  0  0  0  0
  -39.4239    1.4287    0.0000 C   0  0  0  0  0  0  0  0  0  0  0  0
  -40.7871    0.8028    0.0000 N   0  0  0  0  0  0  0  0  0  0  0  0
  -35.1034    2.1791    0.0000 C   0  0  0  0  0  0  0  0  0  0  0  0
  -34.6315    3.6029    0.0000 O   0  0  0  0  0  0  0  0  0  0  0  0
  -36.5985    2.0572    0.0000 N   0  0  0  0  0  0  0  0  0  0  0  0
  -37.4516    3.2909    0.0000 C   0  0  0  0  0  0  0  0  0  0  0  0
  -37.6515    4.7775    0.0000 C   0  0  0  0  0  0  0  0  0  0  0  0
  -38.9466    3.1690    0.0000 C   0  0  0  0  0  0  0  0  0  0  0  0
  -39.8975    2.0089    0.0000 O   0  0  0  0  0  0  0  0  0  0  0  0
  -39.7997    4.4028    0.0000 N   0  0  0  0  0  0  0  0  0  0  0  0
  -41.2993    4.4378    0.0000 C   0  0  0  0  0  0  0  0  0  0  0  0
  -41.7294    5.8748    0.0000 C   0  0  0  0  0  0  0  0  0  0  0  0
  -40.4956    6.7279    0.0000 C   0  0  0  0  0  0  0  0  0  0  0  0
  -39.3030    5.8182    0.0000 C   0  0  0  0  0  0  0  0  0  0  0  0
  -38.5229    7.0993    0.0000 C   0  0  0  0  0  0  0  0  0  0  0  0
  -37.0233    7.0643    0.0000 O   0  0  0  0  0  0  0  0  0  0  0  0
  -39.0766    8.4934    0.0000 O   0  0  0  0  0  0  0  0  0  0  0  0
   34.2067   -3.3918    0.0000 H   0  0  0  0  0  0  0  0  0  0  0  0
   33.4473   -7.8197    0.0000 H   0  0  0  0  0  0  0  0  0  0  0  0
   35.6744   -9.8296    0.0000 H   0  0  0  0  0  0  0  0  0  0  0  0
   36.5643   -3.9298    0.0000 H   0  0  0  0  0  0  0  0  0  0  0  0
   43.7235   -3.6858    0.0000 H   0  0  0  0  0  0  0  0  0  0  0  0
   43.7176   -8.8820    0.0000 H   0  0  0  0  0  0  0  0  0  0  0  0
   40.7176   -8.8786    0.0000 H   0  0  0  0  0  0  0  0  0  0  0  0
   45.9691   -7.5855    0.0000 H   0  0  0  0  0  0  0  0  0  0  0  0
   36.2205   -6.2754    0.0000 H   0  0  0  0  0  0  0  0  0  0  0  0
   34.7349   -3.4928    0.0000 H   0  0  0  0  0  0  0  0  0  0  0  0
   39.2264   -1.0827    0.0000 H   0  0  0  0  0  0  0  0  0  0  0  0
   36.9779    0.2189    0.0000 H   0  0  0  0  0  0  0  0  0  0  0  0
   31.8472   -2.8760    0.0000 H   0  0  0  0  0  0  0  0  0  0  0  0
   30.8092   -6.1300    0.0000 H   0  0  0  0  0  0  0  0  0  0  0  0
   29.0447   -5.8643    0.0000 H   0  0  0  0  0  0  0  0  0  0  0  0
   30.1760   -2.8777    0.0000 H   0  0  0  0  0  0  0  0  0  0  0  0
   28.2902   -2.4746    0.0000 H   0  0  0  0  0  0  0  0  0  0  0  0
   26.7658   -1.7899    0.0000 H   0  0  0  0  0  0  0  0  0  0  0  0
   24.8181   -2.2331    0.0000 H   0  0  0  0  0  0  0  0  0  0  0  0
   25.9349   -6.5296    0.0000 H   0  0  0  0  0  0  0  0  0  0  0  0
   24.3677   -5.6764    0.0000 H   0  0  0  0  0  0  0  0  0  0  0  0
   29.4108   -6.6596    0.0000 H   0  0  0  0  0  0  0  0  0  0  0  0
   27.1333   -7.6944    0.0000 H   0  0  0  0  0  0  0  0  0  0  0  0
   23.6197   -1.0683    0.0000 H   0  0  0  0  0  0  0  0  0  0  0  0
   21.8144   -0.8677    0.0000 H   0  0  0  0  0  0  0  0  0  0  0  0
   21.2179   -5.2379    0.0000 H   0  0  0  0  0  0  0  0  0  0  0  0
   20.0639   -4.0813    0.0000 H   0  0  0  0  0  0  0  0  0  0  0  0
   24.4206   -4.3886    0.0000 H   0  0  0  0  0  0  0  0  0  0  0  0
   23.5808   -2.9871    0.0000 H   0  0  0  0  0  0  0  0  0  0  0  0
   24.7259   -7.8693    0.0000 H   0  0  0  0  0  0  0  0  0  0  0  0
   25.9275   -5.7992    0.0000 H   0  0  0  0  0  0  0  0  0  0  0  0
   20.9102    0.6859    0.0000 H   0  0  0  0  0  0  0  0  0  0  0  0
   19.1333    1.5984    0.0000 H   0  0  0  0  0  0  0  0  0  0  0  0
   17.0782   -2.3043    0.0000 H   0  0  0  0  0  0  0  0  0  0  0  0
   16.6334   -0.5762    0.0000 H   0  0  0  0  0  0  0  0  0  0  0  0
   20.2173   -1.1039    0.0000 H   0  0  0  0  0  0  0  0  0  0  0  0
   19.6609   -4.8560    0.0000 H   0  0  0  0  0  0  0  0  0  0  0  0
   18.0272   -4.8827    0.0000 H   0  0  0  0  0  0  0  0  0  0  0  0
   17.3751   -3.2217    0.0000 H   0  0  0  0  0  0  0  0  0  0  0  0
   20.7343   -4.1937    0.0000 H   0  0  0  0  0  0  0  0  0  0  0  0
   21.9686   -3.1233    0.0000 H   0  0  0  0  0  0  0  0  0  0  0  0
   20.6596   -1.2140    0.0000 H   0  0  0  0  0  0  0  0  0  0  0  0
   19.0097    3.0835    0.0000 H   0  0  0  0  0  0  0  0  0  0  0  0
   17.5149    2.2725    0.0000 H   0  0  0  0  0  0  0  0  0  0  0  0
   16.7680    1.0612    0.0000 H   0  0  0  0  0  0  0  0  0  0  0  0
   16.7436    0.4751    0.0000 H   0  0  0  0  0  0  0  0  0  0  0  0
   16.0059   -0.3280    0.0000 H   0  0  0  0  0  0  0  0  0  0  0  0
   15.9037   -0.4611    0.0000 H   0  0  0  0  0  0  0  0  0  0  0  0
   14.9990   -1.5596    0.0000 H   0  0  0  0  0  0  0  0  0  0  0  0
   14.6209   -1.8950    0.0000 H   0  0  0  0  0  0  0  0  0  0  0  0
   13.6038   -2.6371    0.0000 H   0  0  0  0  0  0  0  0  0  0  0  0
   13.1690   -2.8949    0.0000 H   0  0  0  0  0  0  0  0  0  0  0  0
   12.0298   -3.4312    0.0000 H   0  0  0  0  0  0  0  0  0  0  0  0
   11.5542   -3.6020    0.0000 H   0  0  0  0  0  0  0  0  0  0  0  0
   10.1563   -3.8686    0.0000 H   0  0  0  0  0  0  0  0  0  0  0  0
    9.2144   -4.1661    0.0000 H   0  0  0  0  0  0  0  0  0  0  0  0
   19.0983    3.5734    0.0000 H   0  0  0  0  0  0  0  0  0  0  0  0
   19.0535    5.2066    0.0000 H   0  0  0  0  0  0  0  0  0  0  0  0
   17.3656    5.7855    0.0000 H   0  0  0  0  0  0  0  0  0  0  0  0
   17.8841    6.9097    0.0000 H   0  0  0  0  0  0  0  0  0  0  0  0
   17.3891    7.8025    0.0000 H   0  0  0  0  0  0  0  0  0  0  0  0
   17.2309   10.8866    0.0000 H   0  0  0  0  0  0  0  0  0  0  0  0
   15.6710   10.4008    0.0000 H   0  0  0  0  0  0  0  0  0  0  0  0
   19.6692    8.6430    0.0000 H   0  0  0  0  0  0  0  0  0  0  0  0
   18.2731    7.7942    0.0000 H   0  0  0  0  0  0  0  0  0  0  0  0
   19.5988   11.9557    0.0000 H   0  0  0  0  0  0  0  0  0  0  0  0
   17.9307   11.3221    0.0000 H   0  0  0  0  0  0  0  0  0  0  0  0
   21.3027    8.9955    0.0000 H   0  0  0  0  0  0  0  0  0  0  0  0
   23.9287   12.6498    0.0000 H   0  0  0  0  0  0  0  0  0  0  0  0
   21.8189   14.1660    0.0000 H   0  0  0  0  0  0  0  0  0  0  0  0
   19.4510   13.0969    0.0000 H   0  0  0  0  0  0  0  0  0  0  0  0
   15.3797   11.7655    0.0000 H   0  0  0  0  0  0  0  0  0  0  0  0
   14.5380   12.2825    0.0000 H   0  0  0  0  0  0  0  0  0  0  0  0
   12.9779   14.6621    0.0000 H   0  0  0  0  0  0  0  0  0  0  0  0
   11.7502   13.3672    0.0000 H   0  0  0  0  0  0  0  0  0  0  0  0
   14.6531   15.3646    0.0000 H   0  0  0  0  0  0  0  0  0  0  0  0
   10.9429   14.3059    0.0000 H   0  0  0  0  0  0  0  0  0  0  0  0
    9.7797   14.3377    0.0000 H   0  0  0  0  0  0  0  0  0  0  0  0
    7.1808   15.4962    0.0000 H   0  0  0  0  0  0  0  0  0  0  0  0
    6.8480   13.7430    0.0000 H   0  0  0  0  0  0  0  0  0  0  0  0
   11.3522   14.4823    0.0000 H   0  0  0  0  0  0  0  0  0  0  0  0
   12.7102   16.9734    0.0000 H   0  0  0  0  0  0  0  0  0  0  0  0
   11.2214   19.5779    0.0000 H   0  0  0  0  0  0  0  0  0  0  0  0
    8.2214   19.5908    0.0000 H   0  0  0  0  0  0  0  0  0  0  0  0
    6.7102   16.9992    0.0000 H   0  0  0  0  0  0  0  0  0  0  0  0
    5.6614   14.0963    0.0000 H   0  0  0  0  0  0  0  0  0  0  0  0
    4.6656   13.4941    0.0000 H   0  0  0  0  0  0  0  0  0  0  0  0
    1.8530   13.0636    0.0000 H   0  0  0  0  0  0  0  0  0  0  0  0
    2.5208   11.4089    0.0000 H   0  0  0  0  0  0  0  0  0  0  0  0
    5.9104   14.4659    0.0000 H   0  0  0  0  0  0  0  0  0  0  0  0
    5.7060   17.2958    0.0000 H   0  0  0  0  0  0  0  0  0  0  0  0
    3.0454   18.6819    0.0000 H   0  0  0  0  0  0  0  0  0  0  0  0
    0.5147   17.0709    0.0000 H   0  0  0  0  0  0  0  0  0  0  0  0
    0.6445   14.0737    0.0000 H   0  0  0  0  0  0  0  0  0  0  0  0
    1.2114   10.9263    0.0000 H   0  0  0  0  0  0  0  0  0  0  0  0
    0.8195   10.0196    0.0000 H   0  0  0  0  0  0  0  0  0  0  0  0
   -0.7538    9.8311    0.0000 H   0  0  0  0  0  0  0  0  0  0  0  0
   -1.3139    8.1368    0.0000 H   0  0  0  0  0  0  0  0  0  0  0  0
    0.1426    7.1058    0.0000 H   0  0  0  0  0  0  0  0  0  0  0  0
   -0.6717    6.1732    0.0000 H   0  0  0  0  0  0  0  0  0  0  0  0
   -0.4482    5.1772    0.0000 H   0  0  0  0  0  0  0  0  0  0  0  0
   -1.1654    2.1734    0.0000 H   0  0  0  0  0  0  0  0  0  0  0  0
    0.4682    2.2000    0.0000 H   0  0  0  0  0  0  0  0  0  0  0  0
   -1.2942    5.4342    0.0000 H   0  0  0  0  0  0  0  0  0  0  0  0
   -4.3907    3.4757    0.0000 H   0  0  0  0  0  0  0  0  0  0  0  0
   -3.7386    1.8147    0.0000 H   0  0  0  0  0  0  0  0  0  0  0  0
   -1.9595    1.9527    0.0000 H   0  0  0  0  0  0  0  0  0  0  0  0
   -4.3456    4.7285    0.0000 H   0  0  0  0  0  0  0  0  0  0  0  0
   -3.5755    6.3382    0.0000 H   0  0  0  0  0  0  0  0  0  0  0  0
   -1.6897    5.9352    0.0000 H   0  0  0  0  0  0  0  0  0  0  0  0
    0.2874    0.9753    0.0000 H   0  0  0  0  0  0  0  0  0  0  0  0
    3.3417   -2.2986    0.0000 H   0  0  0  0  0  0  0  0  0  0  0  0
    2.2886   -1.6083    0.0000 H   0  0  0  0  0  0  0  0  0  0  0  0
    4.6751   -3.1660    0.0000 H   0  0  0  0  0  0  0  0  0  0  0  0
    3.6936   -2.6907    0.0000 H   0  0  0  0  0  0  0  0  0  0  0  0
    6.5123   -3.7372    0.0000 H   0  0  0  0  0  0  0  0  0  0  0  0
    5.1372   -3.3706    0.0000 H   0  0  0  0  0  0  0  0  0  0  0  0
    7.4303   -4.1018    0.0000 H   0  0  0  0  0  0  0  0  0  0  0  0
    0.1229   -1.1230    0.0000 H   0  0  0  0  0  0  0  0  0  0  0  0
   -0.4365    0.4121    0.0000 H   0  0  0  0  0  0  0  0  0  0  0  0
    0.7382    1.5476    0.0000 H   0  0  0  0  0  0  0  0  0  0  0  0
   -0.5657   -0.4239    0.0000 H   0  0  0  0  0  0  0  0  0  0  0  0
    1.5265   -3.0929    0.0000 H   0  0  0  0  0  0  0  0  0  0  0  0
    0.5931   -5.7529    0.0000 H   0  0  0  0  0  0  0  0  0  0  0  0
    1.5379   -4.0719    0.0000 H   0  0  0  0  0  0  0  0  0  0  0  0
   -3.8935   -4.8531    0.0000 H   0  0  0  0  0  0  0  0  0  0  0  0
   -1.2513   -5.8829    0.0000 H   0  0  0  0  0  0  0  0  0  0  0  0
   -3.4158   -3.3200    0.0000 H   0  0  0  0  0  0  0  0  0  0  0  0
   -6.1862   -3.8416    0.0000 H   0  0  0  0  0  0  0  0  0  0  0  0
   -4.3819   -3.1612    0.0000 H   0  0  0  0  0  0  0  0  0  0  0  0
   -6.3261   -7.1521    0.0000 H   0  0  0  0  0  0  0  0  0  0  0  0
   -5.0200   -6.9996    0.0000 H   0  0  0  0  0  0  0  0  0  0  0  0
   -9.7405   -6.4101    0.0000 H   0  0  0  0  0  0  0  0  0  0  0  0
   -8.3229   -8.1933    0.0000 H   0  0  0  0  0  0  0  0  0  0  0  0
   -6.5930   -5.6453    0.0000 H   0  0  0  0  0  0  0  0  0  0  0  0
   -4.3859   -8.1716    0.0000 H   0  0  0  0  0  0  0  0  0  0  0  0
   -4.4194   -8.9730    0.0000 H   0  0  0  0  0  0  0  0  0  0  0  0
   -7.2676  -11.6588    0.0000 H   0  0  0  0  0  0  0  0  0  0  0  0
   -8.5655  -10.8817    0.0000 H   0  0  0  0  0  0  0  0  0  0  0  0
   -8.5033   -9.5277    0.0000 H   0  0  0  0  0  0  0  0  0  0  0  0
   -5.1193  -12.3182    0.0000 H   0  0  0  0  0  0  0  0  0  0  0  0
   -6.5960  -11.6191    0.0000 H   0  0  0  0  0  0  0  0  0  0  0  0
   -3.3099  -12.4785    0.0000 H   0  0  0  0  0  0  0  0  0  0  0  0
   -2.3651  -10.7975    0.0000 H   0  0  0  0  0  0  0  0  0  0  0  0
   -3.6736   -9.5842    0.0000 H   0  0  0  0  0  0  0  0  0  0  0  0
   -5.6431  -10.1819    0.0000 H   0  0  0  0  0  0  0  0  0  0  0  0
   -6.0263  -12.0097    0.0000 H   0  0  0  0  0  0  0  0  0  0  0  0
   -6.6123  -12.8276    0.0000 H   0  0  0  0  0  0  0  0  0  0  0  0
   -8.5354  -13.4032    0.0000 H   0  0  0  0  0  0  0  0  0  0  0  0
   -9.6548  -13.0104    0.0000 H   0  0  0  0  0  0  0  0  0  0  0  0
  -10.8088  -11.5420    0.0000 H   0  0  0  0  0  0  0  0  0  0  0  0
   -9.5513   -8.5771    0.0000 H   0  0  0  0  0  0  0  0  0  0  0  0
  -10.9800   -7.5837    0.0000 H   0  0  0  0  0  0  0  0  0  0  0  0
  -12.7373  -10.5125    0.0000 H   0  0  0  0  0  0  0  0  0  0  0  0
  -15.5470  -10.7416    0.0000 H   0  0  0  0  0  0  0  0  0  0  0  0
  -13.6270  -10.9210    0.0000 H   0  0  0  0  0  0  0  0  0  0  0  0
  -16.5569   -7.5859    0.0000 H   0  0  0  0  0  0  0  0  0  0  0  0
  -15.2569   -7.3877    0.0000 H   0  0  0  0  0  0  0  0  0  0  0  0
  -18.5697  -11.5649    0.0000 H   0  0  0  0  0  0  0  0  0  0  0  0
  -16.4160   -9.1096    0.0000 H   0  0  0  0  0  0  0  0  0  0  0  0
  -14.8889   -6.2606    0.0000 H   0  0  0  0  0  0  0  0  0  0  0  0
  -17.5510   -4.0308    0.0000 H   0  0  0  0  0  0  0  0  0  0  0  0
  -18.1720   -5.5420    0.0000 H   0  0  0  0  0  0  0  0  0  0  0  0
  -14.6339   -5.3307    0.0000 H   0  0  0  0  0  0  0  0  0  0  0  0
  -15.0803   -1.5824    0.0000 H   0  0  0  0  0  0  0  0  0  0  0  0
  -16.8638   -1.5252    0.0000 H   0  0  0  0  0  0  0  0  0  0  0  0
  -17.4400   -3.2141    0.0000 H   0  0  0  0  0  0  0  0  0  0  0  0
  -13.9473   -2.1189    0.0000 H   0  0  0  0  0  0  0  0  0  0  0  0
  -12.7728   -3.4623    0.0000 H   0  0  0  0  0  0  0  0  0  0  0  0
  -13.8882   -5.0354    0.0000 H   0  0  0  0  0  0  0  0  0  0  0  0
  -18.1945   -4.1800    0.0000 H   0  0  0  0  0  0  0  0  0  0  0  0
  -19.7817   -7.1769    0.0000 H   0  0  0  0  0  0  0  0  0  0  0  0
  -22.5915   -7.4061    0.0000 H   0  0  0  0  0  0  0  0  0  0  0  0
  -20.6715   -7.5855    0.0000 H   0  0  0  0  0  0  0  0  0  0  0  0
  -23.6013   -4.2503    0.0000 H   0  0  0  0  0  0  0  0  0  0  0  0
  -22.3014   -4.0522    0.0000 H   0  0  0  0  0  0  0  0  0  0  0  0
  -25.6141   -8.2294    0.0000 H   0  0  0  0  0  0  0  0  0  0  0  0
  -23.4605   -5.7740    0.0000 H   0  0  0  0  0  0  0  0  0  0  0  0
  -21.9995   -2.7542    0.0000 H   0  0  0  0  0  0  0  0  0  0  0  0
  -24.4387   -0.6004    0.0000 H   0  0  0  0  0  0  0  0  0  0  0  0
  -25.2165   -2.2065    0.0000 H   0  0  0  0  0  0  0  0  0  0  0  0
  -21.9883    1.6309    0.0000 H   0  0  0  0  0  0  0  0  0  0  0  0
  -24.5017    0.9733    0.0000 H   0  0  0  0  0  0  0  0  0  0  0  0
  -25.2389   -0.8445    0.0000 H   0  0  0  0  0  0  0  0  0  0  0  0
  -26.8262   -3.8414    0.0000 H   0  0  0  0  0  0  0  0  0  0  0  0
  -29.6359   -4.0705    0.0000 H   0  0  0  0  0  0  0  0  0  0  0  0
  -27.7159   -4.2499    0.0000 H   0  0  0  0  0  0  0  0  0  0  0  0
  -32.4761   -2.0625    0.0000 H   0  0  0  0  0  0  0  0  0  0  0  0
  -31.2954   -4.2680    0.0000 H   0  0  0  0  0  0  0  0  0  0  0  0
  -30.5049   -2.4385    0.0000 H   0  0  0  0  0  0  0  0  0  0  0  0
  -29.0439    0.5813    0.0000 H   0  0  0  0  0  0  0  0  0  0  0  0
  -30.6473    2.9000    0.0000 H   0  0  0  0  0  0  0  0  0  0  0  0
  -29.2918    1.5285    0.0000 H   0  0  0  0  0  0  0  0  0  0  0  0
  -33.7284    1.6814    0.0000 H   0  0  0  0  0  0  0  0  0  0  0  0
  -33.0579    0.5502    0.0000 H   0  0  0  0  0  0  0  0  0  0  0  0
  -31.9259    5.7600    0.0000 H   0  0  0  0  0  0  0  0  0  0  0  0
  -32.4605    2.5380    0.0000 H   0  0  0  0  0  0  0  0  0  0  0  0
  -33.8706   -0.5058    0.0000 H   0  0  0  0  0  0  0  0  0  0  0  0
  -36.5439   -0.8572    0.0000 H   0  0  0  0  0  0  0  0  0  0  0  0
  -34.7604   -0.9144    0.0000 H   0  0  0  0  0  0  0  0  0  0  0  0
  -37.5335    2.5156    0.0000 H   0  0  0  0  0  0  0  0  0  0  0  0
  -36.3903    2.6189    0.0000 H   0  0  0  0  0  0  0  0  0  0  0  0
  -39.2672   -0.4933    0.0000 H   0  0  0  0  0  0  0  0  0  0  0  0
  -37.5039   -0.7675    0.0000 H   0  0  0  0  0  0  0  0  0  0  0  0
  -40.2770    2.6624    0.0000 H   0  0  0  0  0  0  0  0  0  0  0  0
  -38.4935    2.6052    0.0000 H   0  0  0  0  0  0  0  0  0  0  0  0
  -42.0107    1.6703    0.0000 H   0  0  0  0  0  0  0  0  0  0  0  0
  -40.9266   -0.6907    0.0000 H   0  0  0  0  0  0  0  0  0  0  0  0
  -37.5493    0.8971    0.0000 H   0  0  0  0  0  0  0  0  0  0  0  0
  -36.0884    3.9168    0.0000 H   0  0  0  0  0  0  0  0  0  0  0  0
  -36.7644    5.7965    0.0000 H   0  0  0  0  0  0  0  0  0  0  0  0
  -38.3605    6.1456    0.0000 H   0  0  0  0  0  0  0  0  0  0  0  0
  -39.3054    4.4646    0.0000 H   0  0  0  0  0  0  0  0  0  0  0  0
  -41.1774    2.9428    0.0000 H   0  0  0  0  0  0  0  0  0  0  0  0
  -42.7734    4.1603    0.0000 H   0  0  0  0  0  0  0  0  0  0  0  0
  -43.1136    5.2969    0.0000 H   0  0  0  0  0  0  0  0  0  0  0  0
  -42.4489    7.1910    0.0000 H   0  0  0  0  0  0  0  0  0  0  0  0
  -41.4730    7.8658    0.0000 H   0  0  0  0  0  0  0  0  0  0  0  0
  -39.6068    7.9363    0.0000 H   0  0  0  0  0  0  0  0  0  0  0  0
  -37.8792    5.3463    0.0000 H   0  0  0  0  0  0  0  0  0  0  0  0
  -38.4622    9.6967    0.0000 H   0  0  0  0  0  0  0  0  0  0  0  0
  1  2  1  0
  2  3  1  0
  3  4  2  0
  4  5  1  0
  5  6  2  0
  6  7  1  0
  7  8  2  0
  7  9  1  0
  9 10  1  0
 10 11  1  0
 11 12  2  0
  9 13  1  0
 13 14  1  0
 14 15  2  0
 15 16  1  0
 16 17  2  0
 17 18  1  0
 16 19  1  0
 14 20  1  0
 20 21  1  0
 21 22  2  0
 22 23  1  0
 23 24  2  0
 24 25  1  0
 25 26  2  0
 25 27  1  0
  1 28  2  0
  1 29  1  0
 29 30  1  0
 30 31  1  0
 31 32  1  0
 32 33  2  0
 32 34  1  0
 34 35  1  0
 35 36  1  0
 36 37  1  0
 37 38  1  0
 37 39  2  0
 35 40  1  0
 40 41  2  0
 40 42  1  0
 42 43  1  0
 43 44  1  0
 44 45  1  0
 45 46  1  0
 46 47  1  0
 46 48  2  0
 43 49  1  0
 49 50  2  0
 49 51  1  0
 51 52  1  0
 52 53  1  0
 53 54  1  0
 54 55  1  0
 54 56  1  0
 52 57  1  0
 57 58  2  0
 57 59  1  0
 60 59  1  6
 60 61  1  0
 61 62  1  0
 62 63  1  0
 63 64  1  0
 64 65  1  0
 65 66  1  0
 66 67  1  0
 60 68  1  0
 60 69  1  0
 69 70  2  0
 69 71  1  0
 71 72  1  0
 72 73  1  0
 73 74  1  0
 74 75  1  0
 75 76  1  0
 76 77  1  0
 77 78  2  3
 77 79  1  0
 72 80  1  0
 80 81  2  0
 80 82  1  0
 82 83  1  0
 83 84  1  0
 84 85  1  0
 83 86  1  0
 86 87  2  0
 86 88  1  0
 88 89  1  0
 89 90  1  0
 90 91  1  0
 91 92  2  0
 92 93  1  0
 93 94  2  0
 94 95  1  0
 95 96  2  0
 89 97  1  0
 97 98  2  0
 97 99  1  0
 99100  1  0
100101  1  0
101102  1  0
102103  2  0
103104  1  0
104105  2  0
105106  1  0
106107  2  0
100108  1  0
108109  2  0
108110  1  0
110111  1  0
111112  1  0
111113  1  0
113114  2  0
113115  1  0
115116  1  0
116117  1  0
117118  1  0
118119  1  0
118120  1  0
116121  1  0
121122  2  0
121123  1  0
123124  1  0
124125  1  0
125126  1  0
126127  1  0
127128  1  0
124129  1  0
124130  1  1
130131  2  0
130132  1  0
132133  1  0
133134  1  0
134135  1  0
135136  2  0
135137  1  0
133138  1  0
138139  2  0
138140  1  0
140141  1  0
141142  1  0
142143  1  0
143144  1  0
144145  1  0
144146  2  0
141147  1  0
147148  2  0
147149  1  0
149150  1  0
150151  1  0
151152  1  0
151153  1  0
153154  1  0
150155  1  0
155156  2  0
155157  1  0
157158  1  0
158159  1  0
159160  1  0
160161  1  0
161162  1  0
162163  2  0
162164  1  0
164165  1  0
165166  1  0
166167  1  0
167168  1  0
168169  2  0
168170  1  0
165171  1  0
171172  2  0
171173  1  0
173174  1  0
174175  1  0
175176  1  0
176177  1  0
176178  1  0
174179  1  0
179180  2  0
179181  1  0
181182  1  0
182183  1  0
183184  1  0
184185  1  0
185186  2  0
185187  1  0
182188  1  0
188189  2  0
188190  1  0
190191  1  0
191192  1  0
192193  1  0
193194  1  0
193195  2  0
191196  1  0
196197  2  0
196198  1  0
198199  1  0
199200  1  0
200201  1  0
201202  1  0
201203  2  0
199204  1  0
204205  2  0
204206  1  0
206207  1  0
207208  1  0
208209  1  0
209210  1  0
210211  2  0
210212  1  0
207213  1  0
213214  2  0
213215  1  0
215216  1  0
216217  1  0
217218  1  0
218219  1  0
219220  1  0
220221  1  0
216222  1  0
222223  2  0
222224  1  0
224225  1  0
225226  1  0
225227  1  0
227228  2  0
227229  1  0
229230  1  0
230231  1  0
231232  1  0
232233  1  0
233234  1  0
234235  2  0
234236  1  0
  8  3  1  0
 96 91  1  0
107102  1  0
161157  1  0
233229  1  0
 11  6  1  0
 67128  2  0
 18 13  2  0
 22  9  1  0
 26 21  1  0
  2237  1  0
  4238  1  0
  5239  1  0
  8240  1  0
 15241  1  0
 17242  1  0
 18243  1  0
 19244  1  0
 23245  1  0
 24246  1  0
 26247  1  0
 27248  1  0
 29249  1  0
 30250  1  0
 30251  1  0
 31252  1  0
 31253  1  0
 34254  1  0
 35255  1  1
 36256  1  0
 36257  1  0
 38258  1  0
 38259  1  0
 42260  1  0
 43261  1  1
 44262  1  0
 44263  1  0
 45264  1  0
 45265  1  0
 47266  1  0
 47267  1  0
 51268  1  0
 52269  1  1
 53270  1  0
 53271  1  0
 54272  1  0
 55273  1  0
 55274  1  0
 55275  1  0
 56276  1  0
 56277  1  0
 56278  1  0
 59279  1  0
 61280  1  0
 61281  1  0
 62282  1  0
 62283  1  0
 63284  1  0
 63285  1  0
 64286  1  0
 64287  1  0
 65288  1  0
 65289  1  0
 66290  1  0
 66291  1  0
 67292  1  0
 68293  1  0
 68294  1  0
 68295  1  0
 71296  1  0
 72297  1  6
 73298  1  0
 73299  1  0
 74300  1  0
 74301  1  0
 75302  1  0
 75303  1  0
 76304  1  0
 78305  1  0
 79306  1  0
 79307  1  0
 82308  1  0
 83309  1  6
 84310  1  0
 84311  1  0
 85312  1  0
 88313  1  0
 89314  1  6
 90315  1  0
 90316  1  0
 92317  1  0
 93318  1  0
 94319  1  0
 95320  1  0
 96321  1  0
 99322  1  0
100323  1  6
101324  1  0
101325  1  0
103326  1  0
104327  1  0
105328  1  0
106329  1  0
107330  1  0
110331  1  0
111332  1  6
112333  1  0
112334  1  0
112335  1  0
115336  1  0
116337  1  6
117338  1  0
117339  1  0
118340  1  0
119341  1  0
119342  1  0
119343  1  0
120344  1  0
120345  1  0
120346  1  0
123347  1  0
125348  1  0
125349  1  0
126350  1  0
126351  1  0
127352  1  0
127353  1  0
128354  1  0
129355  1  0
129356  1  0
129357  1  0
132358  1  0
133359  1  1
134360  1  0
134361  1  0
137362  1  0
140363  1  0
141364  1  6
142365  1  0
142366  1  0
143367  1  0
143368  1  0
145369  1  0
145370  1  0
149371  1  0
150372  1  1
151373  1  1
152374  1  0
152375  1  0
152376  1  0
153377  1  0
153378  1  0
154379  1  0
154380  1  0
154381  1  0
158382  1  0
158383  1  0
159384  1  0
159385  1  0
160386  1  0
160387  1  0
161388  1  0
164389  1  0
165390  1  1
166391  1  0
166392  1  0
167393  1  0
167394  1  0
170395  1  0
173396  1  0
174397  1  6
175398  1  0
175399  1  0
176400  1  0
177401  1  0
177402  1  0
177403  1  0
178404  1  0
178405  1  0
178406  1  0
181407  1  0
182408  1  1
183409  1  0
183410  1  0
184411  1  0
184412  1  0
187413  1  0
190414  1  0
191415  1  6
192416  1  0
192417  1  0
194418  1  0
194419  1  0
198420  1  0
199421  1  1
200422  1  0
200423  1  0
202424  1  0
202425  1  0
206426  1  0
207427  1  6
208428  1  0
208429  1  0
209430  1  0
209431  1  0
212432  1  0
215433  1  0
216434  1  1
217435  1  0
217436  1  0
218437  1  0
218438  1  0
219439  1  0
219440  1  0
220441  1  0
220442  1  0
221443  1  0
221444  1  0
224445  1  0
225446  1  6
226447  1  0
226448  1  0
226449  1  0
230450  1  0
230451  1  0
231452  1  0
231453  1  0
232454  1  0
232455  1  0
233456  1  0
236457  1  0
M  END
