
     RDKit          2D

234236  0  0  0  0  0  0  0  0999 V2000
   26.1678   -9.1354    0.0000 N   0  0  0  0  0  0  0  0  0  0  0  0
   25.3789   -7.8596    0.0000 C   0  0  0  0  0  0  0  0  0  0  0  0
   23.8796   -7.9049    0.0000 C   0  0  0  0  0  0  0  0  0  0  0  0
   23.0907   -6.6291    0.0000 C   0  0  0  0  0  0  0  0  0  0  0  0
   23.9568   -5.4045    0.0000 O   0  0  0  0  0  0  0  0  0  0  0  0
   21.5913   -6.6744    0.0000 N   0  0  0  0  0  0  0  0  0  0  0  0
   20.8025   -5.3986    0.0000 C   0  0  0  0  0  0  0  0  0  0  0  0
   22.1959   -4.8433    0.0000 C   0  0  0  0  0  0  0  0  0  0  0  0
   19.6248   -4.4696    0.0000 C   0  0  0  0  0  0  0  0  0  0  0  0
   19.8405   -2.9852    0.0000 O   0  0  0  0  0  0  0  0  0  0  0  0
   18.2314   -5.0249    0.0000 N   0  0  0  0  0  0  0  0  0  0  0  0
   17.0537   -4.0959    0.0000 C   0  0  0  0  0  0  0  0  0  0  0  0
   16.3433   -5.4170    0.0000 C   0  0  0  0  0  0  0  0  0  0  0  0
   16.9708   -6.7794    0.0000 O   0  0  0  0  0  0  0  0  0  0  0  0
   16.2649   -2.8201    0.0000 C   0  0  0  0  0  0  0  0  0  0  0  0
   14.7822   -3.0478    0.0000 O   0  0  0  0  0  0  0  0  0  0  0  0
   16.9753   -1.4990    0.0000 N   0  0  0  0  0  0  0  0  0  0  0  0
   16.1864   -0.2232    0.0000 C   0  0  0  0  0  0  0  0  0  0  0  0
   17.5798    0.3321    0.0000 C   0  0  0  0  0  0  0  0  0  0  0  0
   18.6992    1.3306    0.0000 O   0  0  0  0  0  0  0  0  0  0  0  0
   18.7575   -0.5969    0.0000 C   0  0  0  0  0  0  0  0  0  0  0  0
   15.0087    0.7058    0.0000 C   0  0  0  0  0  0  0  0  0  0  0  0
   15.2245    2.1902    0.0000 O   0  0  0  0  0  0  0  0  0  0  0  0
   13.6153    0.1505    0.0000 N   0  0  0  0  0  0  0  0  0  0  0  0
   12.4377    1.0795    0.0000 C   0  0  0  0  0  0  0  0  0  0  0  0
   11.7272   -0.2416    0.0000 C   0  0  0  0  0  0  0  0  0  0  0  0
   12.5161   -1.5174    0.0000 C   0  0  0  0  0  0  0  0  0  0  0  0
   11.8057   -2.8385    0.0000 C   0  0  0  0  0  0  0  0  0  0  0  0
   13.6938   -2.4464    0.0000 C   0  0  0  0  0  0  0  0  0  0  0  0
   11.6488    2.3553    0.0000 C   0  0  0  0  0  0  0  0  0  0  0  0
   10.8609    2.2343    0.0000 O   0  0  0  0  0  0  0  0  0  0  0  0
   12.3592    3.6764    0.0000 N   0  0  0  0  0  0  0  0  0  0  0  0
   11.5703    4.9522    0.0000 C   0  0  0  0  0  0  0  0  0  0  0  0
   11.2654    6.4209    0.0000 C   0  0  0  0  0  0  0  0  0  0  0  0
   12.3848    7.4193    0.0000 C   0  0  0  0  0  0  0  0  0  0  0  0
   12.0798    8.8880    0.0000 C   0  0  0  0  0  0  0  0  0  0  0  0
   13.1993    9.8864    0.0000 C   0  0  0  0  0  0  0  0  0  0  0  0
   14.6236    9.4162    0.0000 C   0  0  0  0  0  0  0  0  0  0  0  0
   14.9286    7.9475    0.0000 C   0  0  0  0  0  0  0  0  0  0  0  0
   13.8092    6.9491    0.0000 C   0  0  0  0  0  0  0  0  0  0  0  0
   10.4509    3.9538    0.0000 C   0  0  0  0  0  0  0  0  0  0  0  0
   10.5166    3.1593    0.0000 O   0  0  0  0  0  0  0  0  0  0  0  0
    9.0265    4.4240    0.0000 N   0  0  0  0  0  0  0  0  0  0  0  0
    7.9071    3.4255    0.0000 C   0  0  0  0  0  0  0  0  0  0  0  0
    7.1967    2.1045    0.0000 C   0  0  0  0  0  0  0  0  0  0  0  0
    5.6973    2.0592    0.0000 C   0  0  0  0  0  0  0  0  0  0  0  0
    4.9869    0.7381    0.0000 C   0  0  0  0  0  0  0  0  0  0  0  0
    3.5043    0.5103    0.0000 O   0  0  0  0  0  0  0  0  0  0  0  0
    5.7758   -0.5377    0.0000 O   0  0  0  0  0  0  0  0  0  0  0  0
    6.4827    3.8958    0.0000 C   0  0  0  0  0  0  0  0  0  0  0  0
    6.1777    5.3644    0.0000 O   0  0  0  0  0  0  0  0  0  0  0  0
    5.3633    2.8973    0.0000 N   0  0  0  0  0  0  0  0  0  0  0  0
    3.9389    3.3676    0.0000 C   0  0  0  0  0  0  0  0  0  0  0  0
    2.7612    4.2966    0.0000 C   0  0  0  0  0  0  0  0  0  0  0  0
    1.9723    5.5724    0.0000 O   0  0  0  0  0  0  0  0  0  0  0  0
    1.3105    3.9152    0.0000 C   0  0  0  0  0  0  0  0  0  0  0  0
    2.8195    2.3691    0.0000 C   0  0  0  0  0  0  0  0  0  0  0  0
    2.9431    0.8742    0.0000 O   0  0  0  0  0  0  0  0  0  0  0  0
    1.3951    2.8394    0.0000 N   0  0  0  0  0  0  0  0  0  0  0  0
    0.2756    1.8409    0.0000 C   0  0  0  0  0  0  0  0  0  0  0  0
   -0.4348    0.5198    0.0000 C   0  0  0  0  0  0  0  0  0  0  0  0
   -1.9341    0.4745    0.0000 C   0  0  0  0  0  0  0  0  0  0  0  0
   -2.7230    1.7503    0.0000 C   0  0  0  0  0  0  0  0  0  0  0  0
   -4.2223    1.7050    0.0000 C   0  0  0  0  0  0  0  0  0  0  0  0
   -4.9327    0.3839    0.0000 C   0  0  0  0  0  0  0  0  0  0  0  0
   -4.1438   -0.8919    0.0000 C   0  0  0  0  0  0  0  0  0  0  0  0
   -2.6445   -0.8466    0.0000 C   0  0  0  0  0  0  0  0  0  0  0  0
   -1.1487    2.3111    0.0000 C   0  0  0  0  0  0  0  0  0  0  0  0
   -1.0893    3.8100    0.0000 O   0  0  0  0  0  0  0  0  0  0  0  0
   -2.2682    1.3127    0.0000 N   0  0  0  0  0  0  0  0  0  0  0  0
   -3.6926    1.7829    0.0000 C   0  0  0  0  0  0  0  0  0  0  0  0
   -4.8702    2.7120    0.0000 C   0  0  0  0  0  0  0  0  0  0  0  0
   -4.6545    4.1964    0.0000 C   0  0  0  0  0  0  0  0  0  0  0  0
   -3.2611    4.7517    0.0000 C   0  0  0  0  0  0  0  0  0  0  0  0
   -3.0453    6.2361    0.0000 C   0  0  0  0  0  0  0  0  0  0  0  0
   -4.2230    7.1652    0.0000 C   0  0  0  0  0  0  0  0  0  0  0  0
   -4.0072    8.6496    0.0000 O   0  0  0  0  0  0  0  0  0  0  0  0
   -5.6164    6.6098    0.0000 C   0  0  0  0  0  0  0  0  0  0  0  0
   -5.8321    5.1254    0.0000 C   0  0  0  0  0  0  0  0  0  0  0  0
   -4.8120    0.7845    0.0000 C   0  0  0  0  0  0  0  0  0  0  0  0
   -4.8715   -0.7143    0.0000 O   0  0  0  0  0  0  0  0  0  0  0  0
   -6.2364    1.2547    0.0000 N   0  0  0  0  0  0  0  0  0  0  0  0
   -7.3558    0.2563    0.0000 C   0  0  0  0  0  0  0  0  0  0  0  0
   -8.0662   -1.0648    0.0000 C   0  0  0  0  0  0  0  0  0  0  0  0
   -9.5655   -1.1101    0.0000 C   0  0  0  0  0  0  0  0  0  0  0  0
  -10.2760   -2.4312    0.0000 C   0  0  0  0  0  0  0  0  0  0  0  0
  -10.9899   -0.6399    0.0000 C   0  0  0  0  0  0  0  0  0  0  0  0
   -8.7802    0.7265    0.0000 C   0  0  0  0  0  0  0  0  0  0  0  0
   -9.0852    2.1952    0.0000 O   0  0  0  0  0  0  0  0  0  0  0  0
   -9.8996   -0.2719    0.0000 N   0  0  0  0  0  0  0  0  0  0  0  0
  -11.3240    0.1983    0.0000 C   0  0  0  0  0  0  0  0  0  0  0  0
  -12.4434   -0.8001    0.0000 C   0  0  0  0  0  0  0  0  0  0  0  0
  -12.3198   -2.2950    0.0000 O   0  0  0  0  0  0  0  0  0  0  0  0
  -13.8678   -0.3299    0.0000 N   0  0  0  0  0  0  0  0  0  0  0  0
  -14.9872   -1.3284    0.0000 C   0  0  0  0  0  0  0  0  0  0  0  0
  -16.4116   -0.8581    0.0000 C   0  0  0  0  0  0  0  0  0  0  0  0
  -16.7166    0.6106    0.0000 O   0  0  0  0  0  0  0  0  0  0  0  0
  -17.5311   -1.8566    0.0000 N   0  0  0  0  0  0  0  0  0  0  0  0
  -18.9554   -1.3863    0.0000 C   0  0  0  0  0  0  0  0  0  0  0  0
  -20.1331   -0.4573    0.0000 C   0  0  0  0  0  0  0  0  0  0  0  0
  -19.9174    1.0271    0.0000 C   0  0  0  0  0  0  0  0  0  0  0  0
  -21.0950    1.9562    0.0000 C   0  0  0  0  0  0  0  0  0  0  0  0
  -19.2069    2.3482    0.0000 C   0  0  0  0  0  0  0  0  0  0  0  0
  -20.0749   -2.3848    0.0000 C   0  0  0  0  0  0  0  0  0  0  0  0
  -19.7699   -3.8534    0.0000 O   0  0  0  0  0  0  0  0  0  0  0  0
  -21.4993   -1.9145    0.0000 N   0  0  0  0  0  0  0  0  0  0  0  0
  -22.6187   -2.9130    0.0000 C   0  0  0  0  0  0  0  0  0  0  0  0
  -23.3291   -4.2341    0.0000 C   0  0  0  0  0  0  0  0  0  0  0  0
  -24.8284   -4.2794    0.0000 C   0  0  0  0  0  0  0  0  0  0  0  0
  -25.5389   -5.6005    0.0000 C   0  0  0  0  0  0  0  0  0  0  0  0
  -26.2528   -3.8091    0.0000 C   0  0  0  0  0  0  0  0  0  0  0  0
  -24.0431   -2.4428    0.0000 C   0  0  0  0  0  0  0  0  0  0  0  0
  -24.3480   -0.9741    0.0000 O   0  0  0  0  0  0  0  0  0  0  0  0
  -25.1625   -3.4412    0.0000 N   0  0  0  0  0  0  0  0  0  0  0  0
  -26.5869   -2.9710    0.0000 C   0  0  0  0  0  0  0  0  0  0  0  0
  -27.7063   -3.9694    0.0000 C   0  0  0  0  0  0  0  0  0  0  0  0
  -29.1307   -3.4992    0.0000 O   0  0  0  0  0  0  0  0  0  0  0  0
  -27.5827   -5.4643    0.0000 O   0  0  0  0  0  0  0  0  0  0  0  0
   27.6671   -9.0901    0.0000 H   0  0  0  0  0  0  0  0  0  0  0  0
   25.4573  -10.4565    0.0000 H   0  0  0  0  0  0  0  0  0  0  0  0
   26.7723   -7.3043    0.0000 H   0  0  0  0  0  0  0  0  0  0  0  0
   25.0739   -6.3910    0.0000 H   0  0  0  0  0  0  0  0  0  0  0  0
   24.1845   -9.3736    0.0000 H   0  0  0  0  0  0  0  0  0  0  0  0
   22.4861   -8.4603    0.0000 H   0  0  0  0  0  0  0  0  0  0  0  0
   20.8809   -7.9955    0.0000 H   0  0  0  0  0  0  0  0  0  0  0  0
   19.6830   -6.3971    0.0000 H   0  0  0  0  0  0  0  0  0  0  0  0
   23.4780   -5.6218    0.0000 H   0  0  0  0  0  0  0  0  0  0  0  0
   23.3153   -3.8448    0.0000 H   0  0  0  0  0  0  0  0  0  0  0  0
   21.4070   -3.5675    0.0000 H   0  0  0  0  0  0  0  0  0  0  0  0
   18.1982   -6.5246    0.0000 H   0  0  0  0  0  0  0  0  0  0  0  0
   18.1732   -3.0975    0.0000 H   0  0  0  0  0  0  0  0  0  0  0  0
   15.2239   -6.4154    0.0000 H   0  0  0  0  0  0  0  0  0  0  0  0
   15.1657   -4.4880    0.0000 H   0  0  0  0  0  0  0  0  0  0  0  0
   16.4218   -8.0139    0.0000 H   0  0  0  0  0  0  0  0  0  0  0  0
   18.4689   -1.6368    0.0000 H   0  0  0  0  0  0  0  0  0  0  0  0
   14.9536   -1.0778    0.0000 H   0  0  0  0  0  0  0  0  0  0  0  0
   16.7909    1.6079    0.0000 H   0  0  0  0  0  0  0  0  0  0  0  0
   20.1703    1.0375    0.0000 H   0  0  0  0  0  0  0  0  0  0  0  0
   20.2082   -0.2155    0.0000 H   0  0  0  0  0  0  0  0  0  0  0  0
   19.5463   -1.8727    0.0000 H   0  0  0  0  0  0  0  0  0  0  0  0
   18.0703   -1.9302    0.0000 H   0  0  0  0  0  0  0  0  0  0  0  0
   13.5821   -1.3492    0.0000 H   0  0  0  0  0  0  0  0  0  0  0  0
   13.5571    2.0780    0.0000 H   0  0  0  0  0  0  0  0  0  0  0  0
   10.4945   -1.0961    0.0000 H   0  0  0  0  0  0  0  0  0  0  0  0
   10.5496    0.6875    0.0000 H   0  0  0  0  0  0  0  0  0  0  0  0
   13.9191   -0.9865    0.0000 H   0  0  0  0  0  0  0  0  0  0  0  0
   12.4332   -4.2009    0.0000 H   0  0  0  0  0  0  0  0  0  0  0  0
   10.6863   -3.8369    0.0000 H   0  0  0  0  0  0  0  0  0  0  0  0
   10.5236   -2.0599    0.0000 H   0  0  0  0  0  0  0  0  0  0  0  0
   13.6606   -3.9461    0.0000 H   0  0  0  0  0  0  0  0  0  0  0  0
   15.0502   -3.0868    0.0000 H   0  0  0  0  0  0  0  0  0  0  0  0
   14.2379   -1.0486    0.0000 H   0  0  0  0  0  0  0  0  0  0  0  0
   13.8585    3.7217    0.0000 H   0  0  0  0  0  0  0  0  0  0  0  0
   12.9637    5.5076    0.0000 H   0  0  0  0  0  0  0  0  0  0  0  0
    9.8720    5.8655    0.0000 H   0  0  0  0  0  0  0  0  0  0  0  0
   10.4765    7.6967    0.0000 H   0  0  0  0  0  0  0  0  0  0  0  0
   10.6554    9.3582    0.0000 H   0  0  0  0  0  0  0  0  0  0  0  0
   12.8943   11.3551    0.0000 H   0  0  0  0  0  0  0  0  0  0  0  0
   15.7431   10.4146    0.0000 H   0  0  0  0  0  0  0  0  0  0  0  0
   16.3530    7.4773    0.0000 H   0  0  0  0  0  0  0  0  0  0  0  0
   14.1141    5.4804    0.0000 H   0  0  0  0  0  0  0  0  0  0  0  0
    8.7216    5.8927    0.0000 H   0  0  0  0  0  0  0  0  0  0  0  0
    9.0847    2.4965    0.0000 H   0  0  0  0  0  0  0  0  0  0  0  0
    6.9809    0.6200    0.0000 H   0  0  0  0  0  0  0  0  0  0  0  0
    8.6210    1.6342    0.0000 H   0  0  0  0  0  0  0  0  0  0  0  0
    4.2730    2.5294    0.0000 H   0  0  0  0  0  0  0  0  0  0  0  0
    5.1908    3.4710    0.0000 H   0  0  0  0  0  0  0  0  0  0  0  0
    5.3038    1.3985    0.0000 H   0  0  0  0  0  0  0  0  0  0  0  0
    4.6493    4.6887    0.0000 H   0  0  0  0  0  0  0  0  0  0  0  0
    3.8807    5.2950    0.0000 H   0  0  0  0  0  0  0  0  0  0  0  0
    0.4787    5.7102    0.0000 H   0  0  0  0  0  0  0  0  0  0  0  0
    0.0857    4.5198    0.0000 H   0  0  0  0  0  0  0  0  0  0  0  0
    0.2484    2.7428    0.0000 H   0  0  0  0  0  0  0  0  0  0  0  0
    1.4653    2.2444    0.0000 H   0  0  0  0  0  0  0  0  0  0  0  0
    0.9134    4.2599    0.0000 H   0  0  0  0  0  0  0  0  0  0  0  0
    1.4533    0.9119    0.0000 H   0  0  0  0  0  0  0  0  0  0  0  0
   -0.6505   -0.9646    0.0000 H   0  0  0  0  0  0  0  0  0  0  0  0
    0.9896    0.0496    0.0000 H   0  0  0  0  0  0  0  0  0  0  0  0
   -2.0126    3.0714    0.0000 H   0  0  0  0  0  0  0  0  0  0  0  0
   -5.2965    2.7520    0.0000 H   0  0  0  0  0  0  0  0  0  0  0  0
   -6.4320    0.3386    0.0000 H   0  0  0  0  0  0  0  0  0  0  0  0
   -4.8543   -2.2130    0.0000 H   0  0  0  0  0  0  0  0  0  0  0  0
   -1.8556   -2.1224    0.0000 H   0  0  0  0  0  0  0  0  0  0  0  0
   -2.3277   -0.1861    0.0000 H   0  0  0  0  0  0  0  0  0  0  0  0
   -2.9821    3.1040    0.0000 H   0  0  0  0  0  0  0  0  0  0  0  0
   -6.2267    3.3523    0.0000 H   0  0  0  0  0  0  0  0  0  0  0  0
   -5.8792    1.6020    0.0000 H   0  0  0  0  0  0  0  0  0  0  0  0
   -1.8936    4.1353    0.0000 H   0  0  0  0  0  0  0  0  0  0  0  0
   -1.6519    6.7915    0.0000 H   0  0  0  0  0  0  0  0  0  0  0  0
   -5.1849    9.5786    0.0000 H   0  0  0  0  0  0  0  0  0  0  0  0
   -6.7940    7.5389    0.0000 H   0  0  0  0  0  0  0  0  0  0  0  0
   -7.2255    4.5701    0.0000 H   0  0  0  0  0  0  0  0  0  0  0  0
   -6.7181    2.6753    0.0000 H   0  0  0  0  0  0  0  0  0  0  0  0
   -6.1781   -0.6728    0.0000 H   0  0  0  0  0  0  0  0  0  0  0  0
   -8.0994   -2.5644    0.0000 H   0  0  0  0  0  0  0  0  0  0  0  0
   -6.6418   -1.5350    0.0000 H   0  0  0  0  0  0  0  0  0  0  0  0
  -10.0721    0.3018    0.0000 H   0  0  0  0  0  0  0  0  0  0  0  0
  -11.7198   -2.8380    0.0000 H   0  0  0  0  0  0  0  0  0  0  0  0
  -10.4917   -3.9156    0.0000 H   0  0  0  0  0  0  0  0  0  0  0  0
   -8.9195   -3.0716    0.0000 H   0  0  0  0  0  0  0  0  0  0  0  0
  -11.6412    0.7114    0.0000 H   0  0  0  0  0  0  0  0  0  0  0  0
  -12.4337   -1.0466    0.0000 H   0  0  0  0  0  0  0  0  0  0  0  0
  -11.3850   -2.0869    0.0000 H   0  0  0  0  0  0  0  0  0  0  0  0
   -9.9591   -1.7708    0.0000 H   0  0  0  0  0  0  0  0  0  0  0  0
  -12.5017    1.1273    0.0000 H   0  0  0  0  0  0  0  0  0  0  0  0
  -10.6136    1.5194    0.0000 H   0  0  0  0  0  0  0  0  0  0  0  0
  -14.1728    1.1388    0.0000 H   0  0  0  0  0  0  0  0  0  0  0  0
  -15.6977   -2.6494    0.0000 H   0  0  0  0  0  0  0  0  0  0  0  0
  -13.8096   -2.2574    0.0000 H   0  0  0  0  0  0  0  0  0  0  0  0
  -17.2261   -3.3252    0.0000 H   0  0  0  0  0  0  0  0  0  0  0  0
  -18.0893   -0.1617    0.0000 H   0  0  0  0  0  0  0  0  0  0  0  0
  -21.5575    0.0129    0.0000 H   0  0  0  0  0  0  0  0  0  0  0  0
  -21.1421   -1.5672    0.0000 H   0  0  0  0  0  0  0  0  0  0  0  0
  -18.4463    0.7340    0.0000 H   0  0  0  0  0  0  0  0  0  0  0  0
  -21.0618    3.4558    0.0000 H   0  0  0  0  0  0  0  0  0  0  0  0
  -22.5194    2.4264    0.0000 H   0  0  0  0  0  0  0  0  0  0  0  0
  -21.9612    0.7315    0.0000 H   0  0  0  0  0  0  0  0  0  0  0  0
  -19.8344    3.7107    0.0000 H   0  0  0  0  0  0  0  0  0  0  0  0
  -18.0875    3.3466    0.0000 H   0  0  0  0  0  0  0  0  0  0  0  0
  -18.0293    1.4192    0.0000 H   0  0  0  0  0  0  0  0  0  0  0  0
  -21.9810   -0.4940    0.0000 H   0  0  0  0  0  0  0  0  0  0  0  0
  -21.4410   -3.8420    0.0000 H   0  0  0  0  0  0  0  0  0  0  0  0
  -23.3623   -5.7337    0.0000 H   0  0  0  0  0  0  0  0  0  0  0  0
  -21.9047   -4.7043    0.0000 H   0  0  0  0  0  0  0  0  0  0  0  0
  -25.3350   -2.8675    0.0000 H   0  0  0  0  0  0  0  0  0  0  0  0
  -26.9827   -6.0072    0.0000 H   0  0  0  0  0  0  0  0  0  0  0  0
  -25.7546   -7.0849    0.0000 H   0  0  0  0  0  0  0  0  0  0  0  0
  -24.1824   -6.2408    0.0000 H   0  0  0  0  0  0  0  0  0  0  0  0
  -26.9041   -2.4579    0.0000 H   0  0  0  0  0  0  0  0  0  0  0  0
  -27.6966   -4.2159    0.0000 H   0  0  0  0  0  0  0  0  0  0  0  0
  -26.6479   -5.2562    0.0000 H   0  0  0  0  0  0  0  0  0  0  0  0
  -25.2220   -4.9400    0.0000 H   0  0  0  0  0  0  0  0  0  0  0  0
  -27.7645   -2.0419    0.0000 H   0  0  0  0  0  0  0  0  0  0  0  0
  -25.8765   -1.6499    0.0000 H   0  0  0  0  0  0  0  0  0  0  0  0
  1  2  1  0
  2  3  1  0
  3  4  1  0
  4  5  2  0
  4  6  1  0
  6  7  1  0
  7  8  1  0
  7  9  1  0
  9 10  2  0
  9 11  1  0
 11 12  1  0
 12 13  1  0
 13 14  1  0
 12 15  1  0
 15 16  2  0
 15 17  1  0
 17 18  1  0
 18 19  1  0
 19 20  1  0
 19 21  1  0
 18 22  1  0
 22 23  2  0
 22 24  1  0
 24 25  1  0
 25 26  1  0
 26 27  1  0
 27 28  1  0
 27 29  1  0
 25 30  1  0
 30 31  2  0
 30 32  1  0
 32 33  1  0
 33 34  1  0
 34 35  1  0
 35 36  2  0
 36 37  1  0
 37 38  2  0
 38 39  1  0
 39 40  2  0
 33 41  1  0
 41 42  2  0
 41 43  1  0
 43 44  1  0
 44 45  1  0
 45 46  1  0
 46 47  1  0
 47 48  2  0
 47 49  1  0
 44 50  1  0
 50 51  2  0
 50 52  1  0
 52 53  1  0
 53 54  1  0
 54 55  1  0
 54 56  1  0
 53 57  1  0
 57 58  2  0
 57 59  1  0
 59 60  1  0
 60 61  1  0
 61 62  1  0
 62 63  2  0
 63 64  1  0
 64 65  2  0
 65 66  1  0
 66 67  2  0
 60 68  1  0
 68 69  2  0
 68 70  1  0
 70 71  1  0
 71 72  1  0
 72 73  1  0
 73 74  2  0
 74 75  1  0
 75 76  2  0
 76 77  1  0
 76 78  1  0
 78 79  2  0
 71 80  1  0
 80 81  2  0
 80 82  1  0
 82 83  1  0
 83 84  1  0
 84 85  1  0
 85 86  1  0
 85 87  1  0
 83 88  1  0
 88 89  2  0
 88 90  1  0
 90 91  1  0
 91 92  1  0
 92 93  2  0
 92 94  1  0
 94 95  1  0
 95 96  1  0
 96 97  2  0
 96 98  1  0
 98 99  1  0
 99100  1  0
100101  1  0
101102  1  0
101103  1  0
 99104  1  0
104105  2  0
104106  1  0
106107  1  0
107108  1  0
108109  1  0
109110  1  0
109111  1  0
107112  1  0
112113  2  0
112114  1  0
114115  1  0
115116  1  0
116117  2  0
116118  1  0
 40 35  1  0
 67 62  1  0
 79 73  1  0
  1119  1  0
  1120  1  0
  2121  1  0
  2122  1  0
  3123  1  0
  3124  1  0
  6125  1  0
  7126  1  6
  8127  1  0
  8128  1  0
  8129  1  0
 11130  1  0
 12131  1  1
 13132  1  0
 13133  1  0
 14134  1  0
 17135  1  0
 18136  1  6
 19137  1  1
 20138  1  0
 21139  1  0
 21140  1  0
 21141  1  0
 24142  1  0
 25143  1  1
 26144  1  0
 26145  1  0
 27146  1  0
 28147  1  0
 28148  1  0
 28149  1  0
 29150  1  0
 29151  1  0
 29152  1  0
 32153  1  0
 33154  1  6
 34155  1  0
 34156  1  0
 36157  1  0
 37158  1  0
 38159  1  0
 39160  1  0
 40161  1  0
 43162  1  0
 44163  1  1
 45164  1  0
 45165  1  0
 46166  1  0
 46167  1  0
 52168  1  0
 53169  1  6
 54170  1  6
 55171  1  0
 56172  1  0
 56173  1  0
 56174  1  0
 59175  1  0
 60176  1  1
 61177  1  0
 61178  1  0
 63179  1  0
 64180  1  0
 65181  1  0
 66182  1  0
 67183  1  0
 70184  1  0
 71185  1  6
 72186  1  0
 72187  1  0
 74188  1  0
 75189  1  0
 77190  1  0
 78191  1  0
 79192  1  0
 82193  1  0
 83194  1  1
 84195  1  0
 84196  1  0
 85197  1  0
 86198  1  0
 86199  1  0
 86200  1  0
 87201  1  0
 87202  1  0
 87203  1  0
 90204  1  0
 91205  1  0
 91206  1  0
 94207  1  0
 95208  1  0
 95209  1  0
 98210  1  0
 99211  1  6
100212  1  0
100213  1  0
101214  1  0
102215  1  0
102216  1  0
102217  1  0
103218  1  0
103219  1  0
103220  1  0
106221  1  0
107222  1  1
108223  1  0
108224  1  0
109225  1  0
110226  1  0
110227  1  0
110228  1  0
111229  1  0
111230  1  0
111231  1  0
114232  1  0
115233  1  0
115234  1  0
M  CHG  2  49  -1 118  -1
M  END
