
     RDKit          2D

345352  0  0  0  0  0  0  0  0999 V2000
  -28.7271   -0.1081    0.0000 C   0  0  0  0  0  0  0  0  0  0  0  0
  -29.9733   -0.9429    0.0000 N   0  0  0  0  0  0  0  0  0  0  0  0
  -31.3194   -0.2811    0.0000 C   0  0  0  0  0  0  0  0  0  0  0  0
  -31.4192    1.2156    0.0000 C   0  0  0  0  0  0  0  0  0  0  0  0
  -32.7653    1.8775    0.0000 C   0  0  0  0  0  0  0  0  0  0  0  0
  -34.0115    1.0427    0.0000 C   0  0  0  0  0  0  0  0  0  0  0  0
  -33.9117   -0.4540    0.0000 C   0  0  0  0  0  0  0  0  0  0  0  0
  -32.5656   -1.1159    0.0000 C   0  0  0  0  0  0  0  0  0  0  0  0
  -35.3043   -1.0114    0.0000 C   0  0  0  0  0  0  0  0  0  0  0  0
  -36.2648    0.1407    0.0000 O   0  0  0  0  0  0  0  0  0  0  0  0
  -35.4658    1.4102    0.0000 C   0  0  0  0  0  0  0  0  0  0  0  0
  -36.0233    2.8028    0.0000 O   0  0  0  0  0  0  0  0  0  0  0  0
  -36.7475   -1.4203    0.0000 C   0  0  0  0  0  0  0  0  0  0  0  0
  -37.1150   -2.8745    0.0000 C   0  0  0  0  0  0  0  0  0  0  0  0
  -38.5582   -3.2834    0.0000 C   0  0  0  0  0  0  0  0  0  0  0  0
  -39.6339   -2.2379    0.0000 C   0  0  0  0  0  0  0  0  0  0  0  0
  -39.2664   -0.7836    0.0000 C   0  0  0  0  0  0  0  0  0  0  0  0
  -37.8231   -0.3748    0.0000 C   0  0  0  0  0  0  0  0  0  0  0  0
  -41.0771   -2.6467    0.0000 O   0  0  0  0  0  0  0  0  0  0  0  0
  -36.0394   -3.9200    0.0000 O   0  0  0  0  0  0  0  0  0  0  0  0
  -34.5962   -3.5111    0.0000 C   0  0  0  0  0  0  0  0  0  0  0  0
  -34.2286   -2.0569    0.0000 C   0  0  0  0  0  0  0  0  0  0  0  0
  -32.9569   -2.3267    0.0000 C   0  0  0  0  0  0  0  0  0  0  0  0
  -32.3832   -2.8843    0.0000 C   0  0  0  0  0  0  0  0  0  0  0  0
  -32.5793   -3.6599    0.0000 C   0  0  0  0  0  0  0  0  0  0  0  0
  -33.3490   -3.8779    0.0000 C   0  0  0  0  0  0  0  0  0  0  0  0
  -31.0016   -5.1932    0.0000 O   0  0  0  0  0  0  0  0  0  0  0  0
  -28.8269    1.3885    0.0000 S   0  0  0  0  0  0  0  0  0  0  0  0
  -27.3810   -0.7700    0.0000 N   0  0  0  0  0  0  0  0  0  0  0  0
  -26.1348    0.0648    0.0000 C   0  0  0  0  0  0  0  0  0  0  0  0
  -24.7887   -0.5971    0.0000 C   0  0  0  0  0  0  0  0  0  0  0  0
  -23.5424    0.2377    0.0000 C   0  0  0  0  0  0  0  0  0  0  0  0
  -23.6423    1.7344    0.0000 O   0  0  0  0  0  0  0  0  0  0  0  0
  -22.1964   -0.4242    0.0000 N   0  0  0  0  0  0  0  0  0  0  0  0
  -20.9501    0.4106    0.0000 C   0  0  0  0  0  0  0  0  0  0  0  0
  -20.0646    1.6213    0.0000 C   0  0  0  0  0  0  0  0  0  0  0  0
  -18.5733    1.4597    0.0000 C   0  0  0  0  0  0  0  0  0  0  0  0
  -17.6877    2.6704    0.0000 C   0  0  0  0  0  0  0  0  0  0  0  0
  -16.4728    2.6878    0.0000 O   0  0  0  0  0  0  0  0  0  0  0  0
  -18.2934    4.0427    0.0000 O   0  0  0  0  0  0  0  0  0  0  0  0
  -19.6041   -0.2513    0.0000 C   0  0  0  0  0  0  0  0  0  0  0  0
  -19.5042   -1.7479    0.0000 O   0  0  0  0  0  0  0  0  0  0  0  0
  -18.3578    0.5835    0.0000 N   0  0  0  0  0  0  0  0  0  0  0  0
  -17.0117   -0.0784    0.0000 C   0  0  0  0  0  0  0  0  0  0  0  0
  -15.9732   -1.1607    0.0000 C   0  0  0  0  0  0  0  0  0  0  0  0
  -16.3913   -2.6013    0.0000 C   0  0  0  0  0  0  0  0  0  0  0  0
  -15.3528   -3.6836    0.0000 C   0  0  0  0  0  0  0  0  0  0  0  0
  -15.7709   -5.1242    0.0000 N   0  0  0  0  0  0  0  0  0  0  0  0
  -14.7323   -6.2065    0.0000 C   0  0  0  0  0  0  0  0  0  0  0  0
  -15.1504   -7.6471    0.0000 N   0  0  0  0  0  0  0  0  0  0  0  0
  -13.2757   -5.8483    0.0000 N   0  0  0  0  0  0  0  0  0  0  0  0
  -15.7655    0.7564    0.0000 C   0  0  0  0  0  0  0  0  0  0  0  0
  -15.6980    1.9696    0.0000 O   0  0  0  0  0  0  0  0  0  0  0  0
  -14.4194    0.0946    0.0000 N   0  0  0  0  0  0  0  0  0  0  0  0
  -13.1732    0.9294    0.0000 C   0  0  0  0  0  0  0  0  0  0  0  0
  -12.2876    2.1400    0.0000 C   0  0  0  0  0  0  0  0  0  0  0  0
  -10.7963    1.9785    0.0000 C   0  0  0  0  0  0  0  0  0  0  0  0
   -9.9108    3.1892    0.0000 C   0  0  0  0  0  0  0  0  0  0  0  0
   -9.4503    1.3166    0.0000 C   0  0  0  0  0  0  0  0  0  0  0  0
  -11.8271    0.2675    0.0000 C   0  0  0  0  0  0  0  0  0  0  0  0
  -11.7273   -1.2292    0.0000 O   0  0  0  0  0  0  0  0  0  0  0  0
  -10.5809    1.1023    0.0000 N   0  0  0  0  0  0  0  0  0  0  0  0
   -9.2348    0.4404    0.0000 C   0  0  0  0  0  0  0  0  0  0  0  0
   -8.1963   -0.6419    0.0000 C   0  0  0  0  0  0  0  0  0  0  0  0
   -8.6143   -2.0825    0.0000 C   0  0  0  0  0  0  0  0  0  0  0  0
   -7.5758   -3.1649    0.0000 C   0  0  0  0  0  0  0  0  0  0  0  0
   -7.9939   -4.6054    0.0000 N   0  0  0  0  0  0  0  0  0  0  0  0
   -6.9554   -5.6878    0.0000 C   0  0  0  0  0  0  0  0  0  0  0  0
   -7.3735   -7.1283    0.0000 N   0  0  0  0  0  0  0  0  0  0  0  0
   -5.4988   -5.3295    0.0000 N   0  0  0  0  0  0  0  0  0  0  0  0
   -7.9886    1.2752    0.0000 C   0  0  0  0  0  0  0  0  0  0  0  0
   -7.9052    2.7729    0.0000 O   0  0  0  0  0  0  0  0  0  0  0  0
   -6.6425    0.6133    0.0000 N   0  0  0  0  0  0  0  0  0  0  0  0
   -5.3962    1.4481    0.0000 C   0  0  0  0  0  0  0  0  0  0  0  0
   -4.5107    2.6588    0.0000 C   0  0  0  0  0  0  0  0  0  0  0  0
   -3.0194    2.4972    0.0000 C   0  0  0  0  0  0  0  0  0  0  0  0
   -2.1338    3.7079    0.0000 C   0  0  0  0  0  0  0  0  0  0  0  0
   -0.6426    3.5463    0.0000 N   0  0  0  0  0  0  0  0  0  0  0  0
    0.2430    4.7570    0.0000 C   0  0  0  0  0  0  0  0  0  0  0  0
    1.7343    4.5955    0.0000 N   0  0  0  0  0  0  0  0  0  0  0  0
   -0.3627    6.1293    0.0000 N   0  0  0  0  0  0  0  0  0  0  0  0
   -4.0502    0.7862    0.0000 C   0  0  0  0  0  0  0  0  0  0  0  0
   -3.9503   -0.7104    0.0000 O   0  0  0  0  0  0  0  0  0  0  0  0
   -2.8039    1.6210    0.0000 N   0  0  0  0  0  0  0  0  0  0  0  0
   -1.4578    0.9592    0.0000 C   0  0  0  0  0  0  0  0  0  0  0  0
   -0.4193   -0.1232    0.0000 C   0  0  0  0  0  0  0  0  0  0  0  0
   -0.8374   -1.5638    0.0000 C   0  0  0  0  0  0  0  0  0  0  0  0
    0.2011   -2.6461    0.0000 C   0  0  0  0  0  0  0  0  0  0  0  0
   -0.2170   -4.0867    0.0000 N   0  0  0  0  0  0  0  0  0  0  0  0
    0.8216   -5.1690    0.0000 C   0  0  0  0  0  0  0  0  0  0  0  0
    0.4035   -6.6096    0.0000 N   0  0  0  0  0  0  0  0  0  0  0  0
    2.2782   -4.8108    0.0000 N   0  0  0  0  0  0  0  0  0  0  0  0
   -0.2116    1.7939    0.0000 C   0  0  0  0  0  0  0  0  0  0  0  0
   -0.0182    2.8702    0.0000 O   0  0  0  0  0  0  0  0  0  0  0  0
    1.1345    1.1321    0.0000 N   0  0  0  0  0  0  0  0  0  0  0  0
    2.3807    1.9669    0.0000 C   0  0  0  0  0  0  0  0  0  0  0  0
    3.2663    3.1776    0.0000 C   0  0  0  0  0  0  0  0  0  0  0  0
    4.7661    3.1990    0.0000 C   0  0  0  0  0  0  0  0  0  0  0  0
    3.6844    4.6181    0.0000 C   0  0  0  0  0  0  0  0  0  0  0  0
    5.0864    5.1512    0.0000 C   0  0  0  0  0  0  0  0  0  0  0  0
    3.7268    1.3050    0.0000 C   0  0  0  0  0  0  0  0  0  0  0  0
    3.6434   -0.1927    0.0000 O   0  0  0  0  0  0  0  0  0  0  0  0
    4.9730    2.1398    0.0000 N   0  0  0  0  0  0  0  0  0  0  0  0
    6.3191    1.4779    0.0000 C   0  0  0  0  0  0  0  0  0  0  0  0
    6.7135    0.0307    0.0000 C   0  0  0  0  0  0  0  0  0  0  0  0
    7.5170   -1.2360    0.0000 C   0  0  0  0  0  0  0  0  0  0  0  0
    8.6581   -2.2095    0.0000 C   0  0  0  0  0  0  0  0  0  0  0  0
   10.0355   -2.8035    0.0000 C   0  0  0  0  0  0  0  0  0  0  0  0
    5.0544    0.6713    0.0000 C   0  0  0  0  0  0  0  0  0  0  0  0
    6.3688    2.9771    0.0000 C   0  0  0  0  0  0  0  0  0  0  0  0
    5.6084    3.2164    0.0000 O   0  0  0  0  0  0  0  0  0  0  0  0
    6.8582    4.3950    0.0000 N   0  0  0  0  0  0  0  0  0  0  0  0
    7.7437    5.6057    0.0000 C   0  0  0  0  0  0  0  0  0  0  0  0
    7.4219    7.0708    0.0000 C   0  0  0  0  0  0  0  0  0  0  0  0
    8.5298    8.0820    0.0000 C   0  0  0  0  0  0  0  0  0  0  0  0
    8.2080    9.5471    0.0000 N   0  0  0  0  0  0  0  0  0  0  0  0
   10.0272    8.1707    0.0000 O   0  0  0  0  0  0  0  0  0  0  0  0
    8.9468    6.5016    0.0000 C   0  0  0  0  0  0  0  0  0  0  0  0
    8.5814    7.9564    0.0000 O   0  0  0  0  0  0  0  0  0  0  0  0
   10.3605    7.0030    0.0000 N   0  0  0  0  0  0  0  0  0  0  0  0
   11.8592    7.0655    0.0000 C   0  0  0  0  0  0  0  0  0  0  0  0
   12.8040    8.2306    0.0000 C   0  0  0  0  0  0  0  0  0  0  0  0
   12.2675    9.6313    0.0000 S   0  0  0  0  0  0  0  0  0  0  0  0
   13.3097    6.6835    0.0000 C   0  0  0  0  0  0  0  0  0  0  0  0
   13.9037    8.0609    0.0000 O   0  0  0  0  0  0  0  0  0  0  0  0
   14.5832    5.8909    0.0000 N   0  0  0  0  0  0  0  0  0  0  0  0
   15.5665    4.7581    0.0000 C   0  0  0  0  0  0  0  0  0  0  0  0
   17.0664    4.7458    0.0000 C   0  0  0  0  0  0  0  0  0  0  0  0
   17.8271    6.0387    0.0000 C   0  0  0  0  0  0  0  0  0  0  0  0
   19.3270    6.0264    0.0000 C   0  0  0  0  0  0  0  0  0  0  0  0
   20.0876    7.3192    0.0000 N   0  0  0  0  0  0  0  0  0  0  0  0
   21.5876    7.3069    0.0000 C   0  0  0  0  0  0  0  0  0  0  0  0
   22.3482    8.5998    0.0000 N   0  0  0  0  0  0  0  0  0  0  0  0
   22.3269    6.0018    0.0000 N   0  0  0  0  0  0  0  0  0  0  0  0
   16.1722    3.3858    0.0000 C   0  0  0  0  0  0  0  0  0  0  0  0
   17.6194    3.7803    0.0000 O   0  0  0  0  0  0  0  0  0  0  0  0
   16.3465    1.8960    0.0000 N   0  0  0  0  0  0  0  0  0  0  0  0
   16.0739    0.4210    0.0000 C   0  0  0  0  0  0  0  0  0  0  0  0
   15.3787   -0.9082    0.0000 C   0  0  0  0  0  0  0  0  0  0  0  0
   14.3226   -1.9734    0.0000 C   0  0  0  0  0  0  0  0  0  0  0  0
   12.9994   -2.6799    0.0000 C   0  0  0  0  0  0  0  0  0  0  0  0
   11.5268   -2.9651    0.0000 C   0  0  0  0  0  0  0  0  0  0  0  0
   17.5305    0.7792    0.0000 C   0  0  0  0  0  0  0  0  0  0  0  0
   16.9995   -0.7594    0.0000 C   0  0  0  0  0  0  0  0  0  0  0  0
   16.7935   -2.2452    0.0000 O   0  0  0  0  0  0  0  0  0  0  0  0
   18.4846   -0.5480    0.0000 N   0  0  0  0  0  0  0  0  0  0  0  0
   19.4102   -1.7284    0.0000 C   0  0  0  0  0  0  0  0  0  0  0  0
   19.8762   -3.1541    0.0000 C   0  0  0  0  0  0  0  0  0  0  0  0
   18.8745   -4.2706    0.0000 C   0  0  0  0  0  0  0  0  0  0  0  0
   19.1890   -5.7373    0.0000 C   0  0  0  0  0  0  0  0  0  0  0  0
   17.8913   -6.4896    0.0000 N   0  0  0  0  0  0  0  0  0  0  0  0
   16.7748   -5.4879    0.0000 C   0  0  0  0  0  0  0  0  0  0  0  0
   17.3824   -4.1165    0.0000 N   0  0  0  0  0  0  0  0  0  0  0  0
   20.8952   -1.5170    0.0000 C   0  0  0  0  0  0  0  0  0  0  0  0
   21.4546   -0.1252    0.0000 O   0  0  0  0  0  0  0  0  0  0  0  0
   21.8208   -2.6973    0.0000 N   0  0  0  0  0  0  0  0  0  0  0  0
   23.3058   -2.4859    0.0000 C   0  0  0  0  0  0  0  0  0  0  0  0
   24.6290   -1.7794    0.0000 C   0  0  0  0  0  0  0  0  0  0  0  0
   25.9025   -2.5720    0.0000 C   0  0  0  0  0  0  0  0  0  0  0  0
   27.2922   -2.0076    0.0000 C   0  0  0  0  0  0  0  0  0  0  0  0
   28.2585   -3.1550    0.0000 N   0  0  0  0  0  0  0  0  0  0  0  0
   27.4658   -4.4284    0.0000 C   0  0  0  0  0  0  0  0  0  0  0  0
   26.0097   -4.0681    0.0000 N   0  0  0  0  0  0  0  0  0  0  0  0
   24.2314   -3.6663    0.0000 C   0  0  0  0  0  0  0  0  0  0  0  0
   23.6720   -5.0581    0.0000 O   0  0  0  0  0  0  0  0  0  0  0  0
   25.7164   -3.4549    0.0000 N   0  0  0  0  0  0  0  0  0  0  0  0
   26.6420   -4.6353    0.0000 C   0  0  0  0  0  0  0  0  0  0  0  0
   27.1081   -6.0610    0.0000 C   0  0  0  0  0  0  0  0  0  0  0  0
   26.1064   -7.1775    0.0000 O   0  0  0  0  0  0  0  0  0  0  0  0
   28.1270   -4.4239    0.0000 C   0  0  0  0  0  0  0  0  0  0  0  0
   29.0066   -3.2088    0.0000 O   0  0  0  0  0  0  0  0  0  0  0  0
   29.0526   -5.6042    0.0000 N   0  0  0  0  0  0  0  0  0  0  0  0
   30.5377   -5.3928    0.0000 C   0  0  0  0  0  0  0  0  0  0  0  0
   31.8608   -4.6863    0.0000 C   0  0  0  0  0  0  0  0  0  0  0  0
   32.8625   -3.5698    0.0000 O   0  0  0  0  0  0  0  0  0  0  0  0
   33.1343   -5.4789    0.0000 C   0  0  0  0  0  0  0  0  0  0  0  0
   31.4633   -6.5732    0.0000 C   0  0  0  0  0  0  0  0  0  0  0  0
   32.9630   -6.5444    0.0000 O   0  0  0  0  0  0  0  0  0  0  0  0
   30.9038   -7.9650    0.0000 O   0  0  0  0  0  0  0  0  0  0  0  0
  -29.6918   -2.4163    0.0000 H   0  0  0  0  0  0  0  0  0  0  0  0
  -30.1730    2.0504    0.0000 H   0  0  0  0  0  0  0  0  0  0  0  0
  -32.8651    3.3742    0.0000 H   0  0  0  0  0  0  0  0  0  0  0  0
  -32.1066   -2.5439    0.0000 H   0  0  0  0  0  0  0  0  0  0  0  0
  -38.9258   -4.7376    0.0000 H   0  0  0  0  0  0  0  0  0  0  0  0
  -40.3420    0.2618    0.0000 H   0  0  0  0  0  0  0  0  0  0  0  0
  -37.4556    1.0795    0.0000 H   0  0  0  0  0  0  0  0  0  0  0  0
  -42.1528   -1.6013    0.0000 H   0  0  0  0  0  0  0  0  0  0  0  0
  -32.4179   -0.1938    0.0000 H   0  0  0  0  0  0  0  0  0  0  0  0
  -30.2275   -2.4636    0.0000 H   0  0  0  0  0  0  0  0  0  0  0  0
  -33.8881   -6.0109    0.0000 H   0  0  0  0  0  0  0  0  0  0  0  0
  -31.3692   -6.6475    0.0000 H   0  0  0  0  0  0  0  0  0  0  0  0
  -27.2812   -2.2667    0.0000 H   0  0  0  0  0  0  0  0  0  0  0  0
  -25.2492    1.2755    0.0000 H   0  0  0  0  0  0  0  0  0  0  0  0
  -27.1733    1.1471    0.0000 H   0  0  0  0  0  0  0  0  0  0  0  0
  -23.7502   -1.6795    0.0000 H   0  0  0  0  0  0  0  0  0  0  0  0
  -25.6743   -1.8078    0.0000 H   0  0  0  0  0  0  0  0  0  0  0  0
  -22.0965   -1.9209    0.0000 H   0  0  0  0  0  0  0  0  0  0  0  0
  -21.9886    1.4930    0.0000 H   0  0  0  0  0  0  0  0  0  0  0  0
  -19.6465    3.0619    0.0000 H   0  0  0  0  0  0  0  0  0  0  0  0
  -21.4106    2.2832    0.0000 H   0  0  0  0  0  0  0  0  0  0  0  0
  -17.2272    0.7978    0.0000 H   0  0  0  0  0  0  0  0  0  0  0  0
  -18.2660   -0.0085    0.0000 H   0  0  0  0  0  0  0  0  0  0  0  0
  -17.4079    5.2534    0.0000 H   0  0  0  0  0  0  0  0  0  0  0  0
  -18.0925    2.0599    0.0000 H   0  0  0  0  0  0  0  0  0  0  0  0
  -18.0383   -1.1721    0.0000 H   0  0  0  0  0  0  0  0  0  0  0  0
  -14.6271   -1.8226    0.0000 H   0  0  0  0  0  0  0  0  0  0  0  0
  -14.8210   -0.2003    0.0000 H   0  0  0  0  0  0  0  0  0  0  0  0
  -17.2769   -3.8120    0.0000 H   0  0  0  0  0  0  0  0  0  0  0  0
  -17.8080   -2.1084    0.0000 H   0  0  0  0  0  0  0  0  0  0  0  0
  -14.0067   -4.3455    0.0000 H   0  0  0  0  0  0  0  0  0  0  0  0
  -14.3262   -2.5899    0.0000 H   0  0  0  0  0  0  0  0  0  0  0  0
  -17.2275   -5.4824    0.0000 H   0  0  0  0  0  0  0  0  0  0  0  0
  -14.1119   -8.7294    0.0000 H   0  0  0  0  0  0  0  0  0  0  0  0
  -12.2372   -6.9306    0.0000 H   0  0  0  0  0  0  0  0  0  0  0  0
  -12.8577   -4.4077    0.0000 H   0  0  0  0  0  0  0  0  0  0  0  0
  -14.1379   -1.3788    0.0000 H   0  0  0  0  0  0  0  0  0  0  0  0
  -14.2117    2.0117    0.0000 H   0  0  0  0  0  0  0  0  0  0  0  0
  -12.0483    3.6208    0.0000 H   0  0  0  0  0  0  0  0  0  0  0  0
  -13.6337    2.8019    0.0000 H   0  0  0  0  0  0  0  0  0  0  0  0
  -10.4890    0.5103    0.0000 H   0  0  0  0  0  0  0  0  0  0  0  0
   -8.4247    3.3932    0.0000 H   0  0  0  0  0  0  0  0  0  0  0  0
   -9.4927    4.6297    0.0000 H   0  0  0  0  0  0  0  0  0  0  0  0
  -11.1661    4.0102    0.0000 H   0  0  0  0  0  0  0  0  0  0  0  0
   -8.9912   -0.1114    0.0000 H   0  0  0  0  0  0  0  0  0  0  0  0
   -8.0002    1.7003    0.0000 H   0  0  0  0  0  0  0  0  0  0  0  0
   -8.8597    2.6954    0.0000 H   0  0  0  0  0  0  0  0  0  0  0  0
  -10.3156    2.5786    0.0000 H   0  0  0  0  0  0  0  0  0  0  0  0
  -10.2613   -0.6533    0.0000 H   0  0  0  0  0  0  0  0  0  0  0  0
   -6.8502   -1.3038    0.0000 H   0  0  0  0  0  0  0  0  0  0  0  0
   -6.9356    0.1709    0.0000 H   0  0  0  0  0  0  0  0  0  0  0  0
   -9.4999   -3.2932    0.0000 H   0  0  0  0  0  0  0  0  0  0  0  0
  -10.0311   -1.5896    0.0000 H   0  0  0  0  0  0  0  0  0  0  0  0
   -6.2298   -3.8267    0.0000 H   0  0  0  0  0  0  0  0  0  0  0  0
   -6.5493   -2.0711    0.0000 H   0  0  0  0  0  0  0  0  0  0  0  0
   -9.4505   -4.9636    0.0000 H   0  0  0  0  0  0  0  0  0  0  0  0
   -6.3349   -8.2107    0.0000 H   0  0  0  0  0  0  0  0  0  0  0  0
   -4.4603   -6.4119    0.0000 H   0  0  0  0  0  0  0  0  0  0  0  0
   -5.0807   -3.8890    0.0000 H   0  0  0  0  0  0  0  0  0  0  0  0
   -6.3609   -0.8600    0.0000 H   0  0  0  0  0  0  0  0  0  0  0  0
   -6.4348    2.5305    0.0000 H   0  0  0  0  0  0  0  0  0  0  0  0
   -4.2713    4.1396    0.0000 H   0  0  0  0  0  0  0  0  0  0  0  0
   -5.8567    3.3207    0.0000 H   0  0  0  0  0  0  0  0  0  0  0  0
   -1.6733    1.8353    0.0000 H   0  0  0  0  0  0  0  0  0  0  0  0
   -2.7121    1.0290    0.0000 H   0  0  0  0  0  0  0  0  0  0  0  0
   -1.7158    5.1485    0.0000 H   0  0  0  0  0  0  0  0  0  0  0  0
   -3.3892    4.5289    0.0000 H   0  0  0  0  0  0  0  0  0  0  0  0
    0.2772    2.3614    0.0000 H   0  0  0  0  0  0  0  0  0  0  0  0
    2.6198    5.8061    0.0000 H   0  0  0  0  0  0  0  0  0  0  0  0
    0.5229    7.3400    0.0000 H   0  0  0  0  0  0  0  0  0  0  0  0
   -1.8540    6.2909    0.0000 H   0  0  0  0  0  0  0  0  0  0  0  0
   -2.5386    3.0974    0.0000 H   0  0  0  0  0  0  0  0  0  0  0  0
   -2.4844   -0.1346    0.0000 H   0  0  0  0  0  0  0  0  0  0  0  0
    0.9268   -0.7851    0.0000 H   0  0  0  0  0  0  0  0  0  0  0  0
    0.7329    0.8372    0.0000 H   0  0  0  0  0  0  0  0  0  0  0  0
   -1.7230   -2.7744    0.0000 H   0  0  0  0  0  0  0  0  0  0  0  0
   -2.2541   -1.0709    0.0000 H   0  0  0  0  0  0  0  0  0  0  0  0
    1.5472   -3.3080    0.0000 H   0  0  0  0  0  0  0  0  0  0  0  0
    1.2277   -1.5524    0.0000 H   0  0  0  0  0  0  0  0  0  0  0  0
   -1.6736   -4.4449    0.0000 H   0  0  0  0  0  0  0  0  0  0  0  0
    1.4420   -7.6919    0.0000 H   0  0  0  0  0  0  0  0  0  0  0  0
    3.3167   -5.8931    0.0000 H   0  0  0  0  0  0  0  0  0  0  0  0
    2.6962   -3.3702    0.0000 H   0  0  0  0  0  0  0  0  0  0  0  0
    1.4160   -0.3413    0.0000 H   0  0  0  0  0  0  0  0  0  0  0  0
    1.3422    3.0492    0.0000 H   0  0  0  0  0  0  0  0  0  0  0  0
    1.8496    3.6704    0.0000 H   0  0  0  0  0  0  0  0  0  0  0  0
    5.6655    4.2270    0.0000 H   0  0  0  0  0  0  0  0  0  0  0  0
    6.2683    2.7028    0.0000 H   0  0  0  0  0  0  0  0  0  0  0  0
    4.9498    1.5304    0.0000 H   0  0  0  0  0  0  0  0  0  0  0  0
    3.5845    6.1148    0.0000 H   0  0  0  0  0  0  0  0  0  0  0  0
    2.2239    4.9603    0.0000 H   0  0  0  0  0  0  0  0  0  0  0  0
    5.2387    6.4936    0.0000 H   0  0  0  0  0  0  0  0  0  0  0  0
    6.6270    5.1804    0.0000 H   0  0  0  0  0  0  0  0  0  0  0  0
    5.2408    3.4797    0.0000 H   0  0  0  0  0  0  0  0  0  0  0  0
    4.6915    3.6131    0.0000 H   0  0  0  0  0  0  0  0  0  0  0  0
    5.2145    0.0841    0.0000 H   0  0  0  0  0  0  0  0  0  0  0  0
    5.8894   -1.2226    0.0000 H   0  0  0  0  0  0  0  0  0  0  0  0
    6.1272   -1.8004    0.0000 H   0  0  0  0  0  0  0  0  0  0  0  0
    6.9264   -2.6148    0.0000 H   0  0  0  0  0  0  0  0  0  0  0  0
    7.3895   -3.0099    0.0000 H   0  0  0  0  0  0  0  0  0  0  0  0
    8.6832   -3.7093    0.0000 H   0  0  0  0  0  0  0  0  0  0  0  0
    9.6535   -4.2540    0.0000 H   0  0  0  0  0  0  0  0  0  0  0  0
    5.0061   -0.9939    0.0000 H   0  0  0  0  0  0  0  0  0  0  0  0
    3.8374   -0.1326    0.0000 H   0  0  0  0  0  0  0  0  0  0  0  0
    4.0501    1.5250    0.0000 H   0  0  0  0  0  0  0  0  0  0  0  0
    5.7367    5.3912    0.0000 H   0  0  0  0  0  0  0  0  0  0  0  0
    6.2759    5.9150    0.0000 H   0  0  0  0  0  0  0  0  0  0  0  0
    6.6185    8.3374    0.0000 H   0  0  0  0  0  0  0  0  0  0  0  0
    5.9380    6.8521    0.0000 H   0  0  0  0  0  0  0  0  0  0  0  0
    9.3159   10.5583    0.0000 H   0  0  0  0  0  0  0  0  0  0  0  0
    6.7784   10.0009    0.0000 H   0  0  0  0  0  0  0  0  0  0  0  0
   10.2570    8.4995    0.0000 H   0  0  0  0  0  0  0  0  0  0  0  0
   11.1858    8.4059    0.0000 H   0  0  0  0  0  0  0  0  0  0  0  0
   14.0903    9.0022    0.0000 H   0  0  0  0  0  0  0  0  0  0  0  0
   14.0322    7.3694    0.0000 H   0  0  0  0  0  0  0  0  0  0  0  0
   13.2123   10.7964    0.0000 H   0  0  0  0  0  0  0  0  0  0  0  0
   15.5568    7.0320    0.0000 H   0  0  0  0  0  0  0  0  0  0  0  0
   16.0239    6.1867    0.0000 H   0  0  0  0  0  0  0  0  0  0  0  0
   18.3973    4.0539    0.0000 H   0  0  0  0  0  0  0  0  0  0  0  0
   17.1589    3.2487    0.0000 H   0  0  0  0  0  0  0  0  0  0  0  0
   18.0996    7.5137    0.0000 H   0  0  0  0  0  0  0  0  0  0  0  0
   16.4962    6.7306    0.0000 H   0  0  0  0  0  0  0  0  0  0  0  0
   20.7323    5.5018    0.0000 H   0  0  0  0  0  0  0  0  0  0  0  0
   19.2363    4.5291    0.0000 H   0  0  0  0  0  0  0  0  0  0  0  0
   19.3483    8.6244    0.0000 H   0  0  0  0  0  0  0  0  0  0  0  0
   23.8481    8.5875    0.0000 H   0  0  0  0  0  0  0  0  0  0  0  0
   23.8269    5.9895    0.0000 H   0  0  0  0  0  0  0  0  0  0  0  0
   21.5663    4.7089    0.0000 H   0  0  0  0  0  0  0  0  0  0  0  0
   17.8457    1.8463    0.0000 H   0  0  0  0  0  0  0  0  0  0  0  0
   15.9153   -2.3089    0.0000 H   0  0  0  0  0  0  0  0  0  0  0  0
   16.8106   -1.3550    0.0000 H   0  0  0  0  0  0  0  0  0  0  0  0
   14.6041   -3.4467    0.0000 H   0  0  0  0  0  0  0  0  0  0  0  0
   15.5592   -2.8224    0.0000 H   0  0  0  0  0  0  0  0  0  0  0  0
   12.6537   -4.1395    0.0000 H   0  0  0  0  0  0  0  0  0  0  0  0
   14.0672   -3.7334    0.0000 H   0  0  0  0  0  0  0  0  0  0  0  0
   11.5893   -4.4638    0.0000 H   0  0  0  0  0  0  0  0  0  0  0  0
   18.8001   -0.0197    0.0000 H   0  0  0  0  0  0  0  0  0  0  0  0
   18.6657    1.7597    0.0000 H   0  0  0  0  0  0  0  0  0  0  0  0
   17.2749    2.2572    0.0000 H   0  0  0  0  0  0  0  0  0  0  0  0
   19.2095    0.7652    0.0000 H   0  0  0  0  0  0  0  0  0  0  0  0
   18.0870   -2.4349    0.0000 H   0  0  0  0  0  0  0  0  0  0  0  0
   20.6510   -4.4385    0.0000 H   0  0  0  0  0  0  0  0  0  0  0  0
   21.3310   -2.7887    0.0000 H   0  0  0  0  0  0  0  0  0  0  0  0
   20.5604   -6.3450    0.0000 H   0  0  0  0  0  0  0  0  0  0  0  0
   17.7371   -7.9817    0.0000 H   0  0  0  0  0  0  0  0  0  0  0  0
   15.3081   -5.8024    0.0000 H   0  0  0  0  0  0  0  0  0  0  0  0
   21.4352   -4.1469    0.0000 H   0  0  0  0  0  0  0  0  0  0  0  0
   22.8397   -1.0602    0.0000 H   0  0  0  0  0  0  0  0  0  0  0  0
   25.6307   -0.6629    0.0000 H   0  0  0  0  0  0  0  0  0  0  0  0
   23.7034   -0.5990    0.0000 H   0  0  0  0  0  0  0  0  0  0  0  0
   27.6525   -0.5515    0.0000 H   0  0  0  0  0  0  0  0  0  0  0  0
   29.7546   -3.0477    0.0000 H   0  0  0  0  0  0  0  0  0  0  0  0
   28.1954   -5.7391    0.0000 H   0  0  0  0  0  0  0  0  0  0  0  0
   26.5960   -2.2399    0.0000 H   0  0  0  0  0  0  0  0  0  0  0  0
   25.3189   -5.3418    0.0000 H   0  0  0  0  0  0  0  0  0  0  0  0
   27.8829   -7.3454    0.0000 H   0  0  0  0  0  0  0  0  0  0  0  0
   28.5966   -5.8757    0.0000 H   0  0  0  0  0  0  0  0  0  0  0  0
   26.5724   -8.6033    0.0000 H   0  0  0  0  0  0  0  0  0  0  0  0
   28.6670   -7.0538    0.0000 H   0  0  0  0  0  0  0  0  0  0  0  0
   30.0716   -3.9671    0.0000 H   0  0  0  0  0  0  0  0  0  0  0  0
   30.9352   -3.5059    0.0000 H   0  0  0  0  0  0  0  0  0  0  0  0
   34.3571   -3.6978    0.0000 H   0  0  0  0  0  0  0  0  0  0  0  0
   34.5337   -4.9389    0.0000 H   0  0  0  0  0  0  0  0  0  0  0  0
   34.0599   -6.6593    0.0000 H   0  0  0  0  0  0  0  0  0  0  0  0
   32.5994   -6.8803    0.0000 H   0  0  0  0  0  0  0  0  0  0  0  0
   31.8294   -9.1454    0.0000 H   0  0  0  0  0  0  0  0  0  0  0  0
  1  2  1  0
  2  3  1  0
  3  4  2  0
  4  5  1  0
  5  6  2  0
  6  7  1  0
  7  8  2  0
  7  9  1  0
  9 10  1  0
 10 11  1  0
 11 12  2  0
  9 13  1  0
 13 14  1  0
 14 15  2  0
 15 16  1  0
 16 17  2  0
 17 18  1  0
 16 19  1  0
 14 20  1  0
 20 21  1  0
 21 22  2  0
 22 23  1  0
 23 24  2  0
 24 25  1  0
 25 26  2  0
 25 27  1  0
  1 28  2  0
  1 29  1  0
 29 30  1  0
 30 31  1  0
 31 32  1  0
 32 33  2  0
 32 34  1  0
 34 35  1  0
 35 36  1  0
 36 37  1  0
 37 38  1  0
 38 39  2  0
 38 40  1  0
 35 41  1  0
 41 42  2  0
 41 43  1  0
 43 44  1  0
 44 45  1  0
 45 46  1  0
 46 47  1  0
 47 48  1  0
 48 49  1  0
 49 50  2  3
 49 51  1  0
 44 52  1  0
 52 53  2  0
 52 54  1  0
 54 55  1  0
 55 56  1  0
 56 57  1  0
 57 58  1  0
 57 59  1  0
 55 60  1  0
 60 61  2  0
 60 62  1  0
 62 63  1  0
 63 64  1  0
 64 65  1  0
 65 66  1  0
 66 67  1  0
 67 68  1  0
 68 69  2  3
 68 70  1  0
 63 71  1  0
 71 72  2  0
 71 73  1  0
 73 74  1  0
 74 75  1  0
 75 76  1  0
 76 77  1  0
 77 78  1  0
 78 79  1  0
 79 80  2  3
 79 81  1  0
 74 82  1  0
 82 83  2  0
 82 84  1  0
 84 85  1  0
 85 86  1  0
 86 87  1  0
 87 88  1  0
 88 89  1  0
 89 90  1  0
 90 91  2  3
 90 92  1  0
 85 93  1  0
 93 94  2  0
 93 95  1  0
 95 96  1  0
 96 97  1  0
 97 98  1  0
 97 99  1  0
 99100  1  0
 96101  1  0
101102  2  0
101103  1  0
104103  1  6
104105  1  0
105106  1  0
106107  1  0
107108  1  0
104109  1  0
104110  1  0
110111  2  0
110112  1  0
112113  1  0
113114  1  0
114115  1  0
115116  1  0
115117  2  0
113118  1  0
118119  2  0
118120  1  0
120121  1  0
121122  1  0
122123  1  0
121124  1  0
124125  2  0
124126  1  0
126127  1  0
127128  1  0
128129  1  0
129130  1  0
130131  1  0
131132  1  0
132133  2  3
132134  1  0
127135  1  0
135136  2  0
135137  1  0
137138  1  0
138139  1  0
139140  1  0
140141  1  0
141142  1  0
138143  1  0
138144  1  6
144145  2  0
144146  1  0
146147  1  0
147148  1  0
148149  1  0
149150  2  0
150151  1  0
151152  1  0
152153  2  0
147154  1  0
154155  2  0
154156  1  0
156157  1  0
157158  1  0
158159  1  0
159160  2  0
160161  1  0
161162  1  0
162163  2  0
157164  1  0
164165  2  0
164166  1  0
166167  1  0
167168  1  0
168169  1  0
167170  1  0
170171  2  0
170172  1  0
172173  1  0
173174  1  0
174175  1  0
174176  1  0
173177  1  0
177178  2  0
177179  1  0
  8  3  1  0
153149  1  0
163159  1  0
 11  6  1  0
108142  2  0
 18 13  2  0
 22  9  1  0
 26 21  1  0
  2180  1  0
  4181  1  0
  5182  1  0
  8183  1  0
 15184  1  0
 17185  1  0
 18186  1  0
 19187  1  0
 23188  1  0
 24189  1  0
 26190  1  0
 27191  1  0
 29192  1  0
 30193  1  0
 30194  1  0
 31195  1  0
 31196  1  0
 34197  1  0
 35198  1  1
 36199  1  0
 36200  1  0
 37201  1  0
 37202  1  0
 40203  1  0
 43204  1  0
 44205  1  6
 45206  1  0
 45207  1  0
 46208  1  0
 46209  1  0
 47210  1  0
 47211  1  0
 48212  1  0
 50213  1  0
 51214  1  0
 51215  1  0
 54216  1  0
 55217  1  1
 56218  1  0
 56219  1  0
 57220  1  0
 58221  1  0
 58222  1  0
 58223  1  0
 59224  1  0
 59225  1  0
 59226  1  0
 62227  1  0
 63228  1  6
 64229  1  0
 64230  1  0
 65231  1  0
 65232  1  0
 66233  1  0
 66234  1  0
 67235  1  0
 69236  1  0
 70237  1  0
 70238  1  0
 73239  1  0
 74240  1  1
 75241  1  0
 75242  1  0
 76243  1  0
 76244  1  0
 77245  1  0
 77246  1  0
 78247  1  0
 80248  1  0
 81249  1  0
 81250  1  0
 84251  1  0
 85252  1  6
 86253  1  0
 86254  1  0
 87255  1  0
 87256  1  0
 88257  1  0
 88258  1  0
 89259  1  0
 91260  1  0
 92261  1  0
 92262  1  0
 95263  1  0
 96264  1  1
 97265  1  1
 98266  1  0
 98267  1  0
 98268  1  0
 99269  1  0
 99270  1  0
100271  1  0
100272  1  0
100273  1  0
103274  1  0
105275  1  0
105276  1  0
106277  1  0
106278  1  0
107279  1  0
107280  1  0
108281  1  0
109282  1  0
109283  1  0
109284  1  0
112285  1  0
113286  1  6
114287  1  0
114288  1  0
116289  1  0
116290  1  0
120291  1  0
121292  1  1
122293  1  0
122294  1  0
123295  1  0
126296  1  0
127297  1  1
128298  1  0
128299  1  0
129300  1  0
129301  1  0
130302  1  0
130303  1  0
131304  1  0
133305  1  0
134306  1  0
134307  1  0
137308  1  0
139309  1  0
139310  1  0
140311  1  0
140312  1  0
141313  1  0
141314  1  0
142315  1  0
143316  1  0
143317  1  0
143318  1  0
146319  1  0
147320  1  6
148321  1  0
148322  1  0
150323  1  0
151324  1  0
152325  1  0
156326  1  0
157327  1  1
158328  1  0
158329  1  0
160330  1  0
161331  1  0
162332  1  0
166333  1  0
167334  1  6
168335  1  0
168336  1  0
169337  1  0
172338  1  0
173339  1  1
174340  1  1
175341  1  0
176342  1  0
176343  1  0
176344  1  0
179345  1  0
M  END
