
     RDKit          2D

466472  0  0  0  0  0  0  0  0999 V2000
   13.2936   10.9719    0.0000 C   0  0  0  0  0  0  0  0  0  0  0  0
   11.8081   11.1799    0.0000 N   0  0  0  0  0  0  0  0  0  0  0  0
   11.2454   12.5704    0.0000 C   0  0  0  0  0  0  0  0  0  0  0  0
    9.7599   12.7784    0.0000 C   0  0  0  0  0  0  0  0  0  0  0  0
    9.1973   14.1689    0.0000 C   0  0  0  0  0  0  0  0  0  0  0  0
   10.1202   15.3514    0.0000 C   0  0  0  0  0  0  0  0  0  0  0  0
   11.6057   15.1434    0.0000 C   0  0  0  0  0  0  0  0  0  0  0  0
   12.1683   13.7529    0.0000 C   0  0  0  0  0  0  0  0  0  0  0  0
   12.2625   16.4919    0.0000 C   0  0  0  0  0  0  0  0  0  0  0  0
   11.1830   17.5334    0.0000 O   0  0  0  0  0  0  0  0  0  0  0  0
    9.8589   16.8285    0.0000 C   0  0  0  0  0  0  0  0  0  0  0  0
    8.5104   17.4853    0.0000 O   0  0  0  0  0  0  0  0  0  0  0  0
   12.7748   17.9017    0.0000 C   0  0  0  0  0  0  0  0  0  0  0  0
   14.2519   18.1630    0.0000 C   0  0  0  0  0  0  0  0  0  0  0  0
   14.7642   19.5728    0.0000 C   0  0  0  0  0  0  0  0  0  0  0  0
   13.7994   20.7213    0.0000 C   0  0  0  0  0  0  0  0  0  0  0  0
   12.3223   20.4601    0.0000 C   0  0  0  0  0  0  0  0  0  0  0  0
   11.8100   19.0503    0.0000 C   0  0  0  0  0  0  0  0  0  0  0  0
   14.3117   22.1311    0.0000 O   0  0  0  0  0  0  0  0  0  0  0  0
   15.2167   17.0144    0.0000 O   0  0  0  0  0  0  0  0  0  0  0  0
   14.7044   15.6046    0.0000 C   0  0  0  0  0  0  0  0  0  0  0  0
   13.2273   15.3434    0.0000 C   0  0  0  0  0  0  0  0  0  0  0  0
   13.4043   14.0555    0.0000 C   0  0  0  0  0  0  0  0  0  0  0  0
   13.9189   13.4429    0.0000 C   0  0  0  0  0  0  0  0  0  0  0  0
   14.7066   13.5822    0.0000 C   0  0  0  0  0  0  0  0  0  0  0  0
   14.9799   14.3341    0.0000 C   0  0  0  0  0  0  0  0  0  0  0  0
   16.1216   11.8977    0.0000 O   0  0  0  0  0  0  0  0  0  0  0  0
   14.2164   12.1544    0.0000 S   0  0  0  0  0  0  0  0  0  0  0  0
   13.8562    9.5815    0.0000 N   0  0  0  0  0  0  0  0  0  0  0  0
   15.3417    9.3735    0.0000 C   0  0  0  0  0  0  0  0  0  0  0  0
   15.9043    7.9830    0.0000 C   0  0  0  0  0  0  0  0  0  0  0  0
   17.3899    7.7750    0.0000 C   0  0  0  0  0  0  0  0  0  0  0  0
   17.8001    8.4585    0.0000 O   0  0  0  0  0  0  0  0  0  0  0  0
   17.9525    6.3845    0.0000 N   0  0  0  0  0  0  0  0  0  0  0  0
   19.4380    6.1765    0.0000 C   0  0  0  0  0  0  0  0  0  0  0  0
   19.3849    7.6756    0.0000 C   0  0  0  0  0  0  0  0  0  0  0  0
   18.1557    8.5354    0.0000 O   0  0  0  0  0  0  0  0  0  0  0  0
   20.7628    5.4730    0.0000 C   0  0  0  0  0  0  0  0  0  0  0  0
   21.8042    6.5526    0.0000 O   0  0  0  0  0  0  0  0  0  0  0  0
   20.8159    3.9740    0.0000 N   0  0  0  0  0  0  0  0  0  0  0  0
   22.1407    3.2704    0.0000 C   0  0  0  0  0  0  0  0  0  0  0  0
   22.6035    4.6973    0.0000 C   0  0  0  0  0  0  0  0  0  0  0  0
   21.5992    5.8115    0.0000 C   0  0  0  0  0  0  0  0  0  0  0  0
   22.0620    7.2383    0.0000 C   0  0  0  0  0  0  0  0  0  0  0  0
   21.2010    8.4666    0.0000 O   0  0  0  0  0  0  0  0  0  0  0  0
   23.5291    7.5509    0.0000 O   0  0  0  0  0  0  0  0  0  0  0  0
   23.1450    2.1562    0.0000 C   0  0  0  0  0  0  0  0  0  0  0  0
   24.4928    2.8146    0.0000 O   0  0  0  0  0  0  0  0  0  0  0  0
   22.6822    0.7294    0.0000 N   0  0  0  0  0  0  0  0  0  0  0  0
   23.6865   -0.3848    0.0000 C   0  0  0  0  0  0  0  0  0  0  0  0
   24.6094    0.7977    0.0000 C   0  0  0  0  0  0  0  0  0  0  0  0
   24.0467    2.1882    0.0000 C   0  0  0  0  0  0  0  0  0  0  0  0
   24.9696    3.3707    0.0000 C   0  0  0  0  0  0  0  0  0  0  0  0
   24.5807    4.8194    0.0000 O   0  0  0  0  0  0  0  0  0  0  0  0
   26.4551    3.1627    0.0000 O   0  0  0  0  0  0  0  0  0  0  0  0
   24.2491   -1.7753    0.0000 C   0  0  0  0  0  0  0  0  0  0  0  0
   25.7408   -1.6176    0.0000 O   0  0  0  0  0  0  0  0  0  0  0  0
   23.3262   -2.9578    0.0000 N   0  0  0  0  0  0  0  0  0  0  0  0
   23.8889   -4.3482    0.0000 C   0  0  0  0  0  0  0  0  0  0  0  0
   25.1605   -3.5527    0.0000 C   0  0  0  0  0  0  0  0  0  0  0  0
   25.1074   -2.0536    0.0000 C   0  0  0  0  0  0  0  0  0  0  0  0
   26.3791   -1.2581    0.0000 C   0  0  0  0  0  0  0  0  0  0  0  0
   24.5448   -0.6632    0.0000 C   0  0  0  0  0  0  0  0  0  0  0  0
   23.9420   -5.8473    0.0000 C   0  0  0  0  0  0  0  0  0  0  0  0
   25.3427   -6.3841    0.0000 O   0  0  0  0  0  0  0  0  0  0  0  0
   22.6703   -6.6428    0.0000 N   0  0  0  0  0  0  0  0  0  0  0  0
   22.7235   -8.1419    0.0000 C   0  0  0  0  0  0  0  0  0  0  0  0
   24.1905   -7.8293    0.0000 C   0  0  0  0  0  0  0  0  0  0  0  0
   24.8238   -6.4695    0.0000 C   0  0  0  0  0  0  0  0  0  0  0  0
   22.2607   -9.5687    0.0000 C   0  0  0  0  0  0  0  0  0  0  0  0
   23.3933  -10.5522    0.0000 O   0  0  0  0  0  0  0  0  0  0  0  0
   20.7936   -9.8814    0.0000 N   0  0  0  0  0  0  0  0  0  0  0  0
   20.3308  -11.3082    0.0000 C   0  0  0  0  0  0  0  0  0  0  0  0
   21.8164  -11.5162    0.0000 C   0  0  0  0  0  0  0  0  0  0  0  0
   19.4080  -12.4907    0.0000 C   0  0  0  0  0  0  0  0  0  0  0  0
   20.2903  -13.7037    0.0000 O   0  0  0  0  0  0  0  0  0  0  0  0
   17.9225  -12.2827    0.0000 N   0  0  0  0  0  0  0  0  0  0  0  0
   16.9996  -13.4652    0.0000 C   0  0  0  0  0  0  0  0  0  0  0  0
   18.3244  -14.1687    0.0000 C   0  0  0  0  0  0  0  0  0  0  0  0
   19.5960  -13.3732    0.0000 C   0  0  0  0  0  0  0  0  0  0  0  0
   20.9208  -14.0767    0.0000 C   0  0  0  0  0  0  0  0  0  0  0  0
   22.2800  -13.4421    0.0000 O   0  0  0  0  0  0  0  0  0  0  0  0
   20.9739  -15.5757    0.0000 O   0  0  0  0  0  0  0  0  0  0  0  0
   15.7279  -14.2607    0.0000 C   0  0  0  0  0  0  0  0  0  0  0  0
   15.9634  -15.7421    0.0000 O   0  0  0  0  0  0  0  0  0  0  0  0
   14.4031  -13.5572    0.0000 N   0  0  0  0  0  0  0  0  0  0  0  0
   13.1315  -14.3527    0.0000 C   0  0  0  0  0  0  0  0  0  0  0  0
   14.3755  -15.1908    0.0000 C   0  0  0  0  0  0  0  0  0  0  0  0
   11.6644  -14.6654    0.0000 C   0  0  0  0  0  0  0  0  0  0  0  0
   11.5606  -16.1618    0.0000 O   0  0  0  0  0  0  0  0  0  0  0  0
   10.6601  -13.5512    0.0000 N   0  0  0  0  0  0  0  0  0  0  0  0
    9.1931  -13.8638    0.0000 C   0  0  0  0  0  0  0  0  0  0  0  0
    9.7557  -15.2543    0.0000 C   0  0  0  0  0  0  0  0  0  0  0  0
   11.2412  -15.4623    0.0000 C   0  0  0  0  0  0  0  0  0  0  0  0
   12.2827  -14.3827    0.0000 C   0  0  0  0  0  0  0  0  0  0  0  0
   13.6312  -15.0396    0.0000 N   0  0  0  0  0  0  0  0  0  0  0  0
   13.4232  -16.5251    0.0000 C   0  0  0  0  0  0  0  0  0  0  0  0
   11.9461  -16.7863    0.0000 N   0  0  0  0  0  0  0  0  0  0  0  0
    7.7076  -13.6558    0.0000 C   0  0  0  0  0  0  0  0  0  0  0  0
    7.0983  -15.0265    0.0000 O   0  0  0  0  0  0  0  0  0  0  0  0
    7.1449  -12.2653    0.0000 N   0  0  0  0  0  0  0  0  0  0  0  0
    5.6594  -12.0574    0.0000 C   0  0  0  0  0  0  0  0  0  0  0  0
    5.7126  -13.5564    0.0000 C   0  0  0  0  0  0  0  0  0  0  0  0
    7.0373  -14.2599    0.0000 C   0  0  0  0  0  0  0  0  0  0  0  0
    7.0905  -15.7590    0.0000 N   0  0  0  0  0  0  0  0  0  0  0  0
    8.4637  -13.7957    0.0000 O   0  0  0  0  0  0  0  0  0  0  0  0
    4.3346  -11.3538    0.0000 C   0  0  0  0  0  0  0  0  0  0  0  0
    3.2933  -12.4335    0.0000 O   0  0  0  0  0  0  0  0  0  0  0  0
    4.2815   -9.8548    0.0000 N   0  0  0  0  0  0  0  0  0  0  0  0
    2.9567   -9.1513    0.0000 C   0  0  0  0  0  0  0  0  0  0  0  0
    2.4939  -10.5781    0.0000 C   0  0  0  0  0  0  0  0  0  0  0  0
    3.4982  -11.6923    0.0000 C   0  0  0  0  0  0  0  0  0  0  0  0
    3.0354  -13.1191    0.0000 C   0  0  0  0  0  0  0  0  0  0  0  0
    4.8230  -12.3958    0.0000 C   0  0  0  0  0  0  0  0  0  0  0  0
    1.9524   -8.0371    0.0000 C   0  0  0  0  0  0  0  0  0  0  0  0
    0.5344   -8.5262    0.0000 O   0  0  0  0  0  0  0  0  0  0  0  0
    2.4152   -6.6102    0.0000 N   0  0  0  0  0  0  0  0  0  0  0  0
    1.4110   -5.4961    0.0000 C   0  0  0  0  0  0  0  0  0  0  0  0
    0.4881   -6.6785    0.0000 C   0  0  0  0  0  0  0  0  0  0  0  0
    0.8770   -8.1272    0.0000 S   0  0  0  0  0  0  0  0  0  0  0  0
    0.8483   -4.1056    0.0000 C   0  0  0  0  0  0  0  0  0  0  0  0
   -0.6434   -4.2632    0.0000 O   0  0  0  0  0  0  0  0  0  0  0  0
    1.7712   -2.9231    0.0000 N   0  0  0  0  0  0  0  0  0  0  0  0
    1.2086   -1.5326    0.0000 C   0  0  0  0  0  0  0  0  0  0  0  0
    0.2125   -2.6542    0.0000 C   0  0  0  0  0  0  0  0  0  0  0  0
   -0.9777   -3.5670    0.0000 C   0  0  0  0  0  0  0  0  0  0  0  0
   -2.3193   -4.2381    0.0000 C   0  0  0  0  0  0  0  0  0  0  0  0
   -3.7635   -4.6431    0.0000 C   0  0  0  0  0  0  0  0  0  0  0  0
   -5.2584   -4.7675    0.0000 C   0  0  0  0  0  0  0  0  0  0  0  0
   -6.7497   -4.6067    0.0000 C   0  0  0  0  0  0  0  0  0  0  0  0
   -8.1837   -4.1667    0.0000 C   0  0  0  0  0  0  0  0  0  0  0  0
    2.7043   -1.6459    0.0000 C   0  0  0  0  0  0  0  0  0  0  0  0
    1.9743   -0.2428    0.0000 C   0  0  0  0  0  0  0  0  0  0  0  0
    3.3989   -0.7123    0.0000 O   0  0  0  0  0  0  0  0  0  0  0  0
    2.4821    1.1686    0.0000 N   0  0  0  0  0  0  0  0  0  0  0  0
    2.7137    2.6507    0.0000 C   0  0  0  0  0  0  0  0  0  0  0  0
    4.0332    3.3640    0.0000 C   0  0  0  0  0  0  0  0  0  0  0  0
    5.3107    2.5778    0.0000 C   0  0  0  0  0  0  0  0  0  0  0  0
    6.6303    3.2911    0.0000 C   0  0  0  0  0  0  0  0  0  0  0  0
    6.2423    1.4022    0.0000 C   0  0  0  0  0  0  0  0  0  0  0  0
    2.6605    4.1497    0.0000 C   0  0  0  0  0  0  0  0  0  0  0  0
    4.1129    4.5249    0.0000 O   0  0  0  0  0  0  0  0  0  0  0  0
    2.3247    5.6116    0.0000 N   0  0  0  0  0  0  0  0  0  0  0  0
    1.7182    6.9836    0.0000 C   0  0  0  0  0  0  0  0  0  0  0  0
    2.4427    8.2970    0.0000 C   0  0  0  0  0  0  0  0  0  0  0  0
    3.9424    8.3264    0.0000 C   0  0  0  0  0  0  0  0  0  0  0  0
    4.6668    9.6398    0.0000 C   0  0  0  0  0  0  0  0  0  0  0  0
    5.3617    7.8410    0.0000 C   0  0  0  0  0  0  0  0  0  0  0  0
    0.8631    8.2159    0.0000 C   0  0  0  0  0  0  0  0  0  0  0  0
    1.8820    9.3168    0.0000 O   0  0  0  0  0  0  0  0  0  0  0  0
   -0.2099    9.2642    0.0000 N   0  0  0  0  0  0  0  0  0  0  0  0
   -1.4618   10.0905    0.0000 C   0  0  0  0  0  0  0  0  0  0  0  0
   -1.5624   11.5871    0.0000 C   0  0  0  0  0  0  0  0  0  0  0  0
   -0.3167   12.4226    0.0000 C   0  0  0  0  0  0  0  0  0  0  0  0
   -0.4173   13.9192    0.0000 C   0  0  0  0  0  0  0  0  0  0  0  0
    0.8284   14.7547    0.0000 O   0  0  0  0  0  0  0  0  0  0  0  0
   -1.7638   14.5803    0.0000 O   0  0  0  0  0  0  0  0  0  0  0  0
   -2.8474   10.6649    0.0000 C   0  0  0  0  0  0  0  0  0  0  0  0
   -2.5854   12.1418    0.0000 O   0  0  0  0  0  0  0  0  0  0  0  0
   -4.3168   10.9666    0.0000 N   0  0  0  0  0  0  0  0  0  0  0  0
   -5.8167   10.9849    0.0000 C   0  0  0  0  0  0  0  0  0  0  0  0
   -6.7105   12.1895    0.0000 C   0  0  0  0  0  0  0  0  0  0  0  0
   -6.1142   13.5659    0.0000 C   0  0  0  0  0  0  0  0  0  0  0  0
   -7.0080   14.7705    0.0000 N   0  0  0  0  0  0  0  0  0  0  0  0
   -4.6240   13.7377    0.0000 O   0  0  0  0  0  0  0  0  0  0  0  0
   -7.2929   10.7190    0.0000 C   0  0  0  0  0  0  0  0  0  0  0  0
   -7.8710   12.1031    0.0000 O   0  0  0  0  0  0  0  0  0  0  0  0
   -8.6921   10.1785    0.0000 N   0  0  0  0  0  0  0  0  0  0  0  0
   -9.9638    9.3829    0.0000 C   0  0  0  0  0  0  0  0  0  0  0  0
  -11.3670    9.9131    0.0000 C   0  0  0  0  0  0  0  0  0  0  0  0
  -11.0619    8.3611    0.0000 C   0  0  0  0  0  0  0  0  0  0  0  0
  -12.2965    9.2130    0.0000 O   0  0  0  0  0  0  0  0  0  0  0  0
  -11.9468    7.1499    0.0000 N   0  0  0  0  0  0  0  0  0  0  0  0
  -12.5865    5.7932    0.0000 C   0  0  0  0  0  0  0  0  0  0  0  0
  -14.0535    5.4805    0.0000 C   0  0  0  0  0  0  0  0  0  0  0  0
  -14.9145    6.7088    0.0000 C   0  0  0  0  0  0  0  0  0  0  0  0
  -15.3252    4.6850    0.0000 C   0  0  0  0  0  0  0  0  0  0  0  0
  -16.6500    5.3885    0.0000 C   0  0  0  0  0  0  0  0  0  0  0  0
  -12.9578    4.3399    0.0000 C   0  0  0  0  0  0  0  0  0  0  0  0
  -14.4399    4.5714    0.0000 O   0  0  0  0  0  0  0  0  0  0  0  0
  -13.0475    2.8425    0.0000 N   0  0  0  0  0  0  0  0  0  0  0  0
  -12.8521    1.3553    0.0000 C   0  0  0  0  0  0  0  0  0  0  0  0
  -12.3788   -0.0681    0.0000 C   0  0  0  0  0  0  0  0  0  0  0  0
  -11.6446   -1.3761    0.0000 C   0  0  0  0  0  0  0  0  0  0  0  0
  -10.6762   -2.5216    0.0000 C   0  0  0  0  0  0  0  0  0  0  0  0
   -9.5085   -3.4631    0.0000 C   0  0  0  0  0  0  0  0  0  0  0  0
  -14.2714    1.8407    0.0000 C   0  0  0  0  0  0  0  0  0  0  0  0
  -13.9172    0.2992    0.0000 C   0  0  0  0  0  0  0  0  0  0  0  0
  -13.8975   -1.2007    0.0000 O   0  0  0  0  0  0  0  0  0  0  0  0
  -15.3644    0.6935    0.0000 N   0  0  0  0  0  0  0  0  0  0  0  0
  -16.4296   -0.3626    0.0000 C   0  0  0  0  0  0  0  0  0  0  0  0
  -17.0693   -1.7194    0.0000 C   0  0  0  0  0  0  0  0  0  0  0  0
  -18.5641   -1.8438    0.0000 C   0  0  0  0  0  0  0  0  0  0  0  0
  -19.2038   -3.2005    0.0000 O   0  0  0  0  0  0  0  0  0  0  0  0
  -19.6920   -0.8550    0.0000 O   0  0  0  0  0  0  0  0  0  0  0  0
  -17.8768    0.0317    0.0000 C   0  0  0  0  0  0  0  0  0  0  0  0
  -18.2589    1.4823    0.0000 O   0  0  0  0  0  0  0  0  0  0  0  0
  -18.9420   -1.0244    0.0000 N   0  0  0  0  0  0  0  0  0  0  0  0
  -20.3892   -0.6300    0.0000 C   0  0  0  0  0  0  0  0  0  0  0  0
  -21.6143    0.2355    0.0000 C   0  0  0  0  0  0  0  0  0  0  0  0
  -22.4694    1.4679    0.0000 O   0  0  0  0  0  0  0  0  0  0  0  0
  -23.0428   -0.2219    0.0000 C   0  0  0  0  0  0  0  0  0  0  0  0
  -21.4543   -1.6862    0.0000 C   0  0  0  0  0  0  0  0  0  0  0  0
  -21.0723   -3.1367    0.0000 O   0  0  0  0  0  0  0  0  0  0  0  0
  -22.9016   -1.2918    0.0000 N   0  0  0  0  0  0  0  0  0  0  0  0
  -23.9667   -2.3480    0.0000 C   0  0  0  0  0  0  0  0  0  0  0  0
  -24.6064   -3.7047    0.0000 C   0  0  0  0  0  0  0  0  0  0  0  0
  -26.0749   -4.0104    0.0000 C   0  0  0  0  0  0  0  0  0  0  0  0
  -25.4140   -1.9536    0.0000 C   0  0  0  0  0  0  0  0  0  0  0  0
  -25.7960   -0.5031    0.0000 O   0  0  0  0  0  0  0  0  0  0  0  0
  -26.4791   -3.0098    0.0000 N   0  0  0  0  0  0  0  0  0  0  0  0
  -27.9263   -2.6154    0.0000 C   0  0  0  0  0  0  0  0  0  0  0  0
  -29.1514   -1.7498    0.0000 C   0  0  0  0  0  0  0  0  0  0  0  0
  -29.0143   -0.2561    0.0000 C   0  0  0  0  0  0  0  0  0  0  0  0
  -30.2394    0.6095    0.0000 C   0  0  0  0  0  0  0  0  0  0  0  0
  -30.1023    2.1032    0.0000 N   0  0  0  0  0  0  0  0  0  0  0  0
  -31.3274    2.9687    0.0000 C   0  0  0  0  0  0  0  0  0  0  0  0
  -31.1903    4.4625    0.0000 N   0  0  0  0  0  0  0  0  0  0  0  0
  -32.6895    2.3406    0.0000 N   0  0  0  0  0  0  0  0  0  0  0  0
  -28.9915   -3.6716    0.0000 C   0  0  0  0  0  0  0  0  0  0  0  0
  -28.6094   -5.1221    0.0000 O   0  0  0  0  0  0  0  0  0  0  0  0
  -30.4387   -3.2772    0.0000 N   0  0  0  0  0  0  0  0  0  0  0  0
  -31.5039   -4.3333    0.0000 C   0  0  0  0  0  0  0  0  0  0  0  0
  -32.1435   -5.6901    0.0000 C   0  0  0  0  0  0  0  0  0  0  0  0
  -33.6384   -5.8145    0.0000 C   0  0  0  0  0  0  0  0  0  0  0  0
  -34.2781   -7.1713    0.0000 C   0  0  0  0  0  0  0  0  0  0  0  0
  -35.7466   -7.4770    0.0000 O   0  0  0  0  0  0  0  0  0  0  0  0
  -33.4229   -8.4036    0.0000 O   0  0  0  0  0  0  0  0  0  0  0  0
  -32.9511   -3.9390    0.0000 C   0  0  0  0  0  0  0  0  0  0  0  0
  -33.3332   -2.4885    0.0000 O   0  0  0  0  0  0  0  0  0  0  0  0
  -34.0162   -4.9951    0.0000 N   0  0  0  0  0  0  0  0  0  0  0  0
  -35.4635   -4.6008    0.0000 C   0  0  0  0  0  0  0  0  0  0  0  0
  -36.6885   -3.7352    0.0000 C   0  0  0  0  0  0  0  0  0  0  0  0
  -36.5515   -2.2415    0.0000 C   0  0  0  0  0  0  0  0  0  0  0  0
  -37.7765   -1.3759    0.0000 C   0  0  0  0  0  0  0  0  0  0  0  0
  -37.6395    0.1178    0.0000 N   0  0  0  0  0  0  0  0  0  0  0  0
  -39.1387   -2.0041    0.0000 O   0  0  0  0  0  0  0  0  0  0  0  0
  -36.5286   -5.6569    0.0000 C   0  0  0  0  0  0  0  0  0  0  0  0
  -38.0131   -5.4419    0.0000 O   0  0  0  0  0  0  0  0  0  0  0  0
  -36.3262   -7.1432    0.0000 O   0  0  0  0  0  0  0  0  0  0  0  0
   10.8852    9.9974    0.0000 H   0  0  0  0  0  0  0  0  0  0  0  0
    8.8370   11.5959    0.0000 H   0  0  0  0  0  0  0  0  0  0  0  0
    7.7118   14.3769    0.0000 H   0  0  0  0  0  0  0  0  0  0  0  0
   13.5593   13.1916    0.0000 H   0  0  0  0  0  0  0  0  0  0  0  0
   16.2413   19.8340    0.0000 H   0  0  0  0  0  0  0  0  0  0  0  0
   11.3576   21.6087    0.0000 H   0  0  0  0  0  0  0  0  0  0  0  0
   10.3330   18.7891    0.0000 H   0  0  0  0  0  0  0  0  0  0  0  0
   13.3469   23.2797    0.0000 H   0  0  0  0  0  0  0  0  0  0  0  0
   11.2379   13.6723    0.0000 H   0  0  0  0  0  0  0  0  0  0  0  0
   13.5239   11.2931    0.0000 H   0  0  0  0  0  0  0  0  0  0  0  0
   17.1462   14.7173    0.0000 H   0  0  0  0  0  0  0  0  0  0  0  0
   17.5987   12.1589    0.0000 H   0  0  0  0  0  0  0  0  0  0  0  0
   12.9333    8.3990    0.0000 H   0  0  0  0  0  0  0  0  0  0  0  0
   15.2886   10.8725    0.0000 H   0  0  0  0  0  0  0  0  0  0  0  0
   16.8088    9.6861    0.0000 H   0  0  0  0  0  0  0  0  0  0  0  0
   14.4373    7.6704    0.0000 H   0  0  0  0  0  0  0  0  0  0  0  0
   15.9575    6.4839    0.0000 H   0  0  0  0  0  0  0  0  0  0  0  0
   17.0296    5.2020    0.0000 H   0  0  0  0  0  0  0  0  0  0  0  0
   18.9752    4.7497    0.0000 H   0  0  0  0  0  0  0  0  0  0  0  0
   19.8477    9.1024    0.0000 H   0  0  0  0  0  0  0  0  0  0  0  0
   20.8847    7.6502    0.0000 H   0  0  0  0  0  0  0  0  0  0  0  0
   18.0070    9.8782    0.0000 H   0  0  0  0  0  0  0  0  0  0  0  0
   19.5443    3.1784    0.0000 H   0  0  0  0  0  0  0  0  0  0  0  0
   21.2178    2.0879    0.0000 H   0  0  0  0  0  0  0  0  0  0  0  0
   23.5264    5.8798    0.0000 H   0  0  0  0  0  0  0  0  0  0  0  0
   24.0042    4.1605    0.0000 H   0  0  0  0  0  0  0  0  0  0  0  0
   20.2744    6.5150    0.0000 H   0  0  0  0  0  0  0  0  0  0  0  0
   20.4176    4.8874    0.0000 H   0  0  0  0  0  0  0  0  0  0  0  0
   23.9918    8.9777    0.0000 H   0  0  0  0  0  0  0  0  0  0  0  0
   21.2151    0.4168    0.0000 H   0  0  0  0  0  0  0  0  0  0  0  0
   22.3273   -1.0194    0.0000 H   0  0  0  0  0  0  0  0  0  0  0  0
   25.8810    1.5933    0.0000 H   0  0  0  0  0  0  0  0  0  0  0  0
   25.8534   -0.0404    0.0000 H   0  0  0  0  0  0  0  0  0  0  0  0
   23.0424    3.3024    0.0000 H   0  0  0  0  0  0  0  0  0  0  0  0
   22.6204    1.7240    0.0000 H   0  0  0  0  0  0  0  0  0  0  0  0
   27.3780    4.3452    0.0000 H   0  0  0  0  0  0  0  0  0  0  0  0
   21.8407   -2.7498    0.0000 H   0  0  0  0  0  0  0  0  0  0  0  0
   22.4218   -4.6609    0.0000 H   0  0  0  0  0  0  0  0  0  0  0  0
   26.6548   -3.4212    0.0000 H   0  0  0  0  0  0  0  0  0  0  0  0
   25.7232   -4.9432    0.0000 H   0  0  0  0  0  0  0  0  0  0  0  0
   23.6083   -2.0020    0.0000 H   0  0  0  0  0  0  0  0  0  0  0  0
   26.6902    0.2093    0.0000 H   0  0  0  0  0  0  0  0  0  0  0  0
   27.8461   -0.9455    0.0000 H   0  0  0  0  0  0  0  0  0  0  0  0
   27.1070   -2.5696    0.0000 H   0  0  0  0  0  0  0  0  0  0  0  0
   25.4676    0.5193    0.0000 H   0  0  0  0  0  0  0  0  0  0  0  0
   23.8399    0.6609    0.0000 H   0  0  0  0  0  0  0  0  0  0  0  0
   23.3796   -1.6078    0.0000 H   0  0  0  0  0  0  0  0  0  0  0  0
   21.3456   -5.9393    0.0000 H   0  0  0  0  0  0  0  0  0  0  0  0
   21.2380   -7.9339    0.0000 H   0  0  0  0  0  0  0  0  0  0  0  0
   25.6760   -8.0372    0.0000 H   0  0  0  0  0  0  0  0  0  0  0  0
   24.2437   -9.3283    0.0000 H   0  0  0  0  0  0  0  0  0  0  0  0
   26.1204   -6.0898    0.0000 H   0  0  0  0  0  0  0  0  0  0  0  0
   24.6002   -4.9034    0.0000 H   0  0  0  0  0  0  0  0  0  0  0  0
   23.2836   -5.8019    0.0000 H   0  0  0  0  0  0  0  0  0  0  0  0
   19.7894   -8.7672    0.0000 H   0  0  0  0  0  0  0  0  0  0  0  0
   19.0061  -10.6047    0.0000 H   0  0  0  0  0  0  0  0  0  0  0  0
   22.8765  -10.4550    0.0000 H   0  0  0  0  0  0  0  0  0  0  0  0
   23.1411  -12.2197    0.0000 H   0  0  0  0  0  0  0  0  0  0  0  0
   21.5310  -12.9888    0.0000 H   0  0  0  0  0  0  0  0  0  0  0  0
   17.3598  -10.8922    0.0000 H   0  0  0  0  0  0  0  0  0  0  0  0
   15.9953  -12.3510    0.0000 H   0  0  0  0  0  0  0  0  0  0  0  0
   19.3286  -15.2829    0.0000 H   0  0  0  0  0  0  0  0  0  0  0  0
   17.4015  -15.3512    0.0000 H   0  0  0  0  0  0  0  0  0  0  0  0
   20.5189  -12.1907    0.0000 H   0  0  0  0  0  0  0  0  0  0  0  0
   18.8912  -12.0491    0.0000 H   0  0  0  0  0  0  0  0  0  0  0  0
   22.2987  -16.2793    0.0000 H   0  0  0  0  0  0  0  0  0  0  0  0
   14.3500  -12.0581    0.0000 H   0  0  0  0  0  0  0  0  0  0  0  0
   12.7425  -12.9041    0.0000 H   0  0  0  0  0  0  0  0  0  0  0  0
   15.5981  -15.3042    0.0000 H   0  0  0  0  0  0  0  0  0  0  0  0
   14.8991  -16.8056    0.0000 H   0  0  0  0  0  0  0  0  0  0  0  0
   13.1683  -16.5964    0.0000 H   0  0  0  0  0  0  0  0  0  0  0  0
   11.1229  -12.1244    0.0000 H   0  0  0  0  0  0  0  0  0  0  0  0
    9.1400  -12.3648    0.0000 H   0  0  0  0  0  0  0  0  0  0  0  0
    9.8088  -16.7534    0.0000 H   0  0  0  0  0  0  0  0  0  0  0  0
    8.3377  -15.7434    0.0000 H   0  0  0  0  0  0  0  0  0  0  0  0
   11.8433  -12.9485    0.0000 H   0  0  0  0  0  0  0  0  0  0  0  0
   15.0865  -14.6760    0.0000 H   0  0  0  0  0  0  0  0  0  0  0  0
   14.3678  -17.6904    0.0000 H   0  0  0  0  0  0  0  0  0  0  0  0
    8.0678  -11.0829    0.0000 H   0  0  0  0  0  0  0  0  0  0  0  0
    6.2927  -10.6976    0.0000 H   0  0  0  0  0  0  0  0  0  0  0  0
    5.2498  -14.9832    0.0000 H   0  0  0  0  0  0  0  0  0  0  0  0
    4.2209  -13.7141    0.0000 H   0  0  0  0  0  0  0  0  0  0  0  0
    8.3196  -16.6188    0.0000 H   0  0  0  0  0  0  0  0  0  0  0  0
    5.8188  -16.5545    0.0000 H   0  0  0  0  0  0  0  0  0  0  0  0
    5.5532   -9.0592    0.0000 H   0  0  0  0  0  0  0  0  0  0  0  0
    3.8796   -7.9688    0.0000 H   0  0  0  0  0  0  0  0  0  0  0  0
    1.4338  -11.6393    0.0000 H   0  0  0  0  0  0  0  0  0  0  0  0
    1.1692   -9.8746    0.0000 H   0  0  0  0  0  0  0  0  0  0  0  0
    4.6798  -10.7682    0.0000 H   0  0  0  0  0  0  0  0  0  0  0  0
    3.7403  -14.4432    0.0000 H   0  0  0  0  0  0  0  0  0  0  0  0
    2.1126  -14.3016    0.0000 H   0  0  0  0  0  0  0  0  0  0  0  0
    1.6348  -12.5823    0.0000 H   0  0  0  0  0  0  0  0  0  0  0  0
    4.8761  -13.8949    0.0000 H   0  0  0  0  0  0  0  0  0  0  0  0
    6.2140  -12.9571    0.0000 H   0  0  0  0  0  0  0  0  0  0  0  0
    5.1084  -10.9232    0.0000 H   0  0  0  0  0  0  0  0  0  0  0  0
    3.8823   -6.2976    0.0000 H   0  0  0  0  0  0  0  0  0  0  0  0
    2.6826   -4.7005    0.0000 H   0  0  0  0  0  0  0  0  0  0  0  0
   -0.7836   -7.4741    0.0000 H   0  0  0  0  0  0  0  0  0  0  0  0
   -0.5162   -5.5644    0.0000 H   0  0  0  0  0  0  0  0  0  0  0  0
    0.1278   -9.2515    0.0000 H   0  0  0  0  0  0  0  0  0  0  0  0
    3.2203   -3.3106    0.0000 H   0  0  0  0  0  0  0  0  0  0  0  0
    1.5213   -3.3870    0.0000 H   0  0  0  0  0  0  0  0  0  0  0  0
    0.3203   -4.1503    0.0000 H   0  0  0  0  0  0  0  0  0  0  0  0
    0.0423   -4.6668    0.0000 H   0  0  0  0  0  0  0  0  0  0  0  0
   -0.9722   -5.0670    0.0000 H   0  0  0  0  0  0  0  0  0  0  0  0
   -1.1223   -5.1421    0.0000 H   0  0  0  0  0  0  0  0  0  0  0  0
   -2.4159   -5.7349    0.0000 H   0  0  0  0  0  0  0  0  0  0  0  0
   -2.9026   -5.8714    0.0000 H   0  0  0  0  0  0  0  0  0  0  0  0
   -4.1418   -6.0946    0.0000 H   0  0  0  0  0  0  0  0  0  0  0  0
   -4.6454   -6.1365    0.0000 H   0  0  0  0  0  0  0  0  0  0  0  0
   -5.9045   -6.1212    0.0000 H   0  0  0  0  0  0  0  0  0  0  0  0
   -6.4069   -6.0671    0.0000 H   0  0  0  0  0  0  0  0  0  0  0  0
   -7.7808   -5.6962    0.0000 H   0  0  0  0  0  0  0  0  0  0  0  0
   -8.7581   -5.5523    0.0000 H   0  0  0  0  0  0  0  0  0  0  0  0
    3.5139   -2.9087    0.0000 H   0  0  0  0  0  0  0  0  0  0  0  0
    4.1872   -1.4200    0.0000 H   0  0  0  0  0  0  0  0  0  0  0  0
    2.9218   -0.1618    0.0000 H   0  0  0  0  0  0  0  0  0  0  0  0
    3.8793    0.6229    0.0000 H   0  0  0  0  0  0  0  0  0  0  0  0
    3.8241    1.6422    0.0000 H   0  0  0  0  0  0  0  0  0  0  0  0
    5.0292    4.4855    0.0000 H   0  0  0  0  0  0  0  0  0  0  0  0
    3.4138    4.7301    0.0000 H   0  0  0  0  0  0  0  0  0  0  0  0
    4.6157    1.2486    0.0000 H   0  0  0  0  0  0  0  0  0  0  0  0
    7.9941    2.6666    0.0000 H   0  0  0  0  0  0  0  0  0  0  0  0
    7.6263    4.4127    0.0000 H   0  0  0  0  0  0  0  0  0  0  0  0
    5.8489    4.5716    0.0000 H   0  0  0  0  0  0  0  0  0  0  0  0
    7.7419    1.4386    0.0000 H   0  0  0  0  0  0  0  0  0  0  0  0
    6.7156   -0.0212    0.0000 H   0  0  0  0  0  0  0  0  0  0  0  0
    4.9228    0.6889    0.0000 H   0  0  0  0  0  0  0  0  0  0  0  0
    3.7951    5.9079    0.0000 H   0  0  0  0  0  0  0  0  0  0  0  0
    3.1976    6.7356    0.0000 H   0  0  0  0  0  0  0  0  0  0  0  0
    2.6742    9.7791    0.0000 H   0  0  0  0  0  0  0  0  0  0  0  0
    1.1830    9.1114    0.0000 H   0  0  0  0  0  0  0  0  0  0  0  0
    4.0763    6.8324    0.0000 H   0  0  0  0  0  0  0  0  0  0  0  0
    6.1518    9.8518    0.0000 H   0  0  0  0  0  0  0  0  0  0  0  0
    4.8983   11.1219    0.0000 H   0  0  0  0  0  0  0  0  0  0  0  0
    3.3173   10.2946    0.0000 H   0  0  0  0  0  0  0  0  0  0  0  0
    6.6035    8.6824    0.0000 H   0  0  0  0  0  0  0  0  0  0  0  0
    6.5294    6.8995    0.0000 H   0  0  0  0  0  0  0  0  0  0  0  0
    4.6372    6.5276    0.0000 H   0  0  0  0  0  0  0  0  0  0  0  0
    0.8670   10.3084    0.0000 H   0  0  0  0  0  0  0  0  0  0  0  0
   -0.0832   10.6816    0.0000 H   0  0  0  0  0  0  0  0  0  0  0  0
   -1.9972   13.0227    0.0000 H   0  0  0  0  0  0  0  0  0  0  0  0
   -3.0624   11.5911    0.0000 H   0  0  0  0  0  0  0  0  0  0  0  0
    1.1397   12.7816    0.0000 H   0  0  0  0  0  0  0  0  0  0  0  0
    0.6037   11.2382    0.0000 H   0  0  0  0  0  0  0  0  0  0  0  0
   -1.8644   16.0769    0.0000 H   0  0  0  0  0  0  0  0  0  0  0  0
   -4.1560   12.4580    0.0000 H   0  0  0  0  0  0  0  0  0  0  0  0
   -5.1342   12.3207    0.0000 H   0  0  0  0  0  0  0  0  0  0  0  0
   -7.8523   13.1622    0.0000 H   0  0  0  0  0  0  0  0  0  0  0  0
   -7.9745   11.3820    0.0000 H   0  0  0  0  0  0  0  0  0  0  0  0
   -6.4117   16.1469    0.0000 H   0  0  0  0  0  0  0  0  0  0  0  0
   -8.4981   14.5987    0.0000 H   0  0  0  0  0  0  0  0  0  0  0  0
   -9.3632   11.5200    0.0000 H   0  0  0  0  0  0  0  0  0  0  0  0
  -10.1119   10.8756    0.0000 H   0  0  0  0  0  0  0  0  0  0  0  0
  -11.6095   11.3934    0.0000 H   0  0  0  0  0  0  0  0  0  0  0  0
  -12.8535   10.1140    0.0000 H   0  0  0  0  0  0  0  0  0  0  0  0
  -11.9938    8.5503    0.0000 H   0  0  0  0  0  0  0  0  0  0  0  0
  -13.1337    8.0672    0.0000 H   0  0  0  0  0  0  0  0  0  0  0  0
  -13.3678    7.0736    0.0000 H   0  0  0  0  0  0  0  0  0  0  0  0
  -13.8441    3.9952    0.0000 H   0  0  0  0  0  0  0  0  0  0  0  0
  -16.5649    6.4816    0.0000 H   0  0  0  0  0  0  0  0  0  0  0  0
  -15.6205    7.9852    0.0000 H   0  0  0  0  0  0  0  0  0  0  0  0
  -14.0165    7.6743    0.0000 H   0  0  0  0  0  0  0  0  0  0  0  0
  -16.2481    3.5025    0.0000 H   0  0  0  0  0  0  0  0  0  0  0  0
  -14.3209    3.5708    0.0000 H   0  0  0  0  0  0  0  0  0  0  0  0
  -17.9217    4.5930    0.0000 H   0  0  0  0  0  0  0  0  0  0  0  0
  -17.6543    6.5027    0.0000 H   0  0  0  0  0  0  0  0  0  0  0  0
  -16.0407    6.7592    0.0000 H   0  0  0  0  0  0  0  0  0  0  0  0
  -14.5465    2.7894    0.0000 H   0  0  0  0  0  0  0  0  0  0  0  0
  -13.2248   -1.3067    0.0000 H   0  0  0  0  0  0  0  0  0  0  0  0
  -13.8705   -0.2257    0.0000 H   0  0  0  0  0  0  0  0  0  0  0  0
  -12.4043   -2.6695    0.0000 H   0  0  0  0  0  0  0  0  0  0  0  0
  -13.0795   -1.8132    0.0000 H   0  0  0  0  0  0  0  0  0  0  0  0
  -11.0013   -3.9860    0.0000 H   0  0  0  0  0  0  0  0  0  0  0  0
  -12.0780   -3.0555    0.0000 H   0  0  0  0  0  0  0  0  0  0  0  0
  -10.3348   -4.7151    0.0000 H   0  0  0  0  0  0  0  0  0  0  0  0
  -15.6065    1.1569    0.0000 H   0  0  0  0  0  0  0  0  0  0  0  0
  -15.4391    2.7822    0.0000 H   0  0  0  0  0  0  0  0  0  0  0  0
  -13.7124    3.2326    0.0000 H   0  0  0  0  0  0  0  0  0  0  0  0
  -15.9205    2.0867    0.0000 H   0  0  0  0  0  0  0  0  0  0  0  0
  -15.2045   -1.2282    0.0000 H   0  0  0  0  0  0  0  0  0  0  0  0
  -17.2063   -3.2131    0.0000 H   0  0  0  0  0  0  0  0  0  0  0  0
  -15.6220   -2.1138    0.0000 H   0  0  0  0  0  0  0  0  0  0  0  0
  -20.8489   -0.4437    0.0000 H   0  0  0  0  0  0  0  0  0  0  0  0
  -18.9222   -2.5243    0.0000 H   0  0  0  0  0  0  0  0  0  0  0  0
  -19.7495    0.7267    0.0000 H   0  0  0  0  0  0  0  0  0  0  0  0
  -20.5491    1.2917    0.0000 H   0  0  0  0  0  0  0  0  0  0  0  0
  -21.8297    2.8246    0.0000 H   0  0  0  0  0  0  0  0  0  0  0  0
  -24.2015    0.4729    0.0000 H   0  0  0  0  0  0  0  0  0  0  0  0
  -24.0416   -1.4488    0.0000 H   0  0  0  0  0  0  0  0  0  0  0  0
  -22.8001   -1.8822    0.0000 H   0  0  0  0  0  0  0  0  0  0  0  0
  -23.4576    0.1013    0.0000 H   0  0  0  0  0  0  0  0  0  0  0  0
  -22.7417   -3.2136    0.0000 H   0  0  0  0  0  0  0  0  0  0  0  0
  -24.7435   -5.1985    0.0000 H   0  0  0  0  0  0  0  0  0  0  0  0
  -23.1592   -4.0991    0.0000 H   0  0  0  0  0  0  0  0  0  0  0  0
  -26.7409   -5.1859    0.0000 H   0  0  0  0  0  0  0  0  0  0  0  0
  -27.5485   -3.4348    0.0000 H   0  0  0  0  0  0  0  0  0  0  0  0
  -26.6816   -2.4460    0.0000 H   0  0  0  0  0  0  0  0  0  0  0  0
  -26.2767   -4.4961    0.0000 H   0  0  0  0  0  0  0  0  0  0  0  0
  -27.1260   -1.3467    0.0000 H   0  0  0  0  0  0  0  0  0  0  0  0
  -30.5986   -1.3555    0.0000 H   0  0  0  0  0  0  0  0  0  0  0  0
  -30.1004   -2.9115    0.0000 H   0  0  0  0  0  0  0  0  0  0  0  0
  -28.3746    1.1006    0.0000 H   0  0  0  0  0  0  0  0  0  0  0  0
  -27.5298   -0.4711    0.0000 H   0  0  0  0  0  0  0  0  0  0  0  0
  -31.6866    1.0038    0.0000 H   0  0  0  0  0  0  0  0  0  0  0  0
  -31.0397   -0.6592    0.0000 H   0  0  0  0  0  0  0  0  0  0  0  0
  -28.7402    2.7313    0.0000 H   0  0  0  0  0  0  0  0  0  0  0  0
  -32.4154    5.3280    0.0000 H   0  0  0  0  0  0  0  0  0  0  0  0
  -33.9146    3.2061    0.0000 H   0  0  0  0  0  0  0  0  0  0  0  0
  -32.8266    0.8469    0.0000 H   0  0  0  0  0  0  0  0  0  0  0  0
  -30.9948   -1.8841    0.0000 H   0  0  0  0  0  0  0  0  0  0  0  0
  -30.2788   -5.1989    0.0000 H   0  0  0  0  0  0  0  0  0  0  0  0
  -32.2806   -7.1838    0.0000 H   0  0  0  0  0  0  0  0  0  0  0  0
  -30.6963   -6.0845    0.0000 H   0  0  0  0  0  0  0  0  0  0  0  0
  -35.0856   -5.4201    0.0000 H   0  0  0  0  0  0  0  0  0  0  0  0
  -34.2188   -4.4313    0.0000 H   0  0  0  0  0  0  0  0  0  0  0  0
  -34.0626   -9.7604    0.0000 H   0  0  0  0  0  0  0  0  0  0  0  0
  -33.9965   -6.4950    0.0000 H   0  0  0  0  0  0  0  0  0  0  0  0
  -34.6632   -3.3321    0.0000 H   0  0  0  0  0  0  0  0  0  0  0  0
  -38.1358   -3.3408    0.0000 H   0  0  0  0  0  0  0  0  0  0  0  0
  -37.4888   -5.0039    0.0000 H   0  0  0  0  0  0  0  0  0  0  0  0
  -35.9118   -0.8847    0.0000 H   0  0  0  0  0  0  0  0  0  0  0  0
  -35.0670   -2.4565    0.0000 H   0  0  0  0  0  0  0  0  0  0  0  0
  -38.8645    0.9834    0.0000 H   0  0  0  0  0  0  0  0  0  0  0  0
  -36.2773    0.7460    0.0000 H   0  0  0  0  0  0  0  0  0  0  0  0
  -37.2117   -8.1636    0.0000 H   0  0  0  0  0  0  0  0  0  0  0  0
  1  2  1  0
  2  3  1  0
  3  4  2  0
  4  5  1  0
  5  6  2  0
  6  7  1  0
  7  8  2  0
  7  9  1  0
  9 10  1  0
 10 11  1  0
 11 12  2  0
  9 13  1  0
 13 14  1  0
 14 15  2  0
 15 16  1  0
 16 17  2  0
 17 18  1  0
 16 19  1  0
 14 20  1  0
 20 21  1  0
 21 22  2  0
 22 23  1  0
 23 24  2  0
 24 25  1  0
 25 26  2  0
 25 27  1  0
  1 28  2  0
  1 29  1  0
 29 30  1  0
 30 31  1  0
 31 32  1  0
 32 33  2  0
 32 34  1  0
 34 35  1  0
 35 36  1  0
 36 37  1  0
 35 38  1  0
 38 39  2  0
 38 40  1  0
 40 41  1  0
 41 42  1  0
 42 43  1  0
 43 44  1  0
 44 45  2  0
 44 46  1  0
 41 47  1  0
 47 48  2  0
 47 49  1  0
 49 50  1  0
 50 51  1  0
 51 52  1  0
 52 53  1  0
 53 54  2  0
 53 55  1  0
 50 56  1  0
 56 57  2  0
 56 58  1  0
 58 59  1  0
 59 60  1  0
 60 61  1  0
 61 62  1  0
 61 63  1  0
 59 64  1  0
 64 65  2  0
 64 66  1  0
 66 67  1  0
 67 68  1  0
 68 69  1  0
 67 70  1  0
 70 71  2  0
 70 72  1  0
 72 73  1  0
 73 74  1  0
 73 75  1  0
 75 76  2  0
 75 77  1  0
 77 78  1  0
 78 79  1  0
 79 80  1  0
 80 81  1  0
 81 82  2  0
 81 83  1  0
 78 84  1  0
 84 85  2  0
 84 86  1  0
 86 87  1  0
 87 88  1  0
 87 89  1  0
 89 90  2  0
 89 91  1  0
 91 92  1  0
 92 93  1  0
 93 94  1  0
 94 95  2  0
 95 96  1  0
 96 97  1  0
 97 98  2  0
 92 99  1  0
 99100  2  0
 99101  1  0
101102  1  0
102103  1  0
103104  1  0
104105  1  0
104106  2  0
102107  1  0
107108  2  0
107109  1  0
109110  1  0
110111  1  0
111112  1  0
112113  1  0
112114  1  0
110115  1  0
115116  2  0
115117  1  0
117118  1  0
118119  1  0
119120  1  0
118121  1  0
121122  2  0
121123  1  0
124123  1  6
124125  1  0
125126  1  0
126127  1  0
127128  1  0
128129  1  0
129130  1  0
130131  1  0
124132  1  0
124133  1  0
133134  2  0
133135  1  0
135136  1  0
136137  1  0
137138  1  0
138139  1  0
138140  1  0
136141  1  0
141142  2  0
141143  1  0
143144  1  0
144145  1  0
145146  1  0
146147  1  0
146148  1  0
144149  1  0
149150  2  0
149151  1  0
151152  1  0
152153  1  0
153154  1  0
154155  1  0
155156  2  0
155157  1  0
152158  1  0
158159  2  0
158160  1  0
160161  1  0
161162  1  0
162163  1  0
163164  1  0
163165  2  0
161166  1  0
166167  2  0
166168  1  0
168169  1  0
169170  1  0
169171  1  0
171172  2  0
171173  1  0
173174  1  0
174175  1  0
175176  1  0
175177  1  0
177178  1  0
174179  1  0
179180  2  0
179181  1  0
181182  1  0
182183  1  0
183184  1  0
184185  1  0
185186  1  0
182187  1  0
182188  1  1
188189  2  0
188190  1  0
190191  1  0
191192  1  0
192193  1  0
193194  2  0
193195  1  0
191196  1  0
196197  2  0
196198  1  0
198199  1  0
199200  1  0
200201  1  0
200202  1  0
199203  1  0
203204  2  0
203205  1  0
205206  1  0
206207  1  0
207208  1  0
206209  1  0
209210  2  0
209211  1  0
211212  1  0
212213  1  0
213214  1  0
214215  1  0
215216  1  0
216217  1  0
217218  2  3
217219  1  0
212220  1  0
220221  2  0
220222  1  0
222223  1  0
223224  1  0
224225  1  0
225226  1  0
226227  2  0
226228  1  0
223229  1  0
229230  2  0
229231  1  0
231232  1  0
232233  1  0
233234  1  0
234235  1  0
235236  1  0
235237  2  0
232238  1  0
238239  2  0
238240  1  0
  8  3  1  0
 98 94  1  0
 11  6  1  0
131186  2  0
 18 13  2  0
 22  9  1  0
 26 21  1  0
  2241  1  0
  4242  1  0
  5243  1  0
  8244  1  0
 15245  1  0
 17246  1  0
 18247  1  0
 19248  1  0
 23249  1  0
 24250  1  0
 26251  1  0
 27252  1  0
 29253  1  0
 30254  1  0
 30255  1  0
 31256  1  0
 31257  1  0
 34258  1  0
 35259  1  1
 36260  1  0
 36261  1  0
 37262  1  0
 40263  1  0
 41264  1  1
 42265  1  0
 42266  1  0
 43267  1  0
 43268  1  0
 46269  1  0
 49270  1  0
 50271  1  1
 51272  1  0
 51273  1  0
 52274  1  0
 52275  1  0
 55276  1  0
 58277  1  0
 59278  1  1
 60279  1  0
 60280  1  0
 61281  1  0
 62282  1  0
 62283  1  0
 62284  1  0
 63285  1  0
 63286  1  0
 63287  1  0
 66288  1  0
 67289  1  1
 68290  1  0
 68291  1  0
 69292  1  0
 69293  1  0
 69294  1  0
 72295  1  0
 73296  1  1
 74297  1  0
 74298  1  0
 74299  1  0
 77300  1  0
 78301  1  1
 79302  1  0
 79303  1  0
 80304  1  0
 80305  1  0
 83306  1  0
 86307  1  0
 87308  1  1
 88309  1  0
 88310  1  0
 88311  1  0
 91312  1  0
 92313  1  1
 93314  1  0
 93315  1  0
 95316  1  0
 96317  1  0
 97318  1  0
101319  1  0
102320  1  1
103321  1  0
103322  1  0
105323  1  0
105324  1  0
109325  1  0
110326  1  1
111327  1  0
111328  1  0
112329  1  0
113330  1  0
113331  1  0
113332  1  0
114333  1  0
114334  1  0
114335  1  0
117336  1  0
118337  1  1
119338  1  0
119339  1  0
120340  1  0
123341  1  0
125342  1  0
125343  1  0
126344  1  0
126345  1  0
127346  1  0
127347  1  0
128348  1  0
128349  1  0
129350  1  0
129351  1  0
130352  1  0
130353  1  0
131354  1  0
132355  1  0
132356  1  0
132357  1  0
135358  1  0
136359  1  6
137360  1  0
137361  1  0
138362  1  0
139363  1  0
139364  1  0
139365  1  0
140366  1  0
140367  1  0
140368  1  0
143369  1  0
144370  1  6
145371  1  0
145372  1  0
146373  1  0
147374  1  0
147375  1  0
147376  1  0
148377  1  0
148378  1  0
148379  1  0
151380  1  0
152381  1  6
153382  1  0
153383  1  0
154384  1  0
154385  1  0
157386  1  0
160387  1  0
161388  1  6
162389  1  0
162390  1  0
164391  1  0
164392  1  0
168393  1  0
169394  1  6
170395  1  0
170396  1  0
170397  1  0
173398  1  0
174399  1  6
175400  1  1
176401  1  0
176402  1  0
176403  1  0
177404  1  0
177405  1  0
178406  1  0
178407  1  0
178408  1  0
181409  1  0
183410  1  0
183411  1  0
184412  1  0
184413  1  0
185414  1  0
185415  1  0
186416  1  0
187417  1  0
187418  1  0
187419  1  0
190420  1  0
191421  1  1
192422  1  0
192423  1  0
195424  1  0
198425  1  0
199426  1  6
200427  1  6
201428  1  0
202429  1  0
202430  1  0
202431  1  0
205432  1  0
206433  1  1
207434  1  0
207435  1  0
208436  1  0
208437  1  0
208438  1  0
211439  1  0
212440  1  6
213441  1  0
213442  1  0
214443  1  0
214444  1  0
215445  1  0
215446  1  0
216447  1  0
218448  1  0
219449  1  0
219450  1  0
222451  1  0
223452  1  1
224453  1  0
224454  1  0
225455  1  0
225456  1  0
228457  1  0
231458  1  0
232459  1  6
233460  1  0
233461  1  0
234462  1  0
234463  1  0
236464  1  0
236465  1  0
240466  1  0
M  END
