
     RDKit          2D

167170  0  0  0  0  0  0  0  0999 V2000
   11.2843   -8.4586    0.0000 N   0  0  0  0  0  0  0  0  0  0  0  0
   10.6723   -7.0891    0.0000 C   0  0  0  0  0  0  0  0  0  0  0  0
   11.5523   -5.8744    0.0000 C   0  0  0  0  0  0  0  0  0  0  0  0
   10.9403   -4.5049    0.0000 C   0  0  0  0  0  0  0  0  0  0  0  0
    9.4483   -4.3502    0.0000 O   0  0  0  0  0  0  0  0  0  0  0  0
   11.8202   -3.2901    0.0000 N   0  0  0  0  0  0  0  0  0  0  0  0
   11.2082   -1.9207    0.0000 C   0  0  0  0  0  0  0  0  0  0  0  0
   12.6631   -1.5558    0.0000 C   0  0  0  0  0  0  0  0  0  0  0  0
   13.0746   -0.1133    0.0000 C   0  0  0  0  0  0  0  0  0  0  0  0
   14.5295    0.2516    0.0000 C   0  0  0  0  0  0  0  0  0  0  0  0
   14.9409    1.6941    0.0000 C   0  0  0  0  0  0  0  0  0  0  0  0
   13.8974    2.7717    0.0000 C   0  0  0  0  0  0  0  0  0  0  0  0
   12.4425    2.4067    0.0000 C   0  0  0  0  0  0  0  0  0  0  0  0
   12.0311    0.9643    0.0000 C   0  0  0  0  0  0  0  0  0  0  0  0
   10.1647   -0.8431    0.0000 C   0  0  0  0  0  0  0  0  0  0  0  0
   10.3834   -0.0765    0.0000 O   0  0  0  0  0  0  0  0  0  0  0  0
    8.7098   -1.2081    0.0000 N   0  0  0  0  0  0  0  0  0  0  0  0
    7.6663   -0.1305    0.0000 C   0  0  0  0  0  0  0  0  0  0  0  0
    8.9086    0.7100    0.0000 C   0  0  0  0  0  0  0  0  0  0  0  0
    8.8019    2.2062    0.0000 O   0  0  0  0  0  0  0  0  0  0  0  0
    6.3172    0.5252    0.0000 C   0  0  0  0  0  0  0  0  0  0  0  0
    6.3936    2.0232    0.0000 O   0  0  0  0  0  0  0  0  0  0  0  0
    5.0748   -0.3154    0.0000 N   0  0  0  0  0  0  0  0  0  0  0  0
    3.7257    0.3403    0.0000 C   0  0  0  0  0  0  0  0  0  0  0  0
    3.6829   -1.1591    0.0000 C   0  0  0  0  0  0  0  0  0  0  0  0
    3.2001   -2.5793    0.0000 C   0  0  0  0  0  0  0  0  0  0  0  0
    2.3201   -3.7940    0.0000 C   0  0  0  0  0  0  0  0  0  0  0  0
    1.1212   -4.6954    0.0000 C   0  0  0  0  0  0  0  0  0  0  0  0
    4.8782    1.3003    0.0000 C   0  0  0  0  0  0  0  0  0  0  0  0
    3.3246    1.7857    0.0000 C   0  0  0  0  0  0  0  0  0  0  0  0
    4.6940    2.3977    0.0000 O   0  0  0  0  0  0  0  0  0  0  0  0
    2.5153    3.0486    0.0000 N   0  0  0  0  0  0  0  0  0  0  0  0
    1.3697    4.0169    0.0000 C   0  0  0  0  0  0  0  0  0  0  0  0
    1.3377    5.5166    0.0000 C   0  0  0  0  0  0  0  0  0  0  0  0
    2.6204    6.2941    0.0000 C   0  0  0  0  0  0  0  0  0  0  0  0
    2.5884    7.7938    0.0000 C   0  0  0  0  0  0  0  0  0  0  0  0
    4.0917    6.5861    0.0000 C   0  0  0  0  0  0  0  0  0  0  0  0
   -0.0104    4.6045    0.0000 C   0  0  0  0  0  0  0  0  0  0  0  0
    0.3649    6.0568    0.0000 O   0  0  0  0  0  0  0  0  0  0  0  0
   -1.5024    4.7592    0.0000 N   0  0  0  0  0  0  0  0  0  0  0  0
   -2.9738    4.4673    0.0000 C   0  0  0  0  0  0  0  0  0  0  0  0
   -4.1662    5.3773    0.0000 C   0  0  0  0  0  0  0  0  0  0  0  0
   -3.9743    6.8649    0.0000 C   0  0  0  0  0  0  0  0  0  0  0  0
   -2.6580    7.5842    0.0000 C   0  0  0  0  0  0  0  0  0  0  0  0
   -2.9353    9.0583    0.0000 N   0  0  0  0  0  0  0  0  0  0  0  0
   -4.4230    9.2502    0.0000 C   0  0  0  0  0  0  0  0  0  0  0  0
   -5.2758   10.4841    0.0000 C   0  0  0  0  0  0  0  0  0  0  0  0
   -6.7709   10.3624    0.0000 C   0  0  0  0  0  0  0  0  0  0  0  0
   -7.4131    9.0069    0.0000 C   0  0  0  0  0  0  0  0  0  0  0  0
   -6.5602    7.7729    0.0000 C   0  0  0  0  0  0  0  0  0  0  0  0
   -5.0651    7.8946    0.0000 C   0  0  0  0  0  0  0  0  0  0  0  0
   -4.2936    3.7546    0.0000 C   0  0  0  0  0  0  0  0  0  0  0  0
   -5.1951    4.9535    0.0000 O   0  0  0  0  0  0  0  0  0  0  0  0
   -5.3448    2.6846    0.0000 N   0  0  0  0  0  0  0  0  0  0  0  0
   -6.0339    1.3522    0.0000 C   0  0  0  0  0  0  0  0  0  0  0  0
   -7.4889    0.9873    0.0000 C   0  0  0  0  0  0  0  0  0  0  0  0
   -8.5324    2.0648    0.0000 C   0  0  0  0  0  0  0  0  0  0  0  0
   -9.9873    1.6999    0.0000 C   0  0  0  0  0  0  0  0  0  0  0  0
  -11.0308    2.7775    0.0000 C   0  0  0  0  0  0  0  0  0  0  0  0
  -12.4857    2.4125    0.0000 N   0  0  0  0  0  0  0  0  0  0  0  0
   -6.2997   -0.1240    0.0000 C   0  0  0  0  0  0  0  0  0  0  0  0
   -7.7991   -0.0813    0.0000 O   0  0  0  0  0  0  0  0  0  0  0  0
   -6.1185   -1.6131    0.0000 N   0  0  0  0  0  0  0  0  0  0  0  0
   -5.5065   -2.9825    0.0000 C   0  0  0  0  0  0  0  0  0  0  0  0
   -4.5180   -4.1107    0.0000 C   0  0  0  0  0  0  0  0  0  0  0  0
   -3.2409   -4.8975    0.0000 C   0  0  0  0  0  0  0  0  0  0  0  0
   -1.7886   -5.2728    0.0000 C   0  0  0  0  0  0  0  0  0  0  0  0
   -0.2902   -5.2034    0.0000 C   0  0  0  0  0  0  0  0  0  0  0  0
   -7.0065   -2.9771    0.0000 C   0  0  0  0  0  0  0  0  0  0  0  0
   -6.1283   -4.3476    0.0000 C   0  0  0  0  0  0  0  0  0  0  0  0
   -5.5784   -5.7431    0.0000 O   0  0  0  0  0  0  0  0  0  0  0  0
   -7.6214   -4.4916    0.0000 N   0  0  0  0  0  0  0  0  0  0  0  0
   -8.2432   -5.8566    0.0000 C   0  0  0  0  0  0  0  0  0  0  0  0
   -8.3607   -7.3520    0.0000 C   0  0  0  0  0  0  0  0  0  0  0  0
   -9.7145   -7.9980    0.0000 C   0  0  0  0  0  0  0  0  0  0  0  0
   -9.8319   -9.4934    0.0000 C   0  0  0  0  0  0  0  0  0  0  0  0
  -11.2075   -8.1420    0.0000 C   0  0  0  0  0  0  0  0  0  0  0  0
   -9.7363   -6.0006    0.0000 C   0  0  0  0  0  0  0  0  0  0  0  0
  -10.5199   -7.2797    0.0000 O   0  0  0  0  0  0  0  0  0  0  0  0
  -10.6075   -4.7796    0.0000 O   0  0  0  0  0  0  0  0  0  0  0  0
   10.4044   -9.6733    0.0000 H   0  0  0  0  0  0  0  0  0  0  0  0
   12.7763   -8.6133    0.0000 H   0  0  0  0  0  0  0  0  0  0  0  0
    9.4299   -7.9297    0.0000 H   0  0  0  0  0  0  0  0  0  0  0  0
    9.6288   -6.0116    0.0000 H   0  0  0  0  0  0  0  0  0  0  0  0
   12.5958   -6.9519    0.0000 H   0  0  0  0  0  0  0  0  0  0  0  0
   12.7947   -5.0338    0.0000 H   0  0  0  0  0  0  0  0  0  0  0  0
   12.7795   -3.5102    0.0000 H   0  0  0  0  0  0  0  0  0  0  0  0
    9.9658   -2.7612    0.0000 H   0  0  0  0  0  0  0  0  0  0  0  0
   14.1551   -1.7105    0.0000 H   0  0  0  0  0  0  0  0  0  0  0  0
   12.8523   -2.5216    0.0000 H   0  0  0  0  0  0  0  0  0  0  0  0
   15.5730   -0.8259    0.0000 H   0  0  0  0  0  0  0  0  0  0  0  0
   16.3959    2.0590    0.0000 H   0  0  0  0  0  0  0  0  0  0  0  0
   14.3089    4.2141    0.0000 H   0  0  0  0  0  0  0  0  0  0  0  0
   11.3990    3.4843    0.0000 H   0  0  0  0  0  0  0  0  0  0  0  0
   11.0469    0.9629    0.0000 H   0  0  0  0  0  0  0  0  0  0  0  0
    8.2983   -2.6505    0.0000 H   0  0  0  0  0  0  0  0  0  0  0  0
    6.7863   -1.3453    0.0000 H   0  0  0  0  0  0  0  0  0  0  0  0
   10.2320    1.4162    0.0000 H   0  0  0  0  0  0  0  0  0  0  0  0
    9.4550    0.0128    0.0000 H   0  0  0  0  0  0  0  0  0  0  0  0
   10.0443    3.0468    0.0000 H   0  0  0  0  0  0  0  0  0  0  0  0
    5.5404   -1.7413    0.0000 H   0  0  0  0  0  0  0  0  0  0  0  0
    5.1658   -0.9335    0.0000 H   0  0  0  0  0  0  0  0  0  0  0  0
    4.7788   -2.1833    0.0000 H   0  0  0  0  0  0  0  0  0  0  0  0
    4.6836   -2.8008    0.0000 H   0  0  0  0  0  0  0  0  0  0  0  0
    4.0985   -3.7804    0.0000 H   0  0  0  0  0  0  0  0  0  0  0  0
    3.7415   -4.2734    0.0000 H   0  0  0  0  0  0  0  0  0  0  0  0
    2.6486   -5.2576    0.0000 H   0  0  0  0  0  0  0  0  0  0  0  0
    1.8338   -6.0153    0.0000 H   0  0  0  0  0  0  0  0  0  0  0  0
    6.3694    1.1383    0.0000 H   0  0  0  0  0  0  0  0  0  0  0  0
    5.4692    2.6790    0.0000 H   0  0  0  0  0  0  0  0  0  0  0  0
    4.0009    2.5171    0.0000 H   0  0  0  0  0  0  0  0  0  0  0  0
    3.6435    4.0371    0.0000 H   0  0  0  0  0  0  0  0  0  0  0  0
    2.7921    4.4931    0.0000 H   0  0  0  0  0  0  0  0  0  0  0  0
    0.6283    6.8382    0.0000 H   0  0  0  0  0  0  0  0  0  0  0  0
   -0.1606    5.5893    0.0000 H   0  0  0  0  0  0  0  0  0  0  0  0
    3.3298    4.9725    0.0000 H   0  0  0  0  0  0  0  0  0  0  0  0
    3.7668    8.7219    0.0000 H   0  0  0  0  0  0  0  0  0  0  0  0
    2.0454    9.1921    0.0000 H   0  0  0  0  0  0  0  0  0  0  0  0
    1.0924    7.6834    0.0000 H   0  0  0  0  0  0  0  0  0  0  0  0
    4.7440    7.9368    0.0000 H   0  0  0  0  0  0  0  0  0  0  0  0
    5.5741    6.3572    0.0000 H   0  0  0  0  0  0  0  0  0  0  0  0
    4.1237    5.0864    0.0000 H   0  0  0  0  0  0  0  0  0  0  0  0
   -1.3887    6.2549    0.0000 H   0  0  0  0  0  0  0  0  0  0  0  0
   -2.6347    5.9285    0.0000 H   0  0  0  0  0  0  0  0  0  0  0  0
   -5.5980    5.8245    0.0000 H   0  0  0  0  0  0  0  0  0  0  0  0
   -5.1572    4.2512    0.0000 H   0  0  0  0  0  0  0  0  0  0  0  0
   -1.2343    7.1120    0.0000 H   0  0  0  0  0  0  0  0  0  0  0  0
   -1.9056   10.1491    0.0000 H   0  0  0  0  0  0  0  0  0  0  0  0
   -4.6337   11.8397    0.0000 H   0  0  0  0  0  0  0  0  0  0  0  0
   -7.6238   11.5964    0.0000 H   0  0  0  0  0  0  0  0  0  0  0  0
   -8.9081    8.8852    0.0000 H   0  0  0  0  0  0  0  0  0  0  0  0
   -7.2024    6.4173    0.0000 H   0  0  0  0  0  0  0  0  0  0  0  0
   -6.5596    3.5645    0.0000 H   0  0  0  0  0  0  0  0  0  0  0  0
   -6.8147    2.6330    0.0000 H   0  0  0  0  0  0  0  0  0  0  0  0
   -8.6195    0.0016    0.0000 H   0  0  0  0  0  0  0  0  0  0  0  0
   -7.2264   -0.4896    0.0000 H   0  0  0  0  0  0  0  0  0  0  0  0
   -8.9729    3.4987    0.0000 H   0  0  0  0  0  0  0  0  0  0  0  0
   -7.4017    3.0506    0.0000 H   0  0  0  0  0  0  0  0  0  0  0  0
  -11.1180    0.7142    0.0000 H   0  0  0  0  0  0  0  0  0  0  0  0
   -9.5468    0.2661    0.0000 H   0  0  0  0  0  0  0  0  0  0  0  0
  -11.6428    4.1469    0.0000 H   0  0  0  0  0  0  0  0  0  0  0  0
   -9.9002    3.7632    0.0000 H   0  0  0  0  0  0  0  0  0  0  0  0
  -13.5292    3.4901    0.0000 H   0  0  0  0  0  0  0  0  0  0  0  0
  -13.7281    1.5720    0.0000 H   0  0  0  0  0  0  0  0  0  0  0  0
  -12.0452    0.9787    0.0000 H   0  0  0  0  0  0  0  0  0  0  0  0
   -7.5639   -2.0141    0.0000 H   0  0  0  0  0  0  0  0  0  0  0  0
   -4.7099   -5.5984    0.0000 H   0  0  0  0  0  0  0  0  0  0  0  0
   -5.8046   -4.8820    0.0000 H   0  0  0  0  0  0  0  0  0  0  0  0
   -3.1678   -6.3957    0.0000 H   0  0  0  0  0  0  0  0  0  0  0  0
   -4.2430   -6.0137    0.0000 H   0  0  0  0  0  0  0  0  0  0  0  0
   -1.1091   -6.6101    0.0000 H   0  0  0  0  0  0  0  0  0  0  0  0
   -2.5785   -6.5480    0.0000 H   0  0  0  0  0  0  0  0  0  0  0  0
    0.0017   -6.6747    0.0000 H   0  0  0  0  0  0  0  0  0  0  0  0
   -8.0524   -4.0524    0.0000 H   0  0  0  0  0  0  0  0  0  0  0  0
   -8.3405   -2.2913    0.0000 H   0  0  0  0  0  0  0  0  0  0  0  0
   -7.1058   -1.4804    0.0000 H   0  0  0  0  0  0  0  0  0  0  0  0
   -8.6350   -3.3858    0.0000 H   0  0  0  0  0  0  0  0  0  0  0  0
   -6.7909   -6.2319    0.0000 H   0  0  0  0  0  0  0  0  0  0  0  0
   -7.7864   -8.7377    0.0000 H   0  0  0  0  0  0  0  0  0  0  0  0
   -6.8676   -7.2080    0.0000 H   0  0  0  0  0  0  0  0  0  0  0  0
  -10.6070   -6.7924    0.0000 H   0  0  0  0  0  0  0  0  0  0  0  0
  -11.0969  -10.2995    0.0000 H   0  0  0  0  0  0  0  0  0  0  0  0
   -9.4308  -10.9388    0.0000 H   0  0  0  0  0  0  0  0  0  0  0  0
   -8.3324   -9.5324    0.0000 H   0  0  0  0  0  0  0  0  0  0  0  0
  -11.9911   -9.4210    0.0000 H   0  0  0  0  0  0  0  0  0  0  0  0
  -12.6598   -7.7666    0.0000 H   0  0  0  0  0  0  0  0  0  0  0  0
  -11.0901   -6.6466    0.0000 H   0  0  0  0  0  0  0  0  0  0  0  0
  1  2  1  0
  2  3  1  0
  3  4  1  0
  4  5  2  0
  4  6  1  0
  6  7  1  0
  7  8  1  0
  8  9  1  0
  9 10  2  0
 10 11  1  0
 11 12  2  0
 12 13  1  0
 13 14  2  0
  7 15  1  0
 15 16  2  0
 15 17  1  0
 17 18  1  0
 18 19  1  0
 19 20  1  0
 18 21  1  0
 21 22  2  0
 21 23  1  0
 24 23  1  1
 24 25  1  0
 25 26  1  0
 26 27  1  0
 27 28  1  0
 24 29  1  0
 24 30  1  0
 30 31  2  0
 30 32  1  0
 32 33  1  0
 33 34  1  0
 34 35  1  0
 35 36  1  0
 35 37  1  0
 33 38  1  0
 38 39  2  0
 38 40  1  0
 40 41  1  0
 41 42  1  0
 42 43  1  0
 43 44  2  0
 44 45  1  0
 45 46  1  0
 46 47  2  0
 47 48  1  0
 48 49  2  0
 49 50  1  0
 50 51  2  0
 41 52  1  0
 52 53  2  0
 52 54  1  0
 54 55  1  0
 55 56  1  0
 56 57  1  0
 57 58  1  0
 58 59  1  0
 59 60  1  0
 55 61  1  0
 61 62  2  0
 61 63  1  0
 63 64  1  0
 64 65  1  0
 65 66  1  0
 66 67  1  0
 67 68  1  0
 64 69  1  0
 64 70  1  1
 70 71  2  0
 70 72  1  0
 72 73  1  0
 73 74  1  0
 74 75  1  0
 75 76  1  0
 75 77  1  0
 73 78  1  0
 78 79  2  0
 78 80  1  0
 14  9  1  0
 51 43  1  0
 51 46  1  0
 28 68  2  0
  1 81  1  0
  1 82  1  0
  2 83  1  0
  2 84  1  0
  3 85  1  0
  3 86  1  0
  6 87  1  0
  7 88  1  6
  8 89  1  0
  8 90  1  0
 10 91  1  0
 11 92  1  0
 12 93  1  0
 13 94  1  0
 14 95  1  0
 17 96  1  0
 18 97  1  6
 19 98  1  0
 19 99  1  0
 20100  1  0
 23101  1  0
 25102  1  0
 25103  1  0
 26104  1  0
 26105  1  0
 27106  1  0
 27107  1  0
 28108  1  0
 29109  1  0
 29110  1  0
 29111  1  0
 32112  1  0
 33113  1  6
 34114  1  0
 34115  1  0
 35116  1  0
 36117  1  0
 36118  1  0
 36119  1  0
 37120  1  0
 37121  1  0
 37122  1  0
 40123  1  0
 41124  1  6
 42125  1  0
 42126  1  0
 44127  1  0
 45128  1  0
 47129  1  0
 48130  1  0
 49131  1  0
 50132  1  0
 54133  1  0
 55134  1  6
 56135  1  0
 56136  1  0
 57137  1  0
 57138  1  0
 58139  1  0
 58140  1  0
 59141  1  0
 59142  1  0
 60143  1  0
 60144  1  0
 60145  1  0
 63146  1  0
 65147  1  0
 65148  1  0
 66149  1  0
 66150  1  0
 67151  1  0
 67152  1  0
 68153  1  0
 69154  1  0
 69155  1  0
 69156  1  0
 72157  1  0
 73158  1  1
 74159  1  0
 74160  1  0
 75161  1  0
 76162  1  0
 76163  1  0
 76164  1  0
 77165  1  0
 77166  1  0
 77167  1  0
M  CHG  2  60   1  80  -1
M  END
