
     RDKit          2D

377382  0  0  0  0  0  0  0  0999 V2000
  -30.2062   -1.2084    0.0000 C   0  0  0  0  0  0  0  0  0  0  0  0
  -31.4397   -2.0619    0.0000 N   0  0  0  0  0  0  0  0  0  0  0  0
  -32.7956   -1.4205    0.0000 C   0  0  0  0  0  0  0  0  0  0  0  0
  -32.9180    0.0745    0.0000 C   0  0  0  0  0  0  0  0  0  0  0  0
  -34.2739    0.7160    0.0000 C   0  0  0  0  0  0  0  0  0  0  0  0
  -35.5074   -0.1376    0.0000 C   0  0  0  0  0  0  0  0  0  0  0  0
  -35.3850   -1.6326    0.0000 C   0  0  0  0  0  0  0  0  0  0  0  0
  -34.0291   -2.2740    0.0000 C   0  0  0  0  0  0  0  0  0  0  0  0
  -36.7690   -2.2110    0.0000 C   0  0  0  0  0  0  0  0  0  0  0  0
  -37.7468   -1.0735    0.0000 O   0  0  0  0  0  0  0  0  0  0  0  0
  -36.9671    0.2080    0.0000 C   0  0  0  0  0  0  0  0  0  0  0  0
  -37.5455    1.5919    0.0000 O   0  0  0  0  0  0  0  0  0  0  0  0
  -38.2058   -2.6416    0.0000 C   0  0  0  0  0  0  0  0  0  0  0  0
  -38.5514   -4.1012    0.0000 C   0  0  0  0  0  0  0  0  0  0  0  0
  -39.9882   -4.5318    0.0000 C   0  0  0  0  0  0  0  0  0  0  0  0
  -41.0796   -3.5028    0.0000 C   0  0  0  0  0  0  0  0  0  0  0  0
  -40.7341   -2.0431    0.0000 C   0  0  0  0  0  0  0  0  0  0  0  0
  -39.2972   -1.6125    0.0000 C   0  0  0  0  0  0  0  0  0  0  0  0
  -42.5164   -3.9334    0.0000 O   0  0  0  0  0  0  0  0  0  0  0  0
  -37.4600   -5.1303    0.0000 O   0  0  0  0  0  0  0  0  0  0  0  0
  -36.0232   -4.6997    0.0000 C   0  0  0  0  0  0  0  0  0  0  0  0
  -35.6776   -3.2401    0.0000 C   0  0  0  0  0  0  0  0  0  0  0  0
  -34.4020   -3.4906    0.0000 C   0  0  0  0  0  0  0  0  0  0  0  0
  -33.8200   -4.0395    0.0000 C   0  0  0  0  0  0  0  0  0  0  0  0
  -34.0043   -4.8180    0.0000 C   0  0  0  0  0  0  0  0  0  0  0  0
  -34.7706   -5.0476    0.0000 C   0  0  0  0  0  0  0  0  0  0  0  0
  -32.4036   -6.3273    0.0000 O   0  0  0  0  0  0  0  0  0  0  0  0
  -30.3286    0.2866    0.0000 S   0  0  0  0  0  0  0  0  0  0  0  0
  -28.8503   -1.8499    0.0000 N   0  0  0  0  0  0  0  0  0  0  0  0
  -27.6168   -0.9963    0.0000 C   0  0  0  0  0  0  0  0  0  0  0  0
  -26.2608   -1.6378    0.0000 C   0  0  0  0  0  0  0  0  0  0  0  0
  -25.0274   -0.7843    0.0000 C   0  0  0  0  0  0  0  0  0  0  0  0
  -25.1498    0.7107    0.0000 O   0  0  0  0  0  0  0  0  0  0  0  0
  -23.6714   -1.4257    0.0000 N   0  0  0  0  0  0  0  0  0  0  0  0
  -22.4380   -0.5722    0.0000 C   0  0  0  0  0  0  0  0  0  0  0  0
  -21.5708    0.6517    0.0000 C   0  0  0  0  0  0  0  0  0  0  0  0
  -20.0772    0.5127    0.0000 C   0  0  0  0  0  0  0  0  0  0  0  0
  -19.2101    1.7367    0.0000 O   0  0  0  0  0  0  0  0  0  0  0  0
  -19.5790   -0.1095    0.0000 O   0  0  0  0  0  0  0  0  0  0  0  0
  -21.0820   -1.2137    0.0000 C   0  0  0  0  0  0  0  0  0  0  0  0
  -20.9596   -2.7086    0.0000 O   0  0  0  0  0  0  0  0  0  0  0  0
  -19.8486   -0.3601    0.0000 N   0  0  0  0  0  0  0  0  0  0  0  0
  -18.4926   -1.0016    0.0000 C   0  0  0  0  0  0  0  0  0  0  0  0
  -17.4379   -2.0681    0.0000 C   0  0  0  0  0  0  0  0  0  0  0  0
  -15.9868   -1.6879    0.0000 C   0  0  0  0  0  0  0  0  0  0  0  0
  -14.9321   -2.7545    0.0000 C   0  0  0  0  0  0  0  0  0  0  0  0
  -13.4811   -2.3743    0.0000 N   0  0  0  0  0  0  0  0  0  0  0  0
  -12.4263   -3.4408    0.0000 C   0  0  0  0  0  0  0  0  0  0  0  0
  -11.0325   -2.8866    0.0000 N   0  0  0  0  0  0  0  0  0  0  0  0
  -12.8226   -4.8875    0.0000 N   0  0  0  0  0  0  0  0  0  0  0  0
  -17.2591   -0.1480    0.0000 C   0  0  0  0  0  0  0  0  0  0  0  0
  -17.3816    1.3469    0.0000 O   0  0  0  0  0  0  0  0  0  0  0  0
  -15.9032   -0.7895    0.0000 N   0  0  0  0  0  0  0  0  0  0  0  0
  -14.6697    0.0640    0.0000 C   0  0  0  0  0  0  0  0  0  0  0  0
  -13.8026    1.2880    0.0000 C   0  0  0  0  0  0  0  0  0  0  0  0
  -12.3090    1.1489    0.0000 C   0  0  0  0  0  0  0  0  0  0  0  0
  -11.4419    2.3729    0.0000 C   0  0  0  0  0  0  0  0  0  0  0  0
   -9.9483    2.2339    0.0000 N   0  0  0  0  0  0  0  0  0  0  0  0
   -9.0811    3.4578    0.0000 C   0  0  0  0  0  0  0  0  0  0  0  0
   -7.6157    3.1377    0.0000 N   0  0  0  0  0  0  0  0  0  0  0  0
   -9.7075    4.8207    0.0000 N   0  0  0  0  0  0  0  0  0  0  0  0
  -13.3138   -0.5774    0.0000 C   0  0  0  0  0  0  0  0  0  0  0  0
  -12.8333   -1.9984    0.0000 O   0  0  0  0  0  0  0  0  0  0  0  0
  -12.0803    0.2761    0.0000 N   0  0  0  0  0  0  0  0  0  0  0  0
  -10.7244   -0.3654    0.0000 C   0  0  0  0  0  0  0  0  0  0  0  0
   -9.6696   -1.4319    0.0000 C   0  0  0  0  0  0  0  0  0  0  0  0
   -8.2186   -1.0517    0.0000 C   0  0  0  0  0  0  0  0  0  0  0  0
   -7.1639   -2.1182    0.0000 C   0  0  0  0  0  0  0  0  0  0  0  0
   -5.6773   -1.9178    0.0000 N   0  0  0  0  0  0  0  0  0  0  0  0
   -7.5601   -3.5649    0.0000 O   0  0  0  0  0  0  0  0  0  0  0  0
   -9.4909    0.4882    0.0000 C   0  0  0  0  0  0  0  0  0  0  0  0
   -9.2480    1.9684    0.0000 O   0  0  0  0  0  0  0  0  0  0  0  0
   -8.1350   -0.1533    0.0000 N   0  0  0  0  0  0  0  0  0  0  0  0
   -6.9015    0.7002    0.0000 C   0  0  0  0  0  0  0  0  0  0  0  0
   -6.0344    1.9242    0.0000 C   0  0  0  0  0  0  0  0  0  0  0  0
   -4.5408    1.7852    0.0000 C   0  0  0  0  0  0  0  0  0  0  0  0
   -3.6736    3.0091    0.0000 C   0  0  0  0  0  0  0  0  0  0  0  0
   -2.1801    2.8701    0.0000 N   0  0  0  0  0  0  0  0  0  0  0  0
   -1.3129    4.0940    0.0000 C   0  0  0  0  0  0  0  0  0  0  0  0
    0.1525    3.7740    0.0000 N   0  0  0  0  0  0  0  0  0  0  0  0
   -1.9393    5.4570    0.0000 N   0  0  0  0  0  0  0  0  0  0  0  0
   -5.5456    0.0588    0.0000 C   0  0  0  0  0  0  0  0  0  0  0  0
   -5.2418   -1.4101    0.0000 O   0  0  0  0  0  0  0  0  0  0  0  0
   -4.3121    0.9123    0.0000 N   0  0  0  0  0  0  0  0  0  0  0  0
   -2.9562    0.2709    0.0000 C   0  0  0  0  0  0  0  0  0  0  0  0
   -1.9014   -0.7957    0.0000 C   0  0  0  0  0  0  0  0  0  0  0  0
   -0.4504   -0.4155    0.0000 C   0  0  0  0  0  0  0  0  0  0  0  0
    0.6043   -1.4820    0.0000 C   0  0  0  0  0  0  0  0  0  0  0  0
    2.0554   -1.1018    0.0000 N   0  0  0  0  0  0  0  0  0  0  0  0
    3.1101   -2.1684    0.0000 C   0  0  0  0  0  0  0  0  0  0  0  0
    4.6010   -2.3335    0.0000 N   0  0  0  0  0  0  0  0  0  0  0  0
    2.7139   -3.6151    0.0000 N   0  0  0  0  0  0  0  0  0  0  0  0
   -1.7227    1.1244    0.0000 C   0  0  0  0  0  0  0  0  0  0  0  0
   -1.4798    2.6046    0.0000 O   0  0  0  0  0  0  0  0  0  0  0  0
   -0.3668    0.4829    0.0000 N   0  0  0  0  0  0  0  0  0  0  0  0
    0.8667    1.3365    0.0000 C   0  0  0  0  0  0  0  0  0  0  0  0
    1.7339    2.5604    0.0000 C   0  0  0  0  0  0  0  0  0  0  0  0
    3.2274    2.4214    0.0000 C   0  0  0  0  0  0  0  0  0  0  0  0
    4.0946    3.6453    0.0000 C   0  0  0  0  0  0  0  0  0  0  0  0
    5.5881    3.5063    0.0000 N   0  0  0  0  0  0  0  0  0  0  0  0
    6.4553    4.7302    0.0000 C   0  0  0  0  0  0  0  0  0  0  0  0
    7.9488    4.5912    0.0000 N   0  0  0  0  0  0  0  0  0  0  0  0
    6.1773    6.2043    0.0000 N   0  0  0  0  0  0  0  0  0  0  0  0
    2.2226    0.6950    0.0000 C   0  0  0  0  0  0  0  0  0  0  0  0
    2.5264   -0.7739    0.0000 O   0  0  0  0  0  0  0  0  0  0  0  0
    3.4561    1.5485    0.0000 N   0  0  0  0  0  0  0  0  0  0  0  0
    4.8120    0.9071    0.0000 C   0  0  0  0  0  0  0  0  0  0  0  0
    5.2283   -0.5340    0.0000 C   0  0  0  0  0  0  0  0  0  0  0  0
    6.0508   -1.7884    0.0000 C   0  0  0  0  0  0  0  0  0  0  0  0
    7.2065   -2.7446    0.0000 C   0  0  0  0  0  0  0  0  0  0  0  0
    8.5927   -3.3177    0.0000 C   0  0  0  0  0  0  0  0  0  0  0  0
    3.5597    0.0815    0.0000 C   0  0  0  0  0  0  0  0  0  0  0  0
    4.8391    2.4068    0.0000 C   0  0  0  0  0  0  0  0  0  0  0  0
    3.5480    3.1706    0.0000 O   0  0  0  0  0  0  0  0  0  0  0  0
    5.3069    3.8320    0.0000 N   0  0  0  0  0  0  0  0  0  0  0  0
    6.1741    5.0559    0.0000 C   0  0  0  0  0  0  0  0  0  0  0  0
    5.8302    6.5160    0.0000 C   0  0  0  0  0  0  0  0  0  0  0  0
    4.3938    6.9482    0.0000 C   0  0  0  0  0  0  0  0  0  0  0  0
    4.0499    8.4082    0.0000 C   0  0  0  0  0  0  0  0  0  0  0  0
    2.6136    8.8404    0.0000 N   0  0  0  0  0  0  0  0  0  0  0  0
    2.2697   10.3005    0.0000 C   0  0  0  0  0  0  0  0  0  0  0  0
    0.8333   10.7327    0.0000 N   0  0  0  0  0  0  0  0  0  0  0  0
    3.3622   11.3283    0.0000 N   0  0  0  0  0  0  0  0  0  0  0  0
    7.3635    5.9699    0.0000 C   0  0  0  0  0  0  0  0  0  0  0  0
    6.8024    7.3610    0.0000 O   0  0  0  0  0  0  0  0  0  0  0  0
    8.7695    6.4927    0.0000 N   0  0  0  0  0  0  0  0  0  0  0  0
   10.2670    6.5778    0.0000 C   0  0  0  0  0  0  0  0  0  0  0  0
   11.1941    7.7570    0.0000 C   0  0  0  0  0  0  0  0  0  0  0  0
   10.6365    9.1495    0.0000 C   0  0  0  0  0  0  0  0  0  0  0  0
   11.5636   10.3287    0.0000 C   0  0  0  0  0  0  0  0  0  0  0  0
   11.0059   11.7211    0.0000 N   0  0  0  0  0  0  0  0  0  0  0  0
   13.0483   10.1154    0.0000 O   0  0  0  0  0  0  0  0  0  0  0  0
   11.7232    6.2177    0.0000 C   0  0  0  0  0  0  0  0  0  0  0  0
   12.2963    7.6039    0.0000 O   0  0  0  0  0  0  0  0  0  0  0  0
   13.0085    5.4444    0.0000 N   0  0  0  0  0  0  0  0  0  0  0  0
   14.0088    4.3267    0.0000 C   0  0  0  0  0  0  0  0  0  0  0  0
   15.5088    4.3370    0.0000 C   0  0  0  0  0  0  0  0  0  0  0  0
   16.2497    5.6412    0.0000 C   0  0  0  0  0  0  0  0  0  0  0  0
   17.7497    5.6516    0.0000 C   0  0  0  0  0  0  0  0  0  0  0  0
   18.4907    6.9558    0.0000 N   0  0  0  0  0  0  0  0  0  0  0  0
   19.9907    6.9662    0.0000 C   0  0  0  0  0  0  0  0  0  0  0  0
   20.7317    8.2704    0.0000 N   0  0  0  0  0  0  0  0  0  0  0  0
   20.7496    5.6724    0.0000 N   0  0  0  0  0  0  0  0  0  0  0  0
   14.6352    2.9637    0.0000 C   0  0  0  0  0  0  0  0  0  0  0  0
   16.0763    3.3800    0.0000 O   0  0  0  0  0  0  0  0  0  0  0  0
   14.8320    1.4767    0.0000 N   0  0  0  0  0  0  0  0  0  0  0  0
   14.5817   -0.0023    0.0000 C   0  0  0  0  0  0  0  0  0  0  0  0
   13.9067   -1.3418    0.0000 C   0  0  0  0  0  0  0  0  0  0  0  0
   12.8668   -2.4228    0.0000 C   0  0  0  0  0  0  0  0  0  0  0  0
   11.5544   -3.1493    0.0000 C   0  0  0  0  0  0  0  0  0  0  0  0
   10.0863   -3.4567    0.0000 C   0  0  0  0  0  0  0  0  0  0  0  0
   16.0327    0.3779    0.0000 C   0  0  0  0  0  0  0  0  0  0  0  0
   15.5250   -1.1685    0.0000 C   0  0  0  0  0  0  0  0  0  0  0  0
   15.3415   -2.6573    0.0000 O   0  0  0  0  0  0  0  0  0  0  0  0
   17.0067   -0.9347    0.0000 N   0  0  0  0  0  0  0  0  0  0  0  0
   17.9500   -2.1010    0.0000 C   0  0  0  0  0  0  0  0  0  0  0  0
   18.4376   -3.5195    0.0000 C   0  0  0  0  0  0  0  0  0  0  0  0
   17.4529   -4.6510    0.0000 C   0  0  0  0  0  0  0  0  0  0  0  0
   17.9404   -6.0696    0.0000 C   0  0  0  0  0  0  0  0  0  0  0  0
   16.9557   -7.2011    0.0000 N   0  0  0  0  0  0  0  0  0  0  0  0
   17.4433   -8.6197    0.0000 C   0  0  0  0  0  0  0  0  0  0  0  0
   16.4585   -9.7512    0.0000 N   0  0  0  0  0  0  0  0  0  0  0  0
   18.9155   -8.9067    0.0000 N   0  0  0  0  0  0  0  0  0  0  0  0
   19.4317   -1.8672    0.0000 C   0  0  0  0  0  0  0  0  0  0  0  0
   19.9700   -0.4671    0.0000 O   0  0  0  0  0  0  0  0  0  0  0  0
   20.3750   -3.0334    0.0000 N   0  0  0  0  0  0  0  0  0  0  0  0
   21.8567   -2.7996    0.0000 C   0  0  0  0  0  0  0  0  0  0  0  0
   23.1690   -2.0731    0.0000 C   0  0  0  0  0  0  0  0  0  0  0  0
   24.4543   -2.8464    0.0000 C   0  0  0  0  0  0  0  0  0  0  0  0
   25.7667   -2.1199    0.0000 C   0  0  0  0  0  0  0  0  0  0  0  0
   27.0520   -2.8932    0.0000 N   0  0  0  0  0  0  0  0  0  0  0  0
   28.3643   -2.1667    0.0000 C   0  0  0  0  0  0  0  0  0  0  0  0
   29.6497   -2.9400    0.0000 N   0  0  0  0  0  0  0  0  0  0  0  0
   28.3914   -0.6670    0.0000 N   0  0  0  0  0  0  0  0  0  0  0  0
   22.8000   -3.9658    0.0000 C   0  0  0  0  0  0  0  0  0  0  0  0
   22.2617   -5.3659    0.0000 O   0  0  0  0  0  0  0  0  0  0  0  0
   24.2817   -3.7320    0.0000 N   0  0  0  0  0  0  0  0  0  0  0  0
   25.2250   -4.8983    0.0000 C   0  0  0  0  0  0  0  0  0  0  0  0
   25.7126   -6.3168    0.0000 C   0  0  0  0  0  0  0  0  0  0  0  0
   24.7278   -7.4483    0.0000 C   0  0  0  0  0  0  0  0  0  0  0  0
   25.2154   -8.8669    0.0000 C   0  0  0  0  0  0  0  0  0  0  0  0
   24.2307   -9.9984    0.0000 N   0  0  0  0  0  0  0  0  0  0  0  0
   24.7182  -11.4169    0.0000 C   0  0  0  0  0  0  0  0  0  0  0  0
   23.7335  -12.5485    0.0000 N   0  0  0  0  0  0  0  0  0  0  0  0
   26.1905  -11.7040    0.0000 N   0  0  0  0  0  0  0  0  0  0  0  0
   26.7067   -4.6644    0.0000 C   0  0  0  0  0  0  0  0  0  0  0  0
   27.7851   -5.7070    0.0000 O   0  0  0  0  0  0  0  0  0  0  0  0
   27.5678   -3.4362    0.0000 O   0  0  0  0  0  0  0  0  0  0  0  0
  -31.1359   -3.5309    0.0000 H   0  0  0  0  0  0  0  0  0  0  0  0
  -31.6845    0.9280    0.0000 H   0  0  0  0  0  0  0  0  0  0  0  0
  -34.3964    2.2110    0.0000 H   0  0  0  0  0  0  0  0  0  0  0  0
  -33.5485   -3.6950    0.0000 H   0  0  0  0  0  0  0  0  0  0  0  0
  -40.3338   -5.9915    0.0000 H   0  0  0  0  0  0  0  0  0  0  0  0
  -41.8254   -1.0140    0.0000 H   0  0  0  0  0  0  0  0  0  0  0  0
  -38.9517   -0.1529    0.0000 H   0  0  0  0  0  0  0  0  0  0  0  0
  -43.6078   -2.9043    0.0000 H   0  0  0  0  0  0  0  0  0  0  0  0
  -33.8952   -1.3498    0.0000 H   0  0  0  0  0  0  0  0  0  0  0  0
  -31.6708   -3.5863    0.0000 H   0  0  0  0  0  0  0  0  0  0  0  0
  -35.2774   -7.1884    0.0000 H   0  0  0  0  0  0  0  0  0  0  0  0
  -32.7492   -7.7869    0.0000 H   0  0  0  0  0  0  0  0  0  0  0  0
  -28.7278   -3.3449    0.0000 H   0  0  0  0  0  0  0  0  0  0  0  0
  -26.7496    0.2276    0.0000 H   0  0  0  0  0  0  0  0  0  0  0  0
  -28.6715    0.0702    0.0000 H   0  0  0  0  0  0  0  0  0  0  0  0
  -25.2061   -2.7043    0.0000 H   0  0  0  0  0  0  0  0  0  0  0  0
  -27.1280   -2.8617    0.0000 H   0  0  0  0  0  0  0  0  0  0  0  0
  -23.5490   -2.9207    0.0000 H   0  0  0  0  0  0  0  0  0  0  0  0
  -23.4927    0.4943    0.0000 H   0  0  0  0  0  0  0  0  0  0  0  0
  -21.1745    2.0985    0.0000 H   0  0  0  0  0  0  0  0  0  0  0  0
  -22.9267    1.2932    0.0000 H   0  0  0  0  0  0  0  0  0  0  0  0
  -19.6056    1.1201    0.0000 H   0  0  0  0  0  0  0  0  0  0  0  0
  -19.3598   -2.2255    0.0000 H   0  0  0  0  0  0  0  0  0  0  0  0
  -16.9823   -3.4973    0.0000 H   0  0  0  0  0  0  0  0  0  0  0  0
  -18.6714   -2.9216    0.0000 H   0  0  0  0  0  0  0  0  0  0  0  0
  -14.7534   -0.8344    0.0000 H   0  0  0  0  0  0  0  0  0  0  0  0
  -15.8999   -0.1904    0.0000 H   0  0  0  0  0  0  0  0  0  0  0  0
  -14.3057   -4.1174    0.0000 H   0  0  0  0  0  0  0  0  0  0  0  0
  -16.0523   -3.7520    0.0000 H   0  0  0  0  0  0  0  0  0  0  0  0
  -12.5926   -1.1657    0.0000 H   0  0  0  0  0  0  0  0  0  0  0  0
   -9.9205   -4.1271    0.0000 H   0  0  0  0  0  0  0  0  0  0  0  0
  -10.7375   -1.5681    0.0000 H   0  0  0  0  0  0  0  0  0  0  0  0
  -11.7678   -5.9540    0.0000 H   0  0  0  0  0  0  0  0  0  0  0  0
  -14.2736   -5.2677    0.0000 H   0  0  0  0  0  0  0  0  0  0  0  0
  -15.4227   -2.2104    0.0000 H   0  0  0  0  0  0  0  0  0  0  0  0
  -15.7245    1.1306    0.0000 H   0  0  0  0  0  0  0  0  0  0  0  0
  -13.5856    2.7722    0.0000 H   0  0  0  0  0  0  0  0  0  0  0  0
  -15.1585    1.9294    0.0000 H   0  0  0  0  0  0  0  0  0  0  0  0
  -10.9531    0.5075    0.0000 H   0  0  0  0  0  0  0  0  0  0  0  0
  -11.8036   -0.2634    0.0000 H   0  0  0  0  0  0  0  0  0  0  0  0
  -11.0456    3.8196    0.0000 H   0  0  0  0  0  0  0  0  0  0  0  0
  -12.7095    3.1748    0.0000 H   0  0  0  0  0  0  0  0  0  0  0  0
   -8.8750    1.1860    0.0000 H   0  0  0  0  0  0  0  0  0  0  0  0
   -6.7204    4.5427    0.0000 H   0  0  0  0  0  0  0  0  0  0  0  0
   -7.1102    1.8848    0.0000 H   0  0  0  0  0  0  0  0  0  0  0  0
   -8.8404    6.0447    0.0000 H   0  0  0  0  0  0  0  0  0  0  0  0
  -11.2011    4.9598    0.0000 H   0  0  0  0  0  0  0  0  0  0  0  0
  -11.8374    1.7563    0.0000 H   0  0  0  0  0  0  0  0  0  0  0  0
  -11.5916   -1.5893    0.0000 H   0  0  0  0  0  0  0  0  0  0  0  0
   -9.0433   -2.7948    0.0000 H   0  0  0  0  0  0  0  0  0  0  0  0
  -11.0730   -1.9616    0.0000 H   0  0  0  0  0  0  0  0  0  0  0  0
   -6.9851   -0.1982    0.0000 H   0  0  0  0  0  0  0  0  0  0  0  0
   -7.9498    0.4240    0.0000 H   0  0  0  0  0  0  0  0  0  0  0  0
   -4.6581   -2.8046    0.0000 H   0  0  0  0  0  0  0  0  0  0  0  0
   -4.7576   -0.5287    0.0000 H   0  0  0  0  0  0  0  0  0  0  0  0
   -7.6544   -1.5742    0.0000 H   0  0  0  0  0  0  0  0  0  0  0  0
   -7.9563    1.7668    0.0000 H   0  0  0  0  0  0  0  0  0  0  0  0
   -5.8174    3.4084    0.0000 H   0  0  0  0  0  0  0  0  0  0  0  0
   -7.5052    2.2185    0.0000 H   0  0  0  0  0  0  0  0  0  0  0  0
   -3.1849    1.1437    0.0000 H   0  0  0  0  0  0  0  0  0  0  0  0
   -4.0354    0.3729    0.0000 H   0  0  0  0  0  0  0  0  0  0  0  0
   -3.2774    4.4558    0.0000 H   0  0  0  0  0  0  0  0  0  0  0  0
   -4.9413    3.8111    0.0000 H   0  0  0  0  0  0  0  0  0  0  0  0
   -1.1068    1.8222    0.0000 H   0  0  0  0  0  0  0  0  0  0  0  0
    1.0478    5.1789    0.0000 H   0  0  0  0  0  0  0  0  0  0  0  0
    0.6580    2.5211    0.0000 H   0  0  0  0  0  0  0  0  0  0  0  0
   -1.0721    6.6809    0.0000 H   0  0  0  0  0  0  0  0  0  0  0  0
   -3.4328    5.5960    0.0000 H   0  0  0  0  0  0  0  0  0  0  0  0
   -4.0692    2.3925    0.0000 H   0  0  0  0  0  0  0  0  0  0  0  0
   -3.8234   -0.9531    0.0000 H   0  0  0  0  0  0  0  0  0  0  0  0
   -1.4459   -2.2248    0.0000 H   0  0  0  0  0  0  0  0  0  0  0  0
   -3.1349   -1.6492    0.0000 H   0  0  0  0  0  0  0  0  0  0  0  0
    0.7831    0.4381    0.0000 H   0  0  0  0  0  0  0  0  0  0  0  0
   -0.1815    1.0602    0.0000 H   0  0  0  0  0  0  0  0  0  0  0  0
    1.2307   -2.8450    0.0000 H   0  0  0  0  0  0  0  0  0  0  0  0
   -0.5159   -2.4795    0.0000 H   0  0  0  0  0  0  0  0  0  0  0  0
    2.9439    0.1067    0.0000 H   0  0  0  0  0  0  0  0  0  0  0  0
    5.4156   -3.0772    0.0000 H   0  0  0  0  0  0  0  0  0  0  0  0
    5.2957   -0.4803    0.0000 H   0  0  0  0  0  0  0  0  0  0  0  0
    3.7686   -4.6816    0.0000 H   0  0  0  0  0  0  0  0  0  0  0  0
    1.2628   -3.9953    0.0000 H   0  0  0  0  0  0  0  0  0  0  0  0
    0.1138   -0.9380    0.0000 H   0  0  0  0  0  0  0  0  0  0  0  0
   -0.1881    2.4030    0.0000 H   0  0  0  0  0  0  0  0  0  0  0  0
    1.9508    4.0446    0.0000 H   0  0  0  0  0  0  0  0  0  0  0  0
    0.2630    2.8547    0.0000 H   0  0  0  0  0  0  0  0  0  0  0  0
    4.6983    2.1271    0.0000 H   0  0  0  0  0  0  0  0  0  0  0  0
    3.5569    0.9580    0.0000 H   0  0  0  0  0  0  0  0  0  0  0  0
    3.9459    5.1379    0.0000 H   0  0  0  0  0  0  0  0  0  0  0  0
    2.8270    4.4473    0.0000 H   0  0  0  0  0  0  0  0  0  0  0  0
    6.2145    2.1433    0.0000 H   0  0  0  0  0  0  0  0  0  0  0  0
    9.0864    5.5689    0.0000 H   0  0  0  0  0  0  0  0  0  0  0  0
    8.5752    3.2283    0.0000 H   0  0  0  0  0  0  0  0  0  0  0  0
    6.5566    7.3721    0.0000 H   0  0  0  0  0  0  0  0  0  0  0  0
    4.4477    5.5701    0.0000 H   0  0  0  0  0  0  0  0  0  0  0  0
    3.5168    3.0473    0.0000 H   0  0  0  0  0  0  0  0  0  0  0  0
    3.7286   -0.5033    0.0000 H   0  0  0  0  0  0  0  0  0  0  0  0
    4.5835   -1.8883    0.0000 H   0  0  0  0  0  0  0  0  0  0  0  0
    4.7514   -2.5378    0.0000 H   0  0  0  0  0  0  0  0  0  0  0  0
    5.6545   -3.2351    0.0000 H   0  0  0  0  0  0  0  0  0  0  0  0
    6.0593   -3.7111    0.0000 H   0  0  0  0  0  0  0  0  0  0  0  0
    7.2543   -4.2438    0.0000 H   0  0  0  0  0  0  0  0  0  0  0  0
    8.2326   -4.7738    0.0000 H   0  0  0  0  0  0  0  0  0  0  0  0
    3.7398   -1.5747    0.0000 H   0  0  0  0  0  0  0  0  0  0  0  0
    2.1918   -0.4248    0.0000 H   0  0  0  0  0  0  0  0  0  0  0  0
    2.5426    0.9199    0.0000 H   0  0  0  0  0  0  0  0  0  0  0  0
    4.0597    4.6653    0.0000 H   0  0  0  0  0  0  0  0  0  0  0  0
    4.7018    5.3430    0.0000 H   0  0  0  0  0  0  0  0  0  0  0  0
    6.1867    7.9730    0.0000 H   0  0  0  0  0  0  0  0  0  0  0  0
    7.2627    6.9610    0.0000 H   0  0  0  0  0  0  0  0  0  0  0  0
    2.8962    6.8631    0.0000 H   0  0  0  0  0  0  0  0  0  0  0  0
    3.6954    5.6207    0.0000 H   0  0  0  0  0  0  0  0  0  0  0  0
    4.2261    9.8979    0.0000 H   0  0  0  0  0  0  0  0  0  0  0  0
    5.5260    8.6753    0.0000 H   0  0  0  0  0  0  0  0  0  0  0  0
    1.5211    7.8126    0.0000 H   0  0  0  0  0  0  0  0  0  0  0  0
    0.4894   12.1927    0.0000 H   0  0  0  0  0  0  0  0  0  0  0  0
   -0.2592    9.7049    0.0000 H   0  0  0  0  0  0  0  0  0  0  0  0
    3.0183   12.7884    0.0000 H   0  0  0  0  0  0  0  0  0  0  0  0
    4.7985   10.8961    0.0000 H   0  0  0  0  0  0  0  0  0  0  0  0
    8.4621    7.9608    0.0000 H   0  0  0  0  0  0  0  0  0  0  0  0
    9.4166    7.8134    0.0000 H   0  0  0  0  0  0  0  0  0  0  0  0
   12.4686    8.5480    0.0000 H   0  0  0  0  0  0  0  0  0  0  0  0
   12.4352    6.9145    0.0000 H   0  0  0  0  0  0  0  0  0  0  0  0
    9.6362   10.2673    0.0000 H   0  0  0  0  0  0  0  0  0  0  0  0
    9.2751    8.5197    0.0000 H   0  0  0  0  0  0  0  0  0  0  0  0
   11.9330   12.9003    0.0000 H   0  0  0  0  0  0  0  0  0  0  0  0
    9.5212   11.9344    0.0000 H   0  0  0  0  0  0  0  0  0  0  0  0
   13.9647    6.6002    0.0000 H   0  0  0  0  0  0  0  0  0  0  0  0
   14.4445    5.7620    0.0000 H   0  0  0  0  0  0  0  0  0  0  0  0
   16.8499    3.6653    0.0000 H   0  0  0  0  0  0  0  0  0  0  0  0
   15.6238    2.8415    0.0000 H   0  0  0  0  0  0  0  0  0  0  0  0
   16.5000    7.1202    0.0000 H   0  0  0  0  0  0  0  0  0  0  0  0
   14.9086    6.3130    0.0000 H   0  0  0  0  0  0  0  0  0  0  0  0
   19.1628    5.1484    0.0000 H   0  0  0  0  0  0  0  0  0  0  0  0
   17.6816    4.1532    0.0000 H   0  0  0  0  0  0  0  0  0  0  0  0
   17.7317    8.2496    0.0000 H   0  0  0  0  0  0  0  0  0  0  0  0
   22.2316    8.2808    0.0000 H   0  0  0  0  0  0  0  0  0  0  0  0
   19.9727    9.5642    0.0000 H   0  0  0  0  0  0  0  0  0  0  0  0
   22.2496    5.6828    0.0000 H   0  0  0  0  0  0  0  0  0  0  0  0
   20.0086    4.3682    0.0000 H   0  0  0  0  0  0  0  0  0  0  0  0
   16.3317    1.4497    0.0000 H   0  0  0  0  0  0  0  0  0  0  0  0
   14.4643   -2.7343    0.0000 H   0  0  0  0  0  0  0  0  0  0  0  0
   15.3452   -1.7669    0.0000 H   0  0  0  0  0  0  0  0  0  0  0  0
   13.1705   -3.8918    0.0000 H   0  0  0  0  0  0  0  0  0  0  0  0
   14.1160   -3.2531    0.0000 H   0  0  0  0  0  0  0  0  0  0  0  0
   11.2308   -4.6140    0.0000 H   0  0  0  0  0  0  0  0  0  0  0  0
   12.6380   -4.1865    0.0000 H   0  0  0  0  0  0  0  0  0  0  0  0
   10.1714   -4.9543    0.0000 H   0  0  0  0  0  0  0  0  0  0  0  0
   17.3142   -0.4017    0.0000 H   0  0  0  0  0  0  0  0  0  0  0  0
   17.1530    1.3754    0.0000 H   0  0  0  0  0  0  0  0  0  0  0  0
   15.7548    1.8519    0.0000 H   0  0  0  0  0  0  0  0  0  0  0  0
   17.7117    0.3893    0.0000 H   0  0  0  0  0  0  0  0  0  0  0  0
   16.5589   -2.6621    0.0000 H   0  0  0  0  0  0  0  0  0  0  0  0
   19.3809   -4.6858    0.0000 H   0  0  0  0  0  0  0  0  0  0  0  0
   19.8867   -3.1322    0.0000 H   0  0  0  0  0  0  0  0  0  0  0  0
   16.1405   -5.3775    0.0000 H   0  0  0  0  0  0  0  0  0  0  0  0
   16.3744   -3.6085    0.0000 H   0  0  0  0  0  0  0  0  0  0  0  0
   18.8838   -7.2358    0.0000 H   0  0  0  0  0  0  0  0  0  0  0  0
   19.3315   -5.5085    0.0000 H   0  0  0  0  0  0  0  0  0  0  0  0
   15.4834   -6.9141    0.0000 H   0  0  0  0  0  0  0  0  0  0  0  0
   16.9461  -11.1697    0.0000 H   0  0  0  0  0  0  0  0  0  0  0  0
   14.9863   -9.4641    0.0000 H   0  0  0  0  0  0  0  0  0  0  0  0
   19.4031  -10.3252    0.0000 H   0  0  0  0  0  0  0  0  0  0  0  0
   19.9003   -7.7752    0.0000 H   0  0  0  0  0  0  0  0  0  0  0  0
   20.0114   -4.4887    0.0000 H   0  0  0  0  0  0  0  0  0  0  0  0
   21.3691   -1.3810    0.0000 H   0  0  0  0  0  0  0  0  0  0  0  0
   24.0085   -0.8300    0.0000 H   0  0  0  0  0  0  0  0  0  0  0  0
   22.2257   -0.9069    0.0000 H   0  0  0  0  0  0  0  0  0  0  0  0
   25.3977   -4.0126    0.0000 H   0  0  0  0  0  0  0  0  0  0  0  0
   24.1163   -4.3078    0.0000 H   0  0  0  0  0  0  0  0  0  0  0  0
   26.7514   -0.9884    0.0000 H   0  0  0  0  0  0  0  0  0  0  0  0
   24.9726   -0.8474    0.0000 H   0  0  0  0  0  0  0  0  0  0  0  0
   27.3887   -4.3549    0.0000 H   0  0  0  0  0  0  0  0  0  0  0  0
   30.9620   -2.2135    0.0000 H   0  0  0  0  0  0  0  0  0  0  0  0
   29.6226   -4.4397    0.0000 H   0  0  0  0  0  0  0  0  0  0  0  0
   29.7037    0.0595    0.0000 H   0  0  0  0  0  0  0  0  0  0  0  0
   27.1060    0.1063    0.0000 H   0  0  0  0  0  0  0  0  0  0  0  0
   25.1428   -2.5038    0.0000 H   0  0  0  0  0  0  0  0  0  0  0  0
   23.8339   -5.4594    0.0000 H   0  0  0  0  0  0  0  0  0  0  0  0
   26.7910   -7.3594    0.0000 H   0  0  0  0  0  0  0  0  0  0  0  0
   27.1037   -5.7557    0.0000 H   0  0  0  0  0  0  0  0  0  0  0  0
   23.4155   -8.1748    0.0000 H   0  0  0  0  0  0  0  0  0  0  0  0
   23.6494   -6.4058    0.0000 H   0  0  0  0  0  0  0  0  0  0  0  0
   26.1587  -10.0331    0.0000 H   0  0  0  0  0  0  0  0  0  0  0  0
   26.6065   -8.3058    0.0000 H   0  0  0  0  0  0  0  0  0  0  0  0
   22.7584   -9.7114    0.0000 H   0  0  0  0  0  0  0  0  0  0  0  0
   24.2211  -13.9670    0.0000 H   0  0  0  0  0  0  0  0  0  0  0  0
   22.2612  -12.2614    0.0000 H   0  0  0  0  0  0  0  0  0  0  0  0
   26.6781  -13.1225    0.0000 H   0  0  0  0  0  0  0  0  0  0  0  0
   27.1752  -10.5725    0.0000 H   0  0  0  0  0  0  0  0  0  0  0  0
  1  2  1  0
  2  3  1  0
  3  4  2  0
  4  5  1  0
  5  6  2  0
  6  7  1  0
  7  8  2  0
  7  9  1  0
  9 10  1  0
 10 11  1  0
 11 12  2  0
  9 13  1  0
 13 14  1  0
 14 15  2  0
 15 16  1  0
 16 17  2  0
 17 18  1  0
 16 19  1  0
 14 20  1  0
 20 21  1  0
 21 22  2  0
 22 23  1  0
 23 24  2  0
 24 25  1  0
 25 26  2  0
 25 27  1  0
  1 28  2  0
  1 29  1  0
 29 30  1  0
 30 31  1  0
 31 32  1  0
 32 33  2  0
 32 34  1  0
 34 35  1  0
 35 36  1  0
 36 37  1  0
 37 38  2  0
 37 39  1  0
 35 40  1  0
 40 41  2  0
 40 42  1  0
 42 43  1  0
 43 44  1  0
 44 45  1  0
 45 46  1  0
 46 47  1  0
 47 48  1  0
 48 49  2  3
 48 50  1  0
 43 51  1  0
 51 52  2  0
 51 53  1  0
 53 54  1  0
 54 55  1  0
 55 56  1  0
 56 57  1  0
 57 58  1  0
 58 59  1  0
 59 60  2  3
 59 61  1  0
 54 62  1  0
 62 63  2  0
 62 64  1  0
 64 65  1  0
 65 66  1  0
 66 67  1  0
 67 68  1  0
 68 69  1  0
 68 70  2  0
 65 71  1  0
 71 72  2  0
 71 73  1  0
 73 74  1  0
 74 75  1  0
 75 76  1  0
 76 77  1  0
 77 78  1  0
 78 79  1  0
 79 80  2  3
 79 81  1  0
 74 82  1  0
 82 83  2  0
 82 84  1  0
 84 85  1  0
 85 86  1  0
 86 87  1  0
 87 88  1  0
 88 89  1  0
 89 90  1  0
 90 91  2  3
 90 92  1  0
 85 93  1  0
 93 94  2  0
 93 95  1  0
 95 96  1  0
 96 97  1  0
 97 98  1  0
 98 99  1  0
 99100  1  0
100101  1  0
101102  2  3
101103  1  0
 96104  1  0
104105  2  0
104106  1  0
107106  1  6
107108  1  0
108109  1  0
109110  1  0
110111  1  0
107112  1  0
107113  1  0
113114  2  0
113115  1  0
115116  1  0
116117  1  0
117118  1  0
118119  1  0
119120  1  0
120121  1  0
121122  2  3
121123  1  0
116124  1  0
124125  2  0
124126  1  0
126127  1  0
127128  1  0
128129  1  0
129130  1  0
130131  1  0
130132  2  0
127133  1  0
133134  2  0
133135  1  0
135136  1  0
136137  1  0
137138  1  0
138139  1  0
139140  1  0
140141  1  0
141142  2  3
141143  1  0
136144  1  0
144145  2  0
144146  1  0
146147  1  0
147148  1  0
148149  1  0
149150  1  0
150151  1  0
147152  1  0
147153  1  6
153154  2  0
153155  1  0
155156  1  0
156157  1  0
157158  1  0
158159  1  0
159160  1  0
160161  1  0
161162  2  3
161163  1  0
156164  1  0
164165  2  0
164166  1  0
166167  1  0
167168  1  0
168169  1  0
169170  1  0
170171  1  0
171172  1  0
172173  2  3
172174  1  0
167175  1  0
175176  2  0
175177  1  0
177178  1  0
178179  1  0
179180  1  0
180181  1  0
181182  1  0
182183  1  0
183184  2  3
183185  1  0
178186  1  0
186187  2  0
186188  1  0
  8  3  1  0
 11  6  1  0
 18 13  2  0
111151  2  0
 22  9  1  0
 26 21  1  0
  2189  1  0
  4190  1  0
  5191  1  0
  8192  1  0
 15193  1  0
 17194  1  0
 18195  1  0
 19196  1  0
 23197  1  0
 24198  1  0
 26199  1  0
 27200  1  0
 29201  1  0
 30202  1  0
 30203  1  0
 31204  1  0
 31205  1  0
 34206  1  0
 35207  1  1
 36208  1  0
 36209  1  0
 42210  1  0
 43211  1  6
 44212  1  0
 44213  1  0
 45214  1  0
 45215  1  0
 46216  1  0
 46217  1  0
 47218  1  0
 49219  1  0
 49220  1  0
 50221  1  0
 50222  1  0
 53223  1  0
 54224  1  1
 55225  1  0
 55226  1  0
 56227  1  0
 56228  1  0
 57229  1  0
 57230  1  0
 58231  1  0
 60232  1  0
 60233  1  0
 61234  1  0
 61235  1  0
 64236  1  0
 65237  1  6
 66238  1  0
 66239  1  0
 67240  1  0
 67241  1  0
 69242  1  0
 69243  1  0
 73244  1  0
 74245  1  1
 75246  1  0
 75247  1  0
 76248  1  0
 76249  1  0
 77250  1  0
 77251  1  0
 78252  1  0
 80253  1  0
 80254  1  0
 81255  1  0
 81256  1  0
 84257  1  0
 85258  1  6
 86259  1  0
 86260  1  0
 87261  1  0
 87262  1  0
 88263  1  0
 88264  1  0
 89265  1  0
 91266  1  0
 91267  1  0
 92268  1  0
 92269  1  0
 95270  1  0
 96271  1  1
 97272  1  0
 97273  1  0
 98274  1  0
 98275  1  0
 99276  1  0
 99277  1  0
100278  1  0
102279  1  0
102280  1  0
103281  1  0
103282  1  0
106283  1  0
108284  1  0
108285  1  0
109286  1  0
109287  1  0
110288  1  0
110289  1  0
111290  1  0
112291  1  0
112292  1  0
112293  1  0
115294  1  0
116295  1  1
117296  1  0
117297  1  0
118298  1  0
118299  1  0
119300  1  0
119301  1  0
120302  1  0
122303  1  0
122304  1  0
123305  1  0
123306  1  0
126307  1  0
127308  1  1
128309  1  0
128310  1  0
129311  1  0
129312  1  0
131313  1  0
131314  1  0
135315  1  0
136316  1  1
137317  1  0
137318  1  0
138319  1  0
138320  1  0
139321  1  0
139322  1  0
140323  1  0
142324  1  0
142325  1  0
143326  1  0
143327  1  0
146328  1  0
148329  1  0
148330  1  0
149331  1  0
149332  1  0
150333  1  0
150334  1  0
151335  1  0
152336  1  0
152337  1  0
152338  1  0
155339  1  0
156340  1  6
157341  1  0
157342  1  0
158343  1  0
158344  1  0
159345  1  0
159346  1  0
160347  1  0
162348  1  0
162349  1  0
163350  1  0
163351  1  0
166352  1  0
167353  1  1
168354  1  0
168355  1  0
169356  1  0
169357  1  0
170358  1  0
170359  1  0
171360  1  0
173361  1  0
173362  1  0
174363  1  0
174364  1  0
177365  1  0
178366  1  6
179367  1  0
179368  1  0
180369  1  0
180370  1  0
181371  1  0
181372  1  0
182373  1  0
184374  1  0
184375  1  0
185376  1  0
185377  1  0
M  CHG  8  39  -1  49   1  60   1  80   1  91   1 102   1 122   1 142   1
M  CHG  4 162   1 173   1 184   1 188  -1
M  END
