
     RDKit          2D

180181  0  0  0  0  0  0  0  0999 V2000
   11.9420   -7.3197    0.0000 N   0  0  0  0  0  0  0  0  0  0  0  0
   11.0951   -6.0817    0.0000 C   0  0  0  0  0  0  0  0  0  0  0  0
   11.7439   -4.7292    0.0000 C   0  0  0  0  0  0  0  0  0  0  0  0
   10.8971   -3.4911    0.0000 C   0  0  0  0  0  0  0  0  0  0  0  0
    9.4014   -3.6055    0.0000 O   0  0  0  0  0  0  0  0  0  0  0  0
   11.5459   -2.1387    0.0000 N   0  0  0  0  0  0  0  0  0  0  0  0
   10.6990   -0.9006    0.0000 C   0  0  0  0  0  0  0  0  0  0  0  0
   12.0653   -0.2816    0.0000 C   0  0  0  0  0  0  0  0  0  0  0  0
   13.2846   -1.1554    0.0000 C   0  0  0  0  0  0  0  0  0  0  0  0
   14.6509   -0.5364    0.0000 C   0  0  0  0  0  0  0  0  0  0  0  0
   15.8701   -1.4102    0.0000 N   0  0  0  0  0  0  0  0  0  0  0  0
   17.2364   -0.7912    0.0000 C   0  0  0  0  0  0  0  0  0  0  0  0
   18.4557   -1.6649    0.0000 N   0  0  0  0  0  0  0  0  0  0  0  0
   17.3835    0.7016    0.0000 N   0  0  0  0  0  0  0  0  0  0  0  0
    9.4798   -0.0269    0.0000 C   0  0  0  0  0  0  0  0  0  0  0  0
    9.6269    1.4659    0.0000 O   0  0  0  0  0  0  0  0  0  0  0  0
    8.1134   -0.6459    0.0000 N   0  0  0  0  0  0  0  0  0  0  0  0
    6.8942    0.2279    0.0000 C   0  0  0  0  0  0  0  0  0  0  0  0
    6.2454   -1.1245    0.0000 C   0  0  0  0  0  0  0  0  0  0  0  0
    7.0923   -2.3626    0.0000 C   0  0  0  0  0  0  0  0  0  0  0  0
    6.4435   -3.7150    0.0000 C   0  0  0  0  0  0  0  0  0  0  0  0
    7.2904   -4.9531    0.0000 C   0  0  0  0  0  0  0  0  0  0  0  0
    6.6416   -6.3056    0.0000 N   0  0  0  0  0  0  0  0  0  0  0  0
    6.0474    1.4660    0.0000 C   0  0  0  0  0  0  0  0  0  0  0  0
    5.2659    1.3088    0.0000 O   0  0  0  0  0  0  0  0  0  0  0  0
    6.6961    2.8184    0.0000 N   0  0  0  0  0  0  0  0  0  0  0  0
    5.8493    4.0565    0.0000 C   0  0  0  0  0  0  0  0  0  0  0  0
    5.4769    5.5096    0.0000 C   0  0  0  0  0  0  0  0  0  0  0  0
    6.5492    6.5585    0.0000 C   0  0  0  0  0  0  0  0  0  0  0  0
    6.1768    8.0116    0.0000 C   0  0  0  0  0  0  0  0  0  0  0  0
    7.2490    9.0606    0.0000 C   0  0  0  0  0  0  0  0  0  0  0  0
    8.6936    8.6565    0.0000 C   0  0  0  0  0  0  0  0  0  0  0  0
    9.0659    7.2034    0.0000 C   0  0  0  0  0  0  0  0  0  0  0  0
    7.9937    6.1545    0.0000 C   0  0  0  0  0  0  0  0  0  0  0  0
    4.7771    3.0075    0.0000 C   0  0  0  0  0  0  0  0  0  0  0  0
    4.8793    2.2169    0.0000 O   0  0  0  0  0  0  0  0  0  0  0  0
    3.3325    3.4116    0.0000 N   0  0  0  0  0  0  0  0  0  0  0  0
    2.2603    2.3626    0.0000 C   0  0  0  0  0  0  0  0  0  0  0  0
    1.6115    1.0102    0.0000 C   0  0  0  0  0  0  0  0  0  0  0  0
    0.1159    0.8958    0.0000 C   0  0  0  0  0  0  0  0  0  0  0  0
   -0.5329   -0.4566    0.0000 C   0  0  0  0  0  0  0  0  0  0  0  0
   -2.0285   -0.5710    0.0000 C   0  0  0  0  0  0  0  0  0  0  0  0
   -2.6773   -1.9234    0.0000 N   0  0  0  0  0  0  0  0  0  0  0  0
    0.8158    2.7667    0.0000 C   0  0  0  0  0  0  0  0  0  0  0  0
    0.4434    4.2197    0.0000 O   0  0  0  0  0  0  0  0  0  0  0  0
   -0.2565    1.7177    0.0000 N   0  0  0  0  0  0  0  0  0  0  0  0
   -1.7010    2.1218    0.0000 C   0  0  0  0  0  0  0  0  0  0  0  0
   -2.9202    2.9956    0.0000 C   0  0  0  0  0  0  0  0  0  0  0  0
   -4.2866    2.3766    0.0000 C   0  0  0  0  0  0  0  0  0  0  0  0
   -5.5058    3.2503    0.0000 C   0  0  0  0  0  0  0  0  0  0  0  0
   -6.8721    2.6313    0.0000 N   0  0  0  0  0  0  0  0  0  0  0  0
   -8.0913    3.5051    0.0000 C   0  0  0  0  0  0  0  0  0  0  0  0
   -9.3720    2.7242    0.0000 N   0  0  0  0  0  0  0  0  0  0  0  0
   -7.9443    4.9979    0.0000 N   0  0  0  0  0  0  0  0  0  0  0  0
   -2.7732    1.0728    0.0000 C   0  0  0  0  0  0  0  0  0  0  0  0
   -2.7636   -0.4272    0.0000 O   0  0  0  0  0  0  0  0  0  0  0  0
   -4.2178    1.4769    0.0000 N   0  0  0  0  0  0  0  0  0  0  0  0
   -5.2900    0.4279    0.0000 C   0  0  0  0  0  0  0  0  0  0  0  0
   -5.9388   -0.9245    0.0000 C   0  0  0  0  0  0  0  0  0  0  0  0
   -7.4344   -1.0389    0.0000 C   0  0  0  0  0  0  0  0  0  0  0  0
   -8.0832   -2.3913    0.0000 C   0  0  0  0  0  0  0  0  0  0  0  0
   -8.8790   -0.6348    0.0000 C   0  0  0  0  0  0  0  0  0  0  0  0
   -6.7345    0.8320    0.0000 C   0  0  0  0  0  0  0  0  0  0  0  0
   -7.4474    2.1518    0.0000 O   0  0  0  0  0  0  0  0  0  0  0  0
   -7.8068   -0.2170    0.0000 N   0  0  0  0  0  0  0  0  0  0  0  0
   -9.2513    0.1871    0.0000 C   0  0  0  0  0  0  0  0  0  0  0  0
  -10.4705    1.0608    0.0000 C   0  0  0  0  0  0  0  0  0  0  0  0
  -11.8369    0.4418    0.0000 C   0  0  0  0  0  0  0  0  0  0  0  0
  -13.0561    1.3156    0.0000 C   0  0  0  0  0  0  0  0  0  0  0  0
  -14.4224    0.6966    0.0000 C   0  0  0  0  0  0  0  0  0  0  0  0
  -14.5695   -0.7962    0.0000 C   0  0  0  0  0  0  0  0  0  0  0  0
  -13.3503   -1.6699    0.0000 C   0  0  0  0  0  0  0  0  0  0  0  0
  -11.9839   -1.0509    0.0000 C   0  0  0  0  0  0  0  0  0  0  0  0
  -10.3235   -0.8619    0.0000 C   0  0  0  0  0  0  0  0  0  0  0  0
  -10.1311   -2.3495    0.0000 O   0  0  0  0  0  0  0  0  0  0  0  0
  -11.7681   -0.4578    0.0000 N   0  0  0  0  0  0  0  0  0  0  0  0
  -12.8403   -1.5068    0.0000 C   0  0  0  0  0  0  0  0  0  0  0  0
  -13.4891   -2.8592    0.0000 C   0  0  0  0  0  0  0  0  0  0  0  0
  -14.9847   -2.9736    0.0000 C   0  0  0  0  0  0  0  0  0  0  0  0
  -15.6335   -4.3260    0.0000 C   0  0  0  0  0  0  0  0  0  0  0  0
  -17.1291   -4.4404    0.0000 N   0  0  0  0  0  0  0  0  0  0  0  0
  -14.7866   -5.5641    0.0000 O   0  0  0  0  0  0  0  0  0  0  0  0
  -14.2848   -1.1027    0.0000 C   0  0  0  0  0  0  0  0  0  0  0  0
  -15.4769   -2.0132    0.0000 O   0  0  0  0  0  0  0  0  0  0  0  0
  -14.9977    0.2170    0.0000 O   0  0  0  0  0  0  0  0  0  0  0  0
   11.2932   -8.6722    0.0000 H   0  0  0  0  0  0  0  0  0  0  0  0
   13.4376   -7.2054    0.0000 H   0  0  0  0  0  0  0  0  0  0  0  0
   10.0229   -7.1306    0.0000 H   0  0  0  0  0  0  0  0  0  0  0  0
    9.8759   -5.2079    0.0000 H   0  0  0  0  0  0  0  0  0  0  0  0
   12.9632   -5.6030    0.0000 H   0  0  0  0  0  0  0  0  0  0  0  0
   12.8161   -3.6802    0.0000 H   0  0  0  0  0  0  0  0  0  0  0  0
   13.0443   -2.2075    0.0000 H   0  0  0  0  0  0  0  0  0  0  0  0
    9.6268   -1.9496    0.0000 H   0  0  0  0  0  0  0  0  0  0  0  0
   13.0017    0.8902    0.0000 H   0  0  0  0  0  0  0  0  0  0  0  0
   11.2185    0.9564    0.0000 H   0  0  0  0  0  0  0  0  0  0  0  0
   14.1314   -2.3935    0.0000 H   0  0  0  0  0  0  0  0  0  0  0  0
   12.6596   -2.5190    0.0000 H   0  0  0  0  0  0  0  0  0  0  0  0
   15.7231    0.5126    0.0000 H   0  0  0  0  0  0  0  0  0  0  0  0
   13.9613    0.7957    0.0000 H   0  0  0  0  0  0  0  0  0  0  0  0
   15.7230   -2.9029    0.0000 H   0  0  0  0  0  0  0  0  0  0  0  0
   19.8220   -1.0460    0.0000 H   0  0  0  0  0  0  0  0  0  0  0  0
   18.3086   -3.1577    0.0000 H   0  0  0  0  0  0  0  0  0  0  0  0
   18.7498    1.3206    0.0000 H   0  0  0  0  0  0  0  0  0  0  0  0
   16.1643    1.5754    0.0000 H   0  0  0  0  0  0  0  0  0  0  0  0
    8.1494   -2.1454    0.0000 H   0  0  0  0  0  0  0  0  0  0  0  0
    7.9664    1.2769    0.0000 H   0  0  0  0  0  0  0  0  0  0  0  0
    5.0533   -2.0350    0.0000 H   0  0  0  0  0  0  0  0  0  0  0  0
    5.0262   -0.2508    0.0000 H   0  0  0  0  0  0  0  0  0  0  0  0
    8.4089   -3.0812    0.0000 H   0  0  0  0  0  0  0  0  0  0  0  0
    8.4693   -1.7677    0.0000 H   0  0  0  0  0  0  0  0  0  0  0  0
    5.2514   -4.6255    0.0000 H   0  0  0  0  0  0  0  0  0  0  0  0
    5.1269   -2.9964    0.0000 H   0  0  0  0  0  0  0  0  0  0  0  0
    8.5096   -5.8269    0.0000 H   0  0  0  0  0  0  0  0  0  0  0  0
    8.4824   -4.0427    0.0000 H   0  0  0  0  0  0  0  0  0  0  0  0
    7.4884   -7.5436    0.0000 H   0  0  0  0  0  0  0  0  0  0  0  0
    5.5694   -7.3545    0.0000 H   0  0  0  0  0  0  0  0  0  0  0  0
    5.3249   -5.5869    0.0000 H   0  0  0  0  0  0  0  0  0  0  0  0
    8.1918    2.9328    0.0000 H   0  0  0  0  0  0  0  0  0  0  0  0
    7.2156    4.6755    0.0000 H   0  0  0  0  0  0  0  0  0  0  0  0
    4.1106    4.8906    0.0000 H   0  0  0  0  0  0  0  0  0  0  0  0
    4.6301    6.7476    0.0000 H   0  0  0  0  0  0  0  0  0  0  0  0
    4.7323    8.4157    0.0000 H   0  0  0  0  0  0  0  0  0  0  0  0
    6.8767   10.5136    0.0000 H   0  0  0  0  0  0  0  0  0  0  0  0
    9.7658    9.7055    0.0000 H   0  0  0  0  0  0  0  0  0  0  0  0
   10.5105    6.7994    0.0000 H   0  0  0  0  0  0  0  0  0  0  0  0
    8.3660    4.7014    0.0000 H   0  0  0  0  0  0  0  0  0  0  0  0
    2.9602    4.8647    0.0000 H   0  0  0  0  0  0  0  0  0  0  0  0
    3.4795    1.4888    0.0000 H   0  0  0  0  0  0  0  0  0  0  0  0
    1.6475   -0.4894    0.0000 H   0  0  0  0  0  0  0  0  0  0  0  0
    3.0561    0.6061    0.0000 H   0  0  0  0  0  0  0  0  0  0  0  0
   -1.2686    1.4730    0.0000 H   0  0  0  0  0  0  0  0  0  0  0  0
   -0.4552    2.2829    0.0000 H   0  0  0  0  0  0  0  0  0  0  0  0
   -0.4969   -1.9562    0.0000 H   0  0  0  0  0  0  0  0  0  0  0  0
    0.8516   -1.0338    0.0000 H   0  0  0  0  0  0  0  0  0  0  0  0
   -3.5116   -0.3460    0.0000 H   0  0  0  0  0  0  0  0  0  0  0  0
   -2.0645    0.9286    0.0000 H   0  0  0  0  0  0  0  0  0  0  0  0
   -4.1757   -1.8546    0.0000 H   0  0  0  0  0  0  0  0  0  0  0  0
   -2.8244   -3.4162    0.0000 H   0  0  0  0  0  0  0  0  0  0  0  0
   -1.2928   -2.5006    0.0000 H   0  0  0  0  0  0  0  0  0  0  0  0
   -0.2468    0.2177    0.0000 H   0  0  0  0  0  0  0  0  0  0  0  0
   -1.0522    3.4742    0.0000 H   0  0  0  0  0  0  0  0  0  0  0  0
   -3.6099    4.3276    0.0000 H   0  0  0  0  0  0  0  0  0  0  0  0
   -1.8480    4.0445    0.0000 H   0  0  0  0  0  0  0  0  0  0  0  0
   -5.3588    1.3276    0.0000 H   0  0  0  0  0  0  0  0  0  0  0  0
   -4.1202    0.8858    0.0000 H   0  0  0  0  0  0  0  0  0  0  0  0
   -6.3526    4.4884    0.0000 H   0  0  0  0  0  0  0  0  0  0  0  0
   -4.5694    4.4222    0.0000 H   0  0  0  0  0  0  0  0  0  0  0  0
   -7.5445    1.2905    0.0000 H   0  0  0  0  0  0  0  0  0  0  0  0
  -10.6769    3.7599    0.0000 H   0  0  0  0  0  0  0  0  0  0  0  0
   -9.4408    1.3749    0.0000 H   0  0  0  0  0  0  0  0  0  0  0  0
   -9.1635    5.8716    0.0000 H   0  0  0  0  0  0  0  0  0  0  0  0
   -6.5779    5.6169    0.0000 H   0  0  0  0  0  0  0  0  0  0  0  0
   -4.9306    2.7967    0.0000 H   0  0  0  0  0  0  0  0  0  0  0  0
   -4.1864   -0.5880    0.0000 H   0  0  0  0  0  0  0  0  0  0  0  0
   -5.9028   -2.4241    0.0000 H   0  0  0  0  0  0  0  0  0  0  0  0
   -4.4557   -1.1495    0.0000 H   0  0  0  0  0  0  0  0  0  0  0  0
   -8.1703    0.2682    0.0000 H   0  0  0  0  0  0  0  0  0  0  0  0
   -9.5067   -2.8642    0.0000 H   0  0  0  0  0  0  0  0  0  0  0  0
   -8.2303   -3.8841    0.0000 H   0  0  0  0  0  0  0  0  0  0  0  0
   -6.6987   -2.9685    0.0000 H   0  0  0  0  0  0  0  0  0  0  0  0
   -9.8153   -1.8067    0.0000 H   0  0  0  0  0  0  0  0  0  0  0  0
  -10.0982    0.2390    0.0000 H   0  0  0  0  0  0  0  0  0  0  0  0
   -8.0702    0.6284    0.0000 H   0  0  0  0  0  0  0  0  0  0  0  0
   -7.7971   -1.7170    0.0000 H   0  0  0  0  0  0  0  0  0  0  0  0
   -8.7722    1.6085    0.0000 H   0  0  0  0  0  0  0  0  0  0  0  0
  -11.3174    2.2989    0.0000 H   0  0  0  0  0  0  0  0  0  0  0  0
   -9.1764    1.8192    0.0000 H   0  0  0  0  0  0  0  0  0  0  0  0
  -12.9090    2.8084    0.0000 H   0  0  0  0  0  0  0  0  0  0  0  0
  -15.6416    1.5704    0.0000 H   0  0  0  0  0  0  0  0  0  0  0  0
  -15.9358   -1.4152    0.0000 H   0  0  0  0  0  0  0  0  0  0  0  0
  -13.8542   -3.0827    0.0000 H   0  0  0  0  0  0  0  0  0  0  0  0
  -11.0124   -2.1938    0.0000 H   0  0  0  0  0  0  0  0  0  0  0  0
  -12.4809    0.8619    0.0000 H   0  0  0  0  0  0  0  0  0  0  0  0
  -11.6210   -2.3806    0.0000 H   0  0  0  0  0  0  0  0  0  0  0  0
  -13.6361   -4.3520    0.0000 H   0  0  0  0  0  0  0  0  0  0  0  0
  -12.0445   -3.2633    0.0000 H   0  0  0  0  0  0  0  0  0  0  0  0
  -16.4292   -2.5695    0.0000 H   0  0  0  0  0  0  0  0  0  0  0  0
  -15.7206   -1.6665    0.0000 H   0  0  0  0  0  0  0  0  0  0  0  0
  -17.7779   -5.7928    0.0000 H   0  0  0  0  0  0  0  0  0  0  0  0
  -17.9760   -3.2023    0.0000 H   0  0  0  0  0  0  0  0  0  0  0  0
  1  2  1  0
  2  3  1  0
  3  4  1  0
  4  5  2  0
  4  6  1  0
  6  7  1  0
  7  8  1  0
  8  9  1  0
  9 10  1  0
 10 11  1  0
 11 12  1  0
 12 13  2  3
 12 14  1  0
  7 15  1  0
 15 16  2  0
 15 17  1  0
 17 18  1  0
 18 19  1  0
 19 20  1  0
 20 21  1  0
 21 22  1  0
 22 23  1  0
 18 24  1  0
 24 25  2  0
 24 26  1  0
 26 27  1  0
 27 28  1  0
 28 29  1  0
 29 30  2  0
 30 31  1  0
 31 32  2  0
 32 33  1  0
 33 34  2  0
 27 35  1  0
 35 36  2  0
 35 37  1  0
 37 38  1  0
 38 39  1  0
 39 40  1  0
 40 41  1  0
 41 42  1  0
 42 43  1  0
 38 44  1  0
 44 45  2  0
 44 46  1  0
 46 47  1  0
 47 48  1  0
 48 49  1  0
 49 50  1  0
 50 51  1  0
 51 52  1  0
 52 53  2  3
 52 54  1  0
 47 55  1  0
 55 56  2  0
 55 57  1  0
 57 58  1  0
 58 59  1  0
 59 60  1  0
 60 61  1  0
 60 62  1  0
 58 63  1  0
 63 64  2  0
 63 65  1  0
 65 66  1  0
 66 67  1  0
 67 68  1  0
 68 69  2  0
 69 70  1  0
 70 71  2  0
 71 72  1  0
 72 73  2  0
 66 74  1  0
 74 75  2  0
 74 76  1  0
 76 77  1  0
 77 78  1  0
 78 79  1  0
 79 80  1  0
 80 81  1  0
 80 82  2  0
 77 83  1  0
 83 84  2  0
 83 85  1  0
 34 29  1  0
 73 68  1  0
  1 86  1  0
  1 87  1  0
  2 88  1  0
  2 89  1  0
  3 90  1  0
  3 91  1  0
  6 92  1  0
  7 93  1  6
  8 94  1  0
  8 95  1  0
  9 96  1  0
  9 97  1  0
 10 98  1  0
 10 99  1  0
 11100  1  0
 13101  1  0
 13102  1  0
 14103  1  0
 14104  1  0
 17105  1  0
 18106  1  1
 19107  1  0
 19108  1  0
 20109  1  0
 20110  1  0
 21111  1  0
 21112  1  0
 22113  1  0
 22114  1  0
 23115  1  0
 23116  1  0
 23117  1  0
 26118  1  0
 27119  1  6
 28120  1  0
 28121  1  0
 30122  1  0
 31123  1  0
 32124  1  0
 33125  1  0
 34126  1  0
 37127  1  0
 38128  1  1
 39129  1  0
 39130  1  0
 40131  1  0
 40132  1  0
 41133  1  0
 41134  1  0
 42135  1  0
 42136  1  0
 43137  1  0
 43138  1  0
 43139  1  0
 46140  1  0
 47141  1  6
 48142  1  0
 48143  1  0
 49144  1  0
 49145  1  0
 50146  1  0
 50147  1  0
 51148  1  0
 53149  1  0
 53150  1  0
 54151  1  0
 54152  1  0
 57153  1  0
 58154  1  1
 59155  1  0
 59156  1  0
 60157  1  0
 61158  1  0
 61159  1  0
 61160  1  0
 62161  1  0
 62162  1  0
 62163  1  0
 65164  1  0
 66165  1  6
 67166  1  0
 67167  1  0
 69168  1  0
 70169  1  0
 71170  1  0
 72171  1  0
 73172  1  0
 76173  1  0
 77174  1  1
 78175  1  0
 78176  1  0
 79177  1  0
 79178  1  0
 81179  1  0
 81180  1  0
M  CHG  5  13   1  23   1  43   1  53   1  85  -1
M  END
