
     RDKit          2D

339345  0  0  0  0  0  0  0  0999 V2000
  -29.1185   -2.6366    0.0000 C   0  0  0  0  0  0  0  0  0  0  0  0
  -30.2515   -3.6195    0.0000 N   0  0  0  0  0  0  0  0  0  0  0  0
  -31.6693   -3.1298    0.0000 C   0  0  0  0  0  0  0  0  0  0  0  0
  -31.9541   -1.6571    0.0000 C   0  0  0  0  0  0  0  0  0  0  0  0
  -33.3719   -1.1673    0.0000 C   0  0  0  0  0  0  0  0  0  0  0  0
  -34.5049   -2.1503    0.0000 C   0  0  0  0  0  0  0  0  0  0  0  0
  -34.2201   -3.6230    0.0000 C   0  0  0  0  0  0  0  0  0  0  0  0
  -32.8024   -4.1127    0.0000 C   0  0  0  0  0  0  0  0  0  0  0  0
  -35.5328   -4.3489    0.0000 C   0  0  0  0  0  0  0  0  0  0  0  0
  -36.6288   -3.3248    0.0000 O   0  0  0  0  0  0  0  0  0  0  0  0
  -35.9935   -1.9660    0.0000 C   0  0  0  0  0  0  0  0  0  0  0  0
  -36.7194   -0.6533    0.0000 O   0  0  0  0  0  0  0  0  0  0  0  0
  -36.9141   -4.9336    0.0000 C   0  0  0  0  0  0  0  0  0  0  0  0
  -37.0984   -6.4223    0.0000 C   0  0  0  0  0  0  0  0  0  0  0  0
  -38.4797   -7.0070    0.0000 C   0  0  0  0  0  0  0  0  0  0  0  0
  -39.6768   -6.1031    0.0000 C   0  0  0  0  0  0  0  0  0  0  0  0
  -39.4925   -4.6144    0.0000 C   0  0  0  0  0  0  0  0  0  0  0  0
  -38.1112   -4.0297    0.0000 C   0  0  0  0  0  0  0  0  0  0  0  0
  -41.0581   -6.6878    0.0000 O   0  0  0  0  0  0  0  0  0  0  0  0
  -35.9014   -7.3262    0.0000 O   0  0  0  0  0  0  0  0  0  0  0  0
  -34.5200   -6.7414    0.0000 C   0  0  0  0  0  0  0  0  0  0  0  0
  -34.3357   -5.2528    0.0000 C   0  0  0  0  0  0  0  0  0  0  0  0
  -33.0404   -5.3628    0.0000 C   0  0  0  0  0  0  0  0  0  0  0  0
  -32.4020   -5.8449    0.0000 C   0  0  0  0  0  0  0  0  0  0  0  0
  -32.5002   -6.6388    0.0000 C   0  0  0  0  0  0  0  0  0  0  0  0
  -33.2370   -6.9507    0.0000 C   0  0  0  0  0  0  0  0  0  0  0  0
  -30.7446   -7.9645    0.0000 O   0  0  0  0  0  0  0  0  0  0  0  0
  -29.4032   -1.1638    0.0000 S   0  0  0  0  0  0  0  0  0  0  0  0
  -27.7007   -3.1263    0.0000 N   0  0  0  0  0  0  0  0  0  0  0  0
  -26.5676   -2.1434    0.0000 C   0  0  0  0  0  0  0  0  0  0  0  0
  -25.1499   -2.6331    0.0000 C   0  0  0  0  0  0  0  0  0  0  0  0
  -24.0168   -1.6502    0.0000 C   0  0  0  0  0  0  0  0  0  0  0  0
  -24.3016   -0.1774    0.0000 O   0  0  0  0  0  0  0  0  0  0  0  0
  -22.5990   -2.1399    0.0000 N   0  0  0  0  0  0  0  0  0  0  0  0
  -21.4660   -1.1569    0.0000 C   0  0  0  0  0  0  0  0  0  0  0  0
  -20.7375    0.1543    0.0000 C   0  0  0  0  0  0  0  0  0  0  0  0
  -19.2377    0.1790    0.0000 C   0  0  0  0  0  0  0  0  0  0  0  0
  -18.5092    1.4902    0.0000 C   0  0  0  0  0  0  0  0  0  0  0  0
  -17.8199   -0.3108    0.0000 C   0  0  0  0  0  0  0  0  0  0  0  0
  -20.0482   -1.6467    0.0000 C   0  0  0  0  0  0  0  0  0  0  0  0
  -19.7634   -3.1194    0.0000 O   0  0  0  0  0  0  0  0  0  0  0  0
  -18.9151   -0.6637    0.0000 N   0  0  0  0  0  0  0  0  0  0  0  0
  -17.4974   -1.1535    0.0000 C   0  0  0  0  0  0  0  0  0  0  0  0
  -16.3326   -2.0986    0.0000 C   0  0  0  0  0  0  0  0  0  0  0  0
  -16.5687   -3.5799    0.0000 C   0  0  0  0  0  0  0  0  0  0  0  0
  -15.4039   -4.5251    0.0000 C   0  0  0  0  0  0  0  0  0  0  0  0
  -15.6400   -6.0064    0.0000 O   0  0  0  0  0  0  0  0  0  0  0  0
  -14.0030   -3.9889    0.0000 O   0  0  0  0  0  0  0  0  0  0  0  0
  -16.3643   -0.1705    0.0000 C   0  0  0  0  0  0  0  0  0  0  0  0
  -16.4674    1.3259    0.0000 O   0  0  0  0  0  0  0  0  0  0  0  0
  -14.9465   -0.6603    0.0000 N   0  0  0  0  0  0  0  0  0  0  0  0
  -13.8135    0.3227    0.0000 C   0  0  0  0  0  0  0  0  0  0  0  0
  -13.0850    1.6339    0.0000 C   0  0  0  0  0  0  0  0  0  0  0  0
  -11.5852    1.6586    0.0000 C   0  0  0  0  0  0  0  0  0  0  0  0
  -10.8567    2.9698    0.0000 N   0  0  0  0  0  0  0  0  0  0  0  0
  -11.0220    1.0944    0.0000 O   0  0  0  0  0  0  0  0  0  0  0  0
  -12.3957   -0.1671    0.0000 C   0  0  0  0  0  0  0  0  0  0  0  0
  -12.1109   -1.6398    0.0000 O   0  0  0  0  0  0  0  0  0  0  0  0
  -11.2627    0.8159    0.0000 N   0  0  0  0  0  0  0  0  0  0  0  0
   -9.8449    0.3261    0.0000 C   0  0  0  0  0  0  0  0  0  0  0  0
   -8.6801   -0.6190    0.0000 C   0  0  0  0  0  0  0  0  0  0  0  0
   -7.2792   -0.0828    0.0000 C   0  0  0  0  0  0  0  0  0  0  0  0
   -6.1144   -1.0280    0.0000 C   0  0  0  0  0  0  0  0  0  0  0  0
   -4.7135   -0.4918    0.0000 N   0  0  0  0  0  0  0  0  0  0  0  0
   -3.5487   -1.4370    0.0000 C   0  0  0  0  0  0  0  0  0  0  0  0
   -2.0487   -1.4386    0.0000 N   0  0  0  0  0  0  0  0  0  0  0  0
   -3.7848   -2.9183    0.0000 N   0  0  0  0  0  0  0  0  0  0  0  0
   -8.7118    1.3091    0.0000 C   0  0  0  0  0  0  0  0  0  0  0  0
   -8.8149    2.8055    0.0000 O   0  0  0  0  0  0  0  0  0  0  0  0
   -7.2940    0.8193    0.0000 N   0  0  0  0  0  0  0  0  0  0  0  0
   -6.1610    1.8023    0.0000 C   0  0  0  0  0  0  0  0  0  0  0  0
   -5.4325    3.1135    0.0000 C   0  0  0  0  0  0  0  0  0  0  0  0
   -3.9327    3.1382    0.0000 C   0  0  0  0  0  0  0  0  0  0  0  0
   -3.2042    4.4494    0.0000 C   0  0  0  0  0  0  0  0  0  0  0  0
   -1.7549    4.8363    0.0000 N   0  0  0  0  0  0  0  0  0  0  0  0
   -4.2638    5.5111    0.0000 O   0  0  0  0  0  0  0  0  0  0  0  0
   -4.7432    1.3125    0.0000 C   0  0  0  0  0  0  0  0  0  0  0  0
   -4.2810   -0.1145    0.0000 O   0  0  0  0  0  0  0  0  0  0  0  0
   -3.6102    2.2955    0.0000 N   0  0  0  0  0  0  0  0  0  0  0  0
   -2.1924    1.8057    0.0000 C   0  0  0  0  0  0  0  0  0  0  0  0
   -1.6214    0.4186    0.0000 C   0  0  0  0  0  0  0  0  0  0  0  0
   -0.6670   -0.7385    0.0000 C   0  0  0  0  0  0  0  0  0  0  0  0
    0.5861   -1.5630    0.0000 C   0  0  0  0  0  0  0  0  0  0  0  0
    2.0265   -1.9815    0.0000 C   0  0  0  0  0  0  0  0  0  0  0  0
   -3.3472    0.8485    0.0000 C   0  0  0  0  0  0  0  0  0  0  0  0
   -2.3291    3.2995    0.0000 C   0  0  0  0  0  0  0  0  0  0  0  0
   -3.6957    3.9179    0.0000 O   0  0  0  0  0  0  0  0  0  0  0  0
   -2.0194    4.7672    0.0000 N   0  0  0  0  0  0  0  0  0  0  0  0
   -1.2909    6.0784    0.0000 C   0  0  0  0  0  0  0  0  0  0  0  0
   -1.7920    7.4922    0.0000 C   0  0  0  0  0  0  0  0  0  0  0  0
   -3.2669    7.7652    0.0000 C   0  0  0  0  0  0  0  0  0  0  0  0
   -3.7680    9.1790    0.0000 C   0  0  0  0  0  0  0  0  0  0  0  0
   -5.2429    9.4520    0.0000 C   0  0  0  0  0  0  0  0  0  0  0  0
   -5.7440   10.8659    0.0000 N   0  0  0  0  0  0  0  0  0  0  0  0
   -0.2083    7.1166    0.0000 C   0  0  0  0  0  0  0  0  0  0  0  0
   -1.0735    8.3419    0.0000 O   0  0  0  0  0  0  0  0  0  0  0  0
    1.1323    7.7896    0.0000 N   0  0  0  0  0  0  0  0  0  0  0  0
    2.6117    8.0376    0.0000 C   0  0  0  0  0  0  0  0  0  0  0  0
    3.4046    9.3108    0.0000 C   0  0  0  0  0  0  0  0  0  0  0  0
    2.6984   10.6342    0.0000 C   0  0  0  0  0  0  0  0  0  0  0  0
    3.4914   11.9074    0.0000 C   0  0  0  0  0  0  0  0  0  0  0  0
    1.5822   11.6362    0.0000 C   0  0  0  0  0  0  0  0  0  0  0  0
    4.0984    7.8384    0.0000 C   0  0  0  0  0  0  0  0  0  0  0  0
    4.5169    9.2789    0.0000 O   0  0  0  0  0  0  0  0  0  0  0  0
    5.4604    7.2099    0.0000 N   0  0  0  0  0  0  0  0  0  0  0  0
    6.5766    6.2079    0.0000 C   0  0  0  0  0  0  0  0  0  0  0  0
    8.0665    6.3818    0.0000 C   0  0  0  0  0  0  0  0  0  0  0  0
    8.6608    7.7591    0.0000 C   0  0  0  0  0  0  0  0  0  0  0  0
   10.1507    7.9330    0.0000 C   0  0  0  0  0  0  0  0  0  0  0  0
   10.7451    9.3102    0.0000 O   0  0  0  0  0  0  0  0  0  0  0  0
   11.0463    6.7296    0.0000 O   0  0  0  0  0  0  0  0  0  0  0  0
    7.3479    4.9214    0.0000 C   0  0  0  0  0  0  0  0  0  0  0  0
    8.7350    5.4923    0.0000 O   0  0  0  0  0  0  0  0  0  0  0  0
    7.7057    3.4647    0.0000 N   0  0  0  0  0  0  0  0  0  0  0  0
    7.6182    1.9673    0.0000 C   0  0  0  0  0  0  0  0  0  0  0  0
    7.0933    0.5621    0.0000 C   0  0  0  0  0  0  0  0  0  0  0  0
    6.1775   -0.6259    0.0000 C   0  0  0  0  0  0  0  0  0  0  0  0
    4.9522   -1.4911    0.0000 C   0  0  0  0  0  0  0  0  0  0  0  0
    3.5263   -1.9568    0.0000 C   0  0  0  0  0  0  0  0  0  0  0  0
    9.0191    2.5034    0.0000 C   0  0  0  0  0  0  0  0  0  0  0  0
    8.6831    0.9109    0.0000 C   0  0  0  0  0  0  0  0  0  0  0  0
    8.6630   -0.5890    0.0000 O   0  0  0  0  0  0  0  0  0  0  0  0
   10.1305    1.3049    0.0000 N   0  0  0  0  0  0  0  0  0  0  0  0
   11.1953    0.2485    0.0000 C   0  0  0  0  0  0  0  0  0  0  0  0
   11.8347   -1.1085    0.0000 C   0  0  0  0  0  0  0  0  0  0  0  0
   12.6427    0.6425    0.0000 C   0  0  0  0  0  0  0  0  0  0  0  0
   13.0251    2.0929    0.0000 O   0  0  0  0  0  0  0  0  0  0  0  0
   13.7076   -0.4139    0.0000 N   0  0  0  0  0  0  0  0  0  0  0  0
   15.1549   -0.0199    0.0000 C   0  0  0  0  0  0  0  0  0  0  0  0
   16.3802    0.8453    0.0000 C   0  0  0  0  0  0  0  0  0  0  0  0
   17.7421    0.2168    0.0000 C   0  0  0  0  0  0  0  0  0  0  0  0
   18.9674    1.0821    0.0000 N   0  0  0  0  0  0  0  0  0  0  0  0
   18.2362   -1.1994    0.0000 O   0  0  0  0  0  0  0  0  0  0  0  0
   16.2198   -1.0763    0.0000 C   0  0  0  0  0  0  0  0  0  0  0  0
   15.8373   -2.5268    0.0000 O   0  0  0  0  0  0  0  0  0  0  0  0
   17.6671   -0.6823    0.0000 N   0  0  0  0  0  0  0  0  0  0  0  0
   18.7320   -1.7387    0.0000 C   0  0  0  0  0  0  0  0  0  0  0  0
   19.3713   -3.0957    0.0000 C   0  0  0  0  0  0  0  0  0  0  0  0
   20.8661   -3.2204    0.0000 C   0  0  0  0  0  0  0  0  0  0  0  0
   21.5055   -4.5773    0.0000 C   0  0  0  0  0  0  0  0  0  0  0  0
   23.0003   -4.7021    0.0000 N   0  0  0  0  0  0  0  0  0  0  0  0
   23.6397   -6.0590    0.0000 C   0  0  0  0  0  0  0  0  0  0  0  0
   25.1385   -6.0007    0.0000 N   0  0  0  0  0  0  0  0  0  0  0  0
   22.7842   -7.2912    0.0000 N   0  0  0  0  0  0  0  0  0  0  0  0
   20.1793   -1.3447    0.0000 C   0  0  0  0  0  0  0  0  0  0  0  0
   20.7357    0.0483    0.0000 O   0  0  0  0  0  0  0  0  0  0  0  0
   21.2442   -2.4011    0.0000 N   0  0  0  0  0  0  0  0  0  0  0  0
   22.6915   -2.0071    0.0000 C   0  0  0  0  0  0  0  0  0  0  0  0
   23.9168   -1.1419    0.0000 C   0  0  0  0  0  0  0  0  0  0  0  0
   25.2788   -1.7704    0.0000 C   0  0  0  0  0  0  0  0  0  0  0  0
   26.5878   -1.0379    0.0000 C   0  0  0  0  0  0  0  0  0  0  0  0
   27.6889   -2.0565    0.0000 N   0  0  0  0  0  0  0  0  0  0  0  0
   27.0604   -3.4185    0.0000 C   0  0  0  0  0  0  0  0  0  0  0  0
   25.5709   -3.2416    0.0000 N   0  0  0  0  0  0  0  0  0  0  0  0
   23.7564   -3.0635    0.0000 C   0  0  0  0  0  0  0  0  0  0  0  0
   23.7363   -4.5634    0.0000 O   0  0  0  0  0  0  0  0  0  0  0  0
   25.2037   -2.6695    0.0000 N   0  0  0  0  0  0  0  0  0  0  0  0
   26.2686   -3.7259    0.0000 C   0  0  0  0  0  0  0  0  0  0  0  0
   26.9080   -5.0829    0.0000 C   0  0  0  0  0  0  0  0  0  0  0  0
   28.4028   -5.2076    0.0000 C   0  0  0  0  0  0  0  0  0  0  0  0
   29.0421   -6.5645    0.0000 C   0  0  0  0  0  0  0  0  0  0  0  0
   29.8501   -4.8136    0.0000 C   0  0  0  0  0  0  0  0  0  0  0  0
   27.7160   -3.3319    0.0000 C   0  0  0  0  0  0  0  0  0  0  0  0
   28.4380   -2.0171    0.0000 O   0  0  0  0  0  0  0  0  0  0  0  0
   28.7808   -4.3883    0.0000 N   0  0  0  0  0  0  0  0  0  0  0  0
   30.2282   -3.9943    0.0000 C   0  0  0  0  0  0  0  0  0  0  0  0
   31.4535   -3.1291    0.0000 C   0  0  0  0  0  0  0  0  0  0  0  0
   32.8154   -3.7576    0.0000 C   0  0  0  0  0  0  0  0  0  0  0  0
   34.0407   -2.8923    0.0000 C   0  0  0  0  0  0  0  0  0  0  0  0
   33.8803   -4.8140    0.0000 C   0  0  0  0  0  0  0  0  0  0  0  0
   31.2931   -5.0507    0.0000 C   0  0  0  0  0  0  0  0  0  0  0  0
   32.7776   -4.8361    0.0000 O   0  0  0  0  0  0  0  0  0  0  0  0
   31.2730   -6.5506    0.0000 O   0  0  0  0  0  0  0  0  0  0  0  0
  -29.7894   -5.0466    0.0000 H   0  0  0  0  0  0  0  0  0  0  0  0
  -30.8210   -0.6741    0.0000 H   0  0  0  0  0  0  0  0  0  0  0  0
  -33.6566    0.3054    0.0000 H   0  0  0  0  0  0  0  0  0  0  0  0
  -32.1697   -5.4728    0.0000 H   0  0  0  0  0  0  0  0  0  0  0  0
  -38.6640   -8.4956    0.0000 H   0  0  0  0  0  0  0  0  0  0  0  0
  -40.6896   -3.7105    0.0000 H   0  0  0  0  0  0  0  0  0  0  0  0
  -37.9269   -2.5411    0.0000 H   0  0  0  0  0  0  0  0  0  0  0  0
  -42.2552   -5.7839    0.0000 H   0  0  0  0  0  0  0  0  0  0  0  0
  -32.7701   -3.1794    0.0000 H   0  0  0  0  0  0  0  0  0  0  0  0
  -30.3150   -5.1600    0.0000 H   0  0  0  0  0  0  0  0  0  0  0  0
  -33.5072   -9.1340    0.0000 H   0  0  0  0  0  0  0  0  0  0  0  0
  -30.9288   -9.4532    0.0000 H   0  0  0  0  0  0  0  0  0  0  0  0
  -27.4159   -4.5990    0.0000 H   0  0  0  0  0  0  0  0  0  0  0  0
  -25.8391   -0.8322    0.0000 H   0  0  0  0  0  0  0  0  0  0  0  0
  -27.7324   -1.1982    0.0000 H   0  0  0  0  0  0  0  0  0  0  0  0
  -23.9851   -3.5783    0.0000 H   0  0  0  0  0  0  0  0  0  0  0  0
  -25.8784   -3.9443    0.0000 H   0  0  0  0  0  0  0  0  0  0  0  0
  -22.3143   -3.6126    0.0000 H   0  0  0  0  0  0  0  0  0  0  0  0
  -22.6308   -0.2118    0.0000 H   0  0  0  0  0  0  0  0  0  0  0  0
  -20.6837    1.6533    0.0000 H   0  0  0  0  0  0  0  0  0  0  0  0
  -22.1553    0.6440    0.0000 H   0  0  0  0  0  0  0  0  0  0  0  0
  -18.7506   -1.2398    0.0000 H   0  0  0  0  0  0  0  0  0  0  0  0
  -17.0599    1.8770    0.0000 H   0  0  0  0  0  0  0  0  0  0  0  0
  -18.2730    2.9715    0.0000 H   0  0  0  0  0  0  0  0  0  0  0  0
  -19.8567    2.1491    0.0000 H   0  0  0  0  0  0  0  0  0  0  0  0
  -17.1872   -1.6709    0.0000 H   0  0  0  0  0  0  0  0  0  0  0  0
  -16.4286    0.2498    0.0000 H   0  0  0  0  0  0  0  0  0  0  0  0
  -17.4050    1.1307    0.0000 H   0  0  0  0  0  0  0  0  0  0  0  0
  -18.8351    0.8341    0.0000 H   0  0  0  0  0  0  0  0  0  0  0  0
  -18.3803   -2.3661    0.0000 H   0  0  0  0  0  0  0  0  0  0  0  0
  -14.9851   -2.7576    0.0000 H   0  0  0  0  0  0  0  0  0  0  0  0
  -15.1825   -1.1357    0.0000 H   0  0  0  0  0  0  0  0  0  0  0  0
  -17.2972   -4.8911    0.0000 H   0  0  0  0  0  0  0  0  0  0  0  0
  -18.0356   -3.2666    0.0000 H   0  0  0  0  0  0  0  0  0  0  0  0
  -14.4844   -2.0873    0.0000 H   0  0  0  0  0  0  0  0  0  0  0  0
  -14.9783    1.2678    0.0000 H   0  0  0  0  0  0  0  0  0  0  0  0
  -12.8488    3.1152    0.0000 H   0  0  0  0  0  0  0  0  0  0  0  0
  -14.5028    2.1236    0.0000 H   0  0  0  0  0  0  0  0  0  0  0  0
   -9.3711    3.1771    0.0000 H   0  0  0  0  0  0  0  0  0  0  0  0
  -11.6279    4.2563    0.0000 H   0  0  0  0  0  0  0  0  0  0  0  0
  -11.1826    2.3137    0.0000 H   0  0  0  0  0  0  0  0  0  0  0  0
  -10.5734   -0.9851    0.0000 H   0  0  0  0  0  0  0  0  0  0  0  0
   -8.0714   -1.9899    0.0000 H   0  0  0  0  0  0  0  0  0  0  0  0
   -9.8131   -1.6020    0.0000 H   0  0  0  0  0  0  0  0  0  0  0  0
   -6.1461    0.9001    0.0000 H   0  0  0  0  0  0  0  0  0  0  0  0
   -7.3560    1.4152    0.0000 H   0  0  0  0  0  0  0  0  0  0  0  0
   -5.3431   -2.3145    0.0000 H   0  0  0  0  0  0  0  0  0  0  0  0
   -7.1192   -2.1417    0.0000 H   0  0  0  0  0  0  0  0  0  0  0  0
   -3.9621    0.8064    0.0000 H   0  0  0  0  0  0  0  0  0  0  0  0
   -1.1578   -2.0889    0.0000 H   0  0  0  0  0  0  0  0  0  0  0  0
   -1.5603    0.4794    0.0000 H   0  0  0  0  0  0  0  0  0  0  0  0
   -2.6200   -3.8634    0.0000 H   0  0  0  0  0  0  0  0  0  0  0  0
   -5.1857   -3.4544    0.0000 H   0  0  0  0  0  0  0  0  0  0  0  0
   -6.6614   -0.5407    0.0000 H   0  0  0  0  0  0  0  0  0  0  0  0
   -7.3258    2.7474    0.0000 H   0  0  0  0  0  0  0  0  0  0  0  0
   -5.1964    4.5948    0.0000 H   0  0  0  0  0  0  0  0  0  0  0  0
   -6.8503    3.6033    0.0000 H   0  0  0  0  0  0  0  0  0  0  0  0
   -2.4385    3.0061    0.0000 H   0  0  0  0  0  0  0  0  0  0  0  0
   -3.4456    1.7195    0.0000 H   0  0  0  0  0  0  0  0  0  0  0  0
   -0.7694    5.5686    0.0000 H   0  0  0  0  0  0  0  0  0  0  0  0
   -0.9331    3.1876    0.0000 H   0  0  0  0  0  0  0  0  0  0  0  0
   -3.7133    3.7920    0.0000 H   0  0  0  0  0  0  0  0  0  0  0  0
   -3.1155    0.2856    0.0000 H   0  0  0  0  0  0  0  0  0  0  0  0
   -2.1147   -0.9979    0.0000 H   0  0  0  0  0  0  0  0  0  0  0  0
   -1.8769   -1.6252    0.0000 H   0  0  0  0  0  0  0  0  0  0  0  0
   -0.9031   -2.2198    0.0000 H   0  0  0  0  0  0  0  0  0  0  0  0
   -0.4488   -2.6488    0.0000 H   0  0  0  0  0  0  0  0  0  0  0  0
    0.7971   -3.0481    0.0000 H   0  0  0  0  0  0  0  0  0  0  0  0
    1.8274   -3.4682    0.0000 H   0  0  0  0  0  0  0  0  0  0  0  0
   -2.9875   -0.7782    0.0000 H   0  0  0  0  0  0  0  0  0  0  0  0
   -4.6517    0.1960    0.0000 H   0  0  0  0  0  0  0  0  0  0  0  0
   -4.4497    1.5710    0.0000 H   0  0  0  0  0  0  0  0  0  0  0  0
   -3.3501    5.4595    0.0000 H   0  0  0  0  0  0  0  0  0  0  0  0
   -2.7897    6.0200    0.0000 H   0  0  0  0  0  0  0  0  0  0  0  0
   -1.5965    8.9795    0.0000 H   0  0  0  0  0  0  0  0  0  0  0  0
   -0.4166    8.0908    0.0000 H   0  0  0  0  0  0  0  0  0  0  0  0
   -4.7050    7.3388    0.0000 H   0  0  0  0  0  0  0  0  0  0  0  0
   -3.6422    6.3129    0.0000 H   0  0  0  0  0  0  0  0  0  0  0  0
   -3.5725   10.6663    0.0000 H   0  0  0  0  0  0  0  0  0  0  0  0
   -2.3299    9.6055    0.0000 H   0  0  0  0  0  0  0  0  0  0  0  0
   -6.7223    9.2041    0.0000 H   0  0  0  0  0  0  0  0  0  0  0  0
   -5.4384    7.9648    0.0000 H   0  0  0  0  0  0  0  0  0  0  0  0
   -7.2190   11.1388    0.0000 H   0  0  0  0  0  0  0  0  0  0  0  0
   -5.7313   12.3658    0.0000 H   0  0  0  0  0  0  0  0  0  0  0  0
   -4.3059   11.2923    0.0000 H   0  0  0  0  0  0  0  0  0  0  0  0
    0.6666    9.2155    0.0000 H   0  0  0  0  0  0  0  0  0  0  0  0
    1.6315    9.1730    0.0000 H   0  0  0  0  0  0  0  0  0  0  0  0
    4.6892   10.0853    0.0000 H   0  0  0  0  0  0  0  0  0  0  0  0
    4.7302    8.6087    0.0000 H   0  0  0  0  0  0  0  0  0  0  0  0
    1.4138    9.8597    0.0000 H   0  0  0  0  0  0  0  0  0  0  0  0
    2.9518   13.3070    0.0000 H   0  0  0  0  0  0  0  0  0  0  0  0
    4.6720   12.8327    0.0000 H   0  0  0  0  0  0  0  0  0  0  0  0
    4.7215   11.0490    0.0000 H   0  0  0  0  0  0  0  0  0  0  0  0
    1.7107   13.1307    0.0000 H   0  0  0  0  0  0  0  0  0  0  0  0
    0.1906   12.1960    0.0000 H   0  0  0  0  0  0  0  0  0  0  0  0
    0.7893   10.3629    0.0000 H   0  0  0  0  0  0  0  0  0  0  0  0
    6.2848    8.4630    0.0000 H   0  0  0  0  0  0  0  0  0  0  0  0
    6.8532    7.6822    0.0000 H   0  0  0  0  0  0  0  0  0  0  0  0
    9.5260    6.0357    0.0000 H   0  0  0  0  0  0  0  0  0  0  0  0
    8.3440    4.9077    0.0000 H   0  0  0  0  0  0  0  0  0  0  0  0
    8.7483    9.2565    0.0000 H   0  0  0  0  0  0  0  0  0  0  0  0
    7.2544    8.2805    0.0000 H   0  0  0  0  0  0  0  0  0  0  0  0
    9.1995    3.6014    0.0000 H   0  0  0  0  0  0  0  0  0  0  0  0
    7.7995   -0.7612    0.0000 H   0  0  0  0  0  0  0  0  0  0  0  0
    8.5696    0.2964    0.0000 H   0  0  0  0  0  0  0  0  0  0  0  0
    6.6396   -2.0529    0.0000 H   0  0  0  0  0  0  0  0  0  0  0  0
    7.5099   -1.3149    0.0000 H   0  0  0  0  0  0  0  0  0  0  0  0
    4.7902   -2.9824    0.0000 H   0  0  0  0  0  0  0  0  0  0  0  0
    6.1424   -2.4040    0.0000 H   0  0  0  0  0  0  0  0  0  0  0  0
    3.7743   -3.4362    0.0000 H   0  0  0  0  0  0  0  0  0  0  0  0
   10.3780    1.8682    0.0000 H   0  0  0  0  0  0  0  0  0  0  0  0
   10.0239    3.6172    0.0000 H   0  0  0  0  0  0  0  0  0  0  0  0
    8.5821    3.9383    0.0000 H   0  0  0  0  0  0  0  0  0  0  0  0
   10.6868    2.6979    0.0000 H   0  0  0  0  0  0  0  0  0  0  0  0
    9.9701   -0.6168    0.0000 H   0  0  0  0  0  0  0  0  0  0  0  0
   10.9792   -2.3406    0.0000 H   0  0  0  0  0  0  0  0  0  0  0  0
   12.7629   -2.2868    0.0000 H   0  0  0  0  0  0  0  0  0  0  0  0
   13.2329   -0.5654    0.0000 H   0  0  0  0  0  0  0  0  0  0  0  0
   13.5048   -1.9002    0.0000 H   0  0  0  0  0  0  0  0  0  0  0  0
   14.5155    1.3370    0.0000 H   0  0  0  0  0  0  0  0  0  0  0  0
   17.2356    2.0775    0.0000 H   0  0  0  0  0  0  0  0  0  0  0  0
   15.3153    1.9017    0.0000 H   0  0  0  0  0  0  0  0  0  0  0  0
   20.3959    0.6243    0.0000 H   0  0  0  0  0  0  0  0  0  0  0  0
   18.8307    2.5759    0.0000 H   0  0  0  0  0  0  0  0  0  0  0  0
   18.3891    0.6325    0.0000 H   0  0  0  0  0  0  0  0  0  0  0  0
   17.5067   -2.6040    0.0000 H   0  0  0  0  0  0  0  0  0  0  0  0
   19.3249   -4.5949    0.0000 H   0  0  0  0  0  0  0  0  0  0  0  0
   17.9240   -3.4897    0.0000 H   0  0  0  0  0  0  0  0  0  0  0  0
   22.3135   -2.8264    0.0000 H   0  0  0  0  0  0  0  0  0  0  0  0
   21.4469   -1.8374    0.0000 H   0  0  0  0  0  0  0  0  0  0  0  0
   21.6422   -6.0711    0.0000 H   0  0  0  0  0  0  0  0  0  0  0  0
   20.1170   -5.1448    0.0000 H   0  0  0  0  0  0  0  0  0  0  0  0
   24.1285   -3.7136    0.0000 H   0  0  0  0  0  0  0  0  0  0  0  0
   25.7738   -7.5407    0.0000 H   0  0  0  0  0  0  0  0  0  0  0  0
   25.8557   -4.8557    0.0000 H   0  0  0  0  0  0  0  0  0  0  0  0
   23.4236   -8.6481    0.0000 H   0  0  0  0  0  0  0  0  0  0  0  0
   21.2894   -7.1664    0.0000 H   0  0  0  0  0  0  0  0  0  0  0  0
   21.2241   -3.9010    0.0000 H   0  0  0  0  0  0  0  0  0  0  0  0
   22.0522   -0.6502    0.0000 H   0  0  0  0  0  0  0  0  0  0  0  0
   24.7723    0.0903    0.0000 H   0  0  0  0  0  0  0  0  0  0  0  0
   22.8519   -0.0855    0.0000 H   0  0  0  0  0  0  0  0  0  0  0  0
   26.7647    0.4516    0.0000 H   0  0  0  0  0  0  0  0  0  0  0  0
   29.1602   -1.7644    0.0000 H   0  0  0  0  0  0  0  0  0  0  0  0
   28.0879   -4.5114    0.0000 H   0  0  0  0  0  0  0  0  0  0  0  0
   25.9258   -1.3547    0.0000 H   0  0  0  0  0  0  0  0  0  0  0  0
   25.0434   -4.5912    0.0000 H   0  0  0  0  0  0  0  0  0  0  0  0
   26.8616   -6.5821    0.0000 H   0  0  0  0  0  0  0  0  0  0  0  0
   25.4083   -5.1150    0.0000 H   0  0  0  0  0  0  0  0  0  0  0  0
   28.9835   -3.8246    0.0000 H   0  0  0  0  0  0  0  0  0  0  0  0
   30.4623   -7.0473    0.0000 H   0  0  0  0  0  0  0  0  0  0  0  0
   29.1788   -8.0583    0.0000 H   0  0  0  0  0  0  0  0  0  0  0  0
   27.6536   -7.1320    0.0000 H   0  0  0  0  0  0  0  0  0  0  0  0
   30.9150   -5.8700    0.0000 H   0  0  0  0  0  0  0  0  0  0  0  0
   31.0754   -3.9483    0.0000 H   0  0  0  0  0  0  0  0  0  0  0  0
   29.0501   -3.5448    0.0000 H   0  0  0  0  0  0  0  0  0  0  0  0
   28.7607   -5.8882    0.0000 H   0  0  0  0  0  0  0  0  0  0  0  0
   29.7590   -2.5696    0.0000 H   0  0  0  0  0  0  0  0  0  0  0  0
   32.1523   -1.8018    0.0000 H   0  0  0  0  0  0  0  0  0  0  0  0
   30.3886   -2.0727    0.0000 H   0  0  0  0  0  0  0  0  0  0  0  0
   32.4585   -5.2145    0.0000 H   0  0  0  0  0  0  0  0  0  0  0  0
   35.4692   -3.3501    0.0000 H   0  0  0  0  0  0  0  0  0  0  0  0
   34.8962   -1.6601    0.0000 H   0  0  0  0  0  0  0  0  0  0  0  0
   33.1125   -1.7140    0.0000 H   0  0  0  0  0  0  0  0  0  0  0  0
   35.3649   -4.5993    0.0000 H   0  0  0  0  0  0  0  0  0  0  0  0
   34.5197   -6.1709    0.0000 H   0  0  0  0  0  0  0  0  0  0  0  0
   32.6550   -5.6792    0.0000 H   0  0  0  0  0  0  0  0  0  0  0  0
  1  2  1  0
  2  3  1  0
  3  4  2  0
  4  5  1  0
  5  6  2  0
  6  7  1  0
  7  8  2  0
  7  9  1  0
  9 10  1  0
 10 11  1  0
 11 12  2  0
  9 13  1  0
 13 14  1  0
 14 15  2  0
 15 16  1  0
 16 17  2  0
 17 18  1  0
 16 19  1  0
 14 20  1  0
 20 21  1  0
 21 22  2  0
 22 23  1  0
 23 24  2  0
 24 25  1  0
 25 26  2  0
 25 27  1  0
  1 28  2  0
  1 29  1  0
 29 30  1  0
 30 31  1  0
 31 32  1  0
 32 33  2  0
 32 34  1  0
 34 35  1  0
 35 36  1  0
 36 37  1  0
 37 38  1  0
 37 39  1  0
 35 40  1  0
 40 41  2  0
 40 42  1  0
 42 43  1  0
 43 44  1  0
 44 45  1  0
 45 46  1  0
 46 47  2  0
 46 48  1  0
 43 49  1  0
 49 50  2  0
 49 51  1  0
 51 52  1  0
 52 53  1  0
 53 54  1  0
 54 55  1  0
 54 56  2  0
 52 57  1  0
 57 58  2  0
 57 59  1  0
 59 60  1  0
 60 61  1  0
 61 62  1  0
 62 63  1  0
 63 64  1  0
 64 65  1  0
 65 66  2  3
 65 67  1  0
 60 68  1  0
 68 69  2  0
 68 70  1  0
 70 71  1  0
 71 72  1  0
 72 73  1  0
 73 74  1  0
 74 75  1  0
 74 76  2  0
 71 77  1  0
 77 78  2  0
 77 79  1  0
 80 79  1  6
 80 81  1  0
 81 82  1  0
 82 83  1  0
 83 84  1  0
 80 85  1  0
 80 86  1  0
 86 87  2  0
 86 88  1  0
 88 89  1  0
 89 90  1  0
 90 91  1  0
 91 92  1  0
 92 93  1  0
 93 94  1  0
 89 95  1  0
 95 96  2  0
 95 97  1  0
 97 98  1  0
 98 99  1  0
 99100  1  0
100101  1  0
100102  1  0
 98103  1  0
103104  2  0
103105  1  0
105106  1  0
106107  1  0
107108  1  0
108109  1  0
109110  2  0
109111  1  0
106112  1  0
112113  2  0
112114  1  0
114115  1  0
115116  1  0
116117  1  0
117118  1  0
118119  1  0
115120  1  0
115121  1  6
121122  2  0
121123  1  0
123124  1  0
124125  1  0
124126  1  0
126127  2  0
126128  1  0
128129  1  0
129130  1  0
130131  1  0
131132  1  0
131133  2  0
129134  1  0
134135  2  0
134136  1  0
136137  1  0
137138  1  0
138139  1  0
139140  1  0
140141  1  0
141142  1  0
142143  2  3
142144  1  0
137145  1  0
145146  2  0
145147  1  0
147148  1  0
148149  1  0
149150  1  0
150151  2  0
151152  1  0
152153  1  0
153154  2  0
148155  1  0
155156  2  0
155157  1  0
157158  1  0
158159  1  0
159160  1  0
160161  1  0
160162  1  0
158163  1  0
163164  2  0
163165  1  0
165166  1  0
166167  1  0
167168  1  0
168169  1  0
168170  1  0
166171  1  0
171172  2  0
171173  1  0
  8  3  1  0
154150  1  0
 11  6  1  0
 84119  2  0
 18 13  2  0
 22  9  1  0
 26 21  1  0
  2174  1  0
  4175  1  0
  5176  1  0
  8177  1  0
 15178  1  0
 17179  1  0
 18180  1  0
 19181  1  0
 23182  1  0
 24183  1  0
 26184  1  0
 27185  1  0
 29186  1  0
 30187  1  0
 30188  1  0
 31189  1  0
 31190  1  0
 34191  1  0
 35192  1  1
 36193  1  0
 36194  1  0
 37195  1  0
 38196  1  0
 38197  1  0
 38198  1  0
 39199  1  0
 39200  1  0
 39201  1  0
 42202  1  0
 43203  1  6
 44204  1  0
 44205  1  0
 45206  1  0
 45207  1  0
 51208  1  0
 52209  1  1
 53210  1  0
 53211  1  0
 55212  1  0
 55213  1  0
 59214  1  0
 60215  1  6
 61216  1  0
 61217  1  0
 62218  1  0
 62219  1  0
 63220  1  0
 63221  1  0
 64222  1  0
 66223  1  0
 66224  1  0
 67225  1  0
 67226  1  0
 70227  1  0
 71228  1  1
 72229  1  0
 72230  1  0
 73231  1  0
 73232  1  0
 75233  1  0
 75234  1  0
 79235  1  0
 81236  1  0
 81237  1  0
 82238  1  0
 82239  1  0
 83240  1  0
 83241  1  0
 84242  1  0
 85243  1  0
 85244  1  0
 85245  1  0
 88246  1  0
 89247  1  1
 90248  1  0
 90249  1  0
 91250  1  0
 91251  1  0
 92252  1  0
 92253  1  0
 93254  1  0
 93255  1  0
 94256  1  0
 94257  1  0
 94258  1  0
 97259  1  0
 98260  1  1
 99261  1  0
 99262  1  0
100263  1  0
101264  1  0
101265  1  0
101266  1  0
102267  1  0
102268  1  0
102269  1  0
105270  1  0
106271  1  1
107272  1  0
107273  1  0
108274  1  0
108275  1  0
114276  1  0
116277  1  0
116278  1  0
117279  1  0
117280  1  0
118281  1  0
118282  1  0
119283  1  0
120284  1  0
120285  1  0
120286  1  0
123287  1  0
124288  1  6
125289  1  0
125290  1  0
125291  1  0
128292  1  0
129293  1  1
130294  1  0
130295  1  0
132296  1  0
132297  1  0
136298  1  0
137299  1  6
138300  1  0
138301  1  0
139302  1  0
139303  1  0
140304  1  0
140305  1  0
141306  1  0
143307  1  0
143308  1  0
144309  1  0
144310  1  0
147311  1  0
148312  1  1
149313  1  0
149314  1  0
151315  1  0
152316  1  0
153317  1  0
157318  1  0
158319  1  6
159320  1  0
159321  1  0
160322  1  0
161323  1  0
161324  1  0
161325  1  0
162326  1  0
162327  1  0
162328  1  0
165329  1  0
166330  1  1
167331  1  0
167332  1  0
168333  1  0
169334  1  0
169335  1  0
169336  1  0
170337  1  0
170338  1  0
170339  1  0
M  CHG  6  48  -1  66   1  94   1 111  -1 143   1 173  -1
M  END
