
     RDKit          2D

333341  0  0  0  0  0  0  0  0999 V2000
   30.3368   -1.8311    0.0000 C   0  0  0  0  0  0  0  0  0  0  0  0
   31.6716   -1.1467    0.0000 N   0  0  0  0  0  0  0  0  0  0  0  0
   32.9317   -1.9604    0.0000 C   0  0  0  0  0  0  0  0  0  0  0  0
   32.8570   -3.4586    0.0000 C   0  0  0  0  0  0  0  0  0  0  0  0
   34.1171   -4.2723    0.0000 C   0  0  0  0  0  0  0  0  0  0  0  0
   35.4519   -3.5879    0.0000 C   0  0  0  0  0  0  0  0  0  0  0  0
   35.5266   -2.0898    0.0000 C   0  0  0  0  0  0  0  0  0  0  0  0
   34.2665   -1.2760    0.0000 C   0  0  0  0  0  0  0  0  0  0  0  0
   36.9744   -1.6979    0.0000 C   0  0  0  0  0  0  0  0  0  0  0  0
   37.7946   -2.9538    0.0000 O   0  0  0  0  0  0  0  0  0  0  0  0
   36.8536   -4.1219    0.0000 C   0  0  0  0  0  0  0  0  0  0  0  0
   37.2455   -5.5698    0.0000 O   0  0  0  0  0  0  0  0  0  0  0  0
   38.4554   -1.4595    0.0000 C   0  0  0  0  0  0  0  0  0  0  0  0
   38.9894   -0.0577    0.0000 C   0  0  0  0  0  0  0  0  0  0  0  0
   40.4703    0.1807    0.0000 C   0  0  0  0  0  0  0  0  0  0  0  0
   41.4172   -0.9826    0.0000 C   0  0  0  0  0  0  0  0  0  0  0  0
   40.8833   -2.3844    0.0000 C   0  0  0  0  0  0  0  0  0  0  0  0
   39.4023   -2.6228    0.0000 C   0  0  0  0  0  0  0  0  0  0  0  0
   42.8982   -0.7442    0.0000 O   0  0  0  0  0  0  0  0  0  0  0  0
   38.0424    1.1056    0.0000 O   0  0  0  0  0  0  0  0  0  0  0  0
   36.5615    0.8672    0.0000 C   0  0  0  0  0  0  0  0  0  0  0  0
   36.0275   -0.5346    0.0000 C   0  0  0  0  0  0  0  0  0  0  0  0
   34.7958   -0.1189    0.0000 C   0  0  0  0  0  0  0  0  0  0  0  0
   34.2907    0.5016    0.0000 C   0  0  0  0  0  0  0  0  0  0  0  0
   34.5755    1.2492    0.0000 C   0  0  0  0  0  0  0  0  0  0  0  0
   35.3653    1.3763    0.0000 C   0  0  0  0  0  0  0  0  0  0  0  0
   33.1867    2.9554    0.0000 O   0  0  0  0  0  0  0  0  0  0  0  0
   30.2622   -3.3292    0.0000 S   0  0  0  0  0  0  0  0  0  0  0  0
   29.0768   -1.0173    0.0000 N   0  0  0  0  0  0  0  0  0  0  0  0
   27.7420   -1.7017    0.0000 C   0  0  0  0  0  0  0  0  0  0  0  0
   26.4819   -0.8880    0.0000 C   0  0  0  0  0  0  0  0  0  0  0  0
   25.1471   -1.5723    0.0000 C   0  0  0  0  0  0  0  0  0  0  0  0
   25.0724   -3.0705    0.0000 O   0  0  0  0  0  0  0  0  0  0  0  0
   23.8871   -0.7586    0.0000 N   0  0  0  0  0  0  0  0  0  0  0  0
   22.5523   -1.4430    0.0000 C   0  0  0  0  0  0  0  0  0  0  0  0
   21.5321   -2.5426    0.0000 C   0  0  0  0  0  0  0  0  0  0  0  0
   20.0697   -2.2089    0.0000 C   0  0  0  0  0  0  0  0  0  0  0  0
   19.0495   -3.3085    0.0000 C   0  0  0  0  0  0  0  0  0  0  0  0
   17.5871   -2.9748    0.0000 C   0  0  0  0  0  0  0  0  0  0  0  0
   16.5669   -4.0745    0.0000 N   0  0  0  0  0  0  0  0  0  0  0  0
   21.2922   -0.6292    0.0000 C   0  0  0  0  0  0  0  0  0  0  0  0
   21.3669    0.8689    0.0000 O   0  0  0  0  0  0  0  0  0  0  0  0
   19.9574   -1.3136    0.0000 N   0  0  0  0  0  0  0  0  0  0  0  0
   18.6973   -0.4999    0.0000 C   0  0  0  0  0  0  0  0  0  0  0  0
   17.7916    0.6958    0.0000 C   0  0  0  0  0  0  0  0  0  0  0  0
   16.6401    1.6571    0.0000 O   0  0  0  0  0  0  0  0  0  0  0  0
   18.3742    2.0780    0.0000 C   0  0  0  0  0  0  0  0  0  0  0  0
   17.3626   -1.1842    0.0000 C   0  0  0  0  0  0  0  0  0  0  0  0
   17.0102   -2.3470    0.0000 O   0  0  0  0  0  0  0  0  0  0  0  0
   16.1025   -0.3705    0.0000 N   0  0  0  0  0  0  0  0  0  0  0  0
   14.7677   -1.0549    0.0000 C   0  0  0  0  0  0  0  0  0  0  0  0
   13.7475   -2.1545    0.0000 C   0  0  0  0  0  0  0  0  0  0  0  0
   12.2851   -1.8208    0.0000 C   0  0  0  0  0  0  0  0  0  0  0  0
   11.8429   -0.3875    0.0000 C   0  0  0  0  0  0  0  0  0  0  0  0
   10.3805   -0.0538    0.0000 C   0  0  0  0  0  0  0  0  0  0  0  0
    9.3603   -1.1534    0.0000 C   0  0  0  0  0  0  0  0  0  0  0  0
    7.8979   -0.8197    0.0000 O   0  0  0  0  0  0  0  0  0  0  0  0
    9.8025   -2.5867    0.0000 C   0  0  0  0  0  0  0  0  0  0  0  0
   11.2649   -2.9204    0.0000 C   0  0  0  0  0  0  0  0  0  0  0  0
   13.5076   -0.2411    0.0000 C   0  0  0  0  0  0  0  0  0  0  0  0
   13.7644    1.2367    0.0000 O   0  0  0  0  0  0  0  0  0  0  0  0
   12.1729   -0.9255    0.0000 N   0  0  0  0  0  0  0  0  0  0  0  0
   10.9128   -0.1118    0.0000 C   0  0  0  0  0  0  0  0  0  0  0  0
   10.0070    1.0839    0.0000 C   0  0  0  0  0  0  0  0  0  0  0  0
   10.5896    2.4661    0.0000 C   0  0  0  0  0  0  0  0  0  0  0  0
    9.6838    3.6618    0.0000 C   0  0  0  0  0  0  0  0  0  0  0  0
   10.2664    5.0440    0.0000 N   0  0  0  0  0  0  0  0  0  0  0  0
    9.3606    6.2397    0.0000 C   0  0  0  0  0  0  0  0  0  0  0  0
    9.9432    7.6219    0.0000 N   0  0  0  0  0  0  0  0  0  0  0  0
    7.8723    6.0531    0.0000 N   0  0  0  0  0  0  0  0  0  0  0  0
    9.5780   -0.7961    0.0000 C   0  0  0  0  0  0  0  0  0  0  0  0
    9.1430   -2.2317    0.0000 O   0  0  0  0  0  0  0  0  0  0  0  0
    8.3179    0.0176    0.0000 N   0  0  0  0  0  0  0  0  0  0  0  0
    6.9832   -0.6668    0.0000 C   0  0  0  0  0  0  0  0  0  0  0  0
    5.7231    0.1470    0.0000 C   0  0  0  0  0  0  0  0  0  0  0  0
    5.7978    1.6451    0.0000 O   0  0  0  0  0  0  0  0  0  0  0  0
    4.3883   -0.5374    0.0000 N   0  0  0  0  0  0  0  0  0  0  0  0
    3.1282    0.2763    0.0000 C   0  0  0  0  0  0  0  0  0  0  0  0
    2.2225    1.4720    0.0000 C   0  0  0  0  0  0  0  0  0  0  0  0
    1.7935   -0.4080    0.0000 C   0  0  0  0  0  0  0  0  0  0  0  0
    1.7188   -1.9062    0.0000 O   0  0  0  0  0  0  0  0  0  0  0  0
    0.5334    0.4057    0.0000 N   0  0  0  0  0  0  0  0  0  0  0  0
   -0.8014   -0.2787    0.0000 C   0  0  0  0  0  0  0  0  0  0  0  0
   -1.8216   -1.3783    0.0000 C   0  0  0  0  0  0  0  0  0  0  0  0
   -3.2840   -1.0446    0.0000 C   0  0  0  0  0  0  0  0  0  0  0  0
   -3.7262    0.3887    0.0000 C   0  0  0  0  0  0  0  0  0  0  0  0
   -5.1886    0.7224    0.0000 C   0  0  0  0  0  0  0  0  0  0  0  0
   -6.2088   -0.3772    0.0000 C   0  0  0  0  0  0  0  0  0  0  0  0
   -5.7666   -1.8105    0.0000 C   0  0  0  0  0  0  0  0  0  0  0  0
   -4.3042   -2.1442    0.0000 C   0  0  0  0  0  0  0  0  0  0  0  0
   -2.0615    0.5351    0.0000 C   0  0  0  0  0  0  0  0  0  0  0  0
   -1.8047    2.0129    0.0000 O   0  0  0  0  0  0  0  0  0  0  0  0
   -3.3963   -0.1493    0.0000 N   0  0  0  0  0  0  0  0  0  0  0  0
   -4.6563    0.6644    0.0000 C   0  0  0  0  0  0  0  0  0  0  0  0
   -5.5621    1.8601    0.0000 C   0  0  0  0  0  0  0  0  0  0  0  0
   -4.9795    3.2423    0.0000 C   0  0  0  0  0  0  0  0  0  0  0  0
   -5.8853    4.4380    0.0000 C   0  0  0  0  0  0  0  0  0  0  0  0
   -5.1386    5.7389    0.0000 N   0  0  0  0  0  0  0  0  0  0  0  0
   -7.3398    4.0714    0.0000 O   0  0  0  0  0  0  0  0  0  0  0  0
   -5.9911   -0.0199    0.0000 C   0  0  0  0  0  0  0  0  0  0  0  0
   -6.2479   -1.4978    0.0000 O   0  0  0  0  0  0  0  0  0  0  0  0
   -7.2512    0.7938    0.0000 N   0  0  0  0  0  0  0  0  0  0  0  0
   -8.5860    0.1094    0.0000 C   0  0  0  0  0  0  0  0  0  0  0  0
   -8.9560   -1.3442    0.0000 C   0  0  0  0  0  0  0  0  0  0  0  0
   -9.7381   -2.6242    0.0000 C   0  0  0  0  0  0  0  0  0  0  0  0
  -10.8627   -3.6168    0.0000 C   0  0  0  0  0  0  0  0  0  0  0  0
  -12.2299   -4.2338    0.0000 C   0  0  0  0  0  0  0  0  0  0  0  0
   -7.3079   -0.6758    0.0000 C   0  0  0  0  0  0  0  0  0  0  0  0
   -8.6608    1.6076    0.0000 C   0  0  0  0  0  0  0  0  0  0  0  0
   -7.3062    2.2518    0.0000 O   0  0  0  0  0  0  0  0  0  0  0  0
   -9.1739    3.0171    0.0000 N   0  0  0  0  0  0  0  0  0  0  0  0
  -10.0797    4.2127    0.0000 C   0  0  0  0  0  0  0  0  0  0  0  0
   -9.7825    5.6830    0.0000 C   0  0  0  0  0  0  0  0  0  0  0  0
   -8.3607    6.1608    0.0000 C   0  0  0  0  0  0  0  0  0  0  0  0
   -8.0635    7.6311    0.0000 C   0  0  0  0  0  0  0  0  0  0  0  0
   -6.8611    6.1235    0.0000 C   0  0  0  0  0  0  0  0  0  0  0  0
  -11.2976    5.0883    0.0000 C   0  0  0  0  0  0  0  0  0  0  0  0
  -10.6134    6.4231    0.0000 O   0  0  0  0  0  0  0  0  0  0  0  0
  -12.7196    5.5659    0.0000 N   0  0  0  0  0  0  0  0  0  0  0  0
  -14.2191    5.6032    0.0000 C   0  0  0  0  0  0  0  0  0  0  0  0
  -15.1833    6.7523    0.0000 C   0  0  0  0  0  0  0  0  0  0  0  0
  -14.6704    8.1618    0.0000 C   0  0  0  0  0  0  0  0  0  0  0  0
  -13.1932    8.4224    0.0000 C   0  0  0  0  0  0  0  0  0  0  0  0
  -12.6802    9.8319    0.0000 C   0  0  0  0  0  0  0  0  0  0  0  0
  -13.6445   10.9810    0.0000 C   0  0  0  0  0  0  0  0  0  0  0  0
  -15.1217   10.7204    0.0000 C   0  0  0  0  0  0  0  0  0  0  0  0
  -15.6346    9.3108    0.0000 C   0  0  0  0  0  0  0  0  0  0  0  0
  -15.6630    5.1969    0.0000 C   0  0  0  0  0  0  0  0  0  0  0  0
  -16.2800    6.5641    0.0000 O   0  0  0  0  0  0  0  0  0  0  0  0
  -16.9230    4.3830    0.0000 N   0  0  0  0  0  0  0  0  0  0  0  0
  -17.8871    3.2339    0.0000 C   0  0  0  0  0  0  0  0  0  0  0  0
  -19.3866    3.1964    0.0000 C   0  0  0  0  0  0  0  0  0  0  0  0
  -20.1689    4.4763    0.0000 C   0  0  0  0  0  0  0  0  0  0  0  0
  -21.6684    4.4388    0.0000 C   0  0  0  0  0  0  0  0  0  0  0  0
  -22.4506    5.7187    0.0000 N   0  0  0  0  0  0  0  0  0  0  0  0
  -22.3857    3.1215    0.0000 O   0  0  0  0  0  0  0  0  0  0  0  0
  -18.4697    1.8517    0.0000 C   0  0  0  0  0  0  0  0  0  0  0  0
  -19.9233    2.2217    0.0000 O   0  0  0  0  0  0  0  0  0  0  0  0
  -18.6190    0.3591    0.0000 N   0  0  0  0  0  0  0  0  0  0  0  0
  -18.3217   -1.1111    0.0000 C   0  0  0  0  0  0  0  0  0  0  0  0
  -17.6042   -2.4284    0.0000 C   0  0  0  0  0  0  0  0  0  0  0  0
  -16.5304   -3.4757    0.0000 C   0  0  0  0  0  0  0  0  0  0  0  0
  -15.1955   -4.1600    0.0000 C   0  0  0  0  0  0  0  0  0  0  0  0
  -13.7183   -4.4204    0.0000 C   0  0  0  0  0  0  0  0  0  0  0  0
  -19.7841   -0.7774    0.0000 C   0  0  0  0  0  0  0  0  0  0  0  0
  -19.2273   -2.3069    0.0000 C   0  0  0  0  0  0  0  0  0  0  0  0
  -18.9964   -3.7890    0.0000 O   0  0  0  0  0  0  0  0  0  0  0  0
  -20.7157   -2.1204    0.0000 N   0  0  0  0  0  0  0  0  0  0  0  0
  -21.6213   -3.3162    0.0000 C   0  0  0  0  0  0  0  0  0  0  0  0
  -22.0634   -4.7496    0.0000 C   0  0  0  0  0  0  0  0  0  0  0  0
  -23.4742   -5.2592    0.0000 C   0  0  0  0  0  0  0  0  0  0  0  0
  -23.1097   -3.1298    0.0000 C   0  0  0  0  0  0  0  0  0  0  0  0
  -23.6924   -1.7476    0.0000 O   0  0  0  0  0  0  0  0  0  0  0  0
  -24.0153   -4.3255    0.0000 N   0  0  0  0  0  0  0  0  0  0  0  0
  -25.5037   -4.1391    0.0000 C   0  0  0  0  0  0  0  0  0  0  0  0
  -26.8386   -3.4548    0.0000 C   0  0  0  0  0  0  0  0  0  0  0  0
  -26.9134   -1.9567    0.0000 C   0  0  0  0  0  0  0  0  0  0  0  0
  -28.2482   -1.2724    0.0000 C   0  0  0  0  0  0  0  0  0  0  0  0
  -28.3231    0.2257    0.0000 N   0  0  0  0  0  0  0  0  0  0  0  0
  -29.6579    0.9099    0.0000 C   0  0  0  0  0  0  0  0  0  0  0  0
  -29.7328    2.4081    0.0000 N   0  0  0  0  0  0  0  0  0  0  0  0
  -30.9179    0.0960    0.0000 N   0  0  0  0  0  0  0  0  0  0  0  0
  -26.4094   -5.3348    0.0000 C   0  0  0  0  0  0  0  0  0  0  0  0
  -25.8266   -6.7170    0.0000 O   0  0  0  0  0  0  0  0  0  0  0  0
  -27.8977   -5.1484    0.0000 N   0  0  0  0  0  0  0  0  0  0  0  0
  -28.8034   -6.3441    0.0000 C   0  0  0  0  0  0  0  0  0  0  0  0
  -29.2454   -7.7775    0.0000 C   0  0  0  0  0  0  0  0  0  0  0  0
  -30.7078   -8.1114    0.0000 C   0  0  0  0  0  0  0  0  0  0  0  0
  -31.1499   -9.5447    0.0000 C   0  0  0  0  0  0  0  0  0  0  0  0
  -32.6122   -9.8786    0.0000 O   0  0  0  0  0  0  0  0  0  0  0  0
  -30.1295  -10.6443    0.0000 O   0  0  0  0  0  0  0  0  0  0  0  0
  -30.2917   -6.1577    0.0000 C   0  0  0  0  0  0  0  0  0  0  0  0
  -31.3364   -7.2341    0.0000 O   0  0  0  0  0  0  0  0  0  0  0  0
  -30.8745   -4.7755    0.0000 O   0  0  0  0  0  0  0  0  0  0  0  0
   31.5631    0.3494    0.0000 H   0  0  0  0  0  0  0  0  0  0  0  0
   31.5222   -4.1430    0.0000 H   0  0  0  0  0  0  0  0  0  0  0  0
   34.0424   -5.7705    0.0000 H   0  0  0  0  0  0  0  0  0  0  0  0
   33.9764    0.1956    0.0000 H   0  0  0  0  0  0  0  0  0  0  0  0
   41.0043    1.5824    0.0000 H   0  0  0  0  0  0  0  0  0  0  0  0
   41.8302   -3.5477    0.0000 H   0  0  0  0  0  0  0  0  0  0  0  0
   38.8683   -4.0245    0.0000 H   0  0  0  0  0  0  0  0  0  0  0  0
   43.8451   -1.9075    0.0000 H   0  0  0  0  0  0  0  0  0  0  0  0
   34.0126   -2.1747    0.0000 H   0  0  0  0  0  0  0  0  0  0  0  0
   32.1007    0.3342    0.0000 H   0  0  0  0  0  0  0  0  0  0  0  0
   36.1485    3.4322    0.0000 H   0  0  0  0  0  0  0  0  0  0  0  0
   33.7206    4.3571    0.0000 H   0  0  0  0  0  0  0  0  0  0  0  0
   29.1515    0.4808    0.0000 H   0  0  0  0  0  0  0  0  0  0  0  0
   26.7218   -2.8013    0.0000 H   0  0  0  0  0  0  0  0  0  0  0  0
   28.6478   -2.8974    0.0000 H   0  0  0  0  0  0  0  0  0  0  0  0
   25.5761    0.3077    0.0000 H   0  0  0  0  0  0  0  0  0  0  0  0
   27.5021    0.2117    0.0000 H   0  0  0  0  0  0  0  0  0  0  0  0
   23.9617    0.7396    0.0000 H   0  0  0  0  0  0  0  0  0  0  0  0
   23.4581   -2.6386    0.0000 H   0  0  0  0  0  0  0  0  0  0  0  0
   21.1223   -3.9856    0.0000 H   0  0  0  0  0  0  0  0  0  0  0  0
   22.7922   -3.3564    0.0000 H   0  0  0  0  0  0  0  0  0  0  0  0
   18.9182   -1.2476    0.0000 H   0  0  0  0  0  0  0  0  0  0  0  0
   19.9350   -0.7150    0.0000 H   0  0  0  0  0  0  0  0  0  0  0  0
   18.4669   -4.6908    0.0000 H   0  0  0  0  0  0  0  0  0  0  0  0
   20.2010   -4.2698    0.0000 H   0  0  0  0  0  0  0  0  0  0  0  0
   16.2372   -2.3207    0.0000 H   0  0  0  0  0  0  0  0  0  0  0  0
   17.9968   -1.5319    0.0000 H   0  0  0  0  0  0  0  0  0  0  0  0
   15.1560   -3.5650    0.0000 H   0  0  0  0  0  0  0  0  0  0  0  0
   17.0091   -5.5078    0.0000 H   0  0  0  0  0  0  0  0  0  0  0  0
   19.5224   -2.7491    0.0000 H   0  0  0  0  0  0  0  0  0  0  0  0
   19.8440    0.4672    0.0000 H   0  0  0  0  0  0  0  0  0  0  0  0
   16.5356   -0.1243    0.0000 H   0  0  0  0  0  0  0  0  0  0  0  0
   16.4230    3.0056    0.0000 H   0  0  0  0  0  0  0  0  0  0  0  0
   17.6209    3.3752    0.0000 H   0  0  0  0  0  0  0  0  0  0  0  0
   19.3944    3.1777    0.0000 H   0  0  0  0  0  0  0  0  0  0  0  0
   19.7240    1.4240    0.0000 H   0  0  0  0  0  0  0  0  0  0  0  0
   15.9940    1.1256    0.0000 H   0  0  0  0  0  0  0  0  0  0  0  0
   15.5210   -2.3520    0.0000 H   0  0  0  0  0  0  0  0  0  0  0  0
   13.1649   -3.5367    0.0000 H   0  0  0  0  0  0  0  0  0  0  0  0
   15.0974   -2.8086    0.0000 H   0  0  0  0  0  0  0  0  0  0  0  0
   12.7215    0.8283    0.0000 H   0  0  0  0  0  0  0  0  0  0  0  0
    9.6046    1.2300    0.0000 H   0  0  0  0  0  0  0  0  0  0  0  0
    6.8777   -1.9193    0.0000 H   0  0  0  0  0  0  0  0  0  0  0  0
    8.7823   -3.6864    0.0000 H   0  0  0  0  0  0  0  0  0  0  0  0
   11.7071   -4.3538    0.0000 H   0  0  0  0  0  0  0  0  0  0  0  0
   11.7379   -2.3611    0.0000 H   0  0  0  0  0  0  0  0  0  0  0  0
   12.0594    0.8553    0.0000 H   0  0  0  0  0  0  0  0  0  0  0  0
    8.7469    1.8977    0.0000 H   0  0  0  0  0  0  0  0  0  0  0  0
    8.7511    0.2638    0.0000 H   0  0  0  0  0  0  0  0  0  0  0  0
   11.6098    3.5658    0.0000 H   0  0  0  0  0  0  0  0  0  0  0  0
   11.9395    1.8121    0.0000 H   0  0  0  0  0  0  0  0  0  0  0  0
    8.4237    4.4755    0.0000 H   0  0  0  0  0  0  0  0  0  0  0  0
    8.5372    2.6947    0.0000 H   0  0  0  0  0  0  0  0  0  0  0  0
   11.7548    5.2306    0.0000 H   0  0  0  0  0  0  0  0  0  0  0  0
    9.0374    8.8176    0.0000 H   0  0  0  0  0  0  0  0  0  0  0  0
    6.9665    7.2487    0.0000 H   0  0  0  0  0  0  0  0  0  0  0  0
    7.2897    4.6709    0.0000 H   0  0  0  0  0  0  0  0  0  0  0  0
    8.2094    1.5137    0.0000 H   0  0  0  0  0  0  0  0  0  0  0  0
    5.9630   -1.7664    0.0000 H   0  0  0  0  0  0  0  0  0  0  0  0
    7.8889   -1.8624    0.0000 H   0  0  0  0  0  0  0  0  0  0  0  0
    4.3136   -2.0355    0.0000 H   0  0  0  0  0  0  0  0  0  0  0  0
    4.1484    1.3760    0.0000 H   0  0  0  0  0  0  0  0  0  0  0  0
    2.8050    2.8542    0.0000 H   0  0  0  0  0  0  0  0  0  0  0  0
    1.0710    2.4333    0.0000 H   0  0  0  0  0  0  0  0  0  0  0  0
    0.9665    0.6519    0.0000 H   0  0  0  0  0  0  0  0  0  0  0  0
    0.4249    1.9018    0.0000 H   0  0  0  0  0  0  0  0  0  0  0  0
    0.1044   -1.4743    0.0000 H   0  0  0  0  0  0  0  0  0  0  0  0
   -2.4042   -2.7605    0.0000 H   0  0  0  0  0  0  0  0  0  0  0  0
   -0.5615   -2.1921    0.0000 H   0  0  0  0  0  0  0  0  0  0  0  0
   -2.8477    1.6045    0.0000 H   0  0  0  0  0  0  0  0  0  0  0  0
   -5.9645    2.0062    0.0000 H   0  0  0  0  0  0  0  0  0  0  0  0
   -7.6712   -0.0435    0.0000 H   0  0  0  0  0  0  0  0  0  0  0  0
   -6.7868   -2.9102    0.0000 H   0  0  0  0  0  0  0  0  0  0  0  0
   -3.8620   -3.5776    0.0000 H   0  0  0  0  0  0  0  0  0  0  0  0
   -3.8312   -1.5849    0.0000 H   0  0  0  0  0  0  0  0  0  0  0  0
   -3.5097    1.6315    0.0000 H   0  0  0  0  0  0  0  0  0  0  0  0
   -6.5878    2.9546    0.0000 H   0  0  0  0  0  0  0  0  0  0  0  0
   -6.7087    0.8930    0.0000 H   0  0  0  0  0  0  0  0  0  0  0  0
   -3.9593    4.3420    0.0000 H   0  0  0  0  0  0  0  0  0  0  0  0
   -3.6296    2.5883    0.0000 H   0  0  0  0  0  0  0  0  0  0  0  0
   -6.0560    7.1174    0.0000 H   0  0  0  0  0  0  0  0  0  0  0  0
   -3.8144    6.0068    0.0000 H   0  0  0  0  0  0  0  0  0  0  0  0
   -7.1765    2.2920    0.0000 H   0  0  0  0  0  0  0  0  0  0  0  0
   -7.4581   -1.2657    0.0000 H   0  0  0  0  0  0  0  0  0  0  0  0
   -8.1110   -2.5835    0.0000 H   0  0  0  0  0  0  0  0  0  0  0  0
   -8.3391   -3.1652    0.0000 H   0  0  0  0  0  0  0  0  0  0  0  0
   -9.1245   -3.9929    0.0000 H   0  0  0  0  0  0  0  0  0  0  0  0
   -9.5808   -4.3957    0.0000 H   0  0  0  0  0  0  0  0  0  0  0  0
  -10.8626   -5.1168    0.0000 H   0  0  0  0  0  0  0  0  0  0  0  0
  -11.8236   -5.6777    0.0000 H   0  0  0  0  0  0  0  0  0  0  0  0
   -7.2317   -2.3400    0.0000 H   0  0  0  0  0  0  0  0  0  0  0  0
   -5.9246   -1.1382    0.0000 H   0  0  0  0  0  0  0  0  0  0  0  0
   -6.3181    0.1947    0.0000 H   0  0  0  0  0  0  0  0  0  0  0  0
   -7.9539    3.8897    0.0000 H   0  0  0  0  0  0  0  0  0  0  0  0
   -8.5875    4.3658    0.0000 H   0  0  0  0  0  0  0  0  0  0  0  0
  -10.1853    7.1279    0.0000 H   0  0  0  0  0  0  0  0  0  0  0  0
  -11.2285    6.0821    0.0000 H   0  0  0  0  0  0  0  0  0  0  0  0
   -8.1370    4.6776    0.0000 H   0  0  0  0  0  0  0  0  0  0  0  0
   -6.7105    8.2786    0.0000 H   0  0  0  0  0  0  0  0  0  0  0  0
   -8.2872    9.1143    0.0000 H   0  0  0  0  0  0  0  0  0  0  0  0
   -9.5473    7.8509    0.0000 H   0  0  0  0  0  0  0  0  0  0  0  0
   -6.0791    7.4035    0.0000 H   0  0  0  0  0  0  0  0  0  0  0  0
   -5.4084    5.7498    0.0000 H   0  0  0  0  0  0  0  0  0  0  0  0
   -7.3353    4.7004    0.0000 H   0  0  0  0  0  0  0  0  0  0  0  0
  -12.2810    7.0004    0.0000 H   0  0  0  0  0  0  0  0  0  0  0  0
  -13.5683    6.9547    0.0000 H   0  0  0  0  0  0  0  0  0  0  0  0
  -16.4824    7.5022    0.0000 H   0  0  0  0  0  0  0  0  0  0  0  0
  -16.3969    5.8706    0.0000 H   0  0  0  0  0  0  0  0  0  0  0  0
  -12.0961    7.3995    0.0000 H   0  0  0  0  0  0  0  0  0  0  0  0
  -11.2030   10.0925    0.0000 H   0  0  0  0  0  0  0  0  0  0  0  0
  -13.1315   12.3905    0.0000 H   0  0  0  0  0  0  0  0  0  0  0  0
  -16.0859   11.8694    0.0000 H   0  0  0  0  0  0  0  0  0  0  0  0
  -17.1118    9.0503    0.0000 H   0  0  0  0  0  0  0  0  0  0  0  0
  -17.9156    5.5076    0.0000 H   0  0  0  0  0  0  0  0  0  0  0  0
  -18.3684    4.6546    0.0000 H   0  0  0  0  0  0  0  0  0  0  0  0
  -20.7829    2.6483    0.0000 H   0  0  0  0  0  0  0  0  0  0  0  0
  -19.4539    1.6979    0.0000 H   0  0  0  0  0  0  0  0  0  0  0  0
  -20.4662    5.9466    0.0000 H   0  0  0  0  0  0  0  0  0  0  0  0
  -18.8498    5.1905    0.0000 H   0  0  0  0  0  0  0  0  0  0  0  0
  -23.9502    5.6813    0.0000 H   0  0  0  0  0  0  0  0  0  0  0  0
  -21.7333    7.0361    0.0000 H   0  0  0  0  0  0  0  0  0  0  0  0
  -20.1171    0.2843    0.0000 H   0  0  0  0  0  0  0  0  0  0  0  0
  -18.1172   -3.8380    0.0000 H   0  0  0  0  0  0  0  0  0  0  0  0
  -19.0284   -2.8992    0.0000 H   0  0  0  0  0  0  0  0  0  0  0  0
  -16.7871   -4.9536    0.0000 H   0  0  0  0  0  0  0  0  0  0  0  0
  -17.7525   -4.3454    0.0000 H   0  0  0  0  0  0  0  0  0  0  0  0
  -14.8253   -5.6136    0.0000 H   0  0  0  0  0  0  0  0  0  0  0  0
  -16.2455   -5.2312    0.0000 H   0  0  0  0  0  0  0  0  0  0  0  0
  -13.7556   -5.9199    0.0000 H   0  0  0  0  0  0  0  0  0  0  0  0
  -21.0400   -1.5975    0.0000 H   0  0  0  0  0  0  0  0  0  0  0  0
  -20.9356    0.1838    0.0000 H   0  0  0  0  0  0  0  0  0  0  0  0
  -19.5533    0.7047    0.0000 H   0  0  0  0  0  0  0  0  0  0  0  0
  -21.4625   -0.8196    0.0000 H   0  0  0  0  0  0  0  0  0  0  0  0
  -20.2865   -4.0004    0.0000 H   0  0  0  0  0  0  0  0  0  0  0  0
  -21.9885   -6.2477    0.0000 H   0  0  0  0  0  0  0  0  0  0  0  0
  -20.5750   -4.9360    0.0000 H   0  0  0  0  0  0  0  0  0  0  0  0
  -23.9678   -6.5168    0.0000 H   0  0  0  0  0  0  0  0  0  0  0  0
  -25.0141   -4.8970    0.0000 H   0  0  0  0  0  0  0  0  0  0  0  0
  -24.2953   -3.7959    0.0000 H   0  0  0  0  0  0  0  0  0  0  0  0
  -23.6054   -5.7684    0.0000 H   0  0  0  0  0  0  0  0  0  0  0  0
  -24.8902   -2.7703    0.0000 H   0  0  0  0  0  0  0  0  0  0  0  0
  -28.3269   -3.2684    0.0000 H   0  0  0  0  0  0  0  0  0  0  0  0
  -27.6143   -4.7386    0.0000 H   0  0  0  0  0  0  0  0  0  0  0  0
  -26.4713   -0.5233    0.0000 H   0  0  0  0  0  0  0  0  0  0  0  0
  -25.4134   -1.9603    0.0000 H   0  0  0  0  0  0  0  0  0  0  0  0
  -29.7366   -1.0860    0.0000 H   0  0  0  0  0  0  0  0  0  0  0  0
  -28.8617   -2.6413    0.0000 H   0  0  0  0  0  0  0  0  0  0  0  0
  -27.0631    1.0396    0.0000 H   0  0  0  0  0  0  0  0  0  0  0  0
  -31.0676    3.0923    0.0000 H   0  0  0  0  0  0  0  0  0  0  0  0
  -32.2528    0.7803    0.0000 H   0  0  0  0  0  0  0  0  0  0  0  0
  -30.8431   -1.4021    0.0000 H   0  0  0  0  0  0  0  0  0  0  0  0
  -28.6446   -3.8475    0.0000 H   0  0  0  0  0  0  0  0  0  0  0  0
  -27.4685   -7.0284    0.0000 H   0  0  0  0  0  0  0  0  0  0  0  0
  -29.1706   -9.2756    0.0000 H   0  0  0  0  0  0  0  0  0  0  0  0
  -27.7571   -7.9639    0.0000 H   0  0  0  0  0  0  0  0  0  0  0  0
  -32.1962   -7.9249    0.0000 H   0  0  0  0  0  0  0  0  0  0  0  0
  -31.3147   -6.7396    0.0000 H   0  0  0  0  0  0  0  0  0  0  0  0
  -30.5716  -12.0777    0.0000 H   0  0  0  0  0  0  0  0  0  0  0  0
  -32.3628   -4.5891    0.0000 H   0  0  0  0  0  0  0  0  0  0  0  0
  1  2  1  0
  2  3  1  0
  3  4  2  0
  4  5  1  0
  5  6  2  0
  6  7  1  0
  7  8  2  0
  7  9  1  0
  9 10  1  0
 10 11  1  0
 11 12  2  0
  9 13  1  0
 13 14  1  0
 14 15  2  0
 15 16  1  0
 16 17  2  0
 17 18  1  0
 16 19  1  0
 14 20  1  0
 20 21  1  0
 21 22  2  0
 22 23  1  0
 23 24  2  0
 24 25  1  0
 25 26  2  0
 25 27  1  0
  1 28  2  0
  1 29  1  0
 29 30  1  0
 30 31  1  0
 31 32  1  0
 32 33  2  0
 32 34  1  0
 34 35  1  0
 35 36  1  0
 36 37  1  0
 37 38  1  0
 38 39  1  0
 39 40  1  0
 35 41  1  0
 41 42  2  0
 41 43  1  0
 43 44  1  0
 44 45  1  0
 45 46  1  0
 45 47  1  0
 44 48  1  0
 48 49  2  0
 48 50  1  0
 50 51  1  0
 51 52  1  0
 52 53  1  0
 53 54  2  0
 54 55  1  0
 55 56  2  0
 56 57  1  0
 56 58  1  0
 58 59  2  0
 51 60  1  0
 60 61  2  0
 60 62  1  0
 62 63  1  0
 63 64  1  0
 64 65  1  0
 65 66  1  0
 66 67  1  0
 67 68  1  0
 68 69  2  3
 68 70  1  0
 63 71  1  0
 71 72  2  0
 71 73  1  0
 73 74  1  0
 74 75  1  0
 75 76  2  0
 75 77  1  0
 77 78  1  0
 78 79  1  0
 78 80  1  0
 80 81  2  0
 80 82  1  0
 82 83  1  0
 83 84  1  0
 84 85  1  0
 85 86  2  0
 86 87  1  0
 87 88  2  0
 88 89  1  0
 89 90  2  0
 83 91  1  0
 91 92  2  0
 91 93  1  0
 93 94  1  0
 94 95  1  0
 95 96  1  0
 96 97  1  0
 97 98  1  0
 97 99  2  0
 94100  1  0
100101  2  0
100102  1  0
103102  1  1
103104  1  0
104105  1  0
105106  1  0
106107  1  0
103108  1  0
103109  1  0
109110  2  0
109111  1  0
111112  1  0
112113  1  0
113114  1  0
114115  1  0
114116  1  0
112117  1  0
117118  2  0
117119  1  0
119120  1  0
120121  1  0
121122  1  0
122123  2  0
123124  1  0
124125  2  0
125126  1  0
126127  2  0
120128  1  0
128129  2  0
128130  1  0
130131  1  0
131132  1  0
132133  1  0
133134  1  0
134135  1  0
134136  2  0
131137  1  0
137138  2  0
137139  1  0
139140  1  0
140141  1  0
141142  1  0
142143  1  0
143144  1  0
140145  1  0
140146  1  1
146147  2  0
146148  1  0
148149  1  0
149150  1  0
150151  1  0
149152  1  0
152153  2  0
152154  1  0
154155  1  0
155156  1  0
156157  1  0
157158  1  0
158159  1  0
159160  1  0
160161  2  3
160162  1  0
155163  1  0
163164  2  0
163165  1  0
165166  1  0
166167  1  0
167168  1  0
168169  1  0
169170  2  0
169171  1  0
166172  1  0
172173  2  0
172174  1  0
  8  3  1  0
 59 53  1  0
 90 85  1  0
127122  1  0
 11  6  1  0
107144  2  0
 18 13  2  0
 22  9  1  0
 26 21  1  0
  2175  1  0
  4176  1  0
  5177  1  0
  8178  1  0
 15179  1  0
 17180  1  0
 18181  1  0
 19182  1  0
 23183  1  0
 24184  1  0
 26185  1  0
 27186  1  0
 29187  1  0
 30188  1  0
 30189  1  0
 31190  1  0
 31191  1  0
 34192  1  0
 35193  1  1
 36194  1  0
 36195  1  0
 37196  1  0
 37197  1  0
 38198  1  0
 38199  1  0
 39200  1  0
 39201  1  0
 40202  1  0
 40203  1  0
 43204  1  0
 44205  1  6
 45206  1  1
 46207  1  0
 47208  1  0
 47209  1  0
 47210  1  0
 50211  1  0
 51212  1  1
 52213  1  0
 52214  1  0
 54215  1  0
 55216  1  0
 57217  1  0
 58218  1  0
 59219  1  0
 62220  1  0
 63221  1  6
 64222  1  0
 64223  1  0
 65224  1  0
 65225  1  0
 66226  1  0
 66227  1  0
 67228  1  0
 69229  1  0
 70230  1  0
 70231  1  0
 73232  1  0
 74233  1  0
 74234  1  0
 77235  1  0
 78236  1  6
 79237  1  0
 79238  1  0
 79239  1  0
 82240  1  0
 83241  1  1
 84242  1  0
 84243  1  0
 86244  1  0
 87245  1  0
 88246  1  0
 89247  1  0
 90248  1  0
 93249  1  0
 94250  1  6
 95251  1  0
 95252  1  0
 96253  1  0
 96254  1  0
 98255  1  0
 98256  1  0
102257  1  0
104258  1  0
104259  1  0
105260  1  0
105261  1  0
106262  1  0
106263  1  0
107264  1  0
108265  1  0
108266  1  0
108267  1  0
111268  1  0
112269  1  6
113270  1  0
113271  1  0
114272  1  0
115273  1  0
115274  1  0
115275  1  0
116276  1  0
116277  1  0
116278  1  0
119279  1  0
120280  1  6
121281  1  0
121282  1  0
123283  1  0
124284  1  0
125285  1  0
126286  1  0
127287  1  0
130288  1  0
131289  1  6
132290  1  0
132291  1  0
133292  1  0
133293  1  0
135294  1  0
135295  1  0
139296  1  0
141297  1  0
141298  1  0
142299  1  0
142300  1  0
143301  1  0
143302  1  0
144303  1  0
145304  1  0
145305  1  0
145306  1  0
148307  1  0
149308  1  1
150309  1  0
150310  1  0
151311  1  0
151312  1  0
151313  1  0
154314  1  0
155315  1  6
156316  1  0
156317  1  0
157318  1  0
157319  1  0
158320  1  0
158321  1  0
159322  1  0
161323  1  0
162324  1  0
162325  1  0
165326  1  0
166327  1  1
167328  1  0
167329  1  0
168330  1  0
168331  1  0
171332  1  0
174333  1  0
M  END
