
     RDKit          2D

302303  0  0  0  0  0  0  0  0999 V2000
   36.9144    3.9928    0.0000 N   0  0  0  0  0  0  0  0  0  0  0  0
   35.5814    3.3049    0.0000 C   0  0  0  0  0  0  0  0  0  0  0  0
   34.3192    4.1153    0.0000 C   0  0  0  0  0  0  0  0  0  0  0  0
   32.9862    3.4275    0.0000 O   0  0  0  0  0  0  0  0  0  0  0  0
   31.7240    4.2379    0.0000 C   0  0  0  0  0  0  0  0  0  0  0  0
   30.3910    3.5500    0.0000 C   0  0  0  0  0  0  0  0  0  0  0  0
   29.1288    4.3604    0.0000 O   0  0  0  0  0  0  0  0  0  0  0  0
   27.7959    3.6725    0.0000 C   0  0  0  0  0  0  0  0  0  0  0  0
   26.5336    4.4830    0.0000 C   0  0  0  0  0  0  0  0  0  0  0  0
   25.2007    3.7951    0.0000 O   0  0  0  0  0  0  0  0  0  0  0  0
   23.9385    4.6055    0.0000 C   0  0  0  0  0  0  0  0  0  0  0  0
   22.6055    3.9176    0.0000 C   0  0  0  0  0  0  0  0  0  0  0  0
   21.3433    4.7281    0.0000 O   0  0  0  0  0  0  0  0  0  0  0  0
   20.0103    4.0402    0.0000 C   0  0  0  0  0  0  0  0  0  0  0  0
   18.7481    4.8506    0.0000 C   0  0  0  0  0  0  0  0  0  0  0  0
   17.4151    4.1627    0.0000 O   0  0  0  0  0  0  0  0  0  0  0  0
   16.1529    4.9732    0.0000 C   0  0  0  0  0  0  0  0  0  0  0  0
   14.8199    4.2853    0.0000 C   0  0  0  0  0  0  0  0  0  0  0  0
   13.5577    5.0957    0.0000 O   0  0  0  0  0  0  0  0  0  0  0  0
   12.2247    4.4078    0.0000 C   0  0  0  0  0  0  0  0  0  0  0  0
   10.9625    5.2183    0.0000 C   0  0  0  0  0  0  0  0  0  0  0  0
    9.6296    4.5304    0.0000 C   0  0  0  0  0  0  0  0  0  0  0  0
    9.5588    3.0320    0.0000 O   0  0  0  0  0  0  0  0  0  0  0  0
    8.3673    5.3408    0.0000 N   0  0  0  0  0  0  0  0  0  0  0  0
    7.0344    4.6529    0.0000 C   0  0  0  0  0  0  0  0  0  0  0  0
    6.5884    6.0851    0.0000 C   0  0  0  0  0  0  0  0  0  0  0  0
    7.6057    7.1874    0.0000 C   0  0  0  0  0  0  0  0  0  0  0  0
    7.1597    8.6196    0.0000 N   0  0  0  0  0  0  0  0  0  0  0  0
    9.0983    7.0384    0.0000 O   0  0  0  0  0  0  0  0  0  0  0  0
    6.0171    3.5506    0.0000 C   0  0  0  0  0  0  0  0  0  0  0  0
    4.6049    4.0564    0.0000 O   0  0  0  0  0  0  0  0  0  0  0  0
    6.4630    2.1184    0.0000 N   0  0  0  0  0  0  0  0  0  0  0  0
    5.4457    1.0161    0.0000 C   0  0  0  0  0  0  0  0  0  0  0  0
    4.5368    2.2094    0.0000 C   0  0  0  0  0  0  0  0  0  0  0  0
    3.0490    2.0189    0.0000 C   0  0  0  0  0  0  0  0  0  0  0  0
    2.1401    3.2122    0.0000 C   0  0  0  0  0  0  0  0  0  0  0  0
    0.6522    3.0216    0.0000 N   0  0  0  0  0  0  0  0  0  0  0  0
    2.7190    4.5959    0.0000 O   0  0  0  0  0  0  0  0  0  0  0  0
    4.8668   -0.3676    0.0000 C   0  0  0  0  0  0  0  0  0  0  0  0
    3.3789   -0.5582    0.0000 O   0  0  0  0  0  0  0  0  0  0  0  0
    5.7757   -1.5609    0.0000 N   0  0  0  0  0  0  0  0  0  0  0  0
    5.1968   -2.9447    0.0000 C   0  0  0  0  0  0  0  0  0  0  0  0
    6.6600   -3.2745    0.0000 C   0  0  0  0  0  0  0  0  0  0  0  0
    7.6773   -2.1722    0.0000 C   0  0  0  0  0  0  0  0  0  0  0  0
    9.1406   -2.5021    0.0000 C   0  0  0  0  0  0  0  0  0  0  0  0
    8.2563   -0.7885    0.0000 C   0  0  0  0  0  0  0  0  0  0  0  0
    4.1794   -4.0470    0.0000 C   0  0  0  0  0  0  0  0  0  0  0  0
    4.7967   -5.4141    0.0000 O   0  0  0  0  0  0  0  0  0  0  0  0
    2.7162   -3.7171    0.0000 N   0  0  0  0  0  0  0  0  0  0  0  0
    1.6989   -4.8194    0.0000 C   0  0  0  0  0  0  0  0  0  0  0  0
    2.9611   -5.6299    0.0000 C   0  0  0  0  0  0  0  0  0  0  0  0
    2.8903   -7.1282    0.0000 C   0  0  0  0  0  0  0  0  0  0  0  0
    4.1525   -7.9386    0.0000 C   0  0  0  0  0  0  0  0  0  0  0  0
    4.0818   -9.4370    0.0000 C   0  0  0  0  0  0  0  0  0  0  0  0
    5.3440  -10.2474    0.0000 N   0  0  0  0  0  0  0  0  0  0  0  0
    0.3659   -5.5073    0.0000 C   0  0  0  0  0  0  0  0  0  0  0  0
    0.2951   -7.0057    0.0000 O   0  0  0  0  0  0  0  0  0  0  0  0
   -0.8963   -4.6969    0.0000 N   0  0  0  0  0  0  0  0  0  0  0  0
   -2.2293   -5.3848    0.0000 C   0  0  0  0  0  0  0  0  0  0  0  0
   -2.6753   -3.9526    0.0000 C   0  0  0  0  0  0  0  0  0  0  0  0
   -1.6580   -2.8503    0.0000 C   0  0  0  0  0  0  0  0  0  0  0  0
   -2.1039   -1.4181    0.0000 C   0  0  0  0  0  0  0  0  0  0  0  0
   -1.0866   -0.3158    0.0000 N   0  0  0  0  0  0  0  0  0  0  0  0
   -1.5326    1.1163    0.0000 C   0  0  0  0  0  0  0  0  0  0  0  0
   -0.3885    2.0864    0.0000 N   0  0  0  0  0  0  0  0  0  0  0  0
   -2.9959    1.4462    0.0000 N   0  0  0  0  0  0  0  0  0  0  0  0
   -3.2466   -6.4871    0.0000 C   0  0  0  0  0  0  0  0  0  0  0  0
   -3.9971   -6.2183    0.0000 O   0  0  0  0  0  0  0  0  0  0  0  0
   -2.8006   -7.9193    0.0000 N   0  0  0  0  0  0  0  0  0  0  0  0
   -3.8179   -9.0216    0.0000 C   0  0  0  0  0  0  0  0  0  0  0  0
   -4.7268   -7.8283    0.0000 C   0  0  0  0  0  0  0  0  0  0  0  0
   -4.3209   -6.3843    0.0000 O   0  0  0  0  0  0  0  0  0  0  0  0
   -4.3969  -10.4053    0.0000 C   0  0  0  0  0  0  0  0  0  0  0  0
   -5.8866  -10.2302    0.0000 O   0  0  0  0  0  0  0  0  0  0  0  0
   -3.4880  -11.5986    0.0000 N   0  0  0  0  0  0  0  0  0  0  0  0
   -4.0669  -12.9824    0.0000 C   0  0  0  0  0  0  0  0  0  0  0  0
   -4.1377  -14.4807    0.0000 C   0  0  0  0  0  0  0  0  0  0  0  0
   -2.8754  -15.2912    0.0000 C   0  0  0  0  0  0  0  0  0  0  0  0
   -2.9462  -16.7895    0.0000 C   0  0  0  0  0  0  0  0  0  0  0  0
   -1.6840  -17.5999    0.0000 C   0  0  0  0  0  0  0  0  0  0  0  0
   -0.3510  -16.9120    0.0000 C   0  0  0  0  0  0  0  0  0  0  0  0
   -0.2803  -15.4137    0.0000 C   0  0  0  0  0  0  0  0  0  0  0  0
   -1.5425  -14.6033    0.0000 C   0  0  0  0  0  0  0  0  0  0  0  0
   -5.3291  -12.1719    0.0000 C   0  0  0  0  0  0  0  0  0  0  0  0
   -6.6621  -12.8598    0.0000 O   0  0  0  0  0  0  0  0  0  0  0  0
   -5.2584  -10.6736    0.0000 N   0  0  0  0  0  0  0  0  0  0  0  0
   -6.5206   -9.8632    0.0000 C   0  0  0  0  0  0  0  0  0  0  0  0
   -7.9839   -9.5333    0.0000 C   0  0  0  0  0  0  0  0  0  0  0  0
   -8.4298   -8.1011    0.0000 C   0  0  0  0  0  0  0  0  0  0  0  0
   -7.4125   -6.9988    0.0000 C   0  0  0  0  0  0  0  0  0  0  0  0
   -7.8585   -5.5667    0.0000 C   0  0  0  0  0  0  0  0  0  0  0  0
   -9.3218   -5.2368    0.0000 C   0  0  0  0  0  0  0  0  0  0  0  0
  -10.3391   -6.3391    0.0000 C   0  0  0  0  0  0  0  0  0  0  0  0
   -9.8931   -7.7713    0.0000 C   0  0  0  0  0  0  0  0  0  0  0  0
   -6.4498   -8.3648    0.0000 C   0  0  0  0  0  0  0  0  0  0  0  0
   -5.2107   -7.5196    0.0000 O   0  0  0  0  0  0  0  0  0  0  0  0
   -7.7121   -7.5544    0.0000 N   0  0  0  0  0  0  0  0  0  0  0  0
   -7.6413   -6.0561    0.0000 C   0  0  0  0  0  0  0  0  0  0  0  0
   -6.8980   -4.7532    0.0000 C   0  0  0  0  0  0  0  0  0  0  0  0
   -8.9035   -5.2456    0.0000 C   0  0  0  0  0  0  0  0  0  0  0  0
  -10.3633   -5.5905    0.0000 O   0  0  0  0  0  0  0  0  0  0  0  0
   -8.8328   -3.7473    0.0000 N   0  0  0  0  0  0  0  0  0  0  0  0
  -10.0950   -2.9369    0.0000 C   0  0  0  0  0  0  0  0  0  0  0  0
  -11.5583   -2.6070    0.0000 C   0  0  0  0  0  0  0  0  0  0  0  0
  -12.0042   -1.1748    0.0000 C   0  0  0  0  0  0  0  0  0  0  0  0
  -13.4675   -0.8450    0.0000 C   0  0  0  0  0  0  0  0  0  0  0  0
  -11.9335    0.3235    0.0000 C   0  0  0  0  0  0  0  0  0  0  0  0
  -10.0242   -1.4385    0.0000 C   0  0  0  0  0  0  0  0  0  0  0  0
   -8.6913   -0.7506    0.0000 O   0  0  0  0  0  0  0  0  0  0  0  0
  -11.2864   -0.6281    0.0000 N   0  0  0  0  0  0  0  0  0  0  0  0
  -11.2157    0.8702    0.0000 C   0  0  0  0  0  0  0  0  0  0  0  0
  -10.6368    2.2540    0.0000 C   0  0  0  0  0  0  0  0  0  0  0  0
   -9.1489    2.4445    0.0000 C   0  0  0  0  0  0  0  0  0  0  0  0
   -8.5700    3.8283    0.0000 C   0  0  0  0  0  0  0  0  0  0  0  0
   -7.0821    4.0188    0.0000 N   0  0  0  0  0  0  0  0  0  0  0  0
   -6.5032    5.4026    0.0000 C   0  0  0  0  0  0  0  0  0  0  0  0
   -5.0153    5.5931    0.0000 N   0  0  0  0  0  0  0  0  0  0  0  0
   -7.4121    6.5958    0.0000 N   0  0  0  0  0  0  0  0  0  0  0  0
  -12.4779    1.6807    0.0000 C   0  0  0  0  0  0  0  0  0  0  0  0
  -13.8848    1.1604    0.0000 O   0  0  0  0  0  0  0  0  0  0  0  0
  -12.4072    3.1790    0.0000 N   0  0  0  0  0  0  0  0  0  0  0  0
  -13.6694    3.9894    0.0000 C   0  0  0  0  0  0  0  0  0  0  0  0
  -15.1327    4.3193    0.0000 C   0  0  0  0  0  0  0  0  0  0  0  0
  -15.5786    5.7515    0.0000 C   0  0  0  0  0  0  0  0  0  0  0  0
  -17.0419    6.0813    0.0000 O   0  0  0  0  0  0  0  0  0  0  0  0
  -14.8583    7.0672    0.0000 O   0  0  0  0  0  0  0  0  0  0  0  0
  -13.5986    5.4878    0.0000 C   0  0  0  0  0  0  0  0  0  0  0  0
  -12.2657    6.1757    0.0000 O   0  0  0  0  0  0  0  0  0  0  0  0
  -14.8608    6.2982    0.0000 N   0  0  0  0  0  0  0  0  0  0  0  0
  -14.7901    7.7965    0.0000 C   0  0  0  0  0  0  0  0  0  0  0  0
  -14.2111    9.1803    0.0000 C   0  0  0  0  0  0  0  0  0  0  0  0
  -15.1201   10.3736    0.0000 C   0  0  0  0  0  0  0  0  0  0  0  0
  -14.5411   11.7573    0.0000 C   0  0  0  0  0  0  0  0  0  0  0  0
  -15.2978   13.0525    0.0000 N   0  0  0  0  0  0  0  0  0  0  0  0
  -13.0533   11.9478    0.0000 O   0  0  0  0  0  0  0  0  0  0  0  0
  -16.0523    8.6070    0.0000 C   0  0  0  0  0  0  0  0  0  0  0  0
  -17.3853    7.9191    0.0000 O   0  0  0  0  0  0  0  0  0  0  0  0
  -15.9816   10.1053    0.0000 N   0  0  0  0  0  0  0  0  0  0  0  0
  -17.2438   10.9157    0.0000 C   0  0  0  0  0  0  0  0  0  0  0  0
  -18.7071   11.2456    0.0000 C   0  0  0  0  0  0  0  0  0  0  0  0
  -19.1530   12.6778    0.0000 C   0  0  0  0  0  0  0  0  0  0  0  0
  -20.1949   11.0551    0.0000 C   0  0  0  0  0  0  0  0  0  0  0  0
  -20.7739    9.6713    0.0000 C   0  0  0  0  0  0  0  0  0  0  0  0
  -17.1730   12.4141    0.0000 C   0  0  0  0  0  0  0  0  0  0  0  0
  -18.3270   13.3723    0.0000 O   0  0  0  0  0  0  0  0  0  0  0  0
  -15.9338   13.2593    0.0000 O   0  0  0  0  0  0  0  0  0  0  0  0
   38.1766    3.1824    0.0000 H   0  0  0  0  0  0  0  0  0  0  0  0
   36.9851    5.4911    0.0000 H   0  0  0  0  0  0  0  0  0  0  0  0
   36.4903    2.1116    0.0000 H   0  0  0  0  0  0  0  0  0  0  0  0
   34.5641    2.2026    0.0000 H   0  0  0  0  0  0  0  0  0  0  0  0
   35.3365    5.2177    0.0000 H   0  0  0  0  0  0  0  0  0  0  0  0
   33.5625    5.4105    0.0000 H   0  0  0  0  0  0  0  0  0  0  0  0
   32.5994    5.4560    0.0000 H   0  0  0  0  0  0  0  0  0  0  0  0
   30.8151    5.4312    0.0000 H   0  0  0  0  0  0  0  0  0  0  0  0
   31.2999    2.3567    0.0000 H   0  0  0  0  0  0  0  0  0  0  0  0
   29.5157    2.3319    0.0000 H   0  0  0  0  0  0  0  0  0  0  0  0
   28.5525    2.3774    0.0000 H   0  0  0  0  0  0  0  0  0  0  0  0
   26.7785    2.5702    0.0000 H   0  0  0  0  0  0  0  0  0  0  0  0
   27.5509    5.5853    0.0000 H   0  0  0  0  0  0  0  0  0  0  0  0
   25.7770    5.7781    0.0000 H   0  0  0  0  0  0  0  0  0  0  0  0
   24.8138    5.8236    0.0000 H   0  0  0  0  0  0  0  0  0  0  0  0
   23.0295    5.7988    0.0000 H   0  0  0  0  0  0  0  0  0  0  0  0
   23.5144    2.7244    0.0000 H   0  0  0  0  0  0  0  0  0  0  0  0
   21.7301    2.6995    0.0000 H   0  0  0  0  0  0  0  0  0  0  0  0
   20.7670    2.7450    0.0000 H   0  0  0  0  0  0  0  0  0  0  0  0
   18.9930    2.9379    0.0000 H   0  0  0  0  0  0  0  0  0  0  0  0
   19.7654    5.9529    0.0000 H   0  0  0  0  0  0  0  0  0  0  0  0
   17.9914    6.1458    0.0000 H   0  0  0  0  0  0  0  0  0  0  0  0
   17.0283    6.1913    0.0000 H   0  0  0  0  0  0  0  0  0  0  0  0
   15.2440    6.1664    0.0000 H   0  0  0  0  0  0  0  0  0  0  0  0
   15.7288    3.0920    0.0000 H   0  0  0  0  0  0  0  0  0  0  0  0
   13.9446    3.0672    0.0000 H   0  0  0  0  0  0  0  0  0  0  0  0
   12.9814    3.1127    0.0000 H   0  0  0  0  0  0  0  0  0  0  0  0
   11.2074    3.3055    0.0000 H   0  0  0  0  0  0  0  0  0  0  0  0
   11.9798    6.3206    0.0000 H   0  0  0  0  0  0  0  0  0  0  0  0
   10.0536    6.4115    0.0000 H   0  0  0  0  0  0  0  0  0  0  0  0
    8.6202    6.8193    0.0000 H   0  0  0  0  0  0  0  0  0  0  0  0
    7.9433    3.4596    0.0000 H   0  0  0  0  0  0  0  0  0  0  0  0
    5.6795    7.2783    0.0000 H   0  0  0  0  0  0  0  0  0  0  0  0
    5.2554    5.3972    0.0000 H   0  0  0  0  0  0  0  0  0  0  0  0
    8.1770    9.7219    0.0000 H   0  0  0  0  0  0  0  0  0  0  0  0
    5.6965    8.9494    0.0000 H   0  0  0  0  0  0  0  0  0  0  0  0
    7.9263    1.7886    0.0000 H   0  0  0  0  0  0  0  0  0  0  0  0
    6.5998    0.0579    0.0000 H   0  0  0  0  0  0  0  0  0  0  0  0
    3.9196    3.5765    0.0000 H   0  0  0  0  0  0  0  0  0  0  0  0
    5.6637    3.1994    0.0000 H   0  0  0  0  0  0  0  0  0  0  0  0
    1.7160    1.3310    0.0000 H   0  0  0  0  0  0  0  0  0  0  0  0
    3.4949    0.5867    0.0000 H   0  0  0  0  0  0  0  0  0  0  0  0
   -0.1045    4.3168    0.0000 H   0  0  0  0  0  0  0  0  0  0  0  0
    0.4253    1.5389    0.0000 H   0  0  0  0  0  0  0  0  0  0  0  0
    7.2292   -1.1905    0.0000 H   0  0  0  0  0  0  0  0  0  0  0  0
    3.9345   -2.1342    0.0000 H   0  0  0  0  0  0  0  0  0  0  0  0
    7.8141   -4.2328    0.0000 H   0  0  0  0  0  0  0  0  0  0  0  0
    6.0811   -4.6583    0.0000 H   0  0  0  0  0  0  0  0  0  0  0  0
    6.7895   -0.9632    0.0000 H   0  0  0  0  0  0  0  0  0  0  0  0
   10.2847   -1.5320    0.0000 H   0  0  0  0  0  0  0  0  0  0  0  0
   10.4028   -3.3125    0.0000 H   0  0  0  0  0  0  0  0  0  0  0  0
    8.7347   -3.9461    0.0000 H   0  0  0  0  0  0  0  0  0  0  0  0
    9.7098   -0.4180    0.0000 H   0  0  0  0  0  0  0  0  0  0  0  0
    8.3270    0.7099    0.0000 H   0  0  0  0  0  0  0  0  0  0  0  0
    6.7637   -0.6394    0.0000 H   0  0  0  0  0  0  0  0  0  0  0  0
    2.2702   -2.2850    0.0000 H   0  0  0  0  0  0  0  0  0  0  0  0
    0.7900   -3.6262    0.0000 H   0  0  0  0  0  0  0  0  0  0  0  0
    4.4244   -5.9597    0.0000 H   0  0  0  0  0  0  0  0  0  0  0  0
    3.8577   -4.4273    0.0000 H   0  0  0  0  0  0  0  0  0  0  0  0
    2.1470   -8.4311    0.0000 H   0  0  0  0  0  0  0  0  0  0  0  0
    1.4270   -6.7984    0.0000 H   0  0  0  0  0  0  0  0  0  0  0  0
    5.6451   -8.0877    0.0000 H   0  0  0  0  0  0  0  0  0  0  0  0
    4.8958   -6.6358    0.0000 H   0  0  0  0  0  0  0  0  0  0  0  0
    3.5028  -10.8208    0.0000 H   0  0  0  0  0  0  0  0  0  0  0  0
    2.5892   -9.2879    0.0000 H   0  0  0  0  0  0  0  0  0  0  0  0
    5.2733  -11.7457    0.0000 H   0  0  0  0  0  0  0  0  0  0  0  0
    6.8073  -10.5773    0.0000 H   0  0  0  0  0  0  0  0  0  0  0  0
    6.0873   -8.9445    0.0000 H   0  0  0  0  0  0  0  0  0  0  0  0
   -0.6435   -3.2184    0.0000 H   0  0  0  0  0  0  0  0  0  0  0  0
   -1.3204   -6.5781    0.0000 H   0  0  0  0  0  0  0  0  0  0  0  0
   -3.7229   -2.8790    0.0000 H   0  0  0  0  0  0  0  0  0  0  0  0
   -4.0082   -4.6405    0.0000 H   0  0  0  0  0  0  0  0  0  0  0  0
   -0.3250   -2.1624    0.0000 H   0  0  0  0  0  0  0  0  0  0  0  0
   -0.3817   -3.6385    0.0000 H   0  0  0  0  0  0  0  0  0  0  0  0
   -3.0128   -0.2249    0.0000 H   0  0  0  0  0  0  0  0  0  0  0  0
   -3.5108   -1.9384    0.0000 H   0  0  0  0  0  0  0  0  0  0  0  0
    0.3767   -0.6457    0.0000 H   0  0  0  0  0  0  0  0  0  0  0  0
   -1.1477    3.5693    0.0000 H   0  0  0  0  0  0  0  0  0  0  0  0
    0.9139    1.7273    0.0000 H   0  0  0  0  0  0  0  0  0  0  0  0
   -3.4419    2.8784    0.0000 H   0  0  0  0  0  0  0  0  0  0  0  0
   -4.0132    0.3439    0.0000 H   0  0  0  0  0  0  0  0  0  0  0  0
   -1.3373   -8.2491    0.0000 H   0  0  0  0  0  0  0  0  0  0  0  0
   -2.5557   -9.8320    0.0000 H   0  0  0  0  0  0  0  0  0  0  0  0
   -5.7554   -6.7365    0.0000 H   0  0  0  0  0  0  0  0  0  0  0  0
   -5.7441   -8.9306    0.0000 H   0  0  0  0  0  0  0  0  0  0  0  0
   -5.1894   -5.3494    0.0000 H   0  0  0  0  0  0  0  0  0  0  0  0
   -2.0001  -11.4081    0.0000 H   0  0  0  0  0  0  0  0  0  0  0  0
   -2.6036  -13.3122    0.0000 H   0  0  0  0  0  0  0  0  0  0  0  0
   -5.6009  -14.1509    0.0000 H   0  0  0  0  0  0  0  0  0  0  0  0
   -4.7166  -15.8645    0.0000 H   0  0  0  0  0  0  0  0  0  0  0  0
   -4.2792  -17.4774    0.0000 H   0  0  0  0  0  0  0  0  0  0  0  0
   -1.7547  -19.0983    0.0000 H   0  0  0  0  0  0  0  0  0  0  0  0
    0.9112  -17.7225    0.0000 H   0  0  0  0  0  0  0  0  0  0  0  0
    1.0527  -14.7258    0.0000 H   0  0  0  0  0  0  0  0  0  0  0  0
   -1.4717  -13.1049    0.0000 H   0  0  0  0  0  0  0  0  0  0  0  0
   -4.1315   -9.6836    0.0000 H   0  0  0  0  0  0  0  0  0  0  0  0
   -7.0995  -11.2469    0.0000 H   0  0  0  0  0  0  0  0  0  0  0  0
   -9.4717   -9.7238    0.0000 H   0  0  0  0  0  0  0  0  0  0  0  0
   -8.0546  -11.0316    0.0000 H   0  0  0  0  0  0  0  0  0  0  0  0
   -5.9129   -6.9648    0.0000 H   0  0  0  0  0  0  0  0  0  0  0  0
   -6.9832   -4.3486    0.0000 H   0  0  0  0  0  0  0  0  0  0  0  0
   -9.7678   -3.8046    0.0000 H   0  0  0  0  0  0  0  0  0  0  0  0
  -11.8024   -6.0093    0.0000 H   0  0  0  0  0  0  0  0  0  0  0  0
  -10.9104   -8.8736    0.0000 H   0  0  0  0  0  0  0  0  0  0  0  0
   -9.1719   -7.8993    0.0000 H   0  0  0  0  0  0  0  0  0  0  0  0
   -6.1487   -6.2051    0.0000 H   0  0  0  0  0  0  0  0  0  0  0  0
   -7.4432   -3.1790    0.0000 H   0  0  0  0  0  0  0  0  0  0  0  0
   -6.0451   -3.5700    0.0000 H   0  0  0  0  0  0  0  0  0  0  0  0
   -5.8973   -5.6111    0.0000 H   0  0  0  0  0  0  0  0  0  0  0  0
   -7.5936   -2.9021    0.0000 H   0  0  0  0  0  0  0  0  0  0  0  0
  -10.6739   -4.3206    0.0000 H   0  0  0  0  0  0  0  0  0  0  0  0
  -13.0118   -2.9775    0.0000 H   0  0  0  0  0  0  0  0  0  0  0  0
  -11.6290   -4.1053    0.0000 H   0  0  0  0  0  0  0  0  0  0  0  0
  -10.7801   -0.3080    0.0000 H   0  0  0  0  0  0  0  0  0  0  0  0
  -14.2468    0.4367    0.0000 H   0  0  0  0  0  0  0  0  0  0  0  0
  -14.9554   -1.0355    0.0000 H   0  0  0  0  0  0  0  0  0  0  0  0
  -13.7204   -2.3235    0.0000 H   0  0  0  0  0  0  0  0  0  0  0  0
  -10.8066    1.3135    0.0000 H   0  0  0  0  0  0  0  0  0  0  0  0
  -12.8632    1.5006    0.0000 H   0  0  0  0  0  0  0  0  0  0  0  0
  -13.4335    0.3158    0.0000 H   0  0  0  0  0  0  0  0  0  0  0  0
  -12.7463   -0.9730    0.0000 H   0  0  0  0  0  0  0  0  0  0  0  0
   -9.8035    0.3645    0.0000 H   0  0  0  0  0  0  0  0  0  0  0  0
  -10.5660    3.7523    0.0000 H   0  0  0  0  0  0  0  0  0  0  0  0
  -11.8846    3.0864    0.0000 H   0  0  0  0  0  0  0  0  0  0  0  0
   -7.6856    2.1146    0.0000 H   0  0  0  0  0  0  0  0  0  0  0  0
   -9.0365    0.9487    0.0000 H   0  0  0  0  0  0  0  0  0  0  0  0
   -8.4992    5.3266    0.0000 H   0  0  0  0  0  0  0  0  0  0  0  0
   -9.9821    4.3340    0.0000 H   0  0  0  0  0  0  0  0  0  0  0  0
   -6.1732    2.8255    0.0000 H   0  0  0  0  0  0  0  0  0  0  0  0
   -4.4364    6.9768    0.0000 H   0  0  0  0  0  0  0  0  0  0  0  0
   -4.1064    4.3998    0.0000 H   0  0  0  0  0  0  0  0  0  0  0  0
   -6.8331    7.9796    0.0000 H   0  0  0  0  0  0  0  0  0  0  0  0
   -8.8999    6.4053    0.0000 H   0  0  0  0  0  0  0  0  0  0  0  0
  -11.1680    4.0242    0.0000 H   0  0  0  0  0  0  0  0  0  0  0  0
  -14.2483    2.6057    0.0000 H   0  0  0  0  0  0  0  0  0  0  0  0
  -16.6205    4.1288    0.0000 H   0  0  0  0  0  0  0  0  0  0  0  0
  -15.2034    2.8210    0.0000 H   0  0  0  0  0  0  0  0  0  0  0  0
  -16.3207    5.9533    0.0000 H   0  0  0  0  0  0  0  0  0  0  0  0
  -13.3268    7.4667    0.0000 H   0  0  0  0  0  0  0  0  0  0  0  0
  -13.1938   10.2826    0.0000 H   0  0  0  0  0  0  0  0  0  0  0  0
  -12.9489    8.3699    0.0000 H   0  0  0  0  0  0  0  0  0  0  0  0
  -16.3823   11.1840    0.0000 H   0  0  0  0  0  0  0  0  0  0  0  0
  -16.5358    9.8780    0.0000 H   0  0  0  0  0  0  0  0  0  0  0  0
  -14.8711   14.3344    0.0000 H   0  0  0  0  0  0  0  0  0  0  0  0
  -16.9337   13.3674    0.0000 H   0  0  0  0  0  0  0  0  0  0  0  0
  -14.8547   11.0953    0.0000 H   0  0  0  0  0  0  0  0  0  0  0  0
  -17.8227    9.5320    0.0000 H   0  0  0  0  0  0  0  0  0  0  0  0
  -18.5946    9.7498    0.0000 H   0  0  0  0  0  0  0  0  0  0  0  0
  -20.5652   13.1835    0.0000 H   0  0  0  0  0  0  0  0  0  0  0  0
  -19.0823   14.1761    0.0000 H   0  0  0  0  0  0  0  0  0  0  0  0
  -17.9289   13.5446    0.0000 H   0  0  0  0  0  0  0  0  0  0  0  0
  -21.6582   11.3850    0.0000 H   0  0  0  0  0  0  0  0  0  0  0  0
  -20.3073   12.5509    0.0000 H   0  0  0  0  0  0  0  0  0  0  0  0
  -22.2617    9.4808    0.0000 H   0  0  0  0  0  0  0  0  0  0  0  0
  -20.8446    8.1730    0.0000 H   0  0  0  0  0  0  0  0  0  0  0  0
  -19.3617    9.1656    0.0000 H   0  0  0  0  0  0  0  0  0  0  0  0
  1  2  1  0
  2  3  1  0
  3  4  1  0
  4  5  1  0
  5  6  1  0
  6  7  1  0
  7  8  1  0
  8  9  1  0
  9 10  1  0
 10 11  1  0
 11 12  1  0
 12 13  1  0
 13 14  1  0
 14 15  1  0
 15 16  1  0
 16 17  1  0
 17 18  1  0
 18 19  1  0
 19 20  1  0
 20 21  1  0
 21 22  1  0
 22 23  2  0
 22 24  1  0
 24 25  1  0
 25 26  1  0
 26 27  1  0
 27 28  1  0
 27 29  2  0
 25 30  1  0
 30 31  2  0
 30 32  1  0
 32 33  1  0
 33 34  1  0
 34 35  1  0
 35 36  1  0
 36 37  1  0
 36 38  2  0
 33 39  1  0
 39 40  2  0
 39 41  1  0
 41 42  1  0
 42 43  1  0
 43 44  1  0
 44 45  1  0
 44 46  1  0
 42 47  1  0
 47 48  2  0
 47 49  1  0
 49 50  1  0
 50 51  1  0
 51 52  1  0
 52 53  1  0
 53 54  1  0
 54 55  1  0
 50 56  1  0
 56 57  2  0
 56 58  1  0
 58 59  1  0
 59 60  1  0
 60 61  1  0
 61 62  1  0
 62 63  1  0
 63 64  1  0
 64 65  2  3
 64 66  1  0
 59 67  1  0
 67 68  2  0
 67 69  1  0
 69 70  1  0
 70 71  1  0
 71 72  1  0
 70 73  1  0
 73 74  2  0
 73 75  1  0
 75 76  1  0
 76 77  1  0
 77 78  1  0
 78 79  2  0
 79 80  1  0
 80 81  2  0
 81 82  1  0
 82 83  2  0
 76 84  1  0
 84 85  2  0
 84 86  1  0
 86 87  1  0
 87 88  1  0
 88 89  1  0
 89 90  2  0
 90 91  1  0
 91 92  2  0
 92 93  1  0
 93 94  2  0
 87 95  1  0
 95 96  2  0
 95 97  1  0
 97 98  1  0
 98 99  1  0
 98100  1  0
100101  2  0
100102  1  0
102103  1  0
103104  1  0
104105  1  0
105106  1  0
105107  1  0
103108  1  0
108109  2  0
108110  1  0
110111  1  0
111112  1  0
112113  1  0
113114  1  0
114115  1  0
115116  1  0
116117  2  3
116118  1  0
111119  1  0
119120  2  0
119121  1  0
121122  1  0
122123  1  0
123124  1  0
124125  2  0
124126  1  0
122127  1  0
127128  2  0
127129  1  0
129130  1  0
130131  1  0
131132  1  0
132133  1  0
133134  1  0
133135  2  0
130136  1  0
136137  2  0
136138  1  0
138139  1  0
139140  1  0
140141  1  0
140142  1  0
142143  1  0
139144  1  0
144145  2  0
144146  1  0
 83 78  1  0
 94 89  1  0
  1147  1  0
  1148  1  0
  2149  1  0
  2150  1  0
  3151  1  0
  3152  1  0
  5153  1  0
  5154  1  0
  6155  1  0
  6156  1  0
  8157  1  0
  8158  1  0
  9159  1  0
  9160  1  0
 11161  1  0
 11162  1  0
 12163  1  0
 12164  1  0
 14165  1  0
 14166  1  0
 15167  1  0
 15168  1  0
 17169  1  0
 17170  1  0
 18171  1  0
 18172  1  0
 20173  1  0
 20174  1  0
 21175  1  0
 21176  1  0
 24177  1  0
 25178  1  6
 26179  1  0
 26180  1  0
 28181  1  0
 28182  1  0
 32183  1  0
 33184  1  6
 34185  1  0
 34186  1  0
 35187  1  0
 35188  1  0
 37189  1  0
 37190  1  0
 41191  1  0
 42192  1  1
 43193  1  0
 43194  1  0
 44195  1  0
 45196  1  0
 45197  1  0
 45198  1  0
 46199  1  0
 46200  1  0
 46201  1  0
 49202  1  0
 50203  1  1
 51204  1  0
 51205  1  0
 52206  1  0
 52207  1  0
 53208  1  0
 53209  1  0
 54210  1  0
 54211  1  0
 55212  1  0
 55213  1  0
 55214  1  0
 58215  1  0
 59216  1  6
 60217  1  0
 60218  1  0
 61219  1  0
 61220  1  0
 62221  1  0
 62222  1  0
 63223  1  0
 65224  1  0
 65225  1  0
 66226  1  0
 66227  1  0
 69228  1  0
 70229  1  6
 71230  1  0
 71231  1  0
 72232  1  0
 75233  1  0
 76234  1  1
 77235  1  0
 77236  1  0
 79237  1  0
 80238  1  0
 81239  1  0
 82240  1  0
 83241  1  0
 86242  1  0
 87243  1  1
 88244  1  0
 88245  1  0
 90246  1  0
 91247  1  0
 92248  1  0
 93249  1  0
 94250  1  0
 97251  1  0
 98252  1  6
 99253  1  0
 99254  1  0
 99255  1  0
102256  1  0
103257  1  1
104258  1  0
104259  1  0
105260  1  0
106261  1  0
106262  1  0
106263  1  0
107264  1  0
107265  1  0
107266  1  0
110267  1  0
111268  1  6
112269  1  0
112270  1  0
113271  1  0
113272  1  0
114273  1  0
114274  1  0
115275  1  0
117276  1  0
117277  1  0
118278  1  0
118279  1  0
121280  1  0
122281  1  1
123282  1  0
123283  1  0
129284  1  0
130285  1  6
131286  1  0
131287  1  0
132288  1  0
132289  1  0
134290  1  0
134291  1  0
138292  1  0
139293  1  1
140294  1  1
141295  1  0
141296  1  0
141297  1  0
142298  1  0
142299  1  0
143300  1  0
143301  1  0
143302  1  0
M  CHG  5  55   1  65   1 117   1 126  -1 146  -1
M  END
