
     RDKit          2D

347348  0  0  0  0  0  0  0  0999 V2000
   23.4819    7.4809    0.0000 N   0  0  0  0  0  0  0  0  0  0  0  0
   22.9302    6.0860    0.0000 C   0  0  0  0  0  0  0  0  0  0  0  0
   23.8624    4.9108    0.0000 C   0  0  0  0  0  0  0  0  0  0  0  0
   23.3107    3.5160    0.0000 C   0  0  0  0  0  0  0  0  0  0  0  0
   21.8269    3.2963    0.0000 O   0  0  0  0  0  0  0  0  0  0  0  0
   24.2429    2.3408    0.0000 N   0  0  0  0  0  0  0  0  0  0  0  0
   23.6912    0.9459    0.0000 C   0  0  0  0  0  0  0  0  0  0  0  0
   25.1607    0.6448    0.0000 C   0  0  0  0  0  0  0  0  0  0  0  0
   26.4386   -0.1407    0.0000 O   0  0  0  0  0  0  0  0  0  0  0  0
   26.1561    1.7669    0.0000 C   0  0  0  0  0  0  0  0  0  0  0  0
   22.6957   -0.1762    0.0000 C   0  0  0  0  0  0  0  0  0  0  0  0
   23.3397   -1.5309    0.0000 O   0  0  0  0  0  0  0  0  0  0  0  0
   21.2263    0.1249    0.0000 N   0  0  0  0  0  0  0  0  0  0  0  0
   20.2308   -0.9972    0.0000 C   0  0  0  0  0  0  0  0  0  0  0  0
   21.5087   -1.7827    0.0000 C   0  0  0  0  0  0  0  0  0  0  0  0
   21.4674   -3.2821    0.0000 C   0  0  0  0  0  0  0  0  0  0  0  0
   22.7452   -4.0676    0.0000 C   0  0  0  0  0  0  0  0  0  0  0  0
   22.7039   -5.5670    0.0000 N   0  0  0  0  0  0  0  0  0  0  0  0
   23.9818   -6.3525    0.0000 C   0  0  0  0  0  0  0  0  0  0  0  0
   23.9405   -7.8520    0.0000 N   0  0  0  0  0  0  0  0  0  0  0  0
   25.3010   -5.6386    0.0000 N   0  0  0  0  0  0  0  0  0  0  0  0
   18.9116   -1.7111    0.0000 C   0  0  0  0  0  0  0  0  0  0  0  0
   19.0534   -3.2044    0.0000 O   0  0  0  0  0  0  0  0  0  0  0  0
   17.6337   -0.9256    0.0000 N   0  0  0  0  0  0  0  0  0  0  0  0
   16.3145   -1.6396    0.0000 C   0  0  0  0  0  0  0  0  0  0  0  0
   17.2467   -2.8148    0.0000 C   0  0  0  0  0  0  0  0  0  0  0  0
   16.6950   -4.2096    0.0000 C   0  0  0  0  0  0  0  0  0  0  0  0
   17.6272   -5.3848    0.0000 C   0  0  0  0  0  0  0  0  0  0  0  0
   17.0755   -6.7797    0.0000 N   0  0  0  0  0  0  0  0  0  0  0  0
   19.1110   -5.1651    0.0000 O   0  0  0  0  0  0  0  0  0  0  0  0
   14.8307   -1.8592    0.0000 C   0  0  0  0  0  0  0  0  0  0  0  0
   14.4532   -3.3110    0.0000 O   0  0  0  0  0  0  0  0  0  0  0  0
   13.8985   -0.6841    0.0000 N   0  0  0  0  0  0  0  0  0  0  0  0
   12.4147   -0.9037    0.0000 C   0  0  0  0  0  0  0  0  0  0  0  0
   12.8887   -2.3269    0.0000 C   0  0  0  0  0  0  0  0  0  0  0  0
   10.9452   -0.6027    0.0000 C   0  0  0  0  0  0  0  0  0  0  0  0
    9.9497   -1.7248    0.0000 O   0  0  0  0  0  0  0  0  0  0  0  0
   10.4712    0.8205    0.0000 N   0  0  0  0  0  0  0  0  0  0  0  0
    9.0017    1.1215    0.0000 C   0  0  0  0  0  0  0  0  0  0  0  0
    9.5534    2.5164    0.0000 C   0  0  0  0  0  0  0  0  0  0  0  0
   11.0372    2.7361    0.0000 C   0  0  0  0  0  0  0  0  0  0  0  0
   11.5889    4.1309    0.0000 C   0  0  0  0  0  0  0  0  0  0  0  0
   13.0727    4.3506    0.0000 N   0  0  0  0  0  0  0  0  0  0  0  0
   13.6244    5.7455    0.0000 C   0  0  0  0  0  0  0  0  0  0  0  0
   15.1082    5.9652    0.0000 N   0  0  0  0  0  0  0  0  0  0  0  0
   12.6922    6.9207    0.0000 N   0  0  0  0  0  0  0  0  0  0  0  0
    7.5179    0.9018    0.0000 C   0  0  0  0  0  0  0  0  0  0  0  0
    6.7359    2.1819    0.0000 O   0  0  0  0  0  0  0  0  0  0  0  0
    6.9662   -0.4930    0.0000 N   0  0  0  0  0  0  0  0  0  0  0  0
    5.4824   -0.7127    0.0000 C   0  0  0  0  0  0  0  0  0  0  0  0
    5.5237    0.7867    0.0000 C   0  0  0  0  0  0  0  0  0  0  0  0
    4.2458    1.5722    0.0000 C   0  0  0  0  0  0  0  0  0  0  0  0
    4.2872    3.0716    0.0000 C   0  0  0  0  0  0  0  0  0  0  0  0
    3.0093    3.8571    0.0000 N   0  0  0  0  0  0  0  0  0  0  0  0
    3.0506    5.3566    0.0000 C   0  0  0  0  0  0  0  0  0  0  0  0
    1.7727    6.1421    0.0000 N   0  0  0  0  0  0  0  0  0  0  0  0
    4.3698    6.0705    0.0000 N   0  0  0  0  0  0  0  0  0  0  0  0
    4.1632   -1.4267    0.0000 C   0  0  0  0  0  0  0  0  0  0  0  0
    2.8853   -0.6412    0.0000 O   0  0  0  0  0  0  0  0  0  0  0  0
    4.1219   -2.9261    0.0000 N   0  0  0  0  0  0  0  0  0  0  0  0
    2.8027   -3.6400    0.0000 C   0  0  0  0  0  0  0  0  0  0  0  0
    3.7348   -4.8152    0.0000 C   0  0  0  0  0  0  0  0  0  0  0  0
    5.2187   -4.5955    0.0000 C   0  0  0  0  0  0  0  0  0  0  0  0
    6.1508   -5.7707    0.0000 N   0  0  0  0  0  0  0  0  0  0  0  0
    5.9362   -3.2783    0.0000 O   0  0  0  0  0  0  0  0  0  0  0  0
    1.3189   -3.8597    0.0000 C   0  0  0  0  0  0  0  0  0  0  0  0
    1.2138   -4.6499    0.0000 O   0  0  0  0  0  0  0  0  0  0  0  0
    0.3867   -2.6845    0.0000 N   0  0  0  0  0  0  0  0  0  0  0  0
   -1.0971   -2.9042    0.0000 C   0  0  0  0  0  0  0  0  0  0  0  0
   -0.6231   -4.3273    0.0000 C   0  0  0  0  0  0  0  0  0  0  0  0
    0.8464   -4.6284    0.0000 C   0  0  0  0  0  0  0  0  0  0  0  0
    1.3204   -6.0515    0.0000 C   0  0  0  0  0  0  0  0  0  0  0  0
    2.7898   -6.3526    0.0000 N   0  0  0  0  0  0  0  0  0  0  0  0
    3.2638   -7.7757    0.0000 C   0  0  0  0  0  0  0  0  0  0  0  0
    4.7333   -8.0768    0.0000 N   0  0  0  0  0  0  0  0  0  0  0  0
    2.2684   -8.8978    0.0000 N   0  0  0  0  0  0  0  0  0  0  0  0
   -2.5666   -2.6031    0.0000 C   0  0  0  0  0  0  0  0  0  0  0  0
   -3.2610   -3.9327    0.0000 O   0  0  0  0  0  0  0  0  0  0  0  0
   -3.0406   -1.1800    0.0000 N   0  0  0  0  0  0  0  0  0  0  0  0
   -4.5101   -0.8789    0.0000 C   0  0  0  0  0  0  0  0  0  0  0  0
   -4.5514   -2.3784    0.0000 C   0  0  0  0  0  0  0  0  0  0  0  0
   -3.2735   -3.1639    0.0000 C   0  0  0  0  0  0  0  0  0  0  0  0
   -3.3148   -4.6633    0.0000 C   0  0  0  0  0  0  0  0  0  0  0  0
   -2.0370   -5.4488    0.0000 N   0  0  0  0  0  0  0  0  0  0  0  0
   -2.0783   -6.9482    0.0000 C   0  0  0  0  0  0  0  0  0  0  0  0
   -0.8004   -7.7337    0.0000 N   0  0  0  0  0  0  0  0  0  0  0  0
   -3.3975   -7.6622    0.0000 N   0  0  0  0  0  0  0  0  0  0  0  0
   -5.7880   -0.0934    0.0000 C   0  0  0  0  0  0  0  0  0  0  0  0
   -6.8952   -1.1054    0.0000 O   0  0  0  0  0  0  0  0  0  0  0  0
   -5.7467    1.4060    0.0000 N   0  0  0  0  0  0  0  0  0  0  0  0
   -7.0246    2.1915    0.0000 C   0  0  0  0  0  0  0  0  0  0  0  0
   -7.5762    0.7966    0.0000 C   0  0  0  0  0  0  0  0  0  0  0  0
   -6.6440   -0.3786    0.0000 C   0  0  0  0  0  0  0  0  0  0  0  0
   -7.1957   -1.7734    0.0000 C   0  0  0  0  0  0  0  0  0  0  0  0
   -6.2635   -2.9486    0.0000 N   0  0  0  0  0  0  0  0  0  0  0  0
   -6.8152   -4.3435    0.0000 C   0  0  0  0  0  0  0  0  0  0  0  0
   -5.8830   -5.5187    0.0000 N   0  0  0  0  0  0  0  0  0  0  0  0
   -8.2990   -4.5632    0.0000 N   0  0  0  0  0  0  0  0  0  0  0  0
   -7.9567    3.3667    0.0000 C   0  0  0  0  0  0  0  0  0  0  0  0
   -9.3433    2.7945    0.0000 O   0  0  0  0  0  0  0  0  0  0  0  0
   -7.4051    4.7615    0.0000 N   0  0  0  0  0  0  0  0  0  0  0  0
   -8.3372    5.9367    0.0000 C   0  0  0  0  0  0  0  0  0  0  0  0
   -9.3327    4.8147    0.0000 C   0  0  0  0  0  0  0  0  0  0  0  0
   -8.8587    3.3915    0.0000 C   0  0  0  0  0  0  0  0  0  0  0  0
   -9.8541    2.2695    0.0000 C   0  0  0  0  0  0  0  0  0  0  0  0
   -9.3801    0.8463    0.0000 N   0  0  0  0  0  0  0  0  0  0  0  0
  -10.3756   -0.2758    0.0000 C   0  0  0  0  0  0  0  0  0  0  0  0
   -9.9016   -1.6989    0.0000 N   0  0  0  0  0  0  0  0  0  0  0  0
  -11.8451    0.0253    0.0000 N   0  0  0  0  0  0  0  0  0  0  0  0
   -8.8112    7.3599    0.0000 C   0  0  0  0  0  0  0  0  0  0  0  0
  -10.3099    7.2964    0.0000 O   0  0  0  0  0  0  0  0  0  0  0  0
   -7.8158    8.4819    0.0000 N   0  0  0  0  0  0  0  0  0  0  0  0
   -8.2898    9.9051    0.0000 C   0  0  0  0  0  0  0  0  0  0  0  0
   -8.2485   11.4045    0.0000 C   0  0  0  0  0  0  0  0  0  0  0  0
   -6.9293   12.1184    0.0000 C   0  0  0  0  0  0  0  0  0  0  0  0
   -5.5763   11.4708    0.0000 C   0  0  0  0  0  0  0  0  0  0  0  0
   -4.5422   12.5575    0.0000 N   0  0  0  0  0  0  0  0  0  0  0  0
   -5.2562   13.8767    0.0000 C   0  0  0  0  0  0  0  0  0  0  0  0
   -4.7535   15.2900    0.0000 C   0  0  0  0  0  0  0  0  0  0  0  0
   -5.7261   16.4319    0.0000 C   0  0  0  0  0  0  0  0  0  0  0  0
   -7.2014   16.1606    0.0000 C   0  0  0  0  0  0  0  0  0  0  0  0
   -7.7040   14.7473    0.0000 C   0  0  0  0  0  0  0  0  0  0  0  0
   -6.7314   13.6053    0.0000 C   0  0  0  0  0  0  0  0  0  0  0  0
   -9.6090    9.1911    0.0000 C   0  0  0  0  0  0  0  0  0  0  0  0
  -10.8869    9.9766    0.0000 O   0  0  0  0  0  0  0  0  0  0  0  0
   -9.6503    7.6917    0.0000 N   0  0  0  0  0  0  0  0  0  0  0  0
  -10.9695    6.9778    0.0000 C   0  0  0  0  0  0  0  0  0  0  0  0
  -12.4533    6.7581    0.0000 C   0  0  0  0  0  0  0  0  0  0  0  0
  -13.0050    5.3632    0.0000 C   0  0  0  0  0  0  0  0  0  0  0  0
  -14.4888    5.1435    0.0000 C   0  0  0  0  0  0  0  0  0  0  0  0
  -15.0405    3.7487    0.0000 N   0  0  0  0  0  0  0  0  0  0  0  0
  -16.5243    3.5290    0.0000 C   0  0  0  0  0  0  0  0  0  0  0  0
  -16.9018    2.0773    0.0000 N   0  0  0  0  0  0  0  0  0  0  0  0
  -17.4565    4.7042    0.0000 N   0  0  0  0  0  0  0  0  0  0  0  0
  -11.0108    5.4783    0.0000 C   0  0  0  0  0  0  0  0  0  0  0  0
   -9.9610    4.4070    0.0000 O   0  0  0  0  0  0  0  0  0  0  0  0
  -12.3300    4.7644    0.0000 N   0  0  0  0  0  0  0  0  0  0  0  0
  -12.3713    3.2650    0.0000 C   0  0  0  0  0  0  0  0  0  0  0  0
  -11.8973    1.8418    0.0000 C   0  0  0  0  0  0  0  0  0  0  0  0
  -12.8928    0.7198    0.0000 C   0  0  0  0  0  0  0  0  0  0  0  0
  -12.4188   -0.7034    0.0000 C   0  0  0  0  0  0  0  0  0  0  0  0
  -13.4143   -1.8254    0.0000 N   0  0  0  0  0  0  0  0  0  0  0  0
  -12.9402   -3.2486    0.0000 C   0  0  0  0  0  0  0  0  0  0  0  0
  -14.0651   -4.2409    0.0000 N   0  0  0  0  0  0  0  0  0  0  0  0
  -11.4708   -3.5496    0.0000 N   0  0  0  0  0  0  0  0  0  0  0  0
  -13.6905    2.5511    0.0000 C   0  0  0  0  0  0  0  0  0  0  0  0
  -15.1205    3.0040    0.0000 O   0  0  0  0  0  0  0  0  0  0  0  0
  -13.7319    1.0516    0.0000 N   0  0  0  0  0  0  0  0  0  0  0  0
  -15.0511    0.3377    0.0000 C   0  0  0  0  0  0  0  0  0  0  0  0
  -16.5349    0.1180    0.0000 C   0  0  0  0  0  0  0  0  0  0  0  0
  -15.0924   -1.1617    0.0000 C   0  0  0  0  0  0  0  0  0  0  0  0
  -14.0425   -2.2331    0.0000 O   0  0  0  0  0  0  0  0  0  0  0  0
  -16.4116   -1.8757    0.0000 N   0  0  0  0  0  0  0  0  0  0  0  0
  -16.4529   -3.3751    0.0000 C   0  0  0  0  0  0  0  0  0  0  0  0
  -15.9789   -4.7982    0.0000 C   0  0  0  0  0  0  0  0  0  0  0  0
  -17.7721   -4.0890    0.0000 C   0  0  0  0  0  0  0  0  0  0  0  0
  -19.0500   -3.3035    0.0000 O   0  0  0  0  0  0  0  0  0  0  0  0
  -17.8134   -5.5885    0.0000 N   0  0  0  0  0  0  0  0  0  0  0  0
  -19.1326   -6.3024    0.0000 C   0  0  0  0  0  0  0  0  0  0  0  0
  -20.6165   -6.5221    0.0000 C   0  0  0  0  0  0  0  0  0  0  0  0
  -19.1739   -7.8018    0.0000 C   0  0  0  0  0  0  0  0  0  0  0  0
  -17.8961   -8.5873    0.0000 O   0  0  0  0  0  0  0  0  0  0  0  0
  -20.4931   -8.5158    0.0000 N   0  0  0  0  0  0  0  0  0  0  0  0
  -20.5345  -10.0152    0.0000 C   0  0  0  0  0  0  0  0  0  0  0  0
  -20.0605  -11.4383    0.0000 C   0  0  0  0  0  0  0  0  0  0  0  0
  -21.8537  -10.7291    0.0000 C   0  0  0  0  0  0  0  0  0  0  0  0
  -22.0775  -12.2123    0.0000 O   0  0  0  0  0  0  0  0  0  0  0  0
  -23.1316   -9.9436    0.0000 O   0  0  0  0  0  0  0  0  0  0  0  0
   22.5497    8.6561    0.0000 H   0  0  0  0  0  0  0  0  0  0  0  0
   24.9657    7.7006    0.0000 H   0  0  0  0  0  0  0  0  0  0  0  0
   21.6523    6.8715    0.0000 H   0  0  0  0  0  0  0  0  0  0  0  0
   21.9347    4.9639    0.0000 H   0  0  0  0  0  0  0  0  0  0  0  0
   24.8578    6.0329    0.0000 H   0  0  0  0  0  0  0  0  0  0  0  0
   25.1402    4.1253    0.0000 H   0  0  0  0  0  0  0  0  0  0  0  0
   25.6888    2.7397    0.0000 H   0  0  0  0  0  0  0  0  0  0  0  0
   22.4133    1.7314    0.0000 H   0  0  0  0  0  0  0  0  0  0  0  0
   24.6090   -0.7500    0.0000 H   0  0  0  0  0  0  0  0  0  0  0  0
   27.8350    0.4071    0.0000 H   0  0  0  0  0  0  0  0  0  0  0  0
   27.6514    1.6472    0.0000 H   0  0  0  0  0  0  0  0  0  0  0  0
   26.7078    3.1618    0.0000 H   0  0  0  0  0  0  0  0  0  0  0  0
   25.2447    2.9583    0.0000 H   0  0  0  0  0  0  0  0  0  0  0  0
   20.7522    1.5480    0.0000 H   0  0  0  0  0  0  0  0  0  0  0  0
   19.2986    0.1780    0.0000 H   0  0  0  0  0  0  0  0  0  0  0  0
   22.9782   -2.0838    0.0000 H   0  0  0  0  0  0  0  0  0  0  0  0
   22.3815   -0.5628    0.0000 H   0  0  0  0  0  0  0  0  0  0  0  0
   20.9157   -4.6770    0.0000 H   0  0  0  0  0  0  0  0  0  0  0  0
   19.9979   -2.9811    0.0000 H   0  0  0  0  0  0  0  0  0  0  0  0
   24.2147   -4.3687    0.0000 H   0  0  0  0  0  0  0  0  0  0  0  0
   23.4628   -2.7504    0.0000 H   0  0  0  0  0  0  0  0  0  0  0  0
   21.3847   -6.2810    0.0000 H   0  0  0  0  0  0  0  0  0  0  0  0
   25.2184   -8.6375    0.0000 H   0  0  0  0  0  0  0  0  0  0  0  0
   22.6213   -8.5659    0.0000 H   0  0  0  0  0  0  0  0  0  0  0  0
   26.5789   -6.4241    0.0000 H   0  0  0  0  0  0  0  0  0  0  0  0
   25.3423   -4.1392    0.0000 H   0  0  0  0  0  0  0  0  0  0  0  0
   17.6750    0.5738    0.0000 H   0  0  0  0  0  0  0  0  0  0  0  0
   15.8405   -0.2164    0.0000 H   0  0  0  0  0  0  0  0  0  0  0  0
   18.4193   -3.7502    0.0000 H   0  0  0  0  0  0  0  0  0  0  0  0
   18.4841   -1.9669    0.0000 H   0  0  0  0  0  0  0  0  0  0  0  0
   15.6995   -5.3317    0.0000 H   0  0  0  0  0  0  0  0  0  0  0  0
   15.4171   -3.4241    0.0000 H   0  0  0  0  0  0  0  0  0  0  0  0
   18.0077   -7.9549    0.0000 H   0  0  0  0  0  0  0  0  0  0  0  0
   15.5917   -6.9994    0.0000 H   0  0  0  0  0  0  0  0  0  0  0  0
   14.4502    0.7108    0.0000 H   0  0  0  0  0  0  0  0  0  0  0  0
   12.4560    0.5957    0.0000 H   0  0  0  0  0  0  0  0  0  0  0  0
   14.3105   -2.8048    0.0000 H   0  0  0  0  0  0  0  0  0  0  0  0
   12.8474   -3.8263    0.0000 H   0  0  0  0  0  0  0  0  0  0  0  0
   11.4049   -2.5466    0.0000 H   0  0  0  0  0  0  0  0  0  0  0  0
   11.5960    1.8128    0.0000 H   0  0  0  0  0  0  0  0  0  0  0  0
    8.9604   -0.3779    0.0000 H   0  0  0  0  0  0  0  0  0  0  0  0
    9.4116    4.0097    0.0000 H   0  0  0  0  0  0  0  0  0  0  0  0
    8.0839    2.8175    0.0000 H   0  0  0  0  0  0  0  0  0  0  0  0
   12.5067    2.4350    0.0000 H   0  0  0  0  0  0  0  0  0  0  0  0
   11.5361    1.3215    0.0000 H   0  0  0  0  0  0  0  0  0  0  0  0
   11.6302    5.6304    0.0000 H   0  0  0  0  0  0  0  0  0  0  0  0
   10.1670    4.6089    0.0000 H   0  0  0  0  0  0  0  0  0  0  0  0
   14.0049    3.1754    0.0000 H   0  0  0  0  0  0  0  0  0  0  0  0
   15.6598    7.3601    0.0000 H   0  0  0  0  0  0  0  0  0  0  0  0
   16.0403    4.7900    0.0000 H   0  0  0  0  0  0  0  0  0  0  0  0
   13.2438    8.3156    0.0000 H   0  0  0  0  0  0  0  0  0  0  0  0
   11.2084    6.7010    0.0000 H   0  0  0  0  0  0  0  0  0  0  0  0
    7.8984   -1.6682    0.0000 H   0  0  0  0  0  0  0  0  0  0  0  0
    5.9564   -2.1359    0.0000 H   0  0  0  0  0  0  0  0  0  0  0  0
    6.0754    2.1816    0.0000 H   0  0  0  0  0  0  0  0  0  0  0  0
    7.0224    0.8502    0.0000 H   0  0  0  0  0  0  0  0  0  0  0  0
    2.7764    1.8733    0.0000 H   0  0  0  0  0  0  0  0  0  0  0  0
    3.6942    0.1773    0.0000 H   0  0  0  0  0  0  0  0  0  0  0  0
    4.8388    4.4665    0.0000 H   0  0  0  0  0  0  0  0  0  0  0  0
    5.7824    2.9519    0.0000 H   0  0  0  0  0  0  0  0  0  0  0  0
    1.6901    3.1432    0.0000 H   0  0  0  0  0  0  0  0  0  0  0  0
    1.8140    7.6415    0.0000 H   0  0  0  0  0  0  0  0  0  0  0  0
    0.4535    5.4281    0.0000 H   0  0  0  0  0  0  0  0  0  0  0  0
    4.4111    7.5699    0.0000 H   0  0  0  0  0  0  0  0  0  0  0  0
    5.6477    5.2850    0.0000 H   0  0  0  0  0  0  0  0  0  0  0  0
    5.4860   -3.5500    0.0000 H   0  0  0  0  0  0  0  0  0  0  0  0
    2.3287   -2.2169    0.0000 H   0  0  0  0  0  0  0  0  0  0  0  0
    4.2089   -6.2383    0.0000 H   0  0  0  0  0  0  0  0  0  0  0  0
    2.6276   -5.8271    0.0000 H   0  0  0  0  0  0  0  0  0  0  0  0
    7.6347   -5.5510    0.0000 H   0  0  0  0  0  0  0  0  0  0  0  0
    5.7733   -7.2224    0.0000 H   0  0  0  0  0  0  0  0  0  0  0  0
    0.9384   -1.2896    0.0000 H   0  0  0  0  0  0  0  0  0  0  0  0
   -1.0558   -1.4048    0.0000 H   0  0  0  0  0  0  0  0  0  0  0  0
   -0.8469   -5.8105    0.0000 H   0  0  0  0  0  0  0  0  0  0  0  0
   -2.0097   -4.8995    0.0000 H   0  0  0  0  0  0  0  0  0  0  0  0
    2.3302   -4.4087    0.0000 H   0  0  0  0  0  0  0  0  0  0  0  0
    1.2493   -3.1835    0.0000 H   0  0  0  0  0  0  0  0  0  0  0  0
    1.2790   -7.5510    0.0000 H   0  0  0  0  0  0  0  0  0  0  0  0
   -0.1256   -6.4505    0.0000 H   0  0  0  0  0  0  0  0  0  0  0  0
    4.0272   -5.5047    0.0000 H   0  0  0  0  0  0  0  0  0  0  0  0
    5.2073   -9.4999    0.0000 H   0  0  0  0  0  0  0  0  0  0  0  0
    5.8581   -7.0844    0.0000 H   0  0  0  0  0  0  0  0  0  0  0  0
    2.7424  -10.3209    0.0000 H   0  0  0  0  0  0  0  0  0  0  0  0
    0.7989   -8.5967    0.0000 H   0  0  0  0  0  0  0  0  0  0  0  0
   -2.0452   -0.0579    0.0000 H   0  0  0  0  0  0  0  0  0  0  0  0
   -3.9584    0.5159    0.0000 H   0  0  0  0  0  0  0  0  0  0  0  0
   -5.2690   -3.6956    0.0000 H   0  0  0  0  0  0  0  0  0  0  0  0
   -6.0501   -2.4418    0.0000 H   0  0  0  0  0  0  0  0  0  0  0  0
   -1.8041   -3.4649    0.0000 H   0  0  0  0  0  0  0  0  0  0  0  0
   -2.4007   -1.9439    0.0000 H   0  0  0  0  0  0  0  0  0  0  0  0
   -3.8665   -6.0582    0.0000 H   0  0  0  0  0  0  0  0  0  0  0  0
   -4.8101   -4.5436    0.0000 H   0  0  0  0  0  0  0  0  0  0  0  0
   -0.5842   -5.0753    0.0000 H   0  0  0  0  0  0  0  0  0  0  0  0
   -0.8417   -9.2332    0.0000 H   0  0  0  0  0  0  0  0  0  0  0  0
    0.5188   -7.0198    0.0000 H   0  0  0  0  0  0  0  0  0  0  0  0
   -3.4388   -9.1616    0.0000 H   0  0  0  0  0  0  0  0  0  0  0  0
   -4.6754   -6.8767    0.0000 H   0  0  0  0  0  0  0  0  0  0  0  0
   -4.4275    2.1199    0.0000 H   0  0  0  0  0  0  0  0  0  0  0  0
   -6.0291    3.3136    0.0000 H   0  0  0  0  0  0  0  0  0  0  0  0
   -8.7010   -0.1957    0.0000 H   0  0  0  0  0  0  0  0  0  0  0  0
   -9.0062    1.2496    0.0000 H   0  0  0  0  0  0  0  0  0  0  0  0
   -5.3662   -1.1641    0.0000 H   0  0  0  0  0  0  0  0  0  0  0  0
   -5.4067    0.4693    0.0000 H   0  0  0  0  0  0  0  0  0  0  0  0
   -8.1912   -2.8955    0.0000 H   0  0  0  0  0  0  0  0  0  0  0  0
   -8.5598   -1.1496    0.0000 H   0  0  0  0  0  0  0  0  0  0  0  0
   -4.7707   -3.0945    0.0000 H   0  0  0  0  0  0  0  0  0  0  0  0
   -6.4347   -6.9136    0.0000 H   0  0  0  0  0  0  0  0  0  0  0  0
   -4.3992   -5.2990    0.0000 H   0  0  0  0  0  0  0  0  0  0  0  0
   -8.8507   -5.9581    0.0000 H   0  0  0  0  0  0  0  0  0  0  0  0
   -9.2312   -3.3880    0.0000 H   0  0  0  0  0  0  0  0  0  0  0  0
   -5.9212    4.9812    0.0000 H   0  0  0  0  0  0  0  0  0  0  0  0
   -7.0180    6.6507    0.0000 H   0  0  0  0  0  0  0  0  0  0  0  0
  -10.6519    4.1007    0.0000 H   0  0  0  0  0  0  0  0  0  0  0  0
  -10.2649    5.9899    0.0000 H   0  0  0  0  0  0  0  0  0  0  0  0
   -7.9265    2.2163    0.0000 H   0  0  0  0  0  0  0  0  0  0  0  0
   -7.4059    3.7650    0.0000 H   0  0  0  0  0  0  0  0  0  0  0  0
  -10.9614    1.2575    0.0000 H   0  0  0  0  0  0  0  0  0  0  0  0
  -10.7863    3.4446    0.0000 H   0  0  0  0  0  0  0  0  0  0  0  0
   -8.0272    0.1986    0.0000 H   0  0  0  0  0  0  0  0  0  0  0  0
  -10.7529   -2.9339    0.0000 H   0  0  0  0  0  0  0  0  0  0  0  0
   -8.4321   -2.0000    0.0000 H   0  0  0  0  0  0  0  0  0  0  0  0
  -12.5394   -1.3043    0.0000 H   0  0  0  0  0  0  0  0  0  0  0  0
  -12.6494    1.2915    0.0000 H   0  0  0  0  0  0  0  0  0  0  0  0
   -6.3463    8.1809    0.0000 H   0  0  0  0  0  0  0  0  0  0  0  0
   -6.8060   10.1248    0.0000 H   0  0  0  0  0  0  0  0  0  0  0  0
   -9.7323   11.1848    0.0000 H   0  0  0  0  0  0  0  0  0  0  0  0
   -8.7225   12.8276    0.0000 H   0  0  0  0  0  0  0  0  0  0  0  0
   -5.3049    9.9956    0.0000 H   0  0  0  0  0  0  0  0  0  0  0  0
   -3.0553   12.3596    0.0000 H   0  0  0  0  0  0  0  0  0  0  0  0
   -3.2783   15.5613    0.0000 H   0  0  0  0  0  0  0  0  0  0  0  0
   -5.2235   17.8452    0.0000 H   0  0  0  0  0  0  0  0  0  0  0  0
   -8.1740   17.3025    0.0000 H   0  0  0  0  0  0  0  0  0  0  0  0
   -9.1793   14.4759    0.0000 H   0  0  0  0  0  0  0  0  0  0  0  0
   -8.6005    6.6203    0.0000 H   0  0  0  0  0  0  0  0  0  0  0  0
  -11.4435    8.4009    0.0000 H   0  0  0  0  0  0  0  0  0  0  0  0
  -13.8751    7.2360    0.0000 H   0  0  0  0  0  0  0  0  0  0  0  0
  -12.4120    8.2575    0.0000 H   0  0  0  0  0  0  0  0  0  0  0  0
  -13.0463    3.8638    0.0000 H   0  0  0  0  0  0  0  0  0  0  0  0
  -11.8490    4.4074    0.0000 H   0  0  0  0  0  0  0  0  0  0  0  0
  -15.9583    5.4446    0.0000 H   0  0  0  0  0  0  0  0  0  0  0  0
  -14.6306    6.6368    0.0000 H   0  0  0  0  0  0  0  0  0  0  0  0
  -14.5915    2.3174    0.0000 H   0  0  0  0  0  0  0  0  0  0  0  0
  -18.5598    1.9144    0.0000 H   0  0  0  0  0  0  0  0  0  0  0  0
  -16.0131    1.0597    0.0000 H   0  0  0  0  0  0  0  0  0  0  0  0
  -18.9403    4.4845    0.0000 H   0  0  0  0  0  0  0  0  0  0  0  0
  -16.9048    6.0990    0.0000 H   0  0  0  0  0  0  0  0  0  0  0  0
  -13.7600    5.2174    0.0000 H   0  0  0  0  0  0  0  0  0  0  0  0
  -10.8875    3.4847    0.0000 H   0  0  0  0  0  0  0  0  0  0  0  0
  -10.8289    0.7891    0.0000 H   0  0  0  0  0  0  0  0  0  0  0  0
  -10.7901    2.8538    0.0000 H   0  0  0  0  0  0  0  0  0  0  0  0
  -14.2120    0.0058    0.0000 H   0  0  0  0  0  0  0  0  0  0  0  0
  -14.3305    1.1476    0.0000 H   0  0  0  0  0  0  0  0  0  0  0  0
  -11.4866   -1.8785    0.0000 H   0  0  0  0  0  0  0  0  0  0  0  0
  -11.3115    0.3086    0.0000 H   0  0  0  0  0  0  0  0  0  0  0  0
  -14.9129   -1.8889    0.0000 H   0  0  0  0  0  0  0  0  0  0  0  0
  -13.4617   -5.7938    0.0000 H   0  0  0  0  0  0  0  0  0  0  0  0
  -15.3743   -3.9075    0.0000 H   0  0  0  0  0  0  0  0  0  0  0  0
  -10.9968   -4.9728    0.0000 H   0  0  0  0  0  0  0  0  0  0  0  0
  -10.3459   -2.5573    0.0000 H   0  0  0  0  0  0  0  0  0  0  0  0
  -12.8204   -0.1397    0.0000 H   0  0  0  0  0  0  0  0  0  0  0  0
  -15.5251    1.7608    0.0000 H   0  0  0  0  0  0  0  0  0  0  0  0
  -17.5499   -0.9864    0.0000 H   0  0  0  0  0  0  0  0  0  0  0  0
  -18.0044    0.4191    0.0000 H   0  0  0  0  0  0  0  0  0  0  0  0
  -16.1320    1.5629    0.0000 H   0  0  0  0  0  0  0  0  0  0  0  0
  -17.7757   -1.2518    0.0000 H   0  0  0  0  0  0  0  0  0  0  0  0
  -14.9691   -3.1554    0.0000 H   0  0  0  0  0  0  0  0  0  0  0  0
  -16.5060   -6.2026    0.0000 H   0  0  0  0  0  0  0  0  0  0  0  0
  -15.0467   -5.9734    0.0000 H   0  0  0  0  0  0  0  0  0  0  0  0
  -14.8716   -3.7863    0.0000 H   0  0  0  0  0  0  0  0  0  0  0  0
  -16.6408   -6.5239    0.0000 H   0  0  0  0  0  0  0  0  0  0  0  0
  -19.6066   -4.8793    0.0000 H   0  0  0  0  0  0  0  0  0  0  0  0
  -21.5486   -5.3469    0.0000 H   0  0  0  0  0  0  0  0  0  0  0  0
  -22.0128   -7.0699    0.0000 H   0  0  0  0  0  0  0  0  0  0  0  0
  -20.5009   -8.0176    0.0000 H   0  0  0  0  0  0  0  0  0  0  0  0
  -21.8573   -7.8919    0.0000 H   0  0  0  0  0  0  0  0  0  0  0  0
  -19.0506   -9.7955    0.0000 H   0  0  0  0  0  0  0  0  0  0  0  0
  -20.9117  -12.6734    0.0000 H   0  0  0  0  0  0  0  0  0  0  0  0
  -19.1283  -12.6135    0.0000 H   0  0  0  0  0  0  0  0  0  0  0  0
  -18.7413  -10.7244    0.0000 H   0  0  0  0  0  0  0  0  0  0  0  0
  1  2  1  0
  2  3  1  0
  3  4  1  0
  4  5  2  0
  4  6  1  0
  6  7  1  0
  7  8  1  0
  8  9  1  0
  8 10  1  0
  7 11  1  0
 11 12  2  0
 11 13  1  0
 13 14  1  0
 14 15  1  0
 15 16  1  0
 16 17  1  0
 17 18  1  0
 18 19  1  0
 19 20  2  3
 19 21  1  0
 14 22  1  0
 22 23  2  0
 22 24  1  0
 24 25  1  0
 25 26  1  0
 26 27  1  0
 27 28  1  0
 28 29  1  0
 28 30  2  0
 25 31  1  0
 31 32  2  0
 31 33  1  0
 33 34  1  0
 34 35  1  0
 34 36  1  0
 36 37  2  0
 36 38  1  0
 38 39  1  0
 39 40  1  0
 40 41  1  0
 41 42  1  0
 42 43  1  0
 43 44  1  0
 44 45  2  3
 44 46  1  0
 39 47  1  0
 47 48  2  0
 47 49  1  0
 49 50  1  0
 50 51  1  0
 51 52  1  0
 52 53  1  0
 53 54  1  0
 54 55  1  0
 55 56  2  3
 55 57  1  0
 50 58  1  0
 58 59  2  0
 58 60  1  0
 60 61  1  0
 61 62  1  0
 62 63  1  0
 63 64  1  0
 63 65  2  0
 61 66  1  0
 66 67  2  0
 66 68  1  0
 68 69  1  0
 69 70  1  0
 70 71  1  0
 71 72  1  0
 72 73  1  0
 73 74  1  0
 74 75  2  3
 74 76  1  0
 69 77  1  0
 77 78  2  0
 77 79  1  0
 79 80  1  0
 80 81  1  0
 81 82  1  0
 82 83  1  0
 83 84  1  0
 84 85  1  0
 85 86  2  3
 85 87  1  0
 80 88  1  0
 88 89  2  0
 88 90  1  0
 90 91  1  0
 91 92  1  0
 92 93  1  0
 93 94  1  0
 94 95  1  0
 95 96  1  0
 96 97  2  3
 96 98  1  0
 91 99  1  0
 99100  2  0
 99101  1  0
101102  1  0
102103  1  0
103104  1  0
104105  1  0
105106  1  0
106107  1  0
107108  2  3
107109  1  0
102110  1  0
110111  2  0
110112  1  0
112113  1  0
113114  1  0
114115  1  0
115116  2  0
116117  1  0
117118  1  0
118119  2  0
119120  1  0
120121  2  0
121122  1  0
122123  2  0
113124  1  0
124125  2  0
124126  1  0
126127  1  0
127128  1  0
128129  1  0
129130  1  0
130131  1  0
131132  1  0
132133  2  3
132134  1  0
127135  1  0
135136  2  0
135137  1  0
137138  1  0
138139  1  0
139140  1  0
140141  1  0
141142  1  0
142143  1  0
143144  2  3
143145  1  0
138146  1  0
146147  2  0
146148  1  0
148149  1  0
149150  1  0
149151  1  0
151152  2  0
151153  1  0
153154  1  0
154155  1  0
154156  1  0
156157  2  0
156158  1  0
158159  1  0
159160  1  0
159161  1  0
161162  2  0
161163  1  0
163164  1  0
164165  1  0
164166  1  0
166167  2  0
166168  1  0
123115  1  0
123118  1  0
  1169  1  0
  1170  1  0
  2171  1  0
  2172  1  0
  3173  1  0
  3174  1  0
  6175  1  0
  7176  1  1
  8177  1  6
  9178  1  0
 10179  1  0
 10180  1  0
 10181  1  0
 13182  1  0
 14183  1  1
 15184  1  0
 15185  1  0
 16186  1  0
 16187  1  0
 17188  1  0
 17189  1  0
 18190  1  0
 20191  1  0
 20192  1  0
 21193  1  0
 21194  1  0
 24195  1  0
 25196  1  1
 26197  1  0
 26198  1  0
 27199  1  0
 27200  1  0
 29201  1  0
 29202  1  0
 33203  1  0
 34204  1  1
 35205  1  0
 35206  1  0
 35207  1  0
 38208  1  0
 39209  1  6
 40210  1  0
 40211  1  0
 41212  1  0
 41213  1  0
 42214  1  0
 42215  1  0
 43216  1  0
 45217  1  0
 45218  1  0
 46219  1  0
 46220  1  0
 49221  1  0
 50222  1  6
 51223  1  0
 51224  1  0
 52225  1  0
 52226  1  0
 53227  1  0
 53228  1  0
 54229  1  0
 56230  1  0
 56231  1  0
 57232  1  0
 57233  1  0
 60234  1  0
 61235  1  1
 62236  1  0
 62237  1  0
 64238  1  0
 64239  1  0
 68240  1  0
 69241  1  1
 70242  1  0
 70243  1  0
 71244  1  0
 71245  1  0
 72246  1  0
 72247  1  0
 73248  1  0
 75249  1  0
 75250  1  0
 76251  1  0
 76252  1  0
 79253  1  0
 80254  1  1
 81255  1  0
 81256  1  0
 82257  1  0
 82258  1  0
 83259  1  0
 83260  1  0
 84261  1  0
 86262  1  0
 86263  1  0
 87264  1  0
 87265  1  0
 90266  1  0
 91267  1  1
 92268  1  0
 92269  1  0
 93270  1  0
 93271  1  0
 94272  1  0
 94273  1  0
 95274  1  0
 97275  1  0
 97276  1  0
 98277  1  0
 98278  1  0
101279  1  0
102280  1  1
103281  1  0
103282  1  0
104283  1  0
104284  1  0
105285  1  0
105286  1  0
106287  1  0
108288  1  0
108289  1  0
109290  1  0
109291  1  0
112292  1  0
113293  1  6
114294  1  0
114295  1  0
116296  1  0
117297  1  0
119298  1  0
120299  1  0
121300  1  0
122301  1  0
126302  1  0
127303  1  6
128304  1  0
128305  1  0
129306  1  0
129307  1  0
130308  1  0
130309  1  0
131310  1  0
133311  1  0
133312  1  0
134313  1  0
134314  1  0
137315  1  0
138316  1  1
139317  1  0
139318  1  0
140319  1  0
140320  1  0
141321  1  0
141322  1  0
142323  1  0
144324  1  0
144325  1  0
145326  1  0
145327  1  0
148328  1  0
149329  1  6
150330  1  0
150331  1  0
150332  1  0
153333  1  0
154334  1  1
155335  1  0
155336  1  0
155337  1  0
158338  1  0
159339  1  6
160340  1  0
160341  1  0
160342  1  0
163343  1  0
164344  1  1
165345  1  0
165346  1  0
165347  1  0
M  CHG  8  20   1  45   1  56   1  75   1  86   1  97   1 108   1 133   1
M  CHG  2 144   1 168  -1
M  END
