
     RDKit          2D

304312  0  0  0  0  0  0  0  0999 V2000
  -17.7064    0.4402    0.0000 C   0  0  0  0  0  0  0  0  0  0  0  0
  -19.2058    0.3974    0.0000 N   0  0  0  0  0  0  0  0  0  0  0  0
  -19.9925    1.6745    0.0000 C   0  0  0  0  0  0  0  0  0  0  0  0
  -19.2799    2.9944    0.0000 C   0  0  0  0  0  0  0  0  0  0  0  0
  -20.0667    4.2715    0.0000 C   0  0  0  0  0  0  0  0  0  0  0  0
  -21.5661    4.2287    0.0000 C   0  0  0  0  0  0  0  0  0  0  0  0
  -22.2787    2.9088    0.0000 C   0  0  0  0  0  0  0  0  0  0  0  0
  -21.4919    1.6317    0.0000 C   0  0  0  0  0  0  0  0  0  0  0  0
  -23.7542    3.1787    0.0000 C   0  0  0  0  0  0  0  0  0  0  0  0
  -23.9535    4.6654    0.0000 O   0  0  0  0  0  0  0  0  0  0  0  0
  -22.6012    5.3143    0.0000 C   0  0  0  0  0  0  0  0  0  0  0  0
  -22.3313    6.7898    0.0000 O   0  0  0  0  0  0  0  0  0  0  0  0
  -25.1934    3.6013    0.0000 C   0  0  0  0  0  0  0  0  0  0  0  0
  -26.2791    2.5662    0.0000 C   0  0  0  0  0  0  0  0  0  0  0  0
  -27.7183    2.9888    0.0000 C   0  0  0  0  0  0  0  0  0  0  0  0
  -28.0719    4.4465    0.0000 C   0  0  0  0  0  0  0  0  0  0  0  0
  -26.9863    5.4816    0.0000 C   0  0  0  0  0  0  0  0  0  0  0  0
  -25.5471    5.0590    0.0000 C   0  0  0  0  0  0  0  0  0  0  0  0
  -29.5111    4.8691    0.0000 O   0  0  0  0  0  0  0  0  0  0  0  0
  -25.9255    1.1085    0.0000 O   0  0  0  0  0  0  0  0  0  0  0  0
  -24.4862    0.6858    0.0000 C   0  0  0  0  0  0  0  0  0  0  0  0
  -23.4006    1.7209    0.0000 C   0  0  0  0  0  0  0  0  0  0  0  0
  -22.4680    0.8153    0.0000 C   0  0  0  0  0  0  0  0  0  0  0  0
  -22.2794    0.0378    0.0000 C   0  0  0  0  0  0  0  0  0  0  0  0
  -22.8584   -0.5142    0.0000 C   0  0  0  0  0  0  0  0  0  0  0  0
  -23.6260   -0.2888    0.0000 C   0  0  0  0  0  0  0  0  0  0  0  0
  -22.3398   -2.6522    0.0000 O   0  0  0  0  0  0  0  0  0  0  0  0
  -16.9938    1.7601    0.0000 S   0  0  0  0  0  0  0  0  0  0  0  0
  -16.9196   -0.8369    0.0000 N   0  0  0  0  0  0  0  0  0  0  0  0
  -15.4202   -0.7941    0.0000 C   0  0  0  0  0  0  0  0  0  0  0  0
  -14.6335   -2.0712    0.0000 C   0  0  0  0  0  0  0  0  0  0  0  0
  -13.1341   -2.0284    0.0000 C   0  0  0  0  0  0  0  0  0  0  0  0
  -12.7620   -0.5753    0.0000 O   0  0  0  0  0  0  0  0  0  0  0  0
  -12.3473   -3.3055    0.0000 N   0  0  0  0  0  0  0  0  0  0  0  0
  -10.8479   -3.2627    0.0000 C   0  0  0  0  0  0  0  0  0  0  0  0
  -11.4894   -1.9068    0.0000 C   0  0  0  0  0  0  0  0  0  0  0  0
  -11.6559   -0.4161    0.0000 C   0  0  0  0  0  0  0  0  0  0  0  0
  -11.3293    1.0480    0.0000 C   0  0  0  0  0  0  0  0  0  0  0  0
  -10.5451    2.3266    0.0000 C   0  0  0  0  0  0  0  0  0  0  0  0
  -11.4110   -4.6530    0.0000 C   0  0  0  0  0  0  0  0  0  0  0  0
   -9.8009   -4.3368    0.0000 C   0  0  0  0  0  0  0  0  0  0  0  0
  -10.6881   -5.5464    0.0000 O   0  0  0  0  0  0  0  0  0  0  0  0
   -8.4619   -5.0128    0.0000 N   0  0  0  0  0  0  0  0  0  0  0  0
   -6.9759   -5.2174    0.0000 C   0  0  0  0  0  0  0  0  0  0  0  0
   -6.1199   -6.4492    0.0000 C   0  0  0  0  0  0  0  0  0  0  0  0
   -6.7588   -7.8064    0.0000 C   0  0  0  0  0  0  0  0  0  0  0  0
   -5.9029   -9.0382    0.0000 C   0  0  0  0  0  0  0  0  0  0  0  0
   -6.5417  -10.3954    0.0000 C   0  0  0  0  0  0  0  0  0  0  0  0
   -5.6858  -11.6272    0.0000 N   0  0  0  0  0  0  0  0  0  0  0  0
   -5.5040   -4.9284    0.0000 C   0  0  0  0  0  0  0  0  0  0  0  0
   -4.9766   -6.3326    0.0000 O   0  0  0  0  0  0  0  0  0  0  0  0
   -4.2057   -4.1771    0.0000 N   0  0  0  0  0  0  0  0  0  0  0  0
   -3.2217   -3.0450    0.0000 C   0  0  0  0  0  0  0  0  0  0  0  0
   -1.7223   -3.0022    0.0000 C   0  0  0  0  0  0  0  0  0  0  0  0
   -1.2679   -4.4317    0.0000 C   0  0  0  0  0  0  0  0  0  0  0  0
   -0.3280   -2.4491    0.0000 C   0  0  0  0  0  0  0  0  0  0  0  0
    0.4363   -3.7398    0.0000 C   0  0  0  0  0  0  0  0  0  0  0  0
   -2.6586   -1.6547    0.0000 C   0  0  0  0  0  0  0  0  0  0  0  0
   -1.1657   -1.8004    0.0000 O   0  0  0  0  0  0  0  0  0  0  0  0
   -2.5774   -0.1569    0.0000 N   0  0  0  0  0  0  0  0  0  0  0  0
   -2.9870    1.2861    0.0000 C   0  0  0  0  0  0  0  0  0  0  0  0
   -4.2840    2.0396    0.0000 C   0  0  0  0  0  0  0  0  0  0  0  0
   -4.9678    3.3747    0.0000 C   0  0  0  0  0  0  0  0  0  0  0  0
   -6.0396    2.3254    0.0000 C   0  0  0  0  0  0  0  0  0  0  0  0
   -7.5352    2.2105    0.0000 N   0  0  0  0  0  0  0  0  0  0  0  0
   -8.7547    3.0839    0.0000 C   0  0  0  0  0  0  0  0  0  0  0  0
   -9.1276    4.5368    0.0000 C   0  0  0  0  0  0  0  0  0  0  0  0
   -8.4792    5.8895    0.0000 C   0  0  0  0  0  0  0  0  0  0  0  0
   -7.1131    6.5089    0.0000 C   0  0  0  0  0  0  0  0  0  0  0  0
   -5.6684    6.1053    0.0000 C   0  0  0  0  0  0  0  0  0  0  0  0
   -4.8212    4.8675    0.0000 C   0  0  0  0  0  0  0  0  0  0  0  0
   -1.4885    1.3535    0.0000 C   0  0  0  0  0  0  0  0  0  0  0  0
   -1.1783   -0.1141    0.0000 O   0  0  0  0  0  0  0  0  0  0  0  0
   -0.2643    2.2203    0.0000 N   0  0  0  0  0  0  0  0  0  0  0  0
    0.2969    3.6113    0.0000 C   0  0  0  0  0  0  0  0  0  0  0  0
    0.0170    5.0850    0.0000 C   0  0  0  0  0  0  0  0  0  0  0  0
   -1.0152    6.1733    0.0000 C   0  0  0  0  0  0  0  0  0  0  0  0
   -2.4719    6.5309    0.0000 C   0  0  0  0  0  0  0  0  0  0  0  0
   -3.8907    6.0441    0.0000 C   0  0  0  0  0  0  0  0  0  0  0  0
    1.2559    4.8844    0.0000 C   0  0  0  0  0  0  0  0  0  0  0  0
    1.7673    6.1521    0.0000 C   0  0  0  0  0  0  0  0  0  0  0  0
    2.5094    7.3000    0.0000 C   0  0  0  0  0  0  0  0  0  0  0  0
    3.4554    8.2867    0.0000 C   0  0  0  0  0  0  0  0  0  0  0  0
    0.9899    2.1760    0.0000 C   0  0  0  0  0  0  0  0  0  0  0  0
    0.2533    1.9805    0.0000 O   0  0  0  0  0  0  0  0  0  0  0  0
    1.2450    0.8331    0.0000 N   0  0  0  0  0  0  0  0  0  0  0  0
    1.7496   -0.4373    0.0000 C   0  0  0  0  0  0  0  0  0  0  0  0
    0.3526   -2.0413    0.0000 C   0  0  0  0  0  0  0  0  0  0  0  0
    1.0783   -3.3540    0.0000 C   0  0  0  0  0  0  0  0  0  0  0  0
    0.3044   -4.6389    0.0000 C   0  0  0  0  0  0  0  0  0  0  0  0
    0.8647   -6.0303    0.0000 N   0  0  0  0  0  0  0  0  0  0  0  0
   -1.1876   -4.7941    0.0000 O   0  0  0  0  0  0  0  0  0  0  0  0
    2.4855   -1.5892    0.0000 C   0  0  0  0  0  0  0  0  0  0  0  0
    1.1623   -3.3066    0.0000 O   0  0  0  0  0  0  0  0  0  0  0  0
    3.4261   -2.5810    0.0000 N   0  0  0  0  0  0  0  0  0  0  0  0
    4.5375   -3.3769    0.0000 C   0  0  0  0  0  0  0  0  0  0  0  0
    4.2294   -5.4816    0.0000 C   0  0  0  0  0  0  0  0  0  0  0  0
    2.9527   -6.2690    0.0000 C   0  0  0  0  0  0  0  0  0  0  0  0
    2.9962   -7.7683    0.0000 N   0  0  0  0  0  0  0  0  0  0  0  0
    1.6324   -5.5570    0.0000 O   0  0  0  0  0  0  0  0  0  0  0  0
    5.7793   -3.9481    0.0000 C   0  0  0  0  0  0  0  0  0  0  0  0
    5.2305   -6.0749    0.0000 O   0  0  0  0  0  0  0  0  0  0  0  0
    7.1068   -4.2739    0.0000 N   0  0  0  0  0  0  0  0  0  0  0  0
    8.4720   -4.3427    0.0000 C   0  0  0  0  0  0  0  0  0  0  0  0
    9.3507   -6.2797    0.0000 C   0  0  0  0  0  0  0  0  0  0  0  0
    8.7024   -7.6324    0.0000 C   0  0  0  0  0  0  0  0  0  0  0  0
    9.5496   -8.8702    0.0000 C   0  0  0  0  0  0  0  0  0  0  0  0
    8.9013  -10.2228    0.0000 N   0  0  0  0  0  0  0  0  0  0  0  0
    9.7486  -11.4606    0.0000 C   0  0  0  0  0  0  0  0  0  0  0  0
    9.1002  -12.8133    0.0000 N   0  0  0  0  0  0  0  0  0  0  0  0
   11.2442  -11.3458    0.0000 N   0  0  0  0  0  0  0  0  0  0  0  0
    9.8256   -4.1518    0.0000 C   0  0  0  0  0  0  0  0  0  0  0  0
   10.5137   -6.2376    0.0000 O   0  0  0  0  0  0  0  0  0  0  0  0
   11.1185   -3.7082    0.0000 N   0  0  0  0  0  0  0  0  0  0  0  0
   12.3041   -3.0279    0.0000 C   0  0  0  0  0  0  0  0  0  0  0  0
   14.0906   -4.1824    0.0000 C   0  0  0  0  0  0  0  0  0  0  0  0
   14.2765   -5.6709    0.0000 C   0  0  0  0  0  0  0  0  0  0  0  0
   15.6584   -6.2541    0.0000 C   0  0  0  0  0  0  0  0  0  0  0  0
   15.8443   -7.7425    0.0000 N   0  0  0  0  0  0  0  0  0  0  0  0
   17.2263   -8.3258    0.0000 C   0  0  0  0  0  0  0  0  0  0  0  0
   17.4122   -9.8142    0.0000 N   0  0  0  0  0  0  0  0  0  0  0  0
   18.4224   -7.4206    0.0000 N   0  0  0  0  0  0  0  0  0  0  0  0
   13.3396   -2.1355    0.0000 C   0  0  0  0  0  0  0  0  0  0  0  0
   15.0462   -3.5183    0.0000 O   0  0  0  0  0  0  0  0  0  0  0  0
   14.1874   -1.0633    0.0000 N   0  0  0  0  0  0  0  0  0  0  0  0
   14.8171    0.1499    0.0000 C   0  0  0  0  0  0  0  0  0  0  0  0
   16.9441    0.1445    0.0000 C   0  0  0  0  0  0  0  0  0  0  0  0
   17.9052   -1.0071    0.0000 C   0  0  0  0  0  0  0  0  0  0  0  0
   19.3831   -0.7506    0.0000 N   0  0  0  0  0  0  0  0  0  0  0  0
   17.3884   -2.4153    0.0000 O   0  0  0  0  0  0  0  0  0  0  0  0
   15.2057    1.4605    0.0000 C   0  0  0  0  0  0  0  0  0  0  0  0
   17.3889    1.2199    0.0000 O   0  0  0  0  0  0  0  0  0  0  0  0
   15.3393    2.8208    0.0000 N   0  0  0  0  0  0  0  0  0  0  0  0
   15.2130    4.1819    0.0000 C   0  0  0  0  0  0  0  0  0  0  0  0
   17.0054    5.3273    0.0000 C   0  0  0  0  0  0  0  0  0  0  0  0
   18.4365    4.8781    0.0000 C   0  0  0  0  0  0  0  0  0  0  0  0
   19.5411    5.8929    0.0000 C   0  0  0  0  0  0  0  0  0  0  0  0
   20.9723    5.4437    0.0000 C   0  0  0  0  0  0  0  0  0  0  0  0
   22.0769    6.4585    0.0000 N   0  0  0  0  0  0  0  0  0  0  0  0
   14.8315    5.4945    0.0000 C   0  0  0  0  0  0  0  0  0  0  0  0
   16.7982    6.4724    0.0000 O   0  0  0  0  0  0  0  0  0  0  0  0
   14.2084    6.7111    0.0000 N   0  0  0  0  0  0  0  0  0  0  0  0
   13.3663    7.7879    0.0000 C   0  0  0  0  0  0  0  0  0  0  0  0
   12.3356    8.6858    0.0000 C   0  0  0  0  0  0  0  0  0  0  0  0
   11.1537    9.3724    0.0000 C   0  0  0  0  0  0  0  0  0  0  0  0
    9.8632    9.8230    0.0000 C   0  0  0  0  0  0  0  0  0  0  0  0
    8.5107   10.0212    0.0000 C   0  0  0  0  0  0  0  0  0  0  0  0
    7.1451    9.9598    0.0000 C   0  0  0  0  0  0  0  0  0  0  0  0
    5.8159    9.6411    0.0000 C   0  0  0  0  0  0  0  0  0  0  0  0
    4.5710    9.0766    0.0000 C   0  0  0  0  0  0  0  0  0  0  0  0
   15.3432    8.5728    0.0000 C   0  0  0  0  0  0  0  0  0  0  0  0
   14.2548    9.7205    0.0000 C   0  0  0  0  0  0  0  0  0  0  0  0
   15.6426   10.2897    0.0000 O   0  0  0  0  0  0  0  0  0  0  0  0
   13.4756   11.0022    0.0000 O   0  0  0  0  0  0  0  0  0  0  0  0
  -19.7522   -0.9996    0.0000 H   0  0  0  0  0  0  0  0  0  0  0  0
  -17.7805    3.0372    0.0000 H   0  0  0  0  0  0  0  0  0  0  0  0
  -19.3541    5.5914    0.0000 H   0  0  0  0  0  0  0  0  0  0  0  0
  -21.8640    0.1786    0.0000 H   0  0  0  0  0  0  0  0  0  0  0  0
  -28.8039    1.9537    0.0000 H   0  0  0  0  0  0  0  0  0  0  0  0
  -27.3399    6.9393    0.0000 H   0  0  0  0  0  0  0  0  0  0  0  0
  -24.4614    6.0941    0.0000 H   0  0  0  0  0  0  0  0  0  0  0  0
  -29.8648    6.3269    0.0000 H   0  0  0  0  0  0  0  0  0  0  0  0
  -20.8758    2.3334    0.0000 H   0  0  0  0  0  0  0  0  0  0  0  0
  -20.2308   -0.7543    0.0000 H   0  0  0  0  0  0  0  0  0  0  0  0
  -25.2182   -1.8070    0.0000 H   0  0  0  0  0  0  0  0  0  0  0  0
  -23.4254   -3.6873    0.0000 H   0  0  0  0  0  0  0  0  0  0  0  0
  -17.6322   -2.1568    0.0000 H   0  0  0  0  0  0  0  0  0  0  0  0
  -15.7227    0.6751    0.0000 H   0  0  0  0  0  0  0  0  0  0  0  0
  -14.0259   -0.2411    0.0000 H   0  0  0  0  0  0  0  0  0  0  0  0
  -16.0278   -2.6243    0.0000 H   0  0  0  0  0  0  0  0  0  0  0  0
  -14.3309   -3.5404    0.0000 H   0  0  0  0  0  0  0  0  0  0  0  0
  -13.2155   -4.5287    0.0000 H   0  0  0  0  0  0  0  0  0  0  0  0
  -12.7181   -2.7672    0.0000 H   0  0  0  0  0  0  0  0  0  0  0  0
  -12.7709   -1.1272    0.0000 H   0  0  0  0  0  0  0  0  0  0  0  0
  -13.0974   -0.8309    0.0000 H   0  0  0  0  0  0  0  0  0  0  0  0
  -12.9645    0.3170    0.0000 H   0  0  0  0  0  0  0  0  0  0  0  0
  -12.8255    0.9405    0.0000 H   0  0  0  0  0  0  0  0  0  0  0  0
  -12.1852    2.2798    0.0000 H   0  0  0  0  0  0  0  0  0  0  0  0
  -11.6772    3.3106    0.0000 H   0  0  0  0  0  0  0  0  0  0  0  0
  -12.8602   -5.0400    0.0000 H   0  0  0  0  0  0  0  0  0  0  0  0
  -11.4646   -6.1520    0.0000 H   0  0  0  0  0  0  0  0  0  0  0  0
  -10.0634   -5.3118    0.0000 H   0  0  0  0  0  0  0  0  0  0  0  0
   -8.9082   -6.4449    0.0000 H   0  0  0  0  0  0  0  0  0  0  0  0
   -7.9101   -6.3909    0.0000 H   0  0  0  0  0  0  0  0  0  0  0  0
   -4.7981   -7.1582    0.0000 H   0  0  0  0  0  0  0  0  0  0  0  0
   -4.8314   -5.6814    0.0000 H   0  0  0  0  0  0  0  0  0  0  0  0
   -7.9441   -8.7256    0.0000 H   0  0  0  0  0  0  0  0  0  0  0  0
   -8.0807   -7.0974    0.0000 H   0  0  0  0  0  0  0  0  0  0  0  0
   -4.6772   -9.9030    0.0000 H   0  0  0  0  0  0  0  0  0  0  0  0
   -4.7175   -8.1190    0.0000 H   0  0  0  0  0  0  0  0  0  0  0  0
   -7.6062  -11.4522    0.0000 H   0  0  0  0  0  0  0  0  0  0  0  0
   -7.8636   -9.6864    0.0000 H   0  0  0  0  0  0  0  0  0  0  0  0
   -6.3246  -12.9844    0.0000 H   0  0  0  0  0  0  0  0  0  0  0  0
   -4.1910  -11.5019    0.0000 H   0  0  0  0  0  0  0  0  0  0  0  0
   -3.2510   -5.3340    0.0000 H   0  0  0  0  0  0  0  0  0  0  0  0
   -2.7502   -4.4690    0.0000 H   0  0  0  0  0  0  0  0  0  0  0  0
   -1.6603   -1.5034    0.0000 H   0  0  0  0  0  0  0  0  0  0  0  0
    0.5066   -4.8617    0.0000 H   0  0  0  0  0  0  0  0  0  0  0  0
   -0.6330   -5.7484    0.0000 H   0  0  0  0  0  0  0  0  0  0  0  0
   -2.2638   -4.9791    0.0000 H   0  0  0  0  0  0  0  0  0  0  0  0
    1.1298   -2.0957    0.0000 H   0  0  0  0  0  0  0  0  0  0  0  0
   -1.1147   -1.1720    0.0000 H   0  0  0  0  0  0  0  0  0  0  0  0
    2.4496   -3.5351    0.0000 H   0  0  0  0  0  0  0  0  0  0  0  0
    1.5142   -4.7965    0.0000 H   0  0  0  0  0  0  0  0  0  0  0  0
   -0.2729   -4.3767    0.0000 H   0  0  0  0  0  0  0  0  0  0  0  0
   -1.0907   -0.3561    0.0000 H   0  0  0  0  0  0  0  0  0  0  0  0
   -2.9814   -0.2139    0.0000 H   0  0  0  0  0  0  0  0  0  0  0  0
   -4.5718    0.5675    0.0000 H   0  0  0  0  0  0  0  0  0  0  0  0
   -5.6745    1.4770    0.0000 H   0  0  0  0  0  0  0  0  0  0  0  0
   -5.4202    0.9593    0.0000 H   0  0  0  0  0  0  0  0  0  0  0  0
   -7.9388    0.7659    0.0000 H   0  0  0  0  0  0  0  0  0  0  0  0
  -10.6204    4.6834    0.0000 H   0  0  0  0  0  0  0  0  0  0  0  0
   -9.5285    6.9614    0.0000 H   0  0  0  0  0  0  0  0  0  0  0  0
   -7.2279    8.0045    0.0000 H   0  0  0  0  0  0  0  0  0  0  0  0
   -4.9502    7.4222    0.0000 H   0  0  0  0  0  0  0  0  0  0  0  0
    0.6522    1.0328    0.0000 H   0  0  0  0  0  0  0  0  0  0  0  0
    0.5405    6.4907    0.0000 H   0  0  0  0  0  0  0  0  0  0  0  0
    1.5012    4.8675    0.0000 H   0  0  0  0  0  0  0  0  0  0  0  0
   -0.9706    7.6727    0.0000 H   0  0  0  0  0  0  0  0  0  0  0  0
    0.1605    7.1050    0.0000 H   0  0  0  0  0  0  0  0  0  0  0  0
   -3.3960    7.7125    0.0000 H   0  0  0  0  0  0  0  0  0  0  0  0
   -1.8172    7.8805    0.0000 H   0  0  0  0  0  0  0  0  0  0  0  0
   -4.6019    7.3649    0.0000 H   0  0  0  0  0  0  0  0  0  0  0  0
   -0.8621    4.6876    0.0000 H   0  0  0  0  0  0  0  0  0  0  0  0
   -0.2683    6.3172    0.0000 H   0  0  0  0  0  0  0  0  0  0  0  0
   -0.2284    7.0754    0.0000 H   0  0  0  0  0  0  0  0  0  0  0  0
    0.2276    7.6604    0.0000 H   0  0  0  0  0  0  0  0  0  0  0  0
    0.5019    8.0848    0.0000 H   0  0  0  0  0  0  0  0  0  0  0  0
    1.4511    9.1451    0.0000 H   0  0  0  0  0  0  0  0  0  0  0  0
    2.0192    9.9533    0.0000 H   0  0  0  0  0  0  0  0  0  0  0  0
   -0.7234   -0.1171    0.0000 H   0  0  0  0  0  0  0  0  0  0  0  0
   -0.3684   -0.6335    0.0000 H   0  0  0  0  0  0  0  0  0  0  0  0
   -0.5514   -3.2383    0.0000 H   0  0  0  0  0  0  0  0  0  0  0  0
   -0.7784   -1.0559    0.0000 H   0  0  0  0  0  0  0  0  0  0  0  0
    2.0808   -4.4699    0.0000 H   0  0  0  0  0  0  0  0  0  0  0  0
    2.3513   -2.5606    0.0000 H   0  0  0  0  0  0  0  0  0  0  0  0
    0.2562   -7.2365    0.0000 H   0  0  0  0  0  0  0  0  0  0  0  0
    2.4927   -6.3839    0.0000 H   0  0  0  0  0  0  0  0  0  0  0  0
    2.2839   -4.4446    0.0000 H   0  0  0  0  0  0  0  0  0  0  0  0
    2.9575   -4.8432    0.0000 H   0  0  0  0  0  0  0  0  0  0  0  0
    4.6091   -6.9327    0.0000 H   0  0  0  0  0  0  0  0  0  0  0  0
    5.7281   -5.5428    0.0000 H   0  0  0  0  0  0  0  0  0  0  0  0
    1.7195   -8.5557    0.0000 H   0  0  0  0  0  0  0  0  0  0  0  0
    4.3165   -8.4803    0.0000 H   0  0  0  0  0  0  0  0  0  0  0  0
    6.6086   -6.4131    0.0000 H   0  0  0  0  0  0  0  0  0  0  0  0
    7.6166   -6.2517    0.0000 H   0  0  0  0  0  0  0  0  0  0  0  0
   10.5702   -7.1531    0.0000 H   0  0  0  0  0  0  0  0  0  0  0  0
   10.6446   -5.5210    0.0000 H   0  0  0  0  0  0  0  0  0  0  0  0
    7.6305   -8.6817    0.0000 H   0  0  0  0  0  0  0  0  0  0  0  0
    7.3078   -7.0801    0.0000 H   0  0  0  0  0  0  0  0  0  0  0  0
   10.7692   -9.7436    0.0000 H   0  0  0  0  0  0  0  0  0  0  0  0
   10.7414   -7.9593    0.0000 H   0  0  0  0  0  0  0  0  0  0  0  0
    7.4057  -10.3377    0.0000 H   0  0  0  0  0  0  0  0  0  0  0  0
    9.9475  -14.0511    0.0000 H   0  0  0  0  0  0  0  0  0  0  0  0
   12.0914  -12.5836    0.0000 H   0  0  0  0  0  0  0  0  0  0  0  0
   11.8925   -9.9931    0.0000 H   0  0  0  0  0  0  0  0  0  0  0  0
   11.8559   -5.7771    0.0000 H   0  0  0  0  0  0  0  0  0  0  0  0
   12.6166   -5.0964    0.0000 H   0  0  0  0  0  0  0  0  0  0  0  0
   15.5887   -4.2578    0.0000 H   0  0  0  0  0  0  0  0  0  0  0  0
   14.7689   -2.8445    0.0000 H   0  0  0  0  0  0  0  0  0  0  0  0
   13.9421   -7.1331    0.0000 H   0  0  0  0  0  0  0  0  0  0  0  0
   12.8047   -5.9602    0.0000 H   0  0  0  0  0  0  0  0  0  0  0  0
   17.1566   -6.3295    0.0000 H   0  0  0  0  0  0  0  0  0  0  0  0
   16.1686   -4.8435    0.0000 H   0  0  0  0  0  0  0  0  0  0  0  0
   14.6482   -8.6477    0.0000 H   0  0  0  0  0  0  0  0  0  0  0  0
   18.7941  -10.3975    0.0000 H   0  0  0  0  0  0  0  0  0  0  0  0
   19.8043   -8.0038    0.0000 H   0  0  0  0  0  0  0  0  0  0  0  0
   18.2365   -5.9321    0.0000 H   0  0  0  0  0  0  0  0  0  0  0  0
   16.0350   -2.2577    0.0000 H   0  0  0  0  0  0  0  0  0  0  0  0
   16.3523   -1.3223    0.0000 H   0  0  0  0  0  0  0  0  0  0  0  0
   18.3265    0.7269    0.0000 H   0  0  0  0  0  0  0  0  0  0  0  0
   16.7914    1.6367    0.0000 H   0  0  0  0  0  0  0  0  0  0  0  0
   20.3442   -1.9023    0.0000 H   0  0  0  0  0  0  0  0  0  0  0  0
   19.8999    0.6575    0.0000 H   0  0  0  0  0  0  0  0  0  0  0  0
   17.5276    2.6321    0.0000 H   0  0  0  0  0  0  0  0  0  0  0  0
   17.2244    3.6068    0.0000 H   0  0  0  0  0  0  0  0  0  0  0  0
   17.6963    6.6587    0.0000 H   0  0  0  0  0  0  0  0  0  0  0  0
   16.0702    6.5001    0.0000 H   0  0  0  0  0  0  0  0  0  0  0  0
   19.5077    3.8281    0.0000 H   0  0  0  0  0  0  0  0  0  0  0  0
   18.0883    3.4191    0.0000 H   0  0  0  0  0  0  0  0  0  0  0  0
   20.2321    7.2243    0.0000 H   0  0  0  0  0  0  0  0  0  0  0  0
   18.4699    6.9429    0.0000 H   0  0  0  0  0  0  0  0  0  0  0  0
   22.1635    4.5320    0.0000 H   0  0  0  0  0  0  0  0  0  0  0  0
   20.4488    4.0380    0.0000 H   0  0  0  0  0  0  0  0  0  0  0  0
   23.5080    6.0092    0.0000 H   0  0  0  0  0  0  0  0  0  0  0  0
   21.7504    7.9225    0.0000 H   0  0  0  0  0  0  0  0  0  0  0  0
   16.1513    7.7355    0.0000 H   0  0  0  0  0  0  0  0  0  0  0  0
   12.8424   10.7516    0.0000 H   0  0  0  0  0  0  0  0  0  0  0  0
   13.9478   10.1487    0.0000 H   0  0  0  0  0  0  0  0  0  0  0  0
   11.4431   11.5084    0.0000 H   0  0  0  0  0  0  0  0  0  0  0  0
   12.4599   11.1141    0.0000 H   0  0  0  0  0  0  0  0  0  0  0  0
    9.7431   11.9751    0.0000 H   0  0  0  0  0  0  0  0  0  0  0  0
   10.9660   11.6750    0.0000 H   0  0  0  0  0  0  0  0  0  0  0  0
    7.9855   12.1117    0.0000 H   0  0  0  0  0  0  0  0  0  0  0  0
    9.2431   12.0484    0.0000 H   0  0  0  0  0  0  0  0  0  0  0  0
    6.2339   11.9132    0.0000 H   0  0  0  0  0  0  0  0  0  0  0  0
    7.4807   12.0890    0.0000 H   0  0  0  0  0  0  0  0  0  0  0  0
    4.4271   11.2522    0.0000 H   0  0  0  0  0  0  0  0  0  0  0  0
    5.7424   11.7953    0.0000 H   0  0  0  0  0  0  0  0  0  0  0  0
    3.4761   10.9848    0.0000 H   0  0  0  0  0  0  0  0  0  0  0  0
   15.9851    9.9285    0.0000 H   0  0  0  0  0  0  0  0  0  0  0  0
   16.8428    8.5379    0.0000 H   0  0  0  0  0  0  0  0  0  0  0  0
   15.7483    7.1286    0.0000 H   0  0  0  0  0  0  0  0  0  0  0  0
   13.5692   12.2265    0.0000 H   0  0  0  0  0  0  0  0  0  0  0  0
  1  2  1  0
  2  3  1  0
  3  4  2  0
  4  5  1  0
  5  6  2  0
  6  7  1  0
  7  8  2  0
  7  9  1  0
  9 10  1  0
 10 11  1  0
 11 12  2  0
  9 13  1  0
 13 14  1  0
 14 15  2  0
 15 16  1  0
 16 17  2  0
 17 18  1  0
 16 19  1  0
 14 20  1  0
 20 21  1  0
 21 22  2  0
 22 23  1  0
 23 24  2  0
 24 25  1  0
 25 26  2  0
 25 27  1  0
  1 28  2  0
  1 29  1  0
 29 30  1  0
 30 31  1  0
 31 32  1  0
 32 33  2  0
 32 34  1  0
 35 34  1  1
 35 36  1  0
 36 37  1  0
 37 38  1  0
 38 39  1  0
 35 40  1  0
 35 41  1  0
 41 42  2  0
 41 43  1  0
 43 44  1  0
 44 45  1  0
 45 46  1  0
 46 47  1  0
 47 48  1  0
 48 49  1  0
 44 50  1  0
 50 51  2  0
 50 52  1  0
 52 53  1  0
 53 54  1  0
 54 55  1  0
 54 56  1  0
 56 57  1  0
 53 58  1  0
 58 59  2  0
 58 60  1  0
 60 61  1  0
 61 62  1  0
 62 63  1  0
 63 64  2  0
 64 65  1  0
 65 66  1  0
 66 67  1  0
 67 68  2  0
 68 69  1  0
 69 70  2  0
 70 71  1  0
 61 72  1  0
 72 73  2  0
 72 74  1  0
 74 75  1  0
 75 76  1  0
 76 77  1  0
 77 78  1  0
 78 79  1  0
 75 80  1  0
 80 81  1  0
 81 82  1  0
 82 83  1  0
 75 84  1  0
 84 85  2  0
 84 86  1  0
 86 87  1  0
 87 88  1  0
 88 89  1  0
 89 90  1  0
 90 91  1  0
 90 92  2  0
 87 93  1  0
 93 94  2  0
 93 95  1  0
 95 96  1  0
 96 97  1  0
 97 98  1  0
 98 99  1  0
 98100  2  0
 96101  1  0
101102  2  0
101103  1  0
103104  1  0
104105  1  0
105106  1  0
106107  1  0
107108  1  0
108109  1  0
109110  2  3
109111  1  0
104112  1  0
112113  2  0
112114  1  0
114115  1  0
115116  1  0
116117  1  0
117118  1  0
118119  1  0
119120  1  0
120121  2  3
120122  1  0
115123  1  0
123124  2  0
123125  1  0
125126  1  0
126127  1  0
127128  1  0
128129  1  0
128130  2  0
126131  1  0
131132  2  0
131133  1  0
133134  1  0
134135  1  0
135136  1  0
136137  1  0
137138  1  0
138139  1  0
134140  1  0
140141  2  0
140142  1  0
142143  1  0
143144  1  0
144145  1  0
145146  1  0
146147  1  0
147148  1  0
148149  1  0
149150  1  0
143151  1  0
143152  1  1
152153  2  0
152154  1  0
  8  3  1  0
 71 63  1  0
 11  6  1  0
 39 66  2  0
 79 71  2  0
 18 13  2  0
 83150  2  0
 22  9  1  0
 26 21  1  0
  2155  1  0
  4156  1  0
  5157  1  0
  8158  1  0
 15159  1  0
 17160  1  0
 18161  1  0
 19162  1  0
 23163  1  0
 24164  1  0
 26165  1  0
 27166  1  0
 29167  1  0
 30168  1  0
 30169  1  0
 31170  1  0
 31171  1  0
 34172  1  0
 36173  1  0
 36174  1  0
 37175  1  0
 37176  1  0
 38177  1  0
 38178  1  0
 39179  1  0
 40180  1  0
 40181  1  0
 40182  1  0
 43183  1  0
 44184  1  6
 45185  1  0
 45186  1  0
 46187  1  0
 46188  1  0
 47189  1  0
 47190  1  0
 48191  1  0
 48192  1  0
 49193  1  0
 49194  1  0
 52195  1  0
 53196  1  6
 54197  1  1
 55198  1  0
 55199  1  0
 55200  1  0
 56201  1  0
 56202  1  0
 57203  1  0
 57204  1  0
 57205  1  0
 60206  1  0
 61207  1  1
 62208  1  0
 62209  1  0
 64210  1  0
 65211  1  0
 67212  1  0
 68213  1  0
 69214  1  0
 70215  1  0
 74216  1  0
 76217  1  0
 76218  1  0
 77219  1  0
 77220  1  0
 78221  1  0
 78222  1  0
 79223  1  0
 80224  1  0
 80225  1  0
 81226  1  0
 81227  1  0
 82228  1  0
 82229  1  0
 83230  1  0
 86231  1  0
 87232  1  6
 88233  1  0
 88234  1  0
 89235  1  0
 89236  1  0
 91237  1  0
 91238  1  0
 95239  1  0
 96240  1  6
 97241  1  0
 97242  1  0
 99243  1  0
 99244  1  0
103245  1  0
104246  1  6
105247  1  0
105248  1  0
106249  1  0
106250  1  0
107251  1  0
107252  1  0
108253  1  0
110254  1  0
111255  1  0
111256  1  0
114257  1  0
115258  1  6
116259  1  0
116260  1  0
117261  1  0
117262  1  0
118263  1  0
118264  1  0
119265  1  0
121266  1  0
122267  1  0
122268  1  0
125269  1  0
126270  1  1
127271  1  0
127272  1  0
129273  1  0
129274  1  0
133275  1  0
134276  1  6
135277  1  0
135278  1  0
136279  1  0
136280  1  0
137281  1  0
137282  1  0
138283  1  0
138284  1  0
139285  1  0
139286  1  0
142287  1  0
144288  1  0
144289  1  0
145290  1  0
145291  1  0
146292  1  0
146293  1  0
147294  1  0
147295  1  0
148296  1  0
148297  1  0
149298  1  0
149299  1  0
150300  1  0
151301  1  0
151302  1  0
151303  1  0
154304  1  0
M  END
