
     RDKit          2D

207213  0  0  0  0  0  0  0  0999 V2000
   15.1883   -1.3618    0.0000 C   0  0  0  0  0  0  0  0  0  0  0  0
   16.5400   -0.7115    0.0000 N   0  0  0  0  0  0  0  0  0  0  0  0
   17.7790   -1.5570    0.0000 C   0  0  0  0  0  0  0  0  0  0  0  0
   17.6664   -3.0527    0.0000 C   0  0  0  0  0  0  0  0  0  0  0  0
   18.9054   -3.8982    0.0000 C   0  0  0  0  0  0  0  0  0  0  0  0
   20.2571   -3.2478    0.0000 C   0  0  0  0  0  0  0  0  0  0  0  0
   20.3697   -1.7521    0.0000 C   0  0  0  0  0  0  0  0  0  0  0  0
   19.1307   -0.9066    0.0000 C   0  0  0  0  0  0  0  0  0  0  0  0
   21.8271   -1.3970    0.0000 C   0  0  0  0  0  0  0  0  0  0  0  0
   22.6152   -2.6733    0.0000 O   0  0  0  0  0  0  0  0  0  0  0  0
   21.6448   -3.8172    0.0000 C   0  0  0  0  0  0  0  0  0  0  0  0
   21.9999   -5.2745    0.0000 O   0  0  0  0  0  0  0  0  0  0  0  0
   23.3136   -1.1962    0.0000 C   0  0  0  0  0  0  0  0  0  0  0  0
   23.8830    0.1916    0.0000 C   0  0  0  0  0  0  0  0  0  0  0  0
   25.3695    0.3924    0.0000 C   0  0  0  0  0  0  0  0  0  0  0  0
   26.2866   -0.7946    0.0000 C   0  0  0  0  0  0  0  0  0  0  0  0
   25.7173   -2.1823    0.0000 C   0  0  0  0  0  0  0  0  0  0  0  0
   24.2308   -2.3831    0.0000 C   0  0  0  0  0  0  0  0  0  0  0  0
   27.7731   -0.5938    0.0000 O   0  0  0  0  0  0  0  0  0  0  0  0
   22.9658    1.3785    0.0000 O   0  0  0  0  0  0  0  0  0  0  0  0
   21.4793    1.1777    0.0000 C   0  0  0  0  0  0  0  0  0  0  0  0
   20.9100   -0.2100    0.0000 C   0  0  0  0  0  0  0  0  0  0  0  0
   19.6892    0.2368    0.0000 C   0  0  0  0  0  0  0  0  0  0  0  0
   19.2000    0.8698    0.0000 C   0  0  0  0  0  0  0  0  0  0  0  0
   19.5037    1.6099    0.0000 C   0  0  0  0  0  0  0  0  0  0  0  0
   20.2965    1.7170    0.0000 C   0  0  0  0  0  0  0  0  0  0  0  0
   18.1585    3.3508    0.0000 O   0  0  0  0  0  0  0  0  0  0  0  0
   15.0756   -2.8576    0.0000 S   0  0  0  0  0  0  0  0  0  0  0  0
   13.9492   -0.5164    0.0000 N   0  0  0  0  0  0  0  0  0  0  0  0
   12.5975   -1.1667    0.0000 C   0  0  0  0  0  0  0  0  0  0  0  0
   11.3585   -0.3213    0.0000 C   0  0  0  0  0  0  0  0  0  0  0  0
   10.0068   -0.9716    0.0000 C   0  0  0  0  0  0  0  0  0  0  0  0
    9.8941   -2.4674    0.0000 O   0  0  0  0  0  0  0  0  0  0  0  0
    8.7677   -0.1262    0.0000 N   0  0  0  0  0  0  0  0  0  0  0  0
    7.4160   -0.7765    0.0000 C   0  0  0  0  0  0  0  0  0  0  0  0
    6.3683   -1.8499    0.0000 C   0  0  0  0  0  0  0  0  0  0  0  0
    4.9148   -1.4792    0.0000 C   0  0  0  0  0  0  0  0  0  0  0  0
    3.8671   -2.5526    0.0000 C   0  0  0  0  0  0  0  0  0  0  0  0
    2.4136   -2.1820    0.0000 C   0  0  0  0  0  0  0  0  0  0  0  0
    1.3658   -3.2554    0.0000 N   0  0  0  0  0  0  0  0  0  0  0  0
    6.1770    0.0689    0.0000 C   0  0  0  0  0  0  0  0  0  0  0  0
    6.2896    1.5647    0.0000 O   0  0  0  0  0  0  0  0  0  0  0  0
    4.8253   -0.5814    0.0000 N   0  0  0  0  0  0  0  0  0  0  0  0
    3.5863    0.2641    0.0000 C   0  0  0  0  0  0  0  0  0  0  0  0
    2.7111    1.4823    0.0000 C   0  0  0  0  0  0  0  0  0  0  0  0
    3.3285    2.8493    0.0000 C   0  0  0  0  0  0  0  0  0  0  0  0
    2.4534    4.0676    0.0000 N   0  0  0  0  0  0  0  0  0  0  0  0
    4.8211    2.9981    0.0000 O   0  0  0  0  0  0  0  0  0  0  0  0
    2.2346   -0.3863    0.0000 C   0  0  0  0  0  0  0  0  0  0  0  0
    2.0201   -1.4585    0.0000 O   0  0  0  0  0  0  0  0  0  0  0  0
    0.9955    0.4592    0.0000 N   0  0  0  0  0  0  0  0  0  0  0  0
   -0.3562   -0.1911    0.0000 C   0  0  0  0  0  0  0  0  0  0  0  0
   -0.7630   -1.6349    0.0000 C   0  0  0  0  0  0  0  0  0  0  0  0
   -1.5773   -2.8947    0.0000 C   0  0  0  0  0  0  0  0  0  0  0  0
   -2.7267   -3.8584    0.0000 C   0  0  0  0  0  0  0  0  0  0  0  0
   -4.1091   -4.4406    0.0000 C   0  0  0  0  0  0  0  0  0  0  0  0
    0.7925   -1.1558    0.0000 C   0  0  0  0  0  0  0  0  0  0  0  0
   -0.3930    1.3084    0.0000 C   0  0  0  0  0  0  0  0  0  0  0  0
    0.9775    1.9181    0.0000 O   0  0  0  0  0  0  0  0  0  0  0  0
   -0.8702    2.7305    0.0000 N   0  0  0  0  0  0  0  0  0  0  0  0
   -1.7454    3.9487    0.0000 C   0  0  0  0  0  0  0  0  0  0  0  0
   -1.4111    5.4110    0.0000 C   0  0  0  0  0  0  0  0  0  0  0  0
   -1.5970    6.8994    0.0000 O   0  0  0  0  0  0  0  0  0  0  0  0
    0.0225    5.8526    0.0000 C   0  0  0  0  0  0  0  0  0  0  0  0
   -2.9407    4.8548    0.0000 C   0  0  0  0  0  0  0  0  0  0  0  0
   -2.2229    6.1719    0.0000 O   0  0  0  0  0  0  0  0  0  0  0  0
   -4.3501    5.3684    0.0000 N   0  0  0  0  0  0  0  0  0  0  0  0
   -5.8482    5.4437    0.0000 C   0  0  0  0  0  0  0  0  0  0  0  0
   -6.7830    6.6168    0.0000 C   0  0  0  0  0  0  0  0  0  0  0  0
   -6.2345    8.0129    0.0000 C   0  0  0  0  0  0  0  0  0  0  0  0
   -7.0415    9.2773    0.0000 C   0  0  0  0  0  0  0  0  0  0  0  0
   -6.0884   10.4356    0.0000 N   0  0  0  0  0  0  0  0  0  0  0  0
   -4.6923    9.8870    0.0000 C   0  0  0  0  0  0  0  0  0  0  0  0
   -4.7826    8.3898    0.0000 N   0  0  0  0  0  0  0  0  0  0  0  0
   -7.3020    5.0741    0.0000 C   0  0  0  0  0  0  0  0  0  0  0  0
   -7.8841    6.4566    0.0000 O   0  0  0  0  0  0  0  0  0  0  0  0
   -8.5822    4.2924    0.0000 N   0  0  0  0  0  0  0  0  0  0  0  0
   -9.5751    3.1681    0.0000 C   0  0  0  0  0  0  0  0  0  0  0  0
  -11.0751    3.1687    0.0000 C   0  0  0  0  0  0  0  0  0  0  0  0
  -11.8246    4.4680    0.0000 C   0  0  0  0  0  0  0  0  0  0  0  0
  -13.3246    4.4686    0.0000 C   0  0  0  0  0  0  0  0  0  0  0  0
  -14.0742    5.7679    0.0000 N   0  0  0  0  0  0  0  0  0  0  0  0
  -14.0751    3.1698    0.0000 O   0  0  0  0  0  0  0  0  0  0  0  0
  -10.1926    1.8011    0.0000 C   0  0  0  0  0  0  0  0  0  0  0  0
  -11.6363    2.2079    0.0000 O   0  0  0  0  0  0  0  0  0  0  0  0
  -10.3796    0.3128    0.0000 N   0  0  0  0  0  0  0  0  0  0  0  0
  -10.1197   -1.1645    0.0000 C   0  0  0  0  0  0  0  0  0  0  0  0
   -9.4359   -2.4995    0.0000 C   0  0  0  0  0  0  0  0  0  0  0  0
   -8.3889   -3.5737    0.0000 C   0  0  0  0  0  0  0  0  0  0  0  0
   -7.0719   -4.2916    0.0000 C   0  0  0  0  0  0  0  0  0  0  0  0
   -5.6017   -4.5894    0.0000 C   0  0  0  0  0  0  0  0  0  0  0  0
  -11.5732   -0.7938    0.0000 C   0  0  0  0  0  0  0  0  0  0  0  0
  -11.0554   -2.3369    0.0000 C   0  0  0  0  0  0  0  0  0  0  0  0
  -10.8621   -3.8244    0.0000 O   0  0  0  0  0  0  0  0  0  0  0  0
  -12.5385   -2.1128    0.0000 N   0  0  0  0  0  0  0  0  0  0  0  0
  -13.4742   -3.2852    0.0000 C   0  0  0  0  0  0  0  0  0  0  0  0
  -13.9525   -4.7069    0.0000 C   0  0  0  0  0  0  0  0  0  0  0  0
  -15.4228   -5.0036    0.0000 C   0  0  0  0  0  0  0  0  0  0  0  0
  -15.9011   -6.4253    0.0000 O   0  0  0  0  0  0  0  0  0  0  0  0
  -16.6577   -4.1520    0.0000 O   0  0  0  0  0  0  0  0  0  0  0  0
  -14.9574   -3.0611    0.0000 C   0  0  0  0  0  0  0  0  0  0  0  0
  -15.5049   -1.6645    0.0000 O   0  0  0  0  0  0  0  0  0  0  0  0
  -15.8930   -4.2335    0.0000 N   0  0  0  0  0  0  0  0  0  0  0  0
  -17.3762   -4.0093    0.0000 C   0  0  0  0  0  0  0  0  0  0  0  0
  -18.6933   -3.2915    0.0000 C   0  0  0  0  0  0  0  0  0  0  0  0
  -19.9735   -4.0732    0.0000 C   0  0  0  0  0  0  0  0  0  0  0  0
  -19.6854   -2.1664    0.0000 C   0  0  0  0  0  0  0  0  0  0  0  0
  -19.2071   -0.7447    0.0000 C   0  0  0  0  0  0  0  0  0  0  0  0
  -18.3119   -5.1817    0.0000 C   0  0  0  0  0  0  0  0  0  0  0  0
  -19.8113   -5.1401    0.0000 O   0  0  0  0  0  0  0  0  0  0  0  0
  -17.7644   -6.5783    0.0000 O   0  0  0  0  0  0  0  0  0  0  0  0
   16.4694    0.7868    0.0000 H   0  0  0  0  0  0  0  0  0  0  0  0
   16.3147   -3.7030    0.0000 H   0  0  0  0  0  0  0  0  0  0  0  0
   18.7927   -5.3939    0.0000 H   0  0  0  0  0  0  0  0  0  0  0  0
   18.8781    0.5719    0.0000 H   0  0  0  0  0  0  0  0  0  0  0  0
   25.9388    1.7801    0.0000 H   0  0  0  0  0  0  0  0  0  0  0  0
   26.6344   -3.3693    0.0000 H   0  0  0  0  0  0  0  0  0  0  0  0
   23.6614   -3.7709    0.0000 H   0  0  0  0  0  0  0  0  0  0  0  0
   28.6903   -1.7807    0.0000 H   0  0  0  0  0  0  0  0  0  0  0  0
   18.8541   -1.7986    0.0000 H   0  0  0  0  0  0  0  0  0  0  0  0
   17.0064    0.7580    0.0000 H   0  0  0  0  0  0  0  0  0  0  0  0
   21.1315    3.7524    0.0000 H   0  0  0  0  0  0  0  0  0  0  0  0
   18.7279    4.7385    0.0000 H   0  0  0  0  0  0  0  0  0  0  0  0
   14.0619    0.9794    0.0000 H   0  0  0  0  0  0  0  0  0  0  0  0
   11.5498   -2.2401    0.0000 H   0  0  0  0  0  0  0  0  0  0  0  0
   13.4727   -2.3850    0.0000 H   0  0  0  0  0  0  0  0  0  0  0  0
   10.4833    0.8969    0.0000 H   0  0  0  0  0  0  0  0  0  0  0  0
   12.4062    0.7521    0.0000 H   0  0  0  0  0  0  0  0  0  0  0  0
    8.8804    1.3696    0.0000 H   0  0  0  0  0  0  0  0  0  0  0  0
    8.2912   -1.9947    0.0000 H   0  0  0  0  0  0  0  0  0  0  0  0
    5.9221   -3.2820    0.0000 H   0  0  0  0  0  0  0  0  0  0  0  0
    7.6073   -2.6953    0.0000 H   0  0  0  0  0  0  0  0  0  0  0  0
    3.7881   -0.4891    0.0000 H   0  0  0  0  0  0  0  0  0  0  0  0
    4.8180    0.0176    0.0000 H   0  0  0  0  0  0  0  0  0  0  0  0
    3.2496   -3.9197    0.0000 H   0  0  0  0  0  0  0  0  0  0  0  0
    4.9938   -3.5428    0.0000 H   0  0  0  0  0  0  0  0  0  0  0  0
    1.1745   -1.3365    0.0000 H   0  0  0  0  0  0  0  0  0  0  0  0
    2.8598   -0.7499    0.0000 H   0  0  0  0  0  0  0  0  0  0  0  0
   -0.1239   -3.4303    0.0000 H   0  0  0  0  0  0  0  0  0  0  0  0
    1.7716   -4.6995    0.0000 H   0  0  0  0  0  0  0  0  0  0  0  0
    4.3541   -2.0054    0.0000 H   0  0  0  0  0  0  0  0  0  0  0  0
    4.6340    1.3375    0.0000 H   0  0  0  0  0  0  0  0  0  0  0  0
    1.7134    2.6024    0.0000 H   0  0  0  0  0  0  0  0  0  0  0  0
    1.5403    0.5446    0.0000 H   0  0  0  0  0  0  0  0  0  0  0  0
    3.0708    5.4346    0.0000 H   0  0  0  0  0  0  0  0  0  0  0  0
    0.9608    3.9188    0.0000 H   0  0  0  0  0  0  0  0  0  0  0  0
    1.1082    1.9549    0.0000 H   0  0  0  0  0  0  0  0  0  0  0  0
    0.7204   -1.4119    0.0000 H   0  0  0  0  0  0  0  0  0  0  0  0
   -0.1093   -2.9850    0.0000 H   0  0  0  0  0  0  0  0  0  0  0  0
   -0.2730   -3.6355    0.0000 H   0  0  0  0  0  0  0  0  0  0  0  0
   -0.9985   -4.2785    0.0000 H   0  0  0  0  0  0  0  0  0  0  0  0
   -1.4649   -4.6696    0.0000 H   0  0  0  0  0  0  0  0  0  0  0  0
   -2.7646   -5.3579    0.0000 H   0  0  0  0  0  0  0  0  0  0  0  0
   -3.7395   -5.8943    0.0000 H   0  0  0  0  0  0  0  0  0  0  0  0
    0.7135   -2.6537    0.0000 H   0  0  0  0  0  0  0  0  0  0  0  0
    2.2540   -1.4937    0.0000 H   0  0  0  0  0  0  0  0  0  0  0  0
    1.9587   -0.2123    0.0000 H   0  0  0  0  0  0  0  0  0  0  0  0
    0.3715    3.5719    0.0000 H   0  0  0  0  0  0  0  0  0  0  0  0
   -0.2498    4.0639    0.0000 H   0  0  0  0  0  0  0  0  0  0  0  0
   -2.8464    5.8466    0.0000 H   0  0  0  0  0  0  0  0  0  0  0  0
   -0.5203    7.9437    0.0000 H   0  0  0  0  0  0  0  0  0  0  0  0
    0.5325    7.2632    0.0000 H   0  0  0  0  0  0  0  0  0  0  0  0
    1.5206    5.7772    0.0000 H   0  0  0  0  0  0  0  0  0  0  0  0
    0.2084    4.3641    0.0000 H   0  0  0  0  0  0  0  0  0  0  0  0
   -4.0523    6.8385    0.0000 H   0  0  0  0  0  0  0  0  0  0  0  0
   -5.1634    6.7783    0.0000 H   0  0  0  0  0  0  0  0  0  0  0  0
   -8.0626    7.3994    0.0000 H   0  0  0  0  0  0  0  0  0  0  0  0
   -8.0185    5.7662    0.0000 H   0  0  0  0  0  0  0  0  0  0  0  0
   -8.5388    9.3676    0.0000 H   0  0  0  0  0  0  0  0  0  0  0  0
   -6.4653   11.8875    0.0000 H   0  0  0  0  0  0  0  0  0  0  0  0
   -3.4279   10.6941    0.0000 H   0  0  0  0  0  0  0  0  0  0  0  0
   -9.5459    5.4419    0.0000 H   0  0  0  0  0  0  0  0  0  0  0  0
  -10.0203    4.6006    0.0000 H   0  0  0  0  0  0  0  0  0  0  0  0
  -12.4849    2.6562    0.0000 H   0  0  0  0  0  0  0  0  0  0  0  0
  -11.1804    1.6724    0.0000 H   0  0  0  0  0  0  0  0  0  0  0  0
  -12.0846    5.9453    0.0000 H   0  0  0  0  0  0  0  0  0  0  0  0
  -10.4879    5.1485    0.0000 H   0  0  0  0  0  0  0  0  0  0  0  0
  -15.5742    5.7684    0.0000 H   0  0  0  0  0  0  0  0  0  0  0  0
  -13.3237    7.0666    0.0000 H   0  0  0  0  0  0  0  0  0  0  0  0
  -11.8792    0.2760    0.0000 H   0  0  0  0  0  0  0  0  0  0  0  0
   -9.9844   -3.8957    0.0000 H   0  0  0  0  0  0  0  0  0  0  0  0
  -10.8716   -2.9341    0.0000 H   0  0  0  0  0  0  0  0  0  0  0  0
   -8.6831   -5.0446    0.0000 H   0  0  0  0  0  0  0  0  0  0  0  0
   -9.6327   -4.4121    0.0000 H   0  0  0  0  0  0  0  0  0  0  0  0
   -6.7386   -5.7541    0.0000 H   0  0  0  0  0  0  0  0  0  0  0  0
   -8.1486   -5.3359    0.0000 H   0  0  0  0  0  0  0  0  0  0  0  0
   -5.6770   -6.0875    0.0000 H   0  0  0  0  0  0  0  0  0  0  0  0
  -12.8495   -1.5818    0.0000 H   0  0  0  0  0  0  0  0  0  0  0  0
  -12.6999    0.1964    0.0000 H   0  0  0  0  0  0  0  0  0  0  0  0
  -11.3049    0.6820    0.0000 H   0  0  0  0  0  0  0  0  0  0  0  0
  -13.2522   -0.7934    0.0000 H   0  0  0  0  0  0  0  0  0  0  0  0
  -12.1571   -4.0030    0.0000 H   0  0  0  0  0  0  0  0  0  0  0  0
  -13.9156   -6.2064    0.0000 H   0  0  0  0  0  0  0  0  0  0  0  0
  -12.4693   -4.9310    0.0000 H   0  0  0  0  0  0  0  0  0  0  0  0
  -17.8544   -3.8775    0.0000 H   0  0  0  0  0  0  0  0  0  0  0  0
  -15.6997   -5.7210    0.0000 H   0  0  0  0  0  0  0  0  0  0  0  0
  -16.8979   -2.5876    0.0000 H   0  0  0  0  0  0  0  0  0  0  0  0
  -17.6217   -2.2419    0.0000 H   0  0  0  0  0  0  0  0  0  0  0  0
  -21.3682   -3.5212    0.0000 H   0  0  0  0  0  0  0  0  0  0  0  0
  -20.9092   -5.2456    0.0000 H   0  0  0  0  0  0  0  0  0  0  0  0
  -19.4506   -5.4791    0.0000 H   0  0  0  0  0  0  0  0  0  0  0  0
  -21.0024   -1.4486    0.0000 H   0  0  0  0  0  0  0  0  0  0  0  0
  -20.7570   -3.2160    0.0000 H   0  0  0  0  0  0  0  0  0  0  0  0
  -20.1992    0.3803    0.0000 H   0  0  0  0  0  0  0  0  0  0  0  0
  -18.2715    0.4277    0.0000 H   0  0  0  0  0  0  0  0  0  0  0  0
  -17.8124   -1.2967    0.0000 H   0  0  0  0  0  0  0  0  0  0  0  0
  -18.7000   -7.7507    0.0000 H   0  0  0  0  0  0  0  0  0  0  0  0
  1  2  1  0
  2  3  1  0
  3  4  2  0
  4  5  1  0
  5  6  2  0
  6  7  1  0
  7  8  2  0
  7  9  1  0
  9 10  1  0
 10 11  1  0
 11 12  2  0
  9 13  1  0
 13 14  1  0
 14 15  2  0
 15 16  1  0
 16 17  2  0
 17 18  1  0
 16 19  1  0
 14 20  1  0
 20 21  1  0
 21 22  2  0
 22 23  1  0
 23 24  2  0
 24 25  1  0
 25 26  2  0
 25 27  1  0
  1 28  2  0
  1 29  1  0
 29 30  1  0
 30 31  1  0
 31 32  1  0
 32 33  2  0
 32 34  1  0
 34 35  1  0
 35 36  1  0
 36 37  1  0
 37 38  1  0
 38 39  1  0
 39 40  1  0
 35 41  1  0
 41 42  2  0
 41 43  1  0
 43 44  1  0
 44 45  1  0
 45 46  1  0
 46 47  1  0
 46 48  2  0
 44 49  1  0
 49 50  2  0
 49 51  1  0
 52 51  1  1
 52 53  1  0
 53 54  1  0
 54 55  1  0
 55 56  1  0
 52 57  1  0
 52 58  1  0
 58 59  2  0
 58 60  1  0
 60 61  1  0
 61 62  1  0
 62 63  1  0
 62 64  1  0
 61 65  1  0
 65 66  2  0
 65 67  1  0
 67 68  1  0
 68 69  1  0
 69 70  1  0
 70 71  2  0
 71 72  1  0
 72 73  1  0
 73 74  2  0
 68 75  1  0
 75 76  2  0
 75 77  1  0
 77 78  1  0
 78 79  1  0
 79 80  1  0
 80 81  1  0
 81 82  1  0
 81 83  2  0
 78 84  1  0
 84 85  2  0
 84 86  1  0
 86 87  1  0
 87 88  1  0
 88 89  1  0
 89 90  1  0
 90 91  1  0
 87 92  1  0
 87 93  1  1
 93 94  2  0
 93 95  1  0
 95 96  1  0
 96 97  1  0
 97 98  1  0
 98 99  2  0
 98100  1  0
 96101  1  0
101102  2  0
101103  1  0
103104  1  0
104105  1  0
105106  1  0
105107  1  0
107108  1  0
104109  1  0
109110  2  0
109111  1  0
  8  3  1  0
 74 70  1  0
 11  6  1  0
 56 91  2  0
 18 13  2  0
 22  9  1  0
 26 21  1  0
  2112  1  0
  4113  1  0
  5114  1  0
  8115  1  0
 15116  1  0
 17117  1  0
 18118  1  0
 19119  1  0
 23120  1  0
 24121  1  0
 26122  1  0
 27123  1  0
 29124  1  0
 30125  1  0
 30126  1  0
 31127  1  0
 31128  1  0
 34129  1  0
 35130  1  1
 36131  1  0
 36132  1  0
 37133  1  0
 37134  1  0
 38135  1  0
 38136  1  0
 39137  1  0
 39138  1  0
 40139  1  0
 40140  1  0
 43141  1  0
 44142  1  6
 45143  1  0
 45144  1  0
 47145  1  0
 47146  1  0
 51147  1  0
 53148  1  0
 53149  1  0
 54150  1  0
 54151  1  0
 55152  1  0
 55153  1  0
 56154  1  0
 57155  1  0
 57156  1  0
 57157  1  0
 60158  1  0
 61159  1  6
 62160  1  1
 63161  1  0
 64162  1  0
 64163  1  0
 64164  1  0
 67165  1  0
 68166  1  6
 69167  1  0
 69168  1  0
 71169  1  0
 72170  1  0
 73171  1  0
 77172  1  0
 78173  1  6
 79174  1  0
 79175  1  0
 80176  1  0
 80177  1  0
 82178  1  0
 82179  1  0
 86180  1  0
 88181  1  0
 88182  1  0
 89183  1  0
 89184  1  0
 90185  1  0
 90186  1  0
 91187  1  0
 92188  1  0
 92189  1  0
 92190  1  0
 95191  1  0
 96192  1  1
 97193  1  0
 97194  1  0
100195  1  0
103196  1  0
104197  1  6
105198  1  6
106199  1  0
106200  1  0
106201  1  0
107202  1  0
107203  1  0
108204  1  0
108205  1  0
108206  1  0
111207  1  0
M  END
