
     RDKit          2D

210213  0  0  0  0  0  0  0  0999 V2000
  -15.6880    4.9244    0.0000 N   0  0  0  0  0  0  0  0  0  0  0  0
  -14.4863    4.0265    0.0000 C   0  0  0  0  0  0  0  0  0  0  0  0
  -13.1080    4.6182    0.0000 C   0  0  0  0  0  0  0  0  0  0  0  0
  -11.9064    3.7203    0.0000 C   0  0  0  0  0  0  0  0  0  0  0  0
  -12.0831    2.2308    0.0000 O   0  0  0  0  0  0  0  0  0  0  0  0
  -10.5280    4.3120    0.0000 N   0  0  0  0  0  0  0  0  0  0  0  0
   -9.3264    3.4142    0.0000 C   0  0  0  0  0  0  0  0  0  0  0  0
   -8.6508    4.7534    0.0000 C   0  0  0  0  0  0  0  0  0  0  0  0
   -9.4729    6.0081    0.0000 C   0  0  0  0  0  0  0  0  0  0  0  0
   -8.7973    7.3474    0.0000 C   0  0  0  0  0  0  0  0  0  0  0  0
   -9.6194    8.6021    0.0000 C   0  0  0  0  0  0  0  0  0  0  0  0
   -8.9438    9.9413    0.0000 N   0  0  0  0  0  0  0  0  0  0  0  0
   -8.5043    2.1595    0.0000 C   0  0  0  0  0  0  0  0  0  0  0  0
   -7.0067    2.2441    0.0000 O   0  0  0  0  0  0  0  0  0  0  0  0
   -9.1799    0.8202    0.0000 N   0  0  0  0  0  0  0  0  0  0  0  0
   -8.3578   -0.4344    0.0000 C   0  0  0  0  0  0  0  0  0  0  0  0
   -9.7362   -1.0261    0.0000 C   0  0  0  0  0  0  0  0  0  0  0  0
  -10.9378   -0.1283    0.0000 C   0  0  0  0  0  0  0  0  0  0  0  0
  -12.3162   -0.7200    0.0000 C   0  0  0  0  0  0  0  0  0  0  0  0
  -13.5178    0.1779    0.0000 C   0  0  0  0  0  0  0  0  0  0  0  0
  -14.8962   -0.4138    0.0000 N   0  0  0  0  0  0  0  0  0  0  0  0
   -7.1562   -1.3323    0.0000 C   0  0  0  0  0  0  0  0  0  0  0  0
   -5.7779   -0.7406    0.0000 O   0  0  0  0  0  0  0  0  0  0  0  0
   -7.3330   -2.8218    0.0000 N   0  0  0  0  0  0  0  0  0  0  0  0
   -6.1314   -3.7197    0.0000 C   0  0  0  0  0  0  0  0  0  0  0  0
   -7.2243   -4.7471    0.0000 C   0  0  0  0  0  0  0  0  0  0  0  0
   -8.6605   -4.3144    0.0000 C   0  0  0  0  0  0  0  0  0  0  0  0
   -9.7534   -5.3418    0.0000 C   0  0  0  0  0  0  0  0  0  0  0  0
  -11.1896   -4.9091    0.0000 C   0  0  0  0  0  0  0  0  0  0  0  0
  -11.5329   -3.4489    0.0000 C   0  0  0  0  0  0  0  0  0  0  0  0
  -10.4401   -2.4215    0.0000 C   0  0  0  0  0  0  0  0  0  0  0  0
   -9.0038   -2.8542    0.0000 C   0  0  0  0  0  0  0  0  0  0  0  0
   -4.6952   -4.1524    0.0000 C   0  0  0  0  0  0  0  0  0  0  0  0
   -4.5324   -5.6436    0.0000 O   0  0  0  0  0  0  0  0  0  0  0  0
   -3.6023   -3.1250    0.0000 N   0  0  0  0  0  0  0  0  0  0  0  0
   -2.1661   -3.5577    0.0000 C   0  0  0  0  0  0  0  0  0  0  0  0
   -2.8416   -4.8970    0.0000 C   0  0  0  0  0  0  0  0  0  0  0  0
   -2.0196   -6.1517    0.0000 C   0  0  0  0  0  0  0  0  0  0  0  0
   -2.6951   -7.4909    0.0000 C   0  0  0  0  0  0  0  0  0  0  0  0
   -1.8731   -8.7456    0.0000 N   0  0  0  0  0  0  0  0  0  0  0  0
   -2.5486  -10.0849    0.0000 C   0  0  0  0  0  0  0  0  0  0  0  0
   -1.7266  -11.3396    0.0000 N   0  0  0  0  0  0  0  0  0  0  0  0
   -4.0463  -10.1695    0.0000 N   0  0  0  0  0  0  0  0  0  0  0  0
   -0.6685   -3.4731    0.0000 C   0  0  0  0  0  0  0  0  0  0  0  0
   -0.0055   -4.8187    0.0000 O   0  0  0  0  0  0  0  0  0  0  0  0
    0.0071   -2.1339    0.0000 N   0  0  0  0  0  0  0  0  0  0  0  0
    1.5047   -2.0493    0.0000 C   0  0  0  0  0  0  0  0  0  0  0  0
    0.8117   -0.7190    0.0000 C   0  0  0  0  0  0  0  0  0  0  0  0
    0.5415    0.7565    0.0000 C   0  0  0  0  0  0  0  0  0  0  0  0
    0.7183    2.2460    0.0000 C   0  0  0  0  0  0  0  0  0  0  0  0
    1.3262    3.6173    0.0000 C   0  0  0  0  0  0  0  0  0  0  0  0
    0.9659   -3.4492    0.0000 C   0  0  0  0  0  0  0  0  0  0  0  0
    2.5591   -3.1162    0.0000 C   0  0  0  0  0  0  0  0  0  0  0  0
    1.6612   -4.3178    0.0000 O   0  0  0  0  0  0  0  0  0  0  0  0
    3.8811   -3.8250    0.0000 N   0  0  0  0  0  0  0  0  0  0  0  0
    5.3532   -4.1125    0.0000 C   0  0  0  0  0  0  0  0  0  0  0  0
    6.1117   -5.4066    0.0000 C   0  0  0  0  0  0  0  0  0  0  0  0
    5.3703   -6.7106    0.0000 C   0  0  0  0  0  0  0  0  0  0  0  0
    6.1288   -8.0047    0.0000 C   0  0  0  0  0  0  0  0  0  0  0  0
    4.2275   -7.6823    0.0000 C   0  0  0  0  0  0  0  0  0  0  0  0
    6.8448   -3.9534    0.0000 C   0  0  0  0  0  0  0  0  0  0  0  0
    7.2244   -5.4046    0.0000 O   0  0  0  0  0  0  0  0  0  0  0  0
    8.2232   -3.3617    0.0000 N   0  0  0  0  0  0  0  0  0  0  0  0
    9.3659   -2.3900    0.0000 C   0  0  0  0  0  0  0  0  0  0  0  0
   10.8506   -2.6039    0.0000 C   0  0  0  0  0  0  0  0  0  0  0  0
   11.4077   -3.9966    0.0000 C   0  0  0  0  0  0  0  0  0  0  0  0
   10.4802   -5.1754    0.0000 C   0  0  0  0  0  0  0  0  0  0  0  0
   11.0373   -6.5681    0.0000 C   0  0  0  0  0  0  0  0  0  0  0  0
   12.5220   -6.7820    0.0000 C   0  0  0  0  0  0  0  0  0  0  0  0
   13.4495   -5.6031    0.0000 C   0  0  0  0  0  0  0  0  0  0  0  0
   12.8924   -4.2104    0.0000 C   0  0  0  0  0  0  0  0  0  0  0  0
   10.1714   -1.1247    0.0000 C   0  0  0  0  0  0  0  0  0  0  0  0
   11.5427   -1.7327    0.0000 O   0  0  0  0  0  0  0  0  0  0  0  0
   10.5682    0.3219    0.0000 N   0  0  0  0  0  0  0  0  0  0  0  0
   10.5210    1.8211    0.0000 C   0  0  0  0  0  0  0  0  0  0  0  0
   11.6139    2.8486    0.0000 C   0  0  0  0  0  0  0  0  0  0  0  0
   13.0501    2.4158    0.0000 C   0  0  0  0  0  0  0  0  0  0  0  0
   13.3935    0.9557    0.0000 C   0  0  0  0  0  0  0  0  0  0  0  0
   14.8297    0.5229    0.0000 C   0  0  0  0  0  0  0  0  0  0  0  0
   15.9226    1.5504    0.0000 C   0  0  0  0  0  0  0  0  0  0  0  0
   15.5792    3.0105    0.0000 C   0  0  0  0  0  0  0  0  0  0  0  0
   14.1430    3.4433    0.0000 C   0  0  0  0  0  0  0  0  0  0  0  0
   10.0340    3.2399    0.0000 C   0  0  0  0  0  0  0  0  0  0  0  0
   11.3643    3.9329    0.0000 O   0  0  0  0  0  0  0  0  0  0  0  0
    9.1504    4.4520    0.0000 N   0  0  0  0  0  0  0  0  0  0  0  0
    7.9488    5.3499    0.0000 C   0  0  0  0  0  0  0  0  0  0  0  0
    6.5359    5.8536    0.0000 C   0  0  0  0  0  0  0  0  0  0  0  0
    5.0373    5.9186    0.0000 C   0  0  0  0  0  0  0  0  0  0  0  0
    3.5862    5.5389    0.0000 C   0  0  0  0  0  0  0  0  0  0  0  0
    2.3114    4.7484    0.0000 C   0  0  0  0  0  0  0  0  0  0  0  0
    9.2614    6.0758    0.0000 C   0  0  0  0  0  0  0  0  0  0  0  0
    7.8269    6.8449    0.0000 C   0  0  0  0  0  0  0  0  0  0  0  0
    6.6668    7.7958    0.0000 O   0  0  0  0  0  0  0  0  0  0  0  0
    9.0607    7.6980    0.0000 N   0  0  0  0  0  0  0  0  0  0  0  0
    8.9388    9.1930    0.0000 C   0  0  0  0  0  0  0  0  0  0  0  0
    8.3129   10.5562    0.0000 C   0  0  0  0  0  0  0  0  0  0  0  0
    9.0249   11.8765    0.0000 O   0  0  0  0  0  0  0  0  0  0  0  0
   10.1726   10.0461    0.0000 C   0  0  0  0  0  0  0  0  0  0  0  0
   10.2339   11.5448    0.0000 O   0  0  0  0  0  0  0  0  0  0  0  0
   11.5283    9.4041    0.0000 O   0  0  0  0  0  0  0  0  0  0  0  0
  -17.0663    4.3327    0.0000 H   0  0  0  0  0  0  0  0  0  0  0  0
  -15.5112    6.4139    0.0000 H   0  0  0  0  0  0  0  0  0  0  0  0
  -15.5792    2.9991    0.0000 H   0  0  0  0  0  0  0  0  0  0  0  0
  -13.6643    2.7718    0.0000 H   0  0  0  0  0  0  0  0  0  0  0  0
  -13.9300    5.8729    0.0000 H   0  0  0  0  0  0  0  0  0  0  0  0
  -12.0151    5.6456    0.0000 H   0  0  0  0  0  0  0  0  0  0  0  0
  -10.5313    5.1092    0.0000 H   0  0  0  0  0  0  0  0  0  0  0  0
  -10.4193    2.3867    0.0000 H   0  0  0  0  0  0  0  0  0  0  0  0
   -7.4409    5.6400    0.0000 H   0  0  0  0  0  0  0  0  0  0  0  0
   -7.4492    3.8556    0.0000 H   0  0  0  0  0  0  0  0  0  0  0  0
  -10.7750    6.7528    0.0000 H   0  0  0  0  0  0  0  0  0  0  0  0
  -10.2928    5.6731    0.0000 H   0  0  0  0  0  0  0  0  0  0  0  0
   -7.5874    8.2340    0.0000 H   0  0  0  0  0  0  0  0  0  0  0  0
   -7.4952    6.6027    0.0000 H   0  0  0  0  0  0  0  0  0  0  0  0
  -10.8210    9.4999    0.0000 H   0  0  0  0  0  0  0  0  0  0  0  0
  -10.8294    7.7155    0.0000 H   0  0  0  0  0  0  0  0  0  0  0  0
   -9.7659   11.1960    0.0000 H   0  0  0  0  0  0  0  0  0  0  0  0
   -7.8510   10.9688    0.0000 H   0  0  0  0  0  0  0  0  0  0  0  0
   -7.6417    9.1966    0.0000 H   0  0  0  0  0  0  0  0  0  0  0  0
  -10.6767    0.9188    0.0000 H   0  0  0  0  0  0  0  0  0  0  0  0
   -7.2650    0.5930    0.0000 H   0  0  0  0  0  0  0  0  0  0  0  0
  -10.9462   -1.9127    0.0000 H   0  0  0  0  0  0  0  0  0  0  0  0
   -8.6350   -2.0446    0.0000 H   0  0  0  0  0  0  0  0  0  0  0  0
  -11.6008    1.2173    0.0000 H   0  0  0  0  0  0  0  0  0  0  0  0
  -10.2858    1.2226    0.0000 H   0  0  0  0  0  0  0  0  0  0  0  0
  -13.2757   -1.8730    0.0000 H   0  0  0  0  0  0  0  0  0  0  0  0
  -11.6532   -2.0655    0.0000 H   0  0  0  0  0  0  0  0  0  0  0  0
  -14.3399    1.4326    0.0000 H   0  0  0  0  0  0  0  0  0  0  0  0
  -12.5583    1.3309    0.0000 H   0  0  0  0  0  0  0  0  0  0  0  0
  -16.0978    0.4840    0.0000 H   0  0  0  0  0  0  0  0  0  0  0  0
  -15.9890   -1.4412    0.0000 H   0  0  0  0  0  0  0  0  0  0  0  0
  -14.2332   -1.7593    0.0000 H   0  0  0  0  0  0  0  0  0  0  0  0
   -8.8136   -3.0624    0.0000 H   0  0  0  0  0  0  0  0  0  0  0  0
   -5.4558   -2.3804    0.0000 H   0  0  0  0  0  0  0  0  0  0  0  0
   -7.8998   -6.0864    0.0000 H   0  0  0  0  0  0  0  0  0  0  0  0
   -6.0227   -5.6450    0.0000 H   0  0  0  0  0  0  0  0  0  0  0  0
   -9.4100   -6.8020    0.0000 H   0  0  0  0  0  0  0  0  0  0  0  0
  -12.2825   -5.9365    0.0000 H   0  0  0  0  0  0  0  0  0  0  0  0
  -12.9692   -3.0162    0.0000 H   0  0  0  0  0  0  0  0  0  0  0  0
  -10.7834   -0.9613    0.0000 H   0  0  0  0  0  0  0  0  0  0  0  0
   -7.9110   -1.8268    0.0000 H   0  0  0  0  0  0  0  0  0  0  0  0
   -3.9457   -1.6648    0.0000 H   0  0  0  0  0  0  0  0  0  0  0  0
   -1.9893   -2.0682    0.0000 H   0  0  0  0  0  0  0  0  0  0  0  0
   -3.9345   -5.9244    0.0000 H   0  0  0  0  0  0  0  0  0  0  0  0
   -4.2248   -4.3166    0.0000 H   0  0  0  0  0  0  0  0  0  0  0  0
   -0.8180   -7.0495    0.0000 H   0  0  0  0  0  0  0  0  0  0  0  0
   -0.9267   -5.1242    0.0000 H   0  0  0  0  0  0  0  0  0  0  0  0
   -3.7880   -8.5184    0.0000 H   0  0  0  0  0  0  0  0  0  0  0  0
   -3.9972   -6.7462    0.0000 H   0  0  0  0  0  0  0  0  0  0  0  0
   -0.3755   -8.6610    0.0000 H   0  0  0  0  0  0  0  0  0  0  0  0
   -2.4022  -12.6788    0.0000 H   0  0  0  0  0  0  0  0  0  0  0  0
   -0.2290  -11.2550    0.0000 H   0  0  0  0  0  0  0  0  0  0  0  0
   -4.7218  -11.5087    0.0000 H   0  0  0  0  0  0  0  0  0  0  0  0
   -4.8683   -8.9148    0.0000 H   0  0  0  0  0  0  0  0  0  0  0  0
   -1.0941   -1.1154    0.0000 H   0  0  0  0  0  0  0  0  0  0  0  0
   -0.3736   -1.6384    0.0000 H   0  0  0  0  0  0  0  0  0  0  0  0
   -0.6443   -0.3584    0.0000 H   0  0  0  0  0  0  0  0  0  0  0  0
   -0.8620    0.2273    0.0000 H   0  0  0  0  0  0  0  0  0  0  0  0
   -0.8282    1.3678    0.0000 H   0  0  0  0  0  0  0  0  0  0  0  0
   -0.7565    1.9722    0.0000 H   0  0  0  0  0  0  0  0  0  0  0  0
   -0.2816    3.3642    0.0000 H   0  0  0  0  0  0  0  0  0  0  0  0
    0.0609    4.4228    0.0000 H   0  0  0  0  0  0  0  0  0  0  0  0
   -0.4154   -4.0341    0.0000 H   0  0  0  0  0  0  0  0  0  0  0  0
    1.1213   -4.9411    0.0000 H   0  0  0  0  0  0  0  0  0  0  0  0
    2.3247   -4.0844    0.0000 H   0  0  0  0  0  0  0  0  0  0  0  0
    3.3773   -5.2378    0.0000 H   0  0  0  0  0  0  0  0  0  0  0  0
    4.3429   -5.2213    0.0000 H   0  0  0  0  0  0  0  0  0  0  0  0
    7.3751   -6.2153    0.0000 H   0  0  0  0  0  0  0  0  0  0  0  0
    7.4556   -4.7403    0.0000 H   0  0  0  0  0  0  0  0  0  0  0  0
    4.1069   -5.9019    0.0000 H   0  0  0  0  0  0  0  0  0  0  0  0
    5.5518   -9.3892    0.0000 H   0  0  0  0  0  0  0  0  0  0  0  0
    7.2841   -8.9613    0.0000 H   0  0  0  0  0  0  0  0  0  0  0  0
    7.3814   -7.1795    0.0000 H   0  0  0  0  0  0  0  0  0  0  0  0
    4.3158   -9.1797    0.0000 H   0  0  0  0  0  0  0  0  0  0  0  0
    2.8214   -8.2045    0.0000 H   0  0  0  0  0  0  0  0  0  0  0  0
    3.4690   -6.3882    0.0000 H   0  0  0  0  0  0  0  0  0  0  0  0
    8.8524   -4.7234    0.0000 H   0  0  0  0  0  0  0  0  0  0  0  0
    9.7816   -3.8313    0.0000 H   0  0  0  0  0  0  0  0  0  0  0  0
   12.3188   -2.2970    0.0000 H   0  0  0  0  0  0  0  0  0  0  0  0
   11.1675   -1.1378    0.0000 H   0  0  0  0  0  0  0  0  0  0  0  0
    8.9805   -5.1442    0.0000 H   0  0  0  0  0  0  0  0  0  0  0  0
   10.1098   -7.7470    0.0000 H   0  0  0  0  0  0  0  0  0  0  0  0
   13.0791   -8.1747    0.0000 H   0  0  0  0  0  0  0  0  0  0  0  0
   14.9342   -5.8170    0.0000 H   0  0  0  0  0  0  0  0  0  0  0  0
   13.8199   -3.0316    0.0000 H   0  0  0  0  0  0  0  0  0  0  0  0
   12.0251   -0.0351    0.0000 H   0  0  0  0  0  0  0  0  0  0  0  0
   11.9070    1.2475    0.0000 H   0  0  0  0  0  0  0  0  0  0  0  0
   12.2894    4.1878    0.0000 H   0  0  0  0  0  0  0  0  0  0  0  0
   10.6652    4.0105    0.0000 H   0  0  0  0  0  0  0  0  0  0  0  0
   12.4340   -0.1973    0.0000 H   0  0  0  0  0  0  0  0  0  0  0  0
   15.1730   -0.9373    0.0000 H   0  0  0  0  0  0  0  0  0  0  0  0
   17.3588    1.1176    0.0000 H   0  0  0  0  0  0  0  0  0  0  0  0
   16.6721    4.0380    0.0000 H   0  0  0  0  0  0  0  0  0  0  0  0
   13.7996    4.9034    0.0000 H   0  0  0  0  0  0  0  0  0  0  0  0
   10.2173    5.5064    0.0000 H   0  0  0  0  0  0  0  0  0  0  0  0
    5.9788    7.2463    0.0000 H   0  0  0  0  0  0  0  0  0  0  0  0
    7.2838    7.1539    0.0000 H   0  0  0  0  0  0  0  0  0  0  0  0
    4.2437    7.1914    0.0000 H   0  0  0  0  0  0  0  0  0  0  0  0
    5.3687    7.3815    0.0000 H   0  0  0  0  0  0  0  0  0  0  0  0
    2.3413    6.3758    0.0000 H   0  0  0  0  0  0  0  0  0  0  0  0
    3.6548    7.0374    0.0000 H   0  0  0  0  0  0  0  0  0  0  0  0
    1.3397    5.8912    0.0000 H   0  0  0  0  0  0  0  0  0  0  0  0
    9.6511    7.5244    0.0000 H   0  0  0  0  0  0  0  0  0  0  0  0
   10.7605    6.1268    0.0000 H   0  0  0  0  0  0  0  0  0  0  0  0
   10.0773    4.8171    0.0000 H   0  0  0  0  0  0  0  0  0  0  0  0
   10.4845    7.2261    0.0000 H   0  0  0  0  0  0  0  0  0  0  0  0
    7.4877    8.8134    0.0000 H   0  0  0  0  0  0  0  0  0  0  0  0
    7.2586   11.6231    0.0000 H   0  0  0  0  0  0  0  0  0  0  0  0
    7.0791    9.7031    0.0000 H   0  0  0  0  0  0  0  0  0  0  0  0
    8.5547   13.1430    0.0000 H   0  0  0  0  0  0  0  0  0  0  0  0
  1  2  1  0
  2  3  1  0
  3  4  1  0
  4  5  2  0
  4  6  1  0
  6  7  1  0
  7  8  1  0
  8  9  1  0
  9 10  1  0
 10 11  1  0
 11 12  1  0
  7 13  1  0
 13 14  2  0
 13 15  1  0
 15 16  1  0
 16 17  1  0
 17 18  1  0
 18 19  1  0
 19 20  1  0
 20 21  1  0
 16 22  1  0
 22 23  2  0
 22 24  1  0
 24 25  1  0
 25 26  1  0
 26 27  1  0
 27 28  2  0
 28 29  1  0
 29 30  2  0
 30 31  1  0
 31 32  2  0
 25 33  1  0
 33 34  2  0
 33 35  1  0
 35 36  1  0
 36 37  1  0
 37 38  1  0
 38 39  1  0
 39 40  1  0
 40 41  1  0
 41 42  2  3
 41 43  1  0
 36 44  1  0
 44 45  2  0
 44 46  1  0
 47 46  1  1
 47 48  1  0
 48 49  1  0
 49 50  1  0
 50 51  1  0
 47 52  1  0
 47 53  1  0
 53 54  2  0
 53 55  1  0
 55 56  1  0
 56 57  1  0
 57 58  1  0
 58 59  1  0
 58 60  1  0
 56 61  1  0
 61 62  2  0
 61 63  1  0
 63 64  1  0
 64 65  1  0
 65 66  1  0
 66 67  2  0
 67 68  1  0
 68 69  2  0
 69 70  1  0
 70 71  2  0
 64 72  1  0
 72 73  2  0
 72 74  1  0
 74 75  1  0
 75 76  1  0
 76 77  1  0
 77 78  2  0
 78 79  1  0
 79 80  2  0
 80 81  1  0
 81 82  2  0
 75 83  1  0
 83 84  2  0
 83 85  1  0
 85 86  1  0
 86 87  1  0
 87 88  1  0
 88 89  1  0
 89 90  1  0
 86 91  1  0
 86 92  1  1
 92 93  2  0
 92 94  1  0
 94 95  1  0
 95 96  1  0
 96 97  1  0
 95 98  1  0
 98 99  2  0
 98100  1  0
 32 27  1  0
 71 66  1  0
 82 77  1  0
 51 90  2  0
  1101  1  0
  1102  1  0
  2103  1  0
  2104  1  0
  3105  1  0
  3106  1  0
  6107  1  0
  7108  1  1
  8109  1  0
  8110  1  0
  9111  1  0
  9112  1  0
 10113  1  0
 10114  1  0
 11115  1  0
 11116  1  0
 12117  1  0
 12118  1  0
 12119  1  0
 15120  1  0
 16121  1  6
 17122  1  0
 17123  1  0
 18124  1  0
 18125  1  0
 19126  1  0
 19127  1  0
 20128  1  0
 20129  1  0
 21130  1  0
 21131  1  0
 21132  1  0
 24133  1  0
 25134  1  6
 26135  1  0
 26136  1  0
 28137  1  0
 29138  1  0
 30139  1  0
 31140  1  0
 32141  1  0
 35142  1  0
 36143  1  6
 37144  1  0
 37145  1  0
 38146  1  0
 38147  1  0
 39148  1  0
 39149  1  0
 40150  1  0
 42151  1  0
 42152  1  0
 43153  1  0
 43154  1  0
 46155  1  0
 48156  1  0
 48157  1  0
 49158  1  0
 49159  1  0
 50160  1  0
 50161  1  0
 51162  1  0
 52163  1  0
 52164  1  0
 52165  1  0
 55166  1  0
 56167  1  6
 57168  1  0
 57169  1  0
 58170  1  0
 59171  1  0
 59172  1  0
 59173  1  0
 60174  1  0
 60175  1  0
 60176  1  0
 63177  1  0
 64178  1  6
 65179  1  0
 65180  1  0
 67181  1  0
 68182  1  0
 69183  1  0
 70184  1  0
 71185  1  0
 74186  1  0
 75187  1  6
 76188  1  0
 76189  1  0
 78190  1  0
 79191  1  0
 80192  1  0
 81193  1  0
 82194  1  0
 85195  1  0
 87196  1  0
 87197  1  0
 88198  1  0
 88199  1  0
 89200  1  0
 89201  1  0
 90202  1  0
 91203  1  0
 91204  1  0
 91205  1  0
 94206  1  0
 95207  1  1
 96208  1  0
 96209  1  0
 97210  1  0
M  CHG  4  12   1  21   1  42   1 100  -1
M  END
