
     RDKit          2D

157159  0  0  0  0  0  0  0  0999 V2000
  -10.3795    8.3585    0.0000 N   0  0  0  0  0  0  0  0  0  0  0  0
   -9.3783    7.2416    0.0000 C   0  0  0  0  0  0  0  0  0  0  0  0
   -9.8449    5.8160    0.0000 C   0  0  0  0  0  0  0  0  0  0  0  0
   -8.8436    4.6991    0.0000 C   0  0  0  0  0  0  0  0  0  0  0  0
   -7.3757    5.0078    0.0000 O   0  0  0  0  0  0  0  0  0  0  0  0
   -9.3102    3.2736    0.0000 N   0  0  0  0  0  0  0  0  0  0  0  0
   -8.3089    2.1567    0.0000 C   0  0  0  0  0  0  0  0  0  0  0  0
   -9.5827    1.3646    0.0000 C   0  0  0  0  0  0  0  0  0  0  0  0
   -9.5336   -0.1346    0.0000 C   0  0  0  0  0  0  0  0  0  0  0  0
  -10.8074   -0.9268    0.0000 C   0  0  0  0  0  0  0  0  0  0  0  0
  -10.7583   -2.4260    0.0000 C   0  0  0  0  0  0  0  0  0  0  0  0
  -12.0321   -3.2181    0.0000 N   0  0  0  0  0  0  0  0  0  0  0  0
   -6.9860    1.4496    0.0000 C   0  0  0  0  0  0  0  0  0  0  0  0
   -5.7123    2.2417    0.0000 O   0  0  0  0  0  0  0  0  0  0  0  0
   -6.9369   -0.0496    0.0000 N   0  0  0  0  0  0  0  0  0  0  0  0
   -5.6140   -0.7567    0.0000 C   0  0  0  0  0  0  0  0  0  0  0  0
   -6.5401   -1.9367    0.0000 C   0  0  0  0  0  0  0  0  0  0  0  0
   -5.9812   -3.3287    0.0000 C   0  0  0  0  0  0  0  0  0  0  0  0
   -4.4963   -3.5406    0.0000 C   0  0  0  0  0  0  0  0  0  0  0  0
   -3.9374   -4.9326    0.0000 C   0  0  0  0  0  0  0  0  0  0  0  0
   -4.8634   -6.1126    0.0000 C   0  0  0  0  0  0  0  0  0  0  0  0
   -6.3483   -5.9007    0.0000 C   0  0  0  0  0  0  0  0  0  0  0  0
   -6.9072   -4.5087    0.0000 C   0  0  0  0  0  0  0  0  0  0  0  0
   -4.1291   -0.9686    0.0000 C   0  0  0  0  0  0  0  0  0  0  0  0
   -3.5702   -2.3606    0.0000 O   0  0  0  0  0  0  0  0  0  0  0  0
   -3.2030    0.2114    0.0000 N   0  0  0  0  0  0  0  0  0  0  0  0
   -1.7181   -0.0006    0.0000 C   0  0  0  0  0  0  0  0  0  0  0  0
   -2.1356    1.4401    0.0000 C   0  0  0  0  0  0  0  0  0  0  0  0
   -2.1099    2.9399    0.0000 C   0  0  0  0  0  0  0  0  0  0  0  0
   -1.6433    4.3655    0.0000 C   0  0  0  0  0  0  0  0  0  0  0  0
   -0.7772    5.5902    0.0000 C   0  0  0  0  0  0  0  0  0  0  0  0
   -2.5221   -1.2670    0.0000 C   0  0  0  0  0  0  0  0  0  0  0  0
   -0.8945   -1.2542    0.0000 C   0  0  0  0  0  0  0  0  0  0  0  0
   -2.0114   -2.2555    0.0000 O   0  0  0  0  0  0  0  0  0  0  0  0
    0.2621   -2.2094    0.0000 N   0  0  0  0  0  0  0  0  0  0  0  0
    1.6488   -2.7813    0.0000 C   0  0  0  0  0  0  0  0  0  0  0  0
    2.1376   -4.1994    0.0000 C   0  0  0  0  0  0  0  0  0  0  0  0
    1.1539   -5.3318    0.0000 C   0  0  0  0  0  0  0  0  0  0  0  0
    1.6427   -6.7499    0.0000 C   0  0  0  0  0  0  0  0  0  0  0  0
    0.6590   -7.8823    0.0000 N   0  0  0  0  0  0  0  0  0  0  0  0
    1.1478   -9.3004    0.0000 C   0  0  0  0  0  0  0  0  0  0  0  0
    0.1641  -10.4328    0.0000 N   0  0  0  0  0  0  0  0  0  0  0  0
    2.6204   -9.5861    0.0000 N   0  0  0  0  0  0  0  0  0  0  0  0
    3.1425   -2.9190    0.0000 C   0  0  0  0  0  0  0  0  0  0  0  0
    3.2289   -4.4165    0.0000 O   0  0  0  0  0  0  0  0  0  0  0  0
    4.6104   -2.6103    0.0000 N   0  0  0  0  0  0  0  0  0  0  0  0
    5.9221   -1.8826    0.0000 C   0  0  0  0  0  0  0  0  0  0  0  0
    7.3356   -2.3846    0.0000 C   0  0  0  0  0  0  0  0  0  0  0  0
    7.6076   -3.8598    0.0000 C   0  0  0  0  0  0  0  0  0  0  0  0
    9.0211   -4.3618    0.0000 C   0  0  0  0  0  0  0  0  0  0  0  0
    7.3586   -5.3390    0.0000 C   0  0  0  0  0  0  0  0  0  0  0  0
    6.9610   -0.8007    0.0000 C   0  0  0  0  0  0  0  0  0  0  0  0
    8.1857   -1.6668    0.0000 O   0  0  0  0  0  0  0  0  0  0  0  0
    7.6349    0.5394    0.0000 N   0  0  0  0  0  0  0  0  0  0  0  0
    7.8838    2.0186    0.0000 C   0  0  0  0  0  0  0  0  0  0  0  0
    9.1576    2.8108    0.0000 C   0  0  0  0  0  0  0  0  0  0  0  0
   10.4805    2.1037    0.0000 C   0  0  0  0  0  0  0  0  0  0  0  0
   10.5296    0.6045    0.0000 C   0  0  0  0  0  0  0  0  0  0  0  0
   11.8525   -0.1026    0.0000 C   0  0  0  0  0  0  0  0  0  0  0  0
   13.1263    0.6895    0.0000 C   0  0  0  0  0  0  0  0  0  0  0  0
   13.0772    2.1887    0.0000 C   0  0  0  0  0  0  0  0  0  0  0  0
   11.7543    2.8958    0.0000 C   0  0  0  0  0  0  0  0  0  0  0  0
    7.6857    3.5055    0.0000 C   0  0  0  0  0  0  0  0  0  0  0  0
    9.1264    3.9230    0.0000 O   0  0  0  0  0  0  0  0  0  0  0  0
    7.0581    4.8679    0.0000 N   0  0  0  0  0  0  0  0  0  0  0  0
    6.0568    5.9848    0.0000 C   0  0  0  0  0  0  0  0  0  0  0  0
    4.7708    6.7569    0.0000 C   0  0  0  0  0  0  0  0  0  0  0  0
    3.3143    7.1157    0.0000 C   0  0  0  0  0  0  0  0  0  0  0  0
    1.8168    7.0292    0.0000 C   0  0  0  0  0  0  0  0  0  0  0  0
    0.4113    6.5052    0.0000 C   0  0  0  0  0  0  0  0  0  0  0  0
    7.4867    6.4381    0.0000 C   0  0  0  0  0  0  0  0  0  0  0  0
    6.2317    7.4745    0.0000 C   0  0  0  0  0  0  0  0  0  0  0  0
    7.5267    8.2315    0.0000 O   0  0  0  0  0  0  0  0  0  0  0  0
    5.2816    8.6353    0.0000 O   0  0  0  0  0  0  0  0  0  0  0  0
   -9.9129    9.7841    0.0000 H   0  0  0  0  0  0  0  0  0  0  0  0
  -11.8474    8.0498    0.0000 H   0  0  0  0  0  0  0  0  0  0  0  0
   -8.4522    8.4216    0.0000 H   0  0  0  0  0  0  0  0  0  0  0  0
   -8.0554    6.5345    0.0000 H   0  0  0  0  0  0  0  0  0  0  0  0
  -11.1678    6.5231    0.0000 H   0  0  0  0  0  0  0  0  0  0  0  0
  -10.7709    4.6360    0.0000 H   0  0  0  0  0  0  0  0  0  0  0  0
  -10.2908    3.1899    0.0000 H   0  0  0  0  0  0  0  0  0  0  0  0
   -7.3829    3.3367    0.0000 H   0  0  0  0  0  0  0  0  0  0  0  0
  -11.0773    1.2371    0.0000 H   0  0  0  0  0  0  0  0  0  0  0  0
  -10.0580    2.2263    0.0000 H   0  0  0  0  0  0  0  0  0  0  0  0
   -8.8092   -1.4481    0.0000 H   0  0  0  0  0  0  0  0  0  0  0  0
   -8.5705    0.0679    0.0000 H   0  0  0  0  0  0  0  0  0  0  0  0
  -12.3020   -1.0542    0.0000 H   0  0  0  0  0  0  0  0  0  0  0  0
  -11.5318    0.3867    0.0000 H   0  0  0  0  0  0  0  0  0  0  0  0
  -10.1994   -3.8179    0.0000 H   0  0  0  0  0  0  0  0  0  0  0  0
   -9.2637   -2.2985    0.0000 H   0  0  0  0  0  0  0  0  0  0  0  0
  -11.9830   -4.7173    0.0000 H   0  0  0  0  0  0  0  0  0  0  0  0
  -13.5000   -3.5268    0.0000 H   0  0  0  0  0  0  0  0  0  0  0  0
  -12.7565   -1.9046    0.0000 H   0  0  0  0  0  0  0  0  0  0  0  0
   -7.6601   -0.3849    0.0000 H   0  0  0  0  0  0  0  0  0  0  0  0
   -5.1474    0.6689    0.0000 H   0  0  0  0  0  0  0  0  0  0  0  0
   -7.8139   -2.7288    0.0000 H   0  0  0  0  0  0  0  0  0  0  0  0
   -7.5571   -1.0488    0.0000 H   0  0  0  0  0  0  0  0  0  0  0  0
   -3.3122   -2.6198    0.0000 H   0  0  0  0  0  0  0  0  0  0  0  0
   -2.4524   -5.1446    0.0000 H   0  0  0  0  0  0  0  0  0  0  0  0
   -4.3045   -7.5046    0.0000 H   0  0  0  0  0  0  0  0  0  0  0  0
   -7.2744   -7.0807    0.0000 H   0  0  0  0  0  0  0  0  0  0  0  0
   -8.3922   -4.2967    0.0000 H   0  0  0  0  0  0  0  0  0  0  0  0
   -4.0822    1.4268    0.0000 H   0  0  0  0  0  0  0  0  0  0  0  0
   -3.4787    0.7721    0.0000 H   0  0  0  0  0  0  0  0  0  0  0  0
   -3.4921    2.0804    0.0000 H   0  0  0  0  0  0  0  0  0  0  0  0
   -3.5902    2.6975    0.0000 H   0  0  0  0  0  0  0  0  0  0  0  0
   -3.3325    3.8090    0.0000 H   0  0  0  0  0  0  0  0  0  0  0  0
   -3.1432    4.3875    0.0000 H   0  0  0  0  0  0  0  0  0  0  0  0
   -2.4034    5.6586    0.0000 H   0  0  0  0  0  0  0  0  0  0  0  0
   -1.8592    6.6291    0.0000 H   0  0  0  0  0  0  0  0  0  0  0  0
   -3.9915   -1.5684    0.0000 H   0  0  0  0  0  0  0  0  0  0  0  0
   -2.4804   -2.7664    0.0000 H   0  0  0  0  0  0  0  0  0  0  0  0
   -1.3149   -2.1573    0.0000 H   0  0  0  0  0  0  0  0  0  0  0  0
   -0.5100   -3.4954    0.0000 H   0  0  0  0  0  0  0  0  0  0  0  0
    0.4400   -3.6693    0.0000 H   0  0  0  0  0  0  0  0  0  0  0  0
    3.2170   -5.2410    0.0000 H   0  0  0  0  0  0  0  0  0  0  0  0
    3.5864   -3.8108    0.0000 H   0  0  0  0  0  0  0  0  0  0  0  0
   -0.1578   -6.0594    0.0000 H   0  0  0  0  0  0  0  0  0  0  0  0
    0.0745   -4.2902    0.0000 H   0  0  0  0  0  0  0  0  0  0  0  0
    2.5871   -7.9153    0.0000 H   0  0  0  0  0  0  0  0  0  0  0  0
    3.0333   -6.1876    0.0000 H   0  0  0  0  0  0  0  0  0  0  0  0
   -0.8135   -7.5965    0.0000 H   0  0  0  0  0  0  0  0  0  0  0  0
    0.6529  -11.8509    0.0000 H   0  0  0  0  0  0  0  0  0  0  0  0
   -1.3084  -10.1470    0.0000 H   0  0  0  0  0  0  0  0  0  0  0  0
    3.1092  -11.0042    0.0000 H   0  0  0  0  0  0  0  0  0  0  0  0
    3.6041   -8.4537    0.0000 H   0  0  0  0  0  0  0  0  0  0  0  0
    5.1344   -4.0158    0.0000 H   0  0  0  0  0  0  0  0  0  0  0  0
    5.8627   -3.3814    0.0000 H   0  0  0  0  0  0  0  0  0  0  0  0
    8.8229   -2.1902    0.0000 H   0  0  0  0  0  0  0  0  0  0  0  0
    7.9350   -1.0096    0.0000 H   0  0  0  0  0  0  0  0  0  0  0  0
    6.1202   -4.0542    0.0000 H   0  0  0  0  0  0  0  0  0  0  0  0
    9.4708   -5.7927    0.0000 H   0  0  0  0  0  0  0  0  0  0  0  0
   10.5210   -4.3501    0.0000 H   0  0  0  0  0  0  0  0  0  0  0  0
    9.4484   -2.9239    0.0000 H   0  0  0  0  0  0  0  0  0  0  0  0
    8.3901   -6.4280    0.0000 H   0  0  0  0  0  0  0  0  0  0  0  0
    6.6188   -6.6438    0.0000 H   0  0  0  0  0  0  0  0  0  0  0  0
    5.9451   -4.8370    0.0000 H   0  0  0  0  0  0  0  0  0  0  0  0
    8.9929   -0.0975    0.0000 H   0  0  0  0  0  0  0  0  0  0  0  0
    9.1297    1.1834    0.0000 H   0  0  0  0  0  0  0  0  0  0  0  0
   10.0836    3.9908    0.0000 H   0  0  0  0  0  0  0  0  0  0  0  0
    8.4563    4.1367    0.0000 H   0  0  0  0  0  0  0  0  0  0  0  0
    9.3619   -0.3370    0.0000 H   0  0  0  0  0  0  0  0  0  0  0  0
   11.9016   -1.6018    0.0000 H   0  0  0  0  0  0  0  0  0  0  0  0
   14.4492   -0.0175    0.0000 H   0  0  0  0  0  0  0  0  0  0  0  0
   14.3510    2.9809    0.0000 H   0  0  0  0  0  0  0  0  0  0  0  0
   11.7052    4.3950    0.0000 H   0  0  0  0  0  0  0  0  0  0  0  0
    8.3117    5.6915    0.0000 H   0  0  0  0  0  0  0  0  0  0  0  0
    4.4988    8.2320    0.0000 H   0  0  0  0  0  0  0  0  0  0  0  0
    5.7601    7.8844    0.0000 H   0  0  0  0  0  0  0  0  0  0  0  0
    2.7869    8.5199    0.0000 H   0  0  0  0  0  0  0  0  0  0  0  0
    3.9273    8.4847    0.0000 H   0  0  0  0  0  0  0  0  0  0  0  0
    0.7611    8.0948    0.0000 H   0  0  0  0  0  0  0  0  0  0  0  0
    2.1792    8.4848    0.0000 H   0  0  0  0  0  0  0  0  0  0  0  0
   -0.3163    7.8169    0.0000 H   0  0  0  0  0  0  0  0  0  0  0  0
    7.9852    7.8528    0.0000 H   0  0  0  0  0  0  0  0  0  0  0  0
    8.9853    6.3750    0.0000 H   0  0  0  0  0  0  0  0  0  0  0  0
    8.0387    5.0434    0.0000 H   0  0  0  0  0  0  0  0  0  0  0  0
  1  2  1  0
  2  3  1  0
  3  4  1  0
  4  5  2  0
  4  6  1  0
  6  7  1  0
  7  8  1  0
  8  9  1  0
  9 10  1  0
 10 11  1  0
 11 12  1  0
  7 13  1  0
 13 14  2  0
 13 15  1  0
 15 16  1  0
 16 17  1  0
 17 18  1  0
 18 19  2  0
 19 20  1  0
 20 21  2  0
 21 22  1  0
 22 23  2  0
 16 24  1  0
 24 25  2  0
 24 26  1  0
 27 26  1  1
 27 28  1  0
 28 29  1  0
 29 30  1  0
 30 31  1  0
 27 32  1  0
 27 33  1  0
 33 34  2  0
 33 35  1  0
 35 36  1  0
 36 37  1  0
 37 38  1  0
 38 39  1  0
 39 40  1  0
 40 41  1  0
 41 42  2  3
 41 43  1  0
 36 44  1  0
 44 45  2  0
 44 46  1  0
 46 47  1  0
 47 48  1  0
 48 49  1  0
 49 50  1  0
 49 51  1  0
 47 52  1  0
 52 53  2  0
 52 54  1  0
 54 55  1  0
 55 56  1  0
 56 57  1  0
 57 58  2  0
 58 59  1  0
 59 60  2  0
 60 61  1  0
 61 62  2  0
 55 63  1  0
 63 64  2  0
 63 65  1  0
 65 66  1  0
 66 67  1  0
 67 68  1  0
 68 69  1  0
 69 70  1  0
 66 71  1  0
 66 72  1  1
 72 73  2  0
 72 74  1  0
 23 18  1  0
 62 57  1  0
 31 70  2  0
  1 75  1  0
  1 76  1  0
  2 77  1  0
  2 78  1  0
  3 79  1  0
  3 80  1  0
  6 81  1  0
  7 82  1  6
  8 83  1  0
  8 84  1  0
  9 85  1  0
  9 86  1  0
 10 87  1  0
 10 88  1  0
 11 89  1  0
 11 90  1  0
 12 91  1  0
 12 92  1  0
 12 93  1  0
 15 94  1  0
 16 95  1  6
 17 96  1  0
 17 97  1  0
 19 98  1  0
 20 99  1  0
 21100  1  0
 22101  1  0
 23102  1  0
 26103  1  0
 28104  1  0
 28105  1  0
 29106  1  0
 29107  1  0
 30108  1  0
 30109  1  0
 31110  1  0
 32111  1  0
 32112  1  0
 32113  1  0
 35114  1  0
 36115  1  6
 37116  1  0
 37117  1  0
 38118  1  0
 38119  1  0
 39120  1  0
 39121  1  0
 40122  1  0
 42123  1  0
 42124  1  0
 43125  1  0
 43126  1  0
 46127  1  0
 47128  1  6
 48129  1  0
 48130  1  0
 49131  1  0
 50132  1  0
 50133  1  0
 50134  1  0
 51135  1  0
 51136  1  0
 51137  1  0
 54138  1  0
 55139  1  6
 56140  1  0
 56141  1  0
 58142  1  0
 59143  1  0
 60144  1  0
 61145  1  0
 62146  1  0
 65147  1  0
 67148  1  0
 67149  1  0
 68150  1  0
 68151  1  0
 69152  1  0
 69153  1  0
 70154  1  0
 71155  1  0
 71156  1  0
 71157  1  0
M  CHG  3  12   1  42   1  74  -1
M  END
