
     RDKit          2D

440446  0  0  0  0  0  0  0  0999 V2000
   25.9720    6.0877    0.0000 C   0  0  0  0  0  0  0  0  0  0  0  0
   25.5750    7.5342    0.0000 N   0  0  0  0  0  0  0  0  0  0  0  0
   26.6292    8.6013    0.0000 C   0  0  0  0  0  0  0  0  0  0  0  0
   28.0804    8.2219    0.0000 C   0  0  0  0  0  0  0  0  0  0  0  0
   29.1346    9.2890    0.0000 C   0  0  0  0  0  0  0  0  0  0  0  0
   28.7376   10.7355    0.0000 C   0  0  0  0  0  0  0  0  0  0  0  0
   27.2864   11.1149    0.0000 C   0  0  0  0  0  0  0  0  0  0  0  0
   26.2322   10.0478    0.0000 C   0  0  0  0  0  0  0  0  0  0  0  0
   27.1988   12.6123    0.0000 C   0  0  0  0  0  0  0  0  0  0  0  0
   28.5958   13.1584    0.0000 O   0  0  0  0  0  0  0  0  0  0  0  0
   29.5469   11.9984    0.0000 C   0  0  0  0  0  0  0  0  0  0  0  0
   31.0443   12.0860    0.0000 O   0  0  0  0  0  0  0  0  0  0  0  0
   27.2682   14.1107    0.0000 C   0  0  0  0  0  0  0  0  0  0  0  0
   26.0052   14.9200    0.0000 C   0  0  0  0  0  0  0  0  0  0  0  0
   26.0747   16.4184    0.0000 C   0  0  0  0  0  0  0  0  0  0  0  0
   27.4070   17.1075    0.0000 C   0  0  0  0  0  0  0  0  0  0  0  0
   28.6699   16.2982    0.0000 C   0  0  0  0  0  0  0  0  0  0  0  0
   28.6005   14.7998    0.0000 C   0  0  0  0  0  0  0  0  0  0  0  0
   27.4764   18.6059    0.0000 O   0  0  0  0  0  0  0  0  0  0  0  0
   24.6729   14.2310    0.0000 O   0  0  0  0  0  0  0  0  0  0  0  0
   24.6035   12.7326    0.0000 C   0  0  0  0  0  0  0  0  0  0  0  0
   25.8664   11.9233    0.0000 C   0  0  0  0  0  0  0  0  0  0  0  0
   25.2076   10.8025    0.0000 C   0  0  0  0  0  0  0  0  0  0  0  0
   24.4970   10.4350    0.0000 C   0  0  0  0  0  0  0  0  0  0  0  0
   23.8235   10.8667    0.0000 C   0  0  0  0  0  0  0  0  0  0  0  0
   23.8605   11.6658    0.0000 C   0  0  0  0  0  0  0  0  0  0  0  0
   21.8694    9.8560    0.0000 O   0  0  0  0  0  0  0  0  0  0  0  0
   27.4232    5.7083    0.0000 S   0  0  0  0  0  0  0  0  0  0  0  0
   24.9178    5.0207    0.0000 N   0  0  0  0  0  0  0  0  0  0  0  0
   25.3148    3.5742    0.0000 C   0  0  0  0  0  0  0  0  0  0  0  0
   24.2606    2.5071    0.0000 C   0  0  0  0  0  0  0  0  0  0  0  0
   24.6576    1.0606    0.0000 C   0  0  0  0  0  0  0  0  0  0  0  0
   25.4547    1.0515    0.0000 O   0  0  0  0  0  0  0  0  0  0  0  0
   23.6034   -0.0065    0.0000 N   0  0  0  0  0  0  0  0  0  0  0  0
   24.0004   -1.4530    0.0000 C   0  0  0  0  0  0  0  0  0  0  0  0
   25.3560   -0.8108    0.0000 C   0  0  0  0  0  0  0  0  0  0  0  0
   25.4777    0.6842    0.0000 C   0  0  0  0  0  0  0  0  0  0  0  0
   26.8332    1.3264    0.0000 C   0  0  0  0  0  0  0  0  0  0  0  0
   25.0806    2.1307    0.0000 C   0  0  0  0  0  0  0  0  0  0  0  0
   23.8787   -2.9481    0.0000 C   0  0  0  0  0  0  0  0  0  0  0  0
   25.2824   -3.4770    0.0000 O   0  0  0  0  0  0  0  0  0  0  0  0
   22.5231   -3.5902    0.0000 N   0  0  0  0  0  0  0  0  0  0  0  0
   22.4015   -5.0853    0.0000 C   0  0  0  0  0  0  0  0  0  0  0  0
   23.8949   -4.9455    0.0000 C   0  0  0  0  0  0  0  0  0  0  0  0
   24.5206   -3.5822    0.0000 C   0  0  0  0  0  0  0  0  0  0  0  0
   26.0141   -3.4424    0.0000 C   0  0  0  0  0  0  0  0  0  0  0  0
   24.6423   -2.0872    0.0000 C   0  0  0  0  0  0  0  0  0  0  0  0
   21.7758   -6.4486    0.0000 C   0  0  0  0  0  0  0  0  0  0  0  0
   22.9139   -7.4257    0.0000 O   0  0  0  0  0  0  0  0  0  0  0  0
   20.2823   -6.5884    0.0000 N   0  0  0  0  0  0  0  0  0  0  0  0
   19.6567   -7.9517    0.0000 C   0  0  0  0  0  0  0  0  0  0  0  0
   21.1079   -8.3311    0.0000 C   0  0  0  0  0  0  0  0  0  0  0  0
   22.1621   -7.2640    0.0000 C   0  0  0  0  0  0  0  0  0  0  0  0
   22.3418   -9.1840    0.0000 C   0  0  0  0  0  0  0  0  0  0  0  0
   23.6974   -8.5418    0.0000 C   0  0  0  0  0  0  0  0  0  0  0  0
   18.6025   -9.0187    0.0000 C   0  0  0  0  0  0  0  0  0  0  0  0
   19.3377  -10.3262    0.0000 O   0  0  0  0  0  0  0  0  0  0  0  0
   17.1512   -8.6393    0.0000 N   0  0  0  0  0  0  0  0  0  0  0  0
   16.0970   -9.7064    0.0000 C   0  0  0  0  0  0  0  0  0  0  0  0
   17.3310  -10.5593    0.0000 C   0  0  0  0  0  0  0  0  0  0  0  0
   18.6866   -9.9171    0.0000 C   0  0  0  0  0  0  0  0  0  0  0  0
   19.9205  -10.7700    0.0000 C   0  0  0  0  0  0  0  0  0  0  0  0
   19.7408   -8.8500    0.0000 C   0  0  0  0  0  0  0  0  0  0  0  0
   14.7415  -10.3485    0.0000 C   0  0  0  0  0  0  0  0  0  0  0  0
   14.9852  -11.8286    0.0000 O   0  0  0  0  0  0  0  0  0  0  0  0
   13.5075   -9.4957    0.0000 N   0  0  0  0  0  0  0  0  0  0  0  0
   12.1519  -10.1378    0.0000 C   0  0  0  0  0  0  0  0  0  0  0  0
   13.0197  -11.3613    0.0000 C   0  0  0  0  0  0  0  0  0  0  0  0
   14.5132  -11.2215    0.0000 C   0  0  0  0  0  0  0  0  0  0  0  0
   15.3810  -12.4450    0.0000 C   0  0  0  0  0  0  0  0  0  0  0  0
   16.8804  -12.4883    0.0000 N   0  0  0  0  0  0  0  0  0  0  0  0
   14.7554  -13.8083    0.0000 O   0  0  0  0  0  0  0  0  0  0  0  0
   10.6585  -10.2776    0.0000 C   0  0  0  0  0  0  0  0  0  0  0  0
   10.3813  -11.7518    0.0000 O   0  0  0  0  0  0  0  0  0  0  0  0
    9.7907   -9.0541    0.0000 N   0  0  0  0  0  0  0  0  0  0  0  0
    8.2972   -9.1939    0.0000 C   0  0  0  0  0  0  0  0  0  0  0  0
    8.6942  -10.6404    0.0000 C   0  0  0  0  0  0  0  0  0  0  0  0
   10.1454  -11.0199    0.0000 C   0  0  0  0  0  0  0  0  0  0  0  0
   10.5424  -12.4664    0.0000 C   0  0  0  0  0  0  0  0  0  0  0  0
   11.9366  -13.0199    0.0000 N   0  0  0  0  0  0  0  0  0  0  0  0
    9.4882  -13.5334    0.0000 O   0  0  0  0  0  0  0  0  0  0  0  0
    6.8460   -8.8145    0.0000 C   0  0  0  0  0  0  0  0  0  0  0  0
    5.9297  -10.0021    0.0000 O   0  0  0  0  0  0  0  0  0  0  0  0
    6.4490   -7.3680    0.0000 N   0  0  0  0  0  0  0  0  0  0  0  0
    4.9977   -6.9886    0.0000 C   0  0  0  0  0  0  0  0  0  0  0  0
    4.8761   -8.4836    0.0000 C   0  0  0  0  0  0  0  0  0  0  0  0
    3.7638   -6.1357    0.0000 C   0  0  0  0  0  0  0  0  0  0  0  0
    2.4966   -6.9383    0.0000 O   0  0  0  0  0  0  0  0  0  0  0  0
    3.8855   -4.6406    0.0000 N   0  0  0  0  0  0  0  0  0  0  0  0
    2.6516   -3.7877    0.0000 C   0  0  0  0  0  0  0  0  0  0  0  0
    2.0259   -5.1510    0.0000 C   0  0  0  0  0  0  0  0  0  0  0  0
    2.7381   -6.4711    0.0000 C   0  0  0  0  0  0  0  0  0  0  0  0
    1.7838   -2.5642    0.0000 C   0  0  0  0  0  0  0  0  0  0  0  0
    0.4396   -3.2301    0.0000 O   0  0  0  0  0  0  0  0  0  0  0  0
    2.4094   -1.2009    0.0000 N   0  0  0  0  0  0  0  0  0  0  0  0
    1.5416    0.0225    0.0000 C   0  0  0  0  0  0  0  0  0  0  0  0
    0.7833   -1.2717    0.0000 C   0  0  0  0  0  0  0  0  0  0  0  0
   -0.3228   -2.2849    0.0000 C   0  0  0  0  0  0  0  0  0  0  0  0
   -1.6784   -2.9270    0.0000 C   0  0  0  0  0  0  0  0  0  0  0  0
   -3.1630   -3.1411    0.0000 C   0  0  0  0  0  0  0  0  0  0  0  0
    3.0137    0.3103    0.0000 C   0  0  0  0  0  0  0  0  0  0  0  0
    1.8847    1.4828    0.0000 C   0  0  0  0  0  0  0  0  0  0  0  0
    3.3798    1.3611    0.0000 O   0  0  0  0  0  0  0  0  0  0  0  0
    1.7822    2.9793    0.0000 N   0  0  0  0  0  0  0  0  0  0  0  0
    1.2432    4.3790    0.0000 C   0  0  0  0  0  0  0  0  0  0  0  0
    1.9360    5.7094    0.0000 C   0  0  0  0  0  0  0  0  0  0  0  0
    3.4346    5.7746    0.0000 C   0  0  0  0  0  0  0  0  0  0  0  0
    0.3154    5.5578    0.0000 C   0  0  0  0  0  0  0  0  0  0  0  0
    1.3427    6.6508    0.0000 O   0  0  0  0  0  0  0  0  0  0  0  0
   -0.9185    6.4106    0.0000 N   0  0  0  0  0  0  0  0  0  0  0  0
   -2.3490    6.8619    0.0000 C   0  0  0  0  0  0  0  0  0  0  0  0
   -2.9571    8.2331    0.0000 C   0  0  0  0  0  0  0  0  0  0  0  0
   -1.9326    9.3287    0.0000 C   0  0  0  0  0  0  0  0  0  0  0  0
   -3.9976    9.3136    0.0000 C   0  0  0  0  0  0  0  0  0  0  0  0
   -3.5821   10.7549    0.0000 C   0  0  0  0  0  0  0  0  0  0  0  0
   -3.8489    6.8715    0.0000 C   0  0  0  0  0  0  0  0  0  0  0  0
   -4.2424    8.3190    0.0000 O   0  0  0  0  0  0  0  0  0  0  0  0
   -5.2851    6.4386    0.0000 N   0  0  0  0  0  0  0  0  0  0  0  0
   -6.5298    5.6016    0.0000 C   0  0  0  0  0  0  0  0  0  0  0  0
   -7.9811    5.9810    0.0000 C   0  0  0  0  0  0  0  0  0  0  0  0
   -8.3781    7.4275    0.0000 C   0  0  0  0  0  0  0  0  0  0  0  0
   -9.5969    8.3019    0.0000 C   0  0  0  0  0  0  0  0  0  0  0  0
   -7.8983    8.8487    0.0000 C   0  0  0  0  0  0  0  0  0  0  0  0
   -7.4726    4.4348    0.0000 C   0  0  0  0  0  0  0  0  0  0  0  0
   -8.4090    5.6066    0.0000 O   0  0  0  0  0  0  0  0  0  0  0  0
   -8.0295    3.0420    0.0000 N   0  0  0  0  0  0  0  0  0  0  0  0
   -8.1512    1.5470    0.0000 C   0  0  0  0  0  0  0  0  0  0  0  0
   -7.8267    0.0825    0.0000 C   0  0  0  0  0  0  0  0  0  0  0  0
   -7.0851   -1.2213    0.0000 C   0  0  0  0  0  0  0  0  0  0  0  0
   -5.9920   -2.2486    0.0000 C   0  0  0  0  0  0  0  0  0  0  0  0
   -4.6448   -2.9081    0.0000 C   0  0  0  0  0  0  0  0  0  0  0  0
   -8.1914    0.0475    0.0000 C   0  0  0  0  0  0  0  0  0  0  0  0
   -8.5146   -1.4172    0.0000 C   0  0  0  0  0  0  0  0  0  0  0  0
   -9.1092   -2.7943    0.0000 C   0  0  0  0  0  0  0  0  0  0  0  0
   -9.9537   -4.0340    0.0000 C   0  0  0  0  0  0  0  0  0  0  0  0
   -8.3955    3.0270    0.0000 C   0  0  0  0  0  0  0  0  0  0  0  0
   -6.9454    3.4108    0.0000 O   0  0  0  0  0  0  0  0  0  0  0  0
   -8.9155    4.4339    0.0000 N   0  0  0  0  0  0  0  0  0  0  0  0
   -9.6923    5.7171    0.0000 C   0  0  0  0  0  0  0  0  0  0  0  0
   -9.1417    7.1124    0.0000 C   0  0  0  0  0  0  0  0  0  0  0  0
  -10.0747    8.2869    0.0000 C   0  0  0  0  0  0  0  0  0  0  0  0
   -9.5241    9.6822    0.0000 C   0  0  0  0  0  0  0  0  0  0  0  0
  -11.2480    9.2214    0.0000 C   0  0  0  0  0  0  0  0  0  0  0  0
  -10.6980    6.8301    0.0000 C   0  0  0  0  0  0  0  0  0  0  0  0
  -10.3240    8.2827    0.0000 O   0  0  0  0  0  0  0  0  0  0  0  0
  -11.8961    7.7326    0.0000 N   0  0  0  0  0  0  0  0  0  0  0  0
  -13.2433    8.3920    0.0000 C   0  0  0  0  0  0  0  0  0  0  0  0
  -13.5345    9.8635    0.0000 C   0  0  0  0  0  0  0  0  0  0  0  0
  -12.4057   10.8514    0.0000 C   0  0  0  0  0  0  0  0  0  0  0  0
  -12.6969   12.3228    0.0000 C   0  0  0  0  0  0  0  0  0  0  0  0
  -11.5681   13.3107    0.0000 O   0  0  0  0  0  0  0  0  0  0  0  0
  -14.1168   12.8064    0.0000 O   0  0  0  0  0  0  0  0  0  0  0  0
  -14.6911    8.7846    0.0000 C   0  0  0  0  0  0  0  0  0  0  0  0
  -14.6200   10.2829    0.0000 O   0  0  0  0  0  0  0  0  0  0  0  0
  -16.1869    8.8961    0.0000 N   0  0  0  0  0  0  0  0  0  0  0  0
  -17.6768    8.7225    0.0000 C   0  0  0  0  0  0  0  0  0  0  0  0
  -18.7173    9.8030    0.0000 C   0  0  0  0  0  0  0  0  0  0  0  0
  -18.3018   11.2443    0.0000 C   0  0  0  0  0  0  0  0  0  0  0  0
  -19.3423   12.3247    0.0000 C   0  0  0  0  0  0  0  0  0  0  0  0
  -18.9268   13.7661    0.0000 N   0  0  0  0  0  0  0  0  0  0  0  0
  -20.7982   11.9639    0.0000 O   0  0  0  0  0  0  0  0  0  0  0  0
  -19.1070    8.2700    0.0000 C   0  0  0  0  0  0  0  0  0  0  0  0
  -19.8572    9.5689    0.0000 O   0  0  0  0  0  0  0  0  0  0  0  0
  -20.4256    7.5551    0.0000 N   0  0  0  0  0  0  0  0  0  0  0  0
  -21.5852    6.6036    0.0000 C   0  0  0  0  0  0  0  0  0  0  0  0
  -23.0446    6.9500    0.0000 C   0  0  0  0  0  0  0  0  0  0  0  0
  -23.4743    8.3871    0.0000 C   0  0  0  0  0  0  0  0  0  0  0  0
  -24.9338    8.7336    0.0000 C   0  0  0  0  0  0  0  0  0  0  0  0
  -25.3635   10.1707    0.0000 N   0  0  0  0  0  0  0  0  0  0  0  0
  -25.9635    7.6429    0.0000 O   0  0  0  0  0  0  0  0  0  0  0  0
  -22.5437    5.4497    0.0000 C   0  0  0  0  0  0  0  0  0  0  0  0
  -23.8771    6.1368    0.0000 O   0  0  0  0  0  0  0  0  0  0  0  0
  -23.2665    4.1354    0.0000 N   0  0  0  0  0  0  0  0  0  0  0  0
  -23.7275    2.7080    0.0000 C   0  0  0  0  0  0  0  0  0  0  0  0
  -25.1426    2.2104    0.0000 C   0  0  0  0  0  0  0  0  0  0  0  0
  -26.2810    3.1871    0.0000 C   0  0  0  0  0  0  0  0  0  0  0  0
  -23.9100    1.2191    0.0000 C   0  0  0  0  0  0  0  0  0  0  0  0
  -25.4032    1.0763    0.0000 O   0  0  0  0  0  0  0  0  0  0  0  0
  -23.8075   -0.2774    0.0000 N   0  0  0  0  0  0  0  0  0  0  0  0
  -23.4236   -1.7274    0.0000 C   0  0  0  0  0  0  0  0  0  0  0  0
  -24.3451   -2.9110    0.0000 C   0  0  0  0  0  0  0  0  0  0  0  0
  -25.8308   -2.7049    0.0000 C   0  0  0  0  0  0  0  0  0  0  0  0
  -26.7522   -3.8885    0.0000 C   0  0  0  0  0  0  0  0  0  0  0  0
  -28.2380   -3.6824    0.0000 N   0  0  0  0  0  0  0  0  0  0  0  0
  -29.1594   -4.8660    0.0000 C   0  0  0  0  0  0  0  0  0  0  0  0
  -30.6452   -4.6599    0.0000 N   0  0  0  0  0  0  0  0  0  0  0  0
  -28.5950   -6.2558    0.0000 N   0  0  0  0  0  0  0  0  0  0  0  0
  -22.7723   -3.0786    0.0000 C   0  0  0  0  0  0  0  0  0  0  0  0
  -23.9512   -4.0061    0.0000 O   0  0  0  0  0  0  0  0  0  0  0  0
  -21.8770   -4.2821    0.0000 N   0  0  0  0  0  0  0  0  0  0  0  0
  -20.7701   -5.2944    0.0000 C   0  0  0  0  0  0  0  0  0  0  0  0
  -19.4916   -6.0789    0.0000 C   0  0  0  0  0  0  0  0  0  0  0  0
  -18.0877   -6.6074    0.0000 C   0  0  0  0  0  0  0  0  0  0  0  0
  -16.6093   -6.8605    0.0000 C   0  0  0  0  0  0  0  0  0  0  0  0
  -15.1096   -6.8293    0.0000 C   0  0  0  0  0  0  0  0  0  0  0  0
  -13.6429   -6.5149    0.0000 C   0  0  0  0  0  0  0  0  0  0  0  0
  -12.2623   -5.9286    0.0000 C   0  0  0  0  0  0  0  0  0  0  0  0
  -11.0175   -5.0915    0.0000 C   0  0  0  0  0  0  0  0  0  0  0  0
  -22.1686   -5.8366    0.0000 C   0  0  0  0  0  0  0  0  0  0  0  0
  -20.9053   -6.7883    0.0000 C   0  0  0  0  0  0  0  0  0  0  0  0
  -19.9247   -7.9234    0.0000 O   0  0  0  0  0  0  0  0  0  0  0  0
  -22.2666   -7.4182    0.0000 N   0  0  0  0  0  0  0  0  0  0  0  0
  -22.4019   -8.9120    0.0000 C   0  0  0  0  0  0  0  0  0  0  0  0
  -22.0180  -10.3621    0.0000 C   0  0  0  0  0  0  0  0  0  0  0  0
  -23.0818  -11.4196    0.0000 C   0  0  0  0  0  0  0  0  0  0  0  0
  -22.6979  -12.8696    0.0000 C   0  0  0  0  0  0  0  0  0  0  0  0
  -23.7618  -13.9271    0.0000 N   0  0  0  0  0  0  0  0  0  0  0  0
  -23.3779  -15.3771    0.0000 C   0  0  0  0  0  0  0  0  0  0  0  0
  -24.4417  -16.4346    0.0000 N   0  0  0  0  0  0  0  0  0  0  0  0
  -21.9302  -15.7697    0.0000 N   0  0  0  0  0  0  0  0  0  0  0  0
  -23.7632   -9.5419    0.0000 C   0  0  0  0  0  0  0  0  0  0  0  0
  -24.0795  -11.0082    0.0000 O   0  0  0  0  0  0  0  0  0  0  0  0
  -24.9894   -8.6778    0.0000 O   0  0  0  0  0  0  0  0  0  0  0  0
   24.0883    7.7339    0.0000 H   0  0  0  0  0  0  0  0  0  0  0  0
   28.4774    6.7754    0.0000 H   0  0  0  0  0  0  0  0  0  0  0  0
   30.5858    8.9095    0.0000 H   0  0  0  0  0  0  0  0  0  0  0  0
   24.7322   10.0648    0.0000 H   0  0  0  0  0  0  0  0  0  0  0  0
   24.8117   17.2277    0.0000 H   0  0  0  0  0  0  0  0  0  0  0  0
   30.0023   16.9873    0.0000 H   0  0  0  0  0  0  0  0  0  0  0  0
   29.8635   13.9905    0.0000 H   0  0  0  0  0  0  0  0  0  0  0  0
   28.8088   19.2950    0.0000 H   0  0  0  0  0  0  0  0  0  0  0  0
   27.0599    9.6156    0.0000 H   0  0  0  0  0  0  0  0  0  0  0  0
   24.2131    8.2570    0.0000 H   0  0  0  0  0  0  0  0  0  0  0  0
   22.0082   12.8528    0.0000 H   0  0  0  0  0  0  0  0  0  0  0  0
   20.6064   10.6653    0.0000 H   0  0  0  0  0  0  0  0  0  0  0  0
   23.4666    5.4001    0.0000 H   0  0  0  0  0  0  0  0  0  0  0  0
   26.6704    4.2163    0.0000 H   0  0  0  0  0  0  0  0  0  0  0  0
   26.4528    2.5970    0.0000 H   0  0  0  0  0  0  0  0  0  0  0  0
   23.2501    3.6157    0.0000 H   0  0  0  0  0  0  0  0  0  0  0  0
   22.8368    2.0349    0.0000 H   0  0  0  0  0  0  0  0  0  0  0  0
   22.1522    0.3729    0.0000 H   0  0  0  0  0  0  0  0  0  0  0  0
   22.5010   -1.4097    0.0000 H   0  0  0  0  0  0  0  0  0  0  0  0
   26.8554   -0.8541    0.0000 H   0  0  0  0  0  0  0  0  0  0  0  0
   26.0912   -2.1183    0.0000 H   0  0  0  0  0  0  0  0  0  0  0  0
   23.9947    0.9099    0.0000 H   0  0  0  0  0  0  0  0  0  0  0  0
   27.3131    2.7476    0.0000 H   0  0  0  0  0  0  0  0  0  0  0  0
   28.3267    1.4662    0.0000 H   0  0  0  0  0  0  0  0  0  0  0  0
   27.4036   -0.0610    0.0000 H   0  0  0  0  0  0  0  0  0  0  0  0
   26.1348    3.1978    0.0000 H   0  0  0  0  0  0  0  0  0  0  0  0
   24.3684    3.4509    0.0000 H   0  0  0  0  0  0  0  0  0  0  0  0
   23.8134    1.3281    0.0000 H   0  0  0  0  0  0  0  0  0  0  0  0
   21.2892   -2.7373    0.0000 H   0  0  0  0  0  0  0  0  0  0  0  0
   20.9503   -4.7059    0.0000 H   0  0  0  0  0  0  0  0  0  0  0  0
   25.2891   -5.4990    0.0000 H   0  0  0  0  0  0  0  0  0  0  0  0
   23.7733   -6.4406    0.0000 H   0  0  0  0  0  0  0  0  0  0  0  0
   23.2043   -2.8629    0.0000 H   0  0  0  0  0  0  0  0  0  0  0  0
   26.9510   -2.2710    0.0000 H   0  0  0  0  0  0  0  0  0  0  0  0
   27.4653   -3.8218    0.0000 H   0  0  0  0  0  0  0  0  0  0  0  0
   26.0756   -4.9412    0.0000 H   0  0  0  0  0  0  0  0  0  0  0  0
   25.9979   -1.4450    0.0000 H   0  0  0  0  0  0  0  0  0  0  0  0
   24.6071   -0.5876    0.0000 H   0  0  0  0  0  0  0  0  0  0  0  0
   23.1770   -2.4080    0.0000 H   0  0  0  0  0  0  0  0  0  0  0  0
   19.4145   -5.3649    0.0000 H   0  0  0  0  0  0  0  0  0  0  0  0
   18.5359   -6.9547    0.0000 H   0  0  0  0  0  0  0  0  0  0  0  0
   20.8307   -9.8053    0.0000 H   0  0  0  0  0  0  0  0  0  0  0  0
   23.6487   -7.4637    0.0000 H   0  0  0  0  0  0  0  0  0  0  0  0
   22.7878   -5.9007    0.0000 H   0  0  0  0  0  0  0  0  0  0  0  0
   21.2079   -6.1124    0.0000 H   0  0  0  0  0  0  0  0  0  0  0  0
   23.2096  -10.4075    0.0000 H   0  0  0  0  0  0  0  0  0  0  0  0
   21.4255  -10.3716    0.0000 H   0  0  0  0  0  0  0  0  0  0  0  0
   24.9313   -9.3947    0.0000 H   0  0  0  0  0  0  0  0  0  0  0  0
   24.7516   -7.4747    0.0000 H   0  0  0  0  0  0  0  0  0  0  0  0
   23.3258   -7.0886    0.0000 H   0  0  0  0  0  0  0  0  0  0  0  0
   16.7542   -7.1928    0.0000 H   0  0  0  0  0  0  0  0  0  0  0  0
   15.2292   -8.4829    0.0000 H   0  0  0  0  0  0  0  0  0  0  0  0
   18.0432  -11.8794    0.0000 H   0  0  0  0  0  0  0  0  0  0  0  0
   16.4147  -11.7469    0.0000 H   0  0  0  0  0  0  0  0  0  0  0  0
   18.1406   -8.5200    0.0000 H   0  0  0  0  0  0  0  0  0  0  0  0
   21.4162  -10.6564    0.0000 H   0  0  0  0  0  0  0  0  0  0  0  0
   20.7883  -11.9935    0.0000 H   0  0  0  0  0  0  0  0  0  0  0  0
   19.0042  -11.9576    0.0000 H   0  0  0  0  0  0  0  0  0  0  0  0
   21.1920   -9.2295    0.0000 H   0  0  0  0  0  0  0  0  0  0  0  0
   20.6777   -7.6787    0.0000 H   0  0  0  0  0  0  0  0  0  0  0  0
   18.4121   -8.1539    0.0000 H   0  0  0  0  0  0  0  0  0  0  0  0
   13.6292   -8.0006    0.0000 H   0  0  0  0  0  0  0  0  0  0  0  0
   11.7549   -8.6913    0.0000 H   0  0  0  0  0  0  0  0  0  0  0  0
   13.4168  -12.8078    0.0000 H   0  0  0  0  0  0  0  0  0  0  0  0
   11.7525  -12.1639    0.0000 H   0  0  0  0  0  0  0  0  0  0  0  0
   15.8688  -10.5793    0.0000 H   0  0  0  0  0  0  0  0  0  0  0  0
   14.4780   -9.7219    0.0000 H   0  0  0  0  0  0  0  0  0  0  0  0
   17.7423  -13.5287    0.0000 H   0  0  0  0  0  0  0  0  0  0  0  0
   17.8559  -11.1378    0.0000 H   0  0  0  0  0  0  0  0  0  0  0  0
   10.4163   -7.6908    0.0000 H   0  0  0  0  0  0  0  0  0  0  0  0
    8.4189   -7.6989    0.0000 H   0  0  0  0  0  0  0  0  0  0  0  0
    8.5725  -12.1355    0.0000 H   0  0  0  0  0  0  0  0  0  0  0  0
    7.2007  -10.7802    0.0000 H   0  0  0  0  0  0  0  0  0  0  0  0
   11.6389  -10.8801    0.0000 H   0  0  0  0  0  0  0  0  0  0  0  0
   10.6252   -9.5987    0.0000 H   0  0  0  0  0  0  0  0  0  0  0  0
   12.3907  -14.2923    0.0000 H   0  0  0  0  0  0  0  0  0  0  0  0
   13.3152  -12.0845    0.0000 H   0  0  0  0  0  0  0  0  0  0  0  0
    7.5032   -6.3009    0.0000 H   0  0  0  0  0  0  0  0  0  0  0  0
    5.6234   -5.6253    0.0000 H   0  0  0  0  0  0  0  0  0  0  0  0
    5.9968   -9.4806    0.0000 H   0  0  0  0  0  0  0  0  0  0  0  0
    4.2504   -9.8469    0.0000 H   0  0  0  0  0  0  0  0  0  0  0  0
    3.4249   -8.1042    0.0000 H   0  0  0  0  0  0  0  0  0  0  0  0
    5.2411   -3.9984    0.0000 H   0  0  0  0  0  0  0  0  0  0  0  0
    3.7058   -2.7206    0.0000 H   0  0  0  0  0  0  0  0  0  0  0  0
    0.9717   -6.2181    0.0000 H   0  0  0  0  0  0  0  0  0  0  0  0
    0.7920   -4.2981    0.0000 H   0  0  0  0  0  0  0  0  0  0  0  0
    2.2680   -7.7378    0.0000 H   0  0  0  0  0  0  0  0  0  0  0  0
    4.1276   -7.2274    0.0000 H   0  0  0  0  0  0  0  0  0  0  0  0
    4.1935   -5.6347    0.0000 H   0  0  0  0  0  0  0  0  0  0  0  0
    3.9088   -1.2442    0.0000 H   0  0  0  0  0  0  0  0  0  0  0  0
    2.1921   -1.7868    0.0000 H   0  0  0  0  0  0  0  0  0  0  0  0
    1.0748   -2.7431    0.0000 H   0  0  0  0  0  0  0  0  0  0  0  0
    0.6165   -3.4544    0.0000 H   0  0  0  0  0  0  0  0  0  0  0  0
   -0.1124   -3.7700    0.0000 H   0  0  0  0  0  0  0  0  0  0  0  0
   -0.6624   -4.0306    0.0000 H   0  0  0  0  0  0  0  0  0  0  0  0
   -2.0938   -4.3683    0.0000 H   0  0  0  0  0  0  0  0  0  0  0  0
   -3.1726   -4.6411    0.0000 H   0  0  0  0  0  0  0  0  0  0  0  0
    4.1296   -0.6921    0.0000 H   0  0  0  0  0  0  0  0  0  0  0  0
    4.2987    1.0843    0.0000 H   0  0  0  0  0  0  0  0  0  0  0  0
    2.8294    1.7990    0.0000 H   0  0  0  0  0  0  0  0  0  0  0  0
    3.2467    3.3037    0.0000 H   0  0  0  0  0  0  0  0  0  0  0  0
    2.7193    4.1128    0.0000 H   0  0  0  0  0  0  0  0  0  0  0  0
    2.1320    7.1966    0.0000 H   0  0  0  0  0  0  0  0  0  0  0  0
    0.6572    6.4935    0.0000 H   0  0  0  0  0  0  0  0  0  0  0  0
    4.1274    7.1050    0.0000 H   0  0  0  0  0  0  0  0  0  0  0  0
    4.8651    5.3233    0.0000 H   0  0  0  0  0  0  0  0  0  0  0  0
    3.4213    4.2747    0.0000 H   0  0  0  0  0  0  0  0  0  0  0  0
   -0.2590    7.7579    0.0000 H   0  0  0  0  0  0  0  0  0  0  0  0
   -1.2204    7.8500    0.0000 H   0  0  0  0  0  0  0  0  0  0  0  0
   -4.3674    7.7222    0.0000 H   0  0  0  0  0  0  0  0  0  0  0  0
   -2.4950   10.8968    0.0000 H   0  0  0  0  0  0  0  0  0  0  0  0
   -0.8290   10.2824    0.0000 H   0  0  0  0  0  0  0  0  0  0  0  0
   -0.9093    8.4998    0.0000 H   0  0  0  0  0  0  0  0  0  0  0  0
   -5.3449    9.9731    0.0000 H   0  0  0  0  0  0  0  0  0  0  0  0
   -5.0222    8.2180    0.0000 H   0  0  0  0  0  0  0  0  0  0  0  0
   -4.6226   11.8354    0.0000 H   0  0  0  0  0  0  0  0  0  0  0  0
   -2.6987   11.9672    0.0000 H   0  0  0  0  0  0  0  0  0  0  0  0
   -2.1153   10.4410    0.0000 H   0  0  0  0  0  0  0  0  0  0  0  0
   -5.9273    7.7942    0.0000 H   0  0  0  0  0  0  0  0  0  0  0  0
   -6.5987    7.1000    0.0000 H   0  0  0  0  0  0  0  0  0  0  0  0
   -9.4804    6.0243    0.0000 H   0  0  0  0  0  0  0  0  0  0  0  0
   -8.6305    4.6289    0.0000 H   0  0  0  0  0  0  0  0  0  0  0  0
   -6.9128    7.7483    0.0000 H   0  0  0  0  0  0  0  0  0  0  0  0
  -10.3376    9.1696    0.0000 H   0  0  0  0  0  0  0  0  0  0  0  0
  -11.3228    7.6671    0.0000 H   0  0  0  0  0  0  0  0  0  0  0  0
  -10.6407    6.5710    0.0000 H   0  0  0  0  0  0  0  0  0  0  0  0
   -6.9008    9.5647    0.0000 H   0  0  0  0  0  0  0  0  0  0  0  0
   -8.4696   10.4286    0.0000 H   0  0  0  0  0  0  0  0  0  0  0  0
   -9.6406    9.5004    0.0000 H   0  0  0  0  0  0  0  0  0  0  0  0
   -9.4897    3.3852    0.0000 H   0  0  0  0  0  0  0  0  0  0  0  0
   -8.5558   -1.2284    0.0000 H   0  0  0  0  0  0  0  0  0  0  0  0
   -9.2951    0.3891    0.0000 H   0  0  0  0  0  0  0  0  0  0  0  0
   -7.3953   -2.6889    0.0000 H   0  0  0  0  0  0  0  0  0  0  0  0
   -8.4292   -1.8872    0.0000 H   0  0  0  0  0  0  0  0  0  0  0  0
   -6.0390   -3.7479    0.0000 H   0  0  0  0  0  0  0  0  0  0  0  0
   -7.0802   -3.2810    0.0000 H   0  0  0  0  0  0  0  0  0  0  0  0
   -5.0961   -4.3386    0.0000 H   0  0  0  0  0  0  0  0  0  0  0  0
   -6.8300    0.6774    0.0000 H   0  0  0  0  0  0  0  0  0  0  0  0
   -7.1458   -1.0280    0.0000 H   0  0  0  0  0  0  0  0  0  0  0  0
   -7.0261   -1.6023    0.0000 H   0  0  0  0  0  0  0  0  0  0  0  0
   -7.6915   -2.6712    0.0000 H   0  0  0  0  0  0  0  0  0  0  0  0
   -7.6826   -3.2577    0.0000 H   0  0  0  0  0  0  0  0  0  0  0  0
   -8.3735   -4.1015    0.0000 H   0  0  0  0  0  0  0  0  0  0  0  0
   -8.7999   -4.9925    0.0000 H   0  0  0  0  0  0  0  0  0  0  0  0
   -7.6537    5.2452    0.0000 H   0  0  0  0  0  0  0  0  0  0  0  0
   -8.2726    6.2013    0.0000 H   0  0  0  0  0  0  0  0  0  0  0  0
   -8.1471    8.2352    0.0000 H   0  0  0  0  0  0  0  0  0  0  0  0
   -7.9684    6.1779    0.0000 H   0  0  0  0  0  0  0  0  0  0  0  0
  -11.4057    7.5952    0.0000 H   0  0  0  0  0  0  0  0  0  0  0  0
  -10.1452   11.0475    0.0000 H   0  0  0  0  0  0  0  0  0  0  0  0
   -8.6738   10.9179    0.0000 H   0  0  0  0  0  0  0  0  0  0  0  0
   -8.0938    9.2303    0.0000 H   0  0  0  0  0  0  0  0  0  0  0  0
  -11.3462   10.6008    0.0000 H   0  0  0  0  0  0  0  0  0  0  0  0
  -12.8086    9.5782    0.0000 H   0  0  0  0  0  0  0  0  0  0  0  0
  -12.3674    7.9662    0.0000 H   0  0  0  0  0  0  0  0  0  0  0  0
  -11.1115    9.0110    0.0000 H   0  0  0  0  0  0  0  0  0  0  0  0
  -12.1745    9.4445    0.0000 H   0  0  0  0  0  0  0  0  0  0  0  0
  -14.1491   11.2318    0.0000 H   0  0  0  0  0  0  0  0  0  0  0  0
  -15.0227    9.6758    0.0000 H   0  0  0  0  0  0  0  0  0  0  0  0
  -11.1799   11.7159    0.0000 H   0  0  0  0  0  0  0  0  0  0  0  0
  -11.4782    9.6725    0.0000 H   0  0  0  0  0  0  0  0  0  0  0  0
  -14.4079   14.2779    0.0000 H   0  0  0  0  0  0  0  0  0  0  0  0
  -16.0351   10.3884    0.0000 H   0  0  0  0  0  0  0  0  0  0  0  0
  -17.0024   10.0623    0.0000 H   0  0  0  0  0  0  0  0  0  0  0  0
  -19.9741   10.6217    0.0000 H   0  0  0  0  0  0  0  0  0  0  0  0
  -19.8678    8.8405    0.0000 H   0  0  0  0  0  0  0  0  0  0  0  0
  -17.4184   12.4565    0.0000 H   0  0  0  0  0  0  0  0  0  0  0  0
  -16.8350   10.9304    0.0000 H   0  0  0  0  0  0  0  0  0  0  0  0
  -19.9672   14.8465    0.0000 H   0  0  0  0  0  0  0  0  0  0  0  0
  -17.4708   14.1269    0.0000 H   0  0  0  0  0  0  0  0  0  0  0  0
  -21.1047    8.8926    0.0000 H   0  0  0  0  0  0  0  0  0  0  0  0
  -21.7422    8.0953    0.0000 H   0  0  0  0  0  0  0  0  0  0  0  0
  -24.5446    6.9593    0.0000 H   0  0  0  0  0  0  0  0  0  0  0  0
  -23.4921    5.5183    0.0000 H   0  0  0  0  0  0  0  0  0  0  0  0
  -23.3866    9.8846    0.0000 H   0  0  0  0  0  0  0  0  0  0  0  0
  -22.0707    8.9161    0.0000 H   0  0  0  0  0  0  0  0  0  0  0  0
  -26.8229   10.5172    0.0000 H   0  0  0  0  0  0  0  0  0  0  0  0
  -24.3337   11.2614    0.0000 H   0  0  0  0  0  0  0  0  0  0  0  0
  -24.5609    4.8934    0.0000 H   0  0  0  0  0  0  0  0  0  0  0  0
  -24.6661    3.8781    0.0000 H   0  0  0  0  0  0  0  0  0  0  0  0
  -26.4094    1.4073    0.0000 H   0  0  0  0  0  0  0  0  0  0  0  0
  -24.7450    0.7641    0.0000 H   0  0  0  0  0  0  0  0  0  0  0  0
  -27.6961    2.6895    0.0000 H   0  0  0  0  0  0  0  0  0  0  0  0
  -27.0168    4.4942    0.0000 H   0  0  0  0  0  0  0  0  0  0  0  0
  -25.3862    4.3909    0.0000 H   0  0  0  0  0  0  0  0  0  0  0  0
  -25.3062   -0.3394    0.0000 H   0  0  0  0  0  0  0  0  0  0  0  0
  -24.8458   -1.2505    0.0000 H   0  0  0  0  0  0  0  0  0  0  0  0
  -24.8061   -4.3384    0.0000 H   0  0  0  0  0  0  0  0  0  0  0  0
  -23.2286   -3.9128    0.0000 H   0  0  0  0  0  0  0  0  0  0  0  0
  -27.1565   -2.0030    0.0000 H   0  0  0  0  0  0  0  0  0  0  0  0
  -25.7289   -1.2084    0.0000 H   0  0  0  0  0  0  0  0  0  0  0  0
  -27.2132   -5.3159    0.0000 H   0  0  0  0  0  0  0  0  0  0  0  0
  -25.5220   -4.7468    0.0000 H   0  0  0  0  0  0  0  0  0  0  0  0
  -28.8024   -2.2926    0.0000 H   0  0  0  0  0  0  0  0  0  0  0  0
  -31.5666   -5.8435    0.0000 H   0  0  0  0  0  0  0  0  0  0  0  0
  -29.5165   -7.4395    0.0000 H   0  0  0  0  0  0  0  0  0  0  0  0
  -27.1093   -6.4620    0.0000 H   0  0  0  0  0  0  0  0  0  0  0  0
  -23.1042   -5.1446    0.0000 H   0  0  0  0  0  0  0  0  0  0  0  0
  -19.3416   -7.5714    0.0000 H   0  0  0  0  0  0  0  0  0  0  0  0
  -20.5316   -7.1598    0.0000 H   0  0  0  0  0  0  0  0  0  0  0  0
  -17.8364   -8.0862    0.0000 H   0  0  0  0  0  0  0  0  0  0  0  0
  -18.9044   -7.8656    0.0000 H   0  0  0  0  0  0  0  0  0  0  0  0
  -16.0826   -8.2651    0.0000 H   0  0  0  0  0  0  0  0  0  0  0  0
  -17.3383   -8.1715    0.0000 H   0  0  0  0  0  0  0  0  0  0  0  0
  -14.3267   -8.1088    0.0000 H   0  0  0  0  0  0  0  0  0  0  0  0
  -15.5774   -8.2545    0.0000 H   0  0  0  0  0  0  0  0  0  0  0  0
  -12.6320   -7.6231    0.0000 H   0  0  0  0  0  0  0  0  0  0  0  0
  -13.8325   -8.0029    0.0000 H   0  0  0  0  0  0  0  0  0  0  0  0
  -10.9595   -6.6721    0.0000 H   0  0  0  0  0  0  0  0  0  0  0  0
  -12.1668   -7.4255    0.0000 H   0  0  0  0  0  0  0  0  0  0  0  0
  -10.0660   -6.2511    0.0000 H   0  0  0  0  0  0  0  0  0  0  0  0
  -22.7502   -7.2193    0.0000 H   0  0  0  0  0  0  0  0  0  0  0  0
  -23.6683   -5.8678    0.0000 H   0  0  0  0  0  0  0  0  0  0  0  0
  -22.8072   -4.4793    0.0000 H   0  0  0  0  0  0  0  0  0  0  0  0
  -23.5890   -6.7100    0.0000 H   0  0  0  0  0  0  0  0  0  0  0  0
  -20.9072   -8.7858    0.0000 H   0  0  0  0  0  0  0  0  0  0  0  0
  -21.0176  -11.4798    0.0000 H   0  0  0  0  0  0  0  0  0  0  0  0
  -20.6566   -9.7322    0.0000 H   0  0  0  0  0  0  0  0  0  0  0  0
  -24.4432  -12.0494    0.0000 H   0  0  0  0  0  0  0  0  0  0  0  0
  -24.3229  -10.5772    0.0000 H   0  0  0  0  0  0  0  0  0  0  0  0
  -21.8413  -14.1009    0.0000 H   0  0  0  0  0  0  0  0  0  0  0  0
  -21.2699  -12.4104    0.0000 H   0  0  0  0  0  0  0  0  0  0  0  0
  -25.2095  -13.5345    0.0000 H   0  0  0  0  0  0  0  0  0  0  0  0
  -24.0578  -17.8847    0.0000 H   0  0  0  0  0  0  0  0  0  0  0  0
  -21.5463  -17.2198    0.0000 H   0  0  0  0  0  0  0  0  0  0  0  0
  -20.8663  -14.7122    0.0000 H   0  0  0  0  0  0  0  0  0  0  0  0
  -26.3507   -9.3077    0.0000 H   0  0  0  0  0  0  0  0  0  0  0  0
  1  2  1  0
  2  3  1  0
  3  4  2  0
  4  5  1  0
  5  6  2  0
  6  7  1  0
  7  8  2  0
  7  9  1  0
  9 10  1  0
 10 11  1  0
 11 12  2  0
  9 13  1  0
 13 14  1  0
 14 15  2  0
 15 16  1  0
 16 17  2  0
 17 18  1  0
 16 19  1  0
 14 20  1  0
 20 21  1  0
 21 22  2  0
 22 23  1  0
 23 24  2  0
 24 25  1  0
 25 26  2  0
 25 27  1  0
  1 28  2  0
  1 29  1  0
 29 30  1  0
 30 31  1  0
 31 32  1  0
 32 33  2  0
 32 34  1  0
 34 35  1  0
 35 36  1  0
 36 37  1  0
 37 38  1  0
 37 39  1  0
 35 40  1  0
 40 41  2  0
 40 42  1  0
 42 43  1  0
 43 44  1  0
 44 45  1  0
 45 46  1  0
 45 47  1  0
 43 48  1  0
 48 49  2  0
 48 50  1  0
 50 51  1  0
 51 52  1  0
 52 53  1  0
 52 54  1  0
 54 55  1  0
 51 56  1  0
 56 57  2  0
 56 58  1  0
 58 59  1  0
 59 60  1  0
 60 61  1  0
 61 62  1  0
 61 63  1  0
 59 64  1  0
 64 65  2  0
 64 66  1  0
 66 67  1  0
 67 68  1  0
 68 69  1  0
 69 70  1  0
 70 71  1  0
 70 72  2  0
 67 73  1  0
 73 74  2  0
 73 75  1  0
 75 76  1  0
 76 77  1  0
 77 78  1  0
 78 79  1  0
 79 80  1  0
 79 81  2  0
 76 82  1  0
 82 83  2  0
 82 84  1  0
 84 85  1  0
 85 86  1  0
 85 87  1  0
 87 88  2  0
 87 89  1  0
 89 90  1  0
 90 91  1  0
 91 92  1  0
 90 93  1  0
 93 94  2  0
 93 95  1  0
 96 95  1  1
 96 97  1  0
 97 98  1  0
 98 99  1  0
 99100  1  0
 96101  1  0
 96102  1  0
102103  2  0
102104  1  0
104105  1  0
105106  1  0
106107  1  0
105108  1  0
108109  2  0
108110  1  0
110111  1  0
111112  1  0
112113  1  0
112114  1  0
114115  1  0
111116  1  0
116117  2  0
116118  1  0
118119  1  0
119120  1  0
120121  1  0
121122  1  0
121123  1  0
119124  1  0
124125  2  0
124126  1  0
126127  1  0
127128  1  0
128129  1  0
129130  1  0
130131  1  0
127132  1  0
132133  1  0
133134  1  0
134135  1  0
127136  1  0
136137  2  0
136138  1  0
138139  1  0
139140  1  0
140141  1  0
141142  1  0
141143  1  0
139144  1  0
144145  2  0
144146  1  0
146147  1  0
147148  1  0
148149  1  0
149150  1  0
150151  2  0
150152  1  0
147153  1  0
153154  2  0
153155  1  0
155156  1  0
156157  1  0
157158  1  0
158159  1  0
159160  1  0
159161  2  0
156162  1  0
162163  2  0
162164  1  0
164165  1  0
165166  1  0
166167  1  0
167168  1  0
168169  1  0
168170  2  0
165171  1  0
171172  2  0
171173  1  0
173174  1  0
174175  1  0
175176  1  0
174177  1  0
177178  2  0
177179  1  0
179180  1  0
180181  1  0
181182  1  0
182183  1  0
183184  1  0
184185  1  0
185186  2  3
185187  1  0
180188  1  0
188189  2  0
188190  1  0
190191  1  0
191192  1  0
192193  1  0
193194  1  0
194195  1  0
195196  1  0
196197  1  0
197198  1  0
191199  1  0
191200  1  1
200201  2  0
200202  1  0
202203  1  0
203204  1  0
204205  1  0
205206  1  0
206207  1  0
207208  1  0
208209  2  3
208210  1  0
203211  1  0
211212  2  0
211213  1  0
  8  3  1  0
 11  6  1  0
100131  2  0
 18 13  2  0
135198  2  0
 22  9  1  0
 26 21  1  0
  2214  1  0
  4215  1  0
  5216  1  0
  8217  1  0
 15218  1  0
 17219  1  0
 18220  1  0
 19221  1  0
 23222  1  0
 24223  1  0
 26224  1  0
 27225  1  0
 29226  1  0
 30227  1  0
 30228  1  0
 31229  1  0
 31230  1  0
 34231  1  0
 35232  1  1
 36233  1  0
 36234  1  0
 37235  1  0
 38236  1  0
 38237  1  0
 38238  1  0
 39239  1  0
 39240  1  0
 39241  1  0
 42242  1  0
 43243  1  1
 44244  1  0
 44245  1  0
 45246  1  0
 46247  1  0
 46248  1  0
 46249  1  0
 47250  1  0
 47251  1  0
 47252  1  0
 50253  1  0
 51254  1  1
 52255  1  6
 53256  1  0
 53257  1  0
 53258  1  0
 54259  1  0
 54260  1  0
 55261  1  0
 55262  1  0
 55263  1  0
 58264  1  0
 59265  1  1
 60266  1  0
 60267  1  0
 61268  1  0
 62269  1  0
 62270  1  0
 62271  1  0
 63272  1  0
 63273  1  0
 63274  1  0
 66275  1  0
 67276  1  1
 68277  1  0
 68278  1  0
 69279  1  0
 69280  1  0
 71281  1  0
 71282  1  0
 75283  1  0
 76284  1  1
 77285  1  0
 77286  1  0
 78287  1  0
 78288  1  0
 80289  1  0
 80290  1  0
 84291  1  0
 85292  1  1
 86293  1  0
 86294  1  0
 86295  1  0
 89296  1  0
 90297  1  1
 91298  1  0
 91299  1  0
 92300  1  0
 92301  1  0
 92302  1  0
 95303  1  0
 97304  1  0
 97305  1  0
 98306  1  0
 98307  1  0
 99308  1  0
 99309  1  0
100310  1  0
101311  1  0
101312  1  0
101313  1  0
104314  1  0
105315  1  6
106316  1  0
106317  1  0
107318  1  0
107319  1  0
107320  1  0
110321  1  0
111322  1  6
112323  1  1
113324  1  0
113325  1  0
113326  1  0
114327  1  0
114328  1  0
115329  1  0
115330  1  0
115331  1  0
118332  1  0
119333  1  6
120334  1  0
120335  1  0
121336  1  0
122337  1  0
122338  1  0
122339  1  0
123340  1  0
123341  1  0
123342  1  0
126343  1  0
128344  1  0
128345  1  0
129346  1  0
129347  1  0
130348  1  0
130349  1  0
131350  1  0
132351  1  0
132352  1  0
133353  1  0
133354  1  0
134355  1  0
134356  1  0
135357  1  0
138358  1  0
139359  1  6
140360  1  0
140361  1  0
141362  1  0
142363  1  0
142364  1  0
142365  1  0
143366  1  0
143367  1  0
143368  1  0
146369  1  0
147370  1  6
148371  1  0
148372  1  0
149373  1  0
149374  1  0
152375  1  0
155376  1  0
156377  1  6
157378  1  0
157379  1  0
158380  1  0
158381  1  0
160382  1  0
160383  1  0
164384  1  0
165385  1  6
166386  1  0
166387  1  0
167388  1  0
167389  1  0
169390  1  0
169391  1  0
173392  1  0
174393  1  6
175394  1  0
175395  1  0
176396  1  0
176397  1  0
176398  1  0
179399  1  0
180400  1  6
181401  1  0
181402  1  0
182403  1  0
182404  1  0
183405  1  0
183406  1  0
184407  1  0
186408  1  0
187409  1  0
187410  1  0
190411  1  0
192412  1  0
192413  1  0
193414  1  0
193415  1  0
194416  1  0
194417  1  0
195418  1  0
195419  1  0
196420  1  0
196421  1  0
197422  1  0
197423  1  0
198424  1  0
199425  1  0
199426  1  0
199427  1  0
202428  1  0
203429  1  1
204430  1  0
204431  1  0
205432  1  0
205433  1  0
206434  1  0
206435  1  0
207436  1  0
209437  1  0
210438  1  0
210439  1  0
213440  1  0
M  END
