
     RDKit          2D

455461  0  0  0  0  0  0  0  0999 V2000
  -48.0932   -4.4976    0.0000 C   0  0  0  0  0  0  0  0  0  0  0  0
  -49.1919   -5.5188    0.0000 N   0  0  0  0  0  0  0  0  0  0  0  0
  -50.6257   -5.0778    0.0000 C   0  0  0  0  0  0  0  0  0  0  0  0
  -50.9607   -3.6157    0.0000 C   0  0  0  0  0  0  0  0  0  0  0  0
  -52.3944   -3.1748    0.0000 C   0  0  0  0  0  0  0  0  0  0  0  0
  -53.4931   -4.1960    0.0000 C   0  0  0  0  0  0  0  0  0  0  0  0
  -53.1581   -5.6581    0.0000 C   0  0  0  0  0  0  0  0  0  0  0  0
  -51.7244   -6.0990    0.0000 C   0  0  0  0  0  0  0  0  0  0  0  0
  -54.4451   -6.4285    0.0000 C   0  0  0  0  0  0  0  0  0  0  0  0
  -55.5756   -5.4425    0.0000 O   0  0  0  0  0  0  0  0  0  0  0  0
  -54.9872   -4.0628    0.0000 C   0  0  0  0  0  0  0  0  0  0  0  0
  -55.7576   -2.7757    0.0000 O   0  0  0  0  0  0  0  0  0  0  0  0
  -55.8056   -7.0602    0.0000 C   0  0  0  0  0  0  0  0  0  0  0  0
  -55.9389   -8.5543    0.0000 C   0  0  0  0  0  0  0  0  0  0  0  0
  -57.2994   -9.1859    0.0000 C   0  0  0  0  0  0  0  0  0  0  0  0
  -58.5267   -8.3235    0.0000 C   0  0  0  0  0  0  0  0  0  0  0  0
  -58.3935   -6.8295    0.0000 C   0  0  0  0  0  0  0  0  0  0  0  0
  -57.0330   -6.1978    0.0000 C   0  0  0  0  0  0  0  0  0  0  0  0
  -59.8872   -8.9552    0.0000 O   0  0  0  0  0  0  0  0  0  0  0  0
  -54.7116   -9.4167    0.0000 O   0  0  0  0  0  0  0  0  0  0  0  0
  -53.3510   -8.7850    0.0000 C   0  0  0  0  0  0  0  0  0  0  0  0
  -53.2178   -7.2909    0.0000 C   0  0  0  0  0  0  0  0  0  0  0  0
  -51.9195   -7.3565    0.0000 C   0  0  0  0  0  0  0  0  0  0  0  0
  -51.2649   -7.8164    0.0000 C   0  0  0  0  0  0  0  0  0  0  0  0
  -51.3360   -8.6133    0.0000 C   0  0  0  0  0  0  0  0  0  0  0  0
  -52.0616   -8.9501    0.0000 C   0  0  0  0  0  0  0  0  0  0  0  0
  -49.5359   -9.8781    0.0000 O   0  0  0  0  0  0  0  0  0  0  0  0
  -48.4282   -3.0355    0.0000 S   0  0  0  0  0  0  0  0  0  0  0  0
  -46.6595   -4.9385    0.0000 N   0  0  0  0  0  0  0  0  0  0  0  0
  -45.5608   -3.9174    0.0000 C   0  0  0  0  0  0  0  0  0  0  0  0
  -44.1270   -4.3583    0.0000 C   0  0  0  0  0  0  0  0  0  0  0  0
  -43.0283   -3.3371    0.0000 C   0  0  0  0  0  0  0  0  0  0  0  0
  -43.3633   -1.8750    0.0000 O   0  0  0  0  0  0  0  0  0  0  0  0
  -41.5946   -3.7780    0.0000 N   0  0  0  0  0  0  0  0  0  0  0  0
  -40.4958   -2.7569    0.0000 C   0  0  0  0  0  0  0  0  0  0  0  0
  -39.8126   -1.4215    0.0000 C   0  0  0  0  0  0  0  0  0  0  0  0
  -38.4414   -0.8135    0.0000 O   0  0  0  0  0  0  0  0  0  0  0  0
  -39.0621   -3.1978    0.0000 C   0  0  0  0  0  0  0  0  0  0  0  0
  -38.7271   -4.6599    0.0000 O   0  0  0  0  0  0  0  0  0  0  0  0
  -37.9634   -2.1766    0.0000 N   0  0  0  0  0  0  0  0  0  0  0  0
  -36.5297   -2.6176    0.0000 C   0  0  0  0  0  0  0  0  0  0  0  0
  -35.3332   -3.5223    0.0000 C   0  0  0  0  0  0  0  0  0  0  0  0
  -35.5185   -5.0108    0.0000 C   0  0  0  0  0  0  0  0  0  0  0  0
  -34.3220   -5.9155    0.0000 C   0  0  0  0  0  0  0  0  0  0  0  0
  -34.5073   -7.4040    0.0000 O   0  0  0  0  0  0  0  0  0  0  0  0
  -32.9403   -5.3317    0.0000 O   0  0  0  0  0  0  0  0  0  0  0  0
  -35.4309   -1.5964    0.0000 C   0  0  0  0  0  0  0  0  0  0  0  0
  -35.7659   -0.1343    0.0000 O   0  0  0  0  0  0  0  0  0  0  0  0
  -33.9972   -2.0373    0.0000 N   0  0  0  0  0  0  0  0  0  0  0  0
  -32.8985   -1.0161    0.0000 C   0  0  0  0  0  0  0  0  0  0  0  0
  -32.2153    0.3192    0.0000 C   0  0  0  0  0  0  0  0  0  0  0  0
  -30.7172    0.3953    0.0000 C   0  0  0  0  0  0  0  0  0  0  0  0
  -30.0340    1.7306    0.0000 C   0  0  0  0  0  0  0  0  0  0  0  0
  -28.8371    1.9397    0.0000 O   0  0  0  0  0  0  0  0  0  0  0  0
  -30.8489    2.9900    0.0000 O   0  0  0  0  0  0  0  0  0  0  0  0
  -31.4648   -1.4571    0.0000 C   0  0  0  0  0  0  0  0  0  0  0  0
  -31.1298   -2.9192    0.0000 O   0  0  0  0  0  0  0  0  0  0  0  0
  -30.3660   -0.4359    0.0000 N   0  0  0  0  0  0  0  0  0  0  0  0
  -28.9323   -0.8768    0.0000 C   0  0  0  0  0  0  0  0  0  0  0  0
  -27.7359   -1.7815    0.0000 C   0  0  0  0  0  0  0  0  0  0  0  0
  -27.9211   -3.2700    0.0000 C   0  0  0  0  0  0  0  0  0  0  0  0
  -26.7247   -4.1747    0.0000 C   0  0  0  0  0  0  0  0  0  0  0  0
  -28.6043   -4.6054    0.0000 C   0  0  0  0  0  0  0  0  0  0  0  0
  -27.8336    0.1444    0.0000 C   0  0  0  0  0  0  0  0  0  0  0  0
  -27.9585    1.3529    0.0000 O   0  0  0  0  0  0  0  0  0  0  0  0
  -26.3999   -0.2966    0.0000 N   0  0  0  0  0  0  0  0  0  0  0  0
  -25.3011    0.7246    0.0000 C   0  0  0  0  0  0  0  0  0  0  0  0
  -24.6179    2.0600    0.0000 C   0  0  0  0  0  0  0  0  0  0  0  0
  -23.1403    2.3180    0.0000 C   0  0  0  0  0  0  0  0  0  0  0  0
  -23.8674    0.2837    0.0000 C   0  0  0  0  0  0  0  0  0  0  0  0
  -23.5324   -1.1784    0.0000 O   0  0  0  0  0  0  0  0  0  0  0  0
  -22.7687    1.3048    0.0000 N   0  0  0  0  0  0  0  0  0  0  0  0
  -21.3349    0.8639    0.0000 C   0  0  0  0  0  0  0  0  0  0  0  0
  -20.1385   -0.0408    0.0000 C   0  0  0  0  0  0  0  0  0  0  0  0
  -20.2362    1.8851    0.0000 C   0  0  0  0  0  0  0  0  0  0  0  0
  -20.5712    3.3472    0.0000 O   0  0  0  0  0  0  0  0  0  0  0  0
  -18.8025    1.4442    0.0000 N   0  0  0  0  0  0  0  0  0  0  0  0
  -17.7038    2.4653    0.0000 C   0  0  0  0  0  0  0  0  0  0  0  0
  -17.0206    3.8007    0.0000 C   0  0  0  0  0  0  0  0  0  0  0  0
  -15.5225    3.8767    0.0000 C   0  0  0  0  0  0  0  0  0  0  0  0
  -14.8393    5.2121    0.0000 C   0  0  0  0  0  0  0  0  0  0  0  0
  -13.6424    5.4211    0.0000 O   0  0  0  0  0  0  0  0  0  0  0  0
  -15.6542    6.4715    0.0000 O   0  0  0  0  0  0  0  0  0  0  0  0
  -16.2700    2.0244    0.0000 C   0  0  0  0  0  0  0  0  0  0  0  0
  -15.9350    0.5623    0.0000 O   0  0  0  0  0  0  0  0  0  0  0  0
  -15.1713    3.0456    0.0000 N   0  0  0  0  0  0  0  0  0  0  0  0
  -13.7376    2.6046    0.0000 C   0  0  0  0  0  0  0  0  0  0  0  0
  -12.5411    1.6999    0.0000 C   0  0  0  0  0  0  0  0  0  0  0  0
  -12.6389    3.6258    0.0000 C   0  0  0  0  0  0  0  0  0  0  0  0
  -12.7638    4.8344    0.0000 O   0  0  0  0  0  0  0  0  0  0  0  0
  -11.2051    3.1849    0.0000 N   0  0  0  0  0  0  0  0  0  0  0  0
  -10.1064    4.2061    0.0000 C   0  0  0  0  0  0  0  0  0  0  0  0
   -9.4232    5.5414    0.0000 C   0  0  0  0  0  0  0  0  0  0  0  0
   -7.9251    5.6175    0.0000 C   0  0  0  0  0  0  0  0  0  0  0  0
   -7.1061    6.8741    0.0000 C   0  0  0  0  0  0  0  0  0  0  0  0
   -5.6579    6.4835    0.0000 N   0  0  0  0  0  0  0  0  0  0  0  0
   -5.5818    4.9854    0.0000 C   0  0  0  0  0  0  0  0  0  0  0  0
   -6.9831    4.4502    0.0000 N   0  0  0  0  0  0  0  0  0  0  0  0
   -8.6727    3.7651    0.0000 C   0  0  0  0  0  0  0  0  0  0  0  0
   -8.5184    2.2731    0.0000 O   0  0  0  0  0  0  0  0  0  0  0  0
   -7.5740    4.7863    0.0000 N   0  0  0  0  0  0  0  0  0  0  0  0
   -6.1402    4.3454    0.0000 C   0  0  0  0  0  0  0  0  0  0  0  0
   -5.5222    2.9786    0.0000 C   0  0  0  0  0  0  0  0  0  0  0  0
   -4.5287    1.8548    0.0000 C   0  0  0  0  0  0  0  0  0  0  0  0
   -3.2481    1.0737    0.0000 C   0  0  0  0  0  0  0  0  0  0  0  0
   -1.7942    0.7048    0.0000 C   0  0  0  0  0  0  0  0  0  0  0  0
   -7.2616    3.3491    0.0000 C   0  0  0  0  0  0  0  0  0  0  0  0
   -6.3280    5.8336    0.0000 C   0  0  0  0  0  0  0  0  0  0  0  0
   -7.7150    6.4048    0.0000 O   0  0  0  0  0  0  0  0  0  0  0  0
   -6.0688    7.3110    0.0000 N   0  0  0  0  0  0  0  0  0  0  0  0
   -5.3856    8.6464    0.0000 C   0  0  0  0  0  0  0  0  0  0  0  0
   -5.9347   10.0422    0.0000 C   0  0  0  0  0  0  0  0  0  0  0  0
   -5.0005   11.2158    0.0000 C   0  0  0  0  0  0  0  0  0  0  0  0
   -5.5497   12.6116    0.0000 C   0  0  0  0  0  0  0  0  0  0  0  0
   -3.8262   12.1491    0.0000 C   0  0  0  0  0  0  0  0  0  0  0  0
   -4.3391    9.7211    0.0000 C   0  0  0  0  0  0  0  0  0  0  0  0
   -4.9297   11.0999    0.0000 O   0  0  0  0  0  0  0  0  0  0  0  0
   -3.0224   10.4395    0.0000 N   0  0  0  0  0  0  0  0  0  0  0  0
   -1.5524   10.7380    0.0000 C   0  0  0  0  0  0  0  0  0  0  0  0
   -0.8034   12.0377    0.0000 C   0  0  0  0  0  0  0  0  0  0  0  0
   -1.5545   13.3361    0.0000 S   0  0  0  0  0  0  0  0  0  0  0  0
   -0.0597   10.5899    0.0000 C   0  0  0  0  0  0  0  0  0  0  0  0
    0.3092   12.0438    0.0000 O   0  0  0  0  0  0  0  0  0  0  0  0
    1.3230   10.0084    0.0000 N   0  0  0  0  0  0  0  0  0  0  0  0
    2.4729    9.0452    0.0000 C   0  0  0  0  0  0  0  0  0  0  0  0
    3.9559    9.2700    0.0000 C   0  0  0  0  0  0  0  0  0  0  0  0
    5.4265    8.9740    0.0000 O   0  0  0  0  0  0  0  0  0  0  0  0
    4.5028   10.6667    0.0000 C   0  0  0  0  0  0  0  0  0  0  0  0
    3.2878    7.7858    0.0000 C   0  0  0  0  0  0  0  0  0  0  0  0
    4.6545    8.4039    0.0000 O   0  0  0  0  0  0  0  0  0  0  0  0
    3.6952    6.3422    0.0000 N   0  0  0  0  0  0  0  0  0  0  0  0
    3.6591    4.8427    0.0000 C   0  0  0  0  0  0  0  0  0  0  0  0
    3.1825    3.4204    0.0000 C   0  0  0  0  0  0  0  0  0  0  0  0
    2.3079    2.2017    0.0000 C   0  0  0  0  0  0  0  0  0  0  0  0
    1.1130    1.2950    0.0000 C   0  0  0  0  0  0  0  0  0  0  0  0
   -0.2961    0.7808    0.0000 C   0  0  0  0  0  0  0  0  0  0  0  0
    5.0408    5.4265    0.0000 C   0  0  0  0  0  0  0  0  0  0  0  0
    4.7595    3.8233    0.0000 C   0  0  0  0  0  0  0  0  0  0  0  0
    4.7908    2.3236    0.0000 O   0  0  0  0  0  0  0  0  0  0  0  0
    6.1925    4.2666    0.0000 N   0  0  0  0  0  0  0  0  0  0  0  0
    7.2929    3.2473    0.0000 C   0  0  0  0  0  0  0  0  0  0  0  0
    7.9784    1.9131    0.0000 C   0  0  0  0  0  0  0  0  0  0  0  0
    7.1656    0.6524    0.0000 C   0  0  0  0  0  0  0  0  0  0  0  0
    7.8510   -0.6819    0.0000 C   0  0  0  0  0  0  0  0  0  0  0  0
    5.9707   -0.2544    0.0000 C   0  0  0  0  0  0  0  0  0  0  0  0
    8.7259    3.6906    0.0000 C   0  0  0  0  0  0  0  0  0  0  0  0
    9.0585    5.1533    0.0000 O   0  0  0  0  0  0  0  0  0  0  0  0
    9.8264    2.6713    0.0000 N   0  0  0  0  0  0  0  0  0  0  0  0
   11.2593    3.1146    0.0000 C   0  0  0  0  0  0  0  0  0  0  0  0
   12.4543    4.0213    0.0000 C   0  0  0  0  0  0  0  0  0  0  0  0
   13.8370    3.4398    0.0000 C   0  0  0  0  0  0  0  0  0  0  0  0
   15.0319    4.3465    0.0000 C   0  0  0  0  0  0  0  0  0  0  0  0
   16.4752    3.9379    0.0000 O   0  0  0  0  0  0  0  0  0  0  0  0
   14.8442    5.8347    0.0000 O   0  0  0  0  0  0  0  0  0  0  0  0
   12.3598    2.0953    0.0000 C   0  0  0  0  0  0  0  0  0  0  0  0
   12.0272    0.6326    0.0000 O   0  0  0  0  0  0  0  0  0  0  0  0
   13.7928    2.5386    0.0000 N   0  0  0  0  0  0  0  0  0  0  0  0
   14.8932    1.5193    0.0000 C   0  0  0  0  0  0  0  0  0  0  0  0
   15.5786    0.1850    0.0000 C   0  0  0  0  0  0  0  0  0  0  0  0
   14.7659   -1.0757    0.0000 C   0  0  0  0  0  0  0  0  0  0  0  0
   15.4513   -2.4099    0.0000 N   0  0  0  0  0  0  0  0  0  0  0  0
   13.2677   -1.0022    0.0000 O   0  0  0  0  0  0  0  0  0  0  0  0
   16.3262    1.9626    0.0000 C   0  0  0  0  0  0  0  0  0  0  0  0
   16.8346    3.3738    0.0000 O   0  0  0  0  0  0  0  0  0  0  0  0
   17.4266    0.9433    0.0000 N   0  0  0  0  0  0  0  0  0  0  0  0
   18.8596    1.3866    0.0000 C   0  0  0  0  0  0  0  0  0  0  0  0
   20.0545    2.2933    0.0000 C   0  0  0  0  0  0  0  0  0  0  0  0
   19.9600    0.3673    0.0000 C   0  0  0  0  0  0  0  0  0  0  0  0
   19.6275   -1.0954    0.0000 O   0  0  0  0  0  0  0  0  0  0  0  0
   21.3930    0.8106    0.0000 N   0  0  0  0  0  0  0  0  0  0  0  0
   22.4935   -0.2087    0.0000 C   0  0  0  0  0  0  0  0  0  0  0  0
   23.1789   -1.5430    0.0000 C   0  0  0  0  0  0  0  0  0  0  0  0
   22.2185   -2.6952    0.0000 C   0  0  0  0  0  0  0  0  0  0  0  0
   24.2793   -2.5623    0.0000 C   0  0  0  0  0  0  0  0  0  0  0  0
   23.9468   -4.0250    0.0000 C   0  0  0  0  0  0  0  0  0  0  0  0
   23.9264    0.2346    0.0000 C   0  0  0  0  0  0  0  0  0  0  0  0
   24.2590    1.6973    0.0000 O   0  0  0  0  0  0  0  0  0  0  0  0
   25.0269   -0.7847    0.0000 N   0  0  0  0  0  0  0  0  0  0  0  0
   26.4599   -0.3414    0.0000 C   0  0  0  0  0  0  0  0  0  0  0  0
   27.6548    0.5653    0.0000 C   0  0  0  0  0  0  0  0  0  0  0  0
   29.0375   -0.0162    0.0000 C   0  0  0  0  0  0  0  0  0  0  0  0
   30.2324    0.8905    0.0000 C   0  0  0  0  0  0  0  0  0  0  0  0
   31.6757    0.4819    0.0000 N   0  0  0  0  0  0  0  0  0  0  0  0
   30.0447    2.3787    0.0000 O   0  0  0  0  0  0  0  0  0  0  0  0
   27.5603   -1.3608    0.0000 C   0  0  0  0  0  0  0  0  0  0  0  0
   27.2277   -2.8234    0.0000 O   0  0  0  0  0  0  0  0  0  0  0  0
   28.9933   -0.9174    0.0000 N   0  0  0  0  0  0  0  0  0  0  0  0
   30.0937   -1.9368    0.0000 C   0  0  0  0  0  0  0  0  0  0  0  0
   30.7791   -3.2710    0.0000 C   0  0  0  0  0  0  0  0  0  0  0  0
   29.9664   -4.5317    0.0000 C   0  0  0  0  0  0  0  0  0  0  0  0
   30.6518   -5.8660    0.0000 O   0  0  0  0  0  0  0  0  0  0  0  0
   28.4682   -4.4582    0.0000 O   0  0  0  0  0  0  0  0  0  0  0  0
   31.5267   -1.4934    0.0000 C   0  0  0  0  0  0  0  0  0  0  0  0
   32.0351   -0.0822    0.0000 O   0  0  0  0  0  0  0  0  0  0  0  0
   32.6271   -2.5128    0.0000 N   0  0  0  0  0  0  0  0  0  0  0  0
   34.0601   -2.0694    0.0000 C   0  0  0  0  0  0  0  0  0  0  0  0
   35.2551   -1.1627    0.0000 C   0  0  0  0  0  0  0  0  0  0  0  0
   36.0678    0.0980    0.0000 O   0  0  0  0  0  0  0  0  0  0  0  0
   36.6983   -1.5714    0.0000 C   0  0  0  0  0  0  0  0  0  0  0  0
   35.1606   -3.0888    0.0000 C   0  0  0  0  0  0  0  0  0  0  0  0
   34.8280   -4.5515    0.0000 O   0  0  0  0  0  0  0  0  0  0  0  0
   36.5935   -2.6455    0.0000 N   0  0  0  0  0  0  0  0  0  0  0  0
   37.6940   -3.6648    0.0000 C   0  0  0  0  0  0  0  0  0  0  0  0
   38.3794   -4.9990    0.0000 C   0  0  0  0  0  0  0  0  0  0  0  0
   37.5666   -6.2597    0.0000 C   0  0  0  0  0  0  0  0  0  0  0  0
   39.1270   -3.2215    0.0000 C   0  0  0  0  0  0  0  0  0  0  0  0
   39.4595   -1.7588    0.0000 O   0  0  0  0  0  0  0  0  0  0  0  0
   40.2274   -4.2408    0.0000 N   0  0  0  0  0  0  0  0  0  0  0  0
   41.6604   -3.7975    0.0000 C   0  0  0  0  0  0  0  0  0  0  0  0
   42.8553   -2.8908    0.0000 C   0  0  0  0  0  0  0  0  0  0  0  0
   44.2380   -3.4723    0.0000 C   0  0  0  0  0  0  0  0  0  0  0  0
   45.4330   -2.5656    0.0000 C   0  0  0  0  0  0  0  0  0  0  0  0
   46.8157   -3.1470    0.0000 N   0  0  0  0  0  0  0  0  0  0  0  0
   48.0106   -2.2403    0.0000 C   0  0  0  0  0  0  0  0  0  0  0  0
   49.3121   -2.9860    0.0000 N   0  0  0  0  0  0  0  0  0  0  0  0
   47.8228   -0.7521    0.0000 N   0  0  0  0  0  0  0  0  0  0  0  0
   42.7608   -4.8168    0.0000 C   0  0  0  0  0  0  0  0  0  0  0  0
   42.4283   -6.2795    0.0000 O   0  0  0  0  0  0  0  0  0  0  0  0
   44.1938   -4.3735    0.0000 N   0  0  0  0  0  0  0  0  0  0  0  0
   45.2942   -5.3928    0.0000 C   0  0  0  0  0  0  0  0  0  0  0  0
   45.9797   -6.7270    0.0000 C   0  0  0  0  0  0  0  0  0  0  0  0
   45.1669   -7.9878    0.0000 C   0  0  0  0  0  0  0  0  0  0  0  0
   45.8523   -9.3220    0.0000 C   0  0  0  0  0  0  0  0  0  0  0  0
   45.0396  -10.5827    0.0000 O   0  0  0  0  0  0  0  0  0  0  0  0
   47.3505   -9.3955    0.0000 O   0  0  0  0  0  0  0  0  0  0  0  0
   46.7272   -4.9495    0.0000 C   0  0  0  0  0  0  0  0  0  0  0  0
   47.4038   -3.6107    0.0000 O   0  0  0  0  0  0  0  0  0  0  0  0
   47.8276   -5.9688    0.0000 N   0  0  0  0  0  0  0  0  0  0  0  0
   49.2606   -5.5255    0.0000 C   0  0  0  0  0  0  0  0  0  0  0  0
   50.4556   -4.6188    0.0000 C   0  0  0  0  0  0  0  0  0  0  0  0
   51.8383   -5.2003    0.0000 C   0  0  0  0  0  0  0  0  0  0  0  0
   53.0332   -4.2936    0.0000 C   0  0  0  0  0  0  0  0  0  0  0  0
   54.4159   -4.8751    0.0000 N   0  0  0  0  0  0  0  0  0  0  0  0
   52.8455   -2.8054    0.0000 O   0  0  0  0  0  0  0  0  0  0  0  0
   50.3611   -6.5448    0.0000 C   0  0  0  0  0  0  0  0  0  0  0  0
   51.8374   -6.2795    0.0000 O   0  0  0  0  0  0  0  0  0  0  0  0
   50.0285   -8.0075    0.0000 O   0  0  0  0  0  0  0  0  0  0  0  0
  -48.6812   -6.9291    0.0000 H   0  0  0  0  0  0  0  0  0  0  0  0
  -49.8619   -2.5945    0.0000 H   0  0  0  0  0  0  0  0  0  0  0  0
  -52.7294   -1.7127    0.0000 H   0  0  0  0  0  0  0  0  0  0  0  0
  -51.0455   -7.4366    0.0000 H   0  0  0  0  0  0  0  0  0  0  0  0
  -57.4326  -10.6800    0.0000 H   0  0  0  0  0  0  0  0  0  0  0  0
  -59.6208   -5.9671    0.0000 H   0  0  0  0  0  0  0  0  0  0  0  0
  -56.8997   -4.7037    0.0000 H   0  0  0  0  0  0  0  0  0  0  0  0
  -61.1145   -8.0928    0.0000 H   0  0  0  0  0  0  0  0  0  0  0  0
  -51.7241   -5.1652    0.0000 H   0  0  0  0  0  0  0  0  0  0  0  0
  -49.2027   -7.0605    0.0000 H   0  0  0  0  0  0  0  0  0  0  0  0
  -52.2570  -11.1415    0.0000 H   0  0  0  0  0  0  0  0  0  0  0  0
  -49.6691  -11.3722    0.0000 H   0  0  0  0  0  0  0  0  0  0  0  0
  -46.3245   -6.4006    0.0000 H   0  0  0  0  0  0  0  0  0  0  0  0
  -44.8776   -2.5820    0.0000 H   0  0  0  0  0  0  0  0  0  0  0  0
  -46.7572   -3.0126    0.0000 H   0  0  0  0  0  0  0  0  0  0  0  0
  -42.9306   -5.2630    0.0000 H   0  0  0  0  0  0  0  0  0  0  0  0
  -44.8102   -5.6937    0.0000 H   0  0  0  0  0  0  0  0  0  0  0  0
  -41.2596   -5.2402    0.0000 H   0  0  0  0  0  0  0  0  0  0  0  0
  -41.6923   -1.8522    0.0000 H   0  0  0  0  0  0  0  0  0  0  0  0
  -39.6274    0.0670    0.0000 H   0  0  0  0  0  0  0  0  0  0  0  0
  -41.2464   -0.9806    0.0000 H   0  0  0  0  0  0  0  0  0  0  0  0
  -37.6314   -0.0101    0.0000 H   0  0  0  0  0  0  0  0  0  0  0  0
  -38.1177   -0.6846    0.0000 H   0  0  0  0  0  0  0  0  0  0  0  0
  -37.3705   -3.8597    0.0000 H   0  0  0  0  0  0  0  0  0  0  0  0
  -33.9639   -4.1347    0.0000 H   0  0  0  0  0  0  0  0  0  0  0  0
  -34.3472   -2.3919    0.0000 H   0  0  0  0  0  0  0  0  0  0  0  0
  -36.2017   -6.3462    0.0000 H   0  0  0  0  0  0  0  0  0  0  0  0
  -36.9953   -4.7479    0.0000 H   0  0  0  0  0  0  0  0  0  0  0  0
  -31.7438   -6.2364    0.0000 H   0  0  0  0  0  0  0  0  0  0  0  0
  -33.4865   -3.4477    0.0000 H   0  0  0  0  0  0  0  0  0  0  0  0
  -34.0949   -0.1114    0.0000 H   0  0  0  0  0  0  0  0  0  0  0  0
  -32.0300    1.8078    0.0000 H   0  0  0  0  0  0  0  0  0  0  0  0
  -33.6490    0.7602    0.0000 H   0  0  0  0  0  0  0  0  0  0  0  0
  -29.2835   -0.0457    0.0000 H   0  0  0  0  0  0  0  0  0  0  0  0
  -30.1818   -1.0059    0.0000 H   0  0  0  0  0  0  0  0  0  0  0  0
  -30.1657    4.3254    0.0000 H   0  0  0  0  0  0  0  0  0  0  0  0
  -30.3373    1.0638    0.0000 H   0  0  0  0  0  0  0  0  0  0  0  0
  -29.7732   -2.1190    0.0000 H   0  0  0  0  0  0  0  0  0  0  0  0
  -26.3021   -2.2225    0.0000 H   0  0  0  0  0  0  0  0  0  0  0  0
  -26.7498   -0.6511    0.0000 H   0  0  0  0  0  0  0  0  0  0  0  0
  -29.3979   -3.0072    0.0000 H   0  0  0  0  0  0  0  0  0  0  0  0
  -26.7271   -5.6747    0.0000 H   0  0  0  0  0  0  0  0  0  0  0  0
  -25.2909   -4.6157    0.0000 H   0  0  0  0  0  0  0  0  0  0  0  0
  -25.8838   -2.9326    0.0000 H   0  0  0  0  0  0  0  0  0  0  0  0
  -27.9490   -5.9547    0.0000 H   0  0  0  0  0  0  0  0  0  0  0  0
  -29.7030   -5.6266    0.0000 H   0  0  0  0  0  0  0  0  0  0  0  0
  -29.8008   -3.7007    0.0000 H   0  0  0  0  0  0  0  0  0  0  0  0
  -25.8891   -1.7070    0.0000 H   0  0  0  0  0  0  0  0  0  0  0  0
  -26.4976    1.6293    0.0000 H   0  0  0  0  0  0  0  0  0  0  0  0
  -24.4327    3.5485    0.0000 H   0  0  0  0  0  0  0  0  0  0  0  0
  -26.0517    2.5009    0.0000 H   0  0  0  0  0  0  0  0  0  0  0  0
  -22.4367    3.4714    0.0000 H   0  0  0  0  0  0  0  0  0  0  0  0
  -21.6861    1.6951    0.0000 H   0  0  0  0  0  0  0  0  0  0  0  0
  -22.5845    0.7348    0.0000 H   0  0  0  0  0  0  0  0  0  0  0  0
  -22.9230    2.7969    0.0000 H   0  0  0  0  0  0  0  0  0  0  0  0
  -22.0181   -0.4715    0.0000 H   0  0  0  0  0  0  0  0  0  0  0  0
  -20.3238   -1.5293    0.0000 H   0  0  0  0  0  0  0  0  0  0  0  0
  -18.7692   -0.6532    0.0000 H   0  0  0  0  0  0  0  0  0  0  0  0
  -19.1525    1.0896    0.0000 H   0  0  0  0  0  0  0  0  0  0  0  0
  -18.2918    0.0338    0.0000 H   0  0  0  0  0  0  0  0  0  0  0  0
  -18.9002    3.3700    0.0000 H   0  0  0  0  0  0  0  0  0  0  0  0
  -16.8353    5.2892    0.0000 H   0  0  0  0  0  0  0  0  0  0  0  0
  -18.4543    4.2416    0.0000 H   0  0  0  0  0  0  0  0  0  0  0  0
  -14.0888    3.4358    0.0000 H   0  0  0  0  0  0  0  0  0  0  0  0
  -14.9871    2.4755    0.0000 H   0  0  0  0  0  0  0  0  0  0  0  0
  -14.9710    7.8069    0.0000 H   0  0  0  0  0  0  0  0  0  0  0  0
  -15.1426    4.5453    0.0000 H   0  0  0  0  0  0  0  0  0  0  0  0
  -14.4208    1.2693    0.0000 H   0  0  0  0  0  0  0  0  0  0  0  0
  -12.7264    0.2114    0.0000 H   0  0  0  0  0  0  0  0  0  0  0  0
  -11.1718    1.0875    0.0000 H   0  0  0  0  0  0  0  0  0  0  0  0
  -11.5551    2.8303    0.0000 H   0  0  0  0  0  0  0  0  0  0  0  0
  -10.6944    1.7745    0.0000 H   0  0  0  0  0  0  0  0  0  0  0  0
  -11.3029    5.1108    0.0000 H   0  0  0  0  0  0  0  0  0  0  0  0
   -9.2379    7.0300    0.0000 H   0  0  0  0  0  0  0  0  0  0  0  0
  -10.8569    5.9824    0.0000 H   0  0  0  0  0  0  0  0  0  0  0  0
   -7.9645    8.1042    0.0000 H   0  0  0  0  0  0  0  0  0  0  0  0
   -4.4906    7.4255    0.0000 H   0  0  0  0  0  0  0  0  0  0  0  0
   -4.3252    4.1664    0.0000 H   0  0  0  0  0  0  0  0  0  0  0  0
   -7.7282    6.2784    0.0000 H   0  0  0  0  0  0  0  0  0  0  0  0
   -7.0108    2.7945    0.0000 H   0  0  0  0  0  0  0  0  0  0  0  0
   -6.1379    1.6109    0.0000 H   0  0  0  0  0  0  0  0  0  0  0  0
   -5.8118    1.0779    0.0000 H   0  0  0  0  0  0  0  0  0  0  0  0
   -4.8940    0.4000    0.0000 H   0  0  0  0  0  0  0  0  0  0  0  0
   -4.3744    0.0830    0.0000 H   0  0  0  0  0  0  0  0  0  0  0  0
   -2.9864   -0.4033    0.0000 H   0  0  0  0  0  0  0  0  0  0  0  0
   -1.9423   -0.7879    0.0000 H   0  0  0  0  0  0  0  0  0  0  0  0
   -7.0462    1.6972    0.0000 H   0  0  0  0  0  0  0  0  0  0  0  0
   -8.3364    2.3630    0.0000 H   0  0  0  0  0  0  0  0  0  0  0  0
   -8.2964    4.1657    0.0000 H   0  0  0  0  0  0  0  0  0  0  0  0
   -7.4224    7.9574    0.0000 H   0  0  0  0  0  0  0  0  0  0  0  0
   -6.8838    8.7199    0.0000 H   0  0  0  0  0  0  0  0  0  0  0  0
   -7.0578   11.0366    0.0000 H   0  0  0  0  0  0  0  0  0  0  0  0
   -7.2999    9.4208    0.0000 H   0  0  0  0  0  0  0  0  0  0  0  0
   -3.7646   10.3657    0.0000 H   0  0  0  0  0  0  0  0  0  0  0  0
   -4.7654   13.8903    0.0000 H   0  0  0  0  0  0  0  0  0  0  0  0
   -6.5431   13.7355    0.0000 H   0  0  0  0  0  0  0  0  0  0  0  0
   -6.9149   11.9902    0.0000 H   0  0  0  0  0  0  0  0  0  0  0  0
   -3.5768   13.4920    0.0000 H   0  0  0  0  0  0  0  0  0  0  0  0
   -2.2810   12.4883    0.0000 H   0  0  0  0  0  0  0  0  0  0  0  0
   -2.8506   10.7775    0.0000 H   0  0  0  0  0  0  0  0  0  0  0  0
   -3.3610   11.9008    0.0000 H   0  0  0  0  0  0  0  0  0  0  0  0
   -2.2741   12.0529    0.0000 H   0  0  0  0  0  0  0  0  0  0  0  0
    0.3448   13.0028    0.0000 H   0  0  0  0  0  0  0  0  0  0  0  0
    0.5453   11.3813    0.0000 H   0  0  0  0  0  0  0  0  0  0  0  0
   -0.8056   14.6357    0.0000 H   0  0  0  0  0  0  0  0  0  0  0  0
    2.1041   11.2890    0.0000 H   0  0  0  0  0  0  0  0  0  0  0  0
    2.6989   10.5281    0.0000 H   0  0  0  0  0  0  0  0  0  0  0  0
    4.2837    7.8062    0.0000 H   0  0  0  0  0  0  0  0  0  0  0  0
    6.5478    9.9702    0.0000 H   0  0  0  0  0  0  0  0  0  0  0  0
    5.9474   11.0707    0.0000 H   0  0  0  0  0  0  0  0  0  0  0  0
    4.5389   12.1663    0.0000 H   0  0  0  0  0  0  0  0  0  0  0  0
    3.0793   11.1398    0.0000 H   0  0  0  0  0  0  0  0  0  0  0  0
    5.1834    6.5300    0.0000 H   0  0  0  0  0  0  0  0  0  0  0  0
    3.9336    2.1220    0.0000 H   0  0  0  0  0  0  0  0  0  0  0  0
    4.6671    3.2054    0.0000 H   0  0  0  0  0  0  0  0  0  0  0  0
    2.8187    0.7914    0.0000 H   0  0  0  0  0  0  0  0  0  0  0  0
    3.6631    1.5587    0.0000 H   0  0  0  0  0  0  0  0  0  0  0  0
    1.0022   -0.2009    0.0000 H   0  0  0  0  0  0  0  0  0  0  0  0
    2.3338    0.4234    0.0000 H   0  0  0  0  0  0  0  0  0  0  0  0
    0.0023   -0.6892    0.0000 H   0  0  0  0  0  0  0  0  0  0  0  0
    6.4206    4.8382    0.0000 H   0  0  0  0  0  0  0  0  0  0  0  0
    6.0069    6.5740    0.0000 H   0  0  0  0  0  0  0  0  0  0  0  0
    4.5549    6.8456    0.0000 H   0  0  0  0  0  0  0  0  0  0  0  0
    6.7009    5.6779    0.0000 H   0  0  0  0  0  0  0  0  0  0  0  0
    5.9964    2.4930    0.0000 H   0  0  0  0  0  0  0  0  0  0  0  0
    9.0788    0.8937    0.0000 H   0  0  0  0  0  0  0  0  0  0  0  0
    9.3572    2.5037    0.0000 H   0  0  0  0  0  0  0  0  0  0  0  0
    5.9491    1.5300    0.0000 H   0  0  0  0  0  0  0  0  0  0  0  0
    7.1980   -2.0323    0.0000 H   0  0  0  0  0  0  0  0  0  0  0  0
    8.9515   -1.7012    0.0000 H   0  0  0  0  0  0  0  0  0  0  0  0
    9.1476    0.0724    0.0000 H   0  0  0  0  0  0  0  0  0  0  0  0
    5.9756   -1.7543    0.0000 H   0  0  0  0  0  0  0  0  0  0  0  0
    4.5377   -0.6977    0.0000 H   0  0  0  0  0  0  0  0  0  0  0  0
    5.2852    1.0799    0.0000 H   0  0  0  0  0  0  0  0  0  0  0  0
    9.6746    1.1790    0.0000 H   0  0  0  0  0  0  0  0  0  0  0  0
   10.5739    4.4489    0.0000 H   0  0  0  0  0  0  0  0  0  0  0  0
   13.2671    5.2821    0.0000 H   0  0  0  0  0  0  0  0  0  0  0  0
   11.3539    5.0407    0.0000 H   0  0  0  0  0  0  0  0  0  0  0  0
   14.9374    2.4205    0.0000 H   0  0  0  0  0  0  0  0  0  0  0  0
   13.7114    1.9451    0.0000 H   0  0  0  0  0  0  0  0  0  0  0  0
   16.0391    6.7415    0.0000 H   0  0  0  0  0  0  0  0  0  0  0  0
   14.4694    3.8774    0.0000 H   0  0  0  0  0  0  0  0  0  0  0  0
   13.6983    0.6126    0.0000 H   0  0  0  0  0  0  0  0  0  0  0  0
   16.5466   -0.9608    0.0000 H   0  0  0  0  0  0  0  0  0  0  0  0
   16.9575    0.7757    0.0000 H   0  0  0  0  0  0  0  0  0  0  0  0
   14.6385   -3.6706    0.0000 H   0  0  0  0  0  0  0  0  0  0  0  0
   16.9495   -2.4834    0.0000 H   0  0  0  0  0  0  0  0  0  0  0  0
   17.2748   -0.5490    0.0000 H   0  0  0  0  0  0  0  0  0  0  0  0
   18.1742    2.7208    0.0000 H   0  0  0  0  0  0  0  0  0  0  0  0
   21.5538    2.2461    0.0000 H   0  0  0  0  0  0  0  0  0  0  0  0
   20.8673    3.5540    0.0000 H   0  0  0  0  0  0  0  0  0  0  0  0
   18.9541    3.3127    0.0000 H   0  0  0  0  0  0  0  0  0  0  0  0
   21.9014    2.2218    0.0000 H   0  0  0  0  0  0  0  0  0  0  0  0
   21.1969   -0.9630    0.0000 H   0  0  0  0  0  0  0  0  0  0  0  0
   24.5577   -0.9524    0.0000 H   0  0  0  0  0  0  0  0  0  0  0  0
   22.8695   -4.2287    0.0000 H   0  0  0  0  0  0  0  0  0  0  0  0
   21.1712   -3.7104    0.0000 H   0  0  0  0  0  0  0  0  0  0  0  0
   21.1496   -1.9261    0.0000 H   0  0  0  0  0  0  0  0  0  0  0  0
   25.6620   -3.1438    0.0000 H   0  0  0  0  0  0  0  0  0  0  0  0
   25.3730   -1.5357    0.0000 H   0  0  0  0  0  0  0  0  0  0  0  0
   25.0472   -5.0443    0.0000 H   0  0  0  0  0  0  0  0  0  0  0  0
   23.1340   -5.2857    0.0000 H   0  0  0  0  0  0  0  0  0  0  0  0
   22.4644   -3.7953    0.0000 H   0  0  0  0  0  0  0  0  0  0  0  0
   25.0581   -2.2844    0.0000 H   0  0  0  0  0  0  0  0  0  0  0  0
   25.7744    0.9928    0.0000 H   0  0  0  0  0  0  0  0  0  0  0  0
   28.4676    1.8260    0.0000 H   0  0  0  0  0  0  0  0  0  0  0  0
   26.5544    1.5846    0.0000 H   0  0  0  0  0  0  0  0  0  0  0  0
   30.1379   -1.0355    0.0000 H   0  0  0  0  0  0  0  0  0  0  0  0
   28.9119   -1.5109    0.0000 H   0  0  0  0  0  0  0  0  0  0  0  0
   32.8101    1.2157    0.0000 H   0  0  0  0  0  0  0  0  0  0  0  0
   32.2011   -1.0991    0.0000 H   0  0  0  0  0  0  0  0  0  0  0  0
   29.6699    0.4213    0.0000 H   0  0  0  0  0  0  0  0  0  0  0  0
   28.8988   -2.8435    0.0000 H   0  0  0  0  0  0  0  0  0  0  0  0
   31.7471   -4.4169    0.0000 H   0  0  0  0  0  0  0  0  0  0  0  0
   32.1580   -2.6804    0.0000 H   0  0  0  0  0  0  0  0  0  0  0  0
   27.6554   -5.7189    0.0000 H   0  0  0  0  0  0  0  0  0  0  0  0
   32.4753   -4.0051    0.0000 H   0  0  0  0  0  0  0  0  0  0  0  0
   33.3747   -0.7352    0.0000 H   0  0  0  0  0  0  0  0  0  0  0  0
   34.1546   -0.1434    0.0000 H   0  0  0  0  0  0  0  0  0  0  0  0
   37.5638    0.2076    0.0000 H   0  0  0  0  0  0  0  0  0  0  0  0
   37.9343   -0.9899    0.0000 H   0  0  0  0  0  0  0  0  0  0  0  0
   37.7382   -2.7636    0.0000 H   0  0  0  0  0  0  0  0  0  0  0  0
   36.5122   -3.2390    0.0000 H   0  0  0  0  0  0  0  0  0  0  0  0
   37.1019   -1.2342    0.0000 H   0  0  0  0  0  0  0  0  0  0  0  0
   36.3974   -4.4191    0.0000 H   0  0  0  0  0  0  0  0  0  0  0  0
   39.3474   -6.1449    0.0000 H   0  0  0  0  0  0  0  0  0  0  0  0
   39.7582   -4.4084    0.0000 H   0  0  0  0  0  0  0  0  0  0  0  0
   38.2521   -7.5940    0.0000 H   0  0  0  0  0  0  0  0  0  0  0  0
   36.3717   -7.1664    0.0000 H   0  0  0  0  0  0  0  0  0  0  0  0
   36.3502   -5.3821    0.0000 H   0  0  0  0  0  0  0  0  0  0  0  0
   40.0756   -5.7331    0.0000 H   0  0  0  0  0  0  0  0  0  0  0  0
   40.9749   -2.4632    0.0000 H   0  0  0  0  0  0  0  0  0  0  0  0
   43.5083   -1.5404    0.0000 H   0  0  0  0  0  0  0  0  0  0  0  0
   41.7549   -1.8714    0.0000 H   0  0  0  0  0  0  0  0  0  0  0  0
   45.3385   -4.4916    0.0000 H   0  0  0  0  0  0  0  0  0  0  0  0
   44.1124   -4.9670    0.0000 H   0  0  0  0  0  0  0  0  0  0  0  0
   46.2457   -1.3048    0.0000 H   0  0  0  0  0  0  0  0  0  0  0  0
   44.4650   -1.4197    0.0000 H   0  0  0  0  0  0  0  0  0  0  0  0
   47.3579   -4.5456    0.0000 H   0  0  0  0  0  0  0  0  0  0  0  0
   50.5882   -1.9151    0.0000 H   0  0  0  0  0  0  0  0  0  0  0  0
   49.0178    0.1546    0.0000 H   0  0  0  0  0  0  0  0  0  0  0  0
   46.4401   -0.1706    0.0000 H   0  0  0  0  0  0  0  0  0  0  0  0
   44.8704   -3.0347    0.0000 H   0  0  0  0  0  0  0  0  0  0  0  0
   43.9977   -6.1471    0.0000 H   0  0  0  0  0  0  0  0  0  0  0  0
   46.9476   -7.8729    0.0000 H   0  0  0  0  0  0  0  0  0  0  0  0
   47.3585   -6.1364    0.0000 H   0  0  0  0  0  0  0  0  0  0  0  0
   43.9720   -8.8945    0.0000 H   0  0  0  0  0  0  0  0  0  0  0  0
   43.9504   -7.1102    0.0000 H   0  0  0  0  0  0  0  0  0  0  0  0
   48.0360  -10.7298    0.0000 H   0  0  0  0  0  0  0  0  0  0  0  0
   47.6759   -7.4611    0.0000 H   0  0  0  0  0  0  0  0  0  0  0  0
   48.5752   -4.1913    0.0000 H   0  0  0  0  0  0  0  0  0  0  0  0
   51.2683   -3.3581    0.0000 H   0  0  0  0  0  0  0  0  0  0  0  0
   49.2391   -3.7412    0.0000 H   0  0  0  0  0  0  0  0  0  0  0  0
   52.9387   -6.2196    0.0000 H   0  0  0  0  0  0  0  0  0  0  0  0
   51.5314   -6.6686    0.0000 H   0  0  0  0  0  0  0  0  0  0  0  0
   55.6109   -3.9684    0.0000 H   0  0  0  0  0  0  0  0  0  0  0  0
   54.6037   -6.3633    0.0000 H   0  0  0  0  0  0  0  0  0  0  0  0
   51.1289   -9.0268    0.0000 H   0  0  0  0  0  0  0  0  0  0  0  0
  1  2  1  0
  2  3  1  0
  3  4  2  0
  4  5  1  0
  5  6  2  0
  6  7  1  0
  7  8  2  0
  7  9  1  0
  9 10  1  0
 10 11  1  0
 11 12  2  0
  9 13  1  0
 13 14  1  0
 14 15  2  0
 15 16  1  0
 16 17  2  0
 17 18  1  0
 16 19  1  0
 14 20  1  0
 20 21  1  0
 21 22  2  0
 22 23  1  0
 23 24  2  0
 24 25  1  0
 25 26  2  0
 25 27  1  0
  1 28  2  0
  1 29  1  0
 29 30  1  0
 30 31  1  0
 31 32  1  0
 32 33  2  0
 32 34  1  0
 34 35  1  0
 35 36  1  0
 36 37  1  0
 35 38  1  0
 38 39  2  0
 38 40  1  0
 40 41  1  0
 41 42  1  0
 42 43  1  0
 43 44  1  0
 44 45  2  0
 44 46  1  0
 41 47  1  0
 47 48  2  0
 47 49  1  0
 49 50  1  0
 50 51  1  0
 51 52  1  0
 52 53  1  0
 53 54  2  0
 53 55  1  0
 50 56  1  0
 56 57  2  0
 56 58  1  0
 58 59  1  0
 59 60  1  0
 60 61  1  0
 61 62  1  0
 61 63  1  0
 59 64  1  0
 64 65  2  0
 64 66  1  0
 66 67  1  0
 67 68  1  0
 68 69  1  0
 67 70  1  0
 70 71  2  0
 70 72  1  0
 72 73  1  0
 73 74  1  0
 73 75  1  0
 75 76  2  0
 75 77  1  0
 77 78  1  0
 78 79  1  0
 79 80  1  0
 80 81  1  0
 81 82  2  0
 81 83  1  0
 78 84  1  0
 84 85  2  0
 84 86  1  0
 86 87  1  0
 87 88  1  0
 87 89  1  0
 89 90  2  0
 89 91  1  0
 91 92  1  0
 92 93  1  0
 93 94  1  0
 94 95  2  0
 95 96  1  0
 96 97  1  0
 97 98  2  0
 92 99  1  0
 99100  2  0
 99101  1  0
102101  1  6
102103  1  0
103104  1  0
104105  1  0
105106  1  0
102107  1  0
102108  1  0
108109  2  0
108110  1  0
110111  1  0
111112  1  0
112113  1  0
113114  1  0
113115  1  0
111116  1  0
116117  2  0
116118  1  0
118119  1  0
119120  1  0
120121  1  0
119122  1  0
122123  2  0
122124  1  0
124125  1  0
125126  1  0
126127  1  0
126128  1  0
125129  1  0
129130  2  0
129131  1  0
131132  1  0
132133  1  0
133134  1  0
134135  1  0
135136  1  0
132137  1  0
132138  1  6
138139  2  0
138140  1  0
140141  1  0
141142  1  0
142143  1  0
143144  1  0
143145  1  0
141146  1  0
146147  2  0
146148  1  0
148149  1  0
149150  1  0
150151  1  0
151152  1  0
152153  2  0
152154  1  0
149155  1  0
155156  2  0
155157  1  0
157158  1  0
158159  1  0
159160  1  0
160161  1  0
160162  2  0
158163  1  0
163164  2  0
163165  1  0
165166  1  0
166167  1  0
166168  1  0
168169  2  0
168170  1  0
170171  1  0
171172  1  0
172173  1  0
172174  1  0
174175  1  0
171176  1  0
176177  2  0
176178  1  0
178179  1  0
179180  1  0
180181  1  0
181182  1  0
182183  1  0
182184  2  0
179185  1  0
185186  2  0
185187  1  0
187188  1  0
188189  1  0
189190  1  0
190191  2  0
190192  1  0
188193  1  0
193194  2  0
193195  1  0
195196  1  0
196197  1  0
197198  1  0
197199  1  0
196200  1  0
200201  2  0
200202  1  0
202203  1  0
203204  1  0
204205  1  0
203206  1  0
206207  2  0
206208  1  0
208209  1  0
209210  1  0
210211  1  0
211212  1  0
212213  1  0
213214  1  0
214215  2  3
214216  1  0
209217  1  0
217218  2  0
217219  1  0
219220  1  0
220221  1  0
221222  1  0
222223  1  0
223224  2  0
223225  1  0
220226  1  0
226227  2  0
226228  1  0
228229  1  0
229230  1  0
230231  1  0
231232  1  0
232233  1  0
232234  2  0
229235  1  0
235236  2  0
235237  1  0
  8  3  1  0
 98 94  1  0
 11  6  1  0
106136  2  0
 18 13  2  0
 22  9  1  0
 26 21  1  0
  2238  1  0
  4239  1  0
  5240  1  0
  8241  1  0
 15242  1  0
 17243  1  0
 18244  1  0
 19245  1  0
 23246  1  0
 24247  1  0
 26248  1  0
 27249  1  0
 29250  1  0
 30251  1  0
 30252  1  0
 31253  1  0
 31254  1  0
 34255  1  0
 35256  1  1
 36257  1  0
 36258  1  0
 37259  1  0
 40260  1  0
 41261  1  6
 42262  1  0
 42263  1  0
 43264  1  0
 43265  1  0
 46266  1  0
 49267  1  0
 50268  1  1
 51269  1  0
 51270  1  0
 52271  1  0
 52272  1  0
 55273  1  0
 58274  1  0
 59275  1  6
 60276  1  0
 60277  1  0
 61278  1  0
 62279  1  0
 62280  1  0
 62281  1  0
 63282  1  0
 63283  1  0
 63284  1  0
 66285  1  0
 67286  1  1
 68287  1  0
 68288  1  0
 69289  1  0
 69290  1  0
 69291  1  0
 72292  1  0
 73293  1  6
 74294  1  0
 74295  1  0
 74296  1  0
 77297  1  0
 78298  1  1
 79299  1  0
 79300  1  0
 80301  1  0
 80302  1  0
 83303  1  0
 86304  1  0
 87305  1  6
 88306  1  0
 88307  1  0
 88308  1  0
 91309  1  0
 92310  1  1
 93311  1  0
 93312  1  0
 95313  1  0
 96314  1  0
 97315  1  0
101316  1  0
103317  1  0
103318  1  0
104319  1  0
104320  1  0
105321  1  0
105322  1  0
106323  1  0
107324  1  0
107325  1  0
107326  1  0
110327  1  0
111328  1  1
112329  1  0
112330  1  0
113331  1  0
114332  1  0
114333  1  0
114334  1  0
115335  1  0
115336  1  0
115337  1  0
118338  1  0
119339  1  1
120340  1  0
120341  1  0
121342  1  0
124343  1  0
125344  1  1
126345  1  6
127346  1  0
128347  1  0
128348  1  0
128349  1  0
131350  1  0
133351  1  0
133352  1  0
134353  1  0
134354  1  0
135355  1  0
135356  1  0
136357  1  0
137358  1  0
137359  1  0
137360  1  0
140361  1  0
141362  1  6
142363  1  0
142364  1  0
143365  1  0
144366  1  0
144367  1  0
144368  1  0
145369  1  0
145370  1  0
145371  1  0
148372  1  0
149373  1  1
150374  1  0
150375  1  0
151376  1  0
151377  1  0
154378  1  0
157379  1  0
158380  1  6
159381  1  0
159382  1  0
161383  1  0
161384  1  0
165385  1  0
166386  1  1
167387  1  0
167388  1  0
167389  1  0
170390  1  0
171391  1  6
172392  1  1
173393  1  0
173394  1  0
173395  1  0
174396  1  0
174397  1  0
175398  1  0
175399  1  0
175400  1  0
178401  1  0
179402  1  1
180403  1  0
180404  1  0
181405  1  0
181406  1  0
183407  1  0
183408  1  0
187409  1  0
188410  1  6
189411  1  0
189412  1  0
192413  1  0
195414  1  0
196415  1  1
197416  1  1
198417  1  0
199418  1  0
199419  1  0
199420  1  0
202421  1  0
203422  1  6
204423  1  0
204424  1  0
205425  1  0
205426  1  0
205427  1  0
208428  1  0
209429  1  1
210430  1  0
210431  1  0
211432  1  0
211433  1  0
212434  1  0
212435  1  0
213436  1  0
215437  1  0
216438  1  0
216439  1  0
219440  1  0
220441  1  6
221442  1  0
221443  1  0
222444  1  0
222445  1  0
225446  1  0
228447  1  0
229448  1  1
230449  1  0
230450  1  0
231451  1  0
231452  1  0
233453  1  0
233454  1  0
237455  1  0
M  END
