
     RDKit          2D

319327  0  0  0  0  0  0  0  0999 V2000
  -26.1087    0.3727    0.0000 C   0  0  0  0  0  0  0  0  0  0  0  0
  -27.3998   -0.3909    0.0000 N   0  0  0  0  0  0  0  0  0  0  0  0
  -28.7066    0.3454    0.0000 C   0  0  0  0  0  0  0  0  0  0  0  0
  -28.7224    1.8453    0.0000 C   0  0  0  0  0  0  0  0  0  0  0  0
  -30.0292    2.5816    0.0000 C   0  0  0  0  0  0  0  0  0  0  0  0
  -31.3203    1.8180    0.0000 C   0  0  0  0  0  0  0  0  0  0  0  0
  -31.3046    0.3181    0.0000 C   0  0  0  0  0  0  0  0  0  0  0  0
  -29.9977   -0.4182    0.0000 C   0  0  0  0  0  0  0  0  0  0  0  0
  -32.7262   -0.1604    0.0000 C   0  0  0  0  0  0  0  0  0  0  0  0
  -33.6206    1.0438    0.0000 O   0  0  0  0  0  0  0  0  0  0  0  0
  -32.7517    2.2665    0.0000 C   0  0  0  0  0  0  0  0  0  0  0  0
  -33.2302    3.6881    0.0000 O   0  0  0  0  0  0  0  0  0  0  0  0
  -34.1900   -0.4877    0.0000 C   0  0  0  0  0  0  0  0  0  0  0  0
  -34.6385   -1.9191    0.0000 C   0  0  0  0  0  0  0  0  0  0  0  0
  -36.1024   -2.2463    0.0000 C   0  0  0  0  0  0  0  0  0  0  0  0
  -37.1178   -1.1422    0.0000 C   0  0  0  0  0  0  0  0  0  0  0  0
  -36.6693    0.2891    0.0000 C   0  0  0  0  0  0  0  0  0  0  0  0
  -35.2054    0.6164    0.0000 C   0  0  0  0  0  0  0  0  0  0  0  0
  -38.5816   -1.4695    0.0000 O   0  0  0  0  0  0  0  0  0  0  0  0
  -33.6232   -3.0232    0.0000 O   0  0  0  0  0  0  0  0  0  0  0  0
  -32.1593   -2.6959    0.0000 C   0  0  0  0  0  0  0  0  0  0  0  0
  -31.7108   -1.2645    0.0000 C   0  0  0  0  0  0  0  0  0  0  0  0
  -30.4563   -1.6052    0.0000 C   0  0  0  0  0  0  0  0  0  0  0  0
  -29.9147   -2.1941    0.0000 C   0  0  0  0  0  0  0  0  0  0  0  0
  -30.1539   -2.9575    0.0000 C   0  0  0  0  0  0  0  0  0  0  0  0
  -30.9347   -3.1320    0.0000 C   0  0  0  0  0  0  0  0  0  0  0  0
  -28.6647   -4.5768    0.0000 O   0  0  0  0  0  0  0  0  0  0  0  0
  -26.1245    1.8726    0.0000 S   0  0  0  0  0  0  0  0  0  0  0  0
  -24.8018   -0.3636    0.0000 N   0  0  0  0  0  0  0  0  0  0  0  0
  -23.5108    0.4000    0.0000 C   0  0  0  0  0  0  0  0  0  0  0  0
  -22.2039   -0.3363    0.0000 C   0  0  0  0  0  0  0  0  0  0  0  0
  -20.9128    0.4273    0.0000 C   0  0  0  0  0  0  0  0  0  0  0  0
  -20.9286    1.9273    0.0000 O   0  0  0  0  0  0  0  0  0  0  0  0
  -19.6060   -0.3090    0.0000 N   0  0  0  0  0  0  0  0  0  0  0  0
  -18.3149    0.4547    0.0000 C   0  0  0  0  0  0  0  0  0  0  0  0
  -17.3628    1.6138    0.0000 C   0  0  0  0  0  0  0  0  0  0  0  0
  -15.8830    1.3689    0.0000 C   0  0  0  0  0  0  0  0  0  0  0  0
  -14.9309    2.5280    0.0000 C   0  0  0  0  0  0  0  0  0  0  0  0
  -13.4511    2.2831    0.0000 C   0  0  0  0  0  0  0  0  0  0  0  0
  -12.4990    3.4422    0.0000 N   0  0  0  0  0  0  0  0  0  0  0  0
  -17.0080   -0.2817    0.0000 C   0  0  0  0  0  0  0  0  0  0  0  0
  -16.9923   -1.7816    0.0000 O   0  0  0  0  0  0  0  0  0  0  0  0
  -15.7170    0.4820    0.0000 N   0  0  0  0  0  0  0  0  0  0  0  0
  -14.4101   -0.2543    0.0000 C   0  0  0  0  0  0  0  0  0  0  0  0
  -13.4339   -1.3932    0.0000 C   0  0  0  0  0  0  0  0  0  0  0  0
  -13.9321   -2.8081    0.0000 C   0  0  0  0  0  0  0  0  0  0  0  0
  -12.9559   -3.9469    0.0000 C   0  0  0  0  0  0  0  0  0  0  0  0
  -13.4541   -5.3618    0.0000 N   0  0  0  0  0  0  0  0  0  0  0  0
  -11.4815   -3.6709    0.0000 O   0  0  0  0  0  0  0  0  0  0  0  0
  -13.1190    0.5093    0.0000 C   0  0  0  0  0  0  0  0  0  0  0  0
  -12.8374    1.6912    0.0000 O   0  0  0  0  0  0  0  0  0  0  0  0
  -11.8122   -0.2270    0.0000 N   0  0  0  0  0  0  0  0  0  0  0  0
  -10.5211    0.5366    0.0000 C   0  0  0  0  0  0  0  0  0  0  0  0
   -9.5690    1.6957    0.0000 C   0  0  0  0  0  0  0  0  0  0  0  0
   -8.0892    1.4508    0.0000 C   0  0  0  0  0  0  0  0  0  0  0  0
   -7.1371    2.6099    0.0000 C   0  0  0  0  0  0  0  0  0  0  0  0
   -5.6573    2.3650    0.0000 C   0  0  0  0  0  0  0  0  0  0  0  0
   -4.7052    3.5242    0.0000 N   0  0  0  0  0  0  0  0  0  0  0  0
   -9.2142   -0.1997    0.0000 C   0  0  0  0  0  0  0  0  0  0  0  0
   -9.1985   -1.6996    0.0000 O   0  0  0  0  0  0  0  0  0  0  0  0
   -7.9232    0.5639    0.0000 N   0  0  0  0  0  0  0  0  0  0  0  0
   -6.6163   -0.1724    0.0000 C   0  0  0  0  0  0  0  0  0  0  0  0
   -5.6401   -1.3113    0.0000 C   0  0  0  0  0  0  0  0  0  0  0  0
   -6.1383   -2.7261    0.0000 C   0  0  0  0  0  0  0  0  0  0  0  0
   -5.1621   -3.8650    0.0000 C   0  0  0  0  0  0  0  0  0  0  0  0
   -5.6603   -5.2798    0.0000 N   0  0  0  0  0  0  0  0  0  0  0  0
   -4.6841   -6.4187    0.0000 C   0  0  0  0  0  0  0  0  0  0  0  0
   -5.1822   -7.8336    0.0000 N   0  0  0  0  0  0  0  0  0  0  0  0
   -3.2097   -6.1427    0.0000 N   0  0  0  0  0  0  0  0  0  0  0  0
   -5.3252    0.5912    0.0000 C   0  0  0  0  0  0  0  0  0  0  0  0
   -5.0436    1.7731    0.0000 O   0  0  0  0  0  0  0  0  0  0  0  0
   -4.0184   -0.1451    0.0000 N   0  0  0  0  0  0  0  0  0  0  0  0
   -2.7273    0.6185    0.0000 C   0  0  0  0  0  0  0  0  0  0  0  0
   -1.7752    1.7777    0.0000 C   0  0  0  0  0  0  0  0  0  0  0  0
   -0.2954    1.5327    0.0000 C   0  0  0  0  0  0  0  0  0  0  0  0
    0.6567    2.6919    0.0000 C   0  0  0  0  0  0  0  0  0  0  0  0
    2.1365    2.4469    0.0000 C   0  0  0  0  0  0  0  0  0  0  0  0
    3.0886    3.6061    0.0000 N   0  0  0  0  0  0  0  0  0  0  0  0
   -1.4204   -0.1178    0.0000 C   0  0  0  0  0  0  0  0  0  0  0  0
   -1.5876   -1.6084    0.0000 O   0  0  0  0  0  0  0  0  0  0  0  0
   -0.1294    0.6458    0.0000 N   0  0  0  0  0  0  0  0  0  0  0  0
    1.1775   -0.0905    0.0000 C   0  0  0  0  0  0  0  0  0  0  0  0
    2.1537   -1.2293    0.0000 C   0  0  0  0  0  0  0  0  0  0  0  0
    1.6555   -2.6442    0.0000 C   0  0  0  0  0  0  0  0  0  0  0  0
    0.1811   -2.9202    0.0000 C   0  0  0  0  0  0  0  0  0  0  0  0
   -0.3171   -4.3350    0.0000 C   0  0  0  0  0  0  0  0  0  0  0  0
    0.6591   -5.4739    0.0000 C   0  0  0  0  0  0  0  0  0  0  0  0
    2.1335   -5.1979    0.0000 C   0  0  0  0  0  0  0  0  0  0  0  0
    2.6317   -3.7831    0.0000 C   0  0  0  0  0  0  0  0  0  0  0  0
    2.4686    0.6732    0.0000 C   0  0  0  0  0  0  0  0  0  0  0  0
    2.7502    1.8551    0.0000 O   0  0  0  0  0  0  0  0  0  0  0  0
    3.7754   -0.0631    0.0000 N   0  0  0  0  0  0  0  0  0  0  0  0
    5.0665    0.7005    0.0000 C   0  0  0  0  0  0  0  0  0  0  0  0
    6.0186    1.8596    0.0000 C   0  0  0  0  0  0  0  0  0  0  0  0
    7.4401    2.3383    0.0000 O   0  0  0  0  0  0  0  0  0  0  0  0
    6.3734   -0.0358    0.0000 C   0  0  0  0  0  0  0  0  0  0  0  0
    6.2062   -1.5265    0.0000 O   0  0  0  0  0  0  0  0  0  0  0  0
    7.6644    0.7278    0.0000 N   0  0  0  0  0  0  0  0  0  0  0  0
    8.9713   -0.0085    0.0000 C   0  0  0  0  0  0  0  0  0  0  0  0
    9.2839   -1.4756    0.0000 C   0  0  0  0  0  0  0  0  0  0  0  0
   10.0151   -2.7853    0.0000 C   0  0  0  0  0  0  0  0  0  0  0  0
   11.0999   -3.8213    0.0000 C   0  0  0  0  0  0  0  0  0  0  0  0
   12.4418   -4.4915    0.0000 C   0  0  0  0  0  0  0  0  0  0  0  0
    7.6634   -0.7429    0.0000 C   0  0  0  0  0  0  0  0  0  0  0  0
    9.1049    1.4855    0.0000 C   0  0  0  0  0  0  0  0  0  0  0  0
    8.3206    1.8971    0.0000 O   0  0  0  0  0  0  0  0  0  0  0  0
    9.6730    2.8738    0.0000 N   0  0  0  0  0  0  0  0  0  0  0  0
   10.6251    4.0329    0.0000 C   0  0  0  0  0  0  0  0  0  0  0  0
   10.3859    5.5137    0.0000 C   0  0  0  0  0  0  0  0  0  0  0  0
    8.9839    6.0470    0.0000 C   0  0  0  0  0  0  0  0  0  0  0  0
    8.7448    7.5278    0.0000 C   0  0  0  0  0  0  0  0  0  0  0  0
    7.3428    8.0611    0.0000 C   0  0  0  0  0  0  0  0  0  0  0  0
    6.1800    7.1136    0.0000 C   0  0  0  0  0  0  0  0  0  0  0  0
    6.4191    5.6328    0.0000 C   0  0  0  0  0  0  0  0  0  0  0  0
    7.8211    5.0995    0.0000 C   0  0  0  0  0  0  0  0  0  0  0  0
   11.8765    4.8599    0.0000 C   0  0  0  0  0  0  0  0  0  0  0  0
   11.2452    6.2206    0.0000 O   0  0  0  0  0  0  0  0  0  0  0  0
   13.3161    5.2814    0.0000 N   0  0  0  0  0  0  0  0  0  0  0  0
   14.8159    5.2597    0.0000 C   0  0  0  0  0  0  0  0  0  0  0  0
   15.8246    6.3700    0.0000 C   0  0  0  0  0  0  0  0  0  0  0  0
   15.3674    7.7986    0.0000 C   0  0  0  0  0  0  0  0  0  0  0  0
   16.3760    8.9088    0.0000 C   0  0  0  0  0  0  0  0  0  0  0  0
   15.9189   10.3375    0.0000 C   0  0  0  0  0  0  0  0  0  0  0  0
   14.4530   10.6559    0.0000 C   0  0  0  0  0  0  0  0  0  0  0  0
   13.4444    9.5456    0.0000 C   0  0  0  0  0  0  0  0  0  0  0  0
   13.9016    8.1170    0.0000 C   0  0  0  0  0  0  0  0  0  0  0  0
   16.2428    4.7970    0.0000 C   0  0  0  0  0  0  0  0  0  0  0  0
   16.9130    6.1389    0.0000 O   0  0  0  0  0  0  0  0  0  0  0  0
   17.4698    3.9342    0.0000 N   0  0  0  0  0  0  0  0  0  0  0  0
   18.3880    2.7481    0.0000 C   0  0  0  0  0  0  0  0  0  0  0  0
   19.8849    2.6517    0.0000 C   0  0  0  0  0  0  0  0  0  0  0  0
   20.7168    3.8999    0.0000 C   0  0  0  0  0  0  0  0  0  0  0  0
   22.2137    3.8035    0.0000 C   0  0  0  0  0  0  0  0  0  0  0  0
   23.0456    5.0517    0.0000 C   0  0  0  0  0  0  0  0  0  0  0  0
   24.5425    4.9553    0.0000 N   0  0  0  0  0  0  0  0  0  0  0  0
   18.9158    1.3440    0.0000 C   0  0  0  0  0  0  0  0  0  0  0  0
   20.3829    1.6567    0.0000 O   0  0  0  0  0  0  0  0  0  0  0  0
   19.0064   -0.1532    0.0000 N   0  0  0  0  0  0  0  0  0  0  0  0
   18.6515   -1.6107    0.0000 C   0  0  0  0  0  0  0  0  0  0  0  0
   17.8829   -2.8988    0.0000 C   0  0  0  0  0  0  0  0  0  0  0  0
   16.7687   -3.9031    0.0000 C   0  0  0  0  0  0  0  0  0  0  0  0
   15.4080   -4.5343    0.0000 C   0  0  0  0  0  0  0  0  0  0  0  0
   13.9217   -4.7365    0.0000 C   0  0  0  0  0  0  0  0  0  0  0  0
   20.1259   -1.3347    0.0000 C   0  0  0  0  0  0  0  0  0  0  0  0
   19.5095   -2.8411    0.0000 C   0  0  0  0  0  0  0  0  0  0  0  0
   19.2205   -4.3130    0.0000 O   0  0  0  0  0  0  0  0  0  0  0  0
   21.0040   -2.7133    0.0000 N   0  0  0  0  0  0  0  0  0  0  0  0
   21.8620   -3.9437    0.0000 C   0  0  0  0  0  0  0  0  0  0  0  0
   22.2474   -5.3933    0.0000 C   0  0  0  0  0  0  0  0  0  0  0  0
   21.1847   -6.4519    0.0000 C   0  0  0  0  0  0  0  0  0  0  0  0
   21.5701   -7.9015    0.0000 C   0  0  0  0  0  0  0  0  0  0  0  0
   19.8240   -7.0832    0.0000 C   0  0  0  0  0  0  0  0  0  0  0  0
   23.3565   -3.8159    0.0000 C   0  0  0  0  0  0  0  0  0  0  0  0
   23.9931   -2.4576    0.0000 O   0  0  0  0  0  0  0  0  0  0  0  0
   24.2145   -5.0463    0.0000 N   0  0  0  0  0  0  0  0  0  0  0  0
   25.7091   -4.9185    0.0000 C   0  0  0  0  0  0  0  0  0  0  0  0
   27.0697   -4.2872    0.0000 C   0  0  0  0  0  0  0  0  0  0  0  0
   28.2968   -5.1499    0.0000 C   0  0  0  0  0  0  0  0  0  0  0  0
   26.5670   -6.1489    0.0000 C   0  0  0  0  0  0  0  0  0  0  0  0
   28.0660   -6.2042    0.0000 O   0  0  0  0  0  0  0  0  0  0  0  0
   25.9304   -7.5071    0.0000 O   0  0  0  0  0  0  0  0  0  0  0  0
  -27.2013   -1.8777    0.0000 H   0  0  0  0  0  0  0  0  0  0  0  0
  -27.4313    2.6089    0.0000 H   0  0  0  0  0  0  0  0  0  0  0  0
  -30.0450    4.0815    0.0000 H   0  0  0  0  0  0  0  0  0  0  0  0
  -29.7220   -1.4764    0.0000 H   0  0  0  0  0  0  0  0  0  0  0  0
  -36.5509   -3.6777    0.0000 H   0  0  0  0  0  0  0  0  0  0  0  0
  -37.6846    1.3933    0.0000 H   0  0  0  0  0  0  0  0  0  0  0  0
  -34.7569    2.0478    0.0000 H   0  0  0  0  0  0  0  0  0  0  0  0
  -39.5970   -0.3654    0.0000 H   0  0  0  0  0  0  0  0  0  0  0  0
  -29.7985    0.4941    0.0000 H   0  0  0  0  0  0  0  0  0  0  0  0
  -27.7388   -1.8949    0.0000 H   0  0  0  0  0  0  0  0  0  0  0  0
  -31.5925   -5.2314    0.0000 H   0  0  0  0  0  0  0  0  0  0  0  0
  -29.1133   -6.0082    0.0000 H   0  0  0  0  0  0  0  0  0  0  0  0
  -24.7861   -1.8635    0.0000 H   0  0  0  0  0  0  0  0  0  0  0  0
  -22.5587    1.5592    0.0000 H   0  0  0  0  0  0  0  0  0  0  0  0
  -24.4870    1.5389    0.0000 H   0  0  0  0  0  0  0  0  0  0  0  0
  -21.2277   -1.4751    0.0000 H   0  0  0  0  0  0  0  0  0  0  0  0
  -23.1560   -1.4954    0.0000 H   0  0  0  0  0  0  0  0  0  0  0  0
  -19.5902   -1.8089    0.0000 H   0  0  0  0  0  0  0  0  0  0  0  0
  -19.2911    1.5935    0.0000 H   0  0  0  0  0  0  0  0  0  0  0  0
  -17.0408    3.0788    0.0000 H   0  0  0  0  0  0  0  0  0  0  0  0
  -18.6697    2.3501    0.0000 H   0  0  0  0  0  0  0  0  0  0  0  0
  -14.6756    0.4788    0.0000 H   0  0  0  0  0  0  0  0  0  0  0  0
  -15.6584   -0.1142    0.0000 H   0  0  0  0  0  0  0  0  0  0  0  0
  -14.4327    3.9429    0.0000 H   0  0  0  0  0  0  0  0  0  0  0  0
  -16.1383    3.4181    0.0000 H   0  0  0  0  0  0  0  0  0  0  0  0
  -12.0642    1.7116    0.0000 H   0  0  0  0  0  0  0  0  0  0  0  0
  -13.7731    0.8180    0.0000 H   0  0  0  0  0  0  0  0  0  0  0  0
  -11.0600    3.0187    0.0000 H   0  0  0  0  0  0  0  0  0  0  0  0
  -13.0268    4.8463    0.0000 H   0  0  0  0  0  0  0  0  0  0  0  0
  -15.3693    1.9411    0.0000 H   0  0  0  0  0  0  0  0  0  0  0  0
  -15.4963   -1.2888    0.0000 H   0  0  0  0  0  0  0  0  0  0  0  0
  -12.2265   -2.2833    0.0000 H   0  0  0  0  0  0  0  0  0  0  0  0
  -12.2297   -0.4989    0.0000 H   0  0  0  0  0  0  0  0  0  0  0  0
  -14.8841   -3.9672    0.0000 H   0  0  0  0  0  0  0  0  0  0  0  0
  -15.3189   -2.2365    0.0000 H   0  0  0  0  0  0  0  0  0  0  0  0
  -12.4778   -6.5006    0.0000 H   0  0  0  0  0  0  0  0  0  0  0  0
  -14.9284   -5.6378    0.0000 H   0  0  0  0  0  0  0  0  0  0  0  0
  -11.6137   -1.7138    0.0000 H   0  0  0  0  0  0  0  0  0  0  0  0
  -11.3512    1.7860    0.0000 H   0  0  0  0  0  0  0  0  0  0  0  0
   -9.2470    3.1608    0.0000 H   0  0  0  0  0  0  0  0  0  0  0  0
  -10.9559    2.2672    0.0000 H   0  0  0  0  0  0  0  0  0  0  0  0
   -6.8818    0.5607    0.0000 H   0  0  0  0  0  0  0  0  0  0  0  0
   -7.8646   -0.0323    0.0000 H   0  0  0  0  0  0  0  0  0  0  0  0
   -6.6389    4.0248    0.0000 H   0  0  0  0  0  0  0  0  0  0  0  0
   -8.3445    3.5001    0.0000 H   0  0  0  0  0  0  0  0  0  0  0  0
   -4.2704    1.7935    0.0000 H   0  0  0  0  0  0  0  0  0  0  0  0
   -5.9793    0.9000    0.0000 H   0  0  0  0  0  0  0  0  0  0  0  0
   -3.2662    3.1007    0.0000 H   0  0  0  0  0  0  0  0  0  0  0  0
   -5.2330    4.9282    0.0000 H   0  0  0  0  0  0  0  0  0  0  0  0
   -7.5755    2.0231    0.0000 H   0  0  0  0  0  0  0  0  0  0  0  0
   -7.7025   -1.2068    0.0000 H   0  0  0  0  0  0  0  0  0  0  0  0
   -4.3332   -2.0476    0.0000 H   0  0  0  0  0  0  0  0  0  0  0  0
   -4.4359   -0.4169    0.0000 H   0  0  0  0  0  0  0  0  0  0  0  0
   -7.0903   -3.8853    0.0000 H   0  0  0  0  0  0  0  0  0  0  0  0
   -7.5251   -2.1546    0.0000 H   0  0  0  0  0  0  0  0  0  0  0  0
   -3.8552   -4.6013    0.0000 H   0  0  0  0  0  0  0  0  0  0  0  0
   -4.0758   -2.8305    0.0000 H   0  0  0  0  0  0  0  0  0  0  0  0
   -7.1346   -5.5558    0.0000 H   0  0  0  0  0  0  0  0  0  0  0  0
   -4.2060   -8.9724    0.0000 H   0  0  0  0  0  0  0  0  0  0  0  0
   -2.2335   -7.2816    0.0000 H   0  0  0  0  0  0  0  0  0  0  0  0
   -2.7115   -4.7279    0.0000 H   0  0  0  0  0  0  0  0  0  0  0  0
   -3.8199   -1.6319    0.0000 H   0  0  0  0  0  0  0  0  0  0  0  0
   -3.5574    1.8679    0.0000 H   0  0  0  0  0  0  0  0  0  0  0  0
   -1.4532    3.2427    0.0000 H   0  0  0  0  0  0  0  0  0  0  0  0
   -3.1621    2.3492    0.0000 H   0  0  0  0  0  0  0  0  0  0  0  0
    0.9120    0.6426    0.0000 H   0  0  0  0  0  0  0  0  0  0  0  0
   -0.0709    0.0496    0.0000 H   0  0  0  0  0  0  0  0  0  0  0  0
    1.1549    4.1067    0.0000 H   0  0  0  0  0  0  0  0  0  0  0  0
   -0.5507    3.5820    0.0000 H   0  0  0  0  0  0  0  0  0  0  0  0
    3.5234    1.8754    0.0000 H   0  0  0  0  0  0  0  0  0  0  0  0
    1.8145    0.9819    0.0000 H   0  0  0  0  0  0  0  0  0  0  0  0
    4.5276    3.1826    0.0000 H   0  0  0  0  0  0  0  0  0  0  0  0
    2.5608    5.0102    0.0000 H   0  0  0  0  0  0  0  0  0  0  0  0
    0.2183    2.1050    0.0000 H   0  0  0  0  0  0  0  0  0  0  0  0
    0.2254   -1.2496    0.0000 H   0  0  0  0  0  0  0  0  0  0  0  0
    3.3611   -2.1194    0.0000 H   0  0  0  0  0  0  0  0  0  0  0  0
    3.3579   -0.3350    0.0000 H   0  0  0  0  0  0  0  0  0  0  0  0
   -0.9266   -1.9088    0.0000 H   0  0  0  0  0  0  0  0  0  0  0  0
   -1.7915   -4.6110    0.0000 H   0  0  0  0  0  0  0  0  0  0  0  0
    0.1610   -6.8887    0.0000 H   0  0  0  0  0  0  0  0  0  0  0  0
    3.1097   -6.3368    0.0000 H   0  0  0  0  0  0  0  0  0  0  0  0
    4.1061   -3.5071    0.0000 H   0  0  0  0  0  0  0  0  0  0  0  0
    3.9739   -1.5500    0.0000 H   0  0  0  0  0  0  0  0  0  0  0  0
    4.2364    1.9498    0.0000 H   0  0  0  0  0  0  0  0  0  0  0  0
    6.5167    3.2745    0.0000 H   0  0  0  0  0  0  0  0  0  0  0  0
    4.6317    2.4311    0.0000 H   0  0  0  0  0  0  0  0  0  0  0  0
    8.3898    2.8937    0.0000 H   0  0  0  0  0  0  0  0  0  0  0  0
    7.6487    2.2277    0.0000 H   0  0  0  0  0  0  0  0  0  0  0  0
    7.7902   -1.3382    0.0000 H   0  0  0  0  0  0  0  0  0  0  0  0
    8.3909   -2.6807    0.0000 H   0  0  0  0  0  0  0  0  0  0  0  0
    8.5959   -3.2710    0.0000 H   0  0  0  0  0  0  0  0  0  0  0  0
    9.3482   -4.1289    0.0000 H   0  0  0  0  0  0  0  0  0  0  0  0
    9.7884   -4.5493    0.0000 H   0  0  0  0  0  0  0  0  0  0  0  0
   11.0409   -5.3201    0.0000 H   0  0  0  0  0  0  0  0  0  0  0  0
   11.9791   -5.9184    0.0000 H   0  0  0  0  0  0  0  0  0  0  0  0
    7.5218   -2.4029    0.0000 H   0  0  0  0  0  0  0  0  0  0  0  0
    6.4032   -1.4774    0.0000 H   0  0  0  0  0  0  0  0  0  0  0  0
    6.8264    0.2754    0.0000 H   0  0  0  0  0  0  0  0  0  0  0  0
    8.3849    3.6424    0.0000 H   0  0  0  0  0  0  0  0  0  0  0  0
    9.1770    4.4240    0.0000 H   0  0  0  0  0  0  0  0  0  0  0  0
   10.6677    6.9870    0.0000 H   0  0  0  0  0  0  0  0  0  0  0  0
   11.8464    5.8557    0.0000 H   0  0  0  0  0  0  0  0  0  0  0  0
    9.9076    8.4754    0.0000 H   0  0  0  0  0  0  0  0  0  0  0  0
    7.1037    9.5420    0.0000 H   0  0  0  0  0  0  0  0  0  0  0  0
    4.7780    7.6469    0.0000 H   0  0  0  0  0  0  0  0  0  0  0  0
    5.2562    4.6853    0.0000 H   0  0  0  0  0  0  0  0  0  0  0  0
    7.8779    3.6006    0.0000 H   0  0  0  0  0  0  0  0  0  0  0  0
   12.9343    6.7319    0.0000 H   0  0  0  0  0  0  0  0  0  0  0  0
   14.2188    6.6357    0.0000 H   0  0  0  0  0  0  0  0  0  0  0  0
   17.1521    7.0683    0.0000 H   0  0  0  0  0  0  0  0  0  0  0  0
   17.0025    5.4413    0.0000 H   0  0  0  0  0  0  0  0  0  0  0  0
   17.8419    8.5904    0.0000 H   0  0  0  0  0  0  0  0  0  0  0  0
   16.9275   11.4477    0.0000 H   0  0  0  0  0  0  0  0  0  0  0  0
   13.9959   12.0845    0.0000 H   0  0  0  0  0  0  0  0  0  0  0  0
   11.9786    9.8640    0.0000 H   0  0  0  0  0  0  0  0  0  0  0  0
   12.7651    7.1380    0.0000 H   0  0  0  0  0  0  0  0  0  0  0  0
   18.5058    5.0190    0.0000 H   0  0  0  0  0  0  0  0  0  0  0  0
   18.9248    4.1488    0.0000 H   0  0  0  0  0  0  0  0  0  0  0  0
   21.1749    1.8863    0.0000 H   0  0  0  0  0  0  0  0  0  0  0  0
   19.8933    1.1517    0.0000 H   0  0  0  0  0  0  0  0  0  0  0  0
   20.8914    5.3897    0.0000 H   0  0  0  0  0  0  0  0  0  0  0  0
   19.4269    4.6654    0.0000 H   0  0  0  0  0  0  0  0  0  0  0  0
   23.5874    3.2010    0.0000 H   0  0  0  0  0  0  0  0  0  0  0  0
   22.0392    2.3137    0.0000 H   0  0  0  0  0  0  0  0  0  0  0  0
   23.4005    6.5091    0.0000 H   0  0  0  0  0  0  0  0  0  0  0  0
   21.7557    5.8172    0.0000 H   0  0  0  0  0  0  0  0  0  0  0  0
   25.3744    6.2035    0.0000 H   0  0  0  0  0  0  0  0  0  0  0  0
   25.2075    3.6108    0.0000 H   0  0  0  0  0  0  0  0  0  0  0  0
   20.5004   -0.2869    0.0000 H   0  0  0  0  0  0  0  0  0  0  0  0
   18.3401   -4.3274    0.0000 H   0  0  0  0  0  0  0  0  0  0  0  0
   19.2875   -3.4251    0.0000 H   0  0  0  0  0  0  0  0  0  0  0  0
   16.9672   -5.3899    0.0000 H   0  0  0  0  0  0  0  0  0  0  0  0
   17.9558   -4.8201    0.0000 H   0  0  0  0  0  0  0  0  0  0  0  0
   14.9810   -5.9723    0.0000 H   0  0  0  0  0  0  0  0  0  0  0  0
   16.4150   -5.6460    0.0000 H   0  0  0  0  0  0  0  0  0  0  0  0
   13.9001   -6.2363    0.0000 H   0  0  0  0  0  0  0  0  0  0  0  0
   21.3487   -2.2035    0.0000 H   0  0  0  0  0  0  0  0  0  0  0  0
   21.3143   -0.4194    0.0000 H   0  0  0  0  0  0  0  0  0  0  0  0
   19.9535    0.1554    0.0000 H   0  0  0  0  0  0  0  0  0  0  0  0
   21.8014   -1.4428    0.0000 H   0  0  0  0  0  0  0  0  0  0  0  0
   20.4345   -4.4044    0.0000 H   0  0  0  0  0  0  0  0  0  0  0  0
   23.1054   -6.6237    0.0000 H   0  0  0  0  0  0  0  0  0  0  0  0
   23.7204   -5.1101    0.0000 H   0  0  0  0  0  0  0  0  0  0  0  0
   20.1831   -5.3353    0.0000 H   0  0  0  0  0  0  0  0  0  0  0  0
   20.6443   -9.0818    0.0000 H   0  0  0  0  0  0  0  0  0  0  0  0
   22.4280   -9.1320    0.0000 H   0  0  0  0  0  0  0  0  0  0  0  0
   22.9976   -7.4408    0.0000 H   0  0  0  0  0  0  0  0  0  0  0  0
   19.5092   -8.5498    0.0000 H   0  0  0  0  0  0  0  0  0  0  0  0
   18.3294   -7.2110    0.0000 H   0  0  0  0  0  0  0  0  0  0  0  0
   19.4386   -5.6335    0.0000 H   0  0  0  0  0  0  0  0  0  0  0  0
   23.7482   -6.4720    0.0000 H   0  0  0  0  0  0  0  0  0  0  0  0
   25.3237   -3.4688    0.0000 H   0  0  0  0  0  0  0  0  0  0  0  0
   28.1325   -3.2286    0.0000 H   0  0  0  0  0  0  0  0  0  0  0  0
   26.2118   -3.0568    0.0000 H   0  0  0  0  0  0  0  0  0  0  0  0
   29.6575   -4.5187    0.0000 H   0  0  0  0  0  0  0  0  0  0  0  0
   29.1548   -6.3804    0.0000 H   0  0  0  0  0  0  0  0  0  0  0  0
   27.6841   -6.5191    0.0000 H   0  0  0  0  0  0  0  0  0  0  0  0
   26.7884   -8.7375    0.0000 H   0  0  0  0  0  0  0  0  0  0  0  0
  1  2  1  0
  2  3  1  0
  3  4  2  0
  4  5  1  0
  5  6  2  0
  6  7  1  0
  7  8  2  0
  7  9  1  0
  9 10  1  0
 10 11  1  0
 11 12  2  0
  9 13  1  0
 13 14  1  0
 14 15  2  0
 15 16  1  0
 16 17  2  0
 17 18  1  0
 16 19  1  0
 14 20  1  0
 20 21  1  0
 21 22  2  0
 22 23  1  0
 23 24  2  0
 24 25  1  0
 25 26  2  0
 25 27  1  0
  1 28  2  0
  1 29  1  0
 29 30  1  0
 30 31  1  0
 31 32  1  0
 32 33  2  0
 32 34  1  0
 34 35  1  0
 35 36  1  0
 36 37  1  0
 37 38  1  0
 38 39  1  0
 39 40  1  0
 35 41  1  0
 41 42  2  0
 41 43  1  0
 43 44  1  0
 44 45  1  0
 45 46  1  0
 46 47  1  0
 47 48  1  0
 47 49  2  0
 44 50  1  0
 50 51  2  0
 50 52  1  0
 52 53  1  0
 53 54  1  0
 54 55  1  0
 55 56  1  0
 56 57  1  0
 57 58  1  0
 53 59  1  0
 59 60  2  0
 59 61  1  0
 61 62  1  0
 62 63  1  0
 63 64  1  0
 64 65  1  0
 65 66  1  0
 66 67  1  0
 67 68  2  3
 67 69  1  0
 62 70  1  0
 70 71  2  0
 70 72  1  0
 72 73  1  0
 73 74  1  0
 74 75  1  0
 75 76  1  0
 76 77  1  0
 77 78  1  0
 73 79  1  0
 79 80  2  0
 79 81  1  0
 81 82  1  0
 82 83  1  0
 83 84  1  0
 84 85  2  0
 85 86  1  0
 86 87  2  0
 87 88  1  0
 88 89  2  0
 82 90  1  0
 90 91  2  0
 90 92  1  0
 92 93  1  0
 93 94  1  0
 94 95  1  0
 93 96  1  0
 96 97  2  0
 96 98  1  0
 99 98  1  6
 99100  1  0
100101  1  0
101102  1  0
102103  1  0
 99104  1  0
 99105  1  0
105106  2  0
105107  1  0
107108  1  0
108109  1  0
109110  1  0
110111  2  0
111112  1  0
112113  2  0
113114  1  0
114115  2  0
108116  1  0
116117  2  0
116118  1  0
118119  1  0
119120  1  0
120121  1  0
121122  2  0
122123  1  0
123124  2  0
124125  1  0
125126  2  0
119127  1  0
127128  2  0
127129  1  0
129130  1  0
130131  1  0
131132  1  0
132133  1  0
133134  1  0
134135  1  0
130136  1  0
136137  2  0
136138  1  0
138139  1  0
139140  1  0
140141  1  0
141142  1  0
142143  1  0
139144  1  0
139145  1  6
145146  2  0
145147  1  0
147148  1  0
148149  1  0
149150  1  0
150151  1  0
150152  1  0
148153  1  0
153154  2  0
153155  1  0
155156  1  0
156157  1  0
157158  1  0
156159  1  0
159160  2  0
159161  1  0
  8  3  1  0
 89 84  1  0
115110  1  0
126121  1  0
 11  6  1  0
103143  2  0
 18 13  2  0
 22  9  1  0
 26 21  1  0
  2162  1  0
  4163  1  0
  5164  1  0
  8165  1  0
 15166  1  0
 17167  1  0
 18168  1  0
 19169  1  0
 23170  1  0
 24171  1  0
 26172  1  0
 27173  1  0
 29174  1  0
 30175  1  0
 30176  1  0
 31177  1  0
 31178  1  0
 34179  1  0
 35180  1  1
 36181  1  0
 36182  1  0
 37183  1  0
 37184  1  0
 38185  1  0
 38186  1  0
 39187  1  0
 39188  1  0
 40189  1  0
 40190  1  0
 43191  1  0
 44192  1  6
 45193  1  0
 45194  1  0
 46195  1  0
 46196  1  0
 48197  1  0
 48198  1  0
 52199  1  0
 53200  1  1
 54201  1  0
 54202  1  0
 55203  1  0
 55204  1  0
 56205  1  0
 56206  1  0
 57207  1  0
 57208  1  0
 58209  1  0
 58210  1  0
 61211  1  0
 62212  1  6
 63213  1  0
 63214  1  0
 64215  1  0
 64216  1  0
 65217  1  0
 65218  1  0
 66219  1  0
 68220  1  0
 69221  1  0
 69222  1  0
 72223  1  0
 73224  1  1
 74225  1  0
 74226  1  0
 75227  1  0
 75228  1  0
 76229  1  0
 76230  1  0
 77231  1  0
 77232  1  0
 78233  1  0
 78234  1  0
 81235  1  0
 82236  1  6
 83237  1  0
 83238  1  0
 85239  1  0
 86240  1  0
 87241  1  0
 88242  1  0
 89243  1  0
 92244  1  0
 93245  1  1
 94246  1  0
 94247  1  0
 95248  1  0
 98249  1  0
100250  1  0
100251  1  0
101252  1  0
101253  1  0
102254  1  0
102255  1  0
103256  1  0
104257  1  0
104258  1  0
104259  1  0
107260  1  0
108261  1  1
109262  1  0
109263  1  0
111264  1  0
112265  1  0
113266  1  0
114267  1  0
115268  1  0
118269  1  0
119270  1  1
120271  1  0
120272  1  0
122273  1  0
123274  1  0
124275  1  0
125276  1  0
126277  1  0
129278  1  0
130279  1  1
131280  1  0
131281  1  0
132282  1  0
132283  1  0
133284  1  0
133285  1  0
134286  1  0
134287  1  0
135288  1  0
135289  1  0
138290  1  0
140291  1  0
140292  1  0
141293  1  0
141294  1  0
142295  1  0
142296  1  0
143297  1  0
144298  1  0
144299  1  0
144300  1  0
147301  1  0
148302  1  6
149303  1  0
149304  1  0
150305  1  0
151306  1  0
151307  1  0
151308  1  0
152309  1  0
152310  1  0
152311  1  0
155312  1  0
156313  1  1
157314  1  0
157315  1  0
158316  1  0
158317  1  0
158318  1  0
161319  1  0
M  END
