
     RDKit          2D

455464  0  0  0  0  0  0  0  0999 V2000
   39.7733    0.7393    0.0000 C   0  0  0  0  0  0  0  0  0  0  0  0
   41.0746    1.4854    0.0000 N   0  0  0  0  0  0  0  0  0  0  0  0
   42.3714    0.7315    0.0000 C   0  0  0  0  0  0  0  0  0  0  0  0
   42.3669   -0.7685    0.0000 C   0  0  0  0  0  0  0  0  0  0  0  0
   43.6637   -1.5224    0.0000 C   0  0  0  0  0  0  0  0  0  0  0  0
   44.9649   -0.7763    0.0000 C   0  0  0  0  0  0  0  0  0  0  0  0
   44.9694    0.7237    0.0000 C   0  0  0  0  0  0  0  0  0  0  0  0
   43.6727    1.4776    0.0000 C   0  0  0  0  0  0  0  0  0  0  0  0
   46.3974    1.1830    0.0000 C   0  0  0  0  0  0  0  0  0  0  0  0
   47.2754   -0.0332    0.0000 O   0  0  0  0  0  0  0  0  0  0  0  0
   46.3901   -1.2441    0.0000 C   0  0  0  0  0  0  0  0  0  0  0  0
   46.8494   -2.6720    0.0000 O   0  0  0  0  0  0  0  0  0  0  0  0
   47.8656    1.4904    0.0000 C   0  0  0  0  0  0  0  0  0  0  0  0
   48.3334    2.9156    0.0000 C   0  0  0  0  0  0  0  0  0  0  0  0
   49.8015    3.2231    0.0000 C   0  0  0  0  0  0  0  0  0  0  0  0
   50.8019    2.1054    0.0000 C   0  0  0  0  0  0  0  0  0  0  0  0
   50.3341    0.6802    0.0000 C   0  0  0  0  0  0  0  0  0  0  0  0
   48.8659    0.3727    0.0000 C   0  0  0  0  0  0  0  0  0  0  0  0
   52.2700    2.4129    0.0000 O   0  0  0  0  0  0  0  0  0  0  0  0
   47.3330    4.0333    0.0000 O   0  0  0  0  0  0  0  0  0  0  0  0
   45.8649    3.7259    0.0000 C   0  0  0  0  0  0  0  0  0  0  0  0
   45.3971    2.3007    0.0000 C   0  0  0  0  0  0  0  0  0  0  0  0
   44.1472    2.6583    0.0000 C   0  0  0  0  0  0  0  0  0  0  0  0
   43.6137    3.2544    0.0000 C   0  0  0  0  0  0  0  0  0  0  0  0
   43.8632    4.0145    0.0000 C   0  0  0  0  0  0  0  0  0  0  0  0
   44.6462    4.1785    0.0000 C   0  0  0  0  0  0  0  0  0  0  0  0
   42.3960    5.6538    0.0000 O   0  0  0  0  0  0  0  0  0  0  0  0
   39.7688   -0.7607    0.0000 S   0  0  0  0  0  0  0  0  0  0  0  0
   38.4765    1.4932    0.0000 N   0  0  0  0  0  0  0  0  0  0  0  0
   37.1752    0.7471    0.0000 C   0  0  0  0  0  0  0  0  0  0  0  0
   35.8785    1.5009    0.0000 C   0  0  0  0  0  0  0  0  0  0  0  0
   34.5772    0.7548    0.0000 C   0  0  0  0  0  0  0  0  0  0  0  0
   34.5727   -0.7452    0.0000 O   0  0  0  0  0  0  0  0  0  0  0  0
   33.2804    1.5087    0.0000 N   0  0  0  0  0  0  0  0  0  0  0  0
   31.9791    0.7626    0.0000 C   0  0  0  0  0  0  0  0  0  0  0  0
   31.0115   -0.3836    0.0000 C   0  0  0  0  0  0  0  0  0  0  0  0
   29.5351   -0.1187    0.0000 C   0  0  0  0  0  0  0  0  0  0  0  0
   28.5675   -1.2648    0.0000 N   0  0  0  0  0  0  0  0  0  0  0  0
   29.0913    0.5435    0.0000 O   0  0  0  0  0  0  0  0  0  0  0  0
   30.6823    1.5165    0.0000 C   0  0  0  0  0  0  0  0  0  0  0  0
   30.6868    3.0165    0.0000 O   0  0  0  0  0  0  0  0  0  0  0  0
   29.3811    0.7704    0.0000 N   0  0  0  0  0  0  0  0  0  0  0  0
   28.0843    1.5243    0.0000 C   0  0  0  0  0  0  0  0  0  0  0  0
   27.1235    2.6762    0.0000 C   0  0  0  0  0  0  0  0  0  0  0  0
   25.6455    2.4202    0.0000 C   0  0  0  0  0  0  0  0  0  0  0  0
   24.6848    3.5721    0.0000 C   0  0  0  0  0  0  0  0  0  0  0  0
   23.1866    3.4982    0.0000 O   0  0  0  0  0  0  0  0  0  0  0  0
   25.2021    4.9801    0.0000 O   0  0  0  0  0  0  0  0  0  0  0  0
   26.7830    0.7782    0.0000 C   0  0  0  0  0  0  0  0  0  0  0  0
   26.5957   -0.7101    0.0000 O   0  0  0  0  0  0  0  0  0  0  0  0
   25.4862    1.5321    0.0000 N   0  0  0  0  0  0  0  0  0  0  0  0
   24.1849    0.7860    0.0000 C   0  0  0  0  0  0  0  0  0  0  0  0
   23.2173   -0.3602    0.0000 C   0  0  0  0  0  0  0  0  0  0  0  0
   21.7409   -0.0953    0.0000 C   0  0  0  0  0  0  0  0  0  0  0  0
   20.7733   -1.2415    0.0000 C   0  0  0  0  0  0  0  0  0  0  0  0
   20.4441    0.6586    0.0000 C   0  0  0  0  0  0  0  0  0  0  0  0
   22.8881    1.5398    0.0000 C   0  0  0  0  0  0  0  0  0  0  0  0
   22.7098    3.0292    0.0000 O   0  0  0  0  0  0  0  0  0  0  0  0
   21.5869    0.7937    0.0000 N   0  0  0  0  0  0  0  0  0  0  0  0
   20.2901    1.5476    0.0000 C   0  0  0  0  0  0  0  0  0  0  0  0
   19.3293    2.6996    0.0000 C   0  0  0  0  0  0  0  0  0  0  0  0
   19.8466    4.1076    0.0000 C   0  0  0  0  0  0  0  0  0  0  0  0
   18.8859    5.2595    0.0000 C   0  0  0  0  0  0  0  0  0  0  0  0
   19.4031    6.6675    0.0000 C   0  0  0  0  0  0  0  0  0  0  0  0
   18.4424    7.8195    0.0000 N   0  0  0  0  0  0  0  0  0  0  0  0
   18.9888    0.8015    0.0000 C   0  0  0  0  0  0  0  0  0  0  0  0
   18.8015   -0.6867    0.0000 O   0  0  0  0  0  0  0  0  0  0  0  0
   17.6920    1.5554    0.0000 N   0  0  0  0  0  0  0  0  0  0  0  0
   16.3907    0.8093    0.0000 C   0  0  0  0  0  0  0  0  0  0  0  0
   16.0891   -0.6601    0.0000 C   0  0  0  0  0  0  0  0  0  0  0  0
   15.3678   -1.9752    0.0000 C   0  0  0  0  0  0  0  0  0  0  0  0
   14.2909   -3.0194    0.0000 C   0  0  0  0  0  0  0  0  0  0  0  0
   12.9540   -3.6997    0.0000 C   0  0  0  0  0  0  0  0  0  0  0  0
   17.7041    0.0847    0.0000 C   0  0  0  0  0  0  0  0  0  0  0  0
   16.2459    2.3023    0.0000 C   0  0  0  0  0  0  0  0  0  0  0  0
   17.5688    3.0092    0.0000 O   0  0  0  0  0  0  0  0  0  0  0  0
   15.6673    3.6862    0.0000 N   0  0  0  0  0  0  0  0  0  0  0  0
   14.7066    4.8382    0.0000 C   0  0  0  0  0  0  0  0  0  0  0  0
   14.9346    6.3208    0.0000 C   0  0  0  0  0  0  0  0  0  0  0  0
   16.3326    6.8646    0.0000 O   0  0  0  0  0  0  0  0  0  0  0  0
   13.4490    5.6558    0.0000 C   0  0  0  0  0  0  0  0  0  0  0  0
   14.0700    7.0212    0.0000 O   0  0  0  0  0  0  0  0  0  0  0  0
   12.0063    6.0664    0.0000 N   0  0  0  0  0  0  0  0  0  0  0  0
   10.5067    6.0335    0.0000 C   0  0  0  0  0  0  0  0  0  0  0  0
    9.4897    7.1361    0.0000 C   0  0  0  0  0  0  0  0  0  0  0  0
    9.9361    8.5681    0.0000 C   0  0  0  0  0  0  0  0  0  0  0  0
   11.3995    8.8975    0.0000 C   0  0  0  0  0  0  0  0  0  0  0  0
   11.8459   10.3295    0.0000 C   0  0  0  0  0  0  0  0  0  0  0  0
   10.8290   11.4322    0.0000 C   0  0  0  0  0  0  0  0  0  0  0  0
    9.3656   11.1028    0.0000 C   0  0  0  0  0  0  0  0  0  0  0  0
    8.9192    9.6707    0.0000 C   0  0  0  0  0  0  0  0  0  0  0  0
    9.0833    5.5600    0.0000 C   0  0  0  0  0  0  0  0  0  0  0  0
    8.4030    6.8968    0.0000 O   0  0  0  0  0  0  0  0  0  0  0  0
    7.8628    4.6880    0.0000 N   0  0  0  0  0  0  0  0  0  0  0  0
    6.9535    3.4950    0.0000 C   0  0  0  0  0  0  0  0  0  0  0  0
    5.4574    3.3874    0.0000 C   0  0  0  0  0  0  0  0  0  0  0  0
    4.6161    4.6293    0.0000 C   0  0  0  0  0  0  0  0  0  0  0  0
    5.2710    5.9788    0.0000 C   0  0  0  0  0  0  0  0  0  0  0  0
    4.4297    7.2207    0.0000 C   0  0  0  0  0  0  0  0  0  0  0  0
    2.9336    7.1131    0.0000 C   0  0  0  0  0  0  0  0  0  0  0  0
    2.2787    5.7636    0.0000 C   0  0  0  0  0  0  0  0  0  0  0  0
    3.1200    4.5217    0.0000 C   0  0  0  0  0  0  0  0  0  0  0  0
    6.4363    2.0870    0.0000 C   0  0  0  0  0  0  0  0  0  0  0  0
    4.9669    2.3887    0.0000 O   0  0  0  0  0  0  0  0  0  0  0  0
    6.3570    0.5891    0.0000 N   0  0  0  0  0  0  0  0  0  0  0  0
    6.7228   -0.8656    0.0000 C   0  0  0  0  0  0  0  0  0  0  0  0
    7.5011   -2.1479    0.0000 C   0  0  0  0  0  0  0  0  0  0  0  0
    8.6228   -3.1437    0.0000 C   0  0  0  0  0  0  0  0  0  0  0  0
    9.9882   -3.7648    0.0000 C   0  0  0  0  0  0  0  0  0  0  0  0
   11.4760   -3.9557    0.0000 C   0  0  0  0  0  0  0  0  0  0  0  0
    5.2464   -0.6007    0.0000 C   0  0  0  0  0  0  0  0  0  0  0  0
    5.8741   -2.1024    0.0000 C   0  0  0  0  0  0  0  0  0  0  0  0
    6.1742   -3.5721    0.0000 O   0  0  0  0  0  0  0  0  0  0  0  0
    4.3787   -1.9858    0.0000 N   0  0  0  0  0  0  0  0  0  0  0  0
    3.5300   -3.2226    0.0000 C   0  0  0  0  0  0  0  0  0  0  0  0
    3.1555   -4.6751    0.0000 C   0  0  0  0  0  0  0  0  0  0  0  0
    1.7103   -5.0771    0.0000 C   0  0  0  0  0  0  0  0  0  0  0  0
    1.3358   -6.5296    0.0000 C   0  0  0  0  0  0  0  0  0  0  0  0
    0.2149   -4.9605    0.0000 C   0  0  0  0  0  0  0  0  0  0  0  0
    2.0345   -3.1061    0.0000 C   0  0  0  0  0  0  0  0  0  0  0  0
    1.3877   -1.7527    0.0000 O   0  0  0  0  0  0  0  0  0  0  0  0
    1.1858   -4.3429    0.0000 N   0  0  0  0  0  0  0  0  0  0  0  0
   -0.3096   -4.2263    0.0000 C   0  0  0  0  0  0  0  0  0  0  0  0
   -1.6750   -3.6053    0.0000 C   0  0  0  0  0  0  0  0  0  0  0  0
   -1.8199   -2.1123    0.0000 C   0  0  0  0  0  0  0  0  0  0  0  0
   -3.1853   -1.4913    0.0000 C   0  0  0  0  0  0  0  0  0  0  0  0
   -3.3302    0.0017    0.0000 N   0  0  0  0  0  0  0  0  0  0  0  0
   -4.6956    0.6227    0.0000 C   0  0  0  0  0  0  0  0  0  0  0  0
   -4.8405    2.1157    0.0000 N   0  0  0  0  0  0  0  0  0  0  0  0
   -5.9161   -0.2492    0.0000 N   0  0  0  0  0  0  0  0  0  0  0  0
   -1.1583   -5.4631    0.0000 C   0  0  0  0  0  0  0  0  0  0  0  0
   -0.6814   -6.8853    0.0000 O   0  0  0  0  0  0  0  0  0  0  0  0
   -2.6538   -5.3466    0.0000 N   0  0  0  0  0  0  0  0  0  0  0  0
   -3.5025   -6.5834    0.0000 C   0  0  0  0  0  0  0  0  0  0  0  0
   -3.8770   -8.0359    0.0000 C   0  0  0  0  0  0  0  0  0  0  0  0
   -5.3221   -8.4378    0.0000 C   0  0  0  0  0  0  0  0  0  0  0  0
   -5.6966   -9.8903    0.0000 O   0  0  0  0  0  0  0  0  0  0  0  0
   -6.6152   -7.6776    0.0000 O   0  0  0  0  0  0  0  0  0  0  0  0
   -4.9979   -6.4668    0.0000 C   0  0  0  0  0  0  0  0  0  0  0  0
   -5.6447   -5.1134    0.0000 O   0  0  0  0  0  0  0  0  0  0  0  0
   -5.8466   -7.7036    0.0000 N   0  0  0  0  0  0  0  0  0  0  0  0
   -7.3421   -7.5871    0.0000 C   0  0  0  0  0  0  0  0  0  0  0  0
   -8.7075   -6.9660    0.0000 C   0  0  0  0  0  0  0  0  0  0  0  0
   -9.9280   -7.8380    0.0000 C   0  0  0  0  0  0  0  0  0  0  0  0
  -11.2934   -7.2170    0.0000 C   0  0  0  0  0  0  0  0  0  0  0  0
  -12.6111   -7.9337    0.0000 N   0  0  0  0  0  0  0  0  0  0  0  0
  -11.4383   -5.7240    0.0000 O   0  0  0  0  0  0  0  0  0  0  0  0
   -8.1908   -8.8239    0.0000 C   0  0  0  0  0  0  0  0  0  0  0  0
   -7.5440  -10.1773    0.0000 O   0  0  0  0  0  0  0  0  0  0  0  0
   -9.6862   -8.7073    0.0000 N   0  0  0  0  0  0  0  0  0  0  0  0
  -10.5349   -9.9441    0.0000 C   0  0  0  0  0  0  0  0  0  0  0  0
  -10.9094  -11.3966    0.0000 C   0  0  0  0  0  0  0  0  0  0  0  0
  -12.2144  -12.1363    0.0000 C   0  0  0  0  0  0  0  0  0  0  0  0
  -10.7645  -12.8896    0.0000 C   0  0  0  0  0  0  0  0  0  0  0  0
   -9.3991  -13.5106    0.0000 C   0  0  0  0  0  0  0  0  0  0  0  0
  -12.0304   -9.8276    0.0000 C   0  0  0  0  0  0  0  0  0  0  0  0
  -12.8373   -8.5631    0.0000 O   0  0  0  0  0  0  0  0  0  0  0  0
  -12.8791  -11.0644    0.0000 N   0  0  0  0  0  0  0  0  0  0  0  0
  -12.3773  -12.4780    0.0000 C   0  0  0  0  0  0  0  0  0  0  0  0
  -13.5667  -13.3920    0.0000 C   0  0  0  0  0  0  0  0  0  0  0  0
  -14.8035  -12.5433    0.0000 C   0  0  0  0  0  0  0  0  0  0  0  0
  -14.3785  -11.1048    0.0000 C   0  0  0  0  0  0  0  0  0  0  0  0
  -15.8536  -10.8325    0.0000 C   0  0  0  0  0  0  0  0  0  0  0  0
  -16.9588  -11.8467    0.0000 O   0  0  0  0  0  0  0  0  0  0  0  0
  -16.3554   -9.4189    0.0000 N   0  0  0  0  0  0  0  0  0  0  0  0
  -17.8305   -9.1467    0.0000 C   0  0  0  0  0  0  0  0  0  0  0  0
  -19.3097   -9.3953    0.0000 C   0  0  0  0  0  0  0  0  0  0  0  0
  -20.2647   -8.2386    0.0000 C   0  0  0  0  0  0  0  0  0  0  0  0
  -21.7439   -8.4873    0.0000 C   0  0  0  0  0  0  0  0  0  0  0  0
  -22.8328   -7.4556    0.0000 O   0  0  0  0  0  0  0  0  0  0  0  0
  -22.2682   -9.8927    0.0000 O   0  0  0  0  0  0  0  0  0  0  0  0
  -18.3322   -7.7331    0.0000 C   0  0  0  0  0  0  0  0  0  0  0  0
  -17.3589   -6.5917    0.0000 O   0  0  0  0  0  0  0  0  0  0  0  0
  -19.8073   -7.4608    0.0000 N   0  0  0  0  0  0  0  0  0  0  0  0
  -20.3091   -6.0472    0.0000 C   0  0  0  0  0  0  0  0  0  0  0  0
  -20.2971   -4.5473    0.0000 C   0  0  0  0  0  0  0  0  0  0  0  0
  -18.9921   -3.8077    0.0000 C   0  0  0  0  0  0  0  0  0  0  0  0
  -18.9802   -2.3077    0.0000 C   0  0  0  0  0  0  0  0  0  0  0  0
  -17.5129   -3.5590    0.0000 C   0  0  0  0  0  0  0  0  0  0  0  0
  -21.7842   -5.7750    0.0000 C   0  0  0  0  0  0  0  0  0  0  0  0
  -22.8894   -6.7892    0.0000 O   0  0  0  0  0  0  0  0  0  0  0  0
  -22.2859   -4.3614    0.0000 N   0  0  0  0  0  0  0  0  0  0  0  0
  -23.7610   -4.0891    0.0000 C   0  0  0  0  0  0  0  0  0  0  0  0
  -25.2403   -4.3378    0.0000 C   0  0  0  0  0  0  0  0  0  0  0  0
  -26.1952   -3.1811    0.0000 C   0  0  0  0  0  0  0  0  0  0  0  0
  -27.6745   -3.4298    0.0000 C   0  0  0  0  0  0  0  0  0  0  0  0
  -28.7634   -2.3981    0.0000 O   0  0  0  0  0  0  0  0  0  0  0  0
  -28.1988   -4.8352    0.0000 O   0  0  0  0  0  0  0  0  0  0  0  0
  -24.2628   -2.6756    0.0000 C   0  0  0  0  0  0  0  0  0  0  0  0
  -23.2895   -1.5342    0.0000 O   0  0  0  0  0  0  0  0  0  0  0  0
  -25.7379   -2.4033    0.0000 N   0  0  0  0  0  0  0  0  0  0  0  0
  -26.2396   -0.9897    0.0000 C   0  0  0  0  0  0  0  0  0  0  0  0
  -26.2277    0.5102    0.0000 C   0  0  0  0  0  0  0  0  0  0  0  0
  -24.9227    1.2498    0.0000 C   0  0  0  0  0  0  0  0  0  0  0  0
  -24.9107    2.7498    0.0000 N   0  0  0  0  0  0  0  0  0  0  0  0
  -23.6297    0.4895    0.0000 O   0  0  0  0  0  0  0  0  0  0  0  0
  -27.7147   -0.7175    0.0000 C   0  0  0  0  0  0  0  0  0  0  0  0
  -28.8199   -1.7316    0.0000 O   0  0  0  0  0  0  0  0  0  0  0  0
  -28.2165    0.6961    0.0000 N   0  0  0  0  0  0  0  0  0  0  0  0
  -29.6916    0.9684    0.0000 C   0  0  0  0  0  0  0  0  0  0  0  0
  -31.1708    0.7197    0.0000 C   0  0  0  0  0  0  0  0  0  0  0  0
  -32.1258    1.8764    0.0000 C   0  0  0  0  0  0  0  0  0  0  0  0
  -33.6050    1.6278    0.0000 N   0  0  0  0  0  0  0  0  0  0  0  0
  -31.9572    3.3669    0.0000 O   0  0  0  0  0  0  0  0  0  0  0  0
  -30.1933    2.3820    0.0000 C   0  0  0  0  0  0  0  0  0  0  0  0
  -29.2200    3.5233    0.0000 O   0  0  0  0  0  0  0  0  0  0  0  0
  -31.6684    2.6542    0.0000 N   0  0  0  0  0  0  0  0  0  0  0  0
  -32.1702    4.0678    0.0000 C   0  0  0  0  0  0  0  0  0  0  0  0
  -32.1582    5.5678    0.0000 C   0  0  0  0  0  0  0  0  0  0  0  0
  -33.4512    6.3281    0.0000 C   0  0  0  0  0  0  0  0  0  0  0  0
  -33.4393    7.8281    0.0000 C   0  0  0  0  0  0  0  0  0  0  0  0
  -34.6299    8.7404    0.0000 O   0  0  0  0  0  0  0  0  0  0  0  0
  -32.1343    8.5677    0.0000 O   0  0  0  0  0  0  0  0  0  0  0  0
  -33.6453    4.3401    0.0000 C   0  0  0  0  0  0  0  0  0  0  0  0
  -34.7505    3.3259    0.0000 O   0  0  0  0  0  0  0  0  0  0  0  0
  -34.1470    5.7537    0.0000 N   0  0  0  0  0  0  0  0  0  0  0  0
  -35.6221    6.0259    0.0000 C   0  0  0  0  0  0  0  0  0  0  0  0
  -37.1014    5.7772    0.0000 C   0  0  0  0  0  0  0  0  0  0  0  0
  -38.0563    6.9340    0.0000 C   0  0  0  0  0  0  0  0  0  0  0  0
  -39.5356    6.6853    0.0000 C   0  0  0  0  0  0  0  0  0  0  0  0
  -40.4906    7.8420    0.0000 C   0  0  0  0  0  0  0  0  0  0  0  0
  -41.9698    7.5933    0.0000 N   0  0  0  0  0  0  0  0  0  0  0  0
  -36.1239    7.4395    0.0000 C   0  0  0  0  0  0  0  0  0  0  0  0
  -35.2969    8.6910    0.0000 O   0  0  0  0  0  0  0  0  0  0  0  0
  -37.5990    7.7118    0.0000 N   0  0  0  0  0  0  0  0  0  0  0  0
  -38.1007    9.1253    0.0000 C   0  0  0  0  0  0  0  0  0  0  0  0
  -37.9060   10.6127    0.0000 C   0  0  0  0  0  0  0  0  0  0  0  0
  -39.5758    9.3976    0.0000 C   0  0  0  0  0  0  0  0  0  0  0  0
  -40.7964    8.5257    0.0000 O   0  0  0  0  0  0  0  0  0  0  0  0
  -40.0776   10.8112    0.0000 N   0  0  0  0  0  0  0  0  0  0  0  0
  -41.5161   11.2361    0.0000 C   0  0  0  0  0  0  0  0  0  0  0  0
  -41.5565   12.7356    0.0000 C   0  0  0  0  0  0  0  0  0  0  0  0
  -40.1429   13.2374    0.0000 C   0  0  0  0  0  0  0  0  0  0  0  0
  -39.2289   12.0480    0.0000 C   0  0  0  0  0  0  0  0  0  0  0  0
  -38.1416   13.0814    0.0000 C   0  0  0  0  0  0  0  0  0  0  0  0
  -36.7031   12.6564    0.0000 O   0  0  0  0  0  0  0  0  0  0  0  0
  -38.3125   14.5716    0.0000 O   0  0  0  0  0  0  0  0  0  0  0  0
   40.8962    2.9747    0.0000 H   0  0  0  0  0  0  0  0  0  0  0  0
   41.0656   -1.5146    0.0000 H   0  0  0  0  0  0  0  0  0  0  0  0
   43.6592   -3.0224    0.0000 H   0  0  0  0  0  0  0  0  0  0  0  0
   43.3141    2.9341    0.0000 H   0  0  0  0  0  0  0  0  0  0  0  0
   50.2693    4.6483    0.0000 H   0  0  0  0  0  0  0  0  0  0  0  0
   51.3344   -0.4375    0.0000 H   0  0  0  0  0  0  0  0  0  0  0  0
   48.3981   -1.0525    0.0000 H   0  0  0  0  0  0  0  0  0  0  0  0
   53.2704    1.2951    0.0000 H   0  0  0  0  0  0  0  0  0  0  0  0
   43.4611    0.5680    0.0000 H   0  0  0  0  0  0  0  0  0  0  0  0
   41.4339    2.9847    0.0000 H   0  0  0  0  0  0  0  0  0  0  0  0
   45.3323    6.2688    0.0000 H   0  0  0  0  0  0  0  0  0  0  0  0
   42.8638    7.0790    0.0000 H   0  0  0  0  0  0  0  0  0  0  0  0
   38.4810    2.9932    0.0000 H   0  0  0  0  0  0  0  0  0  0  0  0
   36.2076   -0.3991    0.0000 H   0  0  0  0  0  0  0  0  0  0  0  0
   38.1360   -0.4049    0.0000 H   0  0  0  0  0  0  0  0  0  0  0  0
   34.9177    2.6529    0.0000 H   0  0  0  0  0  0  0  0  0  0  0  0
   36.8461    2.6471    0.0000 H   0  0  0  0  0  0  0  0  0  0  0  0
   33.2849    3.0087    0.0000 H   0  0  0  0  0  0  0  0  0  0  0  0
   32.9399   -0.3893    0.0000 H   0  0  0  0  0  0  0  0  0  0  0  0
   30.4943   -1.7916    0.0000 H   0  0  0  0  0  0  0  0  0  0  0  0
   32.3083   -1.1374    0.0000 H   0  0  0  0  0  0  0  0  0  0  0  0
   27.0698   -1.1819    0.0000 H   0  0  0  0  0  0  0  0  0  0  0  0
   29.0763   -2.6759    0.0000 H   0  0  0  0  0  0  0  0  0  0  0  0
   29.0137   -0.6839    0.0000 H   0  0  0  0  0  0  0  0  0  0  0  0
   29.0519    2.6705    0.0000 H   0  0  0  0  0  0  0  0  0  0  0  0
   26.6147    4.0873    0.0000 H   0  0  0  0  0  0  0  0  0  0  0  0
   28.4248    3.4223    0.0000 H   0  0  0  0  0  0  0  0  0  0  0  0
   24.3443    1.6741    0.0000 H   0  0  0  0  0  0  0  0  0  0  0  0
   25.4322    0.9354    0.0000 H   0  0  0  0  0  0  0  0  0  0  0  0
   25.1276    2.9886    0.0000 H   0  0  0  0  0  0  0  0  0  0  0  0
   25.1457   -0.3660    0.0000 H   0  0  0  0  0  0  0  0  0  0  0  0
   22.8755   -1.8208    0.0000 H   0  0  0  0  0  0  0  0  0  0  0  0
   24.5141   -1.1141    0.0000 H   0  0  0  0  0  0  0  0  0  0  0  0
   21.5364    1.3907    0.0000 H   0  0  0  0  0  0  0  0  0  0  0  0
   19.3000   -1.5234    0.0000 H   0  0  0  0  0  0  0  0  0  0  0  0
   20.2560   -2.6495    0.0000 H   0  0  0  0  0  0  0  0  0  0  0  0
   21.9685   -2.1478    0.0000 H   0  0  0  0  0  0  0  0  0  0  0  0
   19.2435   -0.2406    0.0000 H   0  0  0  0  0  0  0  0  0  0  0  0
   19.4834    1.8105    0.0000 H   0  0  0  0  0  0  0  0  0  0  0  0
   21.5442    1.6782    0.0000 H   0  0  0  0  0  0  0  0  0  0  0  0
   21.2195   -0.6606    0.0000 H   0  0  0  0  0  0  0  0  0  0  0  0
   21.2577    2.6938    0.0000 H   0  0  0  0  0  0  0  0  0  0  0  0
   18.1341    3.6059    0.0000 H   0  0  0  0  0  0  0  0  0  0  0  0
   18.2292    1.6799    0.0000 H   0  0  0  0  0  0  0  0  0  0  0  0
   20.9467    5.1272    0.0000 H   0  0  0  0  0  0  0  0  0  0  0  0
   21.2256    3.5174    0.0000 H   0  0  0  0  0  0  0  0  0  0  0  0
   17.5068    5.8497    0.0000 H   0  0  0  0  0  0  0  0  0  0  0  0
   17.7857    4.2398    0.0000 H   0  0  0  0  0  0  0  0  0  0  0  0
   20.3707    7.8137    0.0000 H   0  0  0  0  0  0  0  0  0  0  0  0
   20.7821    6.0773    0.0000 H   0  0  0  0  0  0  0  0  0  0  0  0
   18.9596    9.2275    0.0000 H   0  0  0  0  0  0  0  0  0  0  0  0
   17.2471    8.7258    0.0000 H   0  0  0  0  0  0  0  0  0  0  0  0
   17.3422    6.7998    0.0000 H   0  0  0  0  0  0  0  0  0  0  0  0
   17.6965    3.0554    0.0000 H   0  0  0  0  0  0  0  0  0  0  0  0
   17.5817   -0.5115    0.0000 H   0  0  0  0  0  0  0  0  0  0  0  0
   16.9912   -1.8585    0.0000 H   0  0  0  0  0  0  0  0  0  0  0  0
   16.7906   -2.4502    0.0000 H   0  0  0  0  0  0  0  0  0  0  0  0
   16.0448   -3.3138    0.0000 H   0  0  0  0  0  0  0  0  0  0  0  0
   15.6078   -3.7375    0.0000 H   0  0  0  0  0  0  0  0  0  0  0  0
   14.3611   -4.5177    0.0000 H   0  0  0  0  0  0  0  0  0  0  0  0
   13.4275   -5.1230    0.0000 H   0  0  0  0  0  0  0  0  0  0  0  0
   17.8582   -1.5741    0.0000 H   0  0  0  0  0  0  0  0  0  0  0  0
   18.7568   -0.9249    0.0000 H   0  0  0  0  0  0  0  0  0  0  0  0
   18.6522    1.0006    0.0000 H   0  0  0  0  0  0  0  0  0  0  0  0
   16.9496    4.4646    0.0000 H   0  0  0  0  0  0  0  0  0  0  0  0
   16.1518    5.2401    0.0000 H   0  0  0  0  0  0  0  0  0  0  0  0
   14.6418    7.7919    0.0000 H   0  0  0  0  0  0  0  0  0  0  0  0
   13.4716    6.6517    0.0000 H   0  0  0  0  0  0  0  0  0  0  0  0
   16.3781    8.3639    0.0000 H   0  0  0  0  0  0  0  0  0  0  0  0
   12.3772    7.5198    0.0000 H   0  0  0  0  0  0  0  0  0  0  0  0
   11.0934    7.4139    0.0000 H   0  0  0  0  0  0  0  0  0  0  0  0
    8.1569    7.8244    0.0000 H   0  0  0  0  0  0  0  0  0  0  0  0
    8.3188    6.1986    0.0000 H   0  0  0  0  0  0  0  0  0  0  0  0
   12.5433    7.9271    0.0000 H   0  0  0  0  0  0  0  0  0  0  0  0
   13.3093   10.6589    0.0000 H   0  0  0  0  0  0  0  0  0  0  0  0
   11.2754   12.8642    0.0000 H   0  0  0  0  0  0  0  0  0  0  0  0
    8.3486   12.2054    0.0000 H   0  0  0  0  0  0  0  0  0  0  0  0
    7.4558    9.3413    0.0000 H   0  0  0  0  0  0  0  0  0  0  0  0
    6.9577    5.8842    0.0000 H   0  0  0  0  0  0  0  0  0  0  0  0
    6.2401    4.8145    0.0000 H   0  0  0  0  0  0  0  0  0  0  0  0
    4.0883    2.7746    0.0000 H   0  0  0  0  0  0  0  0  0  0  0  0
    5.4603    1.8874    0.0000 H   0  0  0  0  0  0  0  0  0  0  0  0
    6.7429    6.2680    0.0000 H   0  0  0  0  0  0  0  0  0  0  0  0
    5.0846    8.5702    0.0000 H   0  0  0  0  0  0  0  0  0  0  0  0
    2.0923    8.3550    0.0000 H   0  0  0  0  0  0  0  0  0  0  0  0
    0.7826    5.6560    0.0000 H   0  0  0  0  0  0  0  0  0  0  0  0
    2.4651    3.1722    0.0000 H   0  0  0  0  0  0  0  0  0  0  0  0
    4.8640    0.4443    0.0000 H   0  0  0  0  0  0  0  0  0  0  0  0
    7.0547   -3.5799    0.0000 H   0  0  0  0  0  0  0  0  0  0  0  0
    6.1005   -2.6848    0.0000 H   0  0  0  0  0  0  0  0  0  0  0  0
    8.4355   -4.6320    0.0000 H   0  0  0  0  0  0  0  0  0  0  0  0
    7.4427   -4.0697    0.0000 H   0  0  0  0  0  0  0  0  0  0  0  0
   10.4261   -5.1994    0.0000 H   0  0  0  0  0  0  0  0  0  0  0  0
    8.9896   -4.8840    0.0000 H   0  0  0  0  0  0  0  0  0  0  0  0
   11.5089   -5.4554    0.0000 H   0  0  0  0  0  0  0  0  0  0  0  0
    4.0302   -1.4787    0.0000 H   0  0  0  0  0  0  0  0  0  0  0  0
    4.0512    0.3057    0.0000 H   0  0  0  0  0  0  0  0  0  0  0  0
    5.4076    0.8906    0.0000 H   0  0  0  0  0  0  0  0  0  0  0  0
    3.5717   -0.7214    0.0000 H   0  0  0  0  0  0  0  0  0  0  0  0
    4.8954   -3.8437    0.0000 H   0  0  0  0  0  0  0  0  0  0  0  0
    3.4813   -6.1393    0.0000 H   0  0  0  0  0  0  0  0  0  0  0  0
    4.6509   -4.7917    0.0000 H   0  0  0  0  0  0  0  0  0  0  0  0
    0.8814   -3.8270    0.0000 H   0  0  0  0  0  0  0  0  0  0  0  0
    0.0309   -7.2693    0.0000 H   0  0  0  0  0  0  0  0  0  0  0  0
    1.4807   -8.0226    0.0000 H   0  0  0  0  0  0  0  0  0  0  0  0
    2.8060   -6.8276    0.0000 H   0  0  0  0  0  0  0  0  0  0  0  0
   -0.7402   -3.8038    0.0000 H   0  0  0  0  0  0  0  0  0  0  0  0
   -0.9902   -5.8537    0.0000 H   0  0  0  0  0  0  0  0  0  0  0  0
    0.1767   -6.4600    0.0000 H   0  0  0  0  0  0  0  0  0  0  0  0
    1.4859   -5.8126    0.0000 H   0  0  0  0  0  0  0  0  0  0  0  0
    0.2391   -2.8303    0.0000 H   0  0  0  0  0  0  0  0  0  0  0  0
   -3.1705   -3.4887    0.0000 H   0  0  0  0  0  0  0  0  0  0  0  0
   -2.5453   -4.8271    0.0000 H   0  0  0  0  0  0  0  0  0  0  0  0
   -1.4454   -0.6598    0.0000 H   0  0  0  0  0  0  0  0  0  0  0  0
   -0.3214   -2.0457    0.0000 H   0  0  0  0  0  0  0  0  0  0  0  0
   -4.6808   -1.3747    0.0000 H   0  0  0  0  0  0  0  0  0  0  0  0
   -3.7341   -2.8873    0.0000 H   0  0  0  0  0  0  0  0  0  0  0  0
   -2.1097    0.8737    0.0000 H   0  0  0  0  0  0  0  0  0  0  0  0
   -6.2059    2.7367    0.0000 H   0  0  0  0  0  0  0  0  0  0  0  0
   -3.6200    2.9877    0.0000 H   0  0  0  0  0  0  0  0  0  0  0  0
   -7.2815    0.3718    0.0000 H   0  0  0  0  0  0  0  0  0  0  0  0
   -5.7713   -1.7422    0.0000 H   0  0  0  0  0  0  0  0  0  0  0  0
   -3.4607   -4.0821    0.0000 H   0  0  0  0  0  0  0  0  0  0  0  0
   -2.1371   -7.2044    0.0000 H   0  0  0  0  0  0  0  0  0  0  0  0
   -3.7321   -9.5289    0.0000 H   0  0  0  0  0  0  0  0  0  0  0  0
   -2.3815   -8.1525    0.0000 H   0  0  0  0  0  0  0  0  0  0  0  0
   -5.5466   -9.1733    0.0000 H   0  0  0  0  0  0  0  0  0  0  0  0
   -6.9676   -6.1346    0.0000 H   0  0  0  0  0  0  0  0  0  0  0  0
   -9.7782   -5.9155    0.0000 H   0  0  0  0  0  0  0  0  0  0  0  0
   -7.8588   -5.7292    0.0000 H   0  0  0  0  0  0  0  0  0  0  0  0
  -10.7767   -9.0748    0.0000 H   0  0  0  0  0  0  0  0  0  0  0  0
   -9.4761   -9.2683    0.0000 H   0  0  0  0  0  0  0  0  0  0  0  0
  -13.8794   -7.4679    0.0000 H   0  0  0  0  0  0  0  0  0  0  0  0
  -12.9760   -9.5592    0.0000 H   0  0  0  0  0  0  0  0  0  0  0  0
  -10.6413   -7.5506    0.0000 H   0  0  0  0  0  0  0  0  0  0  0  0
   -9.1695  -10.5652    0.0000 H   0  0  0  0  0  0  0  0  0  0  0  0
   -9.4109  -11.3301    0.0000 H   0  0  0  0  0  0  0  0  0  0  0  0
  -12.8611  -13.1800    0.0000 H   0  0  0  0  0  0  0  0  0  0  0  0
  -13.9114  -12.0913    0.0000 H   0  0  0  0  0  0  0  0  0  0  0  0
  -13.4981  -10.8004    0.0000 H   0  0  0  0  0  0  0  0  0  0  0  0
  -10.9592  -14.3769    0.0000 H   0  0  0  0  0  0  0  0  0  0  0  0
  -12.2024  -13.3168    0.0000 H   0  0  0  0  0  0  0  0  0  0  0  0
   -9.2543  -15.0036    0.0000 H   0  0  0  0  0  0  0  0  0  0  0  0
   -7.9037  -13.6272    0.0000 H   0  0  0  0  0  0  0  0  0  0  0  0
   -8.8504  -12.1146    0.0000 H   0  0  0  0  0  0  0  0  0  0  0  0
  -10.9076  -12.1779    0.0000 H   0  0  0  0  0  0  0  0  0  0  0  0
  -11.7543  -13.8425    0.0000 H   0  0  0  0  0  0  0  0  0  0  0  0
  -12.5333  -14.4793    0.0000 H   0  0  0  0  0  0  0  0  0  0  0  0
  -14.5400  -14.5333    0.0000 H   0  0  0  0  0  0  0  0  0  0  0  0
  -15.5182  -13.8621    0.0000 H   0  0  0  0  0  0  0  0  0  0  0  0
  -16.2492  -12.1436    0.0000 H   0  0  0  0  0  0  0  0  0  0  0  0
  -14.2620   -9.6093    0.0000 H   0  0  0  0  0  0  0  0  0  0  0  0
  -15.3821   -8.2776    0.0000 H   0  0  0  0  0  0  0  0  0  0  0  0
  -17.8424  -10.6466    0.0000 H   0  0  0  0  0  0  0  0  0  0  0  0
  -20.6147  -10.1350    0.0000 H   0  0  0  0  0  0  0  0  0  0  0  0
  -18.8080  -10.8089    0.0000 H   0  0  0  0  0  0  0  0  0  0  0  0
  -20.7665   -6.8250    0.0000 H   0  0  0  0  0  0  0  0  0  0  0  0
  -19.4598   -6.9728    0.0000 H   0  0  0  0  0  0  0  0  0  0  0  0
  -21.0279   -8.3327    0.0000 H   0  0  0  0  0  0  0  0  0  0  0  0
  -18.8106   -5.9807    0.0000 H   0  0  0  0  0  0  0  0  0  0  0  0
  -20.7989   -3.1337    0.0000 H   0  0  0  0  0  0  0  0  0  0  0  0
  -21.7926   -4.4306    0.0000 H   0  0  0  0  0  0  0  0  0  0  0  0
  -18.3218   -5.1496    0.0000 H   0  0  0  0  0  0  0  0  0  0  0  0
  -17.7751   -1.4146    0.0000 H   0  0  0  0  0  0  0  0  0  0  0  0
  -19.4819   -0.8941    0.0000 H   0  0  0  0  0  0  0  0  0  0  0  0
  -20.4787   -2.3742    0.0000 H   0  0  0  0  0  0  0  0  0  0  0  0
  -16.8212   -2.2280    0.0000 H   0  0  0  0  0  0  0  0  0  0  0  0
  -16.0378   -3.8313    0.0000 H   0  0  0  0  0  0  0  0  0  0  0  0
  -17.5249   -5.0590    0.0000 H   0  0  0  0  0  0  0  0  0  0  0  0
  -21.4590   -3.1099    0.0000 H   0  0  0  0  0  0  0  0  0  0  0  0
  -23.7730   -5.5891    0.0000 H   0  0  0  0  0  0  0  0  0  0  0  0
  -26.5453   -5.0774    0.0000 H   0  0  0  0  0  0  0  0  0  0  0  0
  -24.7385   -5.7514    0.0000 H   0  0  0  0  0  0  0  0  0  0  0  0
  -26.6970   -1.7675    0.0000 H   0  0  0  0  0  0  0  0  0  0  0  0
  -25.3904   -1.9153    0.0000 H   0  0  0  0  0  0  0  0  0  0  0  0
  -26.9584   -3.2752    0.0000 H   0  0  0  0  0  0  0  0  0  0  0  0
  -24.7604   -0.7410    0.0000 H   0  0  0  0  0  0  0  0  0  0  0  0
  -26.5534    1.9745    0.0000 H   0  0  0  0  0  0  0  0  0  0  0  0
  -27.7231    0.6269    0.0000 H   0  0  0  0  0  0  0  0  0  0  0  0
  -23.6057    3.4894    0.0000 H   0  0  0  0  0  0  0  0  0  0  0  0
  -26.2037    3.5101    0.0000 H   0  0  0  0  0  0  0  0  0  0  0  0
  -27.3896    1.9476    0.0000 H   0  0  0  0  0  0  0  0  0  0  0  0
  -29.7035   -0.5316    0.0000 H   0  0  0  0  0  0  0  0  0  0  0  0
  -32.4758   -0.0199    0.0000 H   0  0  0  0  0  0  0  0  0  0  0  0
  -30.6691   -0.6939    0.0000 H   0  0  0  0  0  0  0  0  0  0  0  0
  -34.6939    2.6595    0.0000 H   0  0  0  0  0  0  0  0  0  0  0  0
  -34.1293    0.2224    0.0000 H   0  0  0  0  0  0  0  0  0  0  0  0
  -32.8890    1.7823    0.0000 H   0  0  0  0  0  0  0  0  0  0  0  0
  -30.6909    4.3165    0.0000 H   0  0  0  0  0  0  0  0  0  0  0  0
  -31.6340    6.9732    0.0000 H   0  0  0  0  0  0  0  0  0  0  0  0
  -30.6831    5.2955    0.0000 H   0  0  0  0  0  0  0  0  0  0  0  0
  -34.9263    6.6004    0.0000 H   0  0  0  0  0  0  0  0  0  0  0  0
  -34.5740    5.3335    0.0000 H   0  0  0  0  0  0  0  0  0  0  0  0
  -33.4788    7.0966    0.0000 H   0  0  0  0  0  0  0  0  0  0  0  0
  -35.6341    4.5260    0.0000 H   0  0  0  0  0  0  0  0  0  0  0  0
  -38.3065    4.8841    0.0000 H   0  0  0  0  0  0  0  0  0  0  0  0
  -36.5996    4.3637    0.0000 H   0  0  0  0  0  0  0  0  0  0  0  0
  -38.3821    8.3982    0.0000 H   0  0  0  0  0  0  0  0  0  0  0  0
  -37.2515    8.1997    0.0000 H   0  0  0  0  0  0  0  0  0  0  0  0
  -40.7407    5.7921    0.0000 H   0  0  0  0  0  0  0  0  0  0  0  0
  -39.2099    5.2211    0.0000 H   0  0  0  0  0  0  0  0  0  0  0  0
  -40.9923    9.2556    0.0000 H   0  0  0  0  0  0  0  0  0  0  0  0
  -39.2855    8.7352    0.0000 H   0  0  0  0  0  0  0  0  0  0  0  0
  -42.9248    8.7501    0.0000 H   0  0  0  0  0  0  0  0  0  0  0  0
  -43.2748    6.8537    0.0000 H   0  0  0  0  0  0  0  0  0  0  0  0
  -41.6441    6.1291    0.0000 H   0  0  0  0  0  0  0  0  0  0  0  0
  -38.8195    6.8399    0.0000 H   0  0  0  0  0  0  0  0  0  0  0  0
  -36.6215    9.3740    0.0000 H   0  0  0  0  0  0  0  0  0  0  0  0
  -36.7838   11.3649    0.0000 H   0  0  0  0  0  0  0  0  0  0  0  0
  -38.2336   12.1183    0.0000 H   0  0  0  0  0  0  0  0  0  0  0  0
  -39.5842   10.7420    0.0000 H   0  0  0  0  0  0  0  0  0  0  0  0
  -41.7884    9.7611    0.0000 H   0  0  0  0  0  0  0  0  0  0  0  0
  -43.0116   11.3527    0.0000 H   0  0  0  0  0  0  0  0  0  0  0  0
  -43.0435   12.5387    0.0000 H   0  0  0  0  0  0  0  0  0  0  0  0
  -41.9078   14.1939    0.0000 H   0  0  0  0  0  0  0  0  0  0  0  0
  -40.7897   14.5908    0.0000 H   0  0  0  0  0  0  0  0  0  0  0  0
  -38.9697   14.1720    0.0000 H   0  0  0  0  0  0  0  0  0  0  0  0
  -37.9774   11.2211    0.0000 H   0  0  0  0  0  0  0  0  0  0  0  0
  1  2  1  0
  2  3  1  0
  3  4  2  0
  4  5  1  0
  5  6  2  0
  6  7  1  0
  7  8  2  0
  7  9  1  0
  9 10  1  0
 10 11  1  0
 11 12  2  0
  9 13  1  0
 13 14  1  0
 14 15  2  0
 15 16  1  0
 16 17  2  0
 17 18  1  0
 16 19  1  0
 14 20  1  0
 20 21  1  0
 21 22  2  0
 22 23  1  0
 23 24  2  0
 24 25  1  0
 25 26  2  0
 25 27  1  0
  1 28  2  0
  1 29  1  0
 29 30  1  0
 30 31  1  0
 31 32  1  0
 32 33  2  0
 32 34  1  0
 34 35  1  0
 35 36  1  0
 36 37  1  0
 37 38  1  0
 37 39  2  0
 35 40  1  0
 40 41  2  0
 40 42  1  0
 42 43  1  0
 43 44  1  0
 44 45  1  0
 45 46  1  0
 46 47  2  0
 46 48  1  0
 43 49  1  0
 49 50  2  0
 49 51  1  0
 51 52  1  0
 52 53  1  0
 53 54  1  0
 54 55  1  0
 54 56  1  0
 52 57  1  0
 57 58  2  0
 57 59  1  0
 59 60  1  0
 60 61  1  0
 61 62  1  0
 62 63  1  0
 63 64  1  0
 64 65  1  0
 60 66  1  0
 66 67  2  0
 66 68  1  0
 69 68  1  1
 69 70  1  0
 70 71  1  0
 71 72  1  0
 72 73  1  0
 69 74  1  0
 69 75  1  0
 75 76  2  0
 75 77  1  0
 77 78  1  0
 78 79  1  0
 79 80  1  0
 78 81  1  0
 81 82  2  0
 81 83  1  0
 83 84  1  0
 84 85  1  0
 85 86  1  0
 86 87  2  0
 87 88  1  0
 88 89  2  0
 89 90  1  0
 90 91  2  0
 84 92  1  0
 92 93  2  0
 92 94  1  0
 94 95  1  0
 95 96  1  0
 96 97  1  0
 97 98  2  0
 98 99  1  0
 99100  2  0
100101  1  0
101102  2  0
 95103  1  0
103104  2  0
103105  1  0
105106  1  0
106107  1  0
107108  1  0
108109  1  0
109110  1  0
106111  1  0
106112  1  1
112113  2  0
112114  1  0
114115  1  0
115116  1  0
116117  1  0
117118  1  0
117119  1  0
115120  1  0
120121  2  0
120122  1  0
122123  1  0
123124  1  0
124125  1  0
125126  1  0
126127  1  0
127128  1  0
128129  2  3
128130  1  0
123131  1  0
131132  2  0
131133  1  0
133134  1  0
134135  1  0
135136  1  0
136137  2  0
136138  1  0
134139  1  0
139140  2  0
139141  1  0
141142  1  0
142143  1  0
143144  1  0
144145  1  0
145146  1  0
145147  2  0
142148  1  0
148149  2  0
148150  1  0
150151  1  0
151152  1  0
152153  1  0
152154  1  0
154155  1  0
151156  1  0
156157  2  0
156158  1  0
158159  1  0
159160  1  0
160161  1  0
161162  1  0
162163  1  0
163164  2  0
163165  1  0
165166  1  0
166167  1  0
167168  1  0
168169  1  0
169170  2  0
169171  1  0
166172  1  0
172173  2  0
172174  1  0
174175  1  0
175176  1  0
176177  1  0
177178  1  0
177179  1  0
175180  1  0
180181  2  0
180182  1  0
182183  1  0
183184  1  0
184185  1  0
185186  1  0
186187  2  0
186188  1  0
183189  1  0
189190  2  0
189191  1  0
191192  1  0
192193  1  0
193194  1  0
194195  1  0
194196  2  0
192197  1  0
197198  2  0
197199  1  0
199200  1  0
200201  1  0
201202  1  0
202203  1  0
202204  2  0
200205  1  0
205206  2  0
205207  1  0
207208  1  0
208209  1  0
209210  1  0
210211  1  0
211212  2  0
211213  1  0
208214  1  0
214215  2  0
214216  1  0
216217  1  0
217218  1  0
218219  1  0
219220  1  0
220221  1  0
221222  1  0
217223  1  0
223224  2  0
223225  1  0
225226  1  0
226227  1  0
226228  1  0
228229  2  0
228230  1  0
230231  1  0
231232  1  0
232233  1  0
233234  1  0
234235  1  0
235236  2  0
235237  1  0
  8  3  1  0
 91 86  1  0
102 97  1  0
162158  1  0
234230  1  0
 11  6  1  0
 73110  2  0
 18 13  2  0
 22  9  1  0
 26 21  1  0
  2238  1  0
  4239  1  0
  5240  1  0
  8241  1  0
 15242  1  0
 17243  1  0
 18244  1  0
 19245  1  0
 23246  1  0
 24247  1  0
 26248  1  0
 27249  1  0
 29250  1  0
 30251  1  0
 30252  1  0
 31253  1  0
 31254  1  0
 34255  1  0
 35256  1  1
 36257  1  0
 36258  1  0
 38259  1  0
 38260  1  0
 42261  1  0
 43262  1  6
 44263  1  0
 44264  1  0
 45265  1  0
 45266  1  0
 51267  1  0
 52268  1  1
 53269  1  0
 53270  1  0
 54271  1  0
 55272  1  0
 55273  1  0
 55274  1  0
 56275  1  0
 56276  1  0
 56277  1  0
 59278  1  0
 60279  1  6
 61280  1  0
 61281  1  0
 62282  1  0
 62283  1  0
 63284  1  0
 63285  1  0
 64286  1  0
 64287  1  0
 65288  1  0
 65289  1  0
 65290  1  0
 68291  1  0
 70292  1  0
 70293  1  0
 71294  1  0
 71295  1  0
 72296  1  0
 72297  1  0
 73298  1  0
 74299  1  0
 74300  1  0
 74301  1  0
 77302  1  0
 78303  1  6
 79304  1  0
 79305  1  0
 80306  1  0
 83307  1  0
 84308  1  6
 85309  1  0
 85310  1  0
 87311  1  0
 88312  1  0
 89313  1  0
 90314  1  0
 91315  1  0
 94316  1  0
 95317  1  6
 96318  1  0
 96319  1  0
 98320  1  0
 99321  1  0
100322  1  0
101323  1  0
102324  1  0
105325  1  0
107326  1  0
107327  1  0
108328  1  0
108329  1  0
109330  1  0
109331  1  0
110332  1  0
111333  1  0
111334  1  0
111335  1  0
114336  1  0
115337  1  1
116338  1  0
116339  1  0
117340  1  0
118341  1  0
118342  1  0
118343  1  0
119344  1  0
119345  1  0
119346  1  0
122347  1  0
123348  1  6
124349  1  0
124350  1  0
125351  1  0
125352  1  0
126353  1  0
126354  1  0
127355  1  0
129356  1  0
129357  1  0
130358  1  0
130359  1  0
133360  1  0
134361  1  1
135362  1  0
135363  1  0
141364  1  0
142365  1  6
143366  1  0
143367  1  0
144368  1  0
144369  1  0
146370  1  0
146371  1  0
150372  1  0
151373  1  1
152374  1  1
153375  1  0
153376  1  0
153377  1  0
154378  1  0
154379  1  0
155380  1  0
155381  1  0
155382  1  0
159383  1  0
159384  1  0
160385  1  0
160386  1  0
161387  1  0
161388  1  0
162389  1  0
165390  1  0
166391  1  1
167392  1  0
167393  1  0
168394  1  0
168395  1  0
174396  1  0
175397  1  6
176398  1  0
176399  1  0
177400  1  0
178401  1  0
178402  1  0
178403  1  0
179404  1  0
179405  1  0
179406  1  0
182407  1  0
183408  1  1
184409  1  0
184410  1  0
185411  1  0
185412  1  0
191413  1  0
192414  1  6
193415  1  0
193416  1  0
195417  1  0
195418  1  0
199419  1  0
200420  1  1
201421  1  0
201422  1  0
203423  1  0
203424  1  0
207425  1  0
208426  1  6
209427  1  0
209428  1  0
210429  1  0
210430  1  0
216431  1  0
217432  1  1
218433  1  0
218434  1  0
219435  1  0
219436  1  0
220437  1  0
220438  1  0
221439  1  0
221440  1  0
222441  1  0
222442  1  0
222443  1  0
225444  1  0
226445  1  6
227446  1  0
227447  1  0
227448  1  0
231449  1  0
231450  1  0
232451  1  0
232452  1  0
233453  1  0
233454  1  0
234455  1  0
M  CHG  8  48  -1  65   1 129   1 138  -1 171  -1 188  -1 213  -1 222   1
M  CHG  1 237  -1
M  END
