
     RDKit          2D

289292  0  0  0  0  0  0  0  0999 V2000
   24.5647   14.5804    0.0000 N   0  0  0  0  0  0  0  0  0  0  0  0
   23.1548   14.0683    0.0000 C   0  0  0  0  0  0  0  0  0  0  0  0
   22.8934   12.5913    0.0000 C   0  0  0  0  0  0  0  0  0  0  0  0
   21.4835   12.0792    0.0000 O   0  0  0  0  0  0  0  0  0  0  0  0
   21.2220   10.6022    0.0000 C   0  0  0  0  0  0  0  0  0  0  0  0
   19.8121   10.0901    0.0000 O   0  0  0  0  0  0  0  0  0  0  0  0
   19.5506    8.6130    0.0000 C   0  0  0  0  0  0  0  0  0  0  0  0
   18.1407    8.1010    0.0000 C   0  0  0  0  0  0  0  0  0  0  0  0
   17.8793    6.6239    0.0000 O   0  0  0  0  0  0  0  0  0  0  0  0
   16.4694    6.1119    0.0000 C   0  0  0  0  0  0  0  0  0  0  0  0
   16.2079    4.6348    0.0000 C   0  0  0  0  0  0  0  0  0  0  0  0
   14.7980    4.1228    0.0000 C   0  0  0  0  0  0  0  0  0  0  0  0
   13.7758    5.2205    0.0000 O   0  0  0  0  0  0  0  0  0  0  0  0
   14.5365    2.6457    0.0000 N   0  0  0  0  0  0  0  0  0  0  0  0
   13.1266    2.1337    0.0000 C   0  0  0  0  0  0  0  0  0  0  0  0
   12.8672    3.6110    0.0000 C   0  0  0  0  0  0  0  0  0  0  0  0
   11.4580    4.1250    0.0000 C   0  0  0  0  0  0  0  0  0  0  0  0
   11.1985    5.6024    0.0000 C   0  0  0  0  0  0  0  0  0  0  0  0
    9.7893    6.1164    0.0000 C   0  0  0  0  0  0  0  0  0  0  0  0
    9.5299    7.5938    0.0000 N   0  0  0  0  0  0  0  0  0  0  0  0
   11.9769    1.1703    0.0000 C   0  0  0  0  0  0  0  0  0  0  0  0
   10.6409    1.8522    0.0000 O   0  0  0  0  0  0  0  0  0  0  0  0
   12.2364   -0.3071    0.0000 N   0  0  0  0  0  0  0  0  0  0  0  0
   11.0867   -1.2705    0.0000 C   0  0  0  0  0  0  0  0  0  0  0  0
   10.3375    0.0290    0.0000 C   0  0  0  0  0  0  0  0  0  0  0  0
    8.8375    0.0300    0.0000 C   0  0  0  0  0  0  0  0  0  0  0  0
    8.0884    1.3296    0.0000 C   0  0  0  0  0  0  0  0  0  0  0  0
    6.5884    1.3306    0.0000 N   0  0  0  0  0  0  0  0  0  0  0  0
    8.8393    2.6281    0.0000 O   0  0  0  0  0  0  0  0  0  0  0  0
   10.3358   -2.5691    0.0000 C   0  0  0  0  0  0  0  0  0  0  0  0
    8.8358   -2.5680    0.0000 O   0  0  0  0  0  0  0  0  0  0  0  0
   11.0849   -3.8686    0.0000 N   0  0  0  0  0  0  0  0  0  0  0  0
   10.3340   -5.1671    0.0000 C   0  0  0  0  0  0  0  0  0  0  0  0
   11.7432   -5.6811    0.0000 C   0  0  0  0  0  0  0  0  0  0  0  0
   12.8929   -4.7177    0.0000 C   0  0  0  0  0  0  0  0  0  0  0  0
   14.3021   -5.2317    0.0000 C   0  0  0  0  0  0  0  0  0  0  0  0
   15.4518   -4.2683    0.0000 C   0  0  0  0  0  0  0  0  0  0  0  0
   16.8610   -4.7823    0.0000 N   0  0  0  0  0  0  0  0  0  0  0  0
    9.1843   -6.1305    0.0000 C   0  0  0  0  0  0  0  0  0  0  0  0
    9.5081   -6.8590    0.0000 O   0  0  0  0  0  0  0  0  0  0  0  0
    7.7751   -5.6165    0.0000 N   0  0  0  0  0  0  0  0  0  0  0  0
    6.6254   -6.5799    0.0000 C   0  0  0  0  0  0  0  0  0  0  0  0
    7.7738   -7.5449    0.0000 C   0  0  0  0  0  0  0  0  0  0  0  0
    9.1837   -7.0328    0.0000 C   0  0  0  0  0  0  0  0  0  0  0  0
   10.3321   -7.9978    0.0000 C   0  0  0  0  0  0  0  0  0  0  0  0
   11.7420   -7.4857    0.0000 N   0  0  0  0  0  0  0  0  0  0  0  0
   12.8904   -8.4507    0.0000 C   0  0  0  0  0  0  0  0  0  0  0  0
   14.3003   -7.9386    0.0000 N   0  0  0  0  0  0  0  0  0  0  0  0
   12.6289   -9.9277    0.0000 N   0  0  0  0  0  0  0  0  0  0  0  0
    5.2155   -7.0920    0.0000 C   0  0  0  0  0  0  0  0  0  0  0  0
    5.5008   -8.5646    0.0000 O   0  0  0  0  0  0  0  0  0  0  0  0
    4.0671   -6.1271    0.0000 N   0  0  0  0  0  0  0  0  0  0  0  0
    2.6572   -6.6391    0.0000 C   0  0  0  0  0  0  0  0  0  0  0  0
    3.4063   -7.9387    0.0000 C   0  0  0  0  0  0  0  0  0  0  0  0
    4.9063   -7.9397    0.0000 C   0  0  0  0  0  0  0  0  0  0  0  0
    5.6554   -9.2392    0.0000 C   0  0  0  0  0  0  0  0  0  0  0  0
    7.1554   -9.2403    0.0000 C   0  0  0  0  0  0  0  0  0  0  0  0
    7.9045  -10.5398    0.0000 N   0  0  0  0  0  0  0  0  0  0  0  0
    1.1572   -6.6381    0.0000 C   0  0  0  0  0  0  0  0  0  0  0  0
    0.7428   -8.0797    0.0000 O   0  0  0  0  0  0  0  0  0  0  0  0
    0.4081   -5.3386    0.0000 N   0  0  0  0  0  0  0  0  0  0  0  0
   -1.0919   -5.3375    0.0000 C   0  0  0  0  0  0  0  0  0  0  0  0
   -0.8325   -6.8149    0.0000 C   0  0  0  0  0  0  0  0  0  0  0  0
    0.5767   -7.3289    0.0000 C   0  0  0  0  0  0  0  0  0  0  0  0
    0.8362   -8.8063    0.0000 C   0  0  0  0  0  0  0  0  0  0  0  0
   -0.3135   -9.7697    0.0000 F   0  0  0  0  0  0  0  0  0  0  0  0
    2.2454   -9.3203    0.0000 C   0  0  0  0  0  0  0  0  0  0  0  0
    2.5049  -10.7977    0.0000 F   0  0  0  0  0  0  0  0  0  0  0  0
    3.3951   -8.3569    0.0000 C   0  0  0  0  0  0  0  0  0  0  0  0
    4.7311   -9.0388    0.0000 F   0  0  0  0  0  0  0  0  0  0  0  0
    3.1356   -6.8795    0.0000 C   0  0  0  0  0  0  0  0  0  0  0  0
    4.3942   -6.0634    0.0000 F   0  0  0  0  0  0  0  0  0  0  0  0
    1.7265   -6.3655    0.0000 C   0  0  0  0  0  0  0  0  0  0  0  0
    1.6490   -4.8675    0.0000 F   0  0  0  0  0  0  0  0  0  0  0  0
   -2.5011   -4.8235    0.0000 C   0  0  0  0  0  0  0  0  0  0  0  0
   -3.5248   -5.9199    0.0000 O   0  0  0  0  0  0  0  0  0  0  0  0
   -2.7606   -3.3462    0.0000 N   0  0  0  0  0  0  0  0  0  0  0  0
   -4.1698   -2.8322    0.0000 C   0  0  0  0  0  0  0  0  0  0  0  0
   -4.4312   -4.3092    0.0000 C   0  0  0  0  0  0  0  0  0  0  0  0
   -3.4090   -5.4070    0.0000 O   0  0  0  0  0  0  0  0  0  0  0  0
   -5.3182   -1.8672    0.0000 C   0  0  0  0  0  0  0  0  0  0  0  0
   -6.4508   -2.8506    0.0000 O   0  0  0  0  0  0  0  0  0  0  0  0
   -5.0567   -0.3902    0.0000 N   0  0  0  0  0  0  0  0  0  0  0  0
   -6.2051    0.5748    0.0000 C   0  0  0  0  0  0  0  0  0  0  0  0
   -6.6124   -0.8689    0.0000 C   0  0  0  0  0  0  0  0  0  0  0  0
   -7.4270   -2.1284    0.0000 C   0  0  0  0  0  0  0  0  0  0  0  0
   -8.5768   -3.0918    0.0000 C   0  0  0  0  0  0  0  0  0  0  0  0
   -9.9594   -3.6735    0.0000 C   0  0  0  0  0  0  0  0  0  0  0  0
   -4.8532    1.2247    0.0000 C   0  0  0  0  0  0  0  0  0  0  0  0
   -6.2415    2.0743    0.0000 C   0  0  0  0  0  0  0  0  0  0  0  0
   -4.7641    2.3338    0.0000 O   0  0  0  0  0  0  0  0  0  0  0  0
   -6.7183    3.4966    0.0000 N   0  0  0  0  0  0  0  0  0  0  0  0
   -7.5930    4.7151    0.0000 C   0  0  0  0  0  0  0  0  0  0  0  0
   -7.2583    6.1772    0.0000 C   0  0  0  0  0  0  0  0  0  0  0  0
   -5.8246    6.6184    0.0000 C   0  0  0  0  0  0  0  0  0  0  0  0
   -4.7257    5.5974    0.0000 C   0  0  0  0  0  0  0  0  0  0  0  0
   -3.2921    6.0385    0.0000 C   0  0  0  0  0  0  0  0  0  0  0  0
   -2.9573    7.5007    0.0000 C   0  0  0  0  0  0  0  0  0  0  0  0
   -4.0562    8.5217    0.0000 C   0  0  0  0  0  0  0  0  0  0  0  0
   -5.4898    8.0806    0.0000 C   0  0  0  0  0  0  0  0  0  0  0  0
   -8.7881    5.6216    0.0000 C   0  0  0  0  0  0  0  0  0  0  0  0
   -8.0698    6.9384    0.0000 O   0  0  0  0  0  0  0  0  0  0  0  0
  -10.1973    6.1356    0.0000 N   0  0  0  0  0  0  0  0  0  0  0  0
  -11.6954    6.2114    0.0000 C   0  0  0  0  0  0  0  0  0  0  0  0
  -12.6298    7.3847    0.0000 C   0  0  0  0  0  0  0  0  0  0  0  0
  -12.0809    8.7807    0.0000 C   0  0  0  0  0  0  0  0  0  0  0  0
  -10.5975    9.0032    0.0000 C   0  0  0  0  0  0  0  0  0  0  0  0
  -10.0485   10.3992    0.0000 C   0  0  0  0  0  0  0  0  0  0  0  0
  -10.9829   11.5726    0.0000 C   0  0  0  0  0  0  0  0  0  0  0  0
  -12.4663   11.3500    0.0000 C   0  0  0  0  0  0  0  0  0  0  0  0
  -13.0153    9.9541    0.0000 C   0  0  0  0  0  0  0  0  0  0  0  0
  -13.1493    5.8422    0.0000 C   0  0  0  0  0  0  0  0  0  0  0  0
  -13.7310    7.2248    0.0000 O   0  0  0  0  0  0  0  0  0  0  0  0
  -14.4297    5.0609    0.0000 N   0  0  0  0  0  0  0  0  0  0  0  0
  -15.4230    3.9369    0.0000 C   0  0  0  0  0  0  0  0  0  0  0  0
  -16.9230    3.9380    0.0000 C   0  0  0  0  0  0  0  0  0  0  0  0
  -17.6721    5.2375    0.0000 C   0  0  0  0  0  0  0  0  0  0  0  0
  -19.1721    5.2385    0.0000 C   0  0  0  0  0  0  0  0  0  0  0  0
  -19.9213    6.5381    0.0000 C   0  0  0  0  0  0  0  0  0  0  0  0
  -21.4213    6.5391    0.0000 N   0  0  0  0  0  0  0  0  0  0  0  0
  -16.0409    2.5701    0.0000 C   0  0  0  0  0  0  0  0  0  0  0  0
  -17.4845    2.9773    0.0000 O   0  0  0  0  0  0  0  0  0  0  0  0
  -16.2284    1.0819    0.0000 N   0  0  0  0  0  0  0  0  0  0  0  0
  -15.9689   -0.3955    0.0000 C   0  0  0  0  0  0  0  0  0  0  0  0
  -15.2855   -1.7308    0.0000 C   0  0  0  0  0  0  0  0  0  0  0  0
  -14.2389   -2.8053    0.0000 C   0  0  0  0  0  0  0  0  0  0  0  0
  -12.9221   -3.5236    0.0000 C   0  0  0  0  0  0  0  0  0  0  0  0
  -11.4520   -3.8218    0.0000 C   0  0  0  0  0  0  0  0  0  0  0  0
  -17.4223   -0.0244    0.0000 C   0  0  0  0  0  0  0  0  0  0  0  0
  -16.9050   -1.5676    0.0000 C   0  0  0  0  0  0  0  0  0  0  0  0
  -16.7121   -3.0552    0.0000 O   0  0  0  0  0  0  0  0  0  0  0  0
  -18.3881   -1.3431    0.0000 N   0  0  0  0  0  0  0  0  0  0  0  0
  -19.3241   -2.5152    0.0000 C   0  0  0  0  0  0  0  0  0  0  0  0
  -19.8028   -3.9367    0.0000 C   0  0  0  0  0  0  0  0  0  0  0  0
  -21.2733   -4.2330    0.0000 C   0  0  0  0  0  0  0  0  0  0  0  0
  -21.7520   -5.6545    0.0000 C   0  0  0  0  0  0  0  0  0  0  0  0
  -22.7564   -4.0084    0.0000 C   0  0  0  0  0  0  0  0  0  0  0  0
  -20.8072   -2.2906    0.0000 C   0  0  0  0  0  0  0  0  0  0  0  0
  -21.8791   -3.3399    0.0000 O   0  0  0  0  0  0  0  0  0  0  0  0
  -21.3543   -0.8939    0.0000 O   0  0  0  0  0  0  0  0  0  0  0  0
   24.8262   16.0574    0.0000 H   0  0  0  0  0  0  0  0  0  0  0  0
   25.7131   13.6154    0.0000 H   0  0  0  0  0  0  0  0  0  0  0  0
   22.8954   15.5457    0.0000 H   0  0  0  0  0  0  0  0  0  0  0  0
   21.6548   14.0693    0.0000 H   0  0  0  0  0  0  0  0  0  0  0  0
   24.3934   12.5902    0.0000 H   0  0  0  0  0  0  0  0  0  0  0  0
   23.3310   11.1565    0.0000 H   0  0  0  0  0  0  0  0  0  0  0  0
   22.7107   10.4183    0.0000 H   0  0  0  0  0  0  0  0  0  0  0  0
   21.6596    9.1674    0.0000 H   0  0  0  0  0  0  0  0  0  0  0  0
   21.0393    8.4292    0.0000 H   0  0  0  0  0  0  0  0  0  0  0  0
   19.8101    7.1357    0.0000 H   0  0  0  0  0  0  0  0  0  0  0  0
   17.8813    9.5784    0.0000 H   0  0  0  0  0  0  0  0  0  0  0  0
   16.6520    8.2848    0.0000 H   0  0  0  0  0  0  0  0  0  0  0  0
   16.0317    7.5466    0.0000 H   0  0  0  0  0  0  0  0  0  0  0  0
   14.9694    6.1129    0.0000 H   0  0  0  0  0  0  0  0  0  0  0  0
   17.7079    4.6338    0.0000 H   0  0  0  0  0  0  0  0  0  0  0  0
   16.4674    3.1574    0.0000 H   0  0  0  0  0  0  0  0  0  0  0  0
   15.6849    1.6808    0.0000 H   0  0  0  0  0  0  0  0  0  0  0  0
   13.8758    0.8341    0.0000 H   0  0  0  0  0  0  0  0  0  0  0  0
   13.1287    5.0881    0.0000 H   0  0  0  0  0  0  0  0  0  0  0  0
   14.3228    3.9730    0.0000 H   0  0  0  0  0  0  0  0  0  0  0  0
    9.9690    3.9432    0.0000 H   0  0  0  0  0  0  0  0  0  0  0  0
   11.1965    2.6480    0.0000 H   0  0  0  0  0  0  0  0  0  0  0  0
   11.6381    7.0366    0.0000 H   0  0  0  0  0  0  0  0  0  0  0  0
   12.6875    5.7843    0.0000 H   0  0  0  0  0  0  0  0  0  0  0  0
    8.2893    6.1174    0.0000 H   0  0  0  0  0  0  0  0  0  0  0  0
    9.3498    4.6823    0.0000 H   0  0  0  0  0  0  0  0  0  0  0  0
    8.1207    8.1078    0.0000 H   0  0  0  0  0  0  0  0  0  0  0  0
    9.7913    9.0708    0.0000 H   0  0  0  0  0  0  0  0  0  0  0  0
   11.0188    7.7756    0.0000 H   0  0  0  0  0  0  0  0  0  0  0  0
   13.6456   -0.8211    0.0000 H   0  0  0  0  0  0  0  0  0  0  0  0
   12.2351   -2.2355    0.0000 H   0  0  0  0  0  0  0  0  0  0  0  0
    9.8999    1.4638    0.0000 H   0  0  0  0  0  0  0  0  0  0  0  0
   11.5816    0.8670    0.0000 H   0  0  0  0  0  0  0  0  0  0  0  0
    7.4277   -0.4820    0.0000 H   0  0  0  0  0  0  0  0  0  0  0  0
    9.0970   -1.4473    0.0000 H   0  0  0  0  0  0  0  0  0  0  0  0
    5.8393    2.6302    0.0000 H   0  0  0  0  0  0  0  0  0  0  0  0
    5.8375    0.0321    0.0000 H   0  0  0  0  0  0  0  0  0  0  0  0
   12.5738   -3.6868    0.0000 H   0  0  0  0  0  0  0  0  0  0  0  0
    9.1856   -4.2022    0.0000 H   0  0  0  0  0  0  0  0  0  0  0  0
   12.7654   -6.7789    0.0000 H   0  0  0  0  0  0  0  0  0  0  0  0
   11.3288   -7.1228    0.0000 H   0  0  0  0  0  0  0  0  0  0  0  0
   13.4799   -3.3373    0.0000 H   0  0  0  0  0  0  0  0  0  0  0  0
   12.1667   -3.4052    0.0000 H   0  0  0  0  0  0  0  0  0  0  0  0
   15.3243   -6.3295    0.0000 H   0  0  0  0  0  0  0  0  0  0  0  0
   13.7151   -6.6121    0.0000 H   0  0  0  0  0  0  0  0  0  0  0  0
   16.2027   -2.9698    0.0000 H   0  0  0  0  0  0  0  0  0  0  0  0
   14.4296   -3.1706    0.0000 H   0  0  0  0  0  0  0  0  0  0  0  0
   18.0108   -3.8189    0.0000 H   0  0  0  0  0  0  0  0  0  0  0  0
   18.0094   -5.7473    0.0000 H   0  0  0  0  0  0  0  0  0  0  0  0
   16.2740   -6.1627    0.0000 H   0  0  0  0  0  0  0  0  0  0  0  0
    7.5156   -4.1392    0.0000 H   0  0  0  0  0  0  0  0  0  0  0  0
    5.8763   -5.2804    0.0000 H   0  0  0  0  0  0  0  0  0  0  0  0
    8.5229   -8.8445    0.0000 H   0  0  0  0  0  0  0  0  0  0  0  0
    6.5152   -8.3610    0.0000 H   0  0  0  0  0  0  0  0  0  0  0  0
   10.3334   -6.0694    0.0000 H   0  0  0  0  0  0  0  0  0  0  0  0
    8.7713   -5.5906    0.0000 H   0  0  0  0  0  0  0  0  0  0  0  0
   11.0812   -9.2973    0.0000 H   0  0  0  0  0  0  0  0  0  0  0  0
    9.4497   -9.2108    0.0000 H   0  0  0  0  0  0  0  0  0  0  0  0
   12.3531   -6.1159    0.0000 H   0  0  0  0  0  0  0  0  0  0  0  0
   15.4487   -8.9036    0.0000 H   0  0  0  0  0  0  0  0  0  0  0  0
   14.5618   -6.4616    0.0000 H   0  0  0  0  0  0  0  0  0  0  0  0
   13.7773  -10.8927    0.0000 H   0  0  0  0  0  0  0  0  0  0  0  0
   11.2190  -10.4398    0.0000 H   0  0  0  0  0  0  0  0  0  0  0  0
    4.3286   -4.6500    0.0000 H   0  0  0  0  0  0  0  0  0  0  0  0
    2.3977   -5.1617    0.0000 H   0  0  0  0  0  0  0  0  0  0  0  0
    3.4838   -9.4367    0.0000 H   0  0  0  0  0  0  0  0  0  0  0  0
    1.9964   -8.4507    0.0000 H   0  0  0  0  0  0  0  0  0  0  0  0
    6.2433   -7.2596    0.0000 H   0  0  0  0  0  0  0  0  0  0  0  0
    5.1936   -6.4675    0.0000 H   0  0  0  0  0  0  0  0  0  0  0  0
    5.7329  -10.7372    0.0000 H   0  0  0  0  0  0  0  0  0  0  0  0
    4.3185   -9.9194    0.0000 H   0  0  0  0  0  0  0  0  0  0  0  0
    8.6473   -9.0846    0.0000 H   0  0  0  0  0  0  0  0  0  0  0  0
    6.8960   -7.7629    0.0000 H   0  0  0  0  0  0  0  0  0  0  0  0
    9.4045  -10.5408    0.0000 H   0  0  0  0  0  0  0  0  0  0  0  0
    8.1640  -12.0172    0.0000 H   0  0  0  0  0  0  0  0  0  0  0  0
    6.5676  -11.2199    0.0000 H   0  0  0  0  0  0  0  0  0  0  0  0
    0.9951   -3.9582    0.0000 H   0  0  0  0  0  0  0  0  0  0  0  0
   -0.8304   -3.8605    0.0000 H   0  0  0  0  0  0  0  0  0  0  0  0
   -1.0939   -8.2920    0.0000 H   0  0  0  0  0  0  0  0  0  0  0  0
   -2.3325   -6.8139    0.0000 H   0  0  0  0  0  0  0  0  0  0  0  0
   -1.6109   -2.3828    0.0000 H   0  0  0  0  0  0  0  0  0  0  0  0
   -3.4189   -1.5336    0.0000 H   0  0  0  0  0  0  0  0  0  0  0  0
   -5.1821   -5.6077    0.0000 H   0  0  0  0  0  0  0  0  0  0  0  0
   -5.8404   -3.7952    0.0000 H   0  0  0  0  0  0  0  0  0  0  0  0
   -3.5443   -6.7512    0.0000 H   0  0  0  0  0  0  0  0  0  0  0  0
   -3.5949   -0.0538    0.0000 H   0  0  0  0  0  0  0  0  0  0  0  0
   -5.1192   -1.0119    0.0000 H   0  0  0  0  0  0  0  0  0  0  0  0
   -5.9591   -2.2192    0.0000 H   0  0  0  0  0  0  0  0  0  0  0  0
   -6.2231   -3.0230    0.0000 H   0  0  0  0  0  0  0  0  0  0  0  0
   -6.8487   -3.5124    0.0000 H   0  0  0  0  0  0  0  0  0  0  0  0
   -7.3153   -3.9033    0.0000 H   0  0  0  0  0  0  0  0  0  0  0  0
   -8.6152   -4.5913    0.0000 H   0  0  0  0  0  0  0  0  0  0  0  0
   -9.5902   -5.1273    0.0000 H   0  0  0  0  0  0  0  0  0  0  0  0
   -3.5206    0.5362    0.0000 H   0  0  0  0  0  0  0  0  0  0  0  0
   -3.8051    2.2978    0.0000 H   0  0  0  0  0  0  0  0  0  0  0  0
   -5.4072    2.6187    0.0000 H   0  0  0  0  0  0  0  0  0  0  0  0
   -5.3096    4.0121    0.0000 H   0  0  0  0  0  0  0  0  0  0  0  0
   -6.1226    5.0113    0.0000 H   0  0  0  0  0  0  0  0  0  0  0  0
   -7.4438    7.6657    0.0000 H   0  0  0  0  0  0  0  0  0  0  0  0
   -8.6935    6.6133    0.0000 H   0  0  0  0  0  0  0  0  0  0  0  0
   -4.8798    4.1053    0.0000 H   0  0  0  0  0  0  0  0  0  0  0  0
   -2.1932    5.0175    0.0000 H   0  0  0  0  0  0  0  0  0  0  0  0
   -1.5236    7.9419    0.0000 H   0  0  0  0  0  0  0  0  0  0  0  0
   -3.7214    9.9839    0.0000 H   0  0  0  0  0  0  0  0  0  0  0  0
   -6.5887    9.1016    0.0000 H   0  0  0  0  0  0  0  0  0  0  0  0
   -9.7221    7.5583    0.0000 H   0  0  0  0  0  0  0  0  0  0  0  0
  -11.0102    7.5457    0.0000 H   0  0  0  0  0  0  0  0  0  0  0  0
  -13.9092    8.1678    0.0000 H   0  0  0  0  0  0  0  0  0  0  0  0
  -13.8656    6.5345    0.0000 H   0  0  0  0  0  0  0  0  0  0  0  0
   -9.5270    7.9525    0.0000 H   0  0  0  0  0  0  0  0  0  0  0  0
   -8.5651   10.6217    0.0000 H   0  0  0  0  0  0  0  0  0  0  0  0
  -10.4340   12.9685    0.0000 H   0  0  0  0  0  0  0  0  0  0  0  0
  -13.4008   12.5234    0.0000 H   0  0  0  0  0  0  0  0  0  0  0  0
  -14.4987    9.7315    0.0000 H   0  0  0  0  0  0  0  0  0  0  0  0
  -15.3931    6.2107    0.0000 H   0  0  0  0  0  0  0  0  0  0  0  0
  -15.8677    5.3695    0.0000 H   0  0  0  0  0  0  0  0  0  0  0  0
  -18.2600    3.2578    0.0000 H   0  0  0  0  0  0  0  0  0  0  0  0
  -17.0288    2.4417    0.0000 H   0  0  0  0  0  0  0  0  0  0  0  0
  -17.7496    6.7355    0.0000 H   0  0  0  0  0  0  0  0  0  0  0  0
  -16.3352    5.9176    0.0000 H   0  0  0  0  0  0  0  0  0  0  0  0
  -20.5091    4.5584    0.0000 H   0  0  0  0  0  0  0  0  0  0  0  0
  -19.0947    3.7405    0.0000 H   0  0  0  0  0  0  0  0  0  0  0  0
  -20.1807    8.0155    0.0000 H   0  0  0  0  0  0  0  0  0  0  0  0
  -18.5843    7.2182    0.0000 H   0  0  0  0  0  0  0  0  0  0  0  0
  -22.1704    7.8386    0.0000 H   0  0  0  0  0  0  0  0  0  0  0  0
  -22.8311    6.0270    0.0000 H   0  0  0  0  0  0  0  0  0  0  0  0
  -21.3438    5.0411    0.0000 H   0  0  0  0  0  0  0  0  0  0  0  0
  -17.7280    1.0455    0.0000 H   0  0  0  0  0  0  0  0  0  0  0  0
  -15.8345   -3.1267    0.0000 H   0  0  0  0  0  0  0  0  0  0  0  0
  -16.7214   -2.1649    0.0000 H   0  0  0  0  0  0  0  0  0  0  0  0
  -14.5335   -4.2761    0.0000 H   0  0  0  0  0  0  0  0  0  0  0  0
  -15.4830   -3.6433    0.0000 H   0  0  0  0  0  0  0  0  0  0  0  0
  -12.5893   -4.9862    0.0000 H   0  0  0  0  0  0  0  0  0  0  0  0
  -13.9992   -4.5676    0.0000 H   0  0  0  0  0  0  0  0  0  0  0  0
  -11.5278   -5.3199    0.0000 H   0  0  0  0  0  0  0  0  0  0  0  0
  -18.6989   -0.8120    0.0000 H   0  0  0  0  0  0  0  0  0  0  0  0
  -18.5488    0.9661    0.0000 H   0  0  0  0  0  0  0  0  0  0  0  0
  -17.1535    1.4513    0.0000 H   0  0  0  0  0  0  0  0  0  0  0  0
  -19.1013   -0.0235    0.0000 H   0  0  0  0  0  0  0  0  0  0  0  0
  -18.0073   -3.2334    0.0000 H   0  0  0  0  0  0  0  0  0  0  0  0
  -19.5839   -5.4207    0.0000 H   0  0  0  0  0  0  0  0  0  0  0  0
  -18.3197   -4.1613    0.0000 H   0  0  0  0  0  0  0  0  0  0  0  0
  -21.8447   -2.8461    0.0000 H   0  0  0  0  0  0  0  0  0  0  0  0
  -23.1753   -6.1278    0.0000 H   0  0  0  0  0  0  0  0  0  0  0  0
  -21.7156   -7.1541    0.0000 H   0  0  0  0  0  0  0  0  0  0  0  0
  -20.3073   -6.0582    0.0000 H   0  0  0  0  0  0  0  0  0  0  0  0
  -23.8283   -5.0577    0.0000 H   0  0  0  0  0  0  0  0  0  0  0  0
  -24.0732   -3.2901    0.0000 H   0  0  0  0  0  0  0  0  0  0  0  0
  -22.2777   -2.5868    0.0000 H   0  0  0  0  0  0  0  0  0  0  0  0
  1  2  1  0
  2  3  1  0
  3  4  1  0
  4  5  1  0
  5  6  1  0
  6  7  1  0
  7  8  1  0
  8  9  1  0
  9 10  1  0
 10 11  1  0
 11 12  1  0
 12 13  2  0
 12 14  1  0
 14 15  1  0
 15 16  1  0
 16 17  1  0
 17 18  1  0
 18 19  1  0
 19 20  1  0
 15 21  1  0
 21 22  2  0
 21 23  1  0
 23 24  1  0
 24 25  1  0
 25 26  1  0
 26 27  1  0
 27 28  1  0
 27 29  2  0
 24 30  1  0
 30 31  2  0
 30 32  1  0
 32 33  1  0
 33 34  1  0
 34 35  1  0
 35 36  1  0
 36 37  1  0
 37 38  1  0
 33 39  1  0
 39 40  2  0
 39 41  1  0
 41 42  1  0
 42 43  1  0
 43 44  1  0
 44 45  1  0
 45 46  1  0
 46 47  1  0
 47 48  2  3
 47 49  1  0
 42 50  1  0
 50 51  2  0
 50 52  1  0
 52 53  1  0
 53 54  1  0
 54 55  1  0
 55 56  1  0
 56 57  1  0
 57 58  1  0
 53 59  1  0
 59 60  2  0
 59 61  1  0
 61 62  1  0
 62 63  1  0
 63 64  1  0
 64 65  2  0
 65 66  1  0
 65 67  1  0
 67 68  1  0
 67 69  2  0
 69 70  1  0
 69 71  1  0
 71 72  1  0
 71 73  2  0
 73 74  1  0
 62 75  1  0
 75 76  2  0
 75 77  1  0
 77 78  1  0
 78 79  1  0
 79 80  1  0
 78 81  1  0
 81 82  2  0
 81 83  1  0
 84 83  1  1
 84 85  1  0
 85 86  1  0
 86 87  1  0
 87 88  1  0
 84 89  1  0
 84 90  1  0
 90 91  2  0
 90 92  1  0
 92 93  1  0
 93 94  1  0
 94 95  1  0
 95 96  2  0
 96 97  1  0
 97 98  2  0
 98 99  1  0
 99100  2  0
 93101  1  0
101102  2  0
101103  1  0
103104  1  0
104105  1  0
105106  1  0
106107  2  0
107108  1  0
108109  2  0
109110  1  0
110111  2  0
104112  1  0
112113  2  0
112114  1  0
114115  1  0
115116  1  0
116117  1  0
117118  1  0
118119  1  0
119120  1  0
115121  1  0
121122  2  0
121123  1  0
123124  1  0
124125  1  0
125126  1  0
126127  1  0
127128  1  0
124129  1  0
124130  1  1
130131  2  0
130132  1  0
132133  1  0
133134  1  0
134135  1  0
135136  1  0
135137  1  0
133138  1  0
138139  2  0
138140  1  0
 73 64  1  0
100 95  1  0
111106  1  0
 88128  2  0
  1141  1  0
  1142  1  0
  2143  1  0
  2144  1  0
  3145  1  0
  3146  1  0
  5147  1  0
  5148  1  0
  7149  1  0
  7150  1  0
  8151  1  0
  8152  1  0
 10153  1  0
 10154  1  0
 11155  1  0
 11156  1  0
 14157  1  0
 15158  1  6
 16159  1  0
 16160  1  0
 17161  1  0
 17162  1  0
 18163  1  0
 18164  1  0
 19165  1  0
 19166  1  0
 20167  1  0
 20168  1  0
 20169  1  0
 23170  1  0
 24171  1  6
 25172  1  0
 25173  1  0
 26174  1  0
 26175  1  0
 28176  1  0
 28177  1  0
 32178  1  0
 33179  1  1
 34180  1  0
 34181  1  0
 35182  1  0
 35183  1  0
 36184  1  0
 36185  1  0
 37186  1  0
 37187  1  0
 38188  1  0
 38189  1  0
 38190  1  0
 41191  1  0
 42192  1  1
 43193  1  0
 43194  1  0
 44195  1  0
 44196  1  0
 45197  1  0
 45198  1  0
 46199  1  0
 48200  1  0
 48201  1  0
 49202  1  0
 49203  1  0
 52204  1  0
 53205  1  1
 54206  1  0
 54207  1  0
 55208  1  0
 55209  1  0
 56210  1  0
 56211  1  0
 57212  1  0
 57213  1  0
 58214  1  0
 58215  1  0
 58216  1  0
 61217  1  0
 62218  1  6
 63219  1  0
 63220  1  0
 77221  1  0
 78222  1  1
 79223  1  0
 79224  1  0
 80225  1  0
 83226  1  0
 85227  1  0
 85228  1  0
 86229  1  0
 86230  1  0
 87231  1  0
 87232  1  0
 88233  1  0
 89234  1  0
 89235  1  0
 89236  1  0
 92237  1  0
 93238  1  6
 94239  1  0
 94240  1  0
 96241  1  0
 97242  1  0
 98243  1  0
 99244  1  0
100245  1  0
103246  1  0
104247  1  6
105248  1  0
105249  1  0
107250  1  0
108251  1  0
109252  1  0
110253  1  0
111254  1  0
114255  1  0
115256  1  6
116257  1  0
116258  1  0
117259  1  0
117260  1  0
118261  1  0
118262  1  0
119263  1  0
119264  1  0
120265  1  0
120266  1  0
120267  1  0
123268  1  0
125269  1  0
125270  1  0
126271  1  0
126272  1  0
127273  1  0
127274  1  0
128275  1  0
129276  1  0
129277  1  0
129278  1  0
132279  1  0
133280  1  1
134281  1  0
134282  1  0
135283  1  0
136284  1  0
136285  1  0
136286  1  0
137287  1  0
137288  1  0
137289  1  0
M  CHG  6  20   1  38   1  48   1  58   1 120   1 140  -1
M  END
