
     RDKit          2D

321327  0  0  0  0  0  0  0  0999 V2000
   21.1031   -3.1237    0.0000 C   0  0  0  0  0  0  0  0  0  0  0  0
   22.4240   -2.4130    0.0000 N   0  0  0  0  0  0  0  0  0  0  0  0
   23.7000   -3.2016    0.0000 C   0  0  0  0  0  0  0  0  0  0  0  0
   23.6550   -4.7009    0.0000 C   0  0  0  0  0  0  0  0  0  0  0  0
   24.9309   -5.4895    0.0000 C   0  0  0  0  0  0  0  0  0  0  0  0
   26.2519   -4.7788    0.0000 C   0  0  0  0  0  0  0  0  0  0  0  0
   26.2969   -3.2795    0.0000 C   0  0  0  0  0  0  0  0  0  0  0  0
   25.0209   -2.4909    0.0000 C   0  0  0  0  0  0  0  0  0  0  0  0
   27.7367   -2.8590    0.0000 C   0  0  0  0  0  0  0  0  0  0  0  0
   28.5816   -4.0984    0.0000 O   0  0  0  0  0  0  0  0  0  0  0  0
   27.6639   -5.2849    0.0000 C   0  0  0  0  0  0  0  0  0  0  0  0
   28.0845   -6.7248    0.0000 O   0  0  0  0  0  0  0  0  0  0  0  0
   29.2126   -2.5912    0.0000 C   0  0  0  0  0  0  0  0  0  0  0  0
   29.7187   -1.1792    0.0000 C   0  0  0  0  0  0  0  0  0  0  0  0
   31.1946   -0.9115    0.0000 C   0  0  0  0  0  0  0  0  0  0  0  0
   32.1644   -2.0558    0.0000 C   0  0  0  0  0  0  0  0  0  0  0  0
   31.6584   -3.4678    0.0000 C   0  0  0  0  0  0  0  0  0  0  0  0
   30.1824   -3.7355    0.0000 C   0  0  0  0  0  0  0  0  0  0  0  0
   33.6404   -1.7880    0.0000 O   0  0  0  0  0  0  0  0  0  0  0  0
   28.7489   -0.0349    0.0000 O   0  0  0  0  0  0  0  0  0  0  0  0
   27.2730   -0.3026    0.0000 C   0  0  0  0  0  0  0  0  0  0  0  0
   26.7669   -1.7147    0.0000 C   0  0  0  0  0  0  0  0  0  0  0  0
   25.5272   -1.3234    0.0000 C   0  0  0  0  0  0  0  0  0  0  0  0
   25.0099   -0.7131    0.0000 C   0  0  0  0  0  0  0  0  0  0  0  0
   25.2798    0.0400    0.0000 C   0  0  0  0  0  0  0  0  0  0  0  0
   26.0670    0.1827    0.0000 C   0  0  0  0  0  0  0  0  0  0  0  0
   23.8574    1.7183    0.0000 O   0  0  0  0  0  0  0  0  0  0  0  0
   21.0581   -4.6230    0.0000 S   0  0  0  0  0  0  0  0  0  0  0  0
   19.8271   -2.3351    0.0000 N   0  0  0  0  0  0  0  0  0  0  0  0
   18.5061   -3.0458    0.0000 C   0  0  0  0  0  0  0  0  0  0  0  0
   17.2302   -2.2572    0.0000 C   0  0  0  0  0  0  0  0  0  0  0  0
   15.9092   -2.9679    0.0000 C   0  0  0  0  0  0  0  0  0  0  0  0
   16.0789   -3.7468    0.0000 O   0  0  0  0  0  0  0  0  0  0  0  0
   14.6333   -2.1793    0.0000 N   0  0  0  0  0  0  0  0  0  0  0  0
   13.3123   -2.8900    0.0000 C   0  0  0  0  0  0  0  0  0  0  0  0
   14.2416   -4.0675    0.0000 C   0  0  0  0  0  0  0  0  0  0  0  0
   15.7260   -3.8514    0.0000 C   0  0  0  0  0  0  0  0  0  0  0  0
   16.6553   -5.0289    0.0000 C   0  0  0  0  0  0  0  0  0  0  0  0
   18.1396   -4.8128    0.0000 C   0  0  0  0  0  0  0  0  0  0  0  0
   18.6947   -3.4193    0.0000 C   0  0  0  0  0  0  0  0  0  0  0  0
   17.7654   -2.2418    0.0000 C   0  0  0  0  0  0  0  0  0  0  0  0
   16.2810   -2.4579    0.0000 C   0  0  0  0  0  0  0  0  0  0  0  0
   11.8280   -3.1061    0.0000 C   0  0  0  0  0  0  0  0  0  0  0  0
   11.6266   -4.5925    0.0000 O   0  0  0  0  0  0  0  0  0  0  0  0
   10.8987   -1.9286    0.0000 N   0  0  0  0  0  0  0  0  0  0  0  0
    9.4143   -2.1447    0.0000 C   0  0  0  0  0  0  0  0  0  0  0  0
    9.8849   -3.5689    0.0000 C   0  0  0  0  0  0  0  0  0  0  0  0
   11.3536   -3.8736    0.0000 C   0  0  0  0  0  0  0  0  0  0  0  0
   11.8241   -5.2979    0.0000 N   0  0  0  0  0  0  0  0  0  0  0  0
   12.5931   -3.0288    0.0000 O   0  0  0  0  0  0  0  0  0  0  0  0
    7.9456   -1.8400    0.0000 C   0  0  0  0  0  0  0  0  0  0  0  0
    7.2480   -3.1679    0.0000 O   0  0  0  0  0  0  0  0  0  0  0  0
    7.4750   -0.4157    0.0000 N   0  0  0  0  0  0  0  0  0  0  0  0
    6.0063   -0.1111    0.0000 C   0  0  0  0  0  0  0  0  0  0  0  0
    5.9613   -1.6104    0.0000 C   0  0  0  0  0  0  0  0  0  0  0  0
    7.2373   -2.3990    0.0000 C   0  0  0  0  0  0  0  0  0  0  0  0
    5.4063   -3.0039    0.0000 C   0  0  0  0  0  0  0  0  0  0  0  0
    6.3356   -4.1814    0.0000 C   0  0  0  0  0  0  0  0  0  0  0  0
    4.7303    0.6775    0.0000 C   0  0  0  0  0  0  0  0  0  0  0  0
    3.6206   -0.3317    0.0000 O   0  0  0  0  0  0  0  0  0  0  0  0
    4.7753    2.1769    0.0000 N   0  0  0  0  0  0  0  0  0  0  0  0
    3.4994    2.9655    0.0000 C   0  0  0  0  0  0  0  0  0  0  0  0
    3.3594    1.4720    0.0000 C   0  0  0  0  0  0  0  0  0  0  0  0
    2.9393    0.0321    0.0000 C   0  0  0  0  0  0  0  0  0  0  0  0
    2.2543   -1.3024    0.0000 C   0  0  0  0  0  0  0  0  0  0  0  0
    1.3291   -2.4831    0.0000 C   0  0  0  0  0  0  0  0  0  0  0  0
    0.1972   -3.4674    0.0000 C   0  0  0  0  0  0  0  0  0  0  0  0
   -1.1005   -4.2196    0.0000 C   0  0  0  0  0  0  0  0  0  0  0  0
   -2.5172   -4.7127    0.0000 C   0  0  0  0  0  0  0  0  0  0  0  0
    4.7726    3.7585    0.0000 C   0  0  0  0  0  0  0  0  0  0  0  0
    3.3542    4.4584    0.0000 C   0  0  0  0  0  0  0  0  0  0  0  0
    4.7807    4.9222    0.0000 O   0  0  0  0  0  0  0  0  0  0  0  0
    2.9291    5.8969    0.0000 N   0  0  0  0  0  0  0  0  0  0  0  0
    2.2394    7.2290    0.0000 C   0  0  0  0  0  0  0  0  0  0  0  0
    2.8817    8.5845    0.0000 C   0  0  0  0  0  0  0  0  0  0  0  0
    4.3768    8.7060    0.0000 C   0  0  0  0  0  0  0  0  0  0  0  0
    5.0191   10.0615    0.0000 O   0  0  0  0  0  0  0  0  0  0  0  0
    5.2295    7.4720    0.0000 O   0  0  0  0  0  0  0  0  0  0  0  0
    1.3101    8.4065    0.0000 C   0  0  0  0  0  0  0  0  0  0  0  0
    2.2594    9.5678    0.0000 O   0  0  0  0  0  0  0  0  0  0  0  0
    0.1748    9.3868    0.0000 N   0  0  0  0  0  0  0  0  0  0  0  0
   -1.1256   10.1345    0.0000 C   0  0  0  0  0  0  0  0  0  0  0  0
   -1.3181   11.6221    0.0000 C   0  0  0  0  0  0  0  0  0  0  0  0
   -0.1260   12.5326    0.0000 C   0  0  0  0  0  0  0  0  0  0  0  0
   -0.3185   14.0202    0.0000 C   0  0  0  0  0  0  0  0  0  0  0  0
    0.8736   14.9307    0.0000 N   0  0  0  0  0  0  0  0  0  0  0  0
    0.6811   16.4183    0.0000 C   0  0  0  0  0  0  0  0  0  0  0  0
    1.8731   17.3288    0.0000 N   0  0  0  0  0  0  0  0  0  0  0  0
   -0.7035   16.9954    0.0000 N   0  0  0  0  0  0  0  0  0  0  0  0
   -2.5439   10.6226    0.0000 C   0  0  0  0  0  0  0  0  0  0  0  0
   -2.3732   12.1129    0.0000 O   0  0  0  0  0  0  0  0  0  0  0  0
   -4.0290   10.8335    0.0000 N   0  0  0  0  0  0  0  0  0  0  0  0
   -5.5272   10.7595    0.0000 C   0  0  0  0  0  0  0  0  0  0  0  0
   -6.4934   11.9069    0.0000 C   0  0  0  0  0  0  0  0  0  0  0  0
   -5.8147   13.2446    0.0000 C   0  0  0  0  0  0  0  0  0  0  0  0
   -7.7937   12.6546    0.0000 C   0  0  0  0  0  0  0  0  0  0  0  0
   -7.7963   14.1546    0.0000 C   0  0  0  0  0  0  0  0  0  0  0  0
   -6.9843   10.4034    0.0000 C   0  0  0  0  0  0  0  0  0  0  0  0
   -7.4774   11.8200    0.0000 O   0  0  0  0  0  0  0  0  0  0  0  0
   -8.3477    9.7778    0.0000 N   0  0  0  0  0  0  0  0  0  0  0  0
   -9.5680    8.9056    0.0000 C   0  0  0  0  0  0  0  0  0  0  0  0
  -11.0011    9.3485    0.0000 C   0  0  0  0  0  0  0  0  0  0  0  0
  -11.3342   10.8111    0.0000 C   0  0  0  0  0  0  0  0  0  0  0  0
  -12.7673   11.2540    0.0000 C   0  0  0  0  0  0  0  0  0  0  0  0
  -13.1003   12.7165    0.0000 C   0  0  0  0  0  0  0  0  0  0  0  0
  -14.5334   13.1594    0.0000 N   0  0  0  0  0  0  0  0  0  0  0  0
  -10.6012    7.8182    0.0000 C   0  0  0  0  0  0  0  0  0  0  0  0
  -11.8859    8.5926    0.0000 O   0  0  0  0  0  0  0  0  0  0  0  0
  -11.4100    6.5549    0.0000 N   0  0  0  0  0  0  0  0  0  0  0  0
  -11.9651    5.1614    0.0000 C   0  0  0  0  0  0  0  0  0  0  0  0
  -13.4101    4.7592    0.0000 C   0  0  0  0  0  0  0  0  0  0  0  0
  -14.4810    5.8095    0.0000 C   0  0  0  0  0  0  0  0  0  0  0  0
  -15.9261    5.4073    0.0000 C   0  0  0  0  0  0  0  0  0  0  0  0
  -16.9969    6.4576    0.0000 O   0  0  0  0  0  0  0  0  0  0  0  0
  -16.3002    3.9547    0.0000 O   0  0  0  0  0  0  0  0  0  0  0  0
  -12.2464    3.6880    0.0000 C   0  0  0  0  0  0  0  0  0  0  0  0
  -13.7457    3.6449    0.0000 O   0  0  0  0  0  0  0  0  0  0  0  0
  -12.2437    2.1880    0.0000 N   0  0  0  0  0  0  0  0  0  0  0  0
  -11.9573    0.7156    0.0000 C   0  0  0  0  0  0  0  0  0  0  0  0
  -12.9555   -0.4040    0.0000 C   0  0  0  0  0  0  0  0  0  0  0  0
  -14.4242   -0.0994    0.0000 C   0  0  0  0  0  0  0  0  0  0  0  0
  -15.4224   -1.2190    0.0000 C   0  0  0  0  0  0  0  0  0  0  0  0
  -15.7002    0.6893    0.0000 C   0  0  0  0  0  0  0  0  0  0  0  0
  -11.3974   -0.6759    0.0000 C   0  0  0  0  0  0  0  0  0  0  0  0
  -12.6354   -1.5228    0.0000 O   0  0  0  0  0  0  0  0  0  0  0  0
  -10.5842   -1.9364    0.0000 N   0  0  0  0  0  0  0  0  0  0  0  0
   -9.5472   -3.0202    0.0000 C   0  0  0  0  0  0  0  0  0  0  0  0
   -8.3238   -3.8882    0.0000 C   0  0  0  0  0  0  0  0  0  0  0  0
   -6.9583   -4.5089    0.0000 C   0  0  0  0  0  0  0  0  0  0  0  0
   -5.5000   -4.8600    0.0000 C   0  0  0  0  0  0  0  0  0  0  0  0
   -4.0015   -4.9288    0.0000 C   0  0  0  0  0  0  0  0  0  0  0  0
  -10.9788   -3.4681    0.0000 C   0  0  0  0  0  0  0  0  0  0  0  0
   -9.7816   -4.5018    0.0000 C   0  0  0  0  0  0  0  0  0  0  0  0
   -8.8788   -5.6996    0.0000 O   0  0  0  0  0  0  0  0  0  0  0  0
  -11.1819   -5.0395    0.0000 N   0  0  0  0  0  0  0  0  0  0  0  0
  -11.4163   -6.5211    0.0000 C   0  0  0  0  0  0  0  0  0  0  0  0
  -11.1299   -7.9935    0.0000 C   0  0  0  0  0  0  0  0  0  0  0  0
  -10.3571   -9.2791    0.0000 O   0  0  0  0  0  0  0  0  0  0  0  0
  -12.1334   -9.1084    0.0000 C   0  0  0  0  0  0  0  0  0  0  0  0
  -12.8166   -7.0589    0.0000 C   0  0  0  0  0  0  0  0  0  0  0  0
  -13.9825   -6.1151    0.0000 O   0  0  0  0  0  0  0  0  0  0  0  0
  -13.0510   -8.5405    0.0000 N   0  0  0  0  0  0  0  0  0  0  0  0
  -14.4513   -9.0782    0.0000 C   0  0  0  0  0  0  0  0  0  0  0  0
  -15.9511   -9.1046    0.0000 C   0  0  0  0  0  0  0  0  0  0  0  0
  -16.7239   -7.8190    0.0000 C   0  0  0  0  0  0  0  0  0  0  0  0
  -18.2236   -7.8454    0.0000 C   0  0  0  0  0  0  0  0  0  0  0  0
  -18.9964   -6.5598    0.0000 N   0  0  0  0  0  0  0  0  0  0  0  0
  -20.4961   -6.5862    0.0000 C   0  0  0  0  0  0  0  0  0  0  0  0
  -21.2689   -5.3006    0.0000 N   0  0  0  0  0  0  0  0  0  0  0  0
  -21.2232   -7.8983    0.0000 N   0  0  0  0  0  0  0  0  0  0  0  0
  -14.6857  -10.5598    0.0000 C   0  0  0  0  0  0  0  0  0  0  0  0
  -13.5199  -11.5036    0.0000 O   0  0  0  0  0  0  0  0  0  0  0  0
  -16.0860  -11.0976    0.0000 N   0  0  0  0  0  0  0  0  0  0  0  0
  -16.3204  -12.5791    0.0000 C   0  0  0  0  0  0  0  0  0  0  0  0
  -16.0340  -14.0515    0.0000 C   0  0  0  0  0  0  0  0  0  0  0  0
  -17.1659  -15.0358    0.0000 C   0  0  0  0  0  0  0  0  0  0  0  0
  -15.2612  -15.3372    0.0000 C   0  0  0  0  0  0  0  0  0  0  0  0
  -13.7615  -15.3107    0.0000 C   0  0  0  0  0  0  0  0  0  0  0  0
  -17.7207  -13.1169    0.0000 C   0  0  0  0  0  0  0  0  0  0  0  0
  -18.1340  -14.5589    0.0000 O   0  0  0  0  0  0  0  0  0  0  0  0
  -18.8866  -12.1731    0.0000 O   0  0  0  0  0  0  0  0  0  0  0  0
   22.2859   -0.9194    0.0000 H   0  0  0  0  0  0  0  0  0  0  0  0
   22.3340   -5.4116    0.0000 H   0  0  0  0  0  0  0  0  0  0  0  0
   24.8860   -6.9889    0.0000 H   0  0  0  0  0  0  0  0  0  0  0  0
   24.7017   -1.0252    0.0000 H   0  0  0  0  0  0  0  0  0  0  0  0
   31.7007    0.5006    0.0000 H   0  0  0  0  0  0  0  0  0  0  0  0
   32.6282   -4.6121    0.0000 H   0  0  0  0  0  0  0  0  0  0  0  0
   29.6764   -5.1476    0.0000 H   0  0  0  0  0  0  0  0  0  0  0  0
   34.6102   -2.9323    0.0000 H   0  0  0  0  0  0  0  0  0  0  0  0
   24.7849   -3.3944    0.0000 H   0  0  0  0  0  0  0  0  0  0  0  0
   22.8236   -0.9239    0.0000 H   0  0  0  0  0  0  0  0  0  0  0  0
   26.8093    2.2537    0.0000 H   0  0  0  0  0  0  0  0  0  0  0  0
   24.3635    3.1303    0.0000 H   0  0  0  0  0  0  0  0  0  0  0  0
   19.8721   -0.8358    0.0000 H   0  0  0  0  0  0  0  0  0  0  0  0
   19.4354   -4.2233    0.0000 H   0  0  0  0  0  0  0  0  0  0  0  0
   17.5079   -4.1654    0.0000 H   0  0  0  0  0  0  0  0  0  0  0  0
   18.0845   -1.0242    0.0000 H   0  0  0  0  0  0  0  0  0  0  0  0
   16.3009   -1.0797    0.0000 H   0  0  0  0  0  0  0  0  0  0  0  0
   14.4952   -0.6857    0.0000 H   0  0  0  0  0  0  0  0  0  0  0  0
   12.8418   -1.4657    0.0000 H   0  0  0  0  0  0  0  0  0  0  0  0
   14.7122   -5.4917    0.0000 H   0  0  0  0  0  0  0  0  0  0  0  0
   13.0172   -4.9339    0.0000 H   0  0  0  0  0  0  0  0  0  0  0  0
   16.1002   -6.4224    0.0000 H   0  0  0  0  0  0  0  0  0  0  0  0
   19.0689   -5.9903    0.0000 H   0  0  0  0  0  0  0  0  0  0  0  0
   20.1791   -3.2032    0.0000 H   0  0  0  0  0  0  0  0  0  0  0  0
   18.4862   -0.9263    0.0000 H   0  0  0  0  0  0  0  0  0  0  0  0
   15.5022   -1.1759    0.0000 H   0  0  0  0  0  0  0  0  0  0  0  0
   11.4537   -0.5351    0.0000 H   0  0  0  0  0  0  0  0  0  0  0  0
    9.4593   -0.6453    0.0000 H   0  0  0  0  0  0  0  0  0  0  0  0
    9.8399   -5.0683    0.0000 H   0  0  0  0  0  0  0  0  0  0  0  0
    8.4005   -3.7850    0.0000 H   0  0  0  0  0  0  0  0  0  0  0  0
   13.2448   -5.7793    0.0000 H   0  0  0  0  0  0  0  0  0  0  0  0
   10.8259   -6.4175    0.0000 H   0  0  0  0  0  0  0  0  0  0  0  0
    8.4733    0.7039    0.0000 H   0  0  0  0  0  0  0  0  0  0  0  0
    6.5614    1.2825    0.0000 H   0  0  0  0  0  0  0  0  0  0  0  0
    4.4926   -1.3057    0.0000 H   0  0  0  0  0  0  0  0  0  0  0  0
    7.3754   -3.8926    0.0000 H   0  0  0  0  0  0  0  0  0  0  0  0
    8.7060   -2.7037    0.0000 H   0  0  0  0  0  0  0  0  0  0  0  0
    8.1461   -1.2112    0.0000 H   0  0  0  0  0  0  0  0  0  0  0  0
    4.4081   -4.1236    0.0000 H   0  0  0  0  0  0  0  0  0  0  0  0
    4.1303   -2.2153    0.0000 H   0  0  0  0  0  0  0  0  0  0  0  0
    5.7805   -5.5749    0.0000 H   0  0  0  0  0  0  0  0  0  0  0  0
    7.6115   -4.9700    0.0000 H   0  0  0  0  0  0  0  0  0  0  0  0
    7.6688   -3.4939    0.0000 H   0  0  0  0  0  0  0  0  0  0  0  0
    6.1730    2.7213    0.0000 H   0  0  0  0  0  0  0  0  0  0  0  0
    4.8482    1.6550    0.0000 H   0  0  0  0  0  0  0  0  0  0  0  0
    4.3310    0.3292    0.0000 H   0  0  0  0  0  0  0  0  0  0  0  0
    4.4122   -0.2517    0.0000 H   0  0  0  0  0  0  0  0  0  0  0  0
    3.8308   -1.1743    0.0000 H   0  0  0  0  0  0  0  0  0  0  0  0
    3.7541   -1.3236    0.0000 H   0  0  0  0  0  0  0  0  0  0  0  0
    3.0615   -2.5667    0.0000 H   0  0  0  0  0  0  0  0  0  0  0  0
    2.7497   -2.9645    0.0000 H   0  0  0  0  0  0  0  0  0  0  0  0
    1.8824   -3.8773    0.0000 H   0  0  0  0  0  0  0  0  0  0  0  0
    1.5011   -4.2089    0.0000 H   0  0  0  0  0  0  0  0  0  0  0  0
    0.4767   -4.9411    0.0000 H   0  0  0  0  0  0  0  0  0  0  0  0
    0.0394   -5.1945    0.0000 H   0  0  0  0  0  0  0  0  0  0  0  0
   -1.2878   -5.7079    0.0000 H   0  0  0  0  0  0  0  0  0  0  0  0
   -2.1610   -6.1698    0.0000 H   0  0  0  0  0  0  0  0  0  0  0  0
    6.1722    3.2190    0.0000 H   0  0  0  0  0  0  0  0  0  0  0  0
    5.8348    4.8177    0.0000 H   0  0  0  0  0  0  0  0  0  0  0  0
    4.0703    5.0840    0.0000 H   0  0  0  0  0  0  0  0  0  0  0  0
    4.3206    6.4569    0.0000 H   0  0  0  0  0  0  0  0  0  0  0  0
    3.7392    7.2554    0.0000 H   0  0  0  0  0  0  0  0  0  0  0  0
    3.2027   10.0498    0.0000 H   0  0  0  0  0  0  0  0  0  0  0  0
    1.5744    9.3199    0.0000 H   0  0  0  0  0  0  0  0  0  0  0  0
    6.7246    7.5934    0.0000 H   0  0  0  0  0  0  0  0  0  0  0  0
    1.1854   10.4952    0.0000 H   0  0  0  0  0  0  0  0  0  0  0  0
    0.2141   10.8093    0.0000 H   0  0  0  0  0  0  0  0  0  0  0  0
   -2.0077   12.9542    0.0000 H   0  0  0  0  0  0  0  0  0  0  0  0
   -2.8155   11.5339    0.0000 H   0  0  0  0  0  0  0  0  0  0  0  0
    1.3056   12.9805    0.0000 H   0  0  0  0  0  0  0  0  0  0  0  0
    0.8655   11.4070    0.0000 H   0  0  0  0  0  0  0  0  0  0  0  0
   -1.0081   15.3522    0.0000 H   0  0  0  0  0  0  0  0  0  0  0  0
   -1.7940   13.7502    0.0000 H   0  0  0  0  0  0  0  0  0  0  0  0
    2.2581   14.3536    0.0000 H   0  0  0  0  0  0  0  0  0  0  0  0
    1.6807   18.8164    0.0000 H   0  0  0  0  0  0  0  0  0  0  0  0
   -0.8959   18.4830    0.0000 H   0  0  0  0  0  0  0  0  0  0  0  0
   -1.8955   16.0849    0.0000 H   0  0  0  0  0  0  0  0  0  0  0  0
   -3.7781   12.3124    0.0000 H   0  0  0  0  0  0  0  0  0  0  0  0
   -4.7650   12.0515    0.0000 H   0  0  0  0  0  0  0  0  0  0  0  0
   -7.7054   11.0232    0.0000 H   0  0  0  0  0  0  0  0  0  0  0  0
   -6.7918   14.5939    0.0000 H   0  0  0  0  0  0  0  0  0  0  0  0
   -5.0206   14.4681    0.0000 H   0  0  0  0  0  0  0  0  0  0  0  0
   -4.5402   12.9065    0.0000 H   0  0  0  0  0  0  0  0  0  0  0  0
   -9.2714   12.9125    0.0000 H   0  0  0  0  0  0  0  0  0  0  0  0
   -8.4724   11.3170    0.0000 H   0  0  0  0  0  0  0  0  0  0  0  0
   -9.0967   14.9024    0.0000 H   0  0  0  0  0  0  0  0  0  0  0  0
   -7.2858   15.5651    0.0000 H   0  0  0  0  0  0  0  0  0  0  0  0
   -6.3002   14.2620    0.0000 H   0  0  0  0  0  0  0  0  0  0  0  0
   -9.0999   11.0756    0.0000 H   0  0  0  0  0  0  0  0  0  0  0  0
   -9.6253   10.4045    0.0000 H   0  0  0  0  0  0  0  0  0  0  0  0
  -12.4993    9.2745    0.0000 H   0  0  0  0  0  0  0  0  0  0  0  0
  -11.5430    7.9498    0.0000 H   0  0  0  0  0  0  0  0  0  0  0  0
  -10.9668   12.2654    0.0000 H   0  0  0  0  0  0  0  0  0  0  0  0
   -9.8984   11.2454    0.0000 H   0  0  0  0  0  0  0  0  0  0  0  0
  -14.2655   11.1800    0.0000 H   0  0  0  0  0  0  0  0  0  0  0  0
  -13.1346    9.7996    0.0000 H   0  0  0  0  0  0  0  0  0  0  0  0
  -12.9130   14.2048    0.0000 H   0  0  0  0  0  0  0  0  0  0  0  0
  -11.6223   12.9726    0.0000 H   0  0  0  0  0  0  0  0  0  0  0  0
  -14.8664   14.6220    0.0000 H   0  0  0  0  0  0  0  0  0  0  0  0
  -15.6335   12.1397    0.0000 H   0  0  0  0  0  0  0  0  0  0  0  0
  -12.6510    7.3975    0.0000 H   0  0  0  0  0  0  0  0  0  0  0  0
  -12.8236    6.3914    0.0000 H   0  0  0  0  0  0  0  0  0  0  0  0
  -14.7277    4.0422    0.0000 H   0  0  0  0  0  0  0  0  0  0  0  0
  -13.1097    3.2896    0.0000 H   0  0  0  0  0  0  0  0  0  0  0  0
  -15.1280    7.1628    0.0000 H   0  0  0  0  0  0  0  0  0  0  0  0
  -13.5080    6.9511    0.0000 H   0  0  0  0  0  0  0  0  0  0  0  0
  -17.7453    3.5525    0.0000 H   0  0  0  0  0  0  0  0  0  0  0  0
  -13.7433    2.2259    0.0000 H   0  0  0  0  0  0  0  0  0  0  0  0
  -13.3446    1.2862    0.0000 H   0  0  0  0  0  0  0  0  0  0  0  0
  -13.5106   -1.7975    0.0000 H   0  0  0  0  0  0  0  0  0  0  0  0
  -11.9083   -1.4779    0.0000 H   0  0  0  0  0  0  0  0  0  0  0  0
  -14.2229    1.3871    0.0000 H   0  0  0  0  0  0  0  0  0  0  0  0
  -16.9174   -1.0956    0.0000 H   0  0  0  0  0  0  0  0  0  0  0  0
  -15.9775   -2.6125    0.0000 H   0  0  0  0  0  0  0  0  0  0  0  0
  -14.2521   -2.1573    0.0000 H   0  0  0  0  0  0  0  0  0  0  0  0
  -17.0979    0.1449    0.0000 H   0  0  0  0  0  0  0  0  0  0  0  0
  -16.6295    1.8667    0.0000 H   0  0  0  0  0  0  0  0  0  0  0  0
  -14.7020    1.8089    0.0000 H   0  0  0  0  0  0  0  0  0  0  0  0
  -11.8662   -2.7152    0.0000 H   0  0  0  0  0  0  0  0  0  0  0  0
   -8.2736   -5.3873    0.0000 H   0  0  0  0  0  0  0  0  0  0  0  0
   -9.4335   -4.8974    0.0000 H   0  0  0  0  0  0  0  0  0  0  0  0
   -6.8060   -6.0011    0.0000 H   0  0  0  0  0  0  0  0  0  0  0  0
   -7.8570   -5.7099    0.0000 H   0  0  0  0  0  0  0  0  0  0  0  0
   -4.8962   -6.2331    0.0000 H   0  0  0  0  0  0  0  0  0  0  0  0
   -6.3147   -6.1194    0.0000 H   0  0  0  0  0  0  0  0  0  0  0  0
   -3.9276   -6.4269    0.0000 H   0  0  0  0  0  0  0  0  0  0  0  0
  -11.6511   -4.8090    0.0000 H   0  0  0  0  0  0  0  0  0  0  0  0
  -12.4772   -3.3993    0.0000 H   0  0  0  0  0  0  0  0  0  0  0  0
  -11.5255   -2.0713    0.0000 H   0  0  0  0  0  0  0  0  0  0  0  0
  -12.4541   -4.2449    0.0000 H   0  0  0  0  0  0  0  0  0  0  0  0
   -9.9166   -6.4947    0.0000 H   0  0  0  0  0  0  0  0  0  0  0  0
   -9.7296   -7.4557    0.0000 H   0  0  0  0  0  0  0  0  0  0  0  0
   -8.8574   -9.2527    0.0000 H   0  0  0  0  0  0  0  0  0  0  0  0
  -11.9754  -10.4502    0.0000 H   0  0  0  0  0  0  0  0  0  0  0  0
  -13.6621   -9.5155    0.0000 H   0  0  0  0  0  0  0  0  0  0  0  0
  -13.5478   -8.2056    0.0000 H   0  0  0  0  0  0  0  0  0  0  0  0
  -12.0089   -9.6193    0.0000 H   0  0  0  0  0  0  0  0  0  0  0  0
  -14.5562   -7.5819    0.0000 H   0  0  0  0  0  0  0  0  0  0  0  0
  -17.3514   -9.6424    0.0000 H   0  0  0  0  0  0  0  0  0  0  0  0
  -16.0294  -10.6026    0.0000 H   0  0  0  0  0  0  0  0  0  0  0  0
  -17.0103   -6.3466    0.0000 H   0  0  0  0  0  0  0  0  0  0  0  0
  -15.3996   -7.1146    0.0000 H   0  0  0  0  0  0  0  0  0  0  0  0
  -19.6239   -8.3832    0.0000 H   0  0  0  0  0  0  0  0  0  0  0  0
  -18.1188   -9.3418    0.0000 H   0  0  0  0  0  0  0  0  0  0  0  0
  -18.2694   -5.2477    0.0000 H   0  0  0  0  0  0  0  0  0  0  0  0
  -22.7687   -5.3270    0.0000 H   0  0  0  0  0  0  0  0  0  0  0  0
  -22.7229   -7.9247    0.0000 H   0  0  0  0  0  0  0  0  0  0  0  0
  -20.4504   -9.1839    0.0000 H   0  0  0  0  0  0  0  0  0  0  0  0
  -17.3582  -10.3029    0.0000 H   0  0  0  0  0  0  0  0  0  0  0  0
  -14.8207  -12.5527    0.0000 H   0  0  0  0  0  0  0  0  0  0  0  0
  -14.7097  -13.3471    0.0000 H   0  0  0  0  0  0  0  0  0  0  0  0
  -17.0611  -16.5321    0.0000 H   0  0  0  0  0  0  0  0  0  0  0  0
  -18.5662  -15.5736    0.0000 H   0  0  0  0  0  0  0  0  0  0  0  0
  -18.3481  -14.1126    0.0000 H   0  0  0  0  0  0  0  0  0  0  0  0
  -14.9748  -16.8096    0.0000 H   0  0  0  0  0  0  0  0  0  0  0  0
  -16.5855  -16.0416    0.0000 H   0  0  0  0  0  0  0  0  0  0  0  0
  -12.9887  -16.5964    0.0000 H   0  0  0  0  0  0  0  0  0  0  0  0
  -12.3612  -14.7730    0.0000 H   0  0  0  0  0  0  0  0  0  0  0  0
  -13.8663  -13.8144    0.0000 H   0  0  0  0  0  0  0  0  0  0  0  0
  -20.2869  -12.7109    0.0000 H   0  0  0  0  0  0  0  0  0  0  0  0
  1  2  1  0
  2  3  1  0
  3  4  2  0
  4  5  1  0
  5  6  2  0
  6  7  1  0
  7  8  2  0
  7  9  1  0
  9 10  1  0
 10 11  1  0
 11 12  2  0
  9 13  1  0
 13 14  1  0
 14 15  2  0
 15 16  1  0
 16 17  2  0
 17 18  1  0
 16 19  1  0
 14 20  1  0
 20 21  1  0
 21 22  2  0
 22 23  1  0
 23 24  2  0
 24 25  1  0
 25 26  2  0
 25 27  1  0
  1 28  2  0
  1 29  1  0
 29 30  1  0
 30 31  1  0
 31 32  1  0
 32 33  2  0
 32 34  1  0
 34 35  1  0
 35 36  1  0
 36 37  1  0
 37 38  2  0
 38 39  1  0
 39 40  2  0
 40 41  1  0
 41 42  2  0
 35 43  1  0
 43 44  2  0
 43 45  1  0
 45 46  1  0
 46 47  1  0
 47 48  1  0
 48 49  1  0
 48 50  2  0
 46 51  1  0
 51 52  2  0
 51 53  1  0
 53 54  1  0
 54 55  1  0
 55 56  1  0
 55 57  1  0
 57 58  1  0
 54 59  1  0
 59 60  2  0
 59 61  1  0
 62 61  1  6
 62 63  1  0
 63 64  1  0
 64 65  1  0
 65 66  1  0
 66 67  1  0
 67 68  1  0
 68 69  1  0
 62 70  1  0
 62 71  1  0
 71 72  2  0
 71 73  1  0
 73 74  1  0
 74 75  1  0
 75 76  1  0
 76 77  2  0
 76 78  1  0
 74 79  1  0
 79 80  2  0
 79 81  1  0
 81 82  1  0
 82 83  1  0
 83 84  1  0
 84 85  1  0
 85 86  1  0
 86 87  1  0
 87 88  2  3
 87 89  1  0
 82 90  1  0
 90 91  2  0
 90 92  1  0
 92 93  1  0
 93 94  1  0
 94 95  1  0
 94 96  1  0
 96 97  1  0
 93 98  1  0
 98 99  2  0
 98100  1  0
100101  1  0
101102  1  0
102103  1  0
103104  1  0
104105  1  0
105106  1  0
101107  1  0
107108  2  0
107109  1  0
109110  1  0
110111  1  0
111112  1  0
112113  1  0
113114  2  0
113115  1  0
110116  1  0
116117  2  0
116118  1  0
118119  1  0
119120  1  0
120121  1  0
121122  1  0
121123  1  0
119124  1  0
124125  2  0
124126  1  0
126127  1  0
127128  1  0
128129  1  0
129130  1  0
130131  1  0
127132  1  0
127133  1  1
133134  2  0
133135  1  0
135136  1  0
136137  1  0
137138  1  0
137139  1  0
136140  1  0
140141  2  0
140142  1  0
142143  1  0
143144  1  0
144145  1  0
145146  1  0
146147  1  0
147148  1  0
148149  2  3
148150  1  0
143151  1  0
151152  2  0
151153  1  0
153154  1  0
154155  1  0
155156  1  0
155157  1  0
157158  1  0
154159  1  0
159160  2  0
159161  1  0
  8  3  1  0
 42 37  1  0
 11  6  1  0
 69131  2  0
 18 13  2  0
 22  9  1  0
 26 21  1  0
  2162  1  0
  4163  1  0
  5164  1  0
  8165  1  0
 15166  1  0
 17167  1  0
 18168  1  0
 19169  1  0
 23170  1  0
 24171  1  0
 26172  1  0
 27173  1  0
 29174  1  0
 30175  1  0
 30176  1  0
 31177  1  0
 31178  1  0
 34179  1  0
 35180  1  1
 36181  1  0
 36182  1  0
 38183  1  0
 39184  1  0
 40185  1  0
 41186  1  0
 42187  1  0
 45188  1  0
 46189  1  1
 47190  1  0
 47191  1  0
 49192  1  0
 49193  1  0
 53194  1  0
 54195  1  1
 55196  1  6
 56197  1  0
 56198  1  0
 56199  1  0
 57200  1  0
 57201  1  0
 58202  1  0
 58203  1  0
 58204  1  0
 61205  1  0
 63206  1  0
 63207  1  0
 64208  1  0
 64209  1  0
 65210  1  0
 65211  1  0
 66212  1  0
 66213  1  0
 67214  1  0
 67215  1  0
 68216  1  0
 68217  1  0
 69218  1  0
 70219  1  0
 70220  1  0
 70221  1  0
 73222  1  0
 74223  1  6
 75224  1  0
 75225  1  0
 78226  1  0
 81227  1  0
 82228  1  6
 83229  1  0
 83230  1  0
 84231  1  0
 84232  1  0
 85233  1  0
 85234  1  0
 86235  1  0
 88236  1  0
 89237  1  0
 89238  1  0
 92239  1  0
 93240  1  6
 94241  1  1
 95242  1  0
 95243  1  0
 95244  1  0
 96245  1  0
 96246  1  0
 97247  1  0
 97248  1  0
 97249  1  0
100250  1  0
101251  1  6
102252  1  0
102253  1  0
103254  1  0
103255  1  0
104256  1  0
104257  1  0
105258  1  0
105259  1  0
106260  1  0
106261  1  0
109262  1  0
110263  1  6
111264  1  0
111265  1  0
112266  1  0
112267  1  0
115268  1  0
118269  1  0
119270  1  6
120271  1  0
120272  1  0
121273  1  0
122274  1  0
122275  1  0
122276  1  0
123277  1  0
123278  1  0
123279  1  0
126280  1  0
128281  1  0
128282  1  0
129283  1  0
129284  1  0
130285  1  0
130286  1  0
131287  1  0
132288  1  0
132289  1  0
132290  1  0
135291  1  0
136292  1  1
137293  1  1
138294  1  0
139295  1  0
139296  1  0
139297  1  0
142298  1  0
143299  1  6
144300  1  0
144301  1  0
145302  1  0
145303  1  0
146304  1  0
146305  1  0
147306  1  0
149307  1  0
150308  1  0
150309  1  0
153310  1  0
154311  1  1
155312  1  1
156313  1  0
156314  1  0
156315  1  0
157316  1  0
157317  1  0
158318  1  0
158319  1  0
158320  1  0
161321  1  0
M  END
