
     RDKit          2D

211214  0  0  0  0  0  0  0  0999 V2000
  -26.8306   -2.0396    0.0000 N   0  0  0  0  0  0  0  0  0  0  0  0
  -25.4116   -2.5258    0.0000 C   0  0  0  0  0  0  0  0  0  0  0  0
  -24.2810   -1.5401    0.0000 C   0  0  0  0  0  0  0  0  0  0  0  0
  -22.8620   -2.0263    0.0000 O   0  0  0  0  0  0  0  0  0  0  0  0
  -21.7314   -1.0405    0.0000 C   0  0  0  0  0  0  0  0  0  0  0  0
  -20.3124   -1.5268    0.0000 O   0  0  0  0  0  0  0  0  0  0  0  0
  -19.1818   -0.5410    0.0000 C   0  0  0  0  0  0  0  0  0  0  0  0
  -17.7628   -1.0272    0.0000 C   0  0  0  0  0  0  0  0  0  0  0  0
  -16.6322   -0.0414    0.0000 O   0  0  0  0  0  0  0  0  0  0  0  0
  -15.2132   -0.5277    0.0000 C   0  0  0  0  0  0  0  0  0  0  0  0
  -14.0826    0.4581    0.0000 C   0  0  0  0  0  0  0  0  0  0  0  0
  -12.6636   -0.0282    0.0000 C   0  0  0  0  0  0  0  0  0  0  0  0
  -12.5568   -1.5243    0.0000 O   0  0  0  0  0  0  0  0  0  0  0  0
  -11.5330    0.9576    0.0000 N   0  0  0  0  0  0  0  0  0  0  0  0
  -10.1140    0.4714    0.0000 C   0  0  0  0  0  0  0  0  0  0  0  0
   -9.5397   -0.9143    0.0000 C   0  0  0  0  0  0  0  0  0  0  0  0
   -8.5824   -2.0691    0.0000 C   0  0  0  0  0  0  0  0  0  0  0  0
   -7.3273   -2.8905    0.0000 C   0  0  0  0  0  0  0  0  0  0  0  0
   -5.8858   -3.3054    0.0000 C   0  0  0  0  0  0  0  0  0  0  0  0
  -11.2665   -0.4887    0.0000 C   0  0  0  0  0  0  0  0  0  0  0  0
  -10.2544    1.9648    0.0000 C   0  0  0  0  0  0  0  0  0  0  0  0
  -11.1262    2.1217    0.0000 O   0  0  0  0  0  0  0  0  0  0  0  0
   -9.9484    3.4333    0.0000 N   0  0  0  0  0  0  0  0  0  0  0  0
   -9.2232    4.7463    0.0000 C   0  0  0  0  0  0  0  0  0  0  0  0
   -8.1431    5.7872    0.0000 C   0  0  0  0  0  0  0  0  0  0  0  0
   -9.0114    7.0103    0.0000 O   0  0  0  0  0  0  0  0  0  0  0  0
   -6.8042    6.4635    0.0000 N   0  0  0  0  0  0  0  0  0  0  0  0
   -5.3255    6.7151    0.0000 C   0  0  0  0  0  0  0  0  0  0  0  0
   -6.1630    7.9595    0.0000 C   0  0  0  0  0  0  0  0  0  0  0  0
   -3.8383    6.5197    0.0000 C   0  0  0  0  0  0  0  0  0  0  0  0
   -3.4234    7.9611    0.0000 O   0  0  0  0  0  0  0  0  0  0  0  0
   -2.4747    5.8946    0.0000 N   0  0  0  0  0  0  0  0  0  0  0  0
   -1.3560    4.8953    0.0000 C   0  0  0  0  0  0  0  0  0  0  0  0
   -0.9053    6.3260    0.0000 C   0  0  0  0  0  0  0  0  0  0  0  0
    0.5591    6.6510    0.0000 C   0  0  0  0  0  0  0  0  0  0  0  0
    1.5727    5.5453    0.0000 C   0  0  0  0  0  0  0  0  0  0  0  0
    3.0371    5.8704    0.0000 C   0  0  0  0  0  0  0  0  0  0  0  0
    3.4878    7.3010    0.0000 C   0  0  0  0  0  0  0  0  0  0  0  0
    2.4741    8.4067    0.0000 C   0  0  0  0  0  0  0  0  0  0  0  0
    1.0098    8.0817    0.0000 C   0  0  0  0  0  0  0  0  0  0  0  0
   -0.5816    3.6107    0.0000 C   0  0  0  0  0  0  0  0  0  0  0  0
    0.7238    4.3497    0.0000 O   0  0  0  0  0  0  0  0  0  0  0  0
   -0.2201    2.1549    0.0000 N   0  0  0  0  0  0  0  0  0  0  0  0
   -0.3039    0.6572    0.0000 C   0  0  0  0  0  0  0  0  0  0  0  0
   -0.8253   -0.7492    0.0000 C   0  0  0  0  0  0  0  0  0  0  0  0
   -1.7382   -1.9395    0.0000 C   0  0  0  0  0  0  0  0  0  0  0  0
   -2.9613   -2.8078    0.0000 C   0  0  0  0  0  0  0  0  0  0  0  0
   -4.3860   -3.2770    0.0000 C   0  0  0  0  0  0  0  0  0  0  0  0
    0.8303    1.7252    0.0000 C   0  0  0  0  0  0  0  0  0  0  0  0
    1.6162    2.7499    0.0000 C   0  0  0  0  0  0  0  0  0  0  0  0
    2.6692    3.4974    0.0000 C   0  0  0  0  0  0  0  0  0  0  0  0
    3.8957    3.9014    0.0000 C   0  0  0  0  0  0  0  0  0  0  0  0
    0.3093   -0.7749    0.0000 C   0  0  0  0  0  0  0  0  0  0  0  0
   -1.8810   -0.9808    0.0000 O   0  0  0  0  0  0  0  0  0  0  0  0
    0.6205   -2.0282    0.0000 N   0  0  0  0  0  0  0  0  0  0  0  0
    1.2872   -3.1341    0.0000 C   0  0  0  0  0  0  0  0  0  0  0  0
    0.2976   -5.0115    0.0000 C   0  0  0  0  0  0  0  0  0  0  0  0
    1.3112   -6.1172    0.0000 C   0  0  0  0  0  0  0  0  0  0  0  0
    0.8605   -7.5479    0.0000 N   0  0  0  0  0  0  0  0  0  0  0  0
    2.7948   -6.3387    0.0000 O   0  0  0  0  0  0  0  0  0  0  0  0
    2.2503   -3.9943    0.0000 C   0  0  0  0  0  0  0  0  0  0  0  0
    1.6752   -5.3081    0.0000 O   0  0  0  0  0  0  0  0  0  0  0  0
    3.4241   -4.5325    0.0000 N   0  0  0  0  0  0  0  0  0  0  0  0
    4.7045   -4.7007    0.0000 C   0  0  0  0  0  0  0  0  0  0  0  0
    5.5553   -6.6450    0.0000 C   0  0  0  0  0  0  0  0  0  0  0  0
    4.8964   -7.9925    0.0000 C   0  0  0  0  0  0  0  0  0  0  0  0
    5.7339   -9.2369    0.0000 C   0  0  0  0  0  0  0  0  0  0  0  0
    3.8163   -9.0334    0.0000 C   0  0  0  0  0  0  0  0  0  0  0  0
    5.9775   -4.4841    0.0000 C   0  0  0  0  0  0  0  0  0  0  0  0
    6.6657   -6.5737    0.0000 O   0  0  0  0  0  0  0  0  0  0  0  0
    7.1302   -3.9019    0.0000 N   0  0  0  0  0  0  0  0  0  0  0  0
    8.0600   -3.0058    0.0000 C   0  0  0  0  0  0  0  0  0  0  0  0
   10.1105   -3.5528    0.0000 C   0  0  0  0  0  0  0  0  0  0  0  0
   10.7532   -4.9082    0.0000 C   0  0  0  0  0  0  0  0  0  0  0  0
    9.9009   -6.1424    0.0000 C   0  0  0  0  0  0  0  0  0  0  0  0
   10.5436   -7.4978    0.0000 C   0  0  0  0  0  0  0  0  0  0  0  0
   12.0387   -7.6188    0.0000 C   0  0  0  0  0  0  0  0  0  0  0  0
   12.8911   -6.3845    0.0000 C   0  0  0  0  0  0  0  0  0  0  0  0
   12.2484   -5.0292    0.0000 C   0  0  0  0  0  0  0  0  0  0  0  0
    8.6843   -1.8754    0.0000 C   0  0  0  0  0  0  0  0  0  0  0  0
   10.7471   -2.6402    0.0000 O   0  0  0  0  0  0  0  0  0  0  0  0
    8.9478   -0.6112    0.0000 N   0  0  0  0  0  0  0  0  0  0  0  0
    8.8269    0.6744    0.0000 C   0  0  0  0  0  0  0  0  0  0  0  0
    8.3325    1.8674    0.0000 C   0  0  0  0  0  0  0  0  0  0  0  0
    7.5083    2.8615    0.0000 C   0  0  0  0  0  0  0  0  0  0  0  0
    6.4278    3.5686    0.0000 C   0  0  0  0  0  0  0  0  0  0  0  0
    5.1868    3.9258    0.0000 C   0  0  0  0  0  0  0  0  0  0  0  0
   10.9253    0.3569    0.0000 C   0  0  0  0  0  0  0  0  0  0  0  0
   10.5331    1.9365    0.0000 C   0  0  0  0  0  0  0  0  0  0  0  0
   10.4599    3.4348    0.0000 O   0  0  0  0  0  0  0  0  0  0  0  0
   11.9935    1.5940    0.0000 N   0  0  0  0  0  0  0  0  0  0  0  0
   13.0203    2.6875    0.0000 C   0  0  0  0  0  0  0  0  0  0  0  0
   13.6112    4.0662    0.0000 C   0  0  0  0  0  0  0  0  0  0  0  0
   14.9381    4.7658    0.0000 O   0  0  0  0  0  0  0  0  0  0  0  0
   14.4807    2.3449    0.0000 C   0  0  0  0  0  0  0  0  0  0  0  0
   14.9142    0.9089    0.0000 O   0  0  0  0  0  0  0  0  0  0  0  0
   15.5075    3.4384    0.0000 N   0  0  0  0  0  0  0  0  0  0  0  0
   16.9679    3.0958    0.0000 C   0  0  0  0  0  0  0  0  0  0  0  0
   18.2230    2.2745    0.0000 C   0  0  0  0  0  0  0  0  0  0  0  0
   18.1393    0.7768    0.0000 C   0  0  0  0  0  0  0  0  0  0  0  0
   17.9947    4.1893    0.0000 C   0  0  0  0  0  0  0  0  0  0  0  0
   19.4859    4.0273    0.0000 O   0  0  0  0  0  0  0  0  0  0  0  0
   17.5612    5.6253    0.0000 O   0  0  0  0  0  0  0  0  0  0  0  0
  -27.9612   -3.0254    0.0000 H   0  0  0  0  0  0  0  0  0  0  0  0
  -27.1191   -0.5676    0.0000 H   0  0  0  0  0  0  0  0  0  0  0  0
  -26.1369   -3.8388    0.0000 H   0  0  0  0  0  0  0  0  0  0  0  0
  -24.2445   -3.4681    0.0000 H   0  0  0  0  0  0  0  0  0  0  0  0
  -25.4482   -0.5978    0.0000 H   0  0  0  0  0  0  0  0  0  0  0  0
  -23.7212   -0.1484    0.0000 H   0  0  0  0  0  0  0  0  0  0  0  0
  -22.7750    0.0370    0.0000 H   0  0  0  0  0  0  0  0  0  0  0  0
  -21.1716    0.3511    0.0000 H   0  0  0  0  0  0  0  0  0  0  0  0
  -20.2254    0.5365    0.0000 H   0  0  0  0  0  0  0  0  0  0  0  0
  -18.4566    0.7720    0.0000 H   0  0  0  0  0  0  0  0  0  0  0  0
  -18.4881   -2.3402    0.0000 H   0  0  0  0  0  0  0  0  0  0  0  0
  -16.7193   -2.1047    0.0000 H   0  0  0  0  0  0  0  0  0  0  0  0
  -15.7730   -1.9193    0.0000 H   0  0  0  0  0  0  0  0  0  0  0  0
  -14.0461   -1.4699    0.0000 H   0  0  0  0  0  0  0  0  0  0  0  0
  -15.2498    1.4003    0.0000 H   0  0  0  0  0  0  0  0  0  0  0  0
  -13.3574    1.7711    0.0000 H   0  0  0  0  0  0  0  0  0  0  0  0
  -11.7805    1.7154    0.0000 H   0  0  0  0  0  0  0  0  0  0  0  0
  -10.1986   -2.2618    0.0000 H   0  0  0  0  0  0  0  0  0  0  0  0
  -11.0334   -1.0510    0.0000 H   0  0  0  0  0  0  0  0  0  0  0  0
   -8.9937   -3.5116    0.0000 H   0  0  0  0  0  0  0  0  0  0  0  0
   -9.9695   -2.6401    0.0000 H   0  0  0  0  0  0  0  0  0  0  0  0
   -7.1126   -4.3750    0.0000 H   0  0  0  0  0  0  0  0  0  0  0  0
   -8.4844   -3.8449    0.0000 H   0  0  0  0  0  0  0  0  0  0  0  0
   -6.0812   -4.7926    0.0000 H   0  0  0  0  0  0  0  0  0  0  0  0
  -12.6122   -0.6087    0.0000 H   0  0  0  0  0  0  0  0  0  0  0  0
  -11.5440   -2.0462    0.0000 H   0  0  0  0  0  0  0  0  0  0  0  0
  -10.3197   -1.8749    0.0000 H   0  0  0  0  0  0  0  0  0  0  0  0
  -11.3549    3.9547    0.0000 H   0  0  0  0  0  0  0  0  0  0  0  0
  -10.7183    4.8673    0.0000 H   0  0  0  0  0  0  0  0  0  0  0  0
   -9.7277    6.1588    0.0000 H   0  0  0  0  0  0  0  0  0  0  0  0
   -7.2734    7.8882    0.0000 H   0  0  0  0  0  0  0  0  0  0  0  0
   -4.5357    7.9903    0.0000 H   0  0  0  0  0  0  0  0  0  0  0  0
   -5.5041    9.3070    0.0000 H   0  0  0  0  0  0  0  0  0  0  0  0
   -7.3757    8.8424    0.0000 H   0  0  0  0  0  0  0  0  0  0  0  0
   -7.4629    7.2109    0.0000 H   0  0  0  0  0  0  0  0  0  0  0  0
   -1.6534    7.1497    0.0000 H   0  0  0  0  0  0  0  0  0  0  0  0
    0.1007    5.2531    0.0000 H   0  0  0  0  0  0  0  0  0  0  0  0
   -0.9711    7.8245    0.0000 H   0  0  0  0  0  0  0  0  0  0  0  0
   -2.3010    6.8755    0.0000 H   0  0  0  0  0  0  0  0  0  0  0  0
    0.9510    4.1803    0.0000 H   0  0  0  0  0  0  0  0  0  0  0  0
    4.2881    5.0428    0.0000 H   0  0  0  0  0  0  0  0  0  0  0  0
    4.9521    7.6261    0.0000 H   0  0  0  0  0  0  0  0  0  0  0  0
    2.9248    9.8374    0.0000 H   0  0  0  0  0  0  0  0  0  0  0  0
   -0.0039    9.1874    0.0000 H   0  0  0  0  0  0  0  0  0  0  0  0
    1.2733    2.2953    0.0000 H   0  0  0  0  0  0  0  0  0  0  0  0
    0.6711   -0.6461    0.0000 H   0  0  0  0  0  0  0  0  0  0  0  0
   -0.2822   -2.1474    0.0000 H   0  0  0  0  0  0  0  0  0  0  0  0
   -0.4976   -2.7827    0.0000 H   0  0  0  0  0  0  0  0  0  0  0  0
   -1.6314   -3.4356    0.0000 H   0  0  0  0  0  0  0  0  0  0  0  0
   -1.8886   -3.8562    0.0000 H   0  0  0  0  0  0  0  0  0  0  0  0
   -3.1196   -4.2994    0.0000 H   0  0  0  0  0  0  0  0  0  0  0  0
   -4.1344   -4.7557    0.0000 H   0  0  0  0  0  0  0  0  0  0  0  0
   -1.2789    1.9605    0.0000 H   0  0  0  0  0  0  0  0  0  0  0  0
   -0.3255    3.4619    0.0000 H   0  0  0  0  0  0  0  0  0  0  0  0
   -0.1101    4.0972    0.0000 H   0  0  0  0  0  0  0  0  0  0  0  0
    0.8420    4.7259    0.0000 H   0  0  0  0  0  0  0  0  0  0  0  0
    1.1611    5.0322    0.0000 H   0  0  0  0  0  0  0  0  0  0  0  0
    2.8681    5.5312    0.0000 H   0  0  0  0  0  0  0  0  0  0  0  0
    3.8920    6.0871    0.0000 H   0  0  0  0  0  0  0  0  0  0  0  0
   -1.2317   -3.1888    0.0000 H   0  0  0  0  0  0  0  0  0  0  0  0
   -0.7412   -3.7584    0.0000 H   0  0  0  0  0  0  0  0  0  0  0  0
   -0.6153   -6.2018    0.0000 H   0  0  0  0  0  0  0  0  0  0  0  0
   -1.1076   -4.4866    0.0000 H   0  0  0  0  0  0  0  0  0  0  0  0
    1.8742   -8.6535    0.0000 H   0  0  0  0  0  0  0  0  0  0  0  0
   -0.6039   -7.8729    0.0000 H   0  0  0  0  0  0  0  0  0  0  0  0
    2.9944   -6.6865    0.0000 H   0  0  0  0  0  0  0  0  0  0  0  0
    3.7784   -6.5701    0.0000 H   0  0  0  0  0  0  0  0  0  0  0  0
    6.8665   -7.3735    0.0000 H   0  0  0  0  0  0  0  0  0  0  0  0
    6.8551   -5.8964    0.0000 H   0  0  0  0  0  0  0  0  0  0  0  0
    3.5852   -7.2640    0.0000 H   0  0  0  0  0  0  0  0  0  0  0  0
    5.2442  -10.6547    0.0000 H   0  0  0  0  0  0  0  0  0  0  0  0
    6.9466  -10.1198    0.0000 H   0  0  0  0  0  0  0  0  0  0  0  0
    6.9328   -8.3354    0.0000 H   0  0  0  0  0  0  0  0  0  0  0  0
    3.9976  -10.5225    0.0000 H   0  0  0  0  0  0  0  0  0  0  0  0
    2.4454   -9.6422    0.0000 H   0  0  0  0  0  0  0  0  0  0  0  0
    2.9788   -7.7890    0.0000 H   0  0  0  0  0  0  0  0  0  0  0  0
    8.2481   -5.7925    0.0000 H   0  0  0  0  0  0  0  0  0  0  0  0
    9.1200   -4.8444    0.0000 H   0  0  0  0  0  0  0  0  0  0  0  0
   11.5569   -3.1552    0.0000 H   0  0  0  0  0  0  0  0  0  0  0  0
   10.3357   -2.0698    0.0000 H   0  0  0  0  0  0  0  0  0  0  0  0
    8.4021   -6.2045    0.0000 H   0  0  0  0  0  0  0  0  0  0  0  0
    9.6912   -8.7320    0.0000 H   0  0  0  0  0  0  0  0  0  0  0  0
   12.6814   -8.9741    0.0000 H   0  0  0  0  0  0  0  0  0  0  0  0
   14.3862   -6.5056    0.0000 H   0  0  0  0  0  0  0  0  0  0  0  0
   13.1007   -3.7949    0.0000 H   0  0  0  0  0  0  0  0  0  0  0  0
   11.1444   -0.7341    0.0000 H   0  0  0  0  0  0  0  0  0  0  0  0
    9.5908    3.5763    0.0000 H   0  0  0  0  0  0  0  0  0  0  0  0
   10.3979    2.5466    0.0000 H   0  0  0  0  0  0  0  0  0  0  0  0
    8.3860    4.8261    0.0000 H   0  0  0  0  0  0  0  0  0  0  0  0
    9.2818    4.1194    0.0000 H   0  0  0  0  0  0  0  0  0  0  0  0
    6.5048    5.6895    0.0000 H   0  0  0  0  0  0  0  0  0  0  0  0
    7.8767    5.1594    0.0000 H   0  0  0  0  0  0  0  0  0  0  0  0
    5.4735    6.1071    0.0000 H   0  0  0  0  0  0  0  0  0  0  0  0
   12.2608    1.0398    0.0000 H   0  0  0  0  0  0  0  0  0  0  0  0
   11.9689   -0.7206    0.0000 H   0  0  0  0  0  0  0  0  0  0  0  0
   10.5393   -1.0926    0.0000 H   0  0  0  0  0  0  0  0  0  0  0  0
   12.5988    0.2216    0.0000 H   0  0  0  0  0  0  0  0  0  0  0  0
   11.7652    3.5088    0.0000 H   0  0  0  0  0  0  0  0  0  0  0  0
   13.6950    5.5638    0.0000 H   0  0  0  0  0  0  0  0  0  0  0  0
   12.1509    4.4087    0.0000 H   0  0  0  0  0  0  0  0  0  0  0  0
   15.6916    5.6224    0.0000 H   0  0  0  0  0  0  0  0  0  0  0  0
   15.2522    4.9165    0.0000 H   0  0  0  0  0  0  0  0  0  0  0  0
   16.2133    1.7994    0.0000 H   0  0  0  0  0  0  0  0  0  0  0  0
   19.6834    1.9319    0.0000 H   0  0  0  0  0  0  0  0  0  0  0  0
   18.9776    3.5709    0.0000 H   0  0  0  0  0  0  0  0  0  0  0  0
   19.3944   -0.0445    0.0000 H   0  0  0  0  0  0  0  0  0  0  0  0
   17.5484   -0.6019    0.0000 H   0  0  0  0  0  0  0  0  0  0  0  0
   16.6480    0.9388    0.0000 H   0  0  0  0  0  0  0  0  0  0  0  0
  1  2  1  0
  2  3  1  0
  3  4  1  0
  4  5  1  0
  5  6  1  0
  6  7  1  0
  7  8  1  0
  8  9  1  0
  9 10  1  0
 10 11  1  0
 11 12  1  0
 12 13  2  0
 12 14  1  0
 15 14  1  6
 15 16  1  0
 16 17  1  0
 17 18  1  0
 18 19  1  0
 15 20  1  0
 15 21  1  0
 21 22  2  0
 21 23  1  0
 23 24  1  0
 24 25  1  0
 25 26  2  0
 25 27  1  0
 27 28  1  0
 28 29  1  0
 28 30  1  0
 30 31  2  0
 30 32  1  0
 32 33  1  0
 33 34  1  0
 34 35  1  0
 35 36  2  0
 36 37  1  0
 37 38  2  0
 38 39  1  0
 39 40  2  0
 33 41  1  0
 41 42  2  0
 41 43  1  0
 43 44  1  0
 44 45  1  0
 45 46  1  0
 46 47  1  0
 47 48  1  0
 44 49  1  0
 49 50  1  0
 50 51  1  0
 51 52  1  0
 44 53  1  0
 53 54  2  0
 53 55  1  0
 55 56  1  0
 56 57  1  0
 57 58  1  0
 58 59  1  0
 58 60  2  0
 56 61  1  0
 61 62  2  0
 61 63  1  0
 63 64  1  0
 64 65  1  0
 65 66  1  0
 66 67  1  0
 66 68  1  0
 64 69  1  0
 69 70  2  0
 69 71  1  0
 71 72  1  0
 72 73  1  0
 73 74  1  0
 74 75  2  0
 75 76  1  0
 76 77  2  0
 77 78  1  0
 78 79  2  0
 72 80  1  0
 80 81  2  0
 80 82  1  0
 82 83  1  0
 83 84  1  0
 84 85  1  0
 85 86  1  0
 86 87  1  0
 83 88  1  0
 83 89  1  6
 89 90  2  0
 89 91  1  0
 91 92  1  0
 92 93  1  0
 93 94  1  0
 92 95  1  0
 95 96  2  0
 95 97  1  0
 97 98  1  0
 98 99  1  0
 99100  1  0
 98101  1  0
101102  2  0
101103  1  0
 40 35  1  0
 79 74  1  0
 19 48  2  0
 52 87  2  0
  1104  1  0
  1105  1  0
  2106  1  0
  2107  1  0
  3108  1  0
  3109  1  0
  5110  1  0
  5111  1  0
  7112  1  0
  7113  1  0
  8114  1  0
  8115  1  0
 10116  1  0
 10117  1  0
 11118  1  0
 11119  1  0
 14120  1  0
 16121  1  0
 16122  1  0
 17123  1  0
 17124  1  0
 18125  1  0
 18126  1  0
 19127  1  0
 20128  1  0
 20129  1  0
 20130  1  0
 23131  1  0
 24132  1  0
 24133  1  0
 27134  1  0
 28135  1  1
 29136  1  0
 29137  1  0
 29138  1  0
 32139  1  0
 33140  1  1
 34141  1  0
 34142  1  0
 36143  1  0
 37144  1  0
 38145  1  0
 39146  1  0
 40147  1  0
 43148  1  0
 45149  1  0
 45150  1  0
 46151  1  0
 46152  1  0
 47153  1  0
 47154  1  0
 48155  1  0
 49156  1  0
 49157  1  0
 50158  1  0
 50159  1  0
 51160  1  0
 51161  1  0
 52162  1  0
 55163  1  0
 56164  1  6
 57165  1  0
 57166  1  0
 59167  1  0
 59168  1  0
 63169  1  0
 64170  1  6
 65171  1  0
 65172  1  0
 66173  1  0
 67174  1  0
 67175  1  0
 67176  1  0
 68177  1  0
 68178  1  0
 68179  1  0
 71180  1  0
 72181  1  6
 73182  1  0
 73183  1  0
 75184  1  0
 76185  1  0
 77186  1  0
 78187  1  0
 79188  1  0
 82189  1  0
 84190  1  0
 84191  1  0
 85192  1  0
 85193  1  0
 86194  1  0
 86195  1  0
 87196  1  0
 88197  1  0
 88198  1  0
 88199  1  0
 91200  1  0
 92201  1  1
 93202  1  0
 93203  1  0
 94204  1  0
 97205  1  0
 98206  1  6
 99207  1  0
 99208  1  0
100209  1  0
100210  1  0
100211  1  0
M  CHG  1 103  -1
M  END
