
     RDKit          2D

495503  0  0  0  0  0  0  0  0999 V2000
   31.6132   -5.6108    0.0000 C   0  0  0  0  0  0  0  0  0  0  0  0
   33.0433   -5.1582    0.0000 N   0  0  0  0  0  0  0  0  0  0  0  0
   34.1503   -6.1704    0.0000 C   0  0  0  0  0  0  0  0  0  0  0  0
   33.8272   -7.6352    0.0000 C   0  0  0  0  0  0  0  0  0  0  0  0
   34.9342   -8.6474    0.0000 C   0  0  0  0  0  0  0  0  0  0  0  0
   36.3643   -8.1949    0.0000 C   0  0  0  0  0  0  0  0  0  0  0  0
   36.6874   -6.7301    0.0000 C   0  0  0  0  0  0  0  0  0  0  0  0
   35.5804   -5.7179    0.0000 C   0  0  0  0  0  0  0  0  0  0  0  0
   38.1803   -6.5847    0.0000 C   0  0  0  0  0  0  0  0  0  0  0  0
   38.7799   -7.9597    0.0000 O   0  0  0  0  0  0  0  0  0  0  0  0
   37.6575   -8.9548    0.0000 C   0  0  0  0  0  0  0  0  0  0  0  0
   37.8029  -10.4477    0.0000 O   0  0  0  0  0  0  0  0  0  0  0  0
   39.6803   -6.5962    0.0000 C   0  0  0  0  0  0  0  0  0  0  0  0
   40.4402   -5.3030    0.0000 C   0  0  0  0  0  0  0  0  0  0  0  0
   41.9402   -5.3145    0.0000 C   0  0  0  0  0  0  0  0  0  0  0  0
   42.6802   -6.6192    0.0000 C   0  0  0  0  0  0  0  0  0  0  0  0
   41.9203   -7.9125    0.0000 C   0  0  0  0  0  0  0  0  0  0  0  0
   40.4203   -7.9010    0.0000 C   0  0  0  0  0  0  0  0  0  0  0  0
   44.1802   -6.6307    0.0000 O   0  0  0  0  0  0  0  0  0  0  0  0
   39.7002   -3.9982    0.0000 O   0  0  0  0  0  0  0  0  0  0  0  0
   38.2003   -3.9867    0.0000 C   0  0  0  0  0  0  0  0  0  0  0  0
   37.4403   -5.2800    0.0000 C   0  0  0  0  0  0  0  0  0  0  0  0
   36.2950   -4.6650    0.0000 C   0  0  0  0  0  0  0  0  0  0  0  0
   35.9003   -3.9691    0.0000 C   0  0  0  0  0  0  0  0  0  0  0  0
   36.3056   -3.2794    0.0000 C   0  0  0  0  0  0  0  0  0  0  0  0
   37.1056   -3.2855    0.0000 C   0  0  0  0  0  0  0  0  0  0  0  0
   35.2203   -1.3657    0.0000 O   0  0  0  0  0  0  0  0  0  0  0  0
   31.2901   -7.0756    0.0000 S   0  0  0  0  0  0  0  0  0  0  0  0
   30.5062   -4.5986    0.0000 N   0  0  0  0  0  0  0  0  0  0  0  0
   29.0761   -5.0511    0.0000 C   0  0  0  0  0  0  0  0  0  0  0  0
   27.9692   -4.0389    0.0000 C   0  0  0  0  0  0  0  0  0  0  0  0
   26.5391   -4.4915    0.0000 C   0  0  0  0  0  0  0  0  0  0  0  0
   26.5608   -5.2884    0.0000 O   0  0  0  0  0  0  0  0  0  0  0  0
   25.4321   -3.4793    0.0000 N   0  0  0  0  0  0  0  0  0  0  0  0
   24.0020   -3.9319    0.0000 C   0  0  0  0  0  0  0  0  0  0  0  0
   24.6960   -5.2616    0.0000 C   0  0  0  0  0  0  0  0  0  0  0  0
   26.1946   -5.3255    0.0000 C   0  0  0  0  0  0  0  0  0  0  0  0
   26.8887   -6.6553    0.0000 N   0  0  0  0  0  0  0  0  0  0  0  0
   27.2817   -4.2919    0.0000 O   0  0  0  0  0  0  0  0  0  0  0  0
   22.5033   -3.8680    0.0000 C   0  0  0  0  0  0  0  0  0  0  0  0
   22.0290   -5.2910    0.0000 O   0  0  0  0  0  0  0  0  0  0  0  0
   21.8093   -2.5382    0.0000 N   0  0  0  0  0  0  0  0  0  0  0  0
   20.3107   -2.4744    0.0000 C   0  0  0  0  0  0  0  0  0  0  0  0
   20.5080   -3.9613    0.0000 C   0  0  0  0  0  0  0  0  0  0  0  0
   21.8945   -4.5339    0.0000 C   0  0  0  0  0  0  0  0  0  0  0  0
   22.0918   -6.0209    0.0000 C   0  0  0  0  0  0  0  0  0  0  0  0
   23.3981   -6.7581    0.0000 O   0  0  0  0  0  0  0  0  0  0  0  0
   20.9028   -6.9353    0.0000 O   0  0  0  0  0  0  0  0  0  0  0  0
   18.9242   -1.9018    0.0000 C   0  0  0  0  0  0  0  0  0  0  0  0
   17.9918   -3.0768    0.0000 O   0  0  0  0  0  0  0  0  0  0  0  0
   18.7269   -0.4149    0.0000 N   0  0  0  0  0  0  0  0  0  0  0  0
   17.3405    0.1577    0.0000 C   0  0  0  0  0  0  0  0  0  0  0  0
   17.0173   -1.3071    0.0000 C   0  0  0  0  0  0  0  0  0  0  0  0
   18.1243   -2.3193    0.0000 C   0  0  0  0  0  0  0  0  0  0  0  0
   17.8012   -3.7841    0.0000 C   0  0  0  0  0  0  0  0  0  0  0  0
   19.5108   -2.8919    0.0000 C   0  0  0  0  0  0  0  0  0  0  0  0
   16.2335    1.1699    0.0000 C   0  0  0  0  0  0  0  0  0  0  0  0
   14.9554    0.3847    0.0000 O   0  0  0  0  0  0  0  0  0  0  0  0
   16.5566    2.6347    0.0000 N   0  0  0  0  0  0  0  0  0  0  0  0
   15.4496    3.6469    0.0000 C   0  0  0  0  0  0  0  0  0  0  0  0
   15.0342    2.2056    0.0000 C   0  0  0  0  0  0  0  0  0  0  0  0
   14.3536    0.8689    0.0000 C   0  0  0  0  0  0  0  0  0  0  0  0
   13.4323   -0.3148    0.0000 C   0  0  0  0  0  0  0  0  0  0  0  0
   12.3036   -1.3028    0.0000 C   0  0  0  0  0  0  0  0  0  0  0  0
   11.0084   -2.0593    0.0000 C   0  0  0  0  0  0  0  0  0  0  0  0
    9.5933   -2.5571    0.0000 C   0  0  0  0  0  0  0  0  0  0  0  0
    8.1097   -2.7780    0.0000 C   0  0  0  0  0  0  0  0  0  0  0  0
   16.8481    4.1893    0.0000 C   0  0  0  0  0  0  0  0  0  0  0  0
   15.5847    5.1408    0.0000 C   0  0  0  0  0  0  0  0  0  0  0  0
   17.0725    5.3311    0.0000 O   0  0  0  0  0  0  0  0  0  0  0  0
   15.4346    6.6333    0.0000 N   0  0  0  0  0  0  0  0  0  0  0  0
   15.0048    8.0704    0.0000 C   0  0  0  0  0  0  0  0  0  0  0  0
   15.8880    9.2827    0.0000 C   0  0  0  0  0  0  0  0  0  0  0  0
   17.3796    9.1240    0.0000 C   0  0  0  0  0  0  0  0  0  0  0  0
   18.2629   10.3363    0.0000 C   0  0  0  0  0  0  0  0  0  0  0  0
   19.7545   10.1776    0.0000 N   0  0  0  0  0  0  0  0  0  0  0  0
   20.6378   11.3899    0.0000 C   0  0  0  0  0  0  0  0  0  0  0  0
   22.1293   11.2312    0.0000 N   0  0  0  0  0  0  0  0  0  0  0  0
   20.0295   12.7611    0.0000 N   0  0  0  0  0  0  0  0  0  0  0  0
   14.3107    9.4002    0.0000 C   0  0  0  0  0  0  0  0  0  0  0  0
   15.4595   10.3647    0.0000 O   0  0  0  0  0  0  0  0  0  0  0  0
   13.3776   10.5746    0.0000 N   0  0  0  0  0  0  0  0  0  0  0  0
   12.2390   11.5512    0.0000 C   0  0  0  0  0  0  0  0  0  0  0  0
   12.3266   13.0486    0.0000 C   0  0  0  0  0  0  0  0  0  0  0  0
   13.6673   13.7214    0.0000 O   0  0  0  0  0  0  0  0  0  0  0  0
   10.9362   12.2946    0.0000 C   0  0  0  0  0  0  0  0  0  0  0  0
   11.3812   13.7271    0.0000 O   0  0  0  0  0  0  0  0  0  0  0  0
    9.5163   12.7781    0.0000 N   0  0  0  0  0  0  0  0  0  0  0  0
    8.0305   12.9841    0.0000 C   0  0  0  0  0  0  0  0  0  0  0  0
    7.2946   14.2912    0.0000 C   0  0  0  0  0  0  0  0  0  0  0  0
    8.0587   15.5820    0.0000 C   0  0  0  0  0  0  0  0  0  0  0  0
    9.5586   15.5658    0.0000 C   0  0  0  0  0  0  0  0  0  0  0  0
   10.3226   16.8566    0.0000 C   0  0  0  0  0  0  0  0  0  0  0  0
    9.5868   18.1637    0.0000 C   0  0  0  0  0  0  0  0  0  0  0  0
    8.0869   18.1800    0.0000 C   0  0  0  0  0  0  0  0  0  0  0  0
    7.3228   16.8891    0.0000 C   0  0  0  0  0  0  0  0  0  0  0  0
    6.5326   12.9052    0.0000 C   0  0  0  0  0  0  0  0  0  0  0  0
    6.1325   14.3509    0.0000 O   0  0  0  0  0  0  0  0  0  0  0  0
    5.0767   12.5443    0.0000 N   0  0  0  0  0  0  0  0  0  0  0  0
    3.7154   11.9143    0.0000 C   0  0  0  0  0  0  0  0  0  0  0  0
    2.3896   12.6160    0.0000 C   0  0  0  0  0  0  0  0  0  0  0  0
    2.3345   14.1150    0.0000 C   0  0  0  0  0  0  0  0  0  0  0  0
    3.6051   14.9123    0.0000 C   0  0  0  0  0  0  0  0  0  0  0  0
    3.5500   16.4112    0.0000 C   0  0  0  0  0  0  0  0  0  0  0  0
    2.2243   17.1130    0.0000 C   0  0  0  0  0  0  0  0  0  0  0  0
    0.9537   16.3158    0.0000 C   0  0  0  0  0  0  0  0  0  0  0  0
    1.0088   14.8168    0.0000 C   0  0  0  0  0  0  0  0  0  0  0  0
    2.4979   11.0381    0.0000 C   0  0  0  0  0  0  0  0  0  0  0  0
    1.3797   12.0379    0.0000 O   0  0  0  0  0  0  0  0  0  0  0  0
    1.4682    9.9473    0.0000 N   0  0  0  0  0  0  0  0  0  0  0  0
    0.6636    8.6813    0.0000 C   0  0  0  0  0  0  0  0  0  0  0  0
   -0.8310    8.5550    0.0000 C   0  0  0  0  0  0  0  0  0  0  0  0
    0.1131    7.2860    0.0000 C   0  0  0  0  0  0  0  0  0  0  0  0
   -1.3681    7.5226    0.0000 O   0  0  0  0  0  0  0  0  0  0  0  0
   -0.1633    5.8117    0.0000 N   0  0  0  0  0  0  0  0  0  0  0  0
   -0.1558    4.3117    0.0000 C   0  0  0  0  0  0  0  0  0  0  0  0
   -1.3449    3.3973    0.0000 C   0  0  0  0  0  0  0  0  0  0  0  0
   -2.7313    3.9699    0.0000 C   0  0  0  0  0  0  0  0  0  0  0  0
   -3.9204    3.0555    0.0000 C   0  0  0  0  0  0  0  0  0  0  0  0
   -3.8383    4.9821    0.0000 C   0  0  0  0  0  0  0  0  0  0  0  0
    0.1355    2.8403    0.0000 C   0  0  0  0  0  0  0  0  0  0  0  0
   -1.2385    2.2385    0.0000 O   0  0  0  0  0  0  0  0  0  0  0  0
    0.7000    1.4505    0.0000 N   0  0  0  0  0  0  0  0  0  0  0  0
    1.5172    0.1928    0.0000 C   0  0  0  0  0  0  0  0  0  0  0  0
    2.5578   -0.8876    0.0000 C   0  0  0  0  0  0  0  0  0  0  0  0
    3.7840   -1.7516    0.0000 C   0  0  0  0  0  0  0  0  0  0  0  0
    5.1516   -2.3678    0.0000 C   0  0  0  0  0  0  0  0  0  0  0  0
    6.6111   -2.7141    0.0000 C   0  0  0  0  0  0  0  0  0  0  0  0
    0.0273    0.0190    0.0000 C   0  0  0  0  0  0  0  0  0  0  0  0
    1.0113   -1.2193    0.0000 C   0  0  0  0  0  0  0  0  0  0  0  0
    1.6756   -2.5642    0.0000 O   0  0  0  0  0  0  0  0  0  0  0  0
   -0.4646   -1.4872    0.0000 N   0  0  0  0  0  0  0  0  0  0  0  0
   -0.9705   -2.8993    0.0000 C   0  0  0  0  0  0  0  0  0  0  0  0
   -0.9630   -4.3993    0.0000 C   0  0  0  0  0  0  0  0  0  0  0  0
   -2.2582   -5.1558    0.0000 C   0  0  0  0  0  0  0  0  0  0  0  0
   -2.2507   -6.6558    0.0000 O   0  0  0  0  0  0  0  0  0  0  0  0
   -3.7022   -4.7497    0.0000 O   0  0  0  0  0  0  0  0  0  0  0  0
   -2.4464   -3.1672    0.0000 C   0  0  0  0  0  0  0  0  0  0  0  0
   -3.4163   -2.0230    0.0000 O   0  0  0  0  0  0  0  0  0  0  0  0
   -2.9523   -4.5793    0.0000 N   0  0  0  0  0  0  0  0  0  0  0  0
   -4.4282   -4.8472    0.0000 C   0  0  0  0  0  0  0  0  0  0  0  0
   -5.9067   -4.5942    0.0000 C   0  0  0  0  0  0  0  0  0  0  0  0
   -6.8651   -5.7481    0.0000 C   0  0  0  0  0  0  0  0  0  0  0  0
   -8.3436   -5.4950    0.0000 C   0  0  0  0  0  0  0  0  0  0  0  0
   -9.4355   -6.5235    0.0000 N   0  0  0  0  0  0  0  0  0  0  0  0
   -8.8637   -4.0881    0.0000 O   0  0  0  0  0  0  0  0  0  0  0  0
   -4.9342   -6.2593    0.0000 C   0  0  0  0  0  0  0  0  0  0  0  0
   -3.9642   -7.4035    0.0000 O   0  0  0  0  0  0  0  0  0  0  0  0
   -6.4101   -6.5272    0.0000 N   0  0  0  0  0  0  0  0  0  0  0  0
   -6.9160   -7.9393    0.0000 C   0  0  0  0  0  0  0  0  0  0  0  0
   -6.9085   -9.4393    0.0000 C   0  0  0  0  0  0  0  0  0  0  0  0
   -8.1018  -10.3480    0.0000 C   0  0  0  0  0  0  0  0  0  0  0  0
   -6.3884  -10.8462    0.0000 C   0  0  0  0  0  0  0  0  0  0  0  0
   -4.9099  -11.0993    0.0000 C   0  0  0  0  0  0  0  0  0  0  0  0
   -8.3919   -8.2072    0.0000 C   0  0  0  0  0  0  0  0  0  0  0  0
   -9.4941   -7.1897    0.0000 O   0  0  0  0  0  0  0  0  0  0  0  0
   -8.8978   -9.6193    0.0000 N   0  0  0  0  0  0  0  0  0  0  0  0
  -10.3737   -9.8872    0.0000 C   0  0  0  0  0  0  0  0  0  0  0  0
  -11.8522   -9.6341    0.0000 C   0  0  0  0  0  0  0  0  0  0  0  0
  -12.8106  -10.7880    0.0000 C   0  0  0  0  0  0  0  0  0  0  0  0
  -14.2891  -10.5350    0.0000 O   0  0  0  0  0  0  0  0  0  0  0  0
  -12.6464  -12.2790    0.0000 O   0  0  0  0  0  0  0  0  0  0  0  0
  -10.8797  -11.2993    0.0000 C   0  0  0  0  0  0  0  0  0  0  0  0
   -9.9097  -12.4435    0.0000 O   0  0  0  0  0  0  0  0  0  0  0  0
  -12.3555  -11.5672    0.0000 N   0  0  0  0  0  0  0  0  0  0  0  0
  -12.8615  -12.9793    0.0000 C   0  0  0  0  0  0  0  0  0  0  0  0
  -12.8539  -14.4792    0.0000 C   0  0  0  0  0  0  0  0  0  0  0  0
  -14.1492  -15.2358    0.0000 C   0  0  0  0  0  0  0  0  0  0  0  0
  -14.1417  -16.7357    0.0000 C   0  0  0  0  0  0  0  0  0  0  0  0
  -15.3350  -17.6445    0.0000 N   0  0  0  0  0  0  0  0  0  0  0  0
  -12.8389  -17.4792    0.0000 O   0  0  0  0  0  0  0  0  0  0  0  0
  -14.3374  -13.2472    0.0000 C   0  0  0  0  0  0  0  0  0  0  0  0
  -15.3073  -12.1029    0.0000 O   0  0  0  0  0  0  0  0  0  0  0  0
  -14.8433  -14.6593    0.0000 N   0  0  0  0  0  0  0  0  0  0  0  0
  -16.3192  -14.9271    0.0000 C   0  0  0  0  0  0  0  0  0  0  0  0
  -17.7977  -14.6741    0.0000 C   0  0  0  0  0  0  0  0  0  0  0  0
  -17.9619  -13.1831    0.0000 C   0  0  0  0  0  0  0  0  0  0  0  0
  -19.2736  -14.9420    0.0000 C   0  0  0  0  0  0  0  0  0  0  0  0
  -19.9378  -13.5971    0.0000 C   0  0  0  0  0  0  0  0  0  0  0  0
  -16.8251  -16.3392    0.0000 C   0  0  0  0  0  0  0  0  0  0  0  0
  -16.0019  -17.5932    0.0000 O   0  0  0  0  0  0  0  0  0  0  0  0
  -18.3010  -16.6071    0.0000 N   0  0  0  0  0  0  0  0  0  0  0  0
  -18.9518  -17.9586    0.0000 C   0  0  0  0  0  0  0  0  0  0  0  0
  -20.4382  -17.7573    0.0000 C   0  0  0  0  0  0  0  0  0  0  0  0
  -20.7061  -16.2814    0.0000 C   0  0  0  0  0  0  0  0  0  0  0  0
  -19.3853  -15.5706    0.0000 C   0  0  0  0  0  0  0  0  0  0  0  0
  -20.2303  -14.3313    0.0000 C   0  0  0  0  0  0  0  0  0  0  0  0
  -21.7261  -14.4434    0.0000 O   0  0  0  0  0  0  0  0  0  0  0  0
  -19.5795  -12.9798    0.0000 N   0  0  0  0  0  0  0  0  0  0  0  0
  -20.4245  -11.7405    0.0000 C   0  0  0  0  0  0  0  0  0  0  0  0
  -21.6425  -10.8649    0.0000 C   0  0  0  0  0  0  0  0  0  0  0  0
  -19.7738  -10.3890    0.0000 C   0  0  0  0  0  0  0  0  0  0  0  0
  -18.2780  -10.2768    0.0000 O   0  0  0  0  0  0  0  0  0  0  0  0
  -20.6188   -9.1496    0.0000 N   0  0  0  0  0  0  0  0  0  0  0  0
  -19.9680   -7.7982    0.0000 C   0  0  0  0  0  0  0  0  0  0  0  0
  -18.8942   -6.7508    0.0000 C   0  0  0  0  0  0  0  0  0  0  0  0
  -20.8130   -6.5588    0.0000 C   0  0  0  0  0  0  0  0  0  0  0  0
  -22.3088   -6.6710    0.0000 O   0  0  0  0  0  0  0  0  0  0  0  0
  -20.1623   -5.2074    0.0000 N   0  0  0  0  0  0  0  0  0  0  0  0
  -21.0073   -3.9680    0.0000 C   0  0  0  0  0  0  0  0  0  0  0  0
  -22.2252   -3.0925    0.0000 C   0  0  0  0  0  0  0  0  0  0  0  0
  -22.0759   -1.5999    0.0000 C   0  0  0  0  0  0  0  0  0  0  0  0
  -23.2939   -0.7243    0.0000 C   0  0  0  0  0  0  0  0  0  0  0  0
  -23.1446    0.7682    0.0000 C   0  0  0  0  0  0  0  0  0  0  0  0
  -24.3625    1.6438    0.0000 N   0  0  0  0  0  0  0  0  0  0  0  0
  -20.3565   -2.6166    0.0000 C   0  0  0  0  0  0  0  0  0  0  0  0
  -18.8607   -2.5044    0.0000 O   0  0  0  0  0  0  0  0  0  0  0  0
  -21.2015   -1.3772    0.0000 N   0  0  0  0  0  0  0  0  0  0  0  0
  -20.5508   -0.0258    0.0000 C   0  0  0  0  0  0  0  0  0  0  0  0
  -19.4770    1.0216    0.0000 C   0  0  0  0  0  0  0  0  0  0  0  0
  -18.0330    0.6154    0.0000 C   0  0  0  0  0  0  0  0  0  0  0  0
  -16.9593    1.6628    0.0000 C   0  0  0  0  0  0  0  0  0  0  0  0
  -15.5153    1.2566    0.0000 N   0  0  0  0  0  0  0  0  0  0  0  0
  -14.4416    2.3040    0.0000 C   0  0  0  0  0  0  0  0  0  0  0  0
  -12.9976    1.8978    0.0000 N   0  0  0  0  0  0  0  0  0  0  0  0
  -14.8118    3.7576    0.0000 N   0  0  0  0  0  0  0  0  0  0  0  0
  -21.3958    1.2136    0.0000 C   0  0  0  0  0  0  0  0  0  0  0  0
  -22.8743    1.4667    0.0000 O   0  0  0  0  0  0  0  0  0  0  0  0
  -20.7450    2.5650    0.0000 N   0  0  0  0  0  0  0  0  0  0  0  0
  -21.5900    3.8044    0.0000 C   0  0  0  0  0  0  0  0  0  0  0  0
  -22.8080    4.6799    0.0000 C   0  0  0  0  0  0  0  0  0  0  0  0
  -22.8417    6.1796    0.0000 C   0  0  0  0  0  0  0  0  0  0  0  0
  -20.9393    5.1559    0.0000 C   0  0  0  0  0  0  0  0  0  0  0  0
  -19.4435    5.2680    0.0000 O   0  0  0  0  0  0  0  0  0  0  0  0
  -21.7843    6.3952    0.0000 N   0  0  0  0  0  0  0  0  0  0  0  0
  -21.1335    7.7467    0.0000 C   0  0  0  0  0  0  0  0  0  0  0  0
  -20.0598    8.7941    0.0000 C   0  0  0  0  0  0  0  0  0  0  0  0
  -18.6158    8.3878    0.0000 C   0  0  0  0  0  0  0  0  0  0  0  0
  -17.5420    9.4352    0.0000 C   0  0  0  0  0  0  0  0  0  0  0  0
  -16.0981    9.0290    0.0000 C   0  0  0  0  0  0  0  0  0  0  0  0
  -15.0243   10.0764    0.0000 N   0  0  0  0  0  0  0  0  0  0  0  0
  -21.9785    8.9860    0.0000 C   0  0  0  0  0  0  0  0  0  0  0  0
  -23.4743    8.8738    0.0000 O   0  0  0  0  0  0  0  0  0  0  0  0
  -21.3278   10.3375    0.0000 N   0  0  0  0  0  0  0  0  0  0  0  0
  -22.1728   11.5768    0.0000 C   0  0  0  0  0  0  0  0  0  0  0  0
  -23.3907   12.4524    0.0000 C   0  0  0  0  0  0  0  0  0  0  0  0
  -23.2414   13.9449    0.0000 C   0  0  0  0  0  0  0  0  0  0  0  0
  -24.4594   14.8205    0.0000 C   0  0  0  0  0  0  0  0  0  0  0  0
  -22.5907   15.2964    0.0000 C   0  0  0  0  0  0  0  0  0  0  0  0
  -21.5220   12.9283    0.0000 C   0  0  0  0  0  0  0  0  0  0  0  0
  -20.0262   13.0404    0.0000 O   0  0  0  0  0  0  0  0  0  0  0  0
  -22.3670   14.1676    0.0000 N   0  0  0  0  0  0  0  0  0  0  0  0
  -21.7163   15.5191    0.0000 C   0  0  0  0  0  0  0  0  0  0  0  0
  -20.6425   16.5665    0.0000 C   0  0  0  0  0  0  0  0  0  0  0  0
  -19.1986   16.1603    0.0000 C   0  0  0  0  0  0  0  0  0  0  0  0
  -18.1248   17.2077    0.0000 O   0  0  0  0  0  0  0  0  0  0  0  0
  -18.8284   14.7067    0.0000 O   0  0  0  0  0  0  0  0  0  0  0  0
  -22.5613   16.7584    0.0000 C   0  0  0  0  0  0  0  0  0  0  0  0
  -22.0801   18.1791    0.0000 O   0  0  0  0  0  0  0  0  0  0  0  0
  -24.0596   16.8294    0.0000 O   0  0  0  0  0  0  0  0  0  0  0  0
   33.1855   -3.6650    0.0000 H   0  0  0  0  0  0  0  0  0  0  0  0
   32.3971   -8.0878    0.0000 H   0  0  0  0  0  0  0  0  0  0  0  0
   34.6111  -10.1122    0.0000 H   0  0  0  0  0  0  0  0  0  0  0  0
   35.5395   -4.2184    0.0000 H   0  0  0  0  0  0  0  0  0  0  0  0
   42.7001   -4.0212    0.0000 H   0  0  0  0  0  0  0  0  0  0  0  0
   42.6603   -9.2172    0.0000 H   0  0  0  0  0  0  0  0  0  0  0  0
   39.6604   -9.1942    0.0000 H   0  0  0  0  0  0  0  0  0  0  0  0
   44.9202   -7.9355    0.0000 H   0  0  0  0  0  0  0  0  0  0  0  0
   35.1804   -6.5617    0.0000 H   0  0  0  0  0  0  0  0  0  0  0  0
   33.7130   -3.7695    0.0000 H   0  0  0  0  0  0  0  0  0  0  0  0
   38.2202   -1.3887    0.0000 H   0  0  0  0  0  0  0  0  0  0  0  0
   35.9802   -0.0725    0.0000 H   0  0  0  0  0  0  0  0  0  0  0  0
   30.8294   -3.1338    0.0000 H   0  0  0  0  0  0  0  0  0  0  0  0
   29.7702   -6.3809    0.0000 H   0  0  0  0  0  0  0  0  0  0  0  0
   28.0074   -6.1037    0.0000 H   0  0  0  0  0  0  0  0  0  0  0  0
   29.1582   -3.1245    0.0000 H   0  0  0  0  0  0  0  0  0  0  0  0
   27.2751   -2.7091    0.0000 H   0  0  0  0  0  0  0  0  0  0  0  0
   25.7552   -2.0145    0.0000 H   0  0  0  0  0  0  0  0  0  0  0  0
   23.8046   -2.4449    0.0000 H   0  0  0  0  0  0  0  0  0  0  0  0
   24.8934   -6.7486    0.0000 H   0  0  0  0  0  0  0  0  0  0  0  0
   23.3317   -5.8852    0.0000 H   0  0  0  0  0  0  0  0  0  0  0  0
   28.3684   -6.9013    0.0000 H   0  0  0  0  0  0  0  0  0  0  0  0
   26.0841   -7.9212    0.0000 H   0  0  0  0  0  0  0  0  0  0  0  0
   22.6139   -1.2723    0.0000 H   0  0  0  0  0  0  0  0  0  0  0  0
   20.8099   -1.0599    0.0000 H   0  0  0  0  0  0  0  0  0  0  0  0
   20.1849   -5.4261    0.0000 H   0  0  0  0  0  0  0  0  0  0  0  0
   19.0385   -4.2620    0.0000 H   0  0  0  0  0  0  0  0  0  0  0  0
   23.3931   -4.5977    0.0000 H   0  0  0  0  0  0  0  0  0  0  0  0
   22.5624   -3.1908    0.0000 H   0  0  0  0  0  0  0  0  0  0  0  0
   21.1001   -8.4222    0.0000 H   0  0  0  0  0  0  0  0  0  0  0  0
   19.9159    0.4995    0.0000 H   0  0  0  0  0  0  0  0  0  0  0  0
   18.1451    1.4236    0.0000 H   0  0  0  0  0  0  0  0  0  0  0  0
   16.0644   -2.4655    0.0000 H   0  0  0  0  0  0  0  0  0  0  0  0
   15.6309   -0.7345    0.0000 H   0  0  0  0  0  0  0  0  0  0  0  0
   19.2114   -1.2857    0.0000 H   0  0  0  0  0  0  0  0  0  0  0  0
   18.6304   -5.0341    0.0000 H   0  0  0  0  0  0  0  0  0  0  0  0
   16.9966   -5.0500    0.0000 H   0  0  0  0  0  0  0  0  0  0  0  0
   16.3553   -3.3848    0.0000 H   0  0  0  0  0  0  0  0  0  0  0  0
   19.7081   -4.3788    0.0000 H   0  0  0  0  0  0  0  0  0  0  0  0
   20.9494   -3.3164    0.0000 H   0  0  0  0  0  0  0  0  0  0  0  0
   19.6529   -1.3986    0.0000 H   0  0  0  0  0  0  0  0  0  0  0  0
   18.0312    2.9096    0.0000 H   0  0  0  0  0  0  0  0  0  0  0  0
   16.5311    2.1084    0.0000 H   0  0  0  0  0  0  0  0  0  0  0  0
   15.7763    0.9020    0.0000 H   0  0  0  0  0  0  0  0  0  0  0  0
   15.7480    0.3161    0.0000 H   0  0  0  0  0  0  0  0  0  0  0  0
   15.0051   -0.4823    0.0000 H   0  0  0  0  0  0  0  0  0  0  0  0
   14.9020   -0.6147    0.0000 H   0  0  0  0  0  0  0  0  0  0  0  0
   13.9902   -1.7072    0.0000 H   0  0  0  0  0  0  0  0  0  0  0  0
   13.6099   -2.0401    0.0000 H   0  0  0  0  0  0  0  0  0  0  0  0
   12.5879   -2.7756    0.0000 H   0  0  0  0  0  0  0  0  0  0  0  0
   12.1515   -3.0305    0.0000 H   0  0  0  0  0  0  0  0  0  0  0  0
   11.0088   -3.5593    0.0000 H   0  0  0  0  0  0  0  0  0  0  0  0
   10.5320   -3.7270    0.0000 H   0  0  0  0  0  0  0  0  0  0  0  0
    9.1325   -3.9845    0.0000 H   0  0  0  0  0  0  0  0  0  0  0  0
    8.1886   -4.2759    0.0000 H   0  0  0  0  0  0  0  0  0  0  0  0
   18.1229    3.3988    0.0000 H   0  0  0  0  0  0  0  0  0  0  0  0
   18.0888    5.0323    0.0000 H   0  0  0  0  0  0  0  0  0  0  0  0
   16.4047    5.6222    0.0000 H   0  0  0  0  0  0  0  0  0  0  0  0
   16.9306    6.7430    0.0000 H   0  0  0  0  0  0  0  0  0  0  0  0
   16.4414    7.6390    0.0000 H   0  0  0  0  0  0  0  0  0  0  0  0
   16.3034   10.7241    0.0000 H   0  0  0  0  0  0  0  0  0  0  0  0
   14.7403   10.2485    0.0000 H   0  0  0  0  0  0  0  0  0  0  0  0
   18.7269    8.4646    0.0000 H   0  0  0  0  0  0  0  0  0  0  0  0
   17.3254    7.6250    0.0000 H   0  0  0  0  0  0  0  0  0  0  0  0
   18.6783   11.7777    0.0000 H   0  0  0  0  0  0  0  0  0  0  0  0
   17.0060   11.1550    0.0000 H   0  0  0  0  0  0  0  0  0  0  0  0
   20.3628    8.8065    0.0000 H   0  0  0  0  0  0  0  0  0  0  0  0
   23.0126   12.4435    0.0000 H   0  0  0  0  0  0  0  0  0  0  0  0
   20.9127   13.9734    0.0000 H   0  0  0  0  0  0  0  0  0  0  0  0
   18.5379   12.9198    0.0000 H   0  0  0  0  0  0  0  0  0  0  0  0
   14.4580   11.6151    0.0000 H   0  0  0  0  0  0  0  0  0  0  0  0
   13.6196   12.1376    0.0000 H   0  0  0  0  0  0  0  0  0  0  0  0
   12.0752   14.5274    0.0000 H   0  0  0  0  0  0  0  0  0  0  0  0
   10.8390   13.2405    0.0000 H   0  0  0  0  0  0  0  0  0  0  0  0
   13.7549   15.2189    0.0000 H   0  0  0  0  0  0  0  0  0  0  0  0
   10.0379   14.1845    0.0000 H   0  0  0  0  0  0  0  0  0  0  0  0
    8.8749   14.2239    0.0000 H   0  0  0  0  0  0  0  0  0  0  0  0
    6.2836   15.3993    0.0000 H   0  0  0  0  0  0  0  0  0  0  0  0
    5.9394   13.6484    0.0000 H   0  0  0  0  0  0  0  0  0  0  0  0
   10.4483   14.3581    0.0000 H   0  0  0  0  0  0  0  0  0  0  0  0
   11.8225   16.8403    0.0000 H   0  0  0  0  0  0  0  0  0  0  0  0
   10.3508   19.4545    0.0000 H   0  0  0  0  0  0  0  0  0  0  0  0
    7.3510   19.4871    0.0000 H   0  0  0  0  0  0  0  0  0  0  0  0
    5.8229   16.9054    0.0000 H   0  0  0  0  0  0  0  0  0  0  0  0
    4.7551   14.0094    0.0000 H   0  0  0  0  0  0  0  0  0  0  0  0
    3.7554   13.4138    0.0000 H   0  0  0  0  0  0  0  0  0  0  0  0
    0.9400   13.0016    0.0000 H   0  0  0  0  0  0  0  0  0  0  0  0
    1.5971   11.3425    0.0000 H   0  0  0  0  0  0  0  0  0  0  0  0
    5.0065   14.3773    0.0000 H   0  0  0  0  0  0  0  0  0  0  0  0
    4.8206   17.2085    0.0000 H   0  0  0  0  0  0  0  0  0  0  0  0
    2.1691   18.6120    0.0000 H   0  0  0  0  0  0  0  0  0  0  0  0
   -0.3720   17.0175    0.0000 H   0  0  0  0  0  0  0  0  0  0  0  0
   -0.2618   14.0196    0.0000 H   0  0  0  0  0  0  0  0  0  0  0  0
    0.2845   10.8686    0.0000 H   0  0  0  0  0  0  0  0  0  0  0  0
   -0.1133    9.9644    0.0000 H   0  0  0  0  0  0  0  0  0  0  0  0
   -1.6878    9.7862    0.0000 H   0  0  0  0  0  0  0  0  0  0  0  0
   -2.2590    8.0956    0.0000 H   0  0  0  0  0  0  0  0  0  0  0  0
   -0.8093    7.0551    0.0000 H   0  0  0  0  0  0  0  0  0  0  0  0
   -1.6296    6.1279    0.0000 H   0  0  0  0  0  0  0  0  0  0  0  0
   -1.4127    5.1304    0.0000 H   0  0  0  0  0  0  0  0  0  0  0  0
   -2.1495    2.1314    0.0000 H   0  0  0  0  0  0  0  0  0  0  0  0
   -0.5157    2.1473    0.0000 H   0  0  0  0  0  0  0  0  0  0  0  0
   -2.2569    5.3929    0.0000 H   0  0  0  0  0  0  0  0  0  0  0  0
   -5.3662    3.4548    0.0000 H   0  0  0  0  0  0  0  0  0  0  0  0
   -4.7250    1.7895    0.0000 H   0  0  0  0  0  0  0  0  0  0  0  0
   -2.9450    1.9159    0.0000 H   0  0  0  0  0  0  0  0  0  0  0  0
   -5.3129    4.7072    0.0000 H   0  0  0  0  0  0  0  0  0  0  0  0
   -4.5323    6.3119    0.0000 H   0  0  0  0  0  0  0  0  0  0  0  0
   -2.6492    5.8965    0.0000 H   0  0  0  0  0  0  0  0  0  0  0  0
   -0.7045    0.9238    0.0000 H   0  0  0  0  0  0  0  0  0  0  0  0
    2.3282   -2.3700    0.0000 H   0  0  0  0  0  0  0  0  0  0  0  0
    1.2797   -1.6728    0.0000 H   0  0  0  0  0  0  0  0  0  0  0  0
    3.6560   -3.2461    0.0000 H   0  0  0  0  0  0  0  0  0  0  0  0
    2.6776   -2.7644    0.0000 H   0  0  0  0  0  0  0  0  0  0  0  0
    5.4894   -3.8293    0.0000 H   0  0  0  0  0  0  0  0  0  0  0  0
    4.1168   -3.4537    0.0000 H   0  0  0  0  0  0  0  0  0  0  0  0
    6.4051   -4.1999    0.0000 H   0  0  0  0  0  0  0  0  0  0  0  0
   -0.8827   -1.1734    0.0000 H   0  0  0  0  0  0  0  0  0  0  0  0
   -1.4321    0.3653    0.0000 H   0  0  0  0  0  0  0  0  0  0  0  0
   -0.2500    1.4932    0.0000 H   0  0  0  0  0  0  0  0  0  0  0  0
   -1.5668   -0.4698    0.0000 H   0  0  0  0  0  0  0  0  0  0  0  0
    0.5080   -3.1524    0.0000 H   0  0  0  0  0  0  0  0  0  0  0  0
   -0.4429   -5.8063    0.0000 H   0  0  0  0  0  0  0  0  0  0  0  0
    0.5129   -4.1314    0.0000 H   0  0  0  0  0  0  0  0  0  0  0  0
   -4.9234   -4.8772    0.0000 H   0  0  0  0  0  0  0  0  0  0  0  0
   -2.2881   -5.9242    0.0000 H   0  0  0  0  0  0  0  0  0  0  0  0
   -4.4358   -3.3472    0.0000 H   0  0  0  0  0  0  0  0  0  0  0  0
   -7.2095   -3.8507    0.0000 H   0  0  0  0  0  0  0  0  0  0  0  0
   -5.4008   -3.1821    0.0000 H   0  0  0  0  0  0  0  0  0  0  0  0
   -7.3711   -7.1602    0.0000 H   0  0  0  0  0  0  0  0  0  0  0  0
   -6.0640   -7.0162    0.0000 H   0  0  0  0  0  0  0  0  0  0  0  0
  -10.7805   -6.3959    0.0000 H   0  0  0  0  0  0  0  0  0  0  0  0
   -9.3746   -8.1883    0.0000 H   0  0  0  0  0  0  0  0  0  0  0  0
   -7.6280   -5.6517    0.0000 H   0  0  0  0  0  0  0  0  0  0  0  0
   -5.4375   -8.1923    0.0000 H   0  0  0  0  0  0  0  0  0  0  0  0
   -5.4762   -8.9935    0.0000 H   0  0  0  0  0  0  0  0  0  0  0  0
   -8.3791  -11.6855    0.0000 H   0  0  0  0  0  0  0  0  0  0  0  0
   -9.6796  -10.4637    0.0000 H   0  0  0  0  0  0  0  0  0  0  0  0
   -9.4369   -9.3418    0.0000 H   0  0  0  0  0  0  0  0  0  0  0  0
   -6.3808  -12.3462    0.0000 H   0  0  0  0  0  0  0  0  0  0  0  0
   -7.7556  -11.4633    0.0000 H   0  0  0  0  0  0  0  0  0  0  0  0
   -4.3898  -12.5062    0.0000 H   0  0  0  0  0  0  0  0  0  0  0  0
   -3.4340  -10.8314    0.0000 H   0  0  0  0  0  0  0  0  0  0  0  0
   -4.7345   -9.6096    0.0000 H   0  0  0  0  0  0  0  0  0  0  0  0
   -8.2336  -10.9642    0.0000 H   0  0  0  0  0  0  0  0  0  0  0  0
  -10.3812   -8.3872    0.0000 H   0  0  0  0  0  0  0  0  0  0  0  0
  -13.1550   -8.8907    0.0000 H   0  0  0  0  0  0  0  0  0  0  0  0
  -11.3463   -8.2220    0.0000 H   0  0  0  0  0  0  0  0  0  0  0  0
  -12.9721  -13.4629    0.0000 H   0  0  0  0  0  0  0  0  0  0  0  0
  -13.5735  -10.6917    0.0000 H   0  0  0  0  0  0  0  0  0  0  0  0
  -11.3830  -13.2323    0.0000 H   0  0  0  0  0  0  0  0  0  0  0  0
  -12.3338  -15.8862    0.0000 H   0  0  0  0  0  0  0  0  0  0  0  0
  -11.3781  -14.2114    0.0000 H   0  0  0  0  0  0  0  0  0  0  0  0
  -15.6251  -15.5037    0.0000 H   0  0  0  0  0  0  0  0  0  0  0  0
  -15.2691  -14.2378    0.0000 H   0  0  0  0  0  0  0  0  0  0  0  0
  -15.4294  -18.9922    0.0000 H   0  0  0  0  0  0  0  0  0  0  0  0
  -16.9147  -17.1153    0.0000 H   0  0  0  0  0  0  0  0  0  0  0  0
  -14.1791  -16.0042    0.0000 H   0  0  0  0  0  0  0  0  0  0  0  0
  -16.1438  -13.4374    0.0000 H   0  0  0  0  0  0  0  0  0  0  0  0
  -18.1533  -16.1313    0.0000 H   0  0  0  0  0  0  0  0  0  0  0  0
  -19.6125  -12.4792    0.0000 H   0  0  0  0  0  0  0  0  0  0  0  0
  -18.3253  -11.7672    0.0000 H   0  0  0  0  0  0  0  0  0  0  0  0
  -16.8856  -12.8214    0.0000 H   0  0  0  0  0  0  0  0  0  0  0  0
  -20.7134  -15.3626    0.0000 H   0  0  0  0  0  0  0  0  0  0  0  0
  -19.1094  -16.4330    0.0000 H   0  0  0  0  0  0  0  0  0  0  0  0
  -21.7632  -13.8450    0.0000 H   0  0  0  0  0  0  0  0  0  0  0  0
  -21.1411  -12.7670    0.0000 H   0  0  0  0  0  0  0  0  0  0  0  0
  -19.2133  -12.7235    0.0000 H   0  0  0  0  0  0  0  0  0  0  0  0
  -17.5397  -18.4646    0.0000 H   0  0  0  0  0  0  0  0  0  0  0  0
  -19.3074  -19.4159    0.0000 H   0  0  0  0  0  0  0  0  0  0  0  0
  -20.4830  -19.2566    0.0000 H   0  0  0  0  0  0  0  0  0  0  0  0
  -21.9340  -17.8695    0.0000 H   0  0  0  0  0  0  0  0  0  0  0  0
  -22.1459  -16.7021    0.0000 H   0  0  0  0  0  0  0  0  0  0  0  0
  -21.4399  -14.9732    0.0000 H   0  0  0  0  0  0  0  0  0  0  0  0
  -18.5097  -14.3526    0.0000 H   0  0  0  0  0  0  0  0  0  0  0  0
  -18.1553  -12.5090    0.0000 H   0  0  0  0  0  0  0  0  0  0  0  0
  -21.6180  -12.6491    0.0000 H   0  0  0  0  0  0  0  0  0  0  0  0
  -22.0381   -9.4180    0.0000 H   0  0  0  0  0  0  0  0  0  0  0  0
  -23.0864  -10.4587    0.0000 H   0  0  0  0  0  0  0  0  0  0  0  0
  -22.2932  -12.2164    0.0000 H   0  0  0  0  0  0  0  0  0  0  0  0
  -22.1171   -9.0786    0.0000 H   0  0  0  0  0  0  0  0  0  0  0  0
  -18.7501   -8.6737    0.0000 H   0  0  0  0  0  0  0  0  0  0  0  0
  -17.4503   -7.1570    0.0000 H   0  0  0  0  0  0  0  0  0  0  0  0
  -18.0836   -5.4887    0.0000 H   0  0  0  0  0  0  0  0  0  0  0  0
  -19.8641   -5.6065    0.0000 H   0  0  0  0  0  0  0  0  0  0  0  0
  -18.6913   -4.9137    0.0000 H   0  0  0  0  0  0  0  0  0  0  0  0
  -22.0810   -5.0154    0.0000 H   0  0  0  0  0  0  0  0  0  0  0  0
  -23.7079   -2.8653    0.0000 H   0  0  0  0  0  0  0  0  0  0  0  0
  -22.8760   -4.4439    0.0000 H   0  0  0  0  0  0  0  0  0  0  0  0
  -21.2653   -0.3378    0.0000 H   0  0  0  0  0  0  0  0  0  0  0  0
  -20.6103   -1.2805    0.0000 H   0  0  0  0  0  0  0  0  0  0  0  0
  -24.7378   -0.3181    0.0000 H   0  0  0  0  0  0  0  0  0  0  0  0
  -24.1045   -1.9864    0.0000 H   0  0  0  0  0  0  0  0  0  0  0  0
  -22.6634    2.1889    0.0000 H   0  0  0  0  0  0  0  0  0  0  0  0
  -21.6619    0.5410    0.0000 H   0  0  0  0  0  0  0  0  0  0  0  0
  -24.0324    3.1070    0.0000 H   0  0  0  0  0  0  0  0  0  0  0  0
  -25.7297    1.0268    0.0000 H   0  0  0  0  0  0  0  0  0  0  0  0
  -22.6800   -1.1241    0.0000 H   0  0  0  0  0  0  0  0  0  0  0  0
  -19.4486   -1.0433    0.0000 H   0  0  0  0  0  0  0  0  0  0  0  0
  -18.8262    2.3731    0.0000 H   0  0  0  0  0  0  0  0  0  0  0  0
  -20.4469    2.1659    0.0000 H   0  0  0  0  0  0  0  0  0  0  0  0
  -16.8151   -0.2601    0.0000 H   0  0  0  0  0  0  0  0  0  0  0  0
  -18.5142   -0.8053    0.0000 H   0  0  0  0  0  0  0  0  0  0  0  0
  -16.3085    3.0143    0.0000 H   0  0  0  0  0  0  0  0  0  0  0  0
  -18.0614    2.6803    0.0000 H   0  0  0  0  0  0  0  0  0  0  0  0
  -15.1451   -0.1970    0.0000 H   0  0  0  0  0  0  0  0  0  0  0  0
  -11.9239    2.9452    0.0000 H   0  0  0  0  0  0  0  0  0  0  0  0
  -13.7380    4.8050    0.0000 H   0  0  0  0  0  0  0  0  0  0  0  0
  -16.2557    4.1638    0.0000 H   0  0  0  0  0  0  0  0  0  0  0  0
  -19.2740    2.8587    0.0000 H   0  0  0  0  0  0  0  0  0  0  0  0
  -22.7835    2.8957    0.0000 H   0  0  0  0  0  0  0  0  0  0  0  0
  -24.2519    5.0862    0.0000 H   0  0  0  0  0  0  0  0  0  0  0  0
  -23.2892    3.2592    0.0000 H   0  0  0  0  0  0  0  0  0  0  0  0
  -23.8766    7.0481    0.0000 H   0  0  0  0  0  0  0  0  0  0  0  0
  -22.0079    7.5240    0.0000 H   0  0  0  0  0  0  0  0  0  0  0  0
  -21.1931    6.4919    0.0000 H   0  0  0  0  0  0  0  0  0  0  0  0
  -23.2826    6.4662    0.0000 H   0  0  0  0  0  0  0  0  0  0  0  0
  -20.0314    6.7292    0.0000 H   0  0  0  0  0  0  0  0  0  0  0  0
  -19.4090   10.1455    0.0000 H   0  0  0  0  0  0  0  0  0  0  0  0
  -21.0296    9.9383    0.0000 H   0  0  0  0  0  0  0  0  0  0  0  0
  -17.5137    7.3703    0.0000 H   0  0  0  0  0  0  0  0  0  0  0  0
  -19.0970    6.9671    0.0000 H   0  0  0  0  0  0  0  0  0  0  0  0
  -16.8913   10.7867    0.0000 H   0  0  0  0  0  0  0  0  0  0  0  0
  -18.6442   10.4527    0.0000 H   0  0  0  0  0  0  0  0  0  0  0  0
  -14.8801    8.1535    0.0000 H   0  0  0  0  0  0  0  0  0  0  0  0
  -16.5793    7.6083    0.0000 H   0  0  0  0  0  0  0  0  0  0  0  0
  -13.5804    9.6702    0.0000 H   0  0  0  0  0  0  0  0  0  0  0  0
  -15.3945   11.5300    0.0000 H   0  0  0  0  0  0  0  0  0  0  0  0
  -19.8568   10.6311    0.0000 H   0  0  0  0  0  0  0  0  0  0  0  0
  -23.2466   10.5294    0.0000 H   0  0  0  0  0  0  0  0  0  0  0  0
  -24.8734   12.6795    0.0000 H   0  0  0  0  0  0  0  0  0  0  0  0
  -24.0415   11.1009    0.0000 H   0  0  0  0  0  0  0  0  0  0  0  0
  -21.7758   14.2643    0.0000 H   0  0  0  0  0  0  0  0  0  0  0  0
  -24.6757   16.3048    0.0000 H   0  0  0  0  0  0  0  0  0  0  0  0
  -25.9033   15.2267    0.0000 H   0  0  0  0  0  0  0  0  0  0  0  0
  -25.2700   13.5584    0.0000 H   0  0  0  0  0  0  0  0  0  0  0  0
  -21.1664   15.7672    0.0000 H   0  0  0  0  0  0  0  0  0  0  0  0
  -22.9863   16.7433    0.0000 H   0  0  0  0  0  0  0  0  0  0  0  0
  -23.9743   15.8756    0.0000 H   0  0  0  0  0  0  0  0  0  0  0  0
  -23.8455   14.4207    0.0000 H   0  0  0  0  0  0  0  0  0  0  0  0
  -20.4983   14.6435    0.0000 H   0  0  0  0  0  0  0  0  0  0  0  0
  -19.9917   17.9179    0.0000 H   0  0  0  0  0  0  0  0  0  0  0  0
  -21.6124   17.7107    0.0000 H   0  0  0  0  0  0  0  0  0  0  0  0
  -17.3844   14.3004    0.0000 H   0  0  0  0  0  0  0  0  0  0  0  0
  -24.9021   17.8856    0.0000 H   0  0  0  0  0  0  0  0  0  0  0  0
  1  2  1  0
  2  3  1  0
  3  4  2  0
  4  5  1  0
  5  6  2  0
  6  7  1  0
  7  8  2  0
  7  9  1  0
  9 10  1  0
 10 11  1  0
 11 12  2  0
  9 13  1  0
 13 14  1  0
 14 15  2  0
 15 16  1  0
 16 17  2  0
 17 18  1  0
 16 19  1  0
 14 20  1  0
 20 21  1  0
 21 22  2  0
 22 23  1  0
 23 24  2  0
 24 25  1  0
 25 26  2  0
 25 27  1  0
  1 28  2  0
  1 29  1  0
 29 30  1  0
 30 31  1  0
 31 32  1  0
 32 33  2  0
 32 34  1  0
 34 35  1  0
 35 36  1  0
 36 37  1  0
 37 38  1  0
 37 39  2  0
 35 40  1  0
 40 41  2  0
 40 42  1  0
 42 43  1  0
 43 44  1  0
 44 45  1  0
 45 46  1  0
 46 47  2  0
 46 48  1  0
 43 49  1  0
 49 50  2  0
 49 51  1  0
 51 52  1  0
 52 53  1  0
 53 54  1  0
 54 55  1  0
 54 56  1  0
 52 57  1  0
 57 58  2  0
 57 59  1  0
 60 59  1  6
 60 61  1  0
 61 62  1  0
 62 63  1  0
 63 64  1  0
 64 65  1  0
 65 66  1  0
 66 67  1  0
 60 68  1  0
 60 69  1  0
 69 70  2  0
 69 71  1  0
 71 72  1  0
 72 73  1  0
 73 74  1  0
 74 75  1  0
 75 76  1  0
 76 77  1  0
 77 78  2  3
 77 79  1  0
 72 80  1  0
 80 81  2  0
 80 82  1  0
 82 83  1  0
 83 84  1  0
 84 85  1  0
 83 86  1  0
 86 87  2  0
 86 88  1  0
 88 89  1  0
 89 90  1  0
 90 91  1  0
 91 92  2  0
 92 93  1  0
 93 94  2  0
 94 95  1  0
 95 96  2  0
 89 97  1  0
 97 98  2  0
 97 99  1  0
 99100  1  0
100101  1  0
101102  1  0
102103  2  0
103104  1  0
104105  2  0
105106  1  0
106107  2  0
100108  1  0
108109  2  0
108110  1  0
110111  1  0
111112  1  0
111113  1  0
113114  2  0
113115  1  0
115116  1  0
116117  1  0
117118  1  0
118119  1  0
118120  1  0
116121  1  0
121122  2  0
121123  1  0
123124  1  0
124125  1  0
125126  1  0
126127  1  0
127128  1  0
124129  1  0
124130  1  1
130131  2  0
130132  1  0
132133  1  0
133134  1  0
134135  1  0
135136  2  0
135137  1  0
133138  1  0
138139  2  0
138140  1  0
140141  1  0
141142  1  0
142143  1  0
143144  1  0
144145  1  0
144146  2  0
141147  1  0
147148  2  0
147149  1  0
149150  1  0
150151  1  0
151152  1  0
151153  1  0
153154  1  0
150155  1  0
155156  2  0
155157  1  0
157158  1  0
158159  1  0
159160  1  0
160161  2  0
160162  1  0
158163  1  0
163164  2  0
163165  1  0
165166  1  0
166167  1  0
167168  1  0
168169  1  0
169170  1  0
169171  2  0
166172  1  0
172173  2  0
172174  1  0
174175  1  0
175176  1  0
176177  1  0
176178  1  0
178179  1  0
175180  1  0
180181  2  0
180182  1  0
182183  1  0
183184  1  0
184185  1  0
185186  1  0
186187  1  0
187188  2  0
187189  1  0
189190  1  0
190191  1  0
190192  1  0
192193  2  0
192194  1  0
194195  1  0
195196  1  0
195197  1  0
197198  2  0
197199  1  0
199200  1  0
200201  1  0
201202  1  0
202203  1  0
203204  1  0
204205  1  0
200206  1  0
206207  2  0
206208  1  0
208209  1  0
209210  1  0
210211  1  0
211212  1  0
212213  1  0
213214  1  0
214215  2  3
214216  1  0
209217  1  0
217218  2  0
217219  1  0
219220  1  0
220221  1  0
221222  1  0
220223  1  0
223224  2  0
223225  1  0
225226  1  0
226227  1  0
227228  1  0
228229  1  0
229230  1  0
230231  1  0
226232  1  0
232233  2  0
232234  1  0
234235  1  0
235236  1  0
236237  1  0
237238  1  0
237239  1  0
235240  1  0
240241  2  0
240242  1  0
242243  1  0
243244  1  0
244245  1  0
245246  2  0
245247  1  0
243248  1  0
248249  2  0
248250  1  0
  8  3  1  0
 96 91  1  0
107102  1  0
186182  1  0
 11  6  1  0
 67128  2  0
 18 13  2  0
 22  9  1  0
 26 21  1  0
  2251  1  0
  4252  1  0
  5253  1  0
  8254  1  0
 15255  1  0
 17256  1  0
 18257  1  0
 19258  1  0
 23259  1  0
 24260  1  0
 26261  1  0
 27262  1  0
 29263  1  0
 30264  1  0
 30265  1  0
 31266  1  0
 31267  1  0
 34268  1  0
 35269  1  1
 36270  1  0
 36271  1  0
 38272  1  0
 38273  1  0
 42274  1  0
 43275  1  1
 44276  1  0
 44277  1  0
 45278  1  0
 45279  1  0
 48280  1  0
 51281  1  0
 52282  1  1
 53283  1  0
 53284  1  0
 54285  1  0
 55286  1  0
 55287  1  0
 55288  1  0
 56289  1  0
 56290  1  0
 56291  1  0
 59292  1  0
 61293  1  0
 61294  1  0
 62295  1  0
 62296  1  0
 63297  1  0
 63298  1  0
 64299  1  0
 64300  1  0
 65301  1  0
 65302  1  0
 66303  1  0
 66304  1  0
 67305  1  0
 68306  1  0
 68307  1  0
 68308  1  0
 71309  1  0
 72310  1  6
 73311  1  0
 73312  1  0
 74313  1  0
 74314  1  0
 75315  1  0
 75316  1  0
 76317  1  0
 78318  1  0
 79319  1  0
 79320  1  0
 82321  1  0
 83322  1  6
 84323  1  0
 84324  1  0
 85325  1  0
 88326  1  0
 89327  1  6
 90328  1  0
 90329  1  0
 92330  1  0
 93331  1  0
 94332  1  0
 95333  1  0
 96334  1  0
 99335  1  0
100336  1  6
101337  1  0
101338  1  0
103339  1  0
104340  1  0
105341  1  0
106342  1  0
107343  1  0
110344  1  0
111345  1  6
112346  1  0
112347  1  0
112348  1  0
115349  1  0
116350  1  6
117351  1  0
117352  1  0
118353  1  0
119354  1  0
119355  1  0
119356  1  0
120357  1  0
120358  1  0
120359  1  0
123360  1  0
125361  1  0
125362  1  0
126363  1  0
126364  1  0
127365  1  0
127366  1  0
128367  1  0
129368  1  0
129369  1  0
129370  1  0
132371  1  0
133372  1  1
134373  1  0
134374  1  0
137375  1  0
140376  1  0
141377  1  6
142378  1  0
142379  1  0
143380  1  0
143381  1  0
145382  1  0
145383  1  0
149384  1  0
150385  1  1
151386  1  1
152387  1  0
152388  1  0
152389  1  0
153390  1  0
153391  1  0
154392  1  0
154393  1  0
154394  1  0
157395  1  0
158396  1  6
159397  1  0
159398  1  0
162399  1  0
165400  1  0
166401  1  1
167402  1  0
167403  1  0
168404  1  0
168405  1  0
170406  1  0
170407  1  0
174408  1  0
175409  1  6
176410  1  1
177411  1  0
177412  1  0
177413  1  0
178414  1  0
178415  1  0
179416  1  0
179417  1  0
179418  1  0
183419  1  0
183420  1  0
184421  1  0
184422  1  0
185423  1  0
185424  1  0
186425  1  0
189426  1  0
190427  1  1
191428  1  0
191429  1  0
191430  1  0
194431  1  0
195432  1  6
196433  1  0
196434  1  0
196435  1  0
199436  1  0
200437  1  1
201438  1  0
201439  1  0
202440  1  0
202441  1  0
203442  1  0
203443  1  0
204444  1  0
204445  1  0
205446  1  0
205447  1  0
208448  1  0
209449  1  6
210450  1  0
210451  1  0
211452  1  0
211453  1  0
212454  1  0
212455  1  0
213456  1  0
215457  1  0
216458  1  0
216459  1  0
219460  1  0
220461  1  1
221462  1  0
221463  1  0
222464  1  0
222465  1  0
222466  1  0
225467  1  0
226468  1  6
227469  1  0
227470  1  0
228471  1  0
228472  1  0
229473  1  0
229474  1  0
230475  1  0
230476  1  0
231477  1  0
231478  1  0
234479  1  0
235480  1  1
236481  1  0
236482  1  0
237483  1  0
238484  1  0
238485  1  0
238486  1  0
239487  1  0
239488  1  0
239489  1  0
242490  1  0
243491  1  6
244492  1  0
244493  1  0
247494  1  0
250495  1  0
M  END
