
     RDKit          2D

383387  0  0  0  0  0  0  0  0999 V2000
  -28.9890   13.0379    0.0000 N   0  0  0  0  0  0  0  0  0  0  0  0
  -27.8816   12.0260    0.0000 C   0  0  0  0  0  0  0  0  0  0  0  0
  -28.2043   10.5611    0.0000 C   0  0  0  0  0  0  0  0  0  0  0  0
  -27.0970    9.5493    0.0000 C   0  0  0  0  0  0  0  0  0  0  0  0
  -25.8693   10.1108    0.0000 O   0  0  0  0  0  0  0  0  0  0  0  0
  -27.4196    8.0844    0.0000 N   0  0  0  0  0  0  0  0  0  0  0  0
  -26.3123    7.0725    0.0000 C   0  0  0  0  0  0  0  0  0  0  0  0
  -25.5081    8.3387    0.0000 C   0  0  0  0  0  0  0  0  0  0  0  0
  -24.0094    8.2753    0.0000 C   0  0  0  0  0  0  0  0  0  0  0  0
  -23.2052    9.5415    0.0000 C   0  0  0  0  0  0  0  0  0  0  0  0
  -21.7066    9.4782    0.0000 O   0  0  0  0  0  0  0  0  0  0  0  0
  -23.8997   10.8711    0.0000 O   0  0  0  0  0  0  0  0  0  0  0  0
  -25.6179    5.7429    0.0000 C   0  0  0  0  0  0  0  0  0  0  0  0
  -24.1192    5.6796    0.0000 O   0  0  0  0  0  0  0  0  0  0  0  0
  -26.4221    4.4767    0.0000 N   0  0  0  0  0  0  0  0  0  0  0  0
  -25.7276    3.1472    0.0000 C   0  0  0  0  0  0  0  0  0  0  0  0
  -27.1576    2.6942    0.0000 C   0  0  0  0  0  0  0  0  0  0  0  0
  -28.2649    3.7060    0.0000 C   0  0  0  0  0  0  0  0  0  0  0  0
  -29.6948    3.2530    0.0000 O   0  0  0  0  0  0  0  0  0  0  0  0
  -28.1812    4.5878    0.0000 O   0  0  0  0  0  0  0  0  0  0  0  0
  -24.6203    2.1353    0.0000 C   0  0  0  0  0  0  0  0  0  0  0  0
  -24.9429    0.6704    0.0000 O   0  0  0  0  0  0  0  0  0  0  0  0
  -23.1903    2.5883    0.0000 N   0  0  0  0  0  0  0  0  0  0  0  0
  -22.0830    1.5765    0.0000 C   0  0  0  0  0  0  0  0  0  0  0  0
  -21.2788    2.8427    0.0000 C   0  0  0  0  0  0  0  0  0  0  0  0
  -22.1302    4.0777    0.0000 C   0  0  0  0  0  0  0  0  0  0  0  0
  -20.0901    3.7575    0.0000 C   0  0  0  0  0  0  0  0  0  0  0  0
  -20.2879    5.2444    0.0000 C   0  0  0  0  0  0  0  0  0  0  0  0
  -21.3886    0.2469    0.0000 C   0  0  0  0  0  0  0  0  0  0  0  0
  -19.8899    0.1836    0.0000 O   0  0  0  0  0  0  0  0  0  0  0  0
  -22.1928   -1.0193    0.0000 N   0  0  0  0  0  0  0  0  0  0  0  0
  -21.4983   -2.3488    0.0000 C   0  0  0  0  0  0  0  0  0  0  0  0
  -22.9283   -2.8019    0.0000 C   0  0  0  0  0  0  0  0  0  0  0  0
  -23.9040   -1.6626    0.0000 C   0  0  0  0  0  0  0  0  0  0  0  0
  -24.1171   -3.7166    0.0000 C   0  0  0  0  0  0  0  0  0  0  0  0
  -25.5037   -3.1445    0.0000 C   0  0  0  0  0  0  0  0  0  0  0  0
  -20.3910   -3.3607    0.0000 C   0  0  0  0  0  0  0  0  0  0  0  0
  -20.8898   -4.7753    0.0000 O   0  0  0  0  0  0  0  0  0  0  0  0
  -18.9611   -2.9077    0.0000 N   0  0  0  0  0  0  0  0  0  0  0  0
  -17.8538   -3.9195    0.0000 C   0  0  0  0  0  0  0  0  0  0  0  0
  -19.0425   -4.8343    0.0000 C   0  0  0  0  0  0  0  0  0  0  0  0
  -18.8447   -6.3212    0.0000 C   0  0  0  0  0  0  0  0  0  0  0  0
  -20.0335   -7.2360    0.0000 C   0  0  0  0  0  0  0  0  0  0  0  0
  -19.8356   -8.7229    0.0000 N   0  0  0  0  0  0  0  0  0  0  0  0
  -21.0244   -9.6377    0.0000 C   0  0  0  0  0  0  0  0  0  0  0  0
  -20.8266  -11.1246    0.0000 N   0  0  0  0  0  0  0  0  0  0  0  0
  -22.4110   -9.0655    0.0000 N   0  0  0  0  0  0  0  0  0  0  0  0
  -16.4672   -4.4916    0.0000 C   0  0  0  0  0  0  0  0  0  0  0  0
  -16.4520   -5.9916    0.0000 O   0  0  0  0  0  0  0  0  0  0  0  0
  -15.2784   -3.5769    0.0000 N   0  0  0  0  0  0  0  0  0  0  0  0
  -13.8918   -4.1490    0.0000 C   0  0  0  0  0  0  0  0  0  0  0  0
  -14.6960   -5.4152    0.0000 C   0  0  0  0  0  0  0  0  0  0  0  0
  -14.0015   -6.7447    0.0000 C   0  0  0  0  0  0  0  0  0  0  0  0
  -14.8057   -8.0109    0.0000 N   0  0  0  0  0  0  0  0  0  0  0  0
  -12.5029   -6.8081    0.0000 O   0  0  0  0  0  0  0  0  0  0  0  0
  -12.3931   -4.2123    0.0000 C   0  0  0  0  0  0  0  0  0  0  0  0
  -11.6987   -5.5419    0.0000 O   0  0  0  0  0  0  0  0  0  0  0  0
  -11.5889   -2.9462    0.0000 N   0  0  0  0  0  0  0  0  0  0  0  0
  -10.0902   -3.0095    0.0000 C   0  0  0  0  0  0  0  0  0  0  0  0
  -10.2881   -1.5226    0.0000 C   0  0  0  0  0  0  0  0  0  0  0  0
  -11.7341   -1.1238    0.0000 C   0  0  0  0  0  0  0  0  0  0  0  0
   -9.9654   -0.0577    0.0000 C   0  0  0  0  0  0  0  0  0  0  0  0
  -11.0727    0.9541    0.0000 C   0  0  0  0  0  0  0  0  0  0  0  0
   -8.7036   -3.5816    0.0000 C   0  0  0  0  0  0  0  0  0  0  0  0
   -7.5149   -2.6669    0.0000 O   0  0  0  0  0  0  0  0  0  0  0  0
   -8.5058   -5.0685    0.0000 N   0  0  0  0  0  0  0  0  0  0  0  0
   -7.1192   -5.6406    0.0000 C   0  0  0  0  0  0  0  0  0  0  0  0
   -7.9234   -6.9068    0.0000 C   0  0  0  0  0  0  0  0  0  0  0  0
   -5.6205   -5.7040    0.0000 C   0  0  0  0  0  0  0  0  0  0  0  0
   -5.0933   -7.1083    0.0000 O   0  0  0  0  0  0  0  0  0  0  0  0
   -4.8163   -4.4378    0.0000 N   0  0  0  0  0  0  0  0  0  0  0  0
   -3.3177   -4.5012    0.0000 C   0  0  0  0  0  0  0  0  0  0  0  0
   -2.3735   -5.6668    0.0000 C   0  0  0  0  0  0  0  0  0  0  0  0
   -1.1278   -6.5023    0.0000 C   0  0  0  0  0  0  0  0  0  0  0  0
    0.3089   -6.9335    0.0000 C   0  0  0  0  0  0  0  0  0  0  0  0
    1.8089   -6.9221    0.0000 C   0  0  0  0  0  0  0  0  0  0  0  0
   -4.1501   -5.7490    0.0000 C   0  0  0  0  0  0  0  0  0  0  0  0
   -3.8763   -3.1091    0.0000 C   0  0  0  0  0  0  0  0  0  0  0  0
   -5.3673   -3.2735    0.0000 O   0  0  0  0  0  0  0  0  0  0  0  0
   -3.9998   -1.6142    0.0000 N   0  0  0  0  0  0  0  0  0  0  0  0
   -3.6771   -0.1493    0.0000 C   0  0  0  0  0  0  0  0  0  0  0  0
   -5.1451   -0.4577    0.0000 C   0  0  0  0  0  0  0  0  0  0  0  0
   -6.1461    0.6594    0.0000 C   0  0  0  0  0  0  0  0  0  0  0  0
   -7.6383    0.5061    0.0000 C   0  0  0  0  0  0  0  0  0  0  0  0
   -8.2451    1.8779    0.0000 N   0  0  0  0  0  0  0  0  0  0  0  0
   -7.1281    2.8789    0.0000 C   0  0  0  0  0  0  0  0  0  0  0  0
   -5.8308    2.1259    0.0000 N   0  0  0  0  0  0  0  0  0  0  0  0
   -2.9370    1.1554    0.0000 C   0  0  0  0  0  0  0  0  0  0  0  0
   -4.1169    2.0817    0.0000 O   0  0  0  0  0  0  0  0  0  0  0  0
   -1.8452    2.1840    0.0000 N   0  0  0  0  0  0  0  0  0  0  0  0
   -0.4988    2.8451    0.0000 C   0  0  0  0  0  0  0  0  0  0  0  0
   -1.6552    3.8005    0.0000 C   0  0  0  0  0  0  0  0  0  0  0  0
   -1.4059    5.2797    0.0000 C   0  0  0  0  0  0  0  0  0  0  0  0
   -2.5623    6.2351    0.0000 C   0  0  0  0  0  0  0  0  0  0  0  0
   -0.6658    6.5844    0.0000 C   0  0  0  0  0  0  0  0  0  0  0  0
    0.9827    3.0800    0.0000 C   0  0  0  0  0  0  0  0  0  0  0  0
    0.9713    4.5799    0.0000 O   0  0  0  0  0  0  0  0  0  0  0  0
    2.4676    2.8677    0.0000 N   0  0  0  0  0  0  0  0  0  0  0  0
    3.8240    2.2272    0.0000 C   0  0  0  0  0  0  0  0  0  0  0  0
    3.8500    3.7269    0.0000 C   0  0  0  0  0  0  0  0  0  0  0  0
    4.9313    1.2153    0.0000 C   0  0  0  0  0  0  0  0  0  0  0  0
    5.5171    2.5962    0.0000 O   0  0  0  0  0  0  0  0  0  0  0  0
    5.6912   -0.0780    0.0000 N   0  0  0  0  0  0  0  0  0  0  0  0
    6.0361   -1.5378    0.0000 C   0  0  0  0  0  0  0  0  0  0  0  0
    5.9354   -3.0344    0.0000 C   0  0  0  0  0  0  0  0  0  0  0  0
    5.3980   -4.4349    0.0000 C   0  0  0  0  0  0  0  0  0  0  0  0
    4.4717   -5.6147    0.0000 C   0  0  0  0  0  0  0  0  0  0  0  0
    3.2388   -6.4691    0.0000 C   0  0  0  0  0  0  0  0  0  0  0  0
    6.7512   -0.1134    0.0000 C   0  0  0  0  0  0  0  0  0  0  0  0
    7.0270    1.2254    0.0000 C   0  0  0  0  0  0  0  0  0  0  0  0
    7.5512    2.4878    0.0000 C   0  0  0  0  0  0  0  0  0  0  0  0
    8.3049    3.6282    0.0000 C   0  0  0  0  0  0  0  0  0  0  0  0
    6.9752   -2.8256    0.0000 C   0  0  0  0  0  0  0  0  0  0  0  0
    4.8566   -3.4184    0.0000 O   0  0  0  0  0  0  0  0  0  0  0  0
    7.4670   -4.1010    0.0000 N   0  0  0  0  0  0  0  0  0  0  0  0
    8.1912   -5.2603    0.0000 C   0  0  0  0  0  0  0  0  0  0  0  0
    7.1045   -7.0888    0.0000 C   0  0  0  0  0  0  0  0  0  0  0  0
    7.9052   -8.3572    0.0000 C   0  0  0  0  0  0  0  0  0  0  0  0
    9.1218   -6.2616    0.0000 C   0  0  0  0  0  0  0  0  0  0  0  0
    8.1611   -7.5426    0.0000 O   0  0  0  0  0  0  0  0  0  0  0  0
   10.2250   -7.0686    0.0000 N   0  0  0  0  0  0  0  0  0  0  0  0
   11.4610   -7.6523    0.0000 C   0  0  0  0  0  0  0  0  0  0  0  0
   12.7852   -7.9915    0.0000 C   0  0  0  0  0  0  0  0  0  0  0  0
   12.4443  -10.1650    0.0000 O   0  0  0  0  0  0  0  0  0  0  0  0
   14.1496   -8.0740    0.0000 N   0  0  0  0  0  0  0  0  0  0  0  0
   15.5050   -7.8968    0.0000 C   0  0  0  0  0  0  0  0  0  0  0  0
   16.7168   -9.6450    0.0000 C   0  0  0  0  0  0  0  0  0  0  0  0
   16.3215  -11.0919    0.0000 C   0  0  0  0  0  0  0  0  0  0  0  0
   17.3770  -12.1577    0.0000 O   0  0  0  0  0  0  0  0  0  0  0  0
   14.8708  -11.4731    0.0000 O   0  0  0  0  0  0  0  0  0  0  0  0
   16.8023   -7.4663    0.0000 C   0  0  0  0  0  0  0  0  0  0  0  0
   17.8534   -9.3950    0.0000 O   0  0  0  0  0  0  0  0  0  0  0  0
   17.9948   -6.7981    0.0000 N   0  0  0  0  0  0  0  0  0  0  0  0
   19.0392   -5.9162    0.0000 C   0  0  0  0  0  0  0  0  0  0  0  0
   21.0037   -6.7317    0.0000 C   0  0  0  0  0  0  0  0  0  0  0  0
   21.4535   -8.1626    0.0000 C   0  0  0  0  0  0  0  0  0  0  0  0
   20.5602   -9.3676    0.0000 C   0  0  0  0  0  0  0  0  0  0  0  0
   21.4302  -10.5896    0.0000 N   0  0  0  0  0  0  0  0  0  0  0  0
   22.8612  -10.1398    0.0000 C   0  0  0  0  0  0  0  0  0  0  0  0
   24.1529  -10.9022    0.0000 C   0  0  0  0  0  0  0  0  0  0  0  0
   25.4591  -10.1648    0.0000 C   0  0  0  0  0  0  0  0  0  0  0  0
   25.4735   -8.6648    0.0000 C   0  0  0  0  0  0  0  0  0  0  0  0
   24.1818   -7.9024    0.0000 C   0  0  0  0  0  0  0  0  0  0  0  0
   22.8756   -8.6399    0.0000 C   0  0  0  0  0  0  0  0  0  0  0  0
   19.8978   -4.8526    0.0000 C   0  0  0  0  0  0  0  0  0  0  0  0
   21.8247   -5.9069    0.0000 O   0  0  0  0  0  0  0  0  0  0  0  0
   20.5397   -3.6458    0.0000 N   0  0  0  0  0  0  0  0  0  0  0  0
   20.9415   -2.3392    0.0000 C   0  0  0  0  0  0  0  0  0  0  0  0
   23.0351   -1.9631    0.0000 C   0  0  0  0  0  0  0  0  0  0  0  0
   24.1871   -2.9238    0.0000 C   0  0  0  0  0  0  0  0  0  0  0  0
   25.5951   -2.4064    0.0000 C   0  0  0  0  0  0  0  0  0  0  0  0
   26.7471   -3.3670    0.0000 C   0  0  0  0  0  0  0  0  0  0  0  0
   21.0889   -0.9803    0.0000 C   0  0  0  0  0  0  0  0  0  0  0  0
   23.2798   -0.8254    0.0000 O   0  0  0  0  0  0  0  0  0  0  0  0
   20.9763    0.3820    0.0000 N   0  0  0  0  0  0  0  0  0  0  0  0
   20.6080    1.6984    0.0000 C   0  0  0  0  0  0  0  0  0  0  0  0
   22.1659    3.1466    0.0000 C   0  0  0  0  0  0  0  0  0  0  0  0
   23.6544    2.9613    0.0000 C   0  0  0  0  0  0  0  0  0  0  0  0
   24.5592    4.1578    0.0000 O   0  0  0  0  0  0  0  0  0  0  0  0
   24.2382    1.5796    0.0000 O   0  0  0  0  0  0  0  0  0  0  0  0
   19.9973    2.9213    0.0000 C   0  0  0  0  0  0  0  0  0  0  0  0
   21.7567    4.2360    0.0000 O   0  0  0  0  0  0  0  0  0  0  0  0
   19.1661    4.0064    0.0000 N   0  0  0  0  0  0  0  0  0  0  0  0
   18.1446    4.9147    0.0000 C   0  0  0  0  0  0  0  0  0  0  0  0
   16.9696    5.6133    0.0000 C   0  0  0  0  0  0  0  0  0  0  0  0
   15.6837    6.0768    0.0000 C   0  0  0  0  0  0  0  0  0  0  0  0
   14.3333    6.2887    0.0000 C   0  0  0  0  0  0  0  0  0  0  0  0
   12.9672    6.2411    0.0000 C   0  0  0  0  0  0  0  0  0  0  0  0
   11.6348    5.9358    0.0000 C   0  0  0  0  0  0  0  0  0  0  0  0
   10.3843    5.3839    0.0000 C   0  0  0  0  0  0  0  0  0  0  0  0
    9.2608    4.6054    0.0000 C   0  0  0  0  0  0  0  0  0  0  0  0
   19.9487    6.0415    0.0000 C   0  0  0  0  0  0  0  0  0  0  0  0
   18.6722    6.9753    0.0000 C   0  0  0  0  0  0  0  0  0  0  0  0
   17.6757    8.0965    0.0000 O   0  0  0  0  0  0  0  0  0  0  0  0
   20.0246    7.6242    0.0000 N   0  0  0  0  0  0  0  0  0  0  0  0
   20.1388    9.1198    0.0000 C   0  0  0  0  0  0  0  0  0  0  0  0
   19.7347   10.5644    0.0000 C   0  0  0  0  0  0  0  0  0  0  0  0
   20.3296   11.9414    0.0000 O   0  0  0  0  0  0  0  0  0  0  0  0
   21.4912    9.7687    0.0000 C   0  0  0  0  0  0  0  0  0  0  0  0
   22.7294    8.9219    0.0000 O   0  0  0  0  0  0  0  0  0  0  0  0
   21.6055   11.2643    0.0000 N   0  0  0  0  0  0  0  0  0  0  0  0
   22.9579   11.9132    0.0000 C   0  0  0  0  0  0  0  0  0  0  0  0
   24.4507   12.0604    0.0000 C   0  0  0  0  0  0  0  0  0  0  0  0
   25.1694   10.7438    0.0000 C   0  0  0  0  0  0  0  0  0  0  0  0
   25.8031   12.7092    0.0000 C   0  0  0  0  0  0  0  0  0  0  0  0
   27.0412   11.8624    0.0000 C   0  0  0  0  0  0  0  0  0  0  0  0
   23.0722   13.4088    0.0000 C   0  0  0  0  0  0  0  0  0  0  0  0
   24.2274   14.3656    0.0000 O   0  0  0  0  0  0  0  0  0  0  0  0
   21.8341   14.2556    0.0000 O   0  0  0  0  0  0  0  0  0  0  0  0
  -28.6663   14.5028    0.0000 H   0  0  0  0  0  0  0  0  0  0  0  0
  -30.4189   12.5848    0.0000 H   0  0  0  0  0  0  0  0  0  0  0  0
  -27.0774   13.2922    0.0000 H   0  0  0  0  0  0  0  0  0  0  0  0
  -26.4950   11.4539    0.0000 H   0  0  0  0  0  0  0  0  0  0  0  0
  -29.5909   11.1332    0.0000 H   0  0  0  0  0  0  0  0  0  0  0  0
  -29.0085    9.2949    0.0000 H   0  0  0  0  0  0  0  0  0  0  0  0
  -28.8496    7.6313    0.0000 H   0  0  0  0  0  0  0  0  0  0  0  0
  -27.5011    6.1577    0.0000 H   0  0  0  0  0  0  0  0  0  0  0  0
  -25.0592    9.6119    0.0000 H   0  0  0  0  0  0  0  0  0  0  0  0
  -26.3880    8.9880    0.0000 H   0  0  0  0  0  0  0  0  0  0  0  0
  -22.6228    7.7032    0.0000 H   0  0  0  0  0  0  0  0  0  0  0  0
  -24.3321    6.8104    0.0000 H   0  0  0  0  0  0  0  0  0  0  0  0
  -27.2085    4.6073    0.0000 H   0  0  0  0  0  0  0  0  0  0  0  0
  -24.5388    4.0620    0.0000 H   0  0  0  0  0  0  0  0  0  0  0  0
  -28.3463    1.7794    0.0000 H   0  0  0  0  0  0  0  0  0  0  0  0
  -26.4631    1.3646    0.0000 H   0  0  0  0  0  0  0  0  0  0  0  0
  -23.0487    4.0816    0.0000 H   0  0  0  0  0  0  0  0  0  0  0  0
  -23.2718    0.6617    0.0000 H   0  0  0  0  0  0  0  0  0  0  0  0
  -20.1715    1.8308    0.0000 H   0  0  0  0  0  0  0  0  0  0  0  0
  -21.3421    5.5454    0.0000 H   0  0  0  0  0  0  0  0  0  0  0  0
  -23.0806    5.1841    0.0000 H   0  0  0  0  0  0  0  0  0  0  0  0
  -23.4110    3.7444    0.0000 H   0  0  0  0  0  0  0  0  0  0  0  0
  -18.6601    4.2105    0.0000 H   0  0  0  0  0  0  0  0  0  0  0  0
  -19.3956    2.4279    0.0000 H   0  0  0  0  0  0  0  0  0  0  0  0
  -19.0991    6.1591    0.0000 H   0  0  0  0  0  0  0  0  0  0  0  0
  -20.9823    6.5739    0.0000 H   0  0  0  0  0  0  0  0  0  0  0  0
  -21.7850    5.1508    0.0000 H   0  0  0  0  0  0  0  0  0  0  0  0
  -23.6726   -0.7737    0.0000 H   0  0  0  0  0  0  0  0  0  0  0  0
  -20.3096   -1.4341    0.0000 H   0  0  0  0  0  0  0  0  0  0  0  0
  -22.2338   -4.1314    0.0000 H   0  0  0  0  0  0  0  0  0  0  0  0
  -25.5247   -2.0483    0.0000 H   0  0  0  0  0  0  0  0  0  0  0  0
  -24.7301   -0.4604    0.0000 H   0  0  0  0  0  0  0  0  0  0  0  0
  -23.2537   -0.5099    0.0000 H   0  0  0  0  0  0  0  0  0  0  0  0
  -24.9213   -4.9828    0.0000 H   0  0  0  0  0  0  0  0  0  0  0  0
  -23.0098   -4.7285    0.0000 H   0  0  0  0  0  0  0  0  0  0  0  0
  -26.6924   -4.0593    0.0000 H   0  0  0  0  0  0  0  0  0  0  0  0
  -26.6110   -2.1327    0.0000 H   0  0  0  0  0  0  0  0  0  0  0  0
  -25.0297   -1.7214    0.0000 H   0  0  0  0  0  0  0  0  0  0  0  0
  -18.6384   -1.4428    0.0000 H   0  0  0  0  0  0  0  0  0  0  0  0
  -17.0496   -2.6533    0.0000 H   0  0  0  0  0  0  0  0  0  0  0  0
  -20.4725   -5.2873    0.0000 H   0  0  0  0  0  0  0  0  0  0  0  0
  -20.0381   -3.7123    0.0000 H   0  0  0  0  0  0  0  0  0  0  0  0
  -18.1502   -7.6508    0.0000 H   0  0  0  0  0  0  0  0  0  0  0  0
  -17.4147   -5.8682    0.0000 H   0  0  0  0  0  0  0  0  0  0  0  0
  -21.4634   -7.6890    0.0000 H   0  0  0  0  0  0  0  0  0  0  0  0
  -20.8848   -6.0010    0.0000 H   0  0  0  0  0  0  0  0  0  0  0  0
  -18.4490   -9.2950    0.0000 H   0  0  0  0  0  0  0  0  0  0  0  0
  -22.0153  -12.0393    0.0000 H   0  0  0  0  0  0  0  0  0  0  0  0
  -19.4400  -11.6967    0.0000 H   0  0  0  0  0  0  0  0  0  0  0  0
  -23.5998   -9.9803    0.0000 H   0  0  0  0  0  0  0  0  0  0  0  0
  -22.6089   -7.5786    0.0000 H   0  0  0  0  0  0  0  0  0  0  0  0
  -15.4762   -2.0900    0.0000 H   0  0  0  0  0  0  0  0  0  0  0  0
  -13.5691   -2.6841    0.0000 H   0  0  0  0  0  0  0  0  0  0  0  0
  -15.7644   -6.4680    0.0000 H   0  0  0  0  0  0  0  0  0  0  0  0
  -16.0152   -4.7013    0.0000 H   0  0  0  0  0  0  0  0  0  0  0  0
  -14.1113   -9.3405    0.0000 H   0  0  0  0  0  0  0  0  0  0  0  0
  -16.3044   -7.9476    0.0000 H   0  0  0  0  0  0  0  0  0  0  0  0
  -12.4403   -1.7112    0.0000 H   0  0  0  0  0  0  0  0  0  0  0  0
  -10.4129   -4.4744    0.0000 H   0  0  0  0  0  0  0  0  0  0  0  0
   -8.8083   -1.7682    0.0000 H   0  0  0  0  0  0  0  0  0  0  0  0
  -12.0739    0.5071    0.0000 H   0  0  0  0  0  0  0  0  0  0  0  0
  -13.1734   -0.8871    0.0000 H   0  0  0  0  0  0  0  0  0  0  0  0
  -12.5010   -2.2024    0.0000 H   0  0  0  0  0  0  0  0  0  0  0  0
   -9.1612    1.2085    0.0000 H   0  0  0  0  0  0  0  0  0  0  0  0
   -8.6589   -0.7946    0.0000 H   0  0  0  0  0  0  0  0  0  0  0  0
  -10.7501    2.4190    0.0000 H   0  0  0  0  0  0  0  0  0  0  0  0
  -12.4594    1.5262    0.0000 H   0  0  0  0  0  0  0  0  0  0  0  0
  -12.1594   -0.0798    0.0000 H   0  0  0  0  0  0  0  0  0  0  0  0
   -9.7972   -5.8316    0.0000 H   0  0  0  0  0  0  0  0  0  0  0  0
   -6.7965   -4.1758    0.0000 H   0  0  0  0  0  0  0  0  0  0  0  0
   -9.4186   -7.0266    0.0000 H   0  0  0  0  0  0  0  0  0  0  0  0
   -8.2460   -8.3717    0.0000 H   0  0  0  0  0  0  0  0  0  0  0  0
   -6.5368   -7.4790    0.0000 H   0  0  0  0  0  0  0  0  0  0  0  0
   -5.6677   -3.2028    0.0000 H   0  0  0  0  0  0  0  0  0  0  0  0
   -2.6228   -7.1459    0.0000 H   0  0  0  0  0  0  0  0  0  0  0  0
   -3.7670   -6.2220    0.0000 H   0  0  0  0  0  0  0  0  0  0  0  0
   -1.1127   -8.0022    0.0000 H   0  0  0  0  0  0  0  0  0  0  0  0
   -2.2957   -7.4436    0.0000 H   0  0  0  0  0  0  0  0  0  0  0  0
    0.9362   -8.2960    0.0000 H   0  0  0  0  0  0  0  0  0  0  0  0
   -0.5297   -8.1772    0.0000 H   0  0  0  0  0  0  0  0  0  0  0  0
    2.0437   -8.4036    0.0000 H   0  0  0  0  0  0  0  0  0  0  0  0
   -5.4064   -6.2461    0.0000 H   0  0  0  0  0  0  0  0  0  0  0  0
   -3.9740   -7.3212    0.0000 H   0  0  0  0  0  0  0  0  0  0  0  0
   -2.8487   -6.8093    0.0000 H   0  0  0  0  0  0  0  0  0  0  0  0
   -5.4964   -1.5135    0.0000 H   0  0  0  0  0  0  0  0  0  0  0  0
   -4.5620    1.0619    0.0000 H   0  0  0  0  0  0  0  0  0  0  0  0
   -6.4190   -1.2496    0.0000 H   0  0  0  0  0  0  0  0  0  0  0  0
   -4.9399   -1.9436    0.0000 H   0  0  0  0  0  0  0  0  0  0  0  0
   -8.0551   -0.9348    0.0000 H   0  0  0  0  0  0  0  0  0  0  0  0
   -9.7116    2.1932    0.0000 H   0  0  0  0  0  0  0  0  0  0  0  0
   -7.2813    4.3711    0.0000 H   0  0  0  0  0  0  0  0  0  0  0  0
   -2.6996    3.4169    0.0000 H   0  0  0  0  0  0  0  0  0  0  0  0
    0.0699    4.2331    0.0000 H   0  0  0  0  0  0  0  0  0  0  0  0
   -3.1192    4.1268    0.0000 H   0  0  0  0  0  0  0  0  0  0  0  0
   -2.6890    2.7137    0.0000 H   0  0  0  0  0  0  0  0  0  0  0  0
    0.0582    4.9534    0.0000 H   0  0  0  0  0  0  0  0  0  0  0  0
   -2.4952    7.7336    0.0000 H   0  0  0  0  0  0  0  0  0  0  0  0
   -3.9757    6.7374    0.0000 H   0  0  0  0  0  0  0  0  0  0  0  0
   -3.4559    5.0303    0.0000 H   0  0  0  0  0  0  0  0  0  0  0  0
   -1.2624    7.9606    0.0000 H   0  0  0  0  0  0  0  0  0  0  0  0
    0.4759    7.5573    0.0000 H   0  0  0  0  0  0  0  0  0  0  0  0
    0.4905    5.6290    0.0000 H   0  0  0  0  0  0  0  0  0  0  0  0
    2.7205    4.3462    0.0000 H   0  0  0  0  0  0  0  0  0  0  0  0
    5.1192    2.9838    0.0000 H   0  0  0  0  0  0  0  0  0  0  0  0
    2.6679    4.6503    0.0000 H   0  0  0  0  0  0  0  0  0  0  0  0
    4.3873    5.1274    0.0000 H   0  0  0  0  0  0  0  0  0  0  0  0
    5.3463    3.6225    0.0000 H   0  0  0  0  0  0  0  0  0  0  0  0
    7.0833    0.4806    0.0000 H   0  0  0  0  0  0  0  0  0  0  0  0
    7.3410   -2.5107    0.0000 H   0  0  0  0  0  0  0  0  0  0  0  0
    6.8531   -4.2209    0.0000 H   0  0  0  0  0  0  0  0  0  0  0  0
    6.8269   -4.8912    0.0000 H   0  0  0  0  0  0  0  0  0  0  0  0
    5.7501   -5.8930    0.0000 H   0  0  0  0  0  0  0  0  0  0  0  0
    5.7026   -6.4719    0.0000 H   0  0  0  0  0  0  0  0  0  0  0  0
    4.7434   -7.0899    0.0000 H   0  0  0  0  0  0  0  0  0  0  0  0
    3.8999   -7.8155    0.0000 H   0  0  0  0  0  0  0  0  0  0  0  0
    4.7029   -0.6868    0.0000 H   0  0  0  0  0  0  0  0  0  0  0  0
    4.9947    1.0229    0.0000 H   0  0  0  0  0  0  0  0  0  0  0  0
    4.8670    1.5954    0.0000 H   0  0  0  0  0  0  0  0  0  0  0  0
    5.6750    2.7667    0.0000 H   0  0  0  0  0  0  0  0  0  0  0  0
    5.4569    3.0819    0.0000 H   0  0  0  0  0  0  0  0  0  0  0  0
    6.1792    4.1132    0.0000 H   0  0  0  0  0  0  0  0  0  0  0  0
    6.5931    5.0102    0.0000 H   0  0  0  0  0  0  0  0  0  0  0  0
    5.8282   -5.5205    0.0000 H   0  0  0  0  0  0  0  0  0  0  0  0
    6.1718   -6.0140    0.0000 H   0  0  0  0  0  0  0  0  0  0  0  0
    6.1257   -8.2254    0.0000 H   0  0  0  0  0  0  0  0  0  0  0  0
    5.6260   -6.8353    0.0000 H   0  0  0  0  0  0  0  0  0  0  0  0
    7.5229   -9.6530    0.0000 H   0  0  0  0  0  0  0  0  0  0  0  0
    9.1409   -9.3450    0.0000 H   0  0  0  0  0  0  0  0  0  0  0  0
    9.3001   -7.4232    0.0000 H   0  0  0  0  0  0  0  0  0  0  0  0
    9.2636   -9.0435    0.0000 H   0  0  0  0  0  0  0  0  0  0  0  0
   11.5354   -9.7781    0.0000 H   0  0  0  0  0  0  0  0  0  0  0  0
   10.1696   -9.3781    0.0000 H   0  0  0  0  0  0  0  0  0  0  0  0
   14.2262  -10.2727    0.0000 H   0  0  0  0  0  0  0  0  0  0  0  0
   15.1751   -9.9982    0.0000 H   0  0  0  0  0  0  0  0  0  0  0  0
   17.9850  -10.4460    0.0000 H   0  0  0  0  0  0  0  0  0  0  0  0
   17.8537   -8.6664    0.0000 H   0  0  0  0  0  0  0  0  0  0  0  0
   19.0912   -8.7012    0.0000 H   0  0  0  0  0  0  0  0  0  0  0  0
   19.8977   -7.8623    0.0000 H   0  0  0  0  0  0  0  0  0  0  0  0
   22.5037   -6.7199    0.0000 H   0  0  0  0  0  0  0  0  0  0  0  0
   21.4311   -5.2938    0.0000 H   0  0  0  0  0  0  0  0  0  0  0  0
   19.0697   -9.5361    0.0000 H   0  0  0  0  0  0  0  0  0  0  0  0
   20.9530  -12.0116    0.0000 H   0  0  0  0  0  0  0  0  0  0  0  0
   24.1385  -12.4022    0.0000 H   0  0  0  0  0  0  0  0  0  0  0  0
   26.7509  -10.9272    0.0000 H   0  0  0  0  0  0  0  0  0  0  0  0
   26.7797   -7.9274    0.0000 H   0  0  0  0  0  0  0  0  0  0  0  0
   24.1962   -6.4024    0.0000 H   0  0  0  0  0  0  0  0  0  0  0  0
   22.4910   -4.6540    0.0000 H   0  0  0  0  0  0  0  0  0  0  0  0
   22.5820   -3.6373    0.0000 H   0  0  0  0  0  0  0  0  0  0  0  0
   24.1812   -0.9954    0.0000 H   0  0  0  0  0  0  0  0  0  0  0  0
   22.6173   -0.5225    0.0000 H   0  0  0  0  0  0  0  0  0  0  0  0
   24.7774   -4.3027    0.0000 H   0  0  0  0  0  0  0  0  0  0  0  0
   23.3092   -4.1401    0.0000 H   0  0  0  0  0  0  0  0  0  0  0  0
   26.7412   -1.4387    0.0000 H   0  0  0  0  0  0  0  0  0  0  0  0
   25.0048   -1.0274    0.0000 H   0  0  0  0  0  0  0  0  0  0  0  0
   28.1551   -2.8497    0.0000 H   0  0  0  0  0  0  0  0  0  0  0  0
   27.5011   -4.6638    0.0000 H   0  0  0  0  0  0  0  0  0  0  0  0
   25.7275   -4.4672    0.0000 H   0  0  0  0  0  0  0  0  0  0  0  0
   23.1417    0.7707    0.0000 H   0  0  0  0  0  0  0  0  0  0  0  0
   22.7349    1.6709    0.0000 H   0  0  0  0  0  0  0  0  0  0  0  0
   22.7784    4.5159    0.0000 H   0  0  0  0  0  0  0  0  0  0  0  0
   21.0356    4.1327    0.0000 H   0  0  0  0  0  0  0  0  0  0  0  0
   20.8939    5.3626    0.0000 H   0  0  0  0  0  0  0  0  0  0  0  0
   17.0977    7.7365    0.0000 H   0  0  0  0  0  0  0  0  0  0  0  0
   18.2933    7.3416    0.0000 H   0  0  0  0  0  0  0  0  0  0  0  0
   15.5854    8.2301    0.0000 H   0  0  0  0  0  0  0  0  0  0  0  0
   16.6564    8.0244    0.0000 H   0  0  0  0  0  0  0  0  0  0  0  0
   13.8293    8.3844    0.0000 H   0  0  0  0  0  0  0  0  0  0  0  0
   15.0862    8.3084    0.0000 H   0  0  0  0  0  0  0  0  0  0  0  0
   12.0757    8.2035    0.0000 H   0  0  0  0  0  0  0  0  0  0  0  0
   13.3242    8.3668    0.0000 H   0  0  0  0  0  0  0  0  0  0  0  0
   10.3880    7.6941    0.0000 H   0  0  0  0  0  0  0  0  0  0  0  0
   11.5831    8.0907    0.0000 H   0  0  0  0  0  0  0  0  0  0  0  0
    8.7290    6.7198    0.0000 H   0  0  0  0  0  0  0  0  0  0  0  0
    9.9256    7.4901    0.0000 H   0  0  0  0  0  0  0  0  0  0  0  0
    7.8414    6.2863    0.0000 H   0  0  0  0  0  0  0  0  0  0  0  0
   20.5108    7.4322    0.0000 H   0  0  0  0  0  0  0  0  0  0  0  0
   21.4478    6.0937    0.0000 H   0  0  0  0  0  0  0  0  0  0  0  0
   20.6062    4.6932    0.0000 H   0  0  0  0  0  0  0  0  0  0  0  0
   21.3567    6.9346    0.0000 H   0  0  0  0  0  0  0  0  0  0  0  0
   18.6461    8.9727    0.0000 H   0  0  0  0  0  0  0  0  0  0  0  0
   18.8608   11.7835    0.0000 H   0  0  0  0  0  0  0  0  0  0  0  0
   18.3823    9.9155    0.0000 H   0  0  0  0  0  0  0  0  0  0  0  0
   20.3794   13.0812    0.0000 H   0  0  0  0  0  0  0  0  0  0  0  0
   20.4798   12.2557    0.0000 H   0  0  0  0  0  0  0  0  0  0  0  0
   23.1830   10.4302    0.0000 H   0  0  0  0  0  0  0  0  0  0  0  0
   24.2256   13.5434    0.0000 H   0  0  0  0  0  0  0  0  0  0  0  0
   26.8348   10.7857    0.0000 H   0  0  0  0  0  0  0  0  0  0  0  0
   25.7287    9.3967    0.0000 H   0  0  0  0  0  0  0  0  0  0  0  0
   24.0613   10.0323    0.0000 H   0  0  0  0  0  0  0  0  0  0  0  0
   26.8520   13.7815    0.0000 H   0  0  0  0  0  0  0  0  0  0  0  0
   25.0844   14.0258    0.0000 H   0  0  0  0  0  0  0  0  0  0  0  0
   28.3936   12.5113    0.0000 H   0  0  0  0  0  0  0  0  0  0  0  0
   27.9150   10.6432    0.0000 H   0  0  0  0  0  0  0  0  0  0  0  0
   26.2829   10.5682    0.0000 H   0  0  0  0  0  0  0  0  0  0  0  0
  1  2  1  0
  2  3  1  0
  3  4  1  0
  4  5  2  0
  4  6  1  0
  6  7  1  0
  7  8  1  0
  8  9  1  0
  9 10  1  0
 10 11  2  0
 10 12  1  0
  7 13  1  0
 13 14  2  0
 13 15  1  0
 15 16  1  0
 16 17  1  0
 17 18  1  0
 18 19  2  0
 18 20  1  0
 16 21  1  0
 21 22  2  0
 21 23  1  0
 23 24  1  0
 24 25  1  0
 25 26  1  0
 25 27  1  0
 27 28  1  0
 24 29  1  0
 29 30  2  0
 29 31  1  0
 31 32  1  0
 32 33  1  0
 33 34  1  0
 33 35  1  0
 35 36  1  0
 32 37  1  0
 37 38  2  0
 37 39  1  0
 39 40  1  0
 40 41  1  0
 41 42  1  0
 42 43  1  0
 43 44  1  0
 44 45  1  0
 45 46  2  3
 45 47  1  0
 40 48  1  0
 48 49  2  0
 48 50  1  0
 50 51  1  0
 51 52  1  0
 52 53  1  0
 53 54  1  0
 53 55  2  0
 51 56  1  0
 56 57  2  0
 56 58  1  0
 58 59  1  0
 59 60  1  0
 60 61  1  0
 60 62  1  0
 62 63  1  0
 59 64  1  0
 64 65  2  0
 64 66  1  0
 66 67  1  0
 67 68  1  0
 67 69  1  0
 69 70  2  0
 69 71  1  0
 72 71  1  6
 72 73  1  0
 73 74  1  0
 74 75  1  0
 75 76  1  0
 72 77  1  0
 72 78  1  0
 78 79  2  0
 78 80  1  0
 80 81  1  0
 81 82  1  0
 82 83  1  0
 83 84  2  0
 84 85  1  0
 85 86  1  0
 86 87  2  0
 81 88  1  0
 88 89  2  0
 88 90  1  0
 90 91  1  0
 91 92  1  0
 92 93  1  0
 93 94  1  0
 93 95  1  0
 91 96  1  0
 96 97  2  0
 96 98  1  0
 98 99  1  0
 99100  1  0
 99101  1  0
101102  2  0
101103  1  0
103104  1  0
104105  1  0
105106  1  0
106107  1  0
107108  1  0
104109  1  0
109110  1  0
110111  1  0
111112  1  0
104113  1  0
113114  2  0
113115  1  0
115116  1  0
116117  1  0
117118  1  0
116119  1  0
119120  2  0
119121  1  0
121122  1  0
122123  1  0
123124  2  0
123125  1  0
125126  1  0
126127  1  0
127128  1  0
128129  2  0
128130  1  0
126131  1  0
131132  2  0
131133  1  0
133134  1  0
134135  1  0
135136  1  0
136137  2  0
137138  1  0
138139  1  0
139140  2  0
140141  1  0
141142  2  0
142143  1  0
143144  2  0
134145  1  0
145146  2  0
145147  1  0
147148  1  0
148149  1  0
149150  1  0
150151  1  0
151152  1  0
148153  1  0
153154  2  0
153155  1  0
155156  1  0
156157  1  0
157158  1  0
158159  2  0
158160  1  0
156161  1  0
161162  2  0
161163  1  0
163164  1  0
164165  1  0
165166  1  0
166167  1  0
167168  1  0
168169  1  0
169170  1  0
170171  1  0
164172  1  0
164173  1  1
173174  2  0
173175  1  0
175176  1  0
176177  1  0
177178  1  0
176179  1  0
179180  2  0
179181  1  0
181182  1  0
182183  1  0
183184  1  0
183185  1  0
185186  1  0
182187  1  0
187188  2  0
187189  1  0
 87 83  1  0
144136  1  0
144139  1  0
 76108  2  0
112171  2  0
  1190  1  0
  1191  1  0
  2192  1  0
  2193  1  0
  3194  1  0
  3195  1  0
  6196  1  0
  7197  1  1
  8198  1  0
  8199  1  0
  9200  1  0
  9201  1  0
 15202  1  0
 16203  1  6
 17204  1  0
 17205  1  0
 23206  1  0
 24207  1  1
 25208  1  6
 26209  1  0
 26210  1  0
 26211  1  0
 27212  1  0
 27213  1  0
 28214  1  0
 28215  1  0
 28216  1  0
 31217  1  0
 32218  1  6
 33219  1  1
 34220  1  0
 34221  1  0
 34222  1  0
 35223  1  0
 35224  1  0
 36225  1  0
 36226  1  0
 36227  1  0
 39228  1  0
 40229  1  6
 41230  1  0
 41231  1  0
 42232  1  0
 42233  1  0
 43234  1  0
 43235  1  0
 44236  1  0
 46237  1  0
 46238  1  0
 47239  1  0
 47240  1  0
 50241  1  0
 51242  1  6
 52243  1  0
 52244  1  0
 54245  1  0
 54246  1  0
 58247  1  0
 59248  1  1
 60249  1  6
 61250  1  0
 61251  1  0
 61252  1  0
 62253  1  0
 62254  1  0
 63255  1  0
 63256  1  0
 63257  1  0
 66258  1  0
 67259  1  6
 68260  1  0
 68261  1  0
 68262  1  0
 71263  1  0
 73264  1  0
 73265  1  0
 74266  1  0
 74267  1  0
 75268  1  0
 75269  1  0
 76270  1  0
 77271  1  0
 77272  1  0
 77273  1  0
 80274  1  0
 81275  1  1
 82276  1  0
 82277  1  0
 84278  1  0
 85279  1  0
 86280  1  0
 90281  1  0
 91282  1  1
 92283  1  0
 92284  1  0
 93285  1  0
 94286  1  0
 94287  1  0
 94288  1  0
 95289  1  0
 95290  1  0
 95291  1  0
 98292  1  0
 99293  1  1
100294  1  0
100295  1  0
100296  1  0
103297  1  0
105298  1  0
105299  1  0
106300  1  0
106301  1  0
107302  1  0
107303  1  0
108304  1  0
109305  1  0
109306  1  0
110307  1  0
110308  1  0
111309  1  0
111310  1  0
112311  1  0
115312  1  0
116313  1  6
117314  1  0
117315  1  0
118316  1  0
118317  1  0
118318  1  0
121319  1  0
122320  1  0
122321  1  0
125322  1  0
126323  1  6
127324  1  0
127325  1  0
133326  1  0
134327  1  6
135328  1  0
135329  1  0
137330  1  0
138331  1  0
140332  1  0
141333  1  0
142334  1  0
143335  1  0
147336  1  0
148337  1  1
149338  1  0
149339  1  0
150340  1  0
150341  1  0
151342  1  0
151343  1  0
152344  1  0
152345  1  0
152346  1  0
155347  1  0
156348  1  6
157349  1  0
157350  1  0
163351  1  0
165352  1  0
165353  1  0
166354  1  0
166355  1  0
167356  1  0
167357  1  0
168358  1  0
168359  1  0
169360  1  0
169361  1  0
170362  1  0
170363  1  0
171364  1  0
172365  1  0
172366  1  0
172367  1  0
175368  1  0
176369  1  1
177370  1  0
177371  1  0
178372  1  0
181373  1  0
182374  1  6
183375  1  1
184376  1  0
184377  1  0
184378  1  0
185379  1  0
185380  1  0
186381  1  0
186382  1  0
186383  1  0
M  CHG  6  12  -1  20  -1  46   1 130  -1 160  -1 189  -1
M  END
