
     RDKit          2D

261263  0  0  0  0  0  0  0  0999 V2000
  -20.6766   -2.0640    0.0000 N   0  0  0  0  0  0  0  0  0  0  0  0
  -19.2877   -2.6304    0.0000 C   0  0  0  0  0  0  0  0  0  0  0  0
  -19.0836   -4.1164    0.0000 C   0  0  0  0  0  0  0  0  0  0  0  0
  -17.6947   -4.6828    0.0000 C   0  0  0  0  0  0  0  0  0  0  0  0
  -16.5097   -3.7630    0.0000 O   0  0  0  0  0  0  0  0  0  0  0  0
  -17.4906   -6.1688    0.0000 N   0  0  0  0  0  0  0  0  0  0  0  0
  -16.1016   -6.7351    0.0000 C   0  0  0  0  0  0  0  0  0  0  0  0
  -16.9006   -8.0047    0.0000 C   0  0  0  0  0  0  0  0  0  0  0  0
  -18.3995   -7.9476    0.0000 C   0  0  0  0  0  0  0  0  0  0  0  0
  -19.1984   -9.2171    0.0000 N   0  0  0  0  0  0  0  0  0  0  0  0
  -19.2560   -6.7161    0.0000 O   0  0  0  0  0  0  0  0  0  0  0  0
  -14.6027   -6.7923    0.0000 C   0  0  0  0  0  0  0  0  0  0  0  0
  -14.0697   -8.1944    0.0000 O   0  0  0  0  0  0  0  0  0  0  0  0
  -13.8038   -5.5227    0.0000 N   0  0  0  0  0  0  0  0  0  0  0  0
  -12.3049   -5.5798    0.0000 C   0  0  0  0  0  0  0  0  0  0  0  0
  -12.6214   -7.0461    0.0000 C   0  0  0  0  0  0  0  0  0  0  0  0
  -11.5099   -8.0533    0.0000 C   0  0  0  0  0  0  0  0  0  0  0  0
  -11.8264   -9.5195    0.0000 C   0  0  0  0  0  0  0  0  0  0  0  0
  -10.7149  -10.5268    0.0000 O   0  0  0  0  0  0  0  0  0  0  0  0
  -13.2545   -9.9785    0.0000 O   0  0  0  0  0  0  0  0  0  0  0  0
  -10.8768   -5.1209    0.0000 C   0  0  0  0  0  0  0  0  0  0  0  0
   -9.7653   -6.1281    0.0000 O   0  0  0  0  0  0  0  0  0  0  0  0
  -10.5603   -3.6546    0.0000 N   0  0  0  0  0  0  0  0  0  0  0  0
   -9.1323   -3.1957    0.0000 C   0  0  0  0  0  0  0  0  0  0  0  0
   -9.8322   -1.8690    0.0000 C   0  0  0  0  0  0  0  0  0  0  0  0
  -11.3312   -1.8119    0.0000 C   0  0  0  0  0  0  0  0  0  0  0  0
  -12.0311   -0.4852    0.0000 C   0  0  0  0  0  0  0  0  0  0  0  0
  -12.7592   -2.2709    0.0000 C   0  0  0  0  0  0  0  0  0  0  0  0
   -7.6333   -3.2528    0.0000 C   0  0  0  0  0  0  0  0  0  0  0  0
   -7.1003   -4.6549    0.0000 O   0  0  0  0  0  0  0  0  0  0  0  0
   -6.8344   -1.9832    0.0000 N   0  0  0  0  0  0  0  0  0  0  0  0
   -5.3355   -2.0404    0.0000 C   0  0  0  0  0  0  0  0  0  0  0  0
   -4.4732   -3.2677    0.0000 C   0  0  0  0  0  0  0  0  0  0  0  0
   -3.3942   -4.3097    0.0000 C   0  0  0  0  0  0  0  0  0  0  0  0
   -2.1375   -5.1287    0.0000 C   0  0  0  0  0  0  0  0  0  0  0  0
   -0.7485   -5.6950    0.0000 C   0  0  0  0  0  0  0  0  0  0  0  0
    0.7225   -5.9882    0.0000 C   0  0  0  0  0  0  0  0  0  0  0  0
    2.2225   -5.9978    0.0000 C   0  0  0  0  0  0  0  0  0  0  0  0
    3.6972   -5.7233    0.0000 C   0  0  0  0  0  0  0  0  0  0  0  0
   -6.2076   -3.2608    0.0000 C   0  0  0  0  0  0  0  0  0  0  0  0
   -5.9499   -0.6720    0.0000 C   0  0  0  0  0  0  0  0  0  0  0  0
   -7.4186   -0.9768    0.0000 O   0  0  0  0  0  0  0  0  0  0  0  0
   -6.2943    0.7880    0.0000 N   0  0  0  0  0  0  0  0  0  0  0  0
   -6.3562    2.2867    0.0000 C   0  0  0  0  0  0  0  0  0  0  0  0
   -7.6715    1.5657    0.0000 C   0  0  0  0  0  0  0  0  0  0  0  0
   -8.9536    2.3444    0.0000 C   0  0  0  0  0  0  0  0  0  0  0  0
   -8.9203    3.8440    0.0000 C   0  0  0  0  0  0  0  0  0  0  0  0
  -10.2023    4.6227    0.0000 N   0  0  0  0  0  0  0  0  0  0  0  0
  -10.1690    6.1224    0.0000 C   0  0  0  0  0  0  0  0  0  0  0  0
  -11.4510    6.9010    0.0000 N   0  0  0  0  0  0  0  0  0  0  0  0
   -8.8536    6.8433    0.0000 N   0  0  0  0  0  0  0  0  0  0  0  0
   -6.1333    3.7700    0.0000 C   0  0  0  0  0  0  0  0  0  0  0  0
   -7.6221    3.9528    0.0000 O   0  0  0  0  0  0  0  0  0  0  0  0
   -5.6337    5.1844    0.0000 N   0  0  0  0  0  0  0  0  0  0  0  0
   -4.8754    6.4786    0.0000 C   0  0  0  0  0  0  0  0  0  0  0  0
   -6.3718    6.5833    0.0000 C   0  0  0  0  0  0  0  0  0  0  0  0
   -7.0293    7.9315    0.0000 O   0  0  0  0  0  0  0  0  0  0  0  0
   -3.8859    7.6060    0.0000 C   0  0  0  0  0  0  0  0  0  0  0  0
   -4.9141    8.6981    0.0000 O   0  0  0  0  0  0  0  0  0  0  0  0
   -2.7010    8.5257    0.0000 N   0  0  0  0  0  0  0  0  0  0  0  0
   -1.3634    9.2046    0.0000 C   0  0  0  0  0  0  0  0  0  0  0  0
   -2.5656   10.1016    0.0000 C   0  0  0  0  0  0  0  0  0  0  0  0
   -2.3899   11.5913    0.0000 C   0  0  0  0  0  0  0  0  0  0  0  0
   -1.0119   12.1839    0.0000 C   0  0  0  0  0  0  0  0  0  0  0  0
   -0.8362   13.6736    0.0000 C   0  0  0  0  0  0  0  0  0  0  0  0
   -2.0384   14.5706    0.0000 C   0  0  0  0  0  0  0  0  0  0  0  0
   -3.4164   13.9780    0.0000 C   0  0  0  0  0  0  0  0  0  0  0  0
   -3.5921   12.4883    0.0000 C   0  0  0  0  0  0  0  0  0  0  0  0
    0.0785    9.6180    0.0000 C   0  0  0  0  0  0  0  0  0  0  0  0
   -0.0142   11.1151    0.0000 O   0  0  0  0  0  0  0  0  0  0  0  0
    1.5726    9.7511    0.0000 N   0  0  0  0  0  0  0  0  0  0  0  0
    3.0649    9.5990    0.0000 C   0  0  0  0  0  0  0  0  0  0  0  0
    2.5384   11.0036    0.0000 C   0  0  0  0  0  0  0  0  0  0  0  0
    3.4916   12.1618    0.0000 C   0  0  0  0  0  0  0  0  0  0  0  0
    4.9713   11.9154    0.0000 C   0  0  0  0  0  0  0  0  0  0  0  0
    5.9245   13.0736    0.0000 C   0  0  0  0  0  0  0  0  0  0  0  0
    5.3981   14.4782    0.0000 C   0  0  0  0  0  0  0  0  0  0  0  0
    3.9184   14.7246    0.0000 C   0  0  0  0  0  0  0  0  0  0  0  0
    2.9652   13.5664    0.0000 C   0  0  0  0  0  0  0  0  0  0  0  0
    4.5014    9.1673    0.0000 C   0  0  0  0  0  0  0  0  0  0  0  0
    5.2328   10.4769    0.0000 O   0  0  0  0  0  0  0  0  0  0  0  0
    5.8302    8.4715    0.0000 N   0  0  0  0  0  0  0  0  0  0  0  0
    7.0034    7.5368    0.0000 C   0  0  0  0  0  0  0  0  0  0  0  0
    7.3199    9.0030    0.0000 C   0  0  0  0  0  0  0  0  0  0  0  0
    7.9785    6.3969    0.0000 C   0  0  0  0  0  0  0  0  0  0  0  0
    9.2058    7.2592    0.0000 O   0  0  0  0  0  0  0  0  0  0  0  0
    8.7202    5.0932    0.0000 N   0  0  0  0  0  0  0  0  0  0  0  0
    9.2018    3.6726    0.0000 C   0  0  0  0  0  0  0  0  0  0  0  0
   10.2608    4.7349    0.0000 C   0  0  0  0  0  0  0  0  0  0  0  0
   11.7103    4.3490    0.0000 C   0  0  0  0  0  0  0  0  0  0  0  0
   12.7692    5.4113    0.0000 C   0  0  0  0  0  0  0  0  0  0  0  0
   12.9403    3.4905    0.0000 C   0  0  0  0  0  0  0  0  0  0  0  0
    9.4058    2.1865    0.0000 C   0  0  0  0  0  0  0  0  0  0  0  0
   10.9009    2.0652    0.0000 O   0  0  0  0  0  0  0  0  0  0  0  0
    9.3249    0.6887    0.0000 N   0  0  0  0  0  0  0  0  0  0  0  0
    8.9620   -0.7667    0.0000 C   0  0  0  0  0  0  0  0  0  0  0  0
    8.3302   -2.1272    0.0000 C   0  0  0  0  0  0  0  0  0  0  0  0
    7.4524   -3.3435    0.0000 C   0  0  0  0  0  0  0  0  0  0  0  0
    6.3603   -4.3717    0.0000 C   0  0  0  0  0  0  0  0  0  0  0  0
    5.0932   -5.1746    0.0000 C   0  0  0  0  0  0  0  0  0  0  0  0
   10.0361   -1.8138    0.0000 C   0  0  0  0  0  0  0  0  0  0  0  0
   10.4272   -0.4456    0.0000 C   0  0  0  0  0  0  0  0  0  0  0  0
   11.0526    0.9179    0.0000 O   0  0  0  0  0  0  0  0  0  0  0  0
   11.4380   -1.5539    0.0000 N   0  0  0  0  0  0  0  0  0  0  0  0
   12.9032   -1.2328    0.0000 C   0  0  0  0  0  0  0  0  0  0  0  0
   14.1702   -0.4298    0.0000 C   0  0  0  0  0  0  0  0  0  0  0  0
   15.4991   -1.1256    0.0000 C   0  0  0  0  0  0  0  0  0  0  0  0
   16.7661   -0.3227    0.0000 O   0  0  0  0  0  0  0  0  0  0  0  0
   15.6288   -1.9122    0.0000 O   0  0  0  0  0  0  0  0  0  0  0  0
   13.9139   -2.3411    0.0000 C   0  0  0  0  0  0  0  0  0  0  0  0
   14.7076   -2.2666    0.0000 O   0  0  0  0  0  0  0  0  0  0  0  0
   13.4595   -3.7706    0.0000 N   0  0  0  0  0  0  0  0  0  0  0  0
   14.4702   -4.8789    0.0000 C   0  0  0  0  0  0  0  0  0  0  0  0
   15.7991   -5.5747    0.0000 C   0  0  0  0  0  0  0  0  0  0  0  0
   15.8609   -7.0734    0.0000 C   0  0  0  0  0  0  0  0  0  0  0  0
   17.1898   -7.7692    0.0000 C   0  0  0  0  0  0  0  0  0  0  0  0
   17.4338   -9.2492    0.0000 N   0  0  0  0  0  0  0  0  0  0  0  0
   18.4568   -6.9663    0.0000 O   0  0  0  0  0  0  0  0  0  0  0  0
   14.0157   -6.3084    0.0000 C   0  0  0  0  0  0  0  0  0  0  0  0
   12.5505   -6.6296    0.0000 O   0  0  0  0  0  0  0  0  0  0  0  0
   15.0265   -7.4167    0.0000 N   0  0  0  0  0  0  0  0  0  0  0  0
   14.5720   -8.8462    0.0000 C   0  0  0  0  0  0  0  0  0  0  0  0
   13.6560  -10.0341    0.0000 C   0  0  0  0  0  0  0  0  0  0  0  0
   14.2267  -11.4213    0.0000 C   0  0  0  0  0  0  0  0  0  0  0  0
   12.3890  -10.8370    0.0000 C   0  0  0  0  0  0  0  0  0  0  0  0
   11.0601  -10.1412    0.0000 C   0  0  0  0  0  0  0  0  0  0  0  0
   15.5827   -9.9546    0.0000 C   0  0  0  0  0  0  0  0  0  0  0  0
   15.3059  -11.4288    0.0000 O   0  0  0  0  0  0  0  0  0  0  0  0
   17.0762   -9.8144    0.0000 O   0  0  0  0  0  0  0  0  0  0  0  0
  -20.8807   -0.5780    0.0000 H   0  0  0  0  0  0  0  0  0  0  0  0
  -21.8616   -2.9838    0.0000 H   0  0  0  0  0  0  0  0  0  0  0  0
  -18.9711   -1.1641    0.0000 H   0  0  0  0  0  0  0  0  0  0  0  0
  -17.7888   -2.6875    0.0000 H   0  0  0  0  0  0  0  0  0  0  0  0
  -20.5825   -4.0593    0.0000 H   0  0  0  0  0  0  0  0  0  0  0  0
  -19.4002   -5.5826    0.0000 H   0  0  0  0  0  0  0  0  0  0  0  0
  -18.7788   -6.9372    0.0000 H   0  0  0  0  0  0  0  0  0  0  0  0
  -15.7851   -5.2689    0.0000 H   0  0  0  0  0  0  0  0  0  0  0  0
  -17.2171   -9.4709    0.0000 H   0  0  0  0  0  0  0  0  0  0  0  0
  -15.5116   -8.5710    0.0000 H   0  0  0  0  0  0  0  0  0  0  0  0
  -20.6973   -9.1600    0.0000 H   0  0  0  0  0  0  0  0  0  0  0  0
  -18.4984  -10.5438    0.0000 H   0  0  0  0  0  0  0  0  0  0  0  0
  -14.5038   -4.1961    0.0000 H   0  0  0  0  0  0  0  0  0  0  0  0
  -12.6885   -4.1297    0.0000 H   0  0  0  0  0  0  0  0  0  0  0  0
  -13.2596   -8.4035    0.0000 H   0  0  0  0  0  0  0  0  0  0  0  0
  -14.1062   -6.8327    0.0000 H   0  0  0  0  0  0  0  0  0  0  0  0
  -10.1209   -8.6196    0.0000 H   0  0  0  0  0  0  0  0  0  0  0  0
  -10.7110   -6.7838    0.0000 H   0  0  0  0  0  0  0  0  0  0  0  0
  -11.7863   -2.7904    0.0000 H   0  0  0  0  0  0  0  0  0  0  0  0
   -8.9282   -4.6817    0.0000 H   0  0  0  0  0  0  0  0  0  0  0  0
   -9.8536   -0.3692    0.0000 H   0  0  0  0  0  0  0  0  0  0  0  0
   -8.4042   -1.4100    0.0000 H   0  0  0  0  0  0  0  0  0  0  0  0
  -11.6733   -3.2723    0.0000 H   0  0  0  0  0  0  0  0  0  0  0  0
  -13.5119   -0.2458    0.0000 H   0  0  0  0  0  0  0  0  0  0  0  0
  -12.2352    1.0008    0.0000 H   0  0  0  0  0  0  0  0  0  0  0  0
  -10.6697    0.1444    0.0000 H   0  0  0  0  0  0  0  0  0  0  0  0
  -13.2521   -3.6876    0.0000 H   0  0  0  0  0  0  0  0  0  0  0  0
  -14.2581   -2.2137    0.0000 H   0  0  0  0  0  0  0  0  0  0  0  0
  -13.1429   -0.8208    0.0000 H   0  0  0  0  0  0  0  0  0  0  0  0
   -7.6909   -0.7518    0.0000 H   0  0  0  0  0  0  0  0  0  0  0  0
   -5.0985   -4.6312    0.0000 H   0  0  0  0  0  0  0  0  0  0  0  0
   -5.9170   -3.6743    0.0000 H   0  0  0  0  0  0  0  0  0  0  0  0
   -3.7502   -5.7669    0.0000 H   0  0  0  0  0  0  0  0  0  0  0  0
   -4.7350   -4.9822    0.0000 H   0  0  0  0  0  0  0  0  0  0  0  0
   -2.2113   -6.6269    0.0000 H   0  0  0  0  0  0  0  0  0  0  0  0
   -3.3268   -6.0428    0.0000 H   0  0  0  0  0  0  0  0  0  0  0  0
   -0.5375   -7.1801    0.0000 H   0  0  0  0  0  0  0  0  0  0  0  0
   -1.7433   -6.8177    0.0000 H   0  0  0  0  0  0  0  0  0  0  0  0
    1.2108   -7.4065    0.0000 H   0  0  0  0  0  0  0  0  0  0  0  0
   -0.0418   -7.2789    0.0000 H   0  0  0  0  0  0  0  0  0  0  0  0
    3.1233   -7.1972    0.0000 H   0  0  0  0  0  0  0  0  0  0  0  0
    1.7162   -7.4098    0.0000 H   0  0  0  0  0  0  0  0  0  0  0  0
    4.1106   -7.1652    0.0000 H   0  0  0  0  0  0  0  0  0  0  0  0
   -7.4791   -3.7173    0.0000 H   0  0  0  0  0  0  0  0  0  0  0  0
   -6.0820   -4.8378    0.0000 H   0  0  0  0  0  0  0  0  0  0  0  0
   -4.8160   -4.1997    0.0000 H   0  0  0  0  0  0  0  0  0  0  0  0
   -7.7444    0.4043    0.0000 H   0  0  0  0  0  0  0  0  0  0  0  0
   -7.4724    3.2886    0.0000 H   0  0  0  0  0  0  0  0  0  0  0  0
   -8.7911    0.5674    0.0000 H   0  0  0  0  0  0  0  0  0  0  0  0
   -7.0442    0.2032    0.0000 H   0  0  0  0  0  0  0  0  0  0  0  0
  -10.4247    2.6376    0.0000 H   0  0  0  0  0  0  0  0  0  0  0  0
   -9.4978    0.9466    0.0000 H   0  0  0  0  0  0  0  0  0  0  0  0
   -8.3760    5.2418    0.0000 H   0  0  0  0  0  0  0  0  0  0  0  0
   -7.4492    3.5508    0.0000 H   0  0  0  0  0  0  0  0  0  0  0  0
  -11.5177    3.9018    0.0000 H   0  0  0  0  0  0  0  0  0  0  0  0
  -11.4177    8.4007    0.0000 H   0  0  0  0  0  0  0  0  0  0  0  0
  -12.7664    6.1801    0.0000 H   0  0  0  0  0  0  0  0  0  0  0  0
   -9.0033    8.3358    0.0000 H   0  0  0  0  0  0  0  0  0  0  0  0
   -7.7981    5.7775    0.0000 H   0  0  0  0  0  0  0  0  0  0  0  0
   -7.1066    5.4682    0.0000 H   0  0  0  0  0  0  0  0  0  0  0  0
   -5.4461    7.8658    0.0000 H   0  0  0  0  0  0  0  0  0  0  0  0
   -7.8137    6.1698    0.0000 H   0  0  0  0  0  0  0  0  0  0  0  0
   -6.5806    5.0979    0.0000 H   0  0  0  0  0  0  0  0  0  0  0  0
   -8.5017    8.2177    0.0000 H   0  0  0  0  0  0  0  0  0  0  0  0
   -3.6524    9.6854    0.0000 H   0  0  0  0  0  0  0  0  0  0  0  0
   -1.0935   10.6801    0.0000 H   0  0  0  0  0  0  0  0  0  0  0  0
   -3.9388   10.7052    0.0000 H   0  0  0  0  0  0  0  0  0  0  0  0
   -3.5444    8.9649    0.0000 H   0  0  0  0  0  0  0  0  0  0  0  0
    0.2907   11.4401    0.0000 H   0  0  0  0  0  0  0  0  0  0  0  0
    0.5417   14.2662    0.0000 H   0  0  0  0  0  0  0  0  0  0  0  0
   -1.8627   16.0603    0.0000 H   0  0  0  0  0  0  0  0  0  0  0  0
   -4.6186   14.8750    0.0000 H   0  0  0  0  0  0  0  0  0  0  0  0
   -4.9701   11.8956    0.0000 H   0  0  0  0  0  0  0  0  0  0  0  0
    1.3992   11.2411    0.0000 H   0  0  0  0  0  0  0  0  0  0  0  0
    4.0896   10.6944    0.0000 H   0  0  0  0  0  0  0  0  0  0  0  0
    1.7096   12.2538    0.0000 H   0  0  0  0  0  0  0  0  0  0  0  0
    1.1005   10.5766    0.0000 H   0  0  0  0  0  0  0  0  0  0  0  0
    5.6650   10.5855    0.0000 H   0  0  0  0  0  0  0  0  0  0  0  0
    7.4041   12.8272    0.0000 H   0  0  0  0  0  0  0  0  0  0  0  0
    6.3513   15.6364    0.0000 H   0  0  0  0  0  0  0  0  0  0  0  0
    3.3920   16.1292    0.0000 H   0  0  0  0  0  0  0  0  0  0  0  0
    1.4856   13.8128    0.0000 H   0  0  0  0  0  0  0  0  0  0  0  0
    6.4899    9.8187    0.0000 H   0  0  0  0  0  0  0  0  0  0  0  0
    8.4577    7.9043    0.0000 H   0  0  0  0  0  0  0  0  0  0  0  0
    8.7480    9.4620    0.0000 H   0  0  0  0  0  0  0  0  0  0  0  0
    7.2986   10.5029    0.0000 H   0  0  0  0  0  0  0  0  0  0  0  0
    5.8794    9.4211    0.0000 H   0  0  0  0  0  0  0  0  0  0  0  0
   10.0035    5.8698    0.0000 H   0  0  0  0  0  0  0  0  0  0  0  0
   10.5551    3.0257    0.0000 H   0  0  0  0  0  0  0  0  0  0  0  0
   10.8925    6.0954    0.0000 H   0  0  0  0  0  0  0  0  0  0  0  0
    9.2749    5.8655    0.0000 H   0  0  0  0  0  0  0  0  0  0  0  0
   11.4265    2.8761    0.0000 H   0  0  0  0  0  0  0  0  0  0  0  0
   14.2550    5.2049    0.0000 H   0  0  0  0  0  0  0  0  0  0  0  0
   13.4010    6.7718    0.0000 H   0  0  0  0  0  0  0  0  0  0  0  0
   11.6530    6.4133    0.0000 H   0  0  0  0  0  0  0  0  0  0  0  0
   14.3662    3.9563    0.0000 H   0  0  0  0  0  0  0  0  0  0  0  0
   13.8026    2.2632    0.0000 H   0  0  0  0  0  0  0  0  0  0  0  0
   11.8814    2.4282    0.0000 H   0  0  0  0  0  0  0  0  0  0  0  0
   10.8244    0.6483    0.0000 H   0  0  0  0  0  0  0  0  0  0  0  0
    9.8232   -2.2722    0.0000 H   0  0  0  0  0  0  0  0  0  0  0  0
    9.0302   -3.4539    0.0000 H   0  0  0  0  0  0  0  0  0  0  0  0
    8.8284   -3.9406    0.0000 H   0  0  0  0  0  0  0  0  0  0  0  0
    8.0604   -4.7148    0.0000 H   0  0  0  0  0  0  0  0  0  0  0  0
    7.6924   -5.0612    0.0000 H   0  0  0  0  0  0  0  0  0  0  0  0
    6.5170   -5.8635    0.0000 H   0  0  0  0  0  0  0  0  0  0  0  0
    5.7721   -6.5122    0.0000 H   0  0  0  0  0  0  0  0  0  0  0  0
    9.7444   -3.4541    0.0000 H   0  0  0  0  0  0  0  0  0  0  0  0
   11.0640   -2.8486    0.0000 H   0  0  0  0  0  0  0  0  0  0  0  0
   11.1075   -1.0460    0.0000 H   0  0  0  0  0  0  0  0  0  0  0  0
   11.1611   -3.0281    0.0000 H   0  0  0  0  0  0  0  0  0  0  0  0
   12.3325    0.1544    0.0000 H   0  0  0  0  0  0  0  0  0  0  0  0
   15.0862    0.7580    0.0000 H   0  0  0  0  0  0  0  0  0  0  0  0
   13.1595    0.6785    0.0000 H   0  0  0  0  0  0  0  0  0  0  0  0
   11.9942   -4.0917    0.0000 H   0  0  0  0  0  0  0  0  0  0  0  0
   15.3862   -3.6911    0.0000 H   0  0  0  0  0  0  0  0  0  0  0  0
   17.2858   -5.7741    0.0000 H   0  0  0  0  0  0  0  0  0  0  0  0
   16.2535   -4.1452    0.0000 H   0  0  0  0  0  0  0  0  0  0  0  0
   15.4064   -8.5029    0.0000 H   0  0  0  0  0  0  0  0  0  0  0  0
   14.4547   -7.5955    0.0000 H   0  0  0  0  0  0  0  0  0  0  0  0
   18.5805   -9.9638    0.0000 H   0  0  0  0  0  0  0  0  0  0  0  0
   16.3754  -10.5358    0.0000 H   0  0  0  0  0  0  0  0  0  0  0  0
   16.5259   -7.4597    0.0000 H   0  0  0  0  0  0  0  0  0  0  0  0
   13.2431   -8.1504    0.0000 H   0  0  0  0  0  0  0  0  0  0  0  0
   12.7879   -8.8108    0.0000 H   0  0  0  0  0  0  0  0  0  0  0  0
   13.4624  -12.7119    0.0000 H   0  0  0  0  0  0  0  0  0  0  0  0
   15.2375  -12.5296    0.0000 H   0  0  0  0  0  0  0  0  0  0  0  0
   15.7224  -11.3073    0.0000 H   0  0  0  0  0  0  0  0  0  0  0  0
   11.4730  -12.0249    0.0000 H   0  0  0  0  0  0  0  0  0  0  0  0
   13.2571  -12.0603    0.0000 H   0  0  0  0  0  0  0  0  0  0  0  0
    9.7931  -10.9441    0.0000 H   0  0  0  0  0  0  0  0  0  0  0  0
   10.0494   -9.0329    0.0000 H   0  0  0  0  0  0  0  0  0  0  0  0
   11.8245   -8.8506    0.0000 H   0  0  0  0  0  0  0  0  0  0  0  0
  1  2  1  0
  2  3  1  0
  3  4  1  0
  4  5  2  0
  4  6  1  0
  6  7  1  0
  7  8  1  0
  8  9  1  0
  9 10  1  0
  9 11  2  0
  7 12  1  0
 12 13  2  0
 12 14  1  0
 14 15  1  0
 15 16  1  0
 16 17  1  0
 17 18  1  0
 18 19  2  0
 18 20  1  0
 15 21  1  0
 21 22  2  0
 21 23  1  0
 23 24  1  0
 24 25  1  0
 25 26  1  0
 26 27  1  0
 26 28  1  0
 24 29  1  0
 29 30  2  0
 29 31  1  0
 32 31  1  1
 32 33  1  0
 33 34  1  0
 34 35  1  0
 35 36  1  0
 36 37  1  0
 37 38  1  0
 38 39  1  0
 32 40  1  0
 32 41  1  0
 41 42  2  0
 41 43  1  0
 43 44  1  0
 44 45  1  0
 45 46  1  0
 46 47  1  0
 47 48  1  0
 48 49  1  0
 49 50  2  3
 49 51  1  0
 44 52  1  0
 52 53  2  0
 52 54  1  0
 54 55  1  0
 55 56  1  0
 56 57  1  0
 55 58  1  0
 58 59  2  0
 58 60  1  0
 60 61  1  0
 61 62  1  0
 62 63  1  0
 63 64  2  0
 64 65  1  0
 65 66  2  0
 66 67  1  0
 67 68  2  0
 61 69  1  0
 69 70  2  0
 69 71  1  0
 71 72  1  0
 72 73  1  0
 73 74  1  0
 74 75  2  0
 75 76  1  0
 76 77  2  0
 77 78  1  0
 78 79  2  0
 72 80  1  0
 80 81  2  0
 80 82  1  0
 82 83  1  0
 83 84  1  0
 83 85  1  0
 85 86  2  0
 85 87  1  0
 87 88  1  0
 88 89  1  0
 89 90  1  0
 90 91  1  0
 90 92  1  0
 88 93  1  0
 93 94  2  0
 93 95  1  0
 95 96  1  0
 96 97  1  0
 97 98  1  0
 98 99  1  0
 99100  1  0
 96101  1  0
 96102  1  6
102103  2  0
102104  1  0
104105  1  0
105106  1  0
106107  1  0
107108  2  0
107109  1  0
105110  1  0
110111  2  0
110112  1  0
112113  1  0
113114  1  0
114115  1  0
115116  1  0
116117  1  0
116118  2  0
113119  1  0
119120  2  0
119121  1  0
121122  1  0
122123  1  0
123124  1  0
123125  1  0
125126  1  0
122127  1  0
127128  2  0
127129  1  0
 68 63  1  0
 79 74  1  0
 39100  2  0
  1130  1  0
  1131  1  0
  2132  1  0
  2133  1  0
  3134  1  0
  3135  1  0
  6136  1  0
  7137  1  6
  8138  1  0
  8139  1  0
 10140  1  0
 10141  1  0
 14142  1  0
 15143  1  6
 16144  1  0
 16145  1  0
 17146  1  0
 17147  1  0
 23148  1  0
 24149  1  1
 25150  1  0
 25151  1  0
 26152  1  0
 27153  1  0
 27154  1  0
 27155  1  0
 28156  1  0
 28157  1  0
 28158  1  0
 31159  1  0
 33160  1  0
 33161  1  0
 34162  1  0
 34163  1  0
 35164  1  0
 35165  1  0
 36166  1  0
 36167  1  0
 37168  1  0
 37169  1  0
 38170  1  0
 38171  1  0
 39172  1  0
 40173  1  0
 40174  1  0
 40175  1  0
 43176  1  0
 44177  1  1
 45178  1  0
 45179  1  0
 46180  1  0
 46181  1  0
 47182  1  0
 47183  1  0
 48184  1  0
 50185  1  0
 50186  1  0
 51187  1  0
 51188  1  0
 54189  1  0
 55190  1  1
 56191  1  0
 56192  1  0
 57193  1  0
 60194  1  0
 61195  1  1
 62196  1  0
 62197  1  0
 64198  1  0
 65199  1  0
 66200  1  0
 67201  1  0
 68202  1  0
 71203  1  0
 72204  1  1
 73205  1  0
 73206  1  0
 75207  1  0
 76208  1  0
 77209  1  0
 78210  1  0
 79211  1  0
 82212  1  0
 83213  1  1
 84214  1  0
 84215  1  0
 84216  1  0
 87217  1  0
 88218  1  1
 89219  1  0
 89220  1  0
 90221  1  0
 91222  1  0
 91223  1  0
 91224  1  0
 92225  1  0
 92226  1  0
 92227  1  0
 95228  1  0
 97229  1  0
 97230  1  0
 98231  1  0
 98232  1  0
 99233  1  0
 99234  1  0
100235  1  0
101236  1  0
101237  1  0
101238  1  0
104239  1  0
105240  1  1
106241  1  0
106242  1  0
112243  1  0
113244  1  1
114245  1  0
114246  1  0
115247  1  0
115248  1  0
117249  1  0
117250  1  0
121251  1  0
122252  1  6
123253  1  6
124254  1  0
124255  1  0
124256  1  0
125257  1  0
125258  1  0
126259  1  0
126260  1  0
126261  1  0
M  CHG  4  20  -1  50   1 109  -1 129  -1
M  END
