
     RDKit          2D

351359  0  0  0  0  0  0  0  0999 V2000
  -28.8563   -0.1148    0.0000 C   0  0  0  0  0  0  0  0  0  0  0  0
  -30.1058   -0.9448    0.0000 N   0  0  0  0  0  0  0  0  0  0  0  0
  -31.4493   -0.2777    0.0000 C   0  0  0  0  0  0  0  0  0  0  0  0
  -31.5434    1.2193    0.0000 C   0  0  0  0  0  0  0  0  0  0  0  0
  -32.8869    1.8864    0.0000 C   0  0  0  0  0  0  0  0  0  0  0  0
  -34.1363    1.0563    0.0000 C   0  0  0  0  0  0  0  0  0  0  0  0
  -34.0423   -0.4407    0.0000 C   0  0  0  0  0  0  0  0  0  0  0  0
  -32.6987   -1.1077    0.0000 C   0  0  0  0  0  0  0  0  0  0  0  0
  -35.4370   -0.9928    0.0000 C   0  0  0  0  0  0  0  0  0  0  0  0
  -36.3930    0.1630    0.0000 O   0  0  0  0  0  0  0  0  0  0  0  0
  -35.5892    1.4295    0.0000 C   0  0  0  0  0  0  0  0  0  0  0  0
  -36.1413    2.8242    0.0000 O   0  0  0  0  0  0  0  0  0  0  0  0
  -36.8817   -1.3961    0.0000 C   0  0  0  0  0  0  0  0  0  0  0  0
  -37.2549   -2.8489    0.0000 C   0  0  0  0  0  0  0  0  0  0  0  0
  -38.6996   -3.2522    0.0000 C   0  0  0  0  0  0  0  0  0  0  0  0
  -39.7713   -2.2026    0.0000 C   0  0  0  0  0  0  0  0  0  0  0  0
  -39.3981   -0.7498    0.0000 C   0  0  0  0  0  0  0  0  0  0  0  0
  -37.9534   -0.3465    0.0000 C   0  0  0  0  0  0  0  0  0  0  0  0
  -41.2160   -2.6059    0.0000 O   0  0  0  0  0  0  0  0  0  0  0  0
  -36.1832   -3.8985    0.0000 O   0  0  0  0  0  0  0  0  0  0  0  0
  -34.7385   -3.4952    0.0000 C   0  0  0  0  0  0  0  0  0  0  0  0
  -34.3653   -2.0424    0.0000 C   0  0  0  0  0  0  0  0  0  0  0  0
  -33.0947   -2.3171    0.0000 C   0  0  0  0  0  0  0  0  0  0  0  0
  -32.5231   -2.8768    0.0000 C   0  0  0  0  0  0  0  0  0  0  0  0
  -32.7221   -3.6517    0.0000 C   0  0  0  0  0  0  0  0  0  0  0  0
  -33.4927   -3.8668    0.0000 C   0  0  0  0  0  0  0  0  0  0  0  0
  -31.1504   -5.1911    0.0000 O   0  0  0  0  0  0  0  0  0  0  0  0
  -28.9504    1.3823    0.0000 S   0  0  0  0  0  0  0  0  0  0  0  0
  -27.5128   -0.7818    0.0000 N   0  0  0  0  0  0  0  0  0  0  0  0
  -26.2634    0.0482    0.0000 C   0  0  0  0  0  0  0  0  0  0  0  0
  -24.9199   -0.6188    0.0000 C   0  0  0  0  0  0  0  0  0  0  0  0
  -23.6704    0.2112    0.0000 C   0  0  0  0  0  0  0  0  0  0  0  0
  -23.7645    1.7082    0.0000 O   0  0  0  0  0  0  0  0  0  0  0  0
  -22.3269   -0.4559    0.0000 N   0  0  0  0  0  0  0  0  0  0  0  0
  -21.0775    0.3741    0.0000 C   0  0  0  0  0  0  0  0  0  0  0  0
  -20.1873    1.5814    0.0000 C   0  0  0  0  0  0  0  0  0  0  0  0
  -18.6966    1.4141    0.0000 C   0  0  0  0  0  0  0  0  0  0  0  0
  -17.8064    2.6214    0.0000 C   0  0  0  0  0  0  0  0  0  0  0  0
  -16.5915    2.6341    0.0000 O   0  0  0  0  0  0  0  0  0  0  0  0
  -18.4068    3.9960    0.0000 O   0  0  0  0  0  0  0  0  0  0  0  0
  -19.7339   -0.2929    0.0000 C   0  0  0  0  0  0  0  0  0  0  0  0
  -19.6398   -1.7900    0.0000 O   0  0  0  0  0  0  0  0  0  0  0  0
  -18.4845    0.5371    0.0000 N   0  0  0  0  0  0  0  0  0  0  0  0
  -17.1410   -0.1300    0.0000 C   0  0  0  0  0  0  0  0  0  0  0  0
  -16.1066   -1.2163    0.0000 C   0  0  0  0  0  0  0  0  0  0  0  0
  -16.5302   -2.6552    0.0000 C   0  0  0  0  0  0  0  0  0  0  0  0
  -15.4959   -3.7415    0.0000 C   0  0  0  0  0  0  0  0  0  0  0  0
  -15.9195   -5.1805    0.0000 N   0  0  0  0  0  0  0  0  0  0  0  0
  -14.8851   -6.2668    0.0000 C   0  0  0  0  0  0  0  0  0  0  0  0
  -15.3087   -7.7058    0.0000 N   0  0  0  0  0  0  0  0  0  0  0  0
  -13.4272   -5.9142    0.0000 N   0  0  0  0  0  0  0  0  0  0  0  0
  -15.8915    0.7001    0.0000 C   0  0  0  0  0  0  0  0  0  0  0  0
  -15.8194    1.9129    0.0000 O   0  0  0  0  0  0  0  0  0  0  0  0
  -14.5480    0.0330    0.0000 N   0  0  0  0  0  0  0  0  0  0  0  0
  -13.2986    0.8630    0.0000 C   0  0  0  0  0  0  0  0  0  0  0  0
  -12.4084    2.0703    0.0000 C   0  0  0  0  0  0  0  0  0  0  0  0
  -10.9177    1.9030    0.0000 C   0  0  0  0  0  0  0  0  0  0  0  0
  -10.3173    0.5284    0.0000 C   0  0  0  0  0  0  0  0  0  0  0  0
   -8.8267    0.3611    0.0000 C   0  0  0  0  0  0  0  0  0  0  0  0
   -7.9364    1.5684    0.0000 C   0  0  0  0  0  0  0  0  0  0  0  0
   -8.5369    2.9430    0.0000 C   0  0  0  0  0  0  0  0  0  0  0  0
  -10.0275    3.1103    0.0000 C   0  0  0  0  0  0  0  0  0  0  0  0
  -11.9551    0.1960    0.0000 C   0  0  0  0  0  0  0  0  0  0  0  0
  -12.0442   -1.3014    0.0000 O   0  0  0  0  0  0  0  0  0  0  0  0
  -10.7056    1.0260    0.0000 N   0  0  0  0  0  0  0  0  0  0  0  0
   -9.3621    0.3589    0.0000 C   0  0  0  0  0  0  0  0  0  0  0  0
   -8.3277   -0.7274    0.0000 C   0  0  0  0  0  0  0  0  0  0  0  0
   -8.7513   -2.1663    0.0000 C   0  0  0  0  0  0  0  0  0  0  0  0
   -7.7170   -3.2527    0.0000 C   0  0  0  0  0  0  0  0  0  0  0  0
   -8.1406   -4.6916    0.0000 N   0  0  0  0  0  0  0  0  0  0  0  0
   -7.1062   -5.7779    0.0000 C   0  0  0  0  0  0  0  0  0  0  0  0
   -7.5298   -7.2169    0.0000 N   0  0  0  0  0  0  0  0  0  0  0  0
   -5.6483   -5.4253    0.0000 N   0  0  0  0  0  0  0  0  0  0  0  0
   -8.1127    1.1889    0.0000 C   0  0  0  0  0  0  0  0  0  0  0  0
   -7.8417    2.6643    0.0000 O   0  0  0  0  0  0  0  0  0  0  0  0
   -6.7691    0.5219    0.0000 N   0  0  0  0  0  0  0  0  0  0  0  0
   -5.5197    1.3519    0.0000 C   0  0  0  0  0  0  0  0  0  0  0  0
   -4.6295    2.5592    0.0000 C   0  0  0  0  0  0  0  0  0  0  0  0
   -3.1389    2.3919    0.0000 C   0  0  0  0  0  0  0  0  0  0  0  0
   -2.2486    3.5992    0.0000 C   0  0  0  0  0  0  0  0  0  0  0  0
   -0.7580    3.4319    0.0000 N   0  0  0  0  0  0  0  0  0  0  0  0
    0.1322    4.6392    0.0000 C   0  0  0  0  0  0  0  0  0  0  0  0
    1.6228    4.4719    0.0000 N   0  0  0  0  0  0  0  0  0  0  0  0
   -0.4682    6.0137    0.0000 N   0  0  0  0  0  0  0  0  0  0  0  0
   -4.1762    0.6849    0.0000 C   0  0  0  0  0  0  0  0  0  0  0  0
   -4.0821   -0.8122    0.0000 O   0  0  0  0  0  0  0  0  0  0  0  0
   -2.9267    1.5149    0.0000 N   0  0  0  0  0  0  0  0  0  0  0  0
   -1.5832    0.8478    0.0000 C   0  0  0  0  0  0  0  0  0  0  0  0
   -0.5489   -0.2385    0.0000 C   0  0  0  0  0  0  0  0  0  0  0  0
   -0.9725   -1.6774    0.0000 C   0  0  0  0  0  0  0  0  0  0  0  0
    0.0619   -2.7638    0.0000 C   0  0  0  0  0  0  0  0  0  0  0  0
   -0.3617   -4.2027    0.0000 N   0  0  0  0  0  0  0  0  0  0  0  0
    0.6726   -5.2890    0.0000 C   0  0  0  0  0  0  0  0  0  0  0  0
    0.2490   -6.7280    0.0000 N   0  0  0  0  0  0  0  0  0  0  0  0
    2.1306   -4.9364    0.0000 N   0  0  0  0  0  0  0  0  0  0  0  0
   -0.3338    1.6778    0.0000 C   0  0  0  0  0  0  0  0  0  0  0  0
   -0.0628    3.1532    0.0000 O   0  0  0  0  0  0  0  0  0  0  0  0
    1.0097    1.0108    0.0000 N   0  0  0  0  0  0  0  0  0  0  0  0
    2.2592    1.8408    0.0000 C   0  0  0  0  0  0  0  0  0  0  0  0
    3.1494    3.0481    0.0000 C   0  0  0  0  0  0  0  0  0  0  0  0
    4.6493    3.0637    0.0000 C   0  0  0  0  0  0  0  0  0  0  0  0
    3.5730    4.4870    0.0000 C   0  0  0  0  0  0  0  0  0  0  0  0
    4.9771    5.0147    0.0000 C   0  0  0  0  0  0  0  0  0  0  0  0
    3.6027    1.1738    0.0000 C   0  0  0  0  0  0  0  0  0  0  0  0
    3.5136   -0.3236    0.0000 O   0  0  0  0  0  0  0  0  0  0  0  0
    4.8521    2.0038    0.0000 N   0  0  0  0  0  0  0  0  0  0  0  0
    6.1957    1.3367    0.0000 C   0  0  0  0  0  0  0  0  0  0  0  0
    6.5845   -0.1120    0.0000 C   0  0  0  0  0  0  0  0  0  0  0  0
    7.3831   -1.3817    0.0000 C   0  0  0  0  0  0  0  0  0  0  0  0
    8.5205   -2.3597    0.0000 C   0  0  0  0  0  0  0  0  0  0  0  0
    9.8956   -2.9589    0.0000 C   0  0  0  0  0  0  0  0  0  0  0  0
    4.9279    0.5350    0.0000 C   0  0  0  0  0  0  0  0  0  0  0  0
    6.2511    2.8357    0.0000 C   0  0  0  0  0  0  0  0  0  0  0  0
    4.8220    3.2915    0.0000 O   0  0  0  0  0  0  0  0  0  0  0  0
    6.7459    4.2517    0.0000 N   0  0  0  0  0  0  0  0  0  0  0  0
    7.6361    5.4590    0.0000 C   0  0  0  0  0  0  0  0  0  0  0  0
    7.3200    6.9253    0.0000 C   0  0  0  0  0  0  0  0  0  0  0  0
    8.4317    7.9323    0.0000 C   0  0  0  0  0  0  0  0  0  0  0  0
    8.1156    9.3986    0.0000 C   0  0  0  0  0  0  0  0  0  0  0  0
    9.7415    8.6634    0.0000 C   0  0  0  0  0  0  0  0  0  0  0  0
    8.8426    6.3503    0.0000 C   0  0  0  0  0  0  0  0  0  0  0  0
    8.4828    7.8065    0.0000 O   0  0  0  0  0  0  0  0  0  0  0  0
   10.2582    6.8463    0.0000 N   0  0  0  0  0  0  0  0  0  0  0  0
   11.7572    6.9030    0.0000 C   0  0  0  0  0  0  0  0  0  0  0  0
   12.7064    8.0645    0.0000 C   0  0  0  0  0  0  0  0  0  0  0  0
   12.1753    9.4673    0.0000 S   0  0  0  0  0  0  0  0  0  0  0  0
   13.2062    6.5154    0.0000 C   0  0  0  0  0  0  0  0  0  0  0  0
   13.8055    7.8905    0.0000 O   0  0  0  0  0  0  0  0  0  0  0  0
   14.4767    5.7179    0.0000 N   0  0  0  0  0  0  0  0  0  0  0  0
   15.4556    4.5814    0.0000 C   0  0  0  0  0  0  0  0  0  0  0  0
   16.9555    4.5634    0.0000 C   0  0  0  0  0  0  0  0  0  0  0  0
   17.7210    5.8533    0.0000 C   0  0  0  0  0  0  0  0  0  0  0  0
   19.2209    5.8352    0.0000 C   0  0  0  0  0  0  0  0  0  0  0  0
   19.9865    7.1252    0.0000 N   0  0  0  0  0  0  0  0  0  0  0  0
   21.4864    7.1071    0.0000 C   0  0  0  0  0  0  0  0  0  0  0  0
   22.2520    8.3970    0.0000 N   0  0  0  0  0  0  0  0  0  0  0  0
   22.2207    5.7991    0.0000 N   0  0  0  0  0  0  0  0  0  0  0  0
   16.0560    3.2068    0.0000 C   0  0  0  0  0  0  0  0  0  0  0  0
   17.5047    3.5957    0.0000 O   0  0  0  0  0  0  0  0  0  0  0  0
   16.2246    1.7163    0.0000 N   0  0  0  0  0  0  0  0  0  0  0  0
   15.9464    0.2424    0.0000 C   0  0  0  0  0  0  0  0  0  0  0  0
   15.2460   -1.0841    0.0000 C   0  0  0  0  0  0  0  0  0  0  0  0
   14.1858   -2.1452    0.0000 C   0  0  0  0  0  0  0  0  0  0  0  0
   12.8600   -2.8467    0.0000 C   0  0  0  0  0  0  0  0  0  0  0  0
   11.3862   -3.1262    0.0000 C   0  0  0  0  0  0  0  0  0  0  0  0
   17.4043    0.5950    0.0000 C   0  0  0  0  0  0  0  0  0  0  0  0
   16.8674   -0.9416    0.0000 C   0  0  0  0  0  0  0  0  0  0  0  0
   16.6557   -2.4265    0.0000 O   0  0  0  0  0  0  0  0  0  0  0  0
   18.3533   -0.7359    0.0000 N   0  0  0  0  0  0  0  0  0  0  0  0
   19.2743   -1.9198    0.0000 C   0  0  0  0  0  0  0  0  0  0  0  0
   19.7349   -3.3473    0.0000 C   0  0  0  0  0  0  0  0  0  0  0  0
   18.7289   -4.4600    0.0000 C   0  0  0  0  0  0  0  0  0  0  0  0
   19.0378   -5.9278    0.0000 C   0  0  0  0  0  0  0  0  0  0  0  0
   17.7372   -6.6751    0.0000 N   0  0  0  0  0  0  0  0  0  0  0  0
   16.6245   -5.6691    0.0000 C   0  0  0  0  0  0  0  0  0  0  0  0
   17.2374   -4.3001    0.0000 N   0  0  0  0  0  0  0  0  0  0  0  0
   20.7601   -1.7141    0.0000 C   0  0  0  0  0  0  0  0  0  0  0  0
   21.3249   -0.3245    0.0000 O   0  0  0  0  0  0  0  0  0  0  0  0
   21.6812   -2.8980    0.0000 N   0  0  0  0  0  0  0  0  0  0  0  0
   23.1670   -2.6923    0.0000 C   0  0  0  0  0  0  0  0  0  0  0  0
   24.4929   -1.9908    0.0000 C   0  0  0  0  0  0  0  0  0  0  0  0
   25.7633   -2.7883    0.0000 C   0  0  0  0  0  0  0  0  0  0  0  0
   27.1553   -2.2293    0.0000 C   0  0  0  0  0  0  0  0  0  0  0  0
   28.1171   -3.3803    0.0000 N   0  0  0  0  0  0  0  0  0  0  0  0
   27.3196   -4.6507    0.0000 C   0  0  0  0  0  0  0  0  0  0  0  0
   25.8649   -4.2849    0.0000 N   0  0  0  0  0  0  0  0  0  0  0  0
   24.0881   -3.8762    0.0000 C   0  0  0  0  0  0  0  0  0  0  0  0
   23.5233   -5.2658    0.0000 O   0  0  0  0  0  0  0  0  0  0  0  0
   25.5739   -3.6705    0.0000 N   0  0  0  0  0  0  0  0  0  0  0  0
   26.4950   -4.8544    0.0000 C   0  0  0  0  0  0  0  0  0  0  0  0
   26.9555   -6.2820    0.0000 C   0  0  0  0  0  0  0  0  0  0  0  0
   25.9496   -7.3946    0.0000 O   0  0  0  0  0  0  0  0  0  0  0  0
   27.9808   -4.6487    0.0000 C   0  0  0  0  0  0  0  0  0  0  0  0
   28.8650   -3.4371    0.0000 O   0  0  0  0  0  0  0  0  0  0  0  0
   28.9018   -5.8326    0.0000 N   0  0  0  0  0  0  0  0  0  0  0  0
   30.3877   -5.6269    0.0000 C   0  0  0  0  0  0  0  0  0  0  0  0
   31.7135   -4.9255    0.0000 C   0  0  0  0  0  0  0  0  0  0  0  0
   32.7195   -3.8128    0.0000 O   0  0  0  0  0  0  0  0  0  0  0  0
   32.9840   -5.7230    0.0000 C   0  0  0  0  0  0  0  0  0  0  0  0
   31.3087   -6.8109    0.0000 C   0  0  0  0  0  0  0  0  0  0  0  0
   32.8086   -6.7878    0.0000 O   0  0  0  0  0  0  0  0  0  0  0  0
   30.7440   -8.2005    0.0000 O   0  0  0  0  0  0  0  0  0  0  0  0
  -29.8299   -2.4192    0.0000 H   0  0  0  0  0  0  0  0  0  0  0  0
  -30.2940    2.0493    0.0000 H   0  0  0  0  0  0  0  0  0  0  0  0
  -32.9810    3.3834    0.0000 H   0  0  0  0  0  0  0  0  0  0  0  0
  -32.2452   -2.5375    0.0000 H   0  0  0  0  0  0  0  0  0  0  0  0
  -39.0728   -4.7051    0.0000 H   0  0  0  0  0  0  0  0  0  0  0  0
  -40.4698    0.2998    0.0000 H   0  0  0  0  0  0  0  0  0  0  0  0
  -37.5802    1.1063    0.0000 H   0  0  0  0  0  0  0  0  0  0  0  0
  -42.2877   -1.5564    0.0000 H   0  0  0  0  0  0  0  0  0  0  0  0
  -32.5474   -0.1862    0.0000 H   0  0  0  0  0  0  0  0  0  0  0  0
  -30.3658   -2.4645    0.0000 H   0  0  0  0  0  0  0  0  0  0  0  0
  -34.0399   -5.9976    0.0000 H   0  0  0  0  0  0  0  0  0  0  0  0
  -31.5235   -6.6439    0.0000 H   0  0  0  0  0  0  0  0  0  0  0  0
  -27.4187   -2.2789    0.0000 H   0  0  0  0  0  0  0  0  0  0  0  0
  -25.3732    1.2555    0.0000 H   0  0  0  0  0  0  0  0  0  0  0  0
  -27.2977    1.1345    0.0000 H   0  0  0  0  0  0  0  0  0  0  0  0
  -23.8855   -1.7052    0.0000 H   0  0  0  0  0  0  0  0  0  0  0  0
  -25.8101   -1.8261    0.0000 H   0  0  0  0  0  0  0  0  0  0  0  0
  -22.2328   -1.9529    0.0000 H   0  0  0  0  0  0  0  0  0  0  0  0
  -22.1118    1.4604    0.0000 H   0  0  0  0  0  0  0  0  0  0  0  0
  -19.7636    3.0203    0.0000 H   0  0  0  0  0  0  0  0  0  0  0  0
  -21.5308    2.2484    0.0000 H   0  0  0  0  0  0  0  0  0  0  0  0
  -17.3531    0.7471    0.0000 H   0  0  0  0  0  0  0  0  0  0  0  0
  -18.3949   -0.0552    0.0000 H   0  0  0  0  0  0  0  0  0  0  0  0
  -17.5166    5.2033    0.0000 H   0  0  0  0  0  0  0  0  0  0  0  0
  -18.2135    2.0124    0.0000 H   0  0  0  0  0  0  0  0  0  0  0  0
  -18.1717   -1.2197    0.0000 H   0  0  0  0  0  0  0  0  0  0  0  0
  -14.7631   -1.8833    0.0000 H   0  0  0  0  0  0  0  0  0  0  0  0
  -14.9507   -0.2603    0.0000 H   0  0  0  0  0  0  0  0  0  0  0  0
  -17.4204   -3.8625    0.0000 H   0  0  0  0  0  0  0  0  0  0  0  0
  -17.9450   -2.1569    0.0000 H   0  0  0  0  0  0  0  0  0  0  0  0
  -14.1523   -4.4086    0.0000 H   0  0  0  0  0  0  0  0  0  0  0  0
  -14.4651   -2.6518    0.0000 H   0  0  0  0  0  0  0  0  0  0  0  0
  -17.3774   -5.5331    0.0000 H   0  0  0  0  0  0  0  0  0  0  0  0
  -14.2744   -8.7921    0.0000 H   0  0  0  0  0  0  0  0  0  0  0  0
  -12.3928   -7.0005    0.0000 H   0  0  0  0  0  0  0  0  0  0  0  0
  -13.0035   -4.4753    0.0000 H   0  0  0  0  0  0  0  0  0  0  0  0
  -14.2721   -1.4414    0.0000 H   0  0  0  0  0  0  0  0  0  0  0  0
  -14.3329    1.9493    0.0000 H   0  0  0  0  0  0  0  0  0  0  0  0
  -11.9848    3.5092    0.0000 H   0  0  0  0  0  0  0  0  0  0  0  0
  -13.7519    2.7373    0.0000 H   0  0  0  0  0  0  0  0  0  0  0  0
  -11.0537   -0.7784    0.0000 H   0  0  0  0  0  0  0  0  0  0  0  0
   -7.9115   -0.8273    0.0000 H   0  0  0  0  0  0  0  0  0  0  0  0
   -6.4458    1.4011    0.0000 H   0  0  0  0  0  0  0  0  0  0  0  0
   -7.6467    4.1503    0.0000 H   0  0  0  0  0  0  0  0  0  0  0  0
  -10.6280    4.4849    0.0000 H   0  0  0  0  0  0  0  0  0  0  0  0
  -10.4347    2.5013    0.0000 H   0  0  0  0  0  0  0  0  0  0  0  0
  -10.3928   -0.7308    0.0000 H   0  0  0  0  0  0  0  0  0  0  0  0
   -6.9842   -1.3944    0.0000 H   0  0  0  0  0  0  0  0  0  0  0  0
   -7.1719    0.2286    0.0000 H   0  0  0  0  0  0  0  0  0  0  0  0
   -9.6416   -3.3736    0.0000 H   0  0  0  0  0  0  0  0  0  0  0  0
  -10.1662   -1.6680    0.0000 H   0  0  0  0  0  0  0  0  0  0  0  0
   -6.3735   -3.9197    0.0000 H   0  0  0  0  0  0  0  0  0  0  0  0
   -6.6863   -2.1629    0.0000 H   0  0  0  0  0  0  0  0  0  0  0  0
   -9.5986   -5.0442    0.0000 H   0  0  0  0  0  0  0  0  0  0  0  0
   -6.4955   -8.3032    0.0000 H   0  0  0  0  0  0  0  0  0  0  0  0
   -4.6139   -6.5116    0.0000 H   0  0  0  0  0  0  0  0  0  0  0  0
   -5.2247   -3.9864    0.0000 H   0  0  0  0  0  0  0  0  0  0  0  0
   -6.4933   -0.9525    0.0000 H   0  0  0  0  0  0  0  0  0  0  0  0
   -6.5541    2.4382    0.0000 H   0  0  0  0  0  0  0  0  0  0  0  0
   -4.3844    4.0390    0.0000 H   0  0  0  0  0  0  0  0  0  0  0  0
   -5.9730    3.2262    0.0000 H   0  0  0  0  0  0  0  0  0  0  0  0
   -1.7953    1.7249    0.0000 H   0  0  0  0  0  0  0  0  0  0  0  0
   -2.8372    0.9225    0.0000 H   0  0  0  0  0  0  0  0  0  0  0  0
   -1.8250    5.0381    0.0000 H   0  0  0  0  0  0  0  0  0  0  0  0
   -3.5008    4.4250    0.0000 H   0  0  0  0  0  0  0  0  0  0  0  0
    0.1572    2.2434    0.0000 H   0  0  0  0  0  0  0  0  0  0  0  0
    2.5131    5.6791    0.0000 H   0  0  0  0  0  0  0  0  0  0  0  0
    0.4220    7.2210    0.0000 H   0  0  0  0  0  0  0  0  0  0  0  0
   -1.9589    6.1810    0.0000 H   0  0  0  0  0  0  0  0  0  0  0  0
   -2.6558    2.9902    0.0000 H   0  0  0  0  0  0  0  0  0  0  0  0
   -2.6139   -0.2419    0.0000 H   0  0  0  0  0  0  0  0  0  0  0  0
    0.7947   -0.9055    0.0000 H   0  0  0  0  0  0  0  0  0  0  0  0
    0.6070    0.7175    0.0000 H   0  0  0  0  0  0  0  0  0  0  0  0
   -1.8627   -2.8847    0.0000 H   0  0  0  0  0  0  0  0  0  0  0  0
   -2.3873   -1.1791    0.0000 H   0  0  0  0  0  0  0  0  0  0  0  0
    1.4054   -3.4308    0.0000 H   0  0  0  0  0  0  0  0  0  0  0  0
    1.0926   -1.6740    0.0000 H   0  0  0  0  0  0  0  0  0  0  0  0
   -1.8197   -4.5553    0.0000 H   0  0  0  0  0  0  0  0  0  0  0  0
    1.2834   -7.8143    0.0000 H   0  0  0  0  0  0  0  0  0  0  0  0
    3.1650   -6.0227    0.0000 H   0  0  0  0  0  0  0  0  0  0  0  0
    2.5542   -3.4975    0.0000 H   0  0  0  0  0  0  0  0  0  0  0  0
    1.2856   -0.4636    0.0000 H   0  0  0  0  0  0  0  0  0  0  0  0
    1.2248    2.9271    0.0000 H   0  0  0  0  0  0  0  0  0  0  0  0
    1.7346    3.5464    0.0000 H   0  0  0  0  0  0  0  0  0  0  0  0
    5.5526    4.0883    0.0000 H   0  0  0  0  0  0  0  0  0  0  0  0
    6.1496    2.5619    0.0000 H   0  0  0  0  0  0  0  0  0  0  0  0
    4.8265    1.3945    0.0000 H   0  0  0  0  0  0  0  0  0  0  0  0
    3.4789    5.9841    0.0000 H   0  0  0  0  0  0  0  0  0  0  0  0
    2.1139    4.8348    0.0000 H   0  0  0  0  0  0  0  0  0  0  0  0
    5.1346    6.3566    0.0000 H   0  0  0  0  0  0  0  0  0  0  0  0
    6.5178    5.0380    0.0000 H   0  0  0  0  0  0  0  0  0  0  0  0
    5.1250    3.3426    0.0000 H   0  0  0  0  0  0  0  0  0  0  0  0
    4.5763    3.4782    0.0000 H   0  0  0  0  0  0  0  0  0  0  0  0
    5.0857   -0.0529    0.0000 H   0  0  0  0  0  0  0  0  0  0  0  0
    5.7556   -1.3621    0.0000 H   0  0  0  0  0  0  0  0  0  0  0  0
    5.9912   -1.9409    0.0000 H   0  0  0  0  0  0  0  0  0  0  0  0
    6.7873   -2.7583    0.0000 H   0  0  0  0  0  0  0  0  0  0  0  0
    7.2488   -3.1551    0.0000 H   0  0  0  0  0  0  0  0  0  0  0  0
    8.5398   -3.8595    0.0000 H   0  0  0  0  0  0  0  0  0  0  0  0
    9.5080   -4.4080    0.0000 H   0  0  0  0  0  0  0  0  0  0  0  0
    4.8732   -1.1300    0.0000 H   0  0  0  0  0  0  0  0  0  0  0  0
    3.7078   -0.2643    0.0000 H   0  0  0  0  0  0  0  0  0  0  0  0
    3.9269    1.3926    0.0000 H   0  0  0  0  0  0  0  0  0  0  0  0
    5.6283    5.2522    0.0000 H   0  0  0  0  0  0  0  0  0  0  0  0
    6.1695    5.7739    0.0000 H   0  0  0  0  0  0  0  0  0  0  0  0
    6.3725    8.0883    0.0000 H   0  0  0  0  0  0  0  0  0  0  0  0
    5.8352    6.7123    0.0000 H   0  0  0  0  0  0  0  0  0  0  0  0
    9.5138    6.8935    0.0000 H   0  0  0  0  0  0  0  0  0  0  0  0
    9.0963   10.5335    0.0000 H   0  0  0  0  0  0  0  0  0  0  0  0
    7.3170   10.6683    0.0000 H   0  0  0  0  0  0  0  0  0  0  0  0
    6.6678    9.0062    0.0000 H   0  0  0  0  0  0  0  0  0  0  0  0
   10.2049    9.9483    0.0000 H   0  0  0  0  0  0  0  0  0  0  0  0
   11.3212    8.7482    0.0000 H   0  0  0  0  0  0  0  0  0  0  0  0
   10.4824    7.1520    0.0000 H   0  0  0  0  0  0  0  0  0  0  0  0
   10.1605    8.3431    0.0000 H   0  0  0  0  0  0  0  0  0  0  0  0
   11.2576    8.3174    0.0000 H   0  0  0  0  0  0  0  0  0  0  0  0
   13.9957    8.8311    0.0000 H   0  0  0  0  0  0  0  0  0  0  0  0
   13.9313    7.1986    0.0000 H   0  0  0  0  0  0  0  0  0  0  0  0
   13.1246   10.6287    0.0000 H   0  0  0  0  0  0  0  0  0  0  0  0
   15.4546    6.8553    0.0000 H   0  0  0  0  0  0  0  0  0  0  0  0
   15.9184    6.0082    0.0000 H   0  0  0  0  0  0  0  0  0  0  0  0
   18.2837    3.8663    0.0000 H   0  0  0  0  0  0  0  0  0  0  0  0
   17.0422    3.0659    0.0000 H   0  0  0  0  0  0  0  0  0  0  0  0
   17.9993    7.3273    0.0000 H   0  0  0  0  0  0  0  0  0  0  0  0
   16.3928    6.5503    0.0000 H   0  0  0  0  0  0  0  0  0  0  0  0
   20.6242    5.3053    0.0000 H   0  0  0  0  0  0  0  0  0  0  0  0
   19.1245    4.3383    0.0000 H   0  0  0  0  0  0  0  0  0  0  0  0
   19.2522    8.4331    0.0000 H   0  0  0  0  0  0  0  0  0  0  0  0
   23.7519    8.3790    0.0000 H   0  0  0  0  0  0  0  0  0  0  0  0
   23.7206    5.7811    0.0000 H   0  0  0  0  0  0  0  0  0  0  0  0
   21.4551    4.5092    0.0000 H   0  0  0  0  0  0  0  0  0  0  0  0
   17.7236    1.6609    0.0000 H   0  0  0  0  0  0  0  0  0  0  0  0
   15.7772   -2.4869    0.0000 H   0  0  0  0  0  0  0  0  0  0  0  0
   16.6762   -1.5364    0.0000 H   0  0  0  0  0  0  0  0  0  0  0  0
   14.4617   -3.6196    0.0000 H   0  0  0  0  0  0  0  0  0  0  0  0
   15.4192   -2.9990    0.0000 H   0  0  0  0  0  0  0  0  0  0  0  0
   12.5086   -4.3050    0.0000 H   0  0  0  0  0  0  0  0  0  0  0  0
   13.9237   -3.9043    0.0000 H   0  0  0  0  0  0  0  0  0  0  0  0
   11.4430   -4.6251    0.0000 H   0  0  0  0  0  0  0  0  0  0  0  0
   18.6708   -0.2088    0.0000 H   0  0  0  0  0  0  0  0  0  0  0  0
   18.5433    1.5711    0.0000 H   0  0  0  0  0  0  0  0  0  0  0  0
   17.1544    2.0740    0.0000 H   0  0  0  0  0  0  0  0  0  0  0  0
   19.0832    0.5746    0.0000 H   0  0  0  0  0  0  0  0  0  0  0  0
   17.9484   -2.6212    0.0000 H   0  0  0  0  0  0  0  0  0  0  0  0
   20.5048   -4.6347    0.0000 H   0  0  0  0  0  0  0  0  0  0  0  0
   21.1911   -2.9875    0.0000 H   0  0  0  0  0  0  0  0  0  0  0  0
   20.4068   -6.5407    0.0000 H   0  0  0  0  0  0  0  0  0  0  0  0
   17.5773   -8.1666    0.0000 H   0  0  0  0  0  0  0  0  0  0  0  0
   15.1567   -5.9780    0.0000 H   0  0  0  0  0  0  0  0  0  0  0  0
   21.2900   -4.3461    0.0000 H   0  0  0  0  0  0  0  0  0  0  0  0
   22.7064   -1.2648    0.0000 H   0  0  0  0  0  0  0  0  0  0  0  0
   25.4989   -0.8782    0.0000 H   0  0  0  0  0  0  0  0  0  0  0  0
   23.5718   -0.8069    0.0000 H   0  0  0  0  0  0  0  0  0  0  0  0
   27.5211   -0.7746    0.0000 H   0  0  0  0  0  0  0  0  0  0  0  0
   29.6136   -3.2788    0.0000 H   0  0  0  0  0  0  0  0  0  0  0  0
   28.0441   -5.9642    0.0000 H   0  0  0  0  0  0  0  0  0  0  0  0
   26.4581   -2.4588    0.0000 H   0  0  0  0  0  0  0  0  0  0  0  0
   25.1691   -5.5559    0.0000 H   0  0  0  0  0  0  0  0  0  0  0  0
   27.7254   -7.5693    0.0000 H   0  0  0  0  0  0  0  0  0  0  0  0
   28.4448   -6.1023    0.0000 H   0  0  0  0  0  0  0  0  0  0  0  0
   26.4101   -8.8221    0.0000 H   0  0  0  0  0  0  0  0  0  0  0  0
   28.5107   -7.2807    0.0000 H   0  0  0  0  0  0  0  0  0  0  0  0
   29.9271   -4.1994    0.0000 H   0  0  0  0  0  0  0  0  0  0  0  0
   30.7925   -3.7415    0.0000 H   0  0  0  0  0  0  0  0  0  0  0  0
   34.2136   -3.9466    0.0000 H   0  0  0  0  0  0  0  0  0  0  0  0
   34.3855   -5.1883    0.0000 H   0  0  0  0  0  0  0  0  0  0  0  0
   33.9050   -6.9069    0.0000 H   0  0  0  0  0  0  0  0  0  0  0  0
   32.4437   -7.1223    0.0000 H   0  0  0  0  0  0  0  0  0  0  0  0
   31.6650   -9.3844    0.0000 H   0  0  0  0  0  0  0  0  0  0  0  0
  1  2  1  0
  2  3  1  0
  3  4  2  0
  4  5  1  0
  5  6  2  0
  6  7  1  0
  7  8  2  0
  7  9  1  0
  9 10  1  0
 10 11  1  0
 11 12  2  0
  9 13  1  0
 13 14  1  0
 14 15  2  0
 15 16  1  0
 16 17  2  0
 17 18  1  0
 16 19  1  0
 14 20  1  0
 20 21  1  0
 21 22  2  0
 22 23  1  0
 23 24  2  0
 24 25  1  0
 25 26  2  0
 25 27  1  0
  1 28  2  0
  1 29  1  0
 29 30  1  0
 30 31  1  0
 31 32  1  0
 32 33  2  0
 32 34  1  0
 34 35  1  0
 35 36  1  0
 36 37  1  0
 37 38  1  0
 38 39  2  0
 38 40  1  0
 35 41  1  0
 41 42  2  0
 41 43  1  0
 43 44  1  0
 44 45  1  0
 45 46  1  0
 46 47  1  0
 47 48  1  0
 48 49  1  0
 49 50  2  3
 49 51  1  0
 44 52  1  0
 52 53  2  0
 52 54  1  0
 54 55  1  0
 55 56  1  0
 56 57  1  0
 57 58  2  0
 58 59  1  0
 59 60  2  0
 60 61  1  0
 61 62  2  0
 55 63  1  0
 63 64  2  0
 63 65  1  0
 65 66  1  0
 66 67  1  0
 67 68  1  0
 68 69  1  0
 69 70  1  0
 70 71  1  0
 71 72  2  3
 71 73  1  0
 66 74  1  0
 74 75  2  0
 74 76  1  0
 76 77  1  0
 77 78  1  0
 78 79  1  0
 79 80  1  0
 80 81  1  0
 81 82  1  0
 82 83  2  3
 82 84  1  0
 77 85  1  0
 85 86  2  0
 85 87  1  0
 87 88  1  0
 88 89  1  0
 89 90  1  0
 90 91  1  0
 91 92  1  0
 92 93  1  0
 93 94  2  3
 93 95  1  0
 88 96  1  0
 96 97  2  0
 96 98  1  0
 98 99  1  0
 99100  1  0
100101  1  0
100102  1  0
102103  1  0
 99104  1  0
104105  2  0
104106  1  0
107106  1  6
107108  1  0
108109  1  0
109110  1  0
110111  1  0
107112  1  0
107113  1  0
113114  2  0
113115  1  0
115116  1  0
116117  1  0
117118  1  0
118119  1  0
118120  1  0
116121  1  0
121122  2  0
121123  1  0
123124  1  0
124125  1  0
125126  1  0
124127  1  0
127128  2  0
127129  1  0
129130  1  0
130131  1  0
131132  1  0
132133  1  0
133134  1  0
134135  1  0
135136  2  3
135137  1  0
130138  1  0
138139  2  0
138140  1  0
140141  1  0
141142  1  0
142143  1  0
143144  1  0
144145  1  0
141146  1  0
141147  1  6
147148  2  0
147149  1  0
149150  1  0
150151  1  0
151152  1  0
152153  2  0
153154  1  0
154155  1  0
155156  2  0
150157  1  0
157158  2  0
157159  1  0
159160  1  0
160161  1  0
161162  1  0
162163  2  0
163164  1  0
164165  1  0
165166  2  0
160167  1  0
167168  2  0
167169  1  0
169170  1  0
170171  1  0
171172  1  0
170173  1  0
173174  2  0
173175  1  0
175176  1  0
176177  1  0
177178  1  0
177179  1  0
176180  1  0
180181  2  0
180182  1  0
  8  3  1  0
 62 57  1  0
156152  1  0
166162  1  0
 11  6  1  0
111145  2  0
 18 13  2  0
 22  9  1  0
 26 21  1  0
  2183  1  0
  4184  1  0
  5185  1  0
  8186  1  0
 15187  1  0
 17188  1  0
 18189  1  0
 19190  1  0
 23191  1  0
 24192  1  0
 26193  1  0
 27194  1  0
 29195  1  0
 30196  1  0
 30197  1  0
 31198  1  0
 31199  1  0
 34200  1  0
 35201  1  1
 36202  1  0
 36203  1  0
 37204  1  0
 37205  1  0
 40206  1  0
 43207  1  0
 44208  1  6
 45209  1  0
 45210  1  0
 46211  1  0
 46212  1  0
 47213  1  0
 47214  1  0
 48215  1  0
 50216  1  0
 51217  1  0
 51218  1  0
 54219  1  0
 55220  1  1
 56221  1  0
 56222  1  0
 58223  1  0
 59224  1  0
 60225  1  0
 61226  1  0
 62227  1  0
 65228  1  0
 66229  1  6
 67230  1  0
 67231  1  0
 68232  1  0
 68233  1  0
 69234  1  0
 69235  1  0
 70236  1  0
 72237  1  0
 73238  1  0
 73239  1  0
 76240  1  0
 77241  1  1
 78242  1  0
 78243  1  0
 79244  1  0
 79245  1  0
 80246  1  0
 80247  1  0
 81248  1  0
 83249  1  0
 84250  1  0
 84251  1  0
 87252  1  0
 88253  1  6
 89254  1  0
 89255  1  0
 90256  1  0
 90257  1  0
 91258  1  0
 91259  1  0
 92260  1  0
 94261  1  0
 95262  1  0
 95263  1  0
 98264  1  0
 99265  1  1
100266  1  1
101267  1  0
101268  1  0
101269  1  0
102270  1  0
102271  1  0
103272  1  0
103273  1  0
103274  1  0
106275  1  0
108276  1  0
108277  1  0
109278  1  0
109279  1  0
110280  1  0
110281  1  0
111282  1  0
112283  1  0
112284  1  0
112285  1  0
115286  1  0
116287  1  1
117288  1  0
117289  1  0
118290  1  0
119291  1  0
119292  1  0
119293  1  0
120294  1  0
120295  1  0
120296  1  0
123297  1  0
124298  1  1
125299  1  0
125300  1  0
126301  1  0
129302  1  0
130303  1  1
131304  1  0
131305  1  0
132306  1  0
132307  1  0
133308  1  0
133309  1  0
134310  1  0
136311  1  0
137312  1  0
137313  1  0
140314  1  0
142315  1  0
142316  1  0
143317  1  0
143318  1  0
144319  1  0
144320  1  0
145321  1  0
146322  1  0
146323  1  0
146324  1  0
149325  1  0
150326  1  6
151327  1  0
151328  1  0
153329  1  0
154330  1  0
155331  1  0
159332  1  0
160333  1  1
161334  1  0
161335  1  0
163336  1  0
164337  1  0
165338  1  0
169339  1  0
170340  1  6
171341  1  0
171342  1  0
172343  1  0
175344  1  0
176345  1  1
177346  1  1
178347  1  0
179348  1  0
179349  1  0
179350  1  0
182351  1  0
M  END
