
     RDKit          2D

273280  0  0  0  0  0  0  0  0999 V2000
  -28.5556    0.8214    0.0000 C   0  0  0  0  0  0  0  0  0  0  0  0
  -29.8516    0.0662    0.0000 N   0  0  0  0  0  0  0  0  0  0  0  0
  -31.1537    0.8110    0.0000 C   0  0  0  0  0  0  0  0  0  0  0  0
  -31.1597    2.3110    0.0000 C   0  0  0  0  0  0  0  0  0  0  0  0
  -32.4617    3.0557    0.0000 C   0  0  0  0  0  0  0  0  0  0  0  0
  -33.7578    2.3005    0.0000 C   0  0  0  0  0  0  0  0  0  0  0  0
  -33.7517    0.8005    0.0000 C   0  0  0  0  0  0  0  0  0  0  0  0
  -32.4497    0.0558    0.0000 C   0  0  0  0  0  0  0  0  0  0  0  0
  -35.1764    0.3313    0.0000 C   0  0  0  0  0  0  0  0  0  0  0  0
  -36.0630    1.5413    0.0000 O   0  0  0  0  0  0  0  0  0  0  0  0
  -35.1862    2.7583    0.0000 C   0  0  0  0  0  0  0  0  0  0  0  0
  -35.6554    4.1830    0.0000 O   0  0  0  0  0  0  0  0  0  0  0  0
  -36.6424    0.0136    0.0000 C   0  0  0  0  0  0  0  0  0  0  0  0
  -37.1002   -1.4149    0.0000 C   0  0  0  0  0  0  0  0  0  0  0  0
  -38.5662   -1.7326    0.0000 C   0  0  0  0  0  0  0  0  0  0  0  0
  -39.5743   -0.6220    0.0000 C   0  0  0  0  0  0  0  0  0  0  0  0
  -39.1165    0.8065    0.0000 C   0  0  0  0  0  0  0  0  0  0  0  0
  -37.6506    1.1242    0.0000 C   0  0  0  0  0  0  0  0  0  0  0  0
  -41.0403   -0.9397    0.0000 O   0  0  0  0  0  0  0  0  0  0  0  0
  -36.0920   -2.5256    0.0000 O   0  0  0  0  0  0  0  0  0  0  0  0
  -34.6261   -2.2078    0.0000 C   0  0  0  0  0  0  0  0  0  0  0  0
  -34.1683   -0.7794    0.0000 C   0  0  0  0  0  0  0  0  0  0  0  0
  -32.9160   -1.1282    0.0000 C   0  0  0  0  0  0  0  0  0  0  0  0
  -32.3783   -1.7206    0.0000 C   0  0  0  0  0  0  0  0  0  0  0  0
  -32.6224   -2.4824    0.0000 C   0  0  0  0  0  0  0  0  0  0  0  0
  -33.4043   -2.6519    0.0000 C   0  0  0  0  0  0  0  0  0  0  0  0
  -31.1438   -4.1114    0.0000 O   0  0  0  0  0  0  0  0  0  0  0  0
  -28.5616    2.3214    0.0000 S   0  0  0  0  0  0  0  0  0  0  0  0
  -27.2536    0.0766    0.0000 N   0  0  0  0  0  0  0  0  0  0  0  0
  -25.9576    0.8318    0.0000 C   0  0  0  0  0  0  0  0  0  0  0  0
  -24.6555    0.0870    0.0000 C   0  0  0  0  0  0  0  0  0  0  0  0
  -23.3595    0.8422    0.0000 C   0  0  0  0  0  0  0  0  0  0  0  0
  -23.3655    2.3422    0.0000 O   0  0  0  0  0  0  0  0  0  0  0  0
  -22.0575    0.0975    0.0000 N   0  0  0  0  0  0  0  0  0  0  0  0
  -20.7615    0.8527    0.0000 C   0  0  0  0  0  0  0  0  0  0  0  0
  -19.8019    2.0056    0.0000 C   0  0  0  0  0  0  0  0  0  0  0  0
  -19.4594    0.1079    0.0000 C   0  0  0  0  0  0  0  0  0  0  0  0
  -19.4534   -1.3921    0.0000 O   0  0  0  0  0  0  0  0  0  0  0  0
  -18.1634    0.8631    0.0000 N   0  0  0  0  0  0  0  0  0  0  0  0
  -16.8614    0.1183    0.0000 C   0  0  0  0  0  0  0  0  0  0  0  0
  -15.8926   -1.0269    0.0000 C   0  0  0  0  0  0  0  0  0  0  0  0
  -16.4000   -2.4385    0.0000 O   0  0  0  0  0  0  0  0  0  0  0  0
  -15.5653    0.8735    0.0000 C   0  0  0  0  0  0  0  0  0  0  0  0
  -15.5714    2.3735    0.0000 O   0  0  0  0  0  0  0  0  0  0  0  0
  -14.2633    0.1287    0.0000 N   0  0  0  0  0  0  0  0  0  0  0  0
  -12.9673    0.8839    0.0000 C   0  0  0  0  0  0  0  0  0  0  0  0
  -12.0077    2.0369    0.0000 C   0  0  0  0  0  0  0  0  0  0  0  0
  -11.5004    3.4484    0.0000 O   0  0  0  0  0  0  0  0  0  0  0  0
  -10.5095    1.9644    0.0000 C   0  0  0  0  0  0  0  0  0  0  0  0
  -11.6653    0.1391    0.0000 C   0  0  0  0  0  0  0  0  0  0  0  0
  -11.6592   -1.3608    0.0000 O   0  0  0  0  0  0  0  0  0  0  0  0
  -10.3692    0.8944    0.0000 N   0  0  0  0  0  0  0  0  0  0  0  0
   -9.0672    0.1496    0.0000 C   0  0  0  0  0  0  0  0  0  0  0  0
   -8.0984   -0.9956    0.0000 C   0  0  0  0  0  0  0  0  0  0  0  0
   -8.6058   -2.4072    0.0000 C   0  0  0  0  0  0  0  0  0  0  0  0
   -7.6370   -3.5524    0.0000 C   0  0  0  0  0  0  0  0  0  0  0  0
   -9.5654   -3.5601    0.0000 C   0  0  0  0  0  0  0  0  0  0  0  0
   -7.7712    0.9048    0.0000 C   0  0  0  0  0  0  0  0  0  0  0  0
   -7.7772    2.4048    0.0000 O   0  0  0  0  0  0  0  0  0  0  0  0
   -6.4691    0.1600    0.0000 N   0  0  0  0  0  0  0  0  0  0  0  0
   -5.1731    0.9152    0.0000 C   0  0  0  0  0  0  0  0  0  0  0  0
   -4.2136    2.0681    0.0000 C   0  0  0  0  0  0  0  0  0  0  0  0
   -2.7353    1.8136    0.0000 C   0  0  0  0  0  0  0  0  0  0  0  0
   -2.2166    0.4061    0.0000 C   0  0  0  0  0  0  0  0  0  0  0  0
   -0.7384    0.1516    0.0000 C   0  0  0  0  0  0  0  0  0  0  0  0
    0.2212    1.3045    0.0000 C   0  0  0  0  0  0  0  0  0  0  0  0
   -0.2975    2.7120    0.0000 C   0  0  0  0  0  0  0  0  0  0  0  0
   -1.7758    2.9665    0.0000 C   0  0  0  0  0  0  0  0  0  0  0  0
   -3.8711    0.1704    0.0000 C   0  0  0  0  0  0  0  0  0  0  0  0
   -4.0480   -1.3191    0.0000 O   0  0  0  0  0  0  0  0  0  0  0  0
   -2.5751    0.9256    0.0000 N   0  0  0  0  0  0  0  0  0  0  0  0
   -1.2730    0.1808    0.0000 C   0  0  0  0  0  0  0  0  0  0  0  0
   -0.3043   -0.9643    0.0000 C   0  0  0  0  0  0  0  0  0  0  0  0
   -0.8116   -2.3759    0.0000 C   0  0  0  0  0  0  0  0  0  0  0  0
    0.1572   -3.5211    0.0000 C   0  0  0  0  0  0  0  0  0  0  0  0
   -0.3502   -4.9327    0.0000 O   0  0  0  0  0  0  0  0  0  0  0  0
    1.6333   -3.2547    0.0000 O   0  0  0  0  0  0  0  0  0  0  0  0
    0.0230    0.9360    0.0000 C   0  0  0  0  0  0  0  0  0  0  0  0
    0.3801    2.3929    0.0000 O   0  0  0  0  0  0  0  0  0  0  0  0
    1.3250    0.1913    0.0000 N   0  0  0  0  0  0  0  0  0  0  0  0
    2.6210    0.9465    0.0000 C   0  0  0  0  0  0  0  0  0  0  0  0
    3.5806    2.0994    0.0000 C   0  0  0  0  0  0  0  0  0  0  0  0
    4.0880    3.5110    0.0000 O   0  0  0  0  0  0  0  0  0  0  0  0
    5.0789    2.0269    0.0000 C   0  0  0  0  0  0  0  0  0  0  0  0
    3.9231    0.2017    0.0000 C   0  0  0  0  0  0  0  0  0  0  0  0
    3.7462   -1.2879    0.0000 O   0  0  0  0  0  0  0  0  0  0  0  0
    5.2191    0.9569    0.0000 N   0  0  0  0  0  0  0  0  0  0  0  0
    6.5211    0.2121    0.0000 C   0  0  0  0  0  0  0  0  0  0  0  0
    7.4899   -0.9331    0.0000 C   0  0  0  0  0  0  0  0  0  0  0  0
    6.9825   -2.3447    0.0000 C   0  0  0  0  0  0  0  0  0  0  0  0
    5.5064   -2.6111    0.0000 C   0  0  0  0  0  0  0  0  0  0  0  0
    4.9990   -4.0226    0.0000 C   0  0  0  0  0  0  0  0  0  0  0  0
    5.9678   -5.1678    0.0000 C   0  0  0  0  0  0  0  0  0  0  0  0
    7.4440   -4.9014    0.0000 C   0  0  0  0  0  0  0  0  0  0  0  0
    7.9513   -3.4899    0.0000 C   0  0  0  0  0  0  0  0  0  0  0  0
    7.8172    0.9673    0.0000 C   0  0  0  0  0  0  0  0  0  0  0  0
    7.8111    2.4673    0.0000 O   0  0  0  0  0  0  0  0  0  0  0  0
    9.1192    0.2225    0.0000 N   0  0  0  0  0  0  0  0  0  0  0  0
   10.4152    0.9777    0.0000 C   0  0  0  0  0  0  0  0  0  0  0  0
   11.3748    2.1307    0.0000 C   0  0  0  0  0  0  0  0  0  0  0  0
   12.8530    1.8761    0.0000 C   0  0  0  0  0  0  0  0  0  0  0  0
   13.3717    0.4686    0.0000 C   0  0  0  0  0  0  0  0  0  0  0  0
   14.8499    0.2141    0.0000 C   0  0  0  0  0  0  0  0  0  0  0  0
   15.8095    1.3670    0.0000 C   0  0  0  0  0  0  0  0  0  0  0  0
   17.2877    1.1125    0.0000 O   0  0  0  0  0  0  0  0  0  0  0  0
   15.2908    2.7745    0.0000 C   0  0  0  0  0  0  0  0  0  0  0  0
   13.8126    3.0290    0.0000 C   0  0  0  0  0  0  0  0  0  0  0  0
   11.7172    0.2330    0.0000 C   0  0  0  0  0  0  0  0  0  0  0  0
   11.5404   -1.2566    0.0000 O   0  0  0  0  0  0  0  0  0  0  0  0
   13.0133    0.9882    0.0000 N   0  0  0  0  0  0  0  0  0  0  0  0
   14.3153    0.2434    0.0000 C   0  0  0  0  0  0  0  0  0  0  0  0
   15.2841   -0.9018    0.0000 C   0  0  0  0  0  0  0  0  0  0  0  0
   14.7767   -2.3134    0.0000 C   0  0  0  0  0  0  0  0  0  0  0  0
   15.7455   -3.4586    0.0000 C   0  0  0  0  0  0  0  0  0  0  0  0
   13.8171   -3.4663    0.0000 C   0  0  0  0  0  0  0  0  0  0  0  0
   15.6113    0.9986    0.0000 C   0  0  0  0  0  0  0  0  0  0  0  0
   15.9684    2.4555    0.0000 O   0  0  0  0  0  0  0  0  0  0  0  0
   16.9134    0.2538    0.0000 N   0  0  0  0  0  0  0  0  0  0  0  0
   18.2094    1.0090    0.0000 C   0  0  0  0  0  0  0  0  0  0  0  0
   19.5114    0.2642    0.0000 C   0  0  0  0  0  0  0  0  0  0  0  0
   19.5174   -1.2358    0.0000 O   0  0  0  0  0  0  0  0  0  0  0  0
   20.8074    1.0194    0.0000 N   0  0  0  0  0  0  0  0  0  0  0  0
   22.1095    0.2746    0.0000 C   0  0  0  0  0  0  0  0  0  0  0  0
   23.4055    1.0299    0.0000 C   0  0  0  0  0  0  0  0  0  0  0  0
   23.3995    2.5298    0.0000 O   0  0  0  0  0  0  0  0  0  0  0  0
   24.7075    0.2851    0.0000 N   0  0  0  0  0  0  0  0  0  0  0  0
   26.0035    1.0403    0.0000 C   0  0  0  0  0  0  0  0  0  0  0  0
   26.9631    2.1932    0.0000 C   0  0  0  0  0  0  0  0  0  0  0  0
   28.4413    1.9387    0.0000 C   0  0  0  0  0  0  0  0  0  0  0  0
   29.4009    3.0916    0.0000 C   0  0  0  0  0  0  0  0  0  0  0  0
   29.7434    1.1939    0.0000 C   0  0  0  0  0  0  0  0  0  0  0  0
   27.3056    0.2955    0.0000 C   0  0  0  0  0  0  0  0  0  0  0  0
   27.3116   -1.2045    0.0000 O   0  0  0  0  0  0  0  0  0  0  0  0
   28.6016    1.0507    0.0000 N   0  0  0  0  0  0  0  0  0  0  0  0
   29.9036    0.3059    0.0000 C   0  0  0  0  0  0  0  0  0  0  0  0
   30.8724   -0.8393    0.0000 C   0  0  0  0  0  0  0  0  0  0  0  0
   30.3650   -2.2509    0.0000 C   0  0  0  0  0  0  0  0  0  0  0  0
   31.3338   -3.3960    0.0000 C   0  0  0  0  0  0  0  0  0  0  0  0
   29.4055   -3.4038    0.0000 C   0  0  0  0  0  0  0  0  0  0  0  0
   31.1996    1.0611    0.0000 C   0  0  0  0  0  0  0  0  0  0  0  0
   31.3765    2.5507    0.0000 O   0  0  0  0  0  0  0  0  0  0  0  0
   32.5017    0.3163    0.0000 N   0  0  0  0  0  0  0  0  0  0  0  0
   33.7977    1.0715    0.0000 C   0  0  0  0  0  0  0  0  0  0  0  0
   35.0997    0.3268    0.0000 C   0  0  0  0  0  0  0  0  0  0  0  0
   36.3958    1.0820    0.0000 O   0  0  0  0  0  0  0  0  0  0  0  0
   35.1058   -1.1732    0.0000 O   0  0  0  0  0  0  0  0  0  0  0  0
  -29.6628   -1.4219    0.0000 H   0  0  0  0  0  0  0  0  0  0  0  0
  -29.8637    3.0662    0.0000 H   0  0  0  0  0  0  0  0  0  0  0  0
  -32.4678    4.5557    0.0000 H   0  0  0  0  0  0  0  0  0  0  0  0
  -32.0809   -1.3982    0.0000 H   0  0  0  0  0  0  0  0  0  0  0  0
  -39.0240   -3.1611    0.0000 H   0  0  0  0  0  0  0  0  0  0  0  0
  -40.1247    1.9172    0.0000 H   0  0  0  0  0  0  0  0  0  0  0  0
  -37.1928    2.5527    0.0000 H   0  0  0  0  0  0  0  0  0  0  0  0
  -42.0484    0.1710    0.0000 H   0  0  0  0  0  0  0  0  0  0  0  0
  -32.2445    0.9668    0.0000 H   0  0  0  0  0  0  0  0  0  0  0  0
  -30.2004   -1.4356    0.0000 H   0  0  0  0  0  0  0  0  0  0  0  0
  -34.0757   -4.7469    0.0000 H   0  0  0  0  0  0  0  0  0  0  0  0
  -31.6016   -5.5399    0.0000 H   0  0  0  0  0  0  0  0  0  0  0  0
  -27.2476   -1.4234    0.0000 H   0  0  0  0  0  0  0  0  0  0  0  0
  -24.9980    1.9847    0.0000 H   0  0  0  0  0  0  0  0  0  0  0  0
  -26.9264    1.9770    0.0000 H   0  0  0  0  0  0  0  0  0  0  0  0
  -23.6867   -1.0582    0.0000 H   0  0  0  0  0  0  0  0  0  0  0  0
  -25.6151   -1.0659    0.0000 H   0  0  0  0  0  0  0  0  0  0  0  0
  -22.0515   -1.4025    0.0000 H   0  0  0  0  0  0  0  0  0  0  0  0
  -21.7302    1.9979    0.0000 H   0  0  0  0  0  0  0  0  0  0  0  0
  -18.3306    2.2978    0.0000 H   0  0  0  0  0  0  0  0  0  0  0  0
  -19.2945    3.4172    0.0000 H   0  0  0  0  0  0  0  0  0  0  0  0
  -21.1039    2.7504    0.0000 H   0  0  0  0  0  0  0  0  0  0  0  0
  -17.9865    2.3526    0.0000 H   0  0  0  0  0  0  0  0  0  0  0  0
  -17.8209   -1.0346    0.0000 H   0  0  0  0  0  0  0  0  0  0  0  0
  -14.6910   -1.9248    0.0000 H   0  0  0  0  0  0  0  0  0  0  0  0
  -14.6826   -0.1404    0.0000 H   0  0  0  0  0  0  0  0  0  0  0  0
  -15.4312   -3.5837    0.0000 H   0  0  0  0  0  0  0  0  0  0  0  0
  -14.0745   -1.3593    0.0000 H   0  0  0  0  0  0  0  0  0  0  0  0
  -13.9361    2.0291    0.0000 H   0  0  0  0  0  0  0  0  0  0  0  0
  -13.3098    2.7816    0.0000 H   0  0  0  0  0  0  0  0  0  0  0  0
  -12.4691    4.5936    0.0000 H   0  0  0  0  0  0  0  0  0  0  0  0
   -9.5699    2.9352    0.0000 H   0  0  0  0  0  0  0  0  0  0  0  0
   -9.2274    1.0375    0.0000 H   0  0  0  0  0  0  0  0  0  0  0  0
  -10.3146    0.2978    0.0000 H   0  0  0  0  0  0  0  0  0  0  0  0
  -10.1924    2.3839    0.0000 H   0  0  0  0  0  0  0  0  0  0  0  0
  -10.1601   -0.8778    0.0000 H   0  0  0  0  0  0  0  0  0  0  0  0
   -6.7964   -1.7404    0.0000 H   0  0  0  0  0  0  0  0  0  0  0  0
   -6.8884   -0.1091    0.0000 H   0  0  0  0  0  0  0  0  0  0  0  0
   -9.9889   -1.8267    0.0000 H   0  0  0  0  0  0  0  0  0  0  0  0
   -7.9685   -5.0153    0.0000 H   0  0  0  0  0  0  0  0  0  0  0  0
   -6.3350   -4.2972    0.0000 H   0  0  0  0  0  0  0  0  0  0  0  0
   -6.5441   -2.5250    0.0000 H   0  0  0  0  0  0  0  0  0  0  0  0
   -9.2221   -5.0203    0.0000 H   0  0  0  0  0  0  0  0  0  0  0  0
  -10.8614   -4.3153    0.0000 H   0  0  0  0  0  0  0  0  0  0  0  0
  -10.5341   -2.4149    0.0000 H   0  0  0  0  0  0  0  0  0  0  0  0
   -6.2803   -1.3281    0.0000 H   0  0  0  0  0  0  0  0  0  0  0  0
   -6.1419    2.0604    0.0000 H   0  0  0  0  0  0  0  0  0  0  0  0
   -3.7062    3.4797    0.0000 H   0  0  0  0  0  0  0  0  0  0  0  0
   -5.5156    2.8129    0.0000 H   0  0  0  0  0  0  0  0  0  0  0  0
   -3.0285   -0.8552    0.0000 H   0  0  0  0  0  0  0  0  0  0  0  0
    0.1054   -1.0886    0.0000 H   0  0  0  0  0  0  0  0  0  0  0  0
    1.6994    1.0499    0.0000 H   0  0  0  0  0  0  0  0  0  0  0  0
    0.6621    3.8649    0.0000 H   0  0  0  0  0  0  0  0  0  0  0  0
   -2.2944    4.3740    0.0000 H   0  0  0  0  0  0  0  0  0  0  0  0
   -2.2180    2.3825    0.0000 H   0  0  0  0  0  0  0  0  0  0  0  0
   -2.3660   -0.8465    0.0000 H   0  0  0  0  0  0  0  0  0  0  0  0
    0.8973   -1.8623    0.0000 H   0  0  0  0  0  0  0  0  0  0  0  0
    0.9058   -0.0779    0.0000 H   0  0  0  0  0  0  0  0  0  0  0  0
   -1.7712   -3.5289    0.0000 H   0  0  0  0  0  0  0  0  0  0  0  0
   -2.1947   -1.7954    0.0000 H   0  0  0  0  0  0  0  0  0  0  0  0
    1.5138   -1.2968    0.0000 H   0  0  0  0  0  0  0  0  0  0  0  0
    1.6523    2.0917    0.0000 H   0  0  0  0  0  0  0  0  0  0  0  0
    2.2786    2.8442    0.0000 H   0  0  0  0  0  0  0  0  0  0  0  0
    5.5206    3.9553    0.0000 H   0  0  0  0  0  0  0  0  0  0  0  0
    6.1518    2.8722    0.0000 H   0  0  0  0  0  0  0  0  0  0  0  0
    6.3609    1.1001    0.0000 H   0  0  0  0  0  0  0  0  0  0  0  0
    5.2737    0.3603    0.0000 H   0  0  0  0  0  0  0  0  0  0  0  0
    5.3960    2.4464    0.0000 H   0  0  0  0  0  0  0  0  0  0  0  0
    5.5616   -0.9408    0.0000 H   0  0  0  0  0  0  0  0  0  0  0  0
    8.6915   -1.8310    0.0000 H   0  0  0  0  0  0  0  0  0  0  0  0
    8.6999   -0.0466    0.0000 H   0  0  0  0  0  0  0  0  0  0  0  0
    4.4052   -1.5925    0.0000 H   0  0  0  0  0  0  0  0  0  0  0  0
    3.5229   -4.2890    0.0000 H   0  0  0  0  0  0  0  0  0  0  0  0
    5.4604   -6.5794    0.0000 H   0  0  0  0  0  0  0  0  0  0  0  0
    8.4127   -6.0466    0.0000 H   0  0  0  0  0  0  0  0  0  0  0  0
    9.4275   -3.2235    0.0000 H   0  0  0  0  0  0  0  0  0  0  0  0
    9.3080   -1.2655    0.0000 H   0  0  0  0  0  0  0  0  0  0  0  0
    9.4464    2.1229    0.0000 H   0  0  0  0  0  0  0  0  0  0  0  0
   11.8821    3.5422    0.0000 H   0  0  0  0  0  0  0  0  0  0  0  0
   10.0727    2.8754    0.0000 H   0  0  0  0  0  0  0  0  0  0  0  0
   12.5598   -0.7926    0.0000 H   0  0  0  0  0  0  0  0  0  0  0  0
   15.6938   -1.0260    0.0000 H   0  0  0  0  0  0  0  0  0  0  0  0
   18.2473    2.2654    0.0000 H   0  0  0  0  0  0  0  0  0  0  0  0
   16.2504    3.9274    0.0000 H   0  0  0  0  0  0  0  0  0  0  0  0
   13.2939    4.4365    0.0000 H   0  0  0  0  0  0  0  0  0  0  0  0
   13.3704    2.4450    0.0000 H   0  0  0  0  0  0  0  0  0  0  0  0
   13.2224   -0.7840    0.0000 H   0  0  0  0  0  0  0  0  0  0  0  0
   16.5861   -1.6466    0.0000 H   0  0  0  0  0  0  0  0  0  0  0  0
   16.4941   -0.0153    0.0000 H   0  0  0  0  0  0  0  0  0  0  0  0
   13.3936   -1.7329    0.0000 H   0  0  0  0  0  0  0  0  0  0  0  0
   15.4140   -4.9215    0.0000 H   0  0  0  0  0  0  0  0  0  0  0  0
   17.0475   -4.2034    0.0000 H   0  0  0  0  0  0  0  0  0  0  0  0
   16.8384   -2.4312    0.0000 H   0  0  0  0  0  0  0  0  0  0  0  0
   14.1604   -4.9265    0.0000 H   0  0  0  0  0  0  0  0  0  0  0  0
   12.5211   -4.2215    0.0000 H   0  0  0  0  0  0  0  0  0  0  0  0
   12.8484   -2.3211    0.0000 H   0  0  0  0  0  0  0  0  0  0  0  0
   17.1022   -1.2343    0.0000 H   0  0  0  0  0  0  0  0  0  0  0  0
   19.1689    2.1619    0.0000 H   0  0  0  0  0  0  0  0  0  0  0  0
   17.2406    2.1542    0.0000 H   0  0  0  0  0  0  0  0  0  0  0  0
   20.8014    2.5194    0.0000 H   0  0  0  0  0  0  0  0  0  0  0  0
   23.0782   -0.8705    0.0000 H   0  0  0  0  0  0  0  0  0  0  0  0
   21.1499   -0.8783    0.0000 H   0  0  0  0  0  0  0  0  0  0  0  0
   24.7135   -1.2149    0.0000 H   0  0  0  0  0  0  0  0  0  0  0  0
   25.0348    2.1855    0.0000 H   0  0  0  0  0  0  0  0  0  0  0  0
   27.2946    3.6561    0.0000 H   0  0  0  0  0  0  0  0  0  0  0  0
   25.6611    2.9380    0.0000 H   0  0  0  0  0  0  0  0  0  0  0  0
   28.6562    0.4541    0.0000 H   0  0  0  0  0  0  0  0  0  0  0  0
   30.8968    3.2023    0.0000 H   0  0  0  0  0  0  0  0  0  0  0  0
   29.9083    4.5032    0.0000 H   0  0  0  0  0  0  0  0  0  0  0  0
   28.1994    3.9895    0.0000 H   0  0  0  0  0  0  0  0  0  0  0  0
   30.1122   -0.2601    0.0000 H   0  0  0  0  0  0  0  0  0  0  0  0
   31.2146    1.4861    0.0000 H   0  0  0  0  0  0  0  0  0  0  0  0
   30.4190    2.5331    0.0000 H   0  0  0  0  0  0  0  0  0  0  0  0
   28.9587    2.5076    0.0000 H   0  0  0  0  0  0  0  0  0  0  0  0
   28.8107   -0.7214    0.0000 H   0  0  0  0  0  0  0  0  0  0  0  0
   32.1744   -1.5841    0.0000 H   0  0  0  0  0  0  0  0  0  0  0  0
   32.1815   -0.1069    0.0000 H   0  0  0  0  0  0  0  0  0  0  0  0
   28.9819   -1.6703    0.0000 H   0  0  0  0  0  0  0  0  0  0  0  0
   31.0023   -4.8590    0.0000 H   0  0  0  0  0  0  0  0  0  0  0  0
   32.6359   -4.1408    0.0000 H   0  0  0  0  0  0  0  0  0  0  0  0
   32.4268   -2.3687    0.0000 H   0  0  0  0  0  0  0  0  0  0  0  0
   29.7487   -4.8640    0.0000 H   0  0  0  0  0  0  0  0  0  0  0  0
   28.1095   -4.1590    0.0000 H   0  0  0  0  0  0  0  0  0  0  0  0
   28.4367   -2.2586    0.0000 H   0  0  0  0  0  0  0  0  0  0  0  0
   32.6905   -1.1717    0.0000 H   0  0  0  0  0  0  0  0  0  0  0  0
   34.7573    2.2245    0.0000 H   0  0  0  0  0  0  0  0  0  0  0  0
   32.8289    2.2167    0.0000 H   0  0  0  0  0  0  0  0  0  0  0  0
  1  2  1  0
  2  3  1  0
  3  4  2  0
  4  5  1  0
  5  6  2  0
  6  7  1  0
  7  8  2  0
  7  9  1  0
  9 10  1  0
 10 11  1  0
 11 12  2  0
  9 13  1  0
 13 14  1  0
 14 15  2  0
 15 16  1  0
 16 17  2  0
 17 18  1  0
 16 19  1  0
 14 20  1  0
 20 21  1  0
 21 22  2  0
 22 23  1  0
 23 24  2  0
 24 25  1  0
 25 26  2  0
 25 27  1  0
  1 28  2  0
  1 29  1  0
 29 30  1  0
 30 31  1  0
 31 32  1  0
 32 33  2  0
 32 34  1  0
 34 35  1  0
 35 36  1  0
 35 37  1  0
 37 38  2  0
 37 39  1  0
 39 40  1  0
 40 41  1  0
 41 42  1  0
 40 43  1  0
 43 44  2  0
 43 45  1  0
 45 46  1  0
 46 47  1  0
 47 48  1  0
 47 49  1  0
 46 50  1  0
 50 51  2  0
 50 52  1  0
 52 53  1  0
 53 54  1  0
 54 55  1  0
 55 56  1  0
 55 57  1  0
 53 58  1  0
 58 59  2  0
 58 60  1  0
 60 61  1  0
 61 62  1  0
 62 63  1  0
 63 64  2  0
 64 65  1  0
 65 66  2  0
 66 67  1  0
 67 68  2  0
 61 69  1  0
 69 70  2  0
 69 71  1  0
 71 72  1  0
 72 73  1  0
 73 74  1  0
 74 75  1  0
 75 76  2  0
 75 77  1  0
 72 78  1  0
 78 79  2  0
 78 80  1  0
 80 81  1  0
 81 82  1  0
 82 83  1  0
 82 84  1  0
 81 85  1  0
 85 86  2  0
 85 87  1  0
 87 88  1  0
 88 89  1  0
 89 90  1  0
 90 91  2  0
 91 92  1  0
 92 93  2  0
 93 94  1  0
 94 95  2  0
 88 96  1  0
 96 97  2  0
 96 98  1  0
 98 99  1  0
 99100  1  0
100101  1  0
101102  2  0
102103  1  0
103104  2  0
104105  1  0
104106  1  0
106107  2  0
 99108  1  0
108109  2  0
108110  1  0
110111  1  0
111112  1  0
112113  1  0
113114  1  0
113115  1  0
111116  1  0
116117  2  0
116118  1  0
118119  1  0
119120  1  0
120121  2  0
120122  1  0
122123  1  0
123124  1  0
124125  2  0
124126  1  0
126127  1  0
127128  1  0
128129  1  0
129130  1  0
129131  1  0
127132  1  0
132133  2  0
132134  1  0
134135  1  0
135136  1  0
136137  1  0
137138  1  0
137139  1  0
135140  1  0
140141  2  0
140142  1  0
142143  1  0
143144  1  0
144145  2  0
144146  1  0
  8  3  1  0
 68 63  1  0
 95 90  1  0
107101  1  0
 11  6  1  0
 18 13  2  0
 22  9  1  0
 26 21  1  0
  2147  1  0
  4148  1  0
  5149  1  0
  8150  1  0
 15151  1  0
 17152  1  0
 18153  1  0
 19154  1  0
 23155  1  0
 24156  1  0
 26157  1  0
 27158  1  0
 29159  1  0
 30160  1  0
 30161  1  0
 31162  1  0
 31163  1  0
 34164  1  0
 35165  1  1
 36166  1  0
 36167  1  0
 36168  1  0
 39169  1  0
 40170  1  6
 41171  1  0
 41172  1  0
 42173  1  0
 45174  1  0
 46175  1  1
 47176  1  1
 48177  1  0
 49178  1  0
 49179  1  0
 49180  1  0
 52181  1  0
 53182  1  6
 54183  1  0
 54184  1  0
 55185  1  0
 56186  1  0
 56187  1  0
 56188  1  0
 57189  1  0
 57190  1  0
 57191  1  0
 60192  1  0
 61193  1  1
 62194  1  0
 62195  1  0
 64196  1  0
 65197  1  0
 66198  1  0
 67199  1  0
 68200  1  0
 71201  1  0
 72202  1  6
 73203  1  0
 73204  1  0
 74205  1  0
 74206  1  0
 80207  1  0
 81208  1  1
 82209  1  1
 83210  1  0
 84211  1  0
 84212  1  0
 84213  1  0
 87214  1  0
 88215  1  6
 89216  1  0
 89217  1  0
 91218  1  0
 92219  1  0
 93220  1  0
 94221  1  0
 95222  1  0
 98223  1  0
 99224  1  1
100225  1  0
100226  1  0
102227  1  0
103228  1  0
105229  1  0
106230  1  0
107231  1  0
110232  1  0
111233  1  6
112234  1  0
112235  1  0
113236  1  0
114237  1  0
114238  1  0
114239  1  0
115240  1  0
115241  1  0
115242  1  0
118243  1  0
119244  1  0
119245  1  0
122246  1  0
123247  1  0
123248  1  0
126249  1  0
127250  1  1
128251  1  0
128252  1  0
129253  1  0
130254  1  0
130255  1  0
130256  1  0
131257  1  0
131258  1  0
131259  1  0
134260  1  0
135261  1  6
136262  1  0
136263  1  0
137264  1  0
138265  1  0
138266  1  0
138267  1  0
139268  1  0
139269  1  0
139270  1  0
142271  1  0
143272  1  0
143273  1  0
M  CHG  2  77  -1 146  -1
M  END
