
     RDKit          2D

251254  0  0  0  0  0  0  0  0999 V2000
   26.1440   -5.8638    0.0000 N   0  0  0  0  0  0  0  0  0  0  0  0
   24.9250   -4.9897    0.0000 C   0  0  0  0  0  0  0  0  0  0  0  0
   23.5585   -5.6084    0.0000 C   0  0  0  0  0  0  0  0  0  0  0  0
   22.3395   -4.7343    0.0000 C   0  0  0  0  0  0  0  0  0  0  0  0
   22.4870   -3.2416    0.0000 O   0  0  0  0  0  0  0  0  0  0  0  0
   20.9730   -5.3530    0.0000 N   0  0  0  0  0  0  0  0  0  0  0  0
   19.7540   -4.4789    0.0000 C   0  0  0  0  0  0  0  0  0  0  0  0
   19.1049   -5.8312    0.0000 C   0  0  0  0  0  0  0  0  0  0  0  0
   19.7942   -7.1634    0.0000 O   0  0  0  0  0  0  0  0  0  0  0  0
   18.9075   -3.2406    0.0000 C   0  0  0  0  0  0  0  0  0  0  0  0
   17.4369   -3.5361    0.0000 O   0  0  0  0  0  0  0  0  0  0  0  0
   19.5566   -1.8883    0.0000 N   0  0  0  0  0  0  0  0  0  0  0  0
   18.7100   -0.6501    0.0000 C   0  0  0  0  0  0  0  0  0  0  0  0
   20.0765   -0.0314    0.0000 C   0  0  0  0  0  0  0  0  0  0  0  0
   21.3930   -0.7504    0.0000 O   0  0  0  0  0  0  0  0  0  0  0  0
   17.4910    0.2240    0.0000 C   0  0  0  0  0  0  0  0  0  0  0  0
   17.6385    1.7167    0.0000 O   0  0  0  0  0  0  0  0  0  0  0  0
   16.1245   -0.3946    0.0000 N   0  0  0  0  0  0  0  0  0  0  0  0
   14.9055    0.4794    0.0000 C   0  0  0  0  0  0  0  0  0  0  0  0
   14.2564   -0.8729    0.0000 C   0  0  0  0  0  0  0  0  0  0  0  0
   15.1030   -2.1111    0.0000 C   0  0  0  0  0  0  0  0  0  0  0  0
   14.4539   -3.4634    0.0000 C   0  0  0  0  0  0  0  0  0  0  0  0
   16.3220   -2.9852    0.0000 C   0  0  0  0  0  0  0  0  0  0  0  0
   14.0590    1.7177    0.0000 C   0  0  0  0  0  0  0  0  0  0  0  0
   13.2774    1.5607    0.0000 O   0  0  0  0  0  0  0  0  0  0  0  0
   14.7081    3.0700    0.0000 N   0  0  0  0  0  0  0  0  0  0  0  0
   13.8615    4.3083    0.0000 C   0  0  0  0  0  0  0  0  0  0  0  0
   13.4896    5.7614    0.0000 C   0  0  0  0  0  0  0  0  0  0  0  0
   14.5620    6.8101    0.0000 C   0  0  0  0  0  0  0  0  0  0  0  0
   14.1901    8.2633    0.0000 C   0  0  0  0  0  0  0  0  0  0  0  0
   15.2625    9.3120    0.0000 C   0  0  0  0  0  0  0  0  0  0  0  0
   16.7070    8.9076    0.0000 C   0  0  0  0  0  0  0  0  0  0  0  0
   17.0790    7.4544    0.0000 C   0  0  0  0  0  0  0  0  0  0  0  0
   16.0065    6.4057    0.0000 C   0  0  0  0  0  0  0  0  0  0  0  0
   12.7891    3.2596    0.0000 C   0  0  0  0  0  0  0  0  0  0  0  0
   12.8911    2.4690    0.0000 O   0  0  0  0  0  0  0  0  0  0  0  0
   11.3446    3.6640    0.0000 N   0  0  0  0  0  0  0  0  0  0  0  0
   10.2721    2.6153    0.0000 C   0  0  0  0  0  0  0  0  0  0  0  0
    9.6230    1.2630    0.0000 C   0  0  0  0  0  0  0  0  0  0  0  0
    8.1274    1.1490    0.0000 C   0  0  0  0  0  0  0  0  0  0  0  0
    7.4783   -0.2033    0.0000 C   0  0  0  0  0  0  0  0  0  0  0  0
    6.0076   -0.4987    0.0000 O   0  0  0  0  0  0  0  0  0  0  0  0
    8.3248   -1.4416    0.0000 O   0  0  0  0  0  0  0  0  0  0  0  0
    8.8277    3.0197    0.0000 C   0  0  0  0  0  0  0  0  0  0  0  0
    8.4557    4.4728    0.0000 O   0  0  0  0  0  0  0  0  0  0  0  0
    7.7552    1.9710    0.0000 N   0  0  0  0  0  0  0  0  0  0  0  0
    6.3108    2.3754    0.0000 C   0  0  0  0  0  0  0  0  0  0  0  0
    5.0918    3.2495    0.0000 C   0  0  0  0  0  0  0  0  0  0  0  0
    3.7253    2.6308    0.0000 C   0  0  0  0  0  0  0  0  0  0  0  0
    2.5063    3.5049    0.0000 C   0  0  0  0  0  0  0  0  0  0  0  0
    1.1398    2.8862    0.0000 N   0  0  0  0  0  0  0  0  0  0  0  0
   -0.0792    3.7603    0.0000 C   0  0  0  0  0  0  0  0  0  0  0  0
   -1.3601    2.9797    0.0000 N   0  0  0  0  0  0  0  0  0  0  0  0
    0.0682    5.2530    0.0000 N   0  0  0  0  0  0  0  0  0  0  0  0
    5.2383    1.3267    0.0000 C   0  0  0  0  0  0  0  0  0  0  0  0
    5.4304   -0.1610    0.0000 O   0  0  0  0  0  0  0  0  0  0  0  0
    3.7939    1.7311    0.0000 N   0  0  0  0  0  0  0  0  0  0  0  0
    2.7214    0.6824    0.0000 C   0  0  0  0  0  0  0  0  0  0  0  0
    2.0723   -0.6699    0.0000 C   0  0  0  0  0  0  0  0  0  0  0  0
    0.5766   -0.7839    0.0000 C   0  0  0  0  0  0  0  0  0  0  0  0
   -0.2699    0.4544    0.0000 C   0  0  0  0  0  0  0  0  0  0  0  0
   -1.7656    0.3404    0.0000 C   0  0  0  0  0  0  0  0  0  0  0  0
   -2.4147   -1.0118    0.0000 C   0  0  0  0  0  0  0  0  0  0  0  0
   -1.5682   -2.2501    0.0000 C   0  0  0  0  0  0  0  0  0  0  0  0
   -0.0725   -2.1361    0.0000 C   0  0  0  0  0  0  0  0  0  0  0  0
    1.2769    1.0868    0.0000 C   0  0  0  0  0  0  0  0  0  0  0  0
    0.7306    2.4838    0.0000 O   0  0  0  0  0  0  0  0  0  0  0  0
    0.2045    0.0381    0.0000 N   0  0  0  0  0  0  0  0  0  0  0  0
   -1.2400    0.4426    0.0000 C   0  0  0  0  0  0  0  0  0  0  0  0
   -2.4590    1.3166    0.0000 C   0  0  0  0  0  0  0  0  0  0  0  0
   -3.8255    0.6980    0.0000 C   0  0  0  0  0  0  0  0  0  0  0  0
   -5.0445    1.5720    0.0000 C   0  0  0  0  0  0  0  0  0  0  0  0
   -6.4110    0.9534    0.0000 C   0  0  0  0  0  0  0  0  0  0  0  0
   -6.5584   -0.5394    0.0000 C   0  0  0  0  0  0  0  0  0  0  0  0
   -7.9901   -0.9868    0.0000 O   0  0  0  0  0  0  0  0  0  0  0  0
   -5.3394   -1.4134    0.0000 C   0  0  0  0  0  0  0  0  0  0  0  0
   -3.9729   -0.7948    0.0000 C   0  0  0  0  0  0  0  0  0  0  0  0
   -2.3125   -0.6062    0.0000 C   0  0  0  0  0  0  0  0  0  0  0  0
   -2.1204   -2.0938    0.0000 O   0  0  0  0  0  0  0  0  0  0  0  0
   -3.7569   -0.2017    0.0000 N   0  0  0  0  0  0  0  0  0  0  0  0
   -4.8294   -1.2504    0.0000 C   0  0  0  0  0  0  0  0  0  0  0  0
   -5.4785   -2.6027    0.0000 C   0  0  0  0  0  0  0  0  0  0  0  0
   -6.9742   -2.7167    0.0000 C   0  0  0  0  0  0  0  0  0  0  0  0
   -7.6233   -4.0690    0.0000 N   0  0  0  0  0  0  0  0  0  0  0  0
   -8.2083   -1.8641    0.0000 O   0  0  0  0  0  0  0  0  0  0  0  0
   -6.2738   -0.8460    0.0000 C   0  0  0  0  0  0  0  0  0  0  0  0
   -6.9864    0.4739    0.0000 O   0  0  0  0  0  0  0  0  0  0  0  0
   -7.3463   -1.8947    0.0000 N   0  0  0  0  0  0  0  0  0  0  0  0
   -8.7908   -1.4903    0.0000 C   0  0  0  0  0  0  0  0  0  0  0  0
  -10.0098   -0.6162    0.0000 C   0  0  0  0  0  0  0  0  0  0  0  0
  -11.3762   -1.2349    0.0000 C   0  0  0  0  0  0  0  0  0  0  0  0
  -12.5953   -0.3608    0.0000 C   0  0  0  0  0  0  0  0  0  0  0  0
  -12.4487   -2.2836    0.0000 C   0  0  0  0  0  0  0  0  0  0  0  0
   -9.8632   -2.5390    0.0000 C   0  0  0  0  0  0  0  0  0  0  0  0
   -9.6712   -4.0267    0.0000 O   0  0  0  0  0  0  0  0  0  0  0  0
  -11.3077   -2.1346    0.0000 N   0  0  0  0  0  0  0  0  0  0  0  0
  -12.3802   -3.1833    0.0000 C   0  0  0  0  0  0  0  0  0  0  0  0
  -13.0293   -4.5356    0.0000 C   0  0  0  0  0  0  0  0  0  0  0  0
  -14.4999   -4.8310    0.0000 C   0  0  0  0  0  0  0  0  0  0  0  0
  -13.8246   -2.7789    0.0000 C   0  0  0  0  0  0  0  0  0  0  0  0
  -14.5372   -1.4589    0.0000 O   0  0  0  0  0  0  0  0  0  0  0  0
  -14.8971   -3.8276    0.0000 N   0  0  0  0  0  0  0  0  0  0  0  0
  -16.3415   -3.4232    0.0000 C   0  0  0  0  0  0  0  0  0  0  0  0
  -17.5605   -2.5491    0.0000 C   0  0  0  0  0  0  0  0  0  0  0  0
  -18.8642   -1.8071    0.0000 O   0  0  0  0  0  0  0  0  0  0  0  0
  -17.2322   -1.0855    0.0000 C   0  0  0  0  0  0  0  0  0  0  0  0
  -17.4140   -4.4719    0.0000 C   0  0  0  0  0  0  0  0  0  0  0  0
  -17.0420   -5.9250    0.0000 O   0  0  0  0  0  0  0  0  0  0  0  0
  -18.8584   -4.0674    0.0000 N   0  0  0  0  0  0  0  0  0  0  0  0
  -20.0347   -4.9983    0.0000 C   0  0  0  0  0  0  0  0  0  0  0  0
  -21.2834   -4.1673    0.0000 C   0  0  0  0  0  0  0  0  0  0  0  0
  -20.8790   -2.7229    0.0000 C   0  0  0  0  0  0  0  0  0  0  0  0
  -19.3803   -2.6611    0.0000 C   0  0  0  0  0  0  0  0  0  0  0  0
  -19.5983   -1.1771    0.0000 C   0  0  0  0  0  0  0  0  0  0  0  0
  -20.9148   -0.4580    0.0000 O   0  0  0  0  0  0  0  0  0  0  0  0
  -18.4221   -0.2462    0.0000 N   0  0  0  0  0  0  0  0  0  0  0  0
  -18.6402    1.2379    0.0000 C   0  0  0  0  0  0  0  0  0  0  0  0
  -19.3526    2.5579    0.0000 C   0  0  0  0  0  0  0  0  0  0  0  0
  -17.4639    2.1687    0.0000 C   0  0  0  0  0  0  0  0  0  0  0  0
  -16.0697    1.6155    0.0000 O   0  0  0  0  0  0  0  0  0  0  0  0
  -17.6820    3.6528    0.0000 N   0  0  0  0  0  0  0  0  0  0  0  0
  -16.5058    4.5837    0.0000 C   0  0  0  0  0  0  0  0  0  0  0  0
  -16.7238    6.0677    0.0000 C   0  0  0  0  0  0  0  0  0  0  0  0
  -18.1181    6.6209    0.0000 O   0  0  0  0  0  0  0  0  0  0  0  0
  -15.5476    6.9986    0.0000 N   0  0  0  0  0  0  0  0  0  0  0  0
  -15.7656    8.4827    0.0000 C   0  0  0  0  0  0  0  0  0  0  0  0
  -14.5894    9.4135    0.0000 C   0  0  0  0  0  0  0  0  0  0  0  0
  -14.8075   10.8976    0.0000 O   0  0  0  0  0  0  0  0  0  0  0  0
  -13.1952    8.8603    0.0000 O   0  0  0  0  0  0  0  0  0  0  0  0
   27.5105   -5.2451    0.0000 H   0  0  0  0  0  0  0  0  0  0  0  0
   25.9966   -7.3565    0.0000 H   0  0  0  0  0  0  0  0  0  0  0  0
   25.9975   -3.9410    0.0000 H   0  0  0  0  0  0  0  0  0  0  0  0
   24.0785   -3.7514    0.0000 H   0  0  0  0  0  0  0  0  0  0  0  0
   24.4051   -6.8467    0.0000 H   0  0  0  0  0  0  0  0  0  0  0  0
   22.4861   -6.6571    0.0000 H   0  0  0  0  0  0  0  0  0  0  0  0
   21.0086   -6.8526    0.0000 H   0  0  0  0  0  0  0  0  0  0  0  0
   20.8265   -3.4302    0.0000 H   0  0  0  0  0  0  0  0  0  0  0  0
   18.0324   -6.8799    0.0000 H   0  0  0  0  0  0  0  0  0  0  0  0
   17.8859   -4.9571    0.0000 H   0  0  0  0  0  0  0  0  0  0  0  0
   19.3024   -8.4217    0.0000 H   0  0  0  0  0  0  0  0  0  0  0  0
   21.0550   -1.9575    0.0000 H   0  0  0  0  0  0  0  0  0  0  0  0
   17.5177   -1.5602    0.0000 H   0  0  0  0  0  0  0  0  0  0  0  0
   21.1490    1.0173    0.0000 H   0  0  0  0  0  0  0  0  0  0  0  0
   19.2300    1.2069    0.0000 H   0  0  0  0  0  0  0  0  0  0  0  0
   22.6620   -0.2868    0.0000 H   0  0  0  0  0  0  0  0  0  0  0  0
   16.1601   -1.8942    0.0000 H   0  0  0  0  0  0  0  0  0  0  0  0
   15.9780    1.5281    0.0000 H   0  0  0  0  0  0  0  0  0  0  0  0
   13.0641   -1.7830    0.0000 H   0  0  0  0  0  0  0  0  0  0  0  0
   13.0374    0.0012    0.0000 H   0  0  0  0  0  0  0  0  0  0  0  0
   16.4801   -1.5165    0.0000 H   0  0  0  0  0  0  0  0  0  0  0  0
   15.1432   -4.7957    0.0000 H   0  0  0  0  0  0  0  0  0  0  0  0
   13.3814   -4.5121    0.0000 H   0  0  0  0  0  0  0  0  0  0  0  0
   13.1374   -2.7445    0.0000 H   0  0  0  0  0  0  0  0  0  0  0  0
   16.3576   -4.4848    0.0000 H   0  0  0  0  0  0  0  0  0  0  0  0
   17.7064   -3.5627    0.0000 H   0  0  0  0  0  0  0  0  0  0  0  0
   16.8014   -1.5639    0.0000 H   0  0  0  0  0  0  0  0  0  0  0  0
   16.2038    3.1840    0.0000 H   0  0  0  0  0  0  0  0  0  0  0  0
   15.2280    4.9269    0.0000 H   0  0  0  0  0  0  0  0  0  0  0  0
   12.1231    5.1428    0.0000 H   0  0  0  0  0  0  0  0  0  0  0  0
   12.6430    6.9997    0.0000 H   0  0  0  0  0  0  0  0  0  0  0  0
   12.7456    8.6677    0.0000 H   0  0  0  0  0  0  0  0  0  0  0  0
   14.8905   10.7651    0.0000 H   0  0  0  0  0  0  0  0  0  0  0  0
   17.7794    9.9563    0.0000 H   0  0  0  0  0  0  0  0  0  0  0  0
   18.5234    7.0500    0.0000 H   0  0  0  0  0  0  0  0  0  0  0  0
   16.3785    4.9526    0.0000 H   0  0  0  0  0  0  0  0  0  0  0  0
   10.9726    5.1171    0.0000 H   0  0  0  0  0  0  0  0  0  0  0  0
   11.4912    1.7412    0.0000 H   0  0  0  0  0  0  0  0  0  0  0  0
    9.4756   -0.2297    0.0000 H   0  0  0  0  0  0  0  0  0  0  0  0
   11.0675    0.8586    0.0000 H   0  0  0  0  0  0  0  0  0  0  0  0
    6.6829    1.5534    0.0000 H   0  0  0  0  0  0  0  0  0  0  0  0
    7.5566    2.5362    0.0000 H   0  0  0  0  0  0  0  0  0  0  0  0
    7.7645    0.4710    0.0000 H   0  0  0  0  0  0  0  0  0  0  0  0
    6.9599    3.7277    0.0000 H   0  0  0  0  0  0  0  0  0  0  0  0
    4.4025    4.5817    0.0000 H   0  0  0  0  0  0  0  0  0  0  0  0
    6.1642    4.2982    0.0000 H   0  0  0  0  0  0  0  0  0  0  0  0
    2.6528    1.5821    0.0000 H   0  0  0  0  0  0  0  0  0  0  0  0
    3.8912    1.1400    0.0000 H   0  0  0  0  0  0  0  0  0  0  0  0
    1.6597    4.7432    0.0000 H   0  0  0  0  0  0  0  0  0  0  0  0
    3.4429    4.6765    0.0000 H   0  0  0  0  0  0  0  0  0  0  0  0
    0.4671    1.5455    0.0000 H   0  0  0  0  0  0  0  0  0  0  0  0
   -2.6647    4.0157    0.0000 H   0  0  0  0  0  0  0  0  0  0  0  0
   -1.4292    1.6304    0.0000 H   0  0  0  0  0  0  0  0  0  0  0  0
   -1.1508    6.1271    0.0000 H   0  0  0  0  0  0  0  0  0  0  0  0
    1.4347    5.8717    0.0000 H   0  0  0  0  0  0  0  0  0  0  0  0
    3.0813    3.0511    0.0000 H   0  0  0  0  0  0  0  0  0  0  0  0
    3.9404   -0.1917    0.0000 H   0  0  0  0  0  0  0  0  0  0  0  0
    1.9248   -2.1626    0.0000 H   0  0  0  0  0  0  0  0  0  0  0  0
    3.5167   -1.0743    0.0000 H   0  0  0  0  0  0  0  0  0  0  0  0
    0.0327    1.9236    0.0000 H   0  0  0  0  0  0  0  0  0  0  0  0
   -2.8866    1.3371    0.0000 H   0  0  0  0  0  0  0  0  0  0  0  0
   -3.8384   -1.4843    0.0000 H   0  0  0  0  0  0  0  0  0  0  0  0
   -2.2173   -3.6024    0.0000 H   0  0  0  0  0  0  0  0  0  0  0  0
    0.7740   -3.3744    0.0000 H   0  0  0  0  0  0  0  0  0  0  0  0
    0.2138   -1.4618    0.0000 H   0  0  0  0  0  0  0  0  0  0  0  0
   -0.5909    1.7948    0.0000 H   0  0  0  0  0  0  0  0  0  0  0  0
   -3.3056    2.5549    0.0000 H   0  0  0  0  0  0  0  0  0  0  0  0
   -1.1646    2.0747    0.0000 H   0  0  0  0  0  0  0  0  0  0  0  0
   -4.8970    3.0648    0.0000 H   0  0  0  0  0  0  0  0  0  0  0  0
   -7.6300    1.8274    0.0000 H   0  0  0  0  0  0  0  0  0  0  0  0
   -8.0724   -2.6508    0.0000 H   0  0  0  0  0  0  0  0  0  0  0  0
   -5.8437   -2.8261    0.0000 H   0  0  0  0  0  0  0  0  0  0  0  0
   -3.1482   -2.0477    0.0000 H   0  0  0  0  0  0  0  0  0  0  0  0
   -4.4695    1.1182    0.0000 H   0  0  0  0  0  0  0  0  0  0  0  0
   -3.6104   -2.1245    0.0000 H   0  0  0  0  0  0  0  0  0  0  0  0
   -5.6260   -4.0955    0.0000 H   0  0  0  0  0  0  0  0  0  0  0  0
   -4.0340   -3.0071    0.0000 H   0  0  0  0  0  0  0  0  0  0  0  0
   -9.0939   -4.3644    0.0000 H   0  0  0  0  0  0  0  0  0  0  0  0
   -6.7767   -5.3073    0.0000 H   0  0  0  0  0  0  0  0  0  0  0  0
   -7.3370   -3.3947    0.0000 H   0  0  0  0  0  0  0  0  0  0  0  0
   -8.1416   -0.1380    0.0000 H   0  0  0  0  0  0  0  0  0  0  0  0
  -10.6991    0.7160    0.0000 H   0  0  0  0  0  0  0  0  0  0  0  0
   -8.9373    0.4325    0.0000 H   0  0  0  0  0  0  0  0  0  0  0  0
  -11.2103   -2.7257    0.0000 H   0  0  0  0  0  0  0  0  0  0  0  0
  -14.0708   -0.6304    0.0000 H   0  0  0  0  0  0  0  0  0  0  0  0
  -13.4418    0.8775    0.0000 H   0  0  0  0  0  0  0  0  0  0  0  0
  -11.6586    0.8108    0.0000 H   0  0  0  0  0  0  0  0  0  0  0  0
  -13.8932   -1.8792    0.0000 H   0  0  0  0  0  0  0  0  0  0  0  0
  -13.0978   -3.6359    0.0000 H   0  0  0  0  0  0  0  0  0  0  0  0
  -11.1323   -3.0026    0.0000 H   0  0  0  0  0  0  0  0  0  0  0  0
  -12.0202   -0.8146    0.0000 H   0  0  0  0  0  0  0  0  0  0  0  0
  -11.2768   -4.1994    0.0000 H   0  0  0  0  0  0  0  0  0  0  0  0
  -13.1767   -6.0283    0.0000 H   0  0  0  0  0  0  0  0  0  0  0  0
  -11.5848   -4.9400    0.0000 H   0  0  0  0  0  0  0  0  0  0  0  0
  -15.1740   -6.0018    0.0000 H   0  0  0  0  0  0  0  0  0  0  0  0
  -15.9694   -4.2451    0.0000 H   0  0  0  0  0  0  0  0  0  0  0  0
  -15.0957   -3.2624    0.0000 H   0  0  0  0  0  0  0  0  0  0  0  0
  -14.7050   -5.3152    0.0000 H   0  0  0  0  0  0  0  0  0  0  0  0
  -15.5324   -2.1601    0.0000 H   0  0  0  0  0  0  0  0  0  0  0  0
  -18.5176   -3.7041    0.0000 H   0  0  0  0  0  0  0  0  0  0  0  0
  -19.2372   -0.6373    0.0000 H   0  0  0  0  0  0  0  0  0  0  0  0
  -18.2378    0.1966    0.0000 H   0  0  0  0  0  0  0  0  0  0  0  0
  -16.7640    0.2959    0.0000 H   0  0  0  0  0  0  0  0  0  0  0  0
  -15.9301   -1.2817    0.0000 H   0  0  0  0  0  0  0  0  0  0  0  0
  -18.9859   -6.0708    0.0000 H   0  0  0  0  0  0  0  0  0  0  0  0
  -20.9916   -6.1534    0.0000 H   0  0  0  0  0  0  0  0  0  0  0  0
  -21.9794   -5.4961    0.0000 H   0  0  0  0  0  0  0  0  0  0  0  0
  -22.6777   -3.6141    0.0000 H   0  0  0  0  0  0  0  0  0  0  0  0
  -22.3578   -2.4716    0.0000 H   0  0  0  0  0  0  0  0  0  0  0  0
  -20.9669   -1.2254    0.0000 H   0  0  0  0  0  0  0  0  0  0  0  0
  -18.0603   -1.9486    0.0000 H   0  0  0  0  0  0  0  0  0  0  0  0
  -16.9708   -0.6253    0.0000 H   0  0  0  0  0  0  0  0  0  0  0  0
  -20.0638    0.7654    0.0000 H   0  0  0  0  0  0  0  0  0  0  0  0
  -19.0758    4.0321    0.0000 H   0  0  0  0  0  0  0  0  0  0  0  0
  -20.4736    3.5546    0.0000 H   0  0  0  0  0  0  0  0  0  0  0  0
  -20.5288    1.6270    0.0000 H   0  0  0  0  0  0  0  0  0  0  0  0
  -18.9984    4.3718    0.0000 H   0  0  0  0  0  0  0  0  0  0  0  0
  -15.0821    5.0561    0.0000 H   0  0  0  0  0  0  0  0  0  0  0  0
  -15.7933    3.2637    0.0000 H   0  0  0  0  0  0  0  0  0  0  0  0
  -14.1533    6.4454    0.0000 H   0  0  0  0  0  0  0  0  0  0  0  0
  -16.4781    9.8027    0.0000 H   0  0  0  0  0  0  0  0  0  0  0  0
  -17.1893    8.0102    0.0000 H   0  0  0  0  0  0  0  0  0  0  0  0
  1  2  1  0
  2  3  1  0
  3  4  1  0
  4  5  2  0
  4  6  1  0
  6  7  1  0
  7  8  1  0
  8  9  1  0
  7 10  1  0
 10 11  2  0
 10 12  1  0
 12 13  1  0
 13 14  1  0
 14 15  1  0
 13 16  1  0
 16 17  2  0
 16 18  1  0
 18 19  1  0
 19 20  1  0
 20 21  1  0
 21 22  1  0
 21 23  1  0
 19 24  1  0
 24 25  2  0
 24 26  1  0
 26 27  1  0
 27 28  1  0
 28 29  1  0
 29 30  2  0
 30 31  1  0
 31 32  2  0
 32 33  1  0
 33 34  2  0
 27 35  1  0
 35 36  2  0
 35 37  1  0
 37 38  1  0
 38 39  1  0
 39 40  1  0
 40 41  1  0
 41 42  2  0
 41 43  1  0
 38 44  1  0
 44 45  2  0
 44 46  1  0
 46 47  1  0
 47 48  1  0
 48 49  1  0
 49 50  1  0
 50 51  1  0
 51 52  1  0
 52 53  2  3
 52 54  1  0
 47 55  1  0
 55 56  2  0
 55 57  1  0
 57 58  1  0
 58 59  1  0
 59 60  1  0
 60 61  2  0
 61 62  1  0
 62 63  2  0
 63 64  1  0
 64 65  2  0
 58 66  1  0
 66 67  2  0
 66 68  1  0
 68 69  1  0
 69 70  1  0
 70 71  1  0
 71 72  2  0
 72 73  1  0
 73 74  2  0
 74 75  1  0
 74 76  1  0
 76 77  2  0
 69 78  1  0
 78 79  2  0
 78 80  1  0
 80 81  1  0
 81 82  1  0
 82 83  1  0
 83 84  1  0
 83 85  2  0
 81 86  1  0
 86 87  2  0
 86 88  1  0
 88 89  1  0
 89 90  1  0
 90 91  1  0
 91 92  1  0
 91 93  1  0
 89 94  1  0
 94 95  2  0
 94 96  1  0
 96 97  1  0
 97 98  1  0
 98 99  1  0
 97100  1  0
100101  2  0
100102  1  0
102103  1  0
103104  1  0
104105  1  0
104106  1  0
103107  1  0
107108  2  0
107109  1  0
109110  1  0
110111  1  0
111112  1  0
112113  1  0
113114  1  0
114115  2  0
114116  1  0
116117  1  0
117118  1  0
117119  1  0
119120  2  0
119121  1  0
121122  1  0
122123  1  0
123124  2  0
123125  1  0
125126  1  0
126127  1  0
127128  2  0
127129  1  0
 34 29  1  0
 65 60  1  0
 77 71  1  0
113109  1  0
  1130  1  0
  1131  1  0
  2132  1  0
  2133  1  0
  3134  1  0
  3135  1  0
  6136  1  0
  7137  1  1
  8138  1  0
  8139  1  0
  9140  1  0
 12141  1  0
 13142  1  6
 14143  1  0
 14144  1  0
 15145  1  0
 18146  1  0
 19147  1  1
 20148  1  0
 20149  1  0
 21150  1  0
 22151  1  0
 22152  1  0
 22153  1  0
 23154  1  0
 23155  1  0
 23156  1  0
 26157  1  0
 27158  1  6
 28159  1  0
 28160  1  0
 30161  1  0
 31162  1  0
 32163  1  0
 33164  1  0
 34165  1  0
 37166  1  0
 38167  1  1
 39168  1  0
 39169  1  0
 40170  1  0
 40171  1  0
 46172  1  0
 47173  1  6
 48174  1  0
 48175  1  0
 49176  1  0
 49177  1  0
 50178  1  0
 50179  1  0
 51180  1  0
 53181  1  0
 53182  1  0
 54183  1  0
 54184  1  0
 57185  1  0
 58186  1  1
 59187  1  0
 59188  1  0
 61189  1  0
 62190  1  0
 63191  1  0
 64192  1  0
 65193  1  0
 68194  1  0
 69195  1  6
 70196  1  0
 70197  1  0
 72198  1  0
 73199  1  0
 75200  1  0
 76201  1  0
 77202  1  0
 80203  1  0
 81204  1  1
 82205  1  0
 82206  1  0
 84207  1  0
 84208  1  0
 88209  1  0
 89210  1  6
 90211  1  0
 90212  1  0
 91213  1  0
 92214  1  0
 92215  1  0
 92216  1  0
 93217  1  0
 93218  1  0
 93219  1  0
 96220  1  0
 97221  1  1
 98222  1  0
 98223  1  0
 99224  1  0
 99225  1  0
 99226  1  0
102227  1  0
103228  1  6
104229  1  1
105230  1  0
106231  1  0
106232  1  0
106233  1  0
110234  1  0
110235  1  0
111236  1  0
111237  1  0
112238  1  0
112239  1  0
113240  1  0
116241  1  0
117242  1  1
118243  1  0
118244  1  0
118245  1  0
121246  1  0
122247  1  0
122248  1  0
125249  1  0
126250  1  0
126251  1  0
M  CHG  3  43  -1  53   1 129  -1
M  END
