
     RDKit          2D

206212  0  0  0  0  0  0  0  0999 V2000
   15.0093   -1.2924    0.0000 C   0  0  0  0  0  0  0  0  0  0  0  0
   16.3565   -0.6328    0.0000 N   0  0  0  0  0  0  0  0  0  0  0  0
   17.6013   -1.4697    0.0000 C   0  0  0  0  0  0  0  0  0  0  0  0
   17.4990   -2.9662    0.0000 C   0  0  0  0  0  0  0  0  0  0  0  0
   18.7438   -3.8031    0.0000 C   0  0  0  0  0  0  0  0  0  0  0  0
   20.0910   -3.1434    0.0000 C   0  0  0  0  0  0  0  0  0  0  0  0
   20.1933   -1.6469    0.0000 C   0  0  0  0  0  0  0  0  0  0  0  0
   18.9485   -0.8100    0.0000 C   0  0  0  0  0  0  0  0  0  0  0  0
   21.6482   -1.2818    0.0000 C   0  0  0  0  0  0  0  0  0  0  0  0
   22.4451   -2.5527    0.0000 O   0  0  0  0  0  0  0  0  0  0  0  0
   21.4826   -3.7032    0.0000 C   0  0  0  0  0  0  0  0  0  0  0  0
   21.8478   -5.1581    0.0000 O   0  0  0  0  0  0  0  0  0  0  0  0
   23.1333   -1.0708    0.0000 C   0  0  0  0  0  0  0  0  0  0  0  0
   23.6931    0.3209    0.0000 C   0  0  0  0  0  0  0  0  0  0  0  0
   25.1782    0.5319    0.0000 C   0  0  0  0  0  0  0  0  0  0  0  0
   26.1035   -0.6487    0.0000 C   0  0  0  0  0  0  0  0  0  0  0  0
   25.5437   -2.0403    0.0000 C   0  0  0  0  0  0  0  0  0  0  0  0
   24.0586   -2.2514    0.0000 C   0  0  0  0  0  0  0  0  0  0  0  0
   27.5886   -0.4377    0.0000 O   0  0  0  0  0  0  0  0  0  0  0  0
   22.7678    1.5015    0.0000 O   0  0  0  0  0  0  0  0  0  0  0  0
   21.2827    1.2904    0.0000 C   0  0  0  0  0  0  0  0  0  0  0  0
   20.7229   -0.1012    0.0000 C   0  0  0  0  0  0  0  0  0  0  0  0
   19.4991    0.3372    0.0000 C   0  0  0  0  0  0  0  0  0  0  0  0
   19.0056    0.9668    0.0000 C   0  0  0  0  0  0  0  0  0  0  0  0
   19.3041    1.7090    0.0000 C   0  0  0  0  0  0  0  0  0  0  0  0
   20.0962    1.8216    0.0000 C   0  0  0  0  0  0  0  0  0  0  0  0
   17.9470    3.4406    0.0000 O   0  0  0  0  0  0  0  0  0  0  0  0
   14.9070   -2.7889    0.0000 S   0  0  0  0  0  0  0  0  0  0  0  0
   13.7645   -0.4555    0.0000 N   0  0  0  0  0  0  0  0  0  0  0  0
   12.4173   -1.1151    0.0000 C   0  0  0  0  0  0  0  0  0  0  0  0
   11.1724   -0.2783    0.0000 C   0  0  0  0  0  0  0  0  0  0  0  0
    9.8253   -0.9379    0.0000 C   0  0  0  0  0  0  0  0  0  0  0  0
    9.7229   -2.4344    0.0000 O   0  0  0  0  0  0  0  0  0  0  0  0
    8.5804   -0.1010    0.0000 N   0  0  0  0  0  0  0  0  0  0  0  0
    7.2332   -0.7606    0.0000 C   0  0  0  0  0  0  0  0  0  0  0  0
    6.1929   -1.8412    0.0000 C   0  0  0  0  0  0  0  0  0  0  0  0
    4.7369   -1.4806    0.0000 C   0  0  0  0  0  0  0  0  0  0  0  0
    3.6966   -2.5612    0.0000 C   0  0  0  0  0  0  0  0  0  0  0  0
    2.2406   -2.2005    0.0000 C   0  0  0  0  0  0  0  0  0  0  0  0
    1.2002   -3.2811    0.0000 N   0  0  0  0  0  0  0  0  0  0  0  0
    5.9884    0.0763    0.0000 C   0  0  0  0  0  0  0  0  0  0  0  0
    6.0907    1.5728    0.0000 O   0  0  0  0  0  0  0  0  0  0  0  0
    4.6412   -0.5834    0.0000 N   0  0  0  0  0  0  0  0  0  0  0  0
    3.3964    0.2535    0.0000 C   0  0  0  0  0  0  0  0  0  0  0  0
    2.5128    1.4657    0.0000 C   0  0  0  0  0  0  0  0  0  0  0  0
    3.1208    2.8369    0.0000 C   0  0  0  0  0  0  0  0  0  0  0  0
    2.2373    4.0491    0.0000 N   0  0  0  0  0  0  0  0  0  0  0  0
    4.6124    2.9960    0.0000 O   0  0  0  0  0  0  0  0  0  0  0  0
    2.0492   -0.4061    0.0000 C   0  0  0  0  0  0  0  0  0  0  0  0
    1.8422   -1.4798    0.0000 O   0  0  0  0  0  0  0  0  0  0  0  0
    0.8044    0.4308    0.0000 N   0  0  0  0  0  0  0  0  0  0  0  0
   -0.5428   -0.2289    0.0000 C   0  0  0  0  0  0  0  0  0  0  0  0
   -0.9397   -1.6754    0.0000 C   0  0  0  0  0  0  0  0  0  0  0  0
   -1.7453   -2.9407    0.0000 C   0  0  0  0  0  0  0  0  0  0  0  0
   -2.8880   -3.9124    0.0000 C   0  0  0  0  0  0  0  0  0  0  0  0
   -4.2664   -4.5040    0.0000 C   0  0  0  0  0  0  0  0  0  0  0  0
    0.6125   -1.1855    0.0000 C   0  0  0  0  0  0  0  0  0  0  0  0
   -0.5900    1.2704    0.0000 C   0  0  0  0  0  0  0  0  0  0  0  0
    0.7763    1.8895    0.0000 O   0  0  0  0  0  0  0  0  0  0  0  0
   -1.0770    2.6892    0.0000 N   0  0  0  0  0  0  0  0  0  0  0  0
   -1.9605    3.9013    0.0000 C   0  0  0  0  0  0  0  0  0  0  0  0
   -1.6363    5.3659    0.0000 C   0  0  0  0  0  0  0  0  0  0  0  0
   -1.8325    6.8530    0.0000 O   0  0  0  0  0  0  0  0  0  0  0  0
   -0.2058    5.8173    0.0000 C   0  0  0  0  0  0  0  0  0  0  0  0
   -3.1621    4.7992    0.0000 C   0  0  0  0  0  0  0  0  0  0  0  0
   -2.4533    6.1212    0.0000 O   0  0  0  0  0  0  0  0  0  0  0  0
   -4.5750    5.3030    0.0000 N   0  0  0  0  0  0  0  0  0  0  0  0
   -6.0736    5.3680    0.0000 C   0  0  0  0  0  0  0  0  0  0  0  0
   -7.0164    6.5347    0.0000 C   0  0  0  0  0  0  0  0  0  0  0  0
   -6.4775    7.9345    0.0000 C   0  0  0  0  0  0  0  0  0  0  0  0
   -7.2933    9.1933    0.0000 C   0  0  0  0  0  0  0  0  0  0  0  0
   -6.3482   10.3581    0.0000 N   0  0  0  0  0  0  0  0  0  0  0  0
   -4.9483    9.8192    0.0000 C   0  0  0  0  0  0  0  0  0  0  0  0
   -5.0283    8.3214    0.0000 N   0  0  0  0  0  0  0  0  0  0  0  0
   -7.5247    4.9884    0.0000 C   0  0  0  0  0  0  0  0  0  0  0  0
   -8.1164    6.3668    0.0000 O   0  0  0  0  0  0  0  0  0  0  0  0
   -8.7995    4.1980    0.0000 N   0  0  0  0  0  0  0  0  0  0  0  0
   -9.7847    3.0668    0.0000 C   0  0  0  0  0  0  0  0  0  0  0  0
  -11.2847    3.0571    0.0000 C   0  0  0  0  0  0  0  0  0  0  0  0
  -12.0431    4.3512    0.0000 C   0  0  0  0  0  0  0  0  0  0  0  0
  -13.5431    4.3414    0.0000 C   0  0  0  0  0  0  0  0  0  0  0  0
  -14.3016    5.6355    0.0000 N   0  0  0  0  0  0  0  0  0  0  0  0
  -14.2846    3.0375    0.0000 O   0  0  0  0  0  0  0  0  0  0  0  0
  -10.3927    1.6956    0.0000 C   0  0  0  0  0  0  0  0  0  0  0  0
  -11.8393    2.0924    0.0000 O   0  0  0  0  0  0  0  0  0  0  0  0
  -10.5695    0.2060    0.0000 N   0  0  0  0  0  0  0  0  0  0  0  0
  -10.2994   -1.2694    0.0000 C   0  0  0  0  0  0  0  0  0  0  0  0
   -9.6064   -2.5998    0.0000 C   0  0  0  0  0  0  0  0  0  0  0  0
   -8.5521   -3.6667    0.0000 C   0  0  0  0  0  0  0  0  0  0  0  0
   -7.2301   -4.3755    0.0000 C   0  0  0  0  0  0  0  0  0  0  0  0
   -5.7579   -4.6631    0.0000 C   0  0  0  0  0  0  0  0  0  0  0  0
  -11.7554   -0.9088    0.0000 C   0  0  0  0  0  0  0  0  0  0  0  0
  -11.2270   -2.4483    0.0000 C   0  0  0  0  0  0  0  0  0  0  0  0
  -11.0234   -3.9344    0.0000 O   0  0  0  0  0  0  0  0  0  0  0  0
  -12.7117   -2.2344    0.0000 N   0  0  0  0  0  0  0  0  0  0  0  0
  -13.6392   -3.4132    0.0000 C   0  0  0  0  0  0  0  0  0  0  0  0
  -14.1077   -4.8382    0.0000 C   0  0  0  0  0  0  0  0  0  0  0  0
  -15.5760   -5.1450    0.0000 C   0  0  0  0  0  0  0  0  0  0  0  0
  -16.0444   -6.5699    0.0000 O   0  0  0  0  0  0  0  0  0  0  0  0
  -16.2353   -4.6970    0.0000 O   0  0  0  0  0  0  0  0  0  0  0  0
  -15.1239   -3.1993    0.0000 C   0  0  0  0  0  0  0  0  0  0  0  0
  -15.6810   -1.8066    0.0000 O   0  0  0  0  0  0  0  0  0  0  0  0
  -16.0515   -4.3781    0.0000 N   0  0  0  0  0  0  0  0  0  0  0  0
  -17.5361   -4.1642    0.0000 C   0  0  0  0  0  0  0  0  0  0  0  0
  -18.8581   -3.4555    0.0000 C   0  0  0  0  0  0  0  0  0  0  0  0
  -20.1329   -4.2459    0.0000 C   0  0  0  0  0  0  0  0  0  0  0  0
  -19.8580   -2.3373    0.0000 C   0  0  0  0  0  0  0  0  0  0  0  0
  -19.3895   -0.9123    0.0000 C   0  0  0  0  0  0  0  0  0  0  0  0
  -18.4637   -5.3431    0.0000 C   0  0  0  0  0  0  0  0  0  0  0  0
  -19.9634   -5.3117    0.0000 O   0  0  0  0  0  0  0  0  0  0  0  0
  -17.9066   -6.7358    0.0000 O   0  0  0  0  0  0  0  0  0  0  0  0
   16.2756    0.8650    0.0000 H   0  0  0  0  0  0  0  0  0  0  0  0
   16.1518   -3.6258    0.0000 H   0  0  0  0  0  0  0  0  0  0  0  0
   18.6415   -5.2996    0.0000 H   0  0  0  0  0  0  0  0  0  0  0  0
   18.6857    0.6668    0.0000 H   0  0  0  0  0  0  0  0  0  0  0  0
   25.7379    1.9235    0.0000 H   0  0  0  0  0  0  0  0  0  0  0  0
   26.4690   -3.2209    0.0000 H   0  0  0  0  0  0  0  0  0  0  0  0
   23.4988   -3.6430    0.0000 H   0  0  0  0  0  0  0  0  0  0  0  0
   28.5139   -1.6183    0.0000 H   0  0  0  0  0  0  0  0  0  0  0  0
   18.6781   -1.7039    0.0000 H   0  0  0  0  0  0  0  0  0  0  0  0
   16.8128    0.8399    0.0000 H   0  0  0  0  0  0  0  0  0  0  0  0
   20.9172    3.8627    0.0000 H   0  0  0  0  0  0  0  0  0  0  0  0
   18.5068    4.8322    0.0000 H   0  0  0  0  0  0  0  0  0  0  0  0
   13.8668    1.0410    0.0000 H   0  0  0  0  0  0  0  0  0  0  0  0
   11.3769   -2.1958    0.0000 H   0  0  0  0  0  0  0  0  0  0  0  0
   13.3008   -2.3273    0.0000 H   0  0  0  0  0  0  0  0  0  0  0  0
   10.2889    0.9339    0.0000 H   0  0  0  0  0  0  0  0  0  0  0  0
   12.2128    0.8023    0.0000 H   0  0  0  0  0  0  0  0  0  0  0  0
    8.6828    1.3955    0.0000 H   0  0  0  0  0  0  0  0  0  0  0  0
    8.1168   -1.9728    0.0000 H   0  0  0  0  0  0  0  0  0  0  0  0
    5.7566   -3.2764    0.0000 H   0  0  0  0  0  0  0  0  0  0  0  0
    7.4377   -2.6781    0.0000 H   0  0  0  0  0  0  0  0  0  0  0  0
    3.6034   -0.4982    0.0000 H   0  0  0  0  0  0  0  0  0  0  0  0
    4.6298    0.0156    0.0000 H   0  0  0  0  0  0  0  0  0  0  0  0
    3.2603   -3.9963    0.0000 H   0  0  0  0  0  0  0  0  0  0  0  0
    4.8301   -3.5436    0.0000 H   0  0  0  0  0  0  0  0  0  0  0  0
    0.9957   -1.3637    0.0000 H   0  0  0  0  0  0  0  0  0  0  0  0
    2.6769   -0.7654    0.0000 H   0  0  0  0  0  0  0  0  0  0  0  0
   -0.2883   -3.4664    0.0000 H   0  0  0  0  0  0  0  0  0  0  0  0
    0.5922   -4.6524    0.0000 H   0  0  0  0  0  0  0  0  0  0  0  0
    2.3338   -4.2635    0.0000 H   0  0  0  0  0  0  0  0  0  0  0  0
    4.1798   -2.0106    0.0000 H   0  0  0  0  0  0  0  0  0  0  0  0
    4.4367    1.3341    0.0000 H   0  0  0  0  0  0  0  0  0  0  0  0
    1.5075    2.5789    0.0000 H   0  0  0  0  0  0  0  0  0  0  0  0
    1.3485    0.5199    0.0000 H   0  0  0  0  0  0  0  0  0  0  0  0
    2.8453    5.4204    0.0000 H   0  0  0  0  0  0  0  0  0  0  0  0
    0.7458    3.8900    0.0000 H   0  0  0  0  0  0  0  0  0  0  0  0
    0.9067    1.9273    0.0000 H   0  0  0  0  0  0  0  0  0  0  0  0
    0.5421   -1.4422    0.0000 H   0  0  0  0  0  0  0  0  0  0  0  0
   -0.2767   -3.0210    0.0000 H   0  0  0  0  0  0  0  0  0  0  0  0
   -0.4359   -3.6726    0.0000 H   0  0  0  0  0  0  0  0  0  0  0  0
   -1.1570   -4.3206    0.0000 H   0  0  0  0  0  0  0  0  0  0  0  0
   -1.6207   -4.7148    0.0000 H   0  0  0  0  0  0  0  0  0  0  0  0
   -2.9156   -5.4121    0.0000 H   0  0  0  0  0  0  0  0  0  0  0  0
   -3.8868   -5.9552    0.0000 H   0  0  0  0  0  0  0  0  0  0  0  0
    0.5438   -2.6839    0.0000 H   0  0  0  0  0  0  0  0  0  0  0  0
    2.0762   -1.5134    0.0000 H   0  0  0  0  0  0  0  0  0  0  0  0
    1.7721   -0.2341    0.0000 H   0  0  0  0  0  0  0  0  0  0  0  0
    0.1589    3.5391    0.0000 H   0  0  0  0  0  0  0  0  0  0  0  0
   -0.4658    4.0269    0.0000 H   0  0  0  0  0  0  0  0  0  0  0  0
   -3.0746    5.7915    0.0000 H   0  0  0  0  0  0  0  0  0  0  0  0
   -0.7630    7.9047    0.0000 H   0  0  0  0  0  0  0  0  0  0  0  0
    0.2945    7.2314    0.0000 H   0  0  0  0  0  0  0  0  0  0  0  0
    1.2927    5.7523    0.0000 H   0  0  0  0  0  0  0  0  0  0  0  0
   -0.0096    4.3302    0.0000 H   0  0  0  0  0  0  0  0  0  0  0  0
   -4.2873    6.7752    0.0000 H   0  0  0  0  0  0  0  0  0  0  0  0
   -5.3980    6.7073    0.0000 H   0  0  0  0  0  0  0  0  0  0  0  0
   -8.3014    7.3085    0.0000 H   0  0  0  0  0  0  0  0  0  0  0  0
   -8.2460    5.6756    0.0000 H   0  0  0  0  0  0  0  0  0  0  0  0
   -8.7911    9.2733    0.0000 H   0  0  0  0  0  0  0  0  0  0  0  0
   -6.7350   11.8074    0.0000 H   0  0  0  0  0  0  0  0  0  0  0  0
   -3.6895   10.6350    0.0000 H   0  0  0  0  0  0  0  0  0  0  0  0
   -9.7712    5.3407    0.0000 H   0  0  0  0  0  0  0  0  0  0  0  0
  -10.2397    4.4962    0.0000 H   0  0  0  0  0  0  0  0  0  0  0  0
  -12.6908    2.5348    0.0000 H   0  0  0  0  0  0  0  0  0  0  0  0
  -11.3796    1.5601    0.0000 H   0  0  0  0  0  0  0  0  0  0  0  0
  -12.3132    5.8267    0.0000 H   0  0  0  0  0  0  0  0  0  0  0  0
  -10.7111    5.0409    0.0000 H   0  0  0  0  0  0  0  0  0  0  0  0
  -15.8015    5.6257    0.0000 H   0  0  0  0  0  0  0  0  0  0  0  0
  -13.5600    6.9394    0.0000 H   0  0  0  0  0  0  0  0  0  0  0  0
  -12.0688    0.1589    0.0000 H   0  0  0  0  0  0  0  0  0  0  0  0
  -10.1453   -3.9996    0.0000 H   0  0  0  0  0  0  0  0  0  0  0  0
  -11.0391   -3.0442    0.0000 H   0  0  0  0  0  0  0  0  0  0  0  0
   -8.8361   -5.1396    0.0000 H   0  0  0  0  0  0  0  0  0  0  0  0
   -9.7901   -4.5137    0.0000 H   0  0  0  0  0  0  0  0  0  0  0  0
   -6.8868   -5.8357    0.0000 H   0  0  0  0  0  0  0  0  0  0  0  0
   -8.2997   -5.4272    0.0000 H   0  0  0  0  0  0  0  0  0  0  0  0
   -5.8229   -6.1617    0.0000 H   0  0  0  0  0  0  0  0  0  0  0  0
  -13.0263   -1.7055    0.0000 H   0  0  0  0  0  0  0  0  0  0  0  0
  -12.8890    0.0736    0.0000 H   0  0  0  0  0  0  0  0  0  0  0  0
  -11.4973    0.5688    0.0000 H   0  0  0  0  0  0  0  0  0  0  0  0
  -13.4344   -0.9200    0.0000 H   0  0  0  0  0  0  0  0  0  0  0  0
  -12.3173   -4.1220    0.0000 H   0  0  0  0  0  0  0  0  0  0  0  0
  -14.0605   -6.3374    0.0000 H   0  0  0  0  0  0  0  0  0  0  0  0
  -12.6230   -5.0521    0.0000 H   0  0  0  0  0  0  0  0  0  0  0  0
  -15.8479   -5.8642    0.0000 H   0  0  0  0  0  0  0  0  0  0  0  0
  -17.0677   -2.7393    0.0000 H   0  0  0  0  0  0  0  0  0  0  0  0
  -17.7938   -2.3985    0.0000 H   0  0  0  0  0  0  0  0  0  0  0  0
  -21.5315   -3.7036    0.0000 H   0  0  0  0  0  0  0  0  0  0  0  0
  -21.0605   -5.4248    0.0000 H   0  0  0  0  0  0  0  0  0  0  0  0
  -19.6003   -5.6482    0.0000 H   0  0  0  0  0  0  0  0  0  0  0  0
  -21.1800   -1.6285    0.0000 H   0  0  0  0  0  0  0  0  0  0  0  0
  -20.9223   -3.3942    0.0000 H   0  0  0  0  0  0  0  0  0  0  0  0
  -20.3894    0.2059    0.0000 H   0  0  0  0  0  0  0  0  0  0  0  0
  -18.4620    0.2665    0.0000 H   0  0  0  0  0  0  0  0  0  0  0  0
  -17.9910   -1.4547    0.0000 H   0  0  0  0  0  0  0  0  0  0  0  0
  1  2  1  0
  2  3  1  0
  3  4  2  0
  4  5  1  0
  5  6  2  0
  6  7  1  0
  7  8  2  0
  7  9  1  0
  9 10  1  0
 10 11  1  0
 11 12  2  0
  9 13  1  0
 13 14  1  0
 14 15  2  0
 15 16  1  0
 16 17  2  0
 17 18  1  0
 16 19  1  0
 14 20  1  0
 20 21  1  0
 21 22  2  0
 22 23  1  0
 23 24  2  0
 24 25  1  0
 25 26  2  0
 25 27  1  0
  1 28  2  0
  1 29  1  0
 29 30  1  0
 30 31  1  0
 31 32  1  0
 32 33  2  0
 32 34  1  0
 34 35  1  0
 35 36  1  0
 36 37  1  0
 37 38  1  0
 38 39  1  0
 39 40  1  0
 35 41  1  0
 41 42  2  0
 41 43  1  0
 43 44  1  0
 44 45  1  0
 45 46  1  0
 46 47  1  0
 46 48  2  0
 44 49  1  0
 49 50  2  0
 49 51  1  0
 52 51  1  1
 52 53  1  0
 53 54  1  0
 54 55  1  0
 55 56  1  0
 52 57  1  0
 52 58  1  0
 58 59  2  0
 58 60  1  0
 60 61  1  0
 61 62  1  0
 62 63  1  0
 62 64  1  0
 61 65  1  0
 65 66  2  0
 65 67  1  0
 67 68  1  0
 68 69  1  0
 69 70  1  0
 70 71  2  0
 71 72  1  0
 72 73  1  0
 73 74  2  0
 68 75  1  0
 75 76  2  0
 75 77  1  0
 77 78  1  0
 78 79  1  0
 79 80  1  0
 80 81  1  0
 81 82  1  0
 81 83  2  0
 78 84  1  0
 84 85  2  0
 84 86  1  0
 86 87  1  0
 87 88  1  0
 88 89  1  0
 89 90  1  0
 90 91  1  0
 87 92  1  0
 87 93  1  1
 93 94  2  0
 93 95  1  0
 95 96  1  0
 96 97  1  0
 97 98  1  0
 98 99  2  0
 98100  1  0
 96101  1  0
101102  2  0
101103  1  0
103104  1  0
104105  1  0
105106  1  0
105107  1  0
107108  1  0
104109  1  0
109110  2  0
109111  1  0
  8  3  1  0
 74 70  1  0
 11  6  1  0
 56 91  2  0
 18 13  2  0
 22  9  1  0
 26 21  1  0
  2112  1  0
  4113  1  0
  5114  1  0
  8115  1  0
 15116  1  0
 17117  1  0
 18118  1  0
 19119  1  0
 23120  1  0
 24121  1  0
 26122  1  0
 27123  1  0
 29124  1  0
 30125  1  0
 30126  1  0
 31127  1  0
 31128  1  0
 34129  1  0
 35130  1  1
 36131  1  0
 36132  1  0
 37133  1  0
 37134  1  0
 38135  1  0
 38136  1  0
 39137  1  0
 39138  1  0
 40139  1  0
 40140  1  0
 40141  1  0
 43142  1  0
 44143  1  6
 45144  1  0
 45145  1  0
 47146  1  0
 47147  1  0
 51148  1  0
 53149  1  0
 53150  1  0
 54151  1  0
 54152  1  0
 55153  1  0
 55154  1  0
 56155  1  0
 57156  1  0
 57157  1  0
 57158  1  0
 60159  1  0
 61160  1  6
 62161  1  1
 63162  1  0
 64163  1  0
 64164  1  0
 64165  1  0
 67166  1  0
 68167  1  6
 69168  1  0
 69169  1  0
 71170  1  0
 72171  1  0
 73172  1  0
 77173  1  0
 78174  1  6
 79175  1  0
 79176  1  0
 80177  1  0
 80178  1  0
 82179  1  0
 82180  1  0
 86181  1  0
 88182  1  0
 88183  1  0
 89184  1  0
 89185  1  0
 90186  1  0
 90187  1  0
 91188  1  0
 92189  1  0
 92190  1  0
 92191  1  0
 95192  1  0
 96193  1  1
 97194  1  0
 97195  1  0
103196  1  0
104197  1  6
105198  1  6
106199  1  0
106200  1  0
106201  1  0
107202  1  0
107203  1  0
108204  1  0
108205  1  0
108206  1  0
M  CHG  3  40   1 100  -1 111  -1
M  END
