
     RDKit          2D

304305  0  0  0  0  0  0  0  0999 V2000
  -18.0726   -7.2860    0.0000 N   0  0  0  0  0  0  0  0  0  0  0  0
  -16.5812   -7.1252    0.0000 C   0  0  0  0  0  0  0  0  0  0  0  0
  -15.9748   -5.7533    0.0000 C   0  0  0  0  0  0  0  0  0  0  0  0
  -14.4834   -5.5925    0.0000 C   0  0  0  0  0  0  0  0  0  0  0  0
  -13.7528   -6.9025    0.0000 O   0  0  0  0  0  0  0  0  0  0  0  0
  -13.8770   -4.2205    0.0000 N   0  0  0  0  0  0  0  0  0  0  0  0
  -12.3856   -4.0598    0.0000 C   0  0  0  0  0  0  0  0  0  0  0  0
  -11.2783   -5.0716    0.0000 C   0  0  0  0  0  0  0  0  0  0  0  0
   -9.9219   -5.7120    0.0000 C   0  0  0  0  0  0  0  0  0  0  0  0
   -8.4370   -5.9242    0.0000 C   0  0  0  0  0  0  0  0  0  0  0  0
   -6.9555   -5.6893    0.0000 C   0  0  0  0  0  0  0  0  0  0  0  0
  -13.0227   -5.4177    0.0000 C   0  0  0  0  0  0  0  0  0  0  0  0
  -13.1456   -2.7665    0.0000 C   0  0  0  0  0  0  0  0  0  0  0  0
  -14.0016   -2.9937    0.0000 O   0  0  0  0  0  0  0  0  0  0  0  0
  -13.4905   -1.3067    0.0000 N   0  0  0  0  0  0  0  0  0  0  0  0
  -13.3899    0.1899    0.0000 C   0  0  0  0  0  0  0  0  0  0  0  0
  -14.7955   -0.3339    0.0000 C   0  0  0  0  0  0  0  0  0  0  0  0
  -15.9519    0.6215    0.0000 C   0  0  0  0  0  0  0  0  0  0  0  0
  -17.3574    0.0977    0.0000 C   0  0  0  0  0  0  0  0  0  0  0  0
  -18.5139    1.0530    0.0000 N   0  0  0  0  0  0  0  0  0  0  0  0
  -19.9194    0.5292    0.0000 C   0  0  0  0  0  0  0  0  0  0  0  0
  -21.0758    1.4846    0.0000 N   0  0  0  0  0  0  0  0  0  0  0  0
  -20.1686   -0.9500    0.0000 N   0  0  0  0  0  0  0  0  0  0  0  0
  -12.8526    1.5904    0.0000 C   0  0  0  0  0  0  0  0  0  0  0  0
  -14.1573    2.3304    0.0000 O   0  0  0  0  0  0  0  0  0  0  0  0
  -11.9264    2.7703    0.0000 N   0  0  0  0  0  0  0  0  0  0  0  0
  -10.6935    3.6247    0.0000 C   0  0  0  0  0  0  0  0  0  0  0  0
  -11.9794    4.3970    0.0000 C   0  0  0  0  0  0  0  0  0  0  0  0
  -11.9535    5.8968    0.0000 C   0  0  0  0  0  0  0  0  0  0  0  0
  -13.2394    6.6691    0.0000 C   0  0  0  0  0  0  0  0  0  0  0  0
  -13.2135    8.1689    0.0000 N   0  0  0  0  0  0  0  0  0  0  0  0
  -14.4993    8.9412    0.0000 C   0  0  0  0  0  0  0  0  0  0  0  0
  -14.4734   10.4410    0.0000 N   0  0  0  0  0  0  0  0  0  0  0  0
  -15.8111    8.2138    0.0000 N   0  0  0  0  0  0  0  0  0  0  0  0
   -9.2636    4.0778    0.0000 C   0  0  0  0  0  0  0  0  0  0  0  0
   -9.6773    5.5196    0.0000 O   0  0  0  0  0  0  0  0  0  0  0  0
   -7.7636    4.0893    0.0000 N   0  0  0  0  0  0  0  0  0  0  0  0
   -6.3269    3.6581    0.0000 C   0  0  0  0  0  0  0  0  0  0  0  0
   -6.5248    5.1450    0.0000 C   0  0  0  0  0  0  0  0  0  0  0  0
   -7.9115    5.7171    0.0000 C   0  0  0  0  0  0  0  0  0  0  0  0
   -8.1094    7.2040    0.0000 C   0  0  0  0  0  0  0  0  0  0  0  0
   -9.4960    7.7760    0.0000 N   0  0  0  0  0  0  0  0  0  0  0  0
   -9.6939    9.2629    0.0000 C   0  0  0  0  0  0  0  0  0  0  0  0
  -11.0805    9.8350    0.0000 N   0  0  0  0  0  0  0  0  0  0  0  0
   -8.5052   10.1777    0.0000 N   0  0  0  0  0  0  0  0  0  0  0  0
   -5.0811    2.8227    0.0000 C   0  0  0  0  0  0  0  0  0  0  0  0
   -4.7078    4.2755    0.0000 O   0  0  0  0  0  0  0  0  0  0  0  0
   -4.1369    1.6571    0.0000 N   0  0  0  0  0  0  0  0  0  0  0  0
   -3.5782    0.2650    0.0000 C   0  0  0  0  0  0  0  0  0  0  0  0
   -3.4547   -1.2299    0.0000 C   0  0  0  0  0  0  0  0  0  0  0  0
   -3.7773   -2.6948    0.0000 C   0  0  0  0  0  0  0  0  0  0  0  0
   -4.5173   -3.9995    0.0000 C   0  0  0  0  0  0  0  0  0  0  0  0
   -5.6090   -5.0282    0.0000 C   0  0  0  0  0  0  0  0  0  0  0  0
   -3.0835    1.7802    0.0000 C   0  0  0  0  0  0  0  0  0  0  0  0
   -3.0103    3.1451    0.0000 C   0  0  0  0  0  0  0  0  0  0  0  0
   -2.6802    4.4716    0.0000 C   0  0  0  0  0  0  0  0  0  0  0  0
   -2.1050    5.7116    0.0000 C   0  0  0  0  0  0  0  0  0  0  0  0
   -2.4576   -0.8683    0.0000 C   0  0  0  0  0  0  0  0  0  0  0  0
   -4.4642   -1.7703    0.0000 O   0  0  0  0  0  0  0  0  0  0  0  0
   -1.7812   -2.0562    0.0000 N   0  0  0  0  0  0  0  0  0  0  0  0
   -0.8922   -3.0945    0.0000 C   0  0  0  0  0  0  0  0  0  0  0  0
   -1.6942   -5.0646    0.0000 C   0  0  0  0  0  0  0  0  0  0  0  0
   -0.5823   -6.0714    0.0000 C   0  0  0  0  0  0  0  0  0  0  0  0
   -0.8982   -7.5377    0.0000 C   0  0  0  0  0  0  0  0  0  0  0  0
    0.2137   -8.5445    0.0000 N   0  0  0  0  0  0  0  0  0  0  0  0
   -0.1022  -10.0109    0.0000 C   0  0  0  0  0  0  0  0  0  0  0  0
    0.7331  -11.2568    0.0000 N   0  0  0  0  0  0  0  0  0  0  0  0
   -1.5301  -10.4704    0.0000 N   0  0  0  0  0  0  0  0  0  0  0  0
    0.1772   -3.9459    0.0000 C   0  0  0  0  0  0  0  0  0  0  0  0
   -0.3948   -5.2609    0.0000 O   0  0  0  0  0  0  0  0  0  0  0  0
    1.3884   -4.5794    0.0000 N   0  0  0  0  0  0  0  0  0  0  0  0
    2.6977   -4.9723    0.0000 C   0  0  0  0  0  0  0  0  0  0  0  0
    3.0881   -7.0633    0.0000 C   0  0  0  0  0  0  0  0  0  0  0  0
    2.1354   -8.2218    0.0000 C   0  0  0  0  0  0  0  0  0  0  0  0
    2.6624   -9.6262    0.0000 C   0  0  0  0  0  0  0  0  0  0  0  0
    1.7096  -10.7848    0.0000 N   0  0  0  0  0  0  0  0  0  0  0  0
    2.2366  -12.1892    0.0000 C   0  0  0  0  0  0  0  0  0  0  0  0
    1.2839  -13.3478    0.0000 N   0  0  0  0  0  0  0  0  0  0  0  0
    3.7164  -12.4350    0.0000 N   0  0  0  0  0  0  0  0  0  0  0  0
    4.0576   -5.1103    0.0000 C   0  0  0  0  0  0  0  0  0  0  0  0
    4.2274   -7.3002    0.0000 O   0  0  0  0  0  0  0  0  0  0  0  0
    5.4191   -4.9885    0.0000 N   0  0  0  0  0  0  0  0  0  0  0  0
    6.7329   -4.6112    0.0000 C   0  0  0  0  0  0  0  0  0  0  0  0
    8.1918   -6.1591    0.0000 C   0  0  0  0  0  0  0  0  0  0  0  0
    8.0167   -7.6489    0.0000 C   0  0  0  0  0  0  0  0  0  0  0  0
    9.2193   -8.5454    0.0000 C   0  0  0  0  0  0  0  0  0  0  0  0
    9.0442  -10.0351    0.0000 N   0  0  0  0  0  0  0  0  0  0  0  0
   10.2468  -10.9316    0.0000 C   0  0  0  0  0  0  0  0  0  0  0  0
   10.0717  -12.4214    0.0000 N   0  0  0  0  0  0  0  0  0  0  0  0
   11.6245  -10.3384    0.0000 N   0  0  0  0  0  0  0  0  0  0  0  0
    7.9516   -3.9921    0.0000 C   0  0  0  0  0  0  0  0  0  0  0  0
    9.2784   -5.7425    0.0000 O   0  0  0  0  0  0  0  0  0  0  0  0
    9.0311   -3.1535    0.0000 N   0  0  0  0  0  0  0  0  0  0  0  0
    9.9323   -2.1258    0.0000 C   0  0  0  0  0  0  0  0  0  0  0  0
   11.9965   -2.6392    0.0000 C   0  0  0  0  0  0  0  0  0  0  0  0
   12.6546   -3.9872    0.0000 C   0  0  0  0  0  0  0  0  0  0  0  0
   14.1510   -4.0912    0.0000 C   0  0  0  0  0  0  0  0  0  0  0  0
   14.8091   -5.4391    0.0000 N   0  0  0  0  0  0  0  0  0  0  0  0
   16.3055   -5.5431    0.0000 C   0  0  0  0  0  0  0  0  0  0  0  0
   16.9636   -6.8911    0.0000 N   0  0  0  0  0  0  0  0  0  0  0  0
   17.1438   -4.2992    0.0000 N   0  0  0  0  0  0  0  0  0  0  0  0
   10.6228   -0.9461    0.0000 C   0  0  0  0  0  0  0  0  0  0  0  0
   12.6853   -1.7013    0.0000 O   0  0  0  0  0  0  0  0  0  0  0  0
   11.0776    0.3430    0.0000 N   0  0  0  0  0  0  0  0  0  0  0  0
   11.2801    1.6948    0.0000 C   0  0  0  0  0  0  0  0  0  0  0  0
   13.2942    2.3788    0.0000 C   0  0  0  0  0  0  0  0  0  0  0  0
   14.5766    1.6007    0.0000 C   0  0  0  0  0  0  0  0  0  0  0  0
   15.8917    2.3222    0.0000 C   0  0  0  0  0  0  0  0  0  0  0  0
   17.1740    1.5440    0.0000 N   0  0  0  0  0  0  0  0  0  0  0  0
   18.4891    2.2655    0.0000 C   0  0  0  0  0  0  0  0  0  0  0  0
   19.7715    1.4874    0.0000 N   0  0  0  0  0  0  0  0  0  0  0  0
   18.5218    3.7652    0.0000 N   0  0  0  0  0  0  0  0  0  0  0  0
   11.2232    3.0606    0.0000 C   0  0  0  0  0  0  0  0  0  0  0  0
   13.3666    3.5403    0.0000 O   0  0  0  0  0  0  0  0  0  0  0  0
   10.9088    4.3908    0.0000 N   0  0  0  0  0  0  0  0  0  0  0  0
   10.3484    5.6376    0.0000 C   0  0  0  0  0  0  0  0  0  0  0  0
   11.6729    7.3019    0.0000 C   0  0  0  0  0  0  0  0  0  0  0  0
   13.1724    7.3406    0.0000 C   0  0  0  0  0  0  0  0  0  0  0  0
   13.8887    8.6585    0.0000 C   0  0  0  0  0  0  0  0  0  0  0  0
   15.3882    8.6972    0.0000 N   0  0  0  0  0  0  0  0  0  0  0  0
   16.1044   10.0152    0.0000 C   0  0  0  0  0  0  0  0  0  0  0  0
   17.6039   10.0539    0.0000 N   0  0  0  0  0  0  0  0  0  0  0  0
   15.3212   11.2944    0.0000 N   0  0  0  0  0  0  0  0  0  0  0  0
    9.5621    6.7557    0.0000 C   0  0  0  0  0  0  0  0  0  0  0  0
   11.1059    8.3181    0.0000 O   0  0  0  0  0  0  0  0  0  0  0  0
    8.5785    7.7049    0.0000 N   0  0  0  0  0  0  0  0  0  0  0  0
    7.4329    8.4507    0.0000 C   0  0  0  0  0  0  0  0  0  0  0  0
    6.1670    8.9663    0.0000 C   0  0  0  0  0  0  0  0  0  0  0  0
    4.8263    9.2329    0.0000 C   0  0  0  0  0  0  0  0  0  0  0  0
    3.4594    9.2411    0.0000 C   0  0  0  0  0  0  0  0  0  0  0  0
    2.1157    8.9904    0.0000 C   0  0  0  0  0  0  0  0  0  0  0  0
    0.8437    8.4899    0.0000 C   0  0  0  0  0  0  0  0  0  0  0  0
   -0.3106    7.7577    0.0000 C   0  0  0  0  0  0  0  0  0  0  0  0
   -1.3055    6.8203    0.0000 C   0  0  0  0  0  0  0  0  0  0  0  0
    9.0489    9.8338    0.0000 C   0  0  0  0  0  0  0  0  0  0  0  0
    7.6474   10.5669    0.0000 C   0  0  0  0  0  0  0  0  0  0  0  0
    8.7759   11.5551    0.0000 O   0  0  0  0  0  0  0  0  0  0  0  0
    6.4950   11.5271    0.0000 O   0  0  0  0  0  0  0  0  0  0  0  0
  -18.6790   -8.6579    0.0000 H   0  0  0  0  0  0  0  0  0  0  0  0
  -18.9575   -6.0748    0.0000 H   0  0  0  0  0  0  0  0  0  0  0  0
  -16.6819   -8.6218    0.0000 H   0  0  0  0  0  0  0  0  0  0  0  0
  -15.1248   -7.4842    0.0000 H   0  0  0  0  0  0  0  0  0  0  0  0
  -17.4312   -5.3943    0.0000 H   0  0  0  0  0  0  0  0  0  0  0  0
  -15.8742   -4.2566    0.0000 H   0  0  0  0  0  0  0  0  0  0  0  0
  -14.4222   -3.6390    0.0000 H   0  0  0  0  0  0  0  0  0  0  0  0
  -11.3042   -6.5713    0.0000 H   0  0  0  0  0  0  0  0  0  0  0  0
  -12.5734   -5.8283    0.0000 H   0  0  0  0  0  0  0  0  0  0  0  0
   -9.6833   -7.1929    0.0000 H   0  0  0  0  0  0  0  0  0  0  0  0
  -10.9364   -6.8169    0.0000 H   0  0  0  0  0  0  0  0  0  0  0  0
   -7.6135   -7.1780    0.0000 H   0  0  0  0  0  0  0  0  0  0  0  0
   -9.0808   -7.2790    0.0000 H   0  0  0  0  0  0  0  0  0  0  0  0
   -6.5024   -7.1192    0.0000 H   0  0  0  0  0  0  0  0  0  0  0  0
  -14.1909   -6.0966    0.0000 H   0  0  0  0  0  0  0  0  0  0  0  0
  -12.6142   -6.9461    0.0000 H   0  0  0  0  0  0  0  0  0  0  0  0
  -11.5778   -6.2722    0.0000 H   0  0  0  0  0  0  0  0  0  0  0  0
  -14.9854   -1.4303    0.0000 H   0  0  0  0  0  0  0  0  0  0  0  0
  -14.3077    1.3764    0.0000 H   0  0  0  0  0  0  0  0  0  0  0  0
  -15.8100   -1.4388    0.0000 H   0  0  0  0  0  0  0  0  0  0  0  0
  -14.3711   -1.7726    0.0000 H   0  0  0  0  0  0  0  0  0  0  0  0
  -16.7118    1.9147    0.0000 H   0  0  0  0  0  0  0  0  0  0  0  0
  -14.9373    1.7263    0.0000 H   0  0  0  0  0  0  0  0  0  0  0  0
  -18.4991   -0.8753    0.0000 H   0  0  0  0  0  0  0  0  0  0  0  0
  -16.7608   -1.2786    0.0000 H   0  0  0  0  0  0  0  0  0  0  0  0
  -18.2647    2.5322    0.0000 H   0  0  0  0  0  0  0  0  0  0  0  0
  -22.4814    0.9607    0.0000 H   0  0  0  0  0  0  0  0  0  0  0  0
  -20.8267    2.9637    0.0000 H   0  0  0  0  0  0  0  0  0  0  0  0
  -21.5742   -1.4738    0.0000 H   0  0  0  0  0  0  0  0  0  0  0  0
  -19.0122   -1.9053    0.0000 H   0  0  0  0  0  0  0  0  0  0  0  0
  -12.9550    3.8620    0.0000 H   0  0  0  0  0  0  0  0  0  0  0  0
  -10.3381    5.0820    0.0000 H   0  0  0  0  0  0  0  0  0  0  0  0
  -13.4758    4.5014    0.0000 H   0  0  0  0  0  0  0  0  0  0  0  0
  -12.8396    3.1682    0.0000 H   0  0  0  0  0  0  0  0  0  0  0  0
  -11.2495    7.2213    0.0000 H   0  0  0  0  0  0  0  0  0  0  0  0
  -10.4571    5.7925    0.0000 H   0  0  0  0  0  0  0  0  0  0  0  0
  -14.7119    6.9551    0.0000 H   0  0  0  0  0  0  0  0  0  0  0  0
  -13.9434    5.3446    0.0000 H   0  0  0  0  0  0  0  0  0  0  0  0
  -12.0001    9.0508    0.0000 H   0  0  0  0  0  0  0  0  0  0  0  0
  -15.7593   11.2133    0.0000 H   0  0  0  0  0  0  0  0  0  0  0  0
  -13.1616   11.1685    0.0000 H   0  0  0  0  0  0  0  0  0  0  0  0
  -17.0970    8.9861    0.0000 H   0  0  0  0  0  0  0  0  0  0  0  0
  -15.8371    6.7140    0.0000 H   0  0  0  0  0  0  0  0  0  0  0  0
   -7.9170    5.5814    0.0000 H   0  0  0  0  0  0  0  0  0  0  0  0
   -5.1590    4.5994    0.0000 H   0  0  0  0  0  0  0  0  0  0  0  0
   -6.0261    6.5597    0.0000 H   0  0  0  0  0  0  0  0  0  0  0  0
   -5.0296    5.2649    0.0000 H   0  0  0  0  0  0  0  0  0  0  0  0
   -9.3912    5.9626    0.0000 H   0  0  0  0  0  0  0  0  0  0  0  0
   -8.5789    4.3738    0.0000 H   0  0  0  0  0  0  0  0  0  0  0  0
   -7.7868    8.6689    0.0000 H   0  0  0  0  0  0  0  0  0  0  0  0
   -6.6142    7.3238    0.0000 H   0  0  0  0  0  0  0  0  0  0  0  0
  -10.5643    6.7231    0.0000 H   0  0  0  0  0  0  0  0  0  0  0  0
  -11.2784   11.3218    0.0000 H   0  0  0  0  0  0  0  0  0  0  0  0
  -12.3719    9.0718    0.0000 H   0  0  0  0  0  0  0  0  0  0  0  0
   -8.7031   11.6646    0.0000 H   0  0  0  0  0  0  0  0  0  0  0  0
   -7.1185    9.6057    0.0000 H   0  0  0  0  0  0  0  0  0  0  0  0
   -2.8437    2.4170    0.0000 H   0  0  0  0  0  0  0  0  0  0  0  0
   -2.1429   -0.5024    0.0000 H   0  0  0  0  0  0  0  0  0  0  0  0
   -2.3704   -2.2663    0.0000 H   0  0  0  0  0  0  0  0  0  0  0  0
   -2.2963   -2.9330    0.0000 H   0  0  0  0  0  0  0  0  0  0  0  0
   -3.2117   -4.0841    0.0000 H   0  0  0  0  0  0  0  0  0  0  0  0
   -3.1723   -4.6636    0.0000 H   0  0  0  0  0  0  0  0  0  0  0  0
   -4.0287   -5.4177    0.0000 H   0  0  0  0  0  0  0  0  0  0  0  0
   -4.7546   -6.2610    0.0000 H   0  0  0  0  0  0  0  0  0  0  0  0
   -5.0234    0.9078    0.0000 H   0  0  0  0  0  0  0  0  0  0  0  0
   -4.9897    2.6418    0.0000 H   0  0  0  0  0  0  0  0  0  0  0  0
   -5.2014    3.1889    0.0000 H   0  0  0  0  0  0  0  0  0  0  0  0
   -4.5770    4.4677    0.0000 H   0  0  0  0  0  0  0  0  0  0  0  0
   -4.8397    4.7468    0.0000 H   0  0  0  0  0  0  0  0  0  0  0  0
   -4.2792    5.8743    0.0000 H   0  0  0  0  0  0  0  0  0  0  0  0
   -4.0037    6.8229    0.0000 H   0  0  0  0  0  0  0  0  0  0  0  0
   -3.1900   -3.7041    0.0000 H   0  0  0  0  0  0  0  0  0  0  0  0
   -2.7767   -4.1409    0.0000 H   0  0  0  0  0  0  0  0  0  0  0  0
   -2.6414   -6.2277    0.0000 H   0  0  0  0  0  0  0  0  0  0  0  0
   -3.1939   -5.0344    0.0000 H   0  0  0  0  0  0  0  0  0  0  0  0
    0.7276   -6.8023    0.0000 H   0  0  0  0  0  0  0  0  0  0  0  0
    0.4997   -5.0325    0.0000 H   0  0  0  0  0  0  0  0  0  0  0  0
   -1.6966   -8.8076    0.0000 H   0  0  0  0  0  0  0  0  0  0  0  0
   -2.3460   -7.1455    0.0000 H   0  0  0  0  0  0  0  0  0  0  0  0
    1.7104   -8.4441    0.0000 H   0  0  0  0  0  0  0  0  0  0  0  0
    0.6938  -12.4840    0.0000 H   0  0  0  0  0  0  0  0  0  0  0  0
    2.5560  -10.9913    0.0000 H   0  0  0  0  0  0  0  0  0  0  0  0
   -1.8460  -11.9368    0.0000 H   0  0  0  0  0  0  0  0  0  0  0  0
   -2.6420   -9.4637    0.0000 H   0  0  0  0  0  0  0  0  0  0  0  0
    0.5587   -6.6170    0.0000 H   0  0  0  0  0  0  0  0  0  0  0  0
    1.5368   -6.7547    0.0000 H   0  0  0  0  0  0  0  0  0  0  0  0
    4.0637   -8.2027    0.0000 H   0  0  0  0  0  0  0  0  0  0  0  0
    4.5259   -6.6356    0.0000 H   0  0  0  0  0  0  0  0  0  0  0  0
    1.0668   -9.2745    0.0000 H   0  0  0  0  0  0  0  0  0  0  0  0
    1.0282   -7.2098    0.0000 H   0  0  0  0  0  0  0  0  0  0  0  0
    3.6379  -10.7657    0.0000 H   0  0  0  0  0  0  0  0  0  0  0  0
    4.0373   -9.0265    0.0000 H   0  0  0  0  0  0  0  0  0  0  0  0
    0.2144  -10.9044    0.0000 H   0  0  0  0  0  0  0  0  0  0  0  0
    1.8109  -14.7521    0.0000 H   0  0  0  0  0  0  0  0  0  0  0  0
   -0.1958  -13.1020    0.0000 H   0  0  0  0  0  0  0  0  0  0  0  0
    4.2434  -13.8394    0.0000 H   0  0  0  0  0  0  0  0  0  0  0  0
    4.6691  -11.2764    0.0000 H   0  0  0  0  0  0  0  0  0  0  0  0
    5.6408   -7.1737    0.0000 H   0  0  0  0  0  0  0  0  0  0  0  0
    6.5421   -6.6944    0.0000 H   0  0  0  0  0  0  0  0  0  0  0  0
    9.6285   -6.5903    0.0000 H   0  0  0  0  0  0  0  0  0  0  0  0
    9.1701   -5.0220    0.0000 H   0  0  0  0  0  0  0  0  0  0  0  0
    7.3426   -8.9889    0.0000 H   0  0  0  0  0  0  0  0  0  0  0  0
    6.5184   -7.5782    0.0000 H   0  0  0  0  0  0  0  0  0  0  0  0
   10.6560   -8.9765    0.0000 H   0  0  0  0  0  0  0  0  0  0  0  0
   10.0517   -7.2975    0.0000 H   0  0  0  0  0  0  0  0  0  0  0  0
    7.6665  -10.6283    0.0000 H   0  0  0  0  0  0  0  0  0  0  0  0
   11.2743  -13.3179    0.0000 H   0  0  0  0  0  0  0  0  0  0  0  0
    8.6940  -13.0146    0.0000 H   0  0  0  0  0  0  0  0  0  0  0  0
   12.8271  -11.2350    0.0000 H   0  0  0  0  0  0  0  0  0  0  0  0
   11.7996   -8.8487    0.0000 H   0  0  0  0  0  0  0  0  0  0  0  0
   10.3990   -4.8719    0.0000 H   0  0  0  0  0  0  0  0  0  0  0  0
   10.8981   -3.9814    0.0000 H   0  0  0  0  0  0  0  0  0  0  0  0
   13.4382   -2.2252    0.0000 H   0  0  0  0  0  0  0  0  0  0  0  0
   12.2047   -1.1538    0.0000 H   0  0  0  0  0  0  0  0  0  0  0  0
   12.8120   -5.4789    0.0000 H   0  0  0  0  0  0  0  0  0  0  0  0
   11.3559   -4.7378    0.0000 H   0  0  0  0  0  0  0  0  0  0  0  0
   15.5927   -3.6771    0.0000 H   0  0  0  0  0  0  0  0  0  0  0  0
   14.1766   -2.5914    0.0000 H   0  0  0  0  0  0  0  0  0  0  0  0
   13.9708   -6.6830    0.0000 H   0  0  0  0  0  0  0  0  0  0  0  0
   18.4600   -6.9951    0.0000 H   0  0  0  0  0  0  0  0  0  0  0  0
   16.1253   -8.1350    0.0000 H   0  0  0  0  0  0  0  0  0  0  0  0
   18.6401   -4.4033    0.0000 H   0  0  0  0  0  0  0  0  0  0  0  0
   16.4857   -2.9513    0.0000 H   0  0  0  0  0  0  0  0  0  0  0  0
   13.1574   -0.3631    0.0000 H   0  0  0  0  0  0  0  0  0  0  0  0
   13.0958    0.6558    0.0000 H   0  0  0  0  0  0  0  0  0  0  0  0
   14.2832    3.5066    0.0000 H   0  0  0  0  0  0  0  0  0  0  0  0
   12.6663    3.7411    0.0000 H   0  0  0  0  0  0  0  0  0  0  0  0
   15.5155    0.4309    0.0000 H   0  0  0  0  0  0  0  0  0  0  0  0
   13.8898    0.2671    0.0000 H   0  0  0  0  0  0  0  0  0  0  0  0
   16.8807    3.4500    0.0000 H   0  0  0  0  0  0  0  0  0  0  0  0
   15.1024    3.5977    0.0000 H   0  0  0  0  0  0  0  0  0  0  0  0
   17.1413    0.0444    0.0000 H   0  0  0  0  0  0  0  0  0  0  0  0
   21.0866    2.2089    0.0000 H   0  0  0  0  0  0  0  0  0  0  0  0
   19.7388   -0.0123    0.0000 H   0  0  0  0  0  0  0  0  0  0  0  0
   19.8369    4.4867    0.0000 H   0  0  0  0  0  0  0  0  0  0  0  0
   17.2395    4.5433    0.0000 H   0  0  0  0  0  0  0  0  0  0  0  0
   13.0403    4.9213    0.0000 H   0  0  0  0  0  0  0  0  0  0  0  0
   12.4375    5.7452    0.0000 H   0  0  0  0  0  0  0  0  0  0  0  0
   11.8952    8.7854    0.0000 H   0  0  0  0  0  0  0  0  0  0  0  0
   10.4082    8.1084    0.0000 H   0  0  0  0  0  0  0  0  0  0  0  0
   14.5947    6.8641    0.0000 H   0  0  0  0  0  0  0  0  0  0  0  0
   13.3157    5.8475    0.0000 H   0  0  0  0  0  0  0  0  0  0  0  0
   14.1110   10.1420    0.0000 H   0  0  0  0  0  0  0  0  0  0  0  0
   12.5351    9.3049    0.0000 H   0  0  0  0  0  0  0  0  0  0  0  0
   16.1714    7.4180    0.0000 H   0  0  0  0  0  0  0  0  0  0  0  0
   18.3202   11.3718    0.0000 H   0  0  0  0  0  0  0  0  0  0  0  0
   18.3872    8.7746    0.0000 H   0  0  0  0  0  0  0  0  0  0  0  0
   16.0374   12.6124    0.0000 H   0  0  0  0  0  0  0  0  0  0  0  0
   13.8217   11.2558    0.0000 H   0  0  0  0  0  0  0  0  0  0  0  0
   10.0848    9.3035    0.0000 H   0  0  0  0  0  0  0  0  0  0  0  0
    5.9771   11.0849    0.0000 H   0  0  0  0  0  0  0  0  0  0  0  0
    7.2182   10.8726    0.0000 H   0  0  0  0  0  0  0  0  0  0  0  0
    4.4081   11.3475    0.0000 H   0  0  0  0  0  0  0  0  0  0  0  0
    5.4978   11.3038    0.0000 H   0  0  0  0  0  0  0  0  0  0  0  0
    2.6486   11.2382    0.0000 H   0  0  0  0  0  0  0  0  0  0  0  0
    3.9027   11.3505    0.0000 H   0  0  0  0  0  0  0  0  0  0  0  0
    0.9416   10.7980    0.0000 H   0  0  0  0  0  0  0  0  0  0  0  0
    2.1518   11.1455    0.0000 H   0  0  0  0  0  0  0  0  0  0  0  0
   -0.6513   10.0426    0.0000 H   0  0  0  0  0  0  0  0  0  0  0  0
    0.4713   10.6129    0.0000 H   0  0  0  0  0  0  0  0  0  0  0  0
   -2.1465    8.8319    0.0000 H   0  0  0  0  0  0  0  0  0  0  0  0
   -1.0781    9.7719    0.0000 H   0  0  0  0  0  0  0  0  0  0  0  0
   -2.9595    8.2709    0.0000 H   0  0  0  0  0  0  0  0  0  0  0  0
    9.2170   11.3244    0.0000 H   0  0  0  0  0  0  0  0  0  0  0  0
   10.4790   10.2866    0.0000 H   0  0  0  0  0  0  0  0  0  0  0  0
    9.9001    8.5987    0.0000 H   0  0  0  0  0  0  0  0  0  0  0  0
  1  2  1  0
  2  3  1  0
  3  4  1  0
  4  5  2  0
  4  6  1  0
  7  6  1  6
  7  8  1  0
  8  9  1  0
  9 10  1  0
 10 11  1  0
  7 12  1  0
  7 13  1  0
 13 14  2  0
 13 15  1  0
 15 16  1  0
 16 17  1  0
 17 18  1  0
 18 19  1  0
 19 20  1  0
 20 21  1  0
 21 22  2  3
 21 23  1  0
 16 24  1  0
 24 25  2  0
 24 26  1  0
 26 27  1  0
 27 28  1  0
 28 29  1  0
 29 30  1  0
 30 31  1  0
 31 32  1  0
 32 33  2  3
 32 34  1  0
 27 35  1  0
 35 36  2  0
 35 37  1  0
 37 38  1  0
 38 39  1  0
 39 40  1  0
 40 41  1  0
 41 42  1  0
 42 43  1  0
 43 44  2  3
 43 45  1  0
 38 46  1  0
 46 47  2  0
 46 48  1  0
 48 49  1  0
 49 50  1  0
 50 51  1  0
 51 52  1  0
 52 53  1  0
 49 54  1  0
 54 55  1  0
 55 56  1  0
 56 57  1  0
 49 58  1  0
 58 59  2  0
 58 60  1  0
 60 61  1  0
 61 62  1  0
 62 63  1  0
 63 64  1  0
 64 65  1  0
 65 66  1  0
 66 67  2  3
 66 68  1  0
 61 69  1  0
 69 70  2  0
 69 71  1  0
 71 72  1  0
 72 73  1  0
 73 74  1  0
 74 75  1  0
 75 76  1  0
 76 77  1  0
 77 78  2  3
 77 79  1  0
 72 80  1  0
 80 81  2  0
 80 82  1  0
 82 83  1  0
 83 84  1  0
 84 85  1  0
 85 86  1  0
 86 87  1  0
 87 88  1  0
 88 89  2  3
 88 90  1  0
 83 91  1  0
 91 92  2  0
 91 93  1  0
 93 94  1  0
 94 95  1  0
 95 96  1  0
 96 97  1  0
 97 98  1  0
 98 99  1  0
 99100  2  3
 99101  1  0
 94102  1  0
102103  2  0
102104  1  0
104105  1  0
105106  1  0
106107  1  0
107108  1  0
108109  1  0
109110  1  0
110111  2  3
110112  1  0
105113  1  0
113114  2  0
113115  1  0
115116  1  0
116117  1  0
117118  1  0
118119  1  0
119120  1  0
120121  1  0
121122  2  3
121123  1  0
116124  1  0
124125  2  0
124126  1  0
126127  1  0
127128  1  0
128129  1  0
129130  1  0
130131  1  0
131132  1  0
132133  1  0
133134  1  0
127135  1  0
127136  1  1
136137  2  0
136138  1  0
 11 53  2  0
 57134  2  0
  1139  1  0
  1140  1  0
  2141  1  0
  2142  1  0
  3143  1  0
  3144  1  0
  6145  1  0
  8146  1  0
  8147  1  0
  9148  1  0
  9149  1  0
 10150  1  0
 10151  1  0
 11152  1  0
 12153  1  0
 12154  1  0
 12155  1  0
 15156  1  0
 16157  1  1
 17158  1  0
 17159  1  0
 18160  1  0
 18161  1  0
 19162  1  0
 19163  1  0
 20164  1  0
 22165  1  0
 22166  1  0
 23167  1  0
 23168  1  0
 26169  1  0
 27170  1  1
 28171  1  0
 28172  1  0
 29173  1  0
 29174  1  0
 30175  1  0
 30176  1  0
 31177  1  0
 33178  1  0
 33179  1  0
 34180  1  0
 34181  1  0
 37182  1  0
 38183  1  1
 39184  1  0
 39185  1  0
 40186  1  0
 40187  1  0
 41188  1  0
 41189  1  0
 42190  1  0
 44191  1  0
 44192  1  0
 45193  1  0
 45194  1  0
 48195  1  0
 50196  1  0
 50197  1  0
 51198  1  0
 51199  1  0
 52200  1  0
 52201  1  0
 53202  1  0
 54203  1  0
 54204  1  0
 55205  1  0
 55206  1  0
 56207  1  0
 56208  1  0
 57209  1  0
 60210  1  0
 61211  1  6
 62212  1  0
 62213  1  0
 63214  1  0
 63215  1  0
 64216  1  0
 64217  1  0
 65218  1  0
 67219  1  0
 67220  1  0
 68221  1  0
 68222  1  0
 71223  1  0
 72224  1  6
 73225  1  0
 73226  1  0
 74227  1  0
 74228  1  0
 75229  1  0
 75230  1  0
 76231  1  0
 78232  1  0
 78233  1  0
 79234  1  0
 79235  1  0
 82236  1  0
 83237  1  6
 84238  1  0
 84239  1  0
 85240  1  0
 85241  1  0
 86242  1  0
 86243  1  0
 87244  1  0
 89245  1  0
 89246  1  0
 90247  1  0
 90248  1  0
 93249  1  0
 94250  1  6
 95251  1  0
 95252  1  0
 96253  1  0
 96254  1  0
 97255  1  0
 97256  1  0
 98257  1  0
100258  1  0
100259  1  0
101260  1  0
101261  1  0
104262  1  0
105263  1  6
106264  1  0
106265  1  0
107266  1  0
107267  1  0
108268  1  0
108269  1  0
109270  1  0
111271  1  0
111272  1  0
112273  1  0
112274  1  0
115275  1  0
116276  1  6
117277  1  0
117278  1  0
118279  1  0
118280  1  0
119281  1  0
119282  1  0
120283  1  0
122284  1  0
122285  1  0
123286  1  0
123287  1  0
126288  1  0
128289  1  0
128290  1  0
129291  1  0
129292  1  0
130293  1  0
130294  1  0
131295  1  0
131296  1  0
132297  1  0
132298  1  0
133299  1  0
133300  1  0
134301  1  0
135302  1  0
135303  1  0
135304  1  0
M  CHG  8  22   1  33   1  44   1  67   1  78   1  89   1 100   1 111   1
M  CHG  2 122   1 138  -1
M  END
