
     RDKit          2D

350350  0  0  0  0  0  0  0  0999 V2000
  -24.7584    9.3360    0.0000 N   0  0  0  0  0  0  0  0  0  0  0  0
  -23.3046    8.9666    0.0000 C   0  0  0  0  0  0  0  0  0  0  0  0
  -22.8976    7.5229    0.0000 C   0  0  0  0  0  0  0  0  0  0  0  0
  -21.4438    7.1535    0.0000 C   0  0  0  0  0  0  0  0  0  0  0  0
  -20.5358    8.3475    0.0000 O   0  0  0  0  0  0  0  0  0  0  0  0
  -21.0368    5.7098    0.0000 N   0  0  0  0  0  0  0  0  0  0  0  0
  -19.5830    5.3404    0.0000 C   0  0  0  0  0  0  0  0  0  0  0  0
  -18.3440    6.1861    0.0000 C   0  0  0  0  0  0  0  0  0  0  0  0
  -16.9109    6.6290    0.0000 C   0  0  0  0  0  0  0  0  0  0  0  0
  -15.4109    6.6298    0.0000 C   0  0  0  0  0  0  0  0  0  0  0  0
  -13.9773    6.1884    0.0000 C   0  0  0  0  0  0  0  0  0  0  0  0
  -20.0223    6.7747    0.0000 C   0  0  0  0  0  0  0  0  0  0  0  0
  -20.5176    4.1672    0.0000 C   0  0  0  0  0  0  0  0  0  0  0  0
  -21.3331    4.5128    0.0000 O   0  0  0  0  0  0  0  0  0  0  0  0
  -21.0648    2.7706    0.0000 N   0  0  0  0  0  0  0  0  0  0  0  0
  -21.1761    1.2747    0.0000 C   0  0  0  0  0  0  0  0  0  0  0  0
  -22.4938    1.9914    0.0000 C   0  0  0  0  0  0  0  0  0  0  0  0
  -23.7734    1.2086    0.0000 C   0  0  0  0  0  0  0  0  0  0  0  0
  -25.0911    1.9253    0.0000 C   0  0  0  0  0  0  0  0  0  0  0  0
  -26.3706    1.1424    0.0000 N   0  0  0  0  0  0  0  0  0  0  0  0
  -27.6883    1.8591    0.0000 C   0  0  0  0  0  0  0  0  0  0  0  0
  -28.9678    1.0763    0.0000 N   0  0  0  0  0  0  0  0  0  0  0  0
  -27.7265    3.3586    0.0000 N   0  0  0  0  0  0  0  0  0  0  0  0
  -20.8416   -0.1875    0.0000 C   0  0  0  0  0  0  0  0  0  0  0  0
  -22.2376   -0.7362    0.0000 O   0  0  0  0  0  0  0  0  0  0  0  0
  -20.0909   -1.4861    0.0000 N   0  0  0  0  0  0  0  0  0  0  0  0
  -18.9908   -2.5058    0.0000 C   0  0  0  0  0  0  0  0  0  0  0  0
  -20.3727   -3.0892    0.0000 C   0  0  0  0  0  0  0  0  0  0  0  0
  -20.5584   -4.5776    0.0000 C   0  0  0  0  0  0  0  0  0  0  0  0
  -21.9403   -5.1610    0.0000 C   0  0  0  0  0  0  0  0  0  0  0  0
  -22.1260   -6.6495    0.0000 N   0  0  0  0  0  0  0  0  0  0  0  0
  -23.5079   -7.2329    0.0000 C   0  0  0  0  0  0  0  0  0  0  0  0
  -23.6936   -8.7213    0.0000 N   0  0  0  0  0  0  0  0  0  0  0  0
  -24.7041   -6.3278    0.0000 N   0  0  0  0  0  0  0  0  0  0  0  0
  -17.6390   -3.1559    0.0000 C   0  0  0  0  0  0  0  0  0  0  0  0
  -18.0803   -4.5895    0.0000 O   0  0  0  0  0  0  0  0  0  0  0  0
  -16.1556   -3.3787    0.0000 N   0  0  0  0  0  0  0  0  0  0  0  0
  -14.6725   -3.1543    0.0000 C   0  0  0  0  0  0  0  0  0  0  0  0
  -15.0780   -4.5985    0.0000 C   0  0  0  0  0  0  0  0  0  0  0  0
  -14.0300   -5.6717    0.0000 C   0  0  0  0  0  0  0  0  0  0  0  0
  -14.4355   -7.1159    0.0000 C   0  0  0  0  0  0  0  0  0  0  0  0
  -13.3876   -8.1891    0.0000 N   0  0  0  0  0  0  0  0  0  0  0  0
  -15.8889   -7.4868    0.0000 O   0  0  0  0  0  0  0  0  0  0  0  0
  -13.3214   -2.5028    0.0000 C   0  0  0  0  0  0  0  0  0  0  0  0
  -12.4757   -3.7417    0.0000 O   0  0  0  0  0  0  0  0  0  0  0  0
  -12.2223   -1.4819    0.0000 N   0  0  0  0  0  0  0  0  0  0  0  0
  -11.4730   -0.1825    0.0000 C   0  0  0  0  0  0  0  0  0  0  0  0
  -11.1400    1.2801    0.0000 C   0  0  0  0  0  0  0  0  0  0  0  0
  -11.2529    2.7758    0.0000 C   0  0  0  0  0  0  0  0  0  0  0  0
  -11.8017    4.1718    0.0000 C   0  0  0  0  0  0  0  0  0  0  0  0
  -12.7375    5.3441    0.0000 C   0  0  0  0  0  0  0  0  0  0  0  0
   -9.9776   -0.0659    0.0000 C   0  0  0  0  0  0  0  0  0  0  0  0
  -10.5968   -1.3999    0.0000 C   0  0  0  0  0  0  0  0  0  0  0  0
  -11.0417   -2.8324    0.0000 O   0  0  0  0  0  0  0  0  0  0  0  0
   -9.1043   -1.2498    0.0000 N   0  0  0  0  0  0  0  0  0  0  0  0
   -8.2280   -2.4672    0.0000 C   0  0  0  0  0  0  0  0  0  0  0  0
   -7.8210   -3.9110    0.0000 C   0  0  0  0  0  0  0  0  0  0  0  0
   -6.3672   -4.2803    0.0000 C   0  0  0  0  0  0  0  0  0  0  0  0
   -5.9602   -5.7240    0.0000 C   0  0  0  0  0  0  0  0  0  0  0  0
   -4.5063   -6.0934    0.0000 N   0  0  0  0  0  0  0  0  0  0  0  0
   -4.0993   -7.5371    0.0000 C   0  0  0  0  0  0  0  0  0  0  0  0
   -2.6455   -7.9065    0.0000 N   0  0  0  0  0  0  0  0  0  0  0  0
   -5.1461   -8.6115    0.0000 N   0  0  0  0  0  0  0  0  0  0  0  0
   -6.7356   -2.3171    0.0000 C   0  0  0  0  0  0  0  0  0  0  0  0
   -6.1194   -0.9495    0.0000 O   0  0  0  0  0  0  0  0  0  0  0  0
   -5.8593   -3.5345    0.0000 N   0  0  0  0  0  0  0  0  0  0  0  0
   -4.3668   -3.3844    0.0000 C   0  0  0  0  0  0  0  0  0  0  0  0
   -2.9130   -3.7537    0.0000 C   0  0  0  0  0  0  0  0  0  0  0  0
   -2.5060   -5.1975    0.0000 C   0  0  0  0  0  0  0  0  0  0  0  0
   -1.0522   -5.5668    0.0000 C   0  0  0  0  0  0  0  0  0  0  0  0
   -0.6451   -7.0105    0.0000 N   0  0  0  0  0  0  0  0  0  0  0  0
    0.8087   -7.3799    0.0000 C   0  0  0  0  0  0  0  0  0  0  0  0
    1.2157   -8.8236    0.0000 N   0  0  0  0  0  0  0  0  0  0  0  0
    1.8554   -6.3056    0.0000 N   0  0  0  0  0  0  0  0  0  0  0  0
   -3.7506   -2.0168    0.0000 C   0  0  0  0  0  0  0  0  0  0  0  0
   -4.6269   -0.7994    0.0000 O   0  0  0  0  0  0  0  0  0  0  0  0
   -2.2582   -1.8666    0.0000 N   0  0  0  0  0  0  0  0  0  0  0  0
   -1.6420   -0.4991    0.0000 C   0  0  0  0  0  0  0  0  0  0  0  0
   -1.5307    0.9968    0.0000 C   0  0  0  0  0  0  0  0  0  0  0  0
   -0.1795    1.6483    0.0000 C   0  0  0  0  0  0  0  0  0  0  0  0
   -0.0683    3.1442    0.0000 C   0  0  0  0  0  0  0  0  0  0  0  0
    1.2829    3.7958    0.0000 N   0  0  0  0  0  0  0  0  0  0  0  0
    1.3942    5.2916    0.0000 C   0  0  0  0  0  0  0  0  0  0  0  0
    2.7453    5.9432    0.0000 N   0  0  0  0  0  0  0  0  0  0  0  0
    0.1543    6.1359    0.0000 N   0  0  0  0  0  0  0  0  0  0  0  0
   -0.1495   -0.3489    0.0000 C   0  0  0  0  0  0  0  0  0  0  0  0
    0.7268   -1.5664    0.0000 O   0  0  0  0  0  0  0  0  0  0  0  0
    0.4667    1.0187    0.0000 N   0  0  0  0  0  0  0  0  0  0  0  0
    1.9592    1.1688    0.0000 C   0  0  0  0  0  0  0  0  0  0  0  0
    3.3103    1.8204    0.0000 C   0  0  0  0  0  0  0  0  0  0  0  0
    3.4216    3.3162    0.0000 C   0  0  0  0  0  0  0  0  0  0  0  0
    4.7727    3.9678    0.0000 C   0  0  0  0  0  0  0  0  0  0  0  0
    4.8840    5.4636    0.0000 N   0  0  0  0  0  0  0  0  0  0  0  0
    6.2351    6.1152    0.0000 C   0  0  0  0  0  0  0  0  0  0  0  0
    6.3464    7.6110    0.0000 N   0  0  0  0  0  0  0  0  0  0  0  0
    7.4749    5.2709    0.0000 N   0  0  0  0  0  0  0  0  0  0  0  0
    2.8354   -0.0486    0.0000 C   0  0  0  0  0  0  0  0  0  0  0  0
    2.2192   -1.4162    0.0000 O   0  0  0  0  0  0  0  0  0  0  0  0
    4.3279    0.1015    0.0000 N   0  0  0  0  0  0  0  0  0  0  0  0
    5.2042   -1.1159    0.0000 C   0  0  0  0  0  0  0  0  0  0  0  0
    5.6112   -2.5596    0.0000 C   0  0  0  0  0  0  0  0  0  0  0  0
    7.0650   -2.9290    0.0000 C   0  0  0  0  0  0  0  0  0  0  0  0
    7.4720   -4.3727    0.0000 C   0  0  0  0  0  0  0  0  0  0  0  0
    8.9600   -4.5621    0.0000 N   0  0  0  0  0  0  0  0  0  0  0  0
    6.4253   -5.4471    0.0000 O   0  0  0  0  0  0  0  0  0  0  0  0
    6.6966   -0.9658    0.0000 C   0  0  0  0  0  0  0  0  0  0  0  0
    7.3128    0.4018    0.0000 O   0  0  0  0  0  0  0  0  0  0  0  0
    7.5729   -2.1832    0.0000 N   0  0  0  0  0  0  0  0  0  0  0  0
    9.0654   -2.0331    0.0000 C   0  0  0  0  0  0  0  0  0  0  0  0
   10.5192   -2.4024    0.0000 C   0  0  0  0  0  0  0  0  0  0  0  0
   10.9262   -3.8462    0.0000 C   0  0  0  0  0  0  0  0  0  0  0  0
   12.3800   -4.2155    0.0000 C   0  0  0  0  0  0  0  0  0  0  0  0
   12.7871   -5.6592    0.0000 N   0  0  0  0  0  0  0  0  0  0  0  0
   14.2409   -6.0286    0.0000 C   0  0  0  0  0  0  0  0  0  0  0  0
   14.6479   -7.4723    0.0000 N   0  0  0  0  0  0  0  0  0  0  0  0
   15.2876   -4.9542    0.0000 N   0  0  0  0  0  0  0  0  0  0  0  0
    9.6816   -0.6655    0.0000 C   0  0  0  0  0  0  0  0  0  0  0  0
    8.8053    0.5520    0.0000 O   0  0  0  0  0  0  0  0  0  0  0  0
   11.1740   -0.5153    0.0000 N   0  0  0  0  0  0  0  0  0  0  0  0
   11.7902    0.8522    0.0000 C   0  0  0  0  0  0  0  0  0  0  0  0
   11.9015    2.3481    0.0000 C   0  0  0  0  0  0  0  0  0  0  0  0
   13.2526    2.9997    0.0000 C   0  0  0  0  0  0  0  0  0  0  0  0
   13.3639    4.4955    0.0000 C   0  0  0  0  0  0  0  0  0  0  0  0
   14.7151    5.1471    0.0000 N   0  0  0  0  0  0  0  0  0  0  0  0
   14.8264    6.6429    0.0000 C   0  0  0  0  0  0  0  0  0  0  0  0
   16.1775    7.2945    0.0000 N   0  0  0  0  0  0  0  0  0  0  0  0
   13.5865    7.4873    0.0000 N   0  0  0  0  0  0  0  0  0  0  0  0
   13.2827    1.0024    0.0000 C   0  0  0  0  0  0  0  0  0  0  0  0
   14.1590   -0.2150    0.0000 O   0  0  0  0  0  0  0  0  0  0  0  0
   13.8989    2.3700    0.0000 N   0  0  0  0  0  0  0  0  0  0  0  0
   15.3914    2.5201    0.0000 C   0  0  0  0  0  0  0  0  0  0  0  0
   16.7425    3.1717    0.0000 C   0  0  0  0  0  0  0  0  0  0  0  0
   16.8538    4.6675    0.0000 C   0  0  0  0  0  0  0  0  0  0  0  0
   18.2049    5.3191    0.0000 C   0  0  0  0  0  0  0  0  0  0  0  0
   18.3162    6.8149    0.0000 N   0  0  0  0  0  0  0  0  0  0  0  0
   19.6673    7.4665    0.0000 C   0  0  0  0  0  0  0  0  0  0  0  0
   19.7786    8.9624    0.0000 N   0  0  0  0  0  0  0  0  0  0  0  0
   20.9071    6.6222    0.0000 N   0  0  0  0  0  0  0  0  0  0  0  0
   16.2676    1.3027    0.0000 C   0  0  0  0  0  0  0  0  0  0  0  0
   15.6514   -0.0649    0.0000 O   0  0  0  0  0  0  0  0  0  0  0  0
   17.7601    1.4528    0.0000 N   0  0  0  0  0  0  0  0  0  0  0  0
   18.6364    0.2354    0.0000 C   0  0  0  0  0  0  0  0  0  0  0  0
   19.0434   -1.2083    0.0000 C   0  0  0  0  0  0  0  0  0  0  0  0
   20.4972   -1.5777    0.0000 C   0  0  0  0  0  0  0  0  0  0  0  0
   20.9042   -3.0214    0.0000 C   0  0  0  0  0  0  0  0  0  0  0  0
   22.3581   -3.3908    0.0000 N   0  0  0  0  0  0  0  0  0  0  0  0
   22.7651   -4.8345    0.0000 C   0  0  0  0  0  0  0  0  0  0  0  0
   24.2189   -5.2039    0.0000 N   0  0  0  0  0  0  0  0  0  0  0  0
   21.7183   -5.9089    0.0000 N   0  0  0  0  0  0  0  0  0  0  0  0
   20.1288    0.3855    0.0000 C   0  0  0  0  0  0  0  0  0  0  0  0
   21.1470   -0.7160    0.0000 O   0  0  0  0  0  0  0  0  0  0  0  0
   20.7450    1.7531    0.0000 N   0  0  0  0  0  0  0  0  0  0  0  0
   22.2375    1.9033    0.0000 C   0  0  0  0  0  0  0  0  0  0  0  0
   23.6913    1.5339    0.0000 C   0  0  0  0  0  0  0  0  0  0  0  0
   24.0983    0.0902    0.0000 C   0  0  0  0  0  0  0  0  0  0  0  0
   25.5522   -0.2792    0.0000 C   0  0  0  0  0  0  0  0  0  0  0  0
   25.9592   -1.7229    0.0000 N   0  0  0  0  0  0  0  0  0  0  0  0
   27.4130   -2.0923    0.0000 C   0  0  0  0  0  0  0  0  0  0  0  0
   27.8200   -3.5360    0.0000 N   0  0  0  0  0  0  0  0  0  0  0  0
   28.4598   -1.0179    0.0000 N   0  0  0  0  0  0  0  0  0  0  0  0
   22.8537    3.2709    0.0000 C   0  0  0  0  0  0  0  0  0  0  0  0
   24.3167    3.6018    0.0000 O   0  0  0  0  0  0  0  0  0  0  0  0
   21.9774    4.4883    0.0000 O   0  0  0  0  0  0  0  0  0  0  0  0
  -25.1655   10.7797    0.0000 H   0  0  0  0  0  0  0  0  0  0  0  0
  -25.8052    8.2616    0.0000 H   0  0  0  0  0  0  0  0  0  0  0  0
  -23.1933   10.4625    0.0000 H   0  0  0  0  0  0  0  0  0  0  0  0
  -21.8122    9.1168    0.0000 H   0  0  0  0  0  0  0  0  0  0  0  0
  -24.3901    7.3728    0.0000 H   0  0  0  0  0  0  0  0  0  0  0  0
  -23.0089    6.0270    0.0000 H   0  0  0  0  0  0  0  0  0  0  0  0
  -21.6585    5.2109    0.0000 H   0  0  0  0  0  0  0  0  0  0  0  0
  -18.1583    7.6745    0.0000 H   0  0  0  0  0  0  0  0  0  0  0  0
  -19.5196    7.1178    0.0000 H   0  0  0  0  0  0  0  0  0  0  0  0
  -16.4660    8.0615    0.0000 H   0  0  0  0  0  0  0  0  0  0  0  0
  -17.7596    7.8658    0.0000 H   0  0  0  0  0  0  0  0  0  0  0  0
  -14.4190    7.7550    0.0000 H   0  0  0  0  0  0  0  0  0  0  0  0
  -15.8573    8.0618    0.0000 H   0  0  0  0  0  0  0  0  0  0  0  0
  -13.3272    7.5402    0.0000 H   0  0  0  0  0  0  0  0  0  0  0  0
  -21.0831    7.6113    0.0000 H   0  0  0  0  0  0  0  0  0  0  0  0
  -19.4025    8.2302    0.0000 H   0  0  0  0  0  0  0  0  0  0  0  0
  -18.4714    7.4169    0.0000 H   0  0  0  0  0  0  0  0  0  0  0  0
  -22.5274    3.1036    0.0000 H   0  0  0  0  0  0  0  0  0  0  0  0
  -22.2520    0.2295    0.0000 H   0  0  0  0  0  0  0  0  0  0  0  0
  -23.3425    3.2282    0.0000 H   0  0  0  0  0  0  0  0  0  0  0  0
  -21.8709    3.3559    0.0000 H   0  0  0  0  0  0  0  0  0  0  0  0
  -24.7080    0.0353    0.0000 H   0  0  0  0  0  0  0  0  0  0  0  0
  -22.9247   -0.0282    0.0000 H   0  0  0  0  0  0  0  0  0  0  0  0
  -26.0842    3.0494    0.0000 H   0  0  0  0  0  0  0  0  0  0  0  0
  -24.3065    3.2037    0.0000 H   0  0  0  0  0  0  0  0  0  0  0  0
  -26.3324   -0.3571    0.0000 H   0  0  0  0  0  0  0  0  0  0  0  0
  -30.2855    1.7930    0.0000 H   0  0  0  0  0  0  0  0  0  0  0  0
  -28.9296   -0.4232    0.0000 H   0  0  0  0  0  0  0  0  0  0  0  0
  -29.0442    4.0753    0.0000 H   0  0  0  0  0  0  0  0  0  0  0  0
  -26.4470    4.1415    0.0000 H   0  0  0  0  0  0  0  0  0  0  0  0
  -21.2631   -2.4220    0.0000 H   0  0  0  0  0  0  0  0  0  0  0  0
  -18.8443   -3.9986    0.0000 H   0  0  0  0  0  0  0  0  0  0  0  0
  -21.8688   -2.9816    0.0000 H   0  0  0  0  0  0  0  0  0  0  0  0
  -21.0511   -1.7514    0.0000 H   0  0  0  0  0  0  0  0  0  0  0  0
  -20.2238   -6.0398    0.0000 H   0  0  0  0  0  0  0  0  0  0  0  0
  -19.0623   -4.6852    0.0000 H   0  0  0  0  0  0  0  0  0  0  0  0
  -23.4384   -5.2366    0.0000 H   0  0  0  0  0  0  0  0  0  0  0  0
  -22.4506   -3.7505    0.0000 H   0  0  0  0  0  0  0  0  0  0  0  0
  -20.9298   -7.5545    0.0000 H   0  0  0  0  0  0  0  0  0  0  0  0
  -25.0756   -9.3047    0.0000 H   0  0  0  0  0  0  0  0  0  0  0  0
  -22.4975   -9.6264    0.0000 H   0  0  0  0  0  0  0  0  0  0  0  0
  -26.0860   -6.9112    0.0000 H   0  0  0  0  0  0  0  0  0  0  0  0
  -24.5184   -4.8393    0.0000 H   0  0  0  0  0  0  0  0  0  0  0  0
  -16.1548   -4.8787    0.0000 H   0  0  0  0  0  0  0  0  0  0  0  0
  -13.4140   -3.9706    0.0000 H   0  0  0  0  0  0  0  0  0  0  0  0
  -15.9529   -5.8168    0.0000 H   0  0  0  0  0  0  0  0  0  0  0  0
  -16.5469   -4.2948    0.0000 H   0  0  0  0  0  0  0  0  0  0  0  0
  -12.6782   -6.3218    0.0000 H   0  0  0  0  0  0  0  0  0  0  0  0
  -13.0131   -4.5691    0.0000 H   0  0  0  0  0  0  0  0  0  0  0  0
  -13.7931   -9.6333    0.0000 H   0  0  0  0  0  0  0  0  0  0  0  0
  -11.9342   -7.8182    0.0000 H   0  0  0  0  0  0  0  0  0  0  0  0
  -11.1718   -2.5526    0.0000 H   0  0  0  0  0  0  0  0  0  0  0  0
   -9.8424    0.5276    0.0000 H   0  0  0  0  0  0  0  0  0  0  0  0
   -9.8231    1.9982    0.0000 H   0  0  0  0  0  0  0  0  0  0  0  0
   -9.7912    2.4392    0.0000 H   0  0  0  0  0  0  0  0  0  0  0  0
  -10.0830    3.7146    0.0000 H   0  0  0  0  0  0  0  0  0  0  0  0
  -10.3056    4.2810    0.0000 H   0  0  0  0  0  0  0  0  0  0  0  0
  -11.1181    5.5070    0.0000 H   0  0  0  0  0  0  0  0  0  0  0  0
  -11.7178    6.4442    0.0000 H   0  0  0  0  0  0  0  0  0  0  0  0
   -8.8104   -0.7464    0.0000 H   0  0  0  0  0  0  0  0  0  0  0  0
   -8.8503    1.0440    0.0000 H   0  0  0  0  0  0  0  0  0  0  0  0
   -9.9481    1.6125    0.0000 H   0  0  0  0  0  0  0  0  0  0  0  0
   -8.3260    0.0325    0.0000 H   0  0  0  0  0  0  0  0  0  0  0  0
   -9.5791   -3.1188    0.0000 H   0  0  0  0  0  0  0  0  0  0  0  0
   -8.1138   -5.3821    0.0000 H   0  0  0  0  0  0  0  0  0  0  0  0
   -9.3135   -4.0611    0.0000 H   0  0  0  0  0  0  0  0  0  0  0  0
   -4.8675   -4.3132    0.0000 H   0  0  0  0  0  0  0  0  0  0  0  0
   -5.5665   -3.0119    0.0000 H   0  0  0  0  0  0  0  0  0  0  0  0
   -6.0715   -7.2199    0.0000 H   0  0  0  0  0  0  0  0  0  0  0  0
   -7.4232   -6.0550    0.0000 H   0  0  0  0  0  0  0  0  0  0  0  0
   -3.5983   -4.8995    0.0000 H   0  0  0  0  0  0  0  0  0  0  0  0
   -2.2385   -9.3502    0.0000 H   0  0  0  0  0  0  0  0  0  0  0  0
   -1.5987   -6.8321    0.0000 H   0  0  0  0  0  0  0  0  0  0  0  0
   -4.7391  -10.0552    0.0000 H   0  0  0  0  0  0  0  0  0  0  0  0
   -6.5999   -8.2421    0.0000 H   0  0  0  0  0  0  0  0  0  0  0  0
   -6.1263   -5.0106    0.0000 H   0  0  0  0  0  0  0  0  0  0  0  0
   -4.4781   -4.8802    0.0000 H   0  0  0  0  0  0  0  0  0  0  0  0
   -1.4206   -3.6036    0.0000 H   0  0  0  0  0  0  0  0  0  0  0  0
   -2.4431   -2.3293    0.0000 H   0  0  0  0  0  0  0  0  0  0  0  0
   -2.6173   -6.6933    0.0000 H   0  0  0  0  0  0  0  0  0  0  0  0
   -3.9904   -4.9820    0.0000 H   0  0  0  0  0  0  0  0  0  0  0  0
    0.4403   -5.4167    0.0000 H   0  0  0  0  0  0  0  0  0  0  0  0
   -0.7594   -4.0957    0.0000 H   0  0  0  0  0  0  0  0  0  0  0  0
   -1.6919   -8.0849    0.0000 H   0  0  0  0  0  0  0  0  0  0  0  0
    2.6695   -9.1930    0.0000 H   0  0  0  0  0  0  0  0  0  0  0  0
    0.1689   -9.8980    0.0000 H   0  0  0  0  0  0  0  0  0  0  0  0
    3.3093   -6.6749    0.0000 H   0  0  0  0  0  0  0  0  0  0  0  0
    1.4484   -4.8618    0.0000 H   0  0  0  0  0  0  0  0  0  0  0  0
   -1.2400   -2.9682    0.0000 H   0  0  0  0  0  0  0  0  0  0  0  0
   -3.0958   -0.1297    0.0000 H   0  0  0  0  0  0  0  0  0  0  0  0
   -2.1106    2.3801    0.0000 H   0  0  0  0  0  0  0  0  0  0  0  0
   -3.0231    0.8467    0.0000 H   0  0  0  0  0  0  0  0  0  0  0  0
    1.2835    1.9793    0.0000 H   0  0  0  0  0  0  0  0  0  0  0  0
    0.8577    0.5648    0.0000 H   0  0  0  0  0  0  0  0  0  0  0  0
   -0.4753    4.5879    0.0000 H   0  0  0  0  0  0  0  0  0  0  0  0
   -1.5679    3.1771    0.0000 H   0  0  0  0  0  0  0  0  0  0  0  0
    2.4105    2.8066    0.0000 H   0  0  0  0  0  0  0  0  0  0  0  0
    2.8566    7.4390    0.0000 H   0  0  0  0  0  0  0  0  0  0  0  0
    3.9851    5.0988    0.0000 H   0  0  0  0  0  0  0  0  0  0  0  0
    0.2656    7.6318    0.0000 H   0  0  0  0  0  0  0  0  0  0  0  0
   -1.1968    5.4844    0.0000 H   0  0  0  0  0  0  0  0  0  0  0  0
   -0.0889    2.4120    0.0000 H   0  0  0  0  0  0  0  0  0  0  0  0
    1.5522    2.6125    0.0000 H   0  0  0  0  0  0  0  0  0  0  0  0
    4.8028    1.9705    0.0000 H   0  0  0  0  0  0  0  0  0  0  0  0
    4.0546    0.5180    0.0000 H   0  0  0  0  0  0  0  0  0  0  0  0
    3.0146    4.7599    0.0000 H   0  0  0  0  0  0  0  0  0  0  0  0
    2.0098    2.8094    0.0000 H   0  0  0  0  0  0  0  0  0  0  0  0
    6.2652    4.1179    0.0000 H   0  0  0  0  0  0  0  0  0  0  0  0
    5.3527    2.5844    0.0000 H   0  0  0  0  0  0  0  0  0  0  0  0
    3.6442    6.3080    0.0000 H   0  0  0  0  0  0  0  0  0  0  0  0
    7.6975    8.2626    0.0000 H   0  0  0  0  0  0  0  0  0  0  0  0
    5.1066    8.4554    0.0000 H   0  0  0  0  0  0  0  0  0  0  0  0
    8.8260    5.9224    0.0000 H   0  0  0  0  0  0  0  0  0  0  0  0
    7.3636    3.7750    0.0000 H   0  0  0  0  0  0  0  0  0  0  0  0
    5.1062    1.3838    0.0000 H   0  0  0  0  0  0  0  0  0  0  0  0
    3.8531   -1.7675    0.0000 H   0  0  0  0  0  0  0  0  0  0  0  0
    5.4999   -4.0555    0.0000 H   0  0  0  0  0  0  0  0  0  0  0  0
    4.1187   -2.7098    0.0000 H   0  0  0  0  0  0  0  0  0  0  0  0
    8.5647   -2.9619    0.0000 H   0  0  0  0  0  0  0  0  0  0  0  0
    7.8657   -1.6606    0.0000 H   0  0  0  0  0  0  0  0  0  0  0  0
    9.3329   -6.1858    0.0000 H   0  0  0  0  0  0  0  0  0  0  0  0
    9.8561   -3.5510    0.0000 H   0  0  0  0  0  0  0  0  0  0  0  0
    7.3059   -3.6593    0.0000 H   0  0  0  0  0  0  0  0  0  0  0  0
    8.9541   -3.5289    0.0000 H   0  0  0  0  0  0  0  0  0  0  0  0
   12.0116   -2.2523    0.0000 H   0  0  0  0  0  0  0  0  0  0  0  0
   10.9891   -0.9780    0.0000 H   0  0  0  0  0  0  0  0  0  0  0  0
   10.8149   -5.3420    0.0000 H   0  0  0  0  0  0  0  0  0  0  0  0
    9.4266   -3.8133    0.0000 H   0  0  0  0  0  0  0  0  0  0  0  0
   13.8725   -4.0654    0.0000 H   0  0  0  0  0  0  0  0  0  0  0  0
   12.6728   -2.7444    0.0000 H   0  0  0  0  0  0  0  0  0  0  0  0
   11.7403   -6.7336    0.0000 H   0  0  0  0  0  0  0  0  0  0  0  0
   16.1017   -7.8417    0.0000 H   0  0  0  0  0  0  0  0  0  0  0  0
   13.6011   -8.5467    0.0000 H   0  0  0  0  0  0  0  0  0  0  0  0
   16.7415   -5.3236    0.0000 H   0  0  0  0  0  0  0  0  0  0  0  0
   14.8806   -3.5105    0.0000 H   0  0  0  0  0  0  0  0  0  0  0  0
   12.1922   -1.6169    0.0000 H   0  0  0  0  0  0  0  0  0  0  0  0
   10.3364    1.2216    0.0000 H   0  0  0  0  0  0  0  0  0  0  0  0
   11.3216    3.7315    0.0000 H   0  0  0  0  0  0  0  0  0  0  0  0
   10.4091    2.1980    0.0000 H   0  0  0  0  0  0  0  0  0  0  0  0
   14.7157    3.3306    0.0000 H   0  0  0  0  0  0  0  0  0  0  0  0
   14.2899    1.9161    0.0000 H   0  0  0  0  0  0  0  0  0  0  0  0
   12.9569    5.9392    0.0000 H   0  0  0  0  0  0  0  0  0  0  0  0
   11.8643    4.5284    0.0000 H   0  0  0  0  0  0  0  0  0  0  0  0
   15.8427    4.1579    0.0000 H   0  0  0  0  0  0  0  0  0  0  0  0
   16.2888    8.7903    0.0000 H   0  0  0  0  0  0  0  0  0  0  0  0
   17.4173    6.4502    0.0000 H   0  0  0  0  0  0  0  0  0  0  0  0
   13.6978    8.9831    0.0000 H   0  0  0  0  0  0  0  0  0  0  0  0
   12.2354    6.8357    0.0000 H   0  0  0  0  0  0  0  0  0  0  0  0
   13.3433    3.7633    0.0000 H   0  0  0  0  0  0  0  0  0  0  0  0
   14.9844    3.9638    0.0000 H   0  0  0  0  0  0  0  0  0  0  0  0
   18.2350    3.3218    0.0000 H   0  0  0  0  0  0  0  0  0  0  0  0
   17.4868    1.8693    0.0000 H   0  0  0  0  0  0  0  0  0  0  0  0
   16.4468    6.1113    0.0000 H   0  0  0  0  0  0  0  0  0  0  0  0
   15.4420    4.1607    0.0000 H   0  0  0  0  0  0  0  0  0  0  0  0
   19.6974    5.4692    0.0000 H   0  0  0  0  0  0  0  0  0  0  0  0
   18.7849    3.9357    0.0000 H   0  0  0  0  0  0  0  0  0  0  0  0
   17.0764    7.6593    0.0000 H   0  0  0  0  0  0  0  0  0  0  0  0
   21.1297    9.6139    0.0000 H   0  0  0  0  0  0  0  0  0  0  0  0
   18.5388    9.8067    0.0000 H   0  0  0  0  0  0  0  0  0  0  0  0
   22.2582    7.2737    0.0000 H   0  0  0  0  0  0  0  0  0  0  0  0
   20.7958    5.1263    0.0000 H   0  0  0  0  0  0  0  0  0  0  0  0
   18.5384    2.7351    0.0000 H   0  0  0  0  0  0  0  0  0  0  0  0
   17.2853   -0.4162    0.0000 H   0  0  0  0  0  0  0  0  0  0  0  0
   18.7506   -2.6795    0.0000 H   0  0  0  0  0  0  0  0  0  0  0  0
   17.5509   -1.3585    0.0000 H   0  0  0  0  0  0  0  0  0  0  0  0
   21.9897   -1.4275    0.0000 H   0  0  0  0  0  0  0  0  0  0  0  0
   21.1373   -0.2211    0.0000 H   0  0  0  0  0  0  0  0  0  0  0  0
   20.7929   -4.5173    0.0000 H   0  0  0  0  0  0  0  0  0  0  0  0
   19.4412   -3.3524    0.0000 H   0  0  0  0  0  0  0  0  0  0  0  0
   23.4048   -2.3164    0.0000 H   0  0  0  0  0  0  0  0  0  0  0  0
   24.6259   -6.6476    0.0000 H   0  0  0  0  0  0  0  0  0  0  0  0
   25.2657   -4.1295    0.0000 H   0  0  0  0  0  0  0  0  0  0  0  0
   22.1253   -7.3526    0.0000 H   0  0  0  0  0  0  0  0  0  0  0  0
   20.2645   -5.5395    0.0000 H   0  0  0  0  0  0  0  0  0  0  0  0
   19.8688    2.9706    0.0000 H   0  0  0  0  0  0  0  0  0  0  0  0
   21.9447    0.4321    0.0000 H   0  0  0  0  0  0  0  0  0  0  0  0
   25.1544    1.8649    0.0000 H   0  0  0  0  0  0  0  0  0  0  0  0
   23.9841    3.0050    0.0000 H   0  0  0  0  0  0  0  0  0  0  0  0
   23.9870   -1.4057    0.0000 H   0  0  0  0  0  0  0  0  0  0  0  0
   22.6353   -0.2408    0.0000 H   0  0  0  0  0  0  0  0  0  0  0  0
   27.0446   -0.1290    0.0000 H   0  0  0  0  0  0  0  0  0  0  0  0
   25.8450    1.1920    0.0000 H   0  0  0  0  0  0  0  0  0  0  0  0
   24.9124   -2.7973    0.0000 H   0  0  0  0  0  0  0  0  0  0  0  0
   29.2738   -3.9053    0.0000 H   0  0  0  0  0  0  0  0  0  0  0  0
   26.7732   -4.6103    0.0000 H   0  0  0  0  0  0  0  0  0  0  0  0
   29.9136   -1.3873    0.0000 H   0  0  0  0  0  0  0  0  0  0  0  0
   28.0528    0.4258    0.0000 H   0  0  0  0  0  0  0  0  0  0  0  0
  1  2  1  0
  2  3  1  0
  3  4  1  0
  4  5  2  0
  4  6  1  0
  7  6  1  1
  7  8  1  0
  8  9  1  0
  9 10  1  0
 10 11  1  0
  7 12  1  0
  7 13  1  0
 13 14  2  0
 13 15  1  0
 15 16  1  0
 16 17  1  0
 17 18  1  0
 18 19  1  0
 19 20  1  0
 20 21  1  0
 21 22  2  3
 21 23  1  0
 16 24  1  0
 24 25  2  0
 24 26  1  0
 26 27  1  0
 27 28  1  0
 28 29  1  0
 29 30  1  0
 30 31  1  0
 31 32  1  0
 32 33  2  3
 32 34  1  0
 27 35  1  0
 35 36  2  0
 35 37  1  0
 37 38  1  0
 38 39  1  0
 39 40  1  0
 40 41  1  0
 41 42  1  0
 41 43  2  0
 38 44  1  0
 44 45  2  0
 44 46  1  0
 46 47  1  0
 47 48  1  0
 48 49  1  0
 49 50  1  0
 50 51  1  0
 47 52  1  0
 47 53  1  1
 53 54  2  0
 53 55  1  0
 55 56  1  0
 56 57  1  0
 57 58  1  0
 58 59  1  0
 59 60  1  0
 60 61  1  0
 61 62  2  3
 61 63  1  0
 56 64  1  0
 64 65  2  0
 64 66  1  0
 66 67  1  0
 67 68  1  0
 68 69  1  0
 69 70  1  0
 70 71  1  0
 71 72  1  0
 72 73  2  3
 72 74  1  0
 67 75  1  0
 75 76  2  0
 75 77  1  0
 77 78  1  0
 78 79  1  0
 79 80  1  0
 80 81  1  0
 81 82  1  0
 82 83  1  0
 83 84  2  3
 83 85  1  0
 78 86  1  0
 86 87  2  0
 86 88  1  0
 88 89  1  0
 89 90  1  0
 90 91  1  0
 91 92  1  0
 92 93  1  0
 93 94  1  0
 94 95  2  3
 94 96  1  0
 89 97  1  0
 97 98  2  0
 97 99  1  0
 99100  1  0
100101  1  0
101102  1  0
102103  1  0
103104  1  0
103105  2  0
100106  1  0
106107  2  0
106108  1  0
108109  1  0
109110  1  0
110111  1  0
111112  1  0
112113  1  0
113114  1  0
114115  2  3
114116  1  0
109117  1  0
117118  2  0
117119  1  0
119120  1  0
120121  1  0
121122  1  0
122123  1  0
123124  1  0
124125  1  0
125126  2  3
125127  1  0
120128  1  0
128129  2  0
128130  1  0
130131  1  0
131132  1  0
132133  1  0
133134  1  0
134135  1  0
135136  1  0
136137  2  3
136138  1  0
131139  1  0
139140  2  0
139141  1  0
141142  1  0
142143  1  0
143144  1  0
144145  1  0
145146  1  0
146147  1  0
147148  2  3
147149  1  0
142150  1  0
150151  2  0
150152  1  0
152153  1  0
153154  1  0
154155  1  0
155156  1  0
156157  1  0
157158  1  0
158159  2  3
158160  1  0
153161  1  0
161162  2  0
161163  1  0
 11 51  2  0
  1164  1  0
  1165  1  0
  2166  1  0
  2167  1  0
  3168  1  0
  3169  1  0
  6170  1  0
  8171  1  0
  8172  1  0
  9173  1  0
  9174  1  0
 10175  1  0
 10176  1  0
 11177  1  0
 12178  1  0
 12179  1  0
 12180  1  0
 15181  1  0
 16182  1  6
 17183  1  0
 17184  1  0
 18185  1  0
 18186  1  0
 19187  1  0
 19188  1  0
 20189  1  0
 22190  1  0
 22191  1  0
 23192  1  0
 23193  1  0
 26194  1  0
 27195  1  6
 28196  1  0
 28197  1  0
 29198  1  0
 29199  1  0
 30200  1  0
 30201  1  0
 31202  1  0
 33203  1  0
 33204  1  0
 34205  1  0
 34206  1  0
 37207  1  0
 38208  1  6
 39209  1  0
 39210  1  0
 40211  1  0
 40212  1  0
 42213  1  0
 42214  1  0
 46215  1  0
 48216  1  0
 48217  1  0
 49218  1  0
 49219  1  0
 50220  1  0
 50221  1  0
 51222  1  0
 52223  1  0
 52224  1  0
 52225  1  0
 55226  1  0
 56227  1  6
 57228  1  0
 57229  1  0
 58230  1  0
 58231  1  0
 59232  1  0
 59233  1  0
 60234  1  0
 62235  1  0
 62236  1  0
 63237  1  0
 63238  1  0
 66239  1  0
 67240  1  6
 68241  1  0
 68242  1  0
 69243  1  0
 69244  1  0
 70245  1  0
 70246  1  0
 71247  1  0
 73248  1  0
 73249  1  0
 74250  1  0
 74251  1  0
 77252  1  0
 78253  1  1
 79254  1  0
 79255  1  0
 80256  1  0
 80257  1  0
 81258  1  0
 81259  1  0
 82260  1  0
 84261  1  0
 84262  1  0
 85263  1  0
 85264  1  0
 88265  1  0
 89266  1  1
 90267  1  0
 90268  1  0
 91269  1  0
 91270  1  0
 92271  1  0
 92272  1  0
 93273  1  0
 95274  1  0
 95275  1  0
 96276  1  0
 96277  1  0
 99278  1  0
100279  1  6
101280  1  0
101281  1  0
102282  1  0
102283  1  0
104284  1  0
104285  1  0
108286  1  0
109287  1  6
110288  1  0
110289  1  0
111290  1  0
111291  1  0
112292  1  0
112293  1  0
113294  1  0
115295  1  0
115296  1  0
116297  1  0
116298  1  0
119299  1  0
120300  1  1
121301  1  0
121302  1  0
122303  1  0
122304  1  0
123305  1  0
123306  1  0
124307  1  0
126308  1  0
126309  1  0
127310  1  0
127311  1  0
130312  1  0
131313  1  1
132314  1  0
132315  1  0
133316  1  0
133317  1  0
134318  1  0
134319  1  0
135320  1  0
137321  1  0
137322  1  0
138323  1  0
138324  1  0
141325  1  0
142326  1  6
143327  1  0
143328  1  0
144329  1  0
144330  1  0
145331  1  0
145332  1  0
146333  1  0
148334  1  0
148335  1  0
149336  1  0
149337  1  0
152338  1  0
153339  1  6
154340  1  0
154341  1  0
155342  1  0
155343  1  0
156344  1  0
156345  1  0
157346  1  0
159347  1  0
159348  1  0
160349  1  0
160350  1  0
M  CHG  8  22   1  33   1  62   1  73   1  84   1  95   1 115   1 126   1
M  CHG  4 137   1 148   1 159   1 163  -1
M  END
