
     RDKit          2D

317323  0  0  0  0  0  0  0  0999 V2000
   20.8473   -2.8905    0.0000 C   0  0  0  0  0  0  0  0  0  0  0  0
   22.1568   -2.1590    0.0000 N   0  0  0  0  0  0  0  0  0  0  0  0
   23.4451   -2.9274    0.0000 C   0  0  0  0  0  0  0  0  0  0  0  0
   23.4238   -4.4272    0.0000 C   0  0  0  0  0  0  0  0  0  0  0  0
   24.7121   -5.1955    0.0000 C   0  0  0  0  0  0  0  0  0  0  0  0
   26.0216   -4.4640    0.0000 C   0  0  0  0  0  0  0  0  0  0  0  0
   26.0429   -2.9642    0.0000 C   0  0  0  0  0  0  0  0  0  0  0  0
   24.7546   -2.1958    0.0000 C   0  0  0  0  0  0  0  0  0  0  0  0
   27.4759   -2.5209    0.0000 C   0  0  0  0  0  0  0  0  0  0  0  0
   28.3403   -3.7468    0.0000 O   0  0  0  0  0  0  0  0  0  0  0  0
   27.4415   -4.9477    0.0000 C   0  0  0  0  0  0  0  0  0  0  0  0
   27.8848   -6.3807    0.0000 O   0  0  0  0  0  0  0  0  0  0  0  0
   28.9474   -2.2299    0.0000 C   0  0  0  0  0  0  0  0  0  0  0  0
   29.4311   -0.8100    0.0000 C   0  0  0  0  0  0  0  0  0  0  0  0
   30.9026   -0.5190    0.0000 C   0  0  0  0  0  0  0  0  0  0  0  0
   31.8904   -1.6478    0.0000 C   0  0  0  0  0  0  0  0  0  0  0  0
   31.4067   -3.0677    0.0000 C   0  0  0  0  0  0  0  0  0  0  0  0
   29.9352   -3.3587    0.0000 C   0  0  0  0  0  0  0  0  0  0  0  0
   33.3619   -1.3568    0.0000 O   0  0  0  0  0  0  0  0  0  0  0  0
   28.4433    0.3188    0.0000 O   0  0  0  0  0  0  0  0  0  0  0  0
   26.9718    0.0278    0.0000 C   0  0  0  0  0  0  0  0  0  0  0  0
   26.4881   -1.3921    0.0000 C   0  0  0  0  0  0  0  0  0  0  0  0
   25.2423   -1.0205    0.0000 C   0  0  0  0  0  0  0  0  0  0  0  0
   24.7155   -0.4185    0.0000 C   0  0  0  0  0  0  0  0  0  0  0  0
   24.9735    0.3388    0.0000 C   0  0  0  0  0  0  0  0  0  0  0  0
   25.7583    0.4940    0.0000 C   0  0  0  0  0  0  0  0  0  0  0  0
   23.5247    1.9944    0.0000 O   0  0  0  0  0  0  0  0  0  0  0  0
   20.8260   -4.3904    0.0000 S   0  0  0  0  0  0  0  0  0  0  0  0
   19.5590   -2.1222    0.0000 N   0  0  0  0  0  0  0  0  0  0  0  0
   18.2494   -2.8537    0.0000 C   0  0  0  0  0  0  0  0  0  0  0  0
   16.9612   -2.0854    0.0000 C   0  0  0  0  0  0  0  0  0  0  0  0
   15.6516   -2.8169    0.0000 C   0  0  0  0  0  0  0  0  0  0  0  0
   15.8335   -3.5930    0.0000 O   0  0  0  0  0  0  0  0  0  0  0  0
   14.3634   -2.0486    0.0000 N   0  0  0  0  0  0  0  0  0  0  0  0
   13.0538   -2.7801    0.0000 C   0  0  0  0  0  0  0  0  0  0  0  0
   14.0016   -3.9427    0.0000 C   0  0  0  0  0  0  0  0  0  0  0  0
   15.4824   -3.7032    0.0000 C   0  0  0  0  0  0  0  0  0  0  0  0
   16.4302   -4.8658    0.0000 C   0  0  0  0  0  0  0  0  0  0  0  0
   17.9109   -4.6263    0.0000 C   0  0  0  0  0  0  0  0  0  0  0  0
   18.4439   -3.2242    0.0000 C   0  0  0  0  0  0  0  0  0  0  0  0
   17.4961   -2.0615    0.0000 C   0  0  0  0  0  0  0  0  0  0  0  0
   16.0153   -2.3011    0.0000 C   0  0  0  0  0  0  0  0  0  0  0  0
   11.5731   -3.0196    0.0000 C   0  0  0  0  0  0  0  0  0  0  0  0
   11.3952   -4.5090    0.0000 O   0  0  0  0  0  0  0  0  0  0  0  0
   10.6253   -1.8570    0.0000 N   0  0  0  0  0  0  0  0  0  0  0  0
    9.1445   -2.0965    0.0000 C   0  0  0  0  0  0  0  0  0  0  0  0
    9.6375   -3.5131    0.0000 C   0  0  0  0  0  0  0  0  0  0  0  0
   11.1109   -3.7945    0.0000 C   0  0  0  0  0  0  0  0  0  0  0  0
   11.6039   -5.2112    0.0000 N   0  0  0  0  0  0  0  0  0  0  0  0
   12.3368   -2.9302    0.0000 O   0  0  0  0  0  0  0  0  0  0  0  0
    7.6711   -1.8151    0.0000 C   0  0  0  0  0  0  0  0  0  0  0  0
    6.9946   -3.1539    0.0000 O   0  0  0  0  0  0  0  0  0  0  0  0
    7.1781   -0.3984    0.0000 N   0  0  0  0  0  0  0  0  0  0  0  0
    5.7048   -0.1170    0.0000 C   0  0  0  0  0  0  0  0  0  0  0  0
    5.6835   -1.6169    0.0000 C   0  0  0  0  0  0  0  0  0  0  0  0
    6.9718   -2.3852    0.0000 C   0  0  0  0  0  0  0  0  0  0  0  0
    5.1505   -3.0190    0.0000 C   0  0  0  0  0  0  0  0  0  0  0  0
    6.0983   -4.1816    0.0000 C   0  0  0  0  0  0  0  0  0  0  0  0
    4.4165    0.6513    0.0000 C   0  0  0  0  0  0  0  0  0  0  0  0
    3.3229   -0.3754    0.0000 O   0  0  0  0  0  0  0  0  0  0  0  0
    4.4377    2.1511    0.0000 N   0  0  0  0  0  0  0  0  0  0  0  0
    3.1495    2.9195    0.0000 C   0  0  0  0  0  0  0  0  0  0  0  0
    3.0331    1.4240    0.0000 C   0  0  0  0  0  0  0  0  0  0  0  0
    2.6359   -0.0224    0.0000 C   0  0  0  0  0  0  0  0  0  0  0  0
    1.9720   -1.3676    0.0000 C   0  0  0  0  0  0  0  0  0  0  0  0
    1.0656   -2.5627    0.0000 C   0  0  0  0  0  0  0  0  0  0  0  0
   -0.0506   -3.5648    0.0000 C   0  0  0  0  0  0  0  0  0  0  0  0
   -1.3362   -4.3375    0.0000 C   0  0  0  0  0  0  0  0  0  0  0  0
   -2.7449   -4.8529    0.0000 C   0  0  0  0  0  0  0  0  0  0  0  0
    4.4100    3.7326    0.0000 C   0  0  0  0  0  0  0  0  0  0  0  0
    2.9807    4.4100    0.0000 C   0  0  0  0  0  0  0  0  0  0  0  0
    4.3997    4.8962    0.0000 O   0  0  0  0  0  0  0  0  0  0  0  0
    2.5329    5.8416    0.0000 N   0  0  0  0  0  0  0  0  0  0  0  0
    1.8222    7.1625    0.0000 C   0  0  0  0  0  0  0  0  0  0  0  0
    2.4430    8.5280    0.0000 C   0  0  0  0  0  0  0  0  0  0  0  0
    3.9360    8.6731    0.0000 C   0  0  0  0  0  0  0  0  0  0  0  0
    4.5568   10.0386    0.0000 O   0  0  0  0  0  0  0  0  0  0  0  0
    4.8082    7.4528    0.0000 O   0  0  0  0  0  0  0  0  0  0  0  0
    0.8744    8.3251    0.0000 C   0  0  0  0  0  0  0  0  0  0  0  0
    1.8053    9.5014    0.0000 O   0  0  0  0  0  0  0  0  0  0  0  0
   -0.2763    9.2874    0.0000 N   0  0  0  0  0  0  0  0  0  0  0  0
   -1.5883   10.0145    0.0000 C   0  0  0  0  0  0  0  0  0  0  0  0
   -1.8043   11.4988    0.0000 C   0  0  0  0  0  0  0  0  0  0  0  0
   -0.6267   12.4281    0.0000 C   0  0  0  0  0  0  0  0  0  0  0  0
   -0.8427   13.9124    0.0000 C   0  0  0  0  0  0  0  0  0  0  0  0
    0.3348   14.8417    0.0000 N   0  0  0  0  0  0  0  0  0  0  0  0
    0.1188   16.3260    0.0000 C   0  0  0  0  0  0  0  0  0  0  0  0
    1.2963   17.2553    0.0000 N   0  0  0  0  0  0  0  0  0  0  0  0
   -1.2747   16.8812    0.0000 N   0  0  0  0  0  0  0  0  0  0  0  0
   -3.0142   10.4801    0.0000 C   0  0  0  0  0  0  0  0  0  0  0  0
   -2.8670   11.9729    0.0000 O   0  0  0  0  0  0  0  0  0  0  0  0
   -4.5024   10.6675    0.0000 N   0  0  0  0  0  0  0  0  0  0  0  0
   -5.9992   10.5698    0.0000 C   0  0  0  0  0  0  0  0  0  0  0  0
   -6.9834   11.7017    0.0000 C   0  0  0  0  0  0  0  0  0  0  0  0
   -6.3260   13.0500    0.0000 C   0  0  0  0  0  0  0  0  0  0  0  0
   -8.2955   12.4288    0.0000 C   0  0  0  0  0  0  0  0  0  0  0  0
   -8.3218   13.9286    0.0000 C   0  0  0  0  0  0  0  0  0  0  0  0
   -7.4505   10.1906    0.0000 C   0  0  0  0  0  0  0  0  0  0  0  0
   -7.9659   11.5993    0.0000 O   0  0  0  0  0  0  0  0  0  0  0  0
   -8.8038    9.5436    0.0000 N   0  0  0  0  0  0  0  0  0  0  0  0
  -10.0102    8.6522    0.0000 C   0  0  0  0  0  0  0  0  0  0  0  0
  -11.4502    9.0724    0.0000 C   0  0  0  0  0  0  0  0  0  0  0  0
  -11.8063   10.5295    0.0000 C   0  0  0  0  0  0  0  0  0  0  0  0
  -13.2462   10.9497    0.0000 C   0  0  0  0  0  0  0  0  0  0  0  0
  -13.6023   12.4068    0.0000 C   0  0  0  0  0  0  0  0  0  0  0  0
  -15.0423   12.8269    0.0000 N   0  0  0  0  0  0  0  0  0  0  0  0
  -11.0261    7.5486    0.0000 C   0  0  0  0  0  0  0  0  0  0  0  0
  -12.3229    8.3026    0.0000 O   0  0  0  0  0  0  0  0  0  0  0  0
  -11.8148    6.2727    0.0000 N   0  0  0  0  0  0  0  0  0  0  0  0
  -12.3477    4.8706    0.0000 C   0  0  0  0  0  0  0  0  0  0  0  0
  -13.7863    4.4455    0.0000 C   0  0  0  0  0  0  0  0  0  0  0  0
  -14.8736    5.4788    0.0000 C   0  0  0  0  0  0  0  0  0  0  0  0
  -16.3121    5.0538    0.0000 C   0  0  0  0  0  0  0  0  0  0  0  0
  -17.3995    6.0870    0.0000 O   0  0  0  0  0  0  0  0  0  0  0  0
  -16.6633    3.5955    0.0000 O   0  0  0  0  0  0  0  0  0  0  0  0
  -12.6057    3.3929    0.0000 C   0  0  0  0  0  0  0  0  0  0  0  0
  -14.1042    3.3261    0.0000 O   0  0  0  0  0  0  0  0  0  0  0  0
  -12.5794    1.8931    0.0000 N   0  0  0  0  0  0  0  0  0  0  0  0
  -12.2697    0.4255    0.0000 C   0  0  0  0  0  0  0  0  0  0  0  0
  -13.2500   -0.7098    0.0000 C   0  0  0  0  0  0  0  0  0  0  0  0
  -14.7234   -0.4284    0.0000 C   0  0  0  0  0  0  0  0  0  0  0  0
  -15.7038   -1.5637    0.0000 C   0  0  0  0  0  0  0  0  0  0  0  0
  -16.0117    0.3399    0.0000 C   0  0  0  0  0  0  0  0  0  0  0  0
  -11.6878   -0.9571    0.0000 C   0  0  0  0  0  0  0  0  0  0  0  0
  -12.9123   -1.8235    0.0000 O   0  0  0  0  0  0  0  0  0  0  0  0
  -10.8548   -2.2045    0.0000 N   0  0  0  0  0  0  0  0  0  0  0  0
   -9.8008   -3.2718    0.0000 C   0  0  0  0  0  0  0  0  0  0  0  0
   -8.5639   -4.1203    0.0000 C   0  0  0  0  0  0  0  0  0  0  0  0
   -7.1887   -4.7194    0.0000 C   0  0  0  0  0  0  0  0  0  0  0  0
   -5.7250   -5.0473    0.0000 C   0  0  0  0  0  0  0  0  0  0  0  0
   -4.2256   -5.0924    0.0000 C   0  0  0  0  0  0  0  0  0  0  0  0
  -11.2251   -3.7423    0.0000 C   0  0  0  0  0  0  0  0  0  0  0  0
  -10.0118   -4.7569    0.0000 C   0  0  0  0  0  0  0  0  0  0  0  0
   -9.0901   -5.9403    0.0000 O   0  0  0  0  0  0  0  0  0  0  0  0
  -11.4034   -5.3167    0.0000 N   0  0  0  0  0  0  0  0  0  0  0  0
  -11.6143   -6.8018    0.0000 C   0  0  0  0  0  0  0  0  0  0  0  0
  -11.3046   -8.2695    0.0000 C   0  0  0  0  0  0  0  0  0  0  0  0
  -10.5116   -9.5428    0.0000 O   0  0  0  0  0  0  0  0  0  0  0  0
  -12.2904   -9.4001    0.0000 C   0  0  0  0  0  0  0  0  0  0  0  0
  -13.0059   -7.3617    0.0000 C   0  0  0  0  0  0  0  0  0  0  0  0
  -14.1866   -6.4364    0.0000 O   0  0  0  0  0  0  0  0  0  0  0  0
  -13.2169   -8.8468    0.0000 N   0  0  0  0  0  0  0  0  0  0  0  0
  -14.6085   -9.4066    0.0000 C   0  0  0  0  0  0  0  0  0  0  0  0
  -16.1077   -9.4568    0.0000 C   0  0  0  0  0  0  0  0  0  0  0  0
  -16.9007   -8.1835    0.0000 C   0  0  0  0  0  0  0  0  0  0  0  0
  -18.3998   -8.2336    0.0000 C   0  0  0  0  0  0  0  0  0  0  0  0
  -17.2103   -6.7158    0.0000 C   0  0  0  0  0  0  0  0  0  0  0  0
  -14.8195  -10.8917    0.0000 C   0  0  0  0  0  0  0  0  0  0  0  0
  -13.6388  -11.8170    0.0000 O   0  0  0  0  0  0  0  0  0  0  0  0
  -16.2111  -11.4516    0.0000 N   0  0  0  0  0  0  0  0  0  0  0  0
  -16.4220  -12.9367    0.0000 C   0  0  0  0  0  0  0  0  0  0  0  0
  -16.1123  -14.4043    0.0000 C   0  0  0  0  0  0  0  0  0  0  0  0
  -17.2285  -15.4064    0.0000 C   0  0  0  0  0  0  0  0  0  0  0  0
  -15.3193  -15.6776    0.0000 C   0  0  0  0  0  0  0  0  0  0  0  0
  -13.8202  -15.6275    0.0000 C   0  0  0  0  0  0  0  0  0  0  0  0
  -17.8136  -13.4965    0.0000 C   0  0  0  0  0  0  0  0  0  0  0  0
  -18.2040  -14.9448    0.0000 O   0  0  0  0  0  0  0  0  0  0  0  0
  -18.9943  -12.5713    0.0000 O   0  0  0  0  0  0  0  0  0  0  0  0
   21.9951   -0.6678    0.0000 H   0  0  0  0  0  0  0  0  0  0  0  0
   22.1143   -5.1587    0.0000 H   0  0  0  0  0  0  0  0  0  0  0  0
   24.6908   -6.6954    0.0000 H   0  0  0  0  0  0  0  0  0  0  0  0
   24.4123   -0.7354    0.0000 H   0  0  0  0  0  0  0  0  0  0  0  0
   31.3863    0.9009    0.0000 H   0  0  0  0  0  0  0  0  0  0  0  0
   32.3945   -4.1965    0.0000 H   0  0  0  0  0  0  0  0  0  0  0  0
   29.4515   -4.7786    0.0000 H   0  0  0  0  0  0  0  0  0  0  0  0
   34.3497   -2.4856    0.0000 H   0  0  0  0  0  0  0  0  0  0  0  0
   24.5329   -3.1030    0.0000 H   0  0  0  0  0  0  0  0  0  0  0  0
   22.5328   -0.6638    0.0000 H   0  0  0  0  0  0  0  0  0  0  0  0
   26.4677    2.5765    0.0000 H   0  0  0  0  0  0  0  0  0  0  0  0
   24.0084    3.4143    0.0000 H   0  0  0  0  0  0  0  0  0  0  0  0
   19.5802   -0.6224    0.0000 H   0  0  0  0  0  0  0  0  0  0  0  0
   19.1972   -4.0163    0.0000 H   0  0  0  0  0  0  0  0  0  0  0  0
   17.2691   -3.9890    0.0000 H   0  0  0  0  0  0  0  0  0  0  0  0
   17.7958   -0.8391    0.0000 H   0  0  0  0  0  0  0  0  0  0  0  0
   16.0134   -0.9228    0.0000 H   0  0  0  0  0  0  0  0  0  0  0  0
   14.2016   -0.5573    0.0000 H   0  0  0  0  0  0  0  0  0  0  0  0
   12.5608   -1.3634    0.0000 H   0  0  0  0  0  0  0  0  0  0  0  0
   14.4946   -5.3594    0.0000 H   0  0  0  0  0  0  0  0  0  0  0  0
   12.7910   -4.8284    0.0000 H   0  0  0  0  0  0  0  0  0  0  0  0
   15.8972   -6.2679    0.0000 H   0  0  0  0  0  0  0  0  0  0  0  0
   18.8587   -5.7889    0.0000 H   0  0  0  0  0  0  0  0  0  0  0  0
   19.9246   -2.9846    0.0000 H   0  0  0  0  0  0  0  0  0  0  0  0
   18.1960   -0.7348    0.0000 H   0  0  0  0  0  0  0  0  0  0  0  0
   15.2163   -1.0316    0.0000 H   0  0  0  0  0  0  0  0  0  0  0  0
   11.1582   -0.4548    0.0000 H   0  0  0  0  0  0  0  0  0  0  0  0
    9.1658   -0.5966    0.0000 H   0  0  0  0  0  0  0  0  0  0  0  0
    9.6163   -5.0130    0.0000 H   0  0  0  0  0  0  0  0  0  0  0  0
    8.1568   -3.7527    0.0000 H   0  0  0  0  0  0  0  0  0  0  0  0
   13.0320   -5.6701    0.0000 H   0  0  0  0  0  0  0  0  0  0  0  0
   10.6235   -6.3465    0.0000 H   0  0  0  0  0  0  0  0  0  0  0  0
    8.1585    0.7369    0.0000 H   0  0  0  0  0  0  0  0  0  0  0  0
    6.2377    1.2851    0.0000 H   0  0  0  0  0  0  0  0  0  0  0  0
    4.2101   -1.3355    0.0000 H   0  0  0  0  0  0  0  0  0  0  0  0
    7.1335   -3.8765    0.0000 H   0  0  0  0  0  0  0  0  0  0  0  0
    8.4452   -2.6666    0.0000 H   0  0  0  0  0  0  0  0  0  0  0  0
    7.8617   -1.1832    0.0000 H   0  0  0  0  0  0  0  0  0  0  0  0
    4.1702   -4.1543    0.0000 H   0  0  0  0  0  0  0  0  0  0  0  0
    3.8623   -2.2507    0.0000 H   0  0  0  0  0  0  0  0  0  0  0  0
    5.5654   -5.5838    0.0000 H   0  0  0  0  0  0  0  0  0  0  0  0
    7.3866   -4.9500    0.0000 H   0  0  0  0  0  0  0  0  0  0  0  0
    7.4205   -3.4732    0.0000 H   0  0  0  0  0  0  0  0  0  0  0  0
    5.8267    2.7176    0.0000 H   0  0  0  0  0  0  0  0  0  0  0  0
    4.5188    1.6305    0.0000 H   0  0  0  0  0  0  0  0  0  0  0  0
    4.0227    0.2967    0.0000 H   0  0  0  0  0  0  0  0  0  0  0  0
    4.1131   -0.2829    0.0000 H   0  0  0  0  0  0  0  0  0  0  0  0
    3.5463   -1.2145    0.0000 H   0  0  0  0  0  0  0  0  0  0  0  0
    3.4720   -1.3650    0.0000 H   0  0  0  0  0  0  0  0  0  0  0  0
    2.7991   -2.6189    0.0000 H   0  0  0  0  0  0  0  0  0  0  0  0
    2.4937   -3.0216    0.0000 H   0  0  0  0  0  0  0  0  0  0  0  0
    1.6410   -3.9480    0.0000 H   0  0  0  0  0  0  0  0  0  0  0  0
    1.2649   -4.2856    0.0000 H   0  0  0  0  0  0  0  0  0  0  0  0
    0.2522   -5.0339    0.0000 H   0  0  0  0  0  0  0  0  0  0  0  0
   -0.1810   -5.2943    0.0000 H   0  0  0  0  0  0  0  0  0  0  0  0
   -1.5000   -5.8285    0.0000 H   0  0  0  0  0  0  0  0  0  0  0  0
   -2.3657   -6.3042    0.0000 H   0  0  0  0  0  0  0  0  0  0  0  0
    5.8179    3.2153    0.0000 H   0  0  0  0  0  0  0  0  0  0  0  0
    5.4553    4.8084    0.0000 H   0  0  0  0  0  0  0  0  0  0  0  0
    3.6869    5.0468    0.0000 H   0  0  0  0  0  0  0  0  0  0  0  0
    3.9154    6.4234    0.0000 H   0  0  0  0  0  0  0  0  0  0  0  0
    3.3214    7.2127    0.0000 H   0  0  0  0  0  0  0  0  0  0  0  0
    2.7408    9.9982    0.0000 H   0  0  0  0  0  0  0  0  0  0  0  0
    1.1242    9.2427    0.0000 H   0  0  0  0  0  0  0  0  0  0  0  0
    6.3011    7.5979    0.0000 H   0  0  0  0  0  0  0  0  0  0  0  0
    0.7167   10.4117    0.0000 H   0  0  0  0  0  0  0  0  0  0  0  0
   -0.2595   10.7103    0.0000 H   0  0  0  0  0  0  0  0  0  0  0  0
   -2.5149   12.8198    0.0000 H   0  0  0  0  0  0  0  0  0  0  0  0
   -3.3001   11.3870    0.0000 H   0  0  0  0  0  0  0  0  0  0  0  0
    0.7976   12.8985    0.0000 H   0  0  0  0  0  0  0  0  0  0  0  0
    0.3824   11.3183    0.0000 H   0  0  0  0  0  0  0  0  0  0  0  0
   -1.5534   15.2334    0.0000 H   0  0  0  0  0  0  0  0  0  0  0  0
   -2.3138   13.6191    0.0000 H   0  0  0  0  0  0  0  0  0  0  0  0
    1.7283   14.2865    0.0000 H   0  0  0  0  0  0  0  0  0  0  0  0
    1.0803   18.7396    0.0000 H   0  0  0  0  0  0  0  0  0  0  0  0
   -1.4907   18.3655    0.0000 H   0  0  0  0  0  0  0  0  0  0  0  0
   -2.4522   15.9519    0.0000 H   0  0  0  0  0  0  0  0  0  0  0  0
   -4.2749   12.1501    0.0000 H   0  0  0  0  0  0  0  0  0  0  0  0
   -5.2576   11.8736    0.0000 H   0  0  0  0  0  0  0  0  0  0  0  0
   -8.1813   10.7990    0.0000 H   0  0  0  0  0  0  0  0  0  0  0  0
   -7.3243   14.3837    0.0000 H   0  0  0  0  0  0  0  0  0  0  0  0
   -5.5514   14.2859    0.0000 H   0  0  0  0  0  0  0  0  0  0  0  0
   -5.0463   12.7321    0.0000 H   0  0  0  0  0  0  0  0  0  0  0  0
   -9.7770   12.6633    0.0000 H   0  0  0  0  0  0  0  0  0  0  0  0
   -8.9529   11.0806    0.0000 H   0  0  0  0  0  0  0  0  0  0  0  0
   -9.6338   14.6557    0.0000 H   0  0  0  0  0  0  0  0  0  0  0  0
   -7.8336   15.3469    0.0000 H   0  0  0  0  0  0  0  0  0  0  0  0
   -6.8275   14.0596    0.0000 H   0  0  0  0  0  0  0  0  0  0  0  0
   -9.5765   10.8293    0.0000 H   0  0  0  0  0  0  0  0  0  0  0  0
  -10.0912   10.1500    0.0000 H   0  0  0  0  0  0  0  0  0  0  0  0
  -12.9470    8.9747    0.0000 H   0  0  0  0  0  0  0  0  0  0  0  0
  -11.9698    7.6653    0.0000 H   0  0  0  0  0  0  0  0  0  0  0  0
  -11.4620   11.9895    0.0000 H   0  0  0  0  0  0  0  0  0  0  0  0
  -10.3776   10.9865    0.0000 H   0  0  0  0  0  0  0  0  0  0  0  0
  -14.7430   10.8520    0.0000 H   0  0  0  0  0  0  0  0  0  0  0  0
  -13.5905    9.4897    0.0000 H   0  0  0  0  0  0  0  0  0  0  0  0
  -13.4386   13.8978    0.0000 H   0  0  0  0  0  0  0  0  0  0  0  0
  -12.1286   12.6862    0.0000 H   0  0  0  0  0  0  0  0  0  0  0  0
  -15.3984   14.2841    0.0000 H   0  0  0  0  0  0  0  0  0  0  0  0
  -16.1261   11.7900    0.0000 H   0  0  0  0  0  0  0  0  0  0  0  0
  -13.0690    7.0955    0.0000 H   0  0  0  0  0  0  0  0  0  0  0  0
  -13.2257    6.0868    0.0000 H   0  0  0  0  0  0  0  0  0  0  0  0
  -15.0923    3.7078    0.0000 H   0  0  0  0  0  0  0  0  0  0  0  0
  -13.4627    2.9808    0.0000 H   0  0  0  0  0  0  0  0  0  0  0  0
  -15.5420    6.8217    0.0000 H   0  0  0  0  0  0  0  0  0  0  0  0
  -13.9188    6.6356    0.0000 H   0  0  0  0  0  0  0  0  0  0  0  0
  -18.1018    3.1704    0.0000 H   0  0  0  0  0  0  0  0  0  0  0  0
  -14.0793    1.9073    0.0000 H   0  0  0  0  0  0  0  0  0  0  0  0
  -13.6658    0.9740    0.0000 H   0  0  0  0  0  0  0  0  0  0  0  0
  -13.7830   -2.1120    0.0000 H   0  0  0  0  0  0  0  0  0  0  0  0
  -12.1860   -1.7671    0.0000 H   0  0  0  0  0  0  0  0  0  0  0  0
  -14.5456    1.0610    0.0000 H   0  0  0  0  0  0  0  0  0  0  0  0
  -17.2005   -1.4640    0.0000 H   0  0  0  0  0  0  0  0  0  0  0  0
  -16.2367   -2.9659    0.0000 H   0  0  0  0  0  0  0  0  0  0  0  0
  -14.5188   -2.4834    0.0000 H   0  0  0  0  0  0  0  0  0  0  0  0
  -17.4006   -0.2265    0.0000 H   0  0  0  0  0  0  0  0  0  0  0  0
  -16.9595    1.5025    0.0000 H   0  0  0  0  0  0  0  0  0  0  0  0
  -15.0313    1.4752    0.0000 H   0  0  0  0  0  0  0  0  0  0  0  0
  -12.1243   -3.0036    0.0000 H   0  0  0  0  0  0  0  0  0  0  0  0
   -8.4899   -5.6185    0.0000 H   0  0  0  0  0  0  0  0  0  0  0  0
   -9.6575   -5.1469    0.0000 H   0  0  0  0  0  0  0  0  0  0  0  0
   -7.0128   -6.2090    0.0000 H   0  0  0  0  0  0  0  0  0  0  0  0
   -8.0682   -5.9344    0.0000 H   0  0  0  0  0  0  0  0  0  0  0  0
   -5.0995   -6.4107    0.0000 H   0  0  0  0  0  0  0  0  0  0  0  0
   -6.5197   -6.3195    0.0000 H   0  0  0  0  0  0  0  0  0  0  0  0
   -4.1280   -6.5892    0.0000 H   0  0  0  0  0  0  0  0  0  0  0  0
  -11.8762   -5.0936    0.0000 H   0  0  0  0  0  0  0  0  0  0  0  0
  -12.7244   -3.6972    0.0000 H   0  0  0  0  0  0  0  0  0  0  0  0
  -11.7939   -2.3543    0.0000 H   0  0  0  0  0  0  0  0  0  0  0  0
  -12.6880   -4.5423    0.0000 H   0  0  0  0  0  0  0  0  0  0  0  0
  -10.1152   -6.7517    0.0000 H   0  0  0  0  0  0  0  0  0  0  0  0
   -9.9130   -7.7097    0.0000 H   0  0  0  0  0  0  0  0  0  0  0  0
   -9.0125   -9.4926    0.0000 H   0  0  0  0  0  0  0  0  0  0  0  0
  -12.1111  -10.7392    0.0000 H   0  0  0  0  0  0  0  0  0  0  0  0
  -13.8124   -9.8314    0.0000 H   0  0  0  0  0  0  0  0  0  0  0  0
  -13.7188   -8.5198    0.0000 H   0  0  0  0  0  0  0  0  0  0  0  0
  -12.1578   -9.9090    0.0000 H   0  0  0  0  0  0  0  0  0  0  0  0
  -14.7370   -7.9121    0.0000 H   0  0  0  0  0  0  0  0  0  0  0  0
  -17.4993  -10.0166    0.0000 H   0  0  0  0  0  0  0  0  0  0  0  0
  -16.1623  -10.9558    0.0000 H   0  0  0  0  0  0  0  0  0  0  0  0
  -15.5877   -7.4582    0.0000 H   0  0  0  0  0  0  0  0  0  0  0  0
  -19.3421   -7.0665    0.0000 H   0  0  0  0  0  0  0  0  0  0  0  0
  -19.7914   -8.7935    0.0000 H   0  0  0  0  0  0  0  0  0  0  0  0
  -18.2713   -9.7281    0.0000 H   0  0  0  0  0  0  0  0  0  0  0  0
  -18.5689   -6.0799    0.0000 H   0  0  0  0  0  0  0  0  0  0  0  0
  -16.9994   -5.2307    0.0000 H   0  0  0  0  0  0  0  0  0  0  0  0
  -15.7112   -6.6657    0.0000 H   0  0  0  0  0  0  0  0  0  0  0  0
  -17.4957  -10.6771    0.0000 H   0  0  0  0  0  0  0  0  0  0  0  0
  -14.9229  -12.8865    0.0000 H   0  0  0  0  0  0  0  0  0  0  0  0
  -14.7993  -13.6790    0.0000 H   0  0  0  0  0  0  0  0  0  0  0  0
  -17.1000  -16.9009    0.0000 H   0  0  0  0  0  0  0  0  0  0  0  0
  -18.6201  -15.9662    0.0000 H   0  0  0  0  0  0  0  0  0  0  0  0
  -18.4252  -14.5020    0.0000 H   0  0  0  0  0  0  0  0  0  0  0  0
  -15.0096  -17.1453    0.0000 H   0  0  0  0  0  0  0  0  0  0  0  0
  -16.6323  -16.4029    0.0000 H   0  0  0  0  0  0  0  0  0  0  0  0
  -13.0272  -16.9007    0.0000 H   0  0  0  0  0  0  0  0  0  0  0  0
  -12.4286  -15.0676    0.0000 H   0  0  0  0  0  0  0  0  0  0  0  0
  -13.9486  -14.1330    0.0000 H   0  0  0  0  0  0  0  0  0  0  0  0
  -20.3859  -13.1311    0.0000 H   0  0  0  0  0  0  0  0  0  0  0  0
  1  2  1  0
  2  3  1  0
  3  4  2  0
  4  5  1  0
  5  6  2  0
  6  7  1  0
  7  8  2  0
  7  9  1  0
  9 10  1  0
 10 11  1  0
 11 12  2  0
  9 13  1  0
 13 14  1  0
 14 15  2  0
 15 16  1  0
 16 17  2  0
 17 18  1  0
 16 19  1  0
 14 20  1  0
 20 21  1  0
 21 22  2  0
 22 23  1  0
 23 24  2  0
 24 25  1  0
 25 26  2  0
 25 27  1  0
  1 28  2  0
  1 29  1  0
 29 30  1  0
 30 31  1  0
 31 32  1  0
 32 33  2  0
 32 34  1  0
 34 35  1  0
 35 36  1  0
 36 37  1  0
 37 38  2  0
 38 39  1  0
 39 40  2  0
 40 41  1  0
 41 42  2  0
 35 43  1  0
 43 44  2  0
 43 45  1  0
 45 46  1  0
 46 47  1  0
 47 48  1  0
 48 49  1  0
 48 50  2  0
 46 51  1  0
 51 52  2  0
 51 53  1  0
 53 54  1  0
 54 55  1  0
 55 56  1  0
 55 57  1  0
 57 58  1  0
 54 59  1  0
 59 60  2  0
 59 61  1  0
 62 61  1  6
 62 63  1  0
 63 64  1  0
 64 65  1  0
 65 66  1  0
 66 67  1  0
 67 68  1  0
 68 69  1  0
 62 70  1  0
 62 71  1  0
 71 72  2  0
 71 73  1  0
 73 74  1  0
 74 75  1  0
 75 76  1  0
 76 77  2  0
 76 78  1  0
 74 79  1  0
 79 80  2  0
 79 81  1  0
 81 82  1  0
 82 83  1  0
 83 84  1  0
 84 85  1  0
 85 86  1  0
 86 87  1  0
 87 88  2  3
 87 89  1  0
 82 90  1  0
 90 91  2  0
 90 92  1  0
 92 93  1  0
 93 94  1  0
 94 95  1  0
 94 96  1  0
 96 97  1  0
 93 98  1  0
 98 99  2  0
 98100  1  0
100101  1  0
101102  1  0
102103  1  0
103104  1  0
104105  1  0
105106  1  0
101107  1  0
107108  2  0
107109  1  0
109110  1  0
110111  1  0
111112  1  0
112113  1  0
113114  2  0
113115  1  0
110116  1  0
116117  2  0
116118  1  0
118119  1  0
119120  1  0
120121  1  0
121122  1  0
121123  1  0
119124  1  0
124125  2  0
124126  1  0
126127  1  0
127128  1  0
128129  1  0
129130  1  0
130131  1  0
127132  1  0
127133  1  1
133134  2  0
133135  1  0
135136  1  0
136137  1  0
137138  1  0
137139  1  0
136140  1  0
140141  2  0
140142  1  0
142143  1  0
143144  1  0
144145  1  0
145146  1  0
145147  1  0
143148  1  0
148149  2  0
148150  1  0
150151  1  0
151152  1  0
152153  1  0
152154  1  0
154155  1  0
151156  1  0
156157  2  0
156158  1  0
  8  3  1  0
 42 37  1  0
 11  6  1  0
 69131  2  0
 18 13  2  0
 22  9  1  0
 26 21  1  0
  2159  1  0
  4160  1  0
  5161  1  0
  8162  1  0
 15163  1  0
 17164  1  0
 18165  1  0
 19166  1  0
 23167  1  0
 24168  1  0
 26169  1  0
 27170  1  0
 29171  1  0
 30172  1  0
 30173  1  0
 31174  1  0
 31175  1  0
 34176  1  0
 35177  1  1
 36178  1  0
 36179  1  0
 38180  1  0
 39181  1  0
 40182  1  0
 41183  1  0
 42184  1  0
 45185  1  0
 46186  1  1
 47187  1  0
 47188  1  0
 49189  1  0
 49190  1  0
 53191  1  0
 54192  1  1
 55193  1  6
 56194  1  0
 56195  1  0
 56196  1  0
 57197  1  0
 57198  1  0
 58199  1  0
 58200  1  0
 58201  1  0
 61202  1  0
 63203  1  0
 63204  1  0
 64205  1  0
 64206  1  0
 65207  1  0
 65208  1  0
 66209  1  0
 66210  1  0
 67211  1  0
 67212  1  0
 68213  1  0
 68214  1  0
 69215  1  0
 70216  1  0
 70217  1  0
 70218  1  0
 73219  1  0
 74220  1  6
 75221  1  0
 75222  1  0
 78223  1  0
 81224  1  0
 82225  1  6
 83226  1  0
 83227  1  0
 84228  1  0
 84229  1  0
 85230  1  0
 85231  1  0
 86232  1  0
 88233  1  0
 89234  1  0
 89235  1  0
 92236  1  0
 93237  1  6
 94238  1  1
 95239  1  0
 95240  1  0
 95241  1  0
 96242  1  0
 96243  1  0
 97244  1  0
 97245  1  0
 97246  1  0
100247  1  0
101248  1  6
102249  1  0
102250  1  0
103251  1  0
103252  1  0
104253  1  0
104254  1  0
105255  1  0
105256  1  0
106257  1  0
106258  1  0
109259  1  0
110260  1  6
111261  1  0
111262  1  0
112263  1  0
112264  1  0
115265  1  0
118266  1  0
119267  1  6
120268  1  0
120269  1  0
121270  1  0
122271  1  0
122272  1  0
122273  1  0
123274  1  0
123275  1  0
123276  1  0
126277  1  0
128278  1  0
128279  1  0
129280  1  0
129281  1  0
130282  1  0
130283  1  0
131284  1  0
132285  1  0
132286  1  0
132287  1  0
135288  1  0
136289  1  1
137290  1  1
138291  1  0
139292  1  0
139293  1  0
139294  1  0
142295  1  0
143296  1  6
144297  1  0
144298  1  0
145299  1  0
146300  1  0
146301  1  0
146302  1  0
147303  1  0
147304  1  0
147305  1  0
150306  1  0
151307  1  1
152308  1  1
153309  1  0
153310  1  0
153311  1  0
154312  1  0
154313  1  0
155314  1  0
155315  1  0
155316  1  0
158317  1  0
M  END
