
     RDKit          2D

320321  0  0  0  0  0  0  0  0999 V2000
  -26.5700   10.0228    0.0000 N   0  0  0  0  0  0  0  0  0  0  0  0
  -25.3638    9.1310    0.0000 C   0  0  0  0  0  0  0  0  0  0  0  0
  -25.5330    7.6406    0.0000 C   0  0  0  0  0  0  0  0  0  0  0  0
  -24.3269    6.7488    0.0000 C   0  0  0  0  0  0  0  0  0  0  0  0
  -23.0348    7.5107    0.0000 O   0  0  0  0  0  0  0  0  0  0  0  0
  -24.4961    5.2584    0.0000 N   0  0  0  0  0  0  0  0  0  0  0  0
  -23.2900    4.3666    0.0000 C   0  0  0  0  0  0  0  0  0  0  0  0
  -22.6212    5.7093    0.0000 C   0  0  0  0  0  0  0  0  0  0  0  0
  -21.1241    5.8015    0.0000 C   0  0  0  0  0  0  0  0  0  0  0  0
  -20.4553    7.1441    0.0000 C   0  0  0  0  0  0  0  0  0  0  0  0
  -18.9581    7.2363    0.0000 N   0  0  0  0  0  0  0  0  0  0  0  0
  -18.2894    8.5790    0.0000 C   0  0  0  0  0  0  0  0  0  0  0  0
  -16.7922    8.6711    0.0000 N   0  0  0  0  0  0  0  0  0  0  0  0
  -19.1177    9.8295    0.0000 N   0  0  0  0  0  0  0  0  0  0  0  0
  -22.4616    3.1161    0.0000 C   0  0  0  0  0  0  0  0  0  0  0  0
  -20.9644    3.2083    0.0000 O   0  0  0  0  0  0  0  0  0  0  0  0
  -23.1304    1.7735    0.0000 N   0  0  0  0  0  0  0  0  0  0  0  0
  -22.3020    0.5230    0.0000 C   0  0  0  0  0  0  0  0  0  0  0  0
  -23.6773   -0.0757    0.0000 C   0  0  0  0  0  0  0  0  0  0  0  0
  -24.8834    0.8161    0.0000 C   0  0  0  0  0  0  0  0  0  0  0  0
  -26.2588    0.2174    0.0000 C   0  0  0  0  0  0  0  0  0  0  0  0
  -27.4649    1.1091    0.0000 N   0  0  0  0  0  0  0  0  0  0  0  0
  -28.8403    0.5105    0.0000 C   0  0  0  0  0  0  0  0  0  0  0  0
  -30.0464    1.4022    0.0000 N   0  0  0  0  0  0  0  0  0  0  0  0
  -29.0095   -0.9799    0.0000 N   0  0  0  0  0  0  0  0  0  0  0  0
  -21.0958   -0.3688    0.0000 C   0  0  0  0  0  0  0  0  0  0  0  0
  -21.2650   -1.8592    0.0000 O   0  0  0  0  0  0  0  0  0  0  0  0
  -19.7205    0.2299    0.0000 N   0  0  0  0  0  0  0  0  0  0  0  0
  -18.5143   -0.6619    0.0000 C   0  0  0  0  0  0  0  0  0  0  0  0
  -17.1390   -0.0632    0.0000 C   0  0  0  0  0  0  0  0  0  0  0  0
  -17.1463    0.7339    0.0000 O   0  0  0  0  0  0  0  0  0  0  0  0
  -15.9328   -0.9550    0.0000 N   0  0  0  0  0  0  0  0  0  0  0  0
  -14.5575   -0.3563    0.0000 C   0  0  0  0  0  0  0  0  0  0  0  0
  -15.3859    0.8942    0.0000 C   0  0  0  0  0  0  0  0  0  0  0  0
  -16.8831    0.9852    0.0000 O   0  0  0  0  0  0  0  0  0  0  0  0
  -13.0603   -0.2642    0.0000 C   0  0  0  0  0  0  0  0  0  0  0  0
  -12.3916    1.0785    0.0000 O   0  0  0  0  0  0  0  0  0  0  0  0
  -12.2319   -1.5147    0.0000 N   0  0  0  0  0  0  0  0  0  0  0  0
  -10.7348   -1.4225    0.0000 C   0  0  0  0  0  0  0  0  0  0  0  0
  -10.9040   -2.9129    0.0000 C   0  0  0  0  0  0  0  0  0  0  0  0
  -12.2793   -3.5116    0.0000 C   0  0  0  0  0  0  0  0  0  0  0  0
  -12.4485   -5.0020    0.0000 C   0  0  0  0  0  0  0  0  0  0  0  0
  -13.8239   -5.6007    0.0000 N   0  0  0  0  0  0  0  0  0  0  0  0
  -13.9931   -7.0911    0.0000 C   0  0  0  0  0  0  0  0  0  0  0  0
  -15.3685   -7.6898    0.0000 N   0  0  0  0  0  0  0  0  0  0  0  0
  -12.7870   -7.9829    0.0000 N   0  0  0  0  0  0  0  0  0  0  0  0
   -9.3594   -0.8238    0.0000 C   0  0  0  0  0  0  0  0  0  0  0  0
   -8.4049   -1.9809    0.0000 O   0  0  0  0  0  0  0  0  0  0  0  0
   -9.1902    0.6666    0.0000 N   0  0  0  0  0  0  0  0  0  0  0  0
  -10.2965    1.6795    0.0000 C   0  0  0  0  0  0  0  0  0  0  0  0
   -9.6750    3.0447    0.0000 C   0  0  0  0  0  0  0  0  0  0  0  0
   -8.1846    2.8755    0.0000 C   0  0  0  0  0  0  0  0  0  0  0  0
   -7.8849    1.4057    0.0000 C   0  0  0  0  0  0  0  0  0  0  0  0
   -7.2863    0.0304    0.0000 C   0  0  0  0  0  0  0  0  0  0  0  0
   -5.7959   -0.1388    0.0000 O   0  0  0  0  0  0  0  0  0  0  0  0
   -8.1780   -1.1758    0.0000 N   0  0  0  0  0  0  0  0  0  0  0  0
   -7.5794   -2.5511    0.0000 C   0  0  0  0  0  0  0  0  0  0  0  0
   -9.0378   -2.9018    0.0000 C   0  0  0  0  0  0  0  0  0  0  0  0
  -10.3920   -2.2567    0.0000 O   0  0  0  0  0  0  0  0  0  0  0  0
   -6.5464   -3.6388    0.0000 C   0  0  0  0  0  0  0  0  0  0  0  0
   -6.9719   -5.0772    0.0000 O   0  0  0  0  0  0  0  0  0  0  0  0
   -5.0880   -3.2880    0.0000 N   0  0  0  0  0  0  0  0  0  0  0  0
   -4.0550   -4.3757    0.0000 C   0  0  0  0  0  0  0  0  0  0  0  0
   -2.5966   -4.0249    0.0000 C   0  0  0  0  0  0  0  0  0  0  0  0
   -2.3497   -2.5454    0.0000 O   0  0  0  0  0  0  0  0  0  0  0  0
   -1.5637   -5.1126    0.0000 N   0  0  0  0  0  0  0  0  0  0  0  0
   -0.1052   -4.7618    0.0000 C   0  0  0  0  0  0  0  0  0  0  0  0
   -0.7039   -3.3865    0.0000 C   0  0  0  0  0  0  0  0  0  0  0  0
    1.3852   -4.9311    0.0000 C   0  0  0  0  0  0  0  0  0  0  0  0
    1.7854   -3.4854    0.0000 O   0  0  0  0  0  0  0  0  0  0  0  0
    1.9839   -6.3064    0.0000 N   0  0  0  0  0  0  0  0  0  0  0  0
    3.4743   -6.4756    0.0000 C   0  0  0  0  0  0  0  0  0  0  0  0
    3.0155   -5.0475    0.0000 C   0  0  0  0  0  0  0  0  0  0  0  0
    2.9981   -3.5476    0.0000 C   0  0  0  0  0  0  0  0  0  0  0  0
    3.4236   -2.1092    0.0000 C   0  0  0  0  0  0  0  0  0  0  0  0
    4.2541   -0.8601    0.0000 C   0  0  0  0  0  0  0  0  0  0  0  0
    2.7070   -7.7646    0.0000 C   0  0  0  0  0  0  0  0  0  0  0  0
    4.3336   -7.7051    0.0000 C   0  0  0  0  0  0  0  0  0  0  0  0
    3.2459   -8.7381    0.0000 O   0  0  0  0  0  0  0  0  0  0  0  0
    5.5171   -8.6266    0.0000 N   0  0  0  0  0  0  0  0  0  0  0  0
    6.9197   -9.1584    0.0000 C   0  0  0  0  0  0  0  0  0  0  0  0
    7.4491  -10.5619    0.0000 C   0  0  0  0  0  0  0  0  0  0  0  0
    6.4983  -11.7221    0.0000 C   0  0  0  0  0  0  0  0  0  0  0  0
    7.0277  -13.1256    0.0000 C   0  0  0  0  0  0  0  0  0  0  0  0
    6.0769  -14.2857    0.0000 N   0  0  0  0  0  0  0  0  0  0  0  0
    6.6063  -15.6892    0.0000 C   0  0  0  0  0  0  0  0  0  0  0  0
    5.6555  -16.8494    0.0000 N   0  0  0  0  0  0  0  0  0  0  0  0
    8.0864  -15.9325    0.0000 N   0  0  0  0  0  0  0  0  0  0  0  0
    8.4167   -9.2531    0.0000 C   0  0  0  0  0  0  0  0  0  0  0  0
    8.5462  -10.7475    0.0000 O   0  0  0  0  0  0  0  0  0  0  0  0
    9.8751   -8.9024    0.0000 N   0  0  0  0  0  0  0  0  0  0  0  0
   11.1654   -8.1373    0.0000 C   0  0  0  0  0  0  0  0  0  0  0  0
   12.5927   -8.5985    0.0000 C   0  0  0  0  0  0  0  0  0  0  0  0
   12.9070  -10.0652    0.0000 C   0  0  0  0  0  0  0  0  0  0  0  0
   14.3343  -10.5264    0.0000 C   0  0  0  0  0  0  0  0  0  0  0  0
   14.6486  -11.9931    0.0000 N   0  0  0  0  0  0  0  0  0  0  0  0
   16.0759  -12.4543    0.0000 C   0  0  0  0  0  0  0  0  0  0  0  0
   16.3902  -13.9210    0.0000 N   0  0  0  0  0  0  0  0  0  0  0  0
   17.1890  -11.4488    0.0000 N   0  0  0  0  0  0  0  0  0  0  0  0
   12.1728   -7.0260    0.0000 C   0  0  0  0  0  0  0  0  0  0  0  0
   13.4219   -7.8565    0.0000 O   0  0  0  0  0  0  0  0  0  0  0  0
   12.8079   -5.6671    0.0000 N   0  0  0  0  0  0  0  0  0  0  0  0
   13.0142   -4.1813    0.0000 C   0  0  0  0  0  0  0  0  0  0  0  0
   14.2647   -3.3529    0.0000 C   0  0  0  0  0  0  0  0  0  0  0  0
   15.6074   -4.0217    0.0000 C   0  0  0  0  0  0  0  0  0  0  0  0
   16.8579   -3.1933    0.0000 C   0  0  0  0  0  0  0  0  0  0  0  0
   18.2005   -3.8621    0.0000 N   0  0  0  0  0  0  0  0  0  0  0  0
   19.4510   -3.0337    0.0000 C   0  0  0  0  0  0  0  0  0  0  0  0
   20.7937   -3.7024    0.0000 N   0  0  0  0  0  0  0  0  0  0  0  0
   19.3589   -1.5365    0.0000 N   0  0  0  0  0  0  0  0  0  0  0  0
   12.7734   -2.7008    0.0000 C   0  0  0  0  0  0  0  0  0  0  0  0
   14.2016   -2.2420    0.0000 O   0  0  0  0  0  0  0  0  0  0  0  0
   12.1069   -1.3570    0.0000 N   0  0  0  0  0  0  0  0  0  0  0  0
   11.0740   -0.2693    0.0000 C   0  0  0  0  0  0  0  0  0  0  0  0
    9.7663    0.4655    0.0000 C   0  0  0  0  0  0  0  0  0  0  0  0
    8.3002    0.7823    0.0000 C   0  0  0  0  0  0  0  0  0  0  0  0
    6.8058    0.6529    0.0000 C   0  0  0  0  0  0  0  0  0  0  0  0
    5.4159    0.0887    0.0000 C   0  0  0  0  0  0  0  0  0  0  0  0
   12.4902    0.2249    0.0000 C   0  0  0  0  0  0  0  0  0  0  0  0
   11.2060    1.2249    0.0000 C   0  0  0  0  0  0  0  0  0  0  0  0
   10.2229    2.3578    0.0000 O   0  0  0  0  0  0  0  0  0  0  0  0
   12.5660    1.8576    0.0000 N   0  0  0  0  0  0  0  0  0  0  0  0
   12.6980    3.3518    0.0000 C   0  0  0  0  0  0  0  0  0  0  0  0
   12.3110    4.8010    0.0000 C   0  0  0  0  0  0  0  0  0  0  0  0
   13.3726    5.8608    0.0000 C   0  0  0  0  0  0  0  0  0  0  0  0
   12.9856    7.3100    0.0000 C   0  0  0  0  0  0  0  0  0  0  0  0
   14.0471    8.3698    0.0000 N   0  0  0  0  0  0  0  0  0  0  0  0
   13.6602    9.8190    0.0000 C   0  0  0  0  0  0  0  0  0  0  0  0
   14.8430   10.7414    0.0000 N   0  0  0  0  0  0  0  0  0  0  0  0
   12.2116   10.2084    0.0000 N   0  0  0  0  0  0  0  0  0  0  0  0
   14.0580    3.9846    0.0000 C   0  0  0  0  0  0  0  0  0  0  0  0
   15.2860    3.1232    0.0000 O   0  0  0  0  0  0  0  0  0  0  0  0
   14.1900    5.4788    0.0000 N   0  0  0  0  0  0  0  0  0  0  0  0
   15.5500    6.1115    0.0000 C   0  0  0  0  0  0  0  0  0  0  0  0
   17.0444    6.2410    0.0000 C   0  0  0  0  0  0  0  0  0  0  0  0
   15.6820    7.6057    0.0000 C   0  0  0  0  0  0  0  0  0  0  0  0
   14.6990    8.7387    0.0000 O   0  0  0  0  0  0  0  0  0  0  0  0
   17.0420    8.2385    0.0000 N   0  0  0  0  0  0  0  0  0  0  0  0
   17.1740    9.7327    0.0000 C   0  0  0  0  0  0  0  0  0  0  0  0
   16.7870   11.1819    0.0000 C   0  0  0  0  0  0  0  0  0  0  0  0
   18.5340   10.3654    0.0000 C   0  0  0  0  0  0  0  0  0  0  0  0
   19.7620    9.5040    0.0000 O   0  0  0  0  0  0  0  0  0  0  0  0
   18.6660   11.8596    0.0000 N   0  0  0  0  0  0  0  0  0  0  0  0
   20.0260   12.4924    0.0000 C   0  0  0  0  0  0  0  0  0  0  0  0
   21.5204   12.6218    0.0000 C   0  0  0  0  0  0  0  0  0  0  0  0
   20.1581   13.9865    0.0000 C   0  0  0  0  0  0  0  0  0  0  0  0
   18.9301   14.8480    0.0000 O   0  0  0  0  0  0  0  0  0  0  0  0
   21.5181   14.6193    0.0000 N   0  0  0  0  0  0  0  0  0  0  0  0
   21.6501   16.1135    0.0000 C   0  0  0  0  0  0  0  0  0  0  0  0
   21.2631   17.5627    0.0000 C   0  0  0  0  0  0  0  0  0  0  0  0
   23.0101   16.7463    0.0000 C   0  0  0  0  0  0  0  0  0  0  0  0
   23.3232   18.2132    0.0000 O   0  0  0  0  0  0  0  0  0  0  0  0
   24.2381   15.8849    0.0000 O   0  0  0  0  0  0  0  0  0  0  0  0
  -26.4007   11.5132    0.0000 H   0  0  0  0  0  0  0  0  0  0  0  0
  -27.9453    9.4241    0.0000 H   0  0  0  0  0  0  0  0  0  0  0  0
  -24.6951   10.4737    0.0000 H   0  0  0  0  0  0  0  0  0  0  0  0
  -23.9254    8.7055    0.0000 H   0  0  0  0  0  0  0  0  0  0  0  0
  -26.9714    8.0660    0.0000 H   0  0  0  0  0  0  0  0  0  0  0  0
  -26.2018    6.2979    0.0000 H   0  0  0  0  0  0  0  0  0  0  0  0
  -25.8715    4.6597    0.0000 H   0  0  0  0  0  0  0  0  0  0  0  0
  -24.3776    3.3337    0.0000 H   0  0  0  0  0  0  0  0  0  0  0  0
  -22.4520    7.1997    0.0000 H   0  0  0  0  0  0  0  0  0  0  0  0
  -23.9139    6.4702    0.0000 H   0  0  0  0  0  0  0  0  0  0  0  0
  -19.6857    5.3760    0.0000 H   0  0  0  0  0  0  0  0  0  0  0  0
  -21.2933    4.3110    0.0000 H   0  0  0  0  0  0  0  0  0  0  0  0
  -20.2861    8.6345    0.0000 H   0  0  0  0  0  0  0  0  0  0  0  0
  -21.8311    7.7417    0.0000 H   0  0  0  0  0  0  0  0  0  0  0  0
  -18.1297    5.9858    0.0000 H   0  0  0  0  0  0  0  0  0  0  0  0
  -16.1234   10.0138    0.0000 H   0  0  0  0  0  0  0  0  0  0  0  0
  -15.9638    7.4206    0.0000 H   0  0  0  0  0  0  0  0  0  0  0  0
  -18.4490   11.1721    0.0000 H   0  0  0  0  0  0  0  0  0  0  0  0
  -20.6149    9.7373    0.0000 H   0  0  0  0  0  0  0  0  0  0  0  0
  -24.6276    1.8645    0.0000 H   0  0  0  0  0  0  0  0  0  0  0  0
  -21.2143    1.5559    0.0000 H   0  0  0  0  0  0  0  0  0  0  0  0
  -24.6309   -1.2335    0.0000 H   0  0  0  0  0  0  0  0  0  0  0  0
  -22.8489   -1.3262    0.0000 H   0  0  0  0  0  0  0  0  0  0  0  0
  -25.7118    2.0666    0.0000 H   0  0  0  0  0  0  0  0  0  0  0  0
  -24.2383    2.1702    0.0000 H   0  0  0  0  0  0  0  0  0  0  0  0
  -27.3465   -0.8156    0.0000 H   0  0  0  0  0  0  0  0  0  0  0  0
  -25.5890   -1.1248    0.0000 H   0  0  0  0  0  0  0  0  0  0  0  0
  -27.2957    2.5996    0.0000 H   0  0  0  0  0  0  0  0  0  0  0  0
  -31.4218    0.8036    0.0000 H   0  0  0  0  0  0  0  0  0  0  0  0
  -29.8772    2.8927    0.0000 H   0  0  0  0  0  0  0  0  0  0  0  0
  -30.3849   -1.5786    0.0000 H   0  0  0  0  0  0  0  0  0  0  0  0
  -27.8034   -1.8717    0.0000 H   0  0  0  0  0  0  0  0  0  0  0  0
  -19.5512    1.7203    0.0000 H   0  0  0  0  0  0  0  0  0  0  0  0
  -19.6020   -1.6949    0.0000 H   0  0  0  0  0  0  0  0  0  0  0  0
  -17.6859   -1.9124    0.0000 H   0  0  0  0  0  0  0  0  0  0  0  0
  -16.1021   -2.4454    0.0000 H   0  0  0  0  0  0  0  0  0  0  0  0
  -14.2067   -1.8147    0.0000 H   0  0  0  0  0  0  0  0  0  0  0  0
  -15.7366    2.3526    0.0000 H   0  0  0  0  0  0  0  0  0  0  0  0
  -14.0105    1.4928    0.0000 H   0  0  0  0  0  0  0  0  0  0  0  0
  -17.7114    2.0525    0.0000 H   0  0  0  0  0  0  0  0  0  0  0  0
  -13.0594   -2.7658    0.0000 H   0  0  0  0  0  0  0  0  0  0  0  0
  -11.2607   -0.0177    0.0000 H   0  0  0  0  0  0  0  0  0  0  0  0
  -10.5532   -4.3713    0.0000 H   0  0  0  0  0  0  0  0  0  0  0  0
   -9.4290   -3.1858    0.0000 H   0  0  0  0  0  0  0  0  0  0  0  0
  -13.7765   -3.6038    0.0000 H   0  0  0  0  0  0  0  0  0  0  0  0
  -13.1295   -2.2758    0.0000 H   0  0  0  0  0  0  0  0  0  0  0  0
  -12.0978   -6.4604    0.0000 H   0  0  0  0  0  0  0  0  0  0  0  0
  -10.9513   -5.0930    0.0000 H   0  0  0  0  0  0  0  0  0  0  0  0
  -15.0300   -4.7089    0.0000 H   0  0  0  0  0  0  0  0  0  0  0  0
  -15.5377   -9.1802    0.0000 H   0  0  0  0  0  0  0  0  0  0  0  0
  -16.5746   -6.7980    0.0000 H   0  0  0  0  0  0  0  0  0  0  0  0
  -12.9562   -9.4733    0.0000 H   0  0  0  0  0  0  0  0  0  0  0  0
  -11.4116   -7.3842    0.0000 H   0  0  0  0  0  0  0  0  0  0  0  0
  -11.5892    2.4403    0.0000 H   0  0  0  0  0  0  0  0  0  0  0  0
  -11.3286    0.5911    0.0000 H   0  0  0  0  0  0  0  0  0  0  0  0
   -9.3509    4.5093    0.0000 H   0  0  0  0  0  0  0  0  0  0  0  0
  -11.0977    3.5201    0.0000 H   0  0  0  0  0  0  0  0  0  0  0  0
   -6.6915    3.0199    0.0000 H   0  0  0  0  0  0  0  0  0  0  0  0
   -8.1721    4.3755    0.0000 H   0  0  0  0  0  0  0  0  0  0  0  0
   -6.4545    1.8574    0.0000 H   0  0  0  0  0  0  0  0  0  0  0  0
   -9.6780   -1.1895    0.0000 H   0  0  0  0  0  0  0  0  0  0  0  0
   -6.3289   -1.7227    0.0000 H   0  0  0  0  0  0  0  0  0  0  0  0
  -10.1780   -3.8765    0.0000 H   0  0  0  0  0  0  0  0  0  0  0  0
   -8.4391   -4.2772    0.0000 H   0  0  0  0  0  0  0  0  0  0  0  0
  -11.5292   -2.1649    0.0000 H   0  0  0  0  0  0  0  0  0  0  0  0
   -4.6625   -1.8496    0.0000 H   0  0  0  0  0  0  0  0  0  0  0  0
   -5.3055   -5.2041    0.0000 H   0  0  0  0  0  0  0  0  0  0  0  0
   -3.4564   -5.7510    0.0000 H   0  0  0  0  0  0  0  0  0  0  0  0
   -1.9891   -6.5510    0.0000 H   0  0  0  0  0  0  0  0  0  0  0  0
   -0.0131   -6.2590    0.0000 H   0  0  0  0  0  0  0  0  0  0  0  0
   -2.1626   -3.0369    0.0000 H   0  0  0  0  0  0  0  0  0  0  0  0
   -0.7961   -1.8893    0.0000 H   0  0  0  0  0  0  0  0  0  0  0  0
    0.7545   -3.0357    0.0000 H   0  0  0  0  0  0  0  0  0  0  0  0
    0.9517   -7.3949    0.0000 H   0  0  0  0  0  0  0  0  0  0  0  0
    1.6922   -5.7538    0.0000 H   0  0  0  0  0  0  0  0  0  0  0  0
    1.7247   -4.2835    0.0000 H   0  0  0  0  0  0  0  0  0  0  0  0
    1.5002   -3.4677    0.0000 H   0  0  0  0  0  0  0  0  0  0  0  0
    1.7511   -2.7140    0.0000 H   0  0  0  0  0  0  0  0  0  0  0  0
    1.9237   -2.1303    0.0000 H   0  0  0  0  0  0  0  0  0  0  0  0
    2.6266   -0.8384    0.0000 H   0  0  0  0  0  0  0  0  0  0  0  0
    3.1427    0.1473    0.0000 H   0  0  0  0  0  0  0  0  0  0  0  0
    1.2159   -7.9276    0.0000 H   0  0  0  0  0  0  0  0  0  0  0  0
    2.4269   -9.2382    0.0000 H   0  0  0  0  0  0  0  0  0  0  0  0
    3.9393   -8.6199    0.0000 H   0  0  0  0  0  0  0  0  0  0  0  0
    4.7823   -9.9343    0.0000 H   0  0  0  0  0  0  0  0  0  0  0  0
    5.7369  -10.0809    0.0000 H   0  0  0  0  0  0  0  0  0  0  0  0
    8.5579  -11.5720    0.0000 H   0  0  0  0  0  0  0  0  0  0  0  0
    8.8861  -10.1318    0.0000 H   0  0  0  0  0  0  0  0  0  0  0  0
    5.2081  -12.4871    0.0000 H   0  0  0  0  0  0  0  0  0  0  0  0
    5.3894  -10.7119    0.0000 H   0  0  0  0  0  0  0  0  0  0  0  0
    8.0051  -14.2634    0.0000 H   0  0  0  0  0  0  0  0  0  0  0  0
    8.4015  -12.5235    0.0000 H   0  0  0  0  0  0  0  0  0  0  0  0
    4.5968  -14.0424    0.0000 H   0  0  0  0  0  0  0  0  0  0  0  0
    6.1849  -18.2529    0.0000 H   0  0  0  0  0  0  0  0  0  0  0  0
    4.1753  -16.6061    0.0000 H   0  0  0  0  0  0  0  0  0  0  0  0
    8.6158  -17.3360    0.0000 H   0  0  0  0  0  0  0  0  0  0  0  0
    9.0372  -14.7723    0.0000 H   0  0  0  0  0  0  0  0  0  0  0  0
   10.4393  -10.2922    0.0000 H   0  0  0  0  0  0  0  0  0  0  0  0
   11.1491   -9.6373    0.0000 H   0  0  0  0  0  0  0  0  0  0  0  0
   14.0738   -8.3614    0.0000 H   0  0  0  0  0  0  0  0  0  0  0  0
   13.1524   -7.2069    0.0000 H   0  0  0  0  0  0  0  0  0  0  0  0
   12.7007  -11.5510    0.0000 H   0  0  0  0  0  0  0  0  0  0  0  0
   11.4258  -10.3024    0.0000 H   0  0  0  0  0  0  0  0  0  0  0  0
   15.8333  -10.4716    0.0000 H   0  0  0  0  0  0  0  0  0  0  0  0
   14.7202   -9.0769    0.0000 H   0  0  0  0  0  0  0  0  0  0  0  0
   13.5355  -12.9986    0.0000 H   0  0  0  0  0  0  0  0  0  0  0  0
   17.8176  -14.3822    0.0000 H   0  0  0  0  0  0  0  0  0  0  0  0
   15.2772  -14.9265    0.0000 H   0  0  0  0  0  0  0  0  0  0  0  0
   18.6164  -11.9100    0.0000 H   0  0  0  0  0  0  0  0  0  0  0  0
   16.8747   -9.9821    0.0000 H   0  0  0  0  0  0  0  0  0  0  0  0
   14.2463   -6.0925    0.0000 H   0  0  0  0  0  0  0  0  0  0  0  0
   14.1767   -5.1292    0.0000 H   0  0  0  0  0  0  0  0  0  0  0  0
   15.0028   -2.0471    0.0000 H   0  0  0  0  0  0  0  0  0  0  0  0
   13.5256   -2.0476    0.0000 H   0  0  0  0  0  0  0  0  0  0  0  0
   16.6403   -5.1094    0.0000 H   0  0  0  0  0  0  0  0  0  0  0  0
   14.8693   -5.3275    0.0000 H   0  0  0  0  0  0  0  0  0  0  0  0
   17.7496   -1.9872    0.0000 H   0  0  0  0  0  0  0  0  0  0  0  0
   15.9652   -1.9878    0.0000 H   0  0  0  0  0  0  0  0  0  0  0  0
   18.2927   -5.3592    0.0000 H   0  0  0  0  0  0  0  0  0  0  0  0
   22.0442   -2.8740    0.0000 H   0  0  0  0  0  0  0  0  0  0  0  0
   20.8859   -5.1996    0.0000 H   0  0  0  0  0  0  0  0  0  0  0  0
   20.6094   -0.7081    0.0000 H   0  0  0  0  0  0  0  0  0  0  0  0
   18.0162   -0.8677    0.0000 H   0  0  0  0  0  0  0  0  0  0  0  0
   13.3364   -0.4977    0.0000 H   0  0  0  0  0  0  0  0  0  0  0  0
    9.4521    1.9323    0.0000 H   0  0  0  0  0  0  0  0  0  0  0  0
   10.7228    1.6210    0.0000 H   0  0  0  0  0  0  0  0  0  0  0  0
    7.7325    2.1708    0.0000 H   0  0  0  0  0  0  0  0  0  0  0  0
    8.8736    2.1684    0.0000 H   0  0  0  0  0  0  0  0  0  0  0  0
    5.7199    1.6877    0.0000 H   0  0  0  0  0  0  0  0  0  0  0  0
    7.1261    2.1182    0.0000 H   0  0  0  0  0  0  0  0  0  0  0  0
    4.6509    1.3789    0.0000 H   0  0  0  0  0  0  0  0  0  0  0  0
   13.1186    1.5869    0.0000 H   0  0  0  0  0  0  0  0  0  0  0  0
   13.9765    0.0222    0.0000 H   0  0  0  0  0  0  0  0  0  0  0  0
   13.0821   -1.1534    0.0000 H   0  0  0  0  0  0  0  0  0  0  0  0
   13.8898    1.1523    0.0000 H   0  0  0  0  0  0  0  0  0  0  0  0
   11.2036    3.2224    0.0000 H   0  0  0  0  0  0  0  0  0  0  0  0
   11.3082    5.9166    0.0000 H   0  0  0  0  0  0  0  0  0  0  0  0
   10.9510    4.1683    0.0000 H   0  0  0  0  0  0  0  0  0  0  0  0
   14.7326    6.4936    0.0000 H   0  0  0  0  0  0  0  0  0  0  0  0
   14.7086    5.1788    0.0000 H   0  0  0  0  0  0  0  0  0  0  0  0
   12.1263    8.5395    0.0000 H   0  0  0  0  0  0  0  0  0  0  0  0
   11.5586    6.8477    0.0000 H   0  0  0  0  0  0  0  0  0  0  0  0
   15.5469    8.3424    0.0000 H   0  0  0  0  0  0  0  0  0  0  0  0
   14.3347   12.3280    0.0000 H   0  0  0  0  0  0  0  0  0  0  0  0
   16.1296   10.3294    0.0000 H   0  0  0  0  0  0  0  0  0  0  0  0
   11.8246   11.6577    0.0000 H   0  0  0  0  0  0  0  0  0  0  0  0
   11.1500    9.1487    0.0000 H   0  0  0  0  0  0  0  0  0  0  0  0
   13.2070    6.6117    0.0000 H   0  0  0  0  0  0  0  0  0  0  0  0
   15.9370    4.6623    0.0000 H   0  0  0  0  0  0  0  0  0  0  0  0
   17.9037    5.0115    0.0000 H   0  0  0  0  0  0  0  0  0  0  0  0
   18.4714    6.7033    0.0000 H   0  0  0  0  0  0  0  0  0  0  0  0
   17.0196    7.7408    0.0000 H   0  0  0  0  0  0  0  0  0  0  0  0
   18.3659    7.5332    0.0000 H   0  0  0  0  0  0  0  0  0  0  0  0
   15.6796    9.6032    0.0000 H   0  0  0  0  0  0  0  0  0  0  0  0
   17.3982   12.5517    0.0000 H   0  0  0  0  0  0  0  0  0  0  0  0
   15.9277   12.4113    0.0000 H   0  0  0  0  0  0  0  0  0  0  0  0
   15.6206   10.2388    0.0000 H   0  0  0  0  0  0  0  0  0  0  0  0
   17.5522   12.8643    0.0000 H   0  0  0  0  0  0  0  0  0  0  0  0
   20.4130   11.0432    0.0000 H   0  0  0  0  0  0  0  0  0  0  0  0
   22.3798   11.3924    0.0000 H   0  0  0  0  0  0  0  0  0  0  0  0
   22.9474   13.0841    0.0000 H   0  0  0  0  0  0  0  0  0  0  0  0
   21.4956   14.1216    0.0000 H   0  0  0  0  0  0  0  0  0  0  0  0
   22.8419   13.9140    0.0000 H   0  0  0  0  0  0  0  0  0  0  0  0
   20.1557   15.9840    0.0000 H   0  0  0  0  0  0  0  0  0  0  0  0
   22.1875   18.7440    0.0000 H   0  0  0  0  0  0  0  0  0  0  0  0
   20.4038   18.7922    0.0000 H   0  0  0  0  0  0  0  0  0  0  0  0
   19.9031   16.9299    0.0000 H   0  0  0  0  0  0  0  0  0  0  0  0
  1  2  1  0
  2  3  1  0
  3  4  1  0
  4  5  2  0
  4  6  1  0
  6  7  1  0
  7  8  1  0
  8  9  1  0
  9 10  1  0
 10 11  1  0
 11 12  1  0
 12 13  2  3
 12 14  1  0
  7 15  1  0
 15 16  2  0
 15 17  1  0
 17 18  1  0
 18 19  1  0
 19 20  1  0
 20 21  1  0
 21 22  1  0
 22 23  1  0
 23 24  2  3
 23 25  1  0
 18 26  1  0
 26 27  2  0
 26 28  1  0
 28 29  1  0
 29 30  1  0
 30 31  2  0
 30 32  1  0
 32 33  1  0
 33 34  1  0
 34 35  1  0
 33 36  1  0
 36 37  2  0
 36 38  1  0
 38 39  1  0
 39 40  1  0
 40 41  1  0
 41 42  1  0
 42 43  1  0
 43 44  1  0
 44 45  2  3
 44 46  1  0
 39 47  1  0
 47 48  2  0
 47 49  1  0
 49 50  1  0
 50 51  1  0
 51 52  1  0
 52 53  1  0
 53 54  1  0
 54 55  2  0
 54 56  1  0
 56 57  1  0
 57 58  1  0
 58 59  1  0
 57 60  1  0
 60 61  2  0
 60 62  1  0
 62 63  1  0
 63 64  1  0
 64 65  2  0
 64 66  1  0
 66 67  1  0
 67 68  1  0
 67 69  1  0
 69 70  2  0
 69 71  1  0
 72 71  1  1
 72 73  1  0
 73 74  1  0
 74 75  1  0
 75 76  1  0
 72 77  1  0
 72 78  1  0
 78 79  2  0
 78 80  1  0
 80 81  1  0
 81 82  1  0
 82 83  1  0
 83 84  1  0
 84 85  1  0
 85 86  1  0
 86 87  2  3
 86 88  1  0
 81 89  1  0
 89 90  2  0
 89 91  1  0
 91 92  1  0
 92 93  1  0
 93 94  1  0
 94 95  1  0
 95 96  1  0
 96 97  1  0
 97 98  2  3
 97 99  1  0
 92100  1  0
100101  2  0
100102  1  0
102103  1  0
103104  1  0
104105  1  0
105106  1  0
106107  1  0
107108  1  0
108109  2  3
108110  1  0
103111  1  0
111112  2  0
111113  1  0
113114  1  0
114115  1  0
115116  1  0
116117  1  0
117118  1  0
114119  1  0
114120  1  1
120121  2  0
120122  1  0
122123  1  0
123124  1  0
124125  1  0
125126  1  0
126127  1  0
127128  1  0
128129  2  3
128130  1  0
123131  1  0
131132  2  0
131133  1  0
133134  1  0
134135  1  0
134136  1  0
136137  2  0
136138  1  0
138139  1  0
139140  1  0
139141  1  0
141142  2  0
141143  1  0
143144  1  0
144145  1  0
144146  1  0
146147  2  0
146148  1  0
148149  1  0
149150  1  0
149151  1  0
151152  2  0
151153  1  0
 53 49  1  0
 76118  2  0
  1154  1  0
  1155  1  0
  2156  1  0
  2157  1  0
  3158  1  0
  3159  1  0
  6160  1  0
  7161  1  1
  8162  1  0
  8163  1  0
  9164  1  0
  9165  1  0
 10166  1  0
 10167  1  0
 11168  1  0
 13169  1  0
 13170  1  0
 14171  1  0
 14172  1  0
 17173  1  0
 18174  1  6
 19175  1  0
 19176  1  0
 20177  1  0
 20178  1  0
 21179  1  0
 21180  1  0
 22181  1  0
 24182  1  0
 24183  1  0
 25184  1  0
 25185  1  0
 28186  1  0
 29187  1  0
 29188  1  0
 32189  1  0
 33190  1  1
 34191  1  0
 34192  1  0
 35193  1  0
 38194  1  0
 39195  1  6
 40196  1  0
 40197  1  0
 41198  1  0
 41199  1  0
 42200  1  0
 42201  1  0
 43202  1  0
 45203  1  0
 45204  1  0
 46205  1  0
 46206  1  0
 50207  1  0
 50208  1  0
 51209  1  0
 51210  1  0
 52211  1  0
 52212  1  0
 53213  1  0
 56214  1  0
 57215  1  6
 58216  1  0
 58217  1  0
 59218  1  0
 62219  1  0
 63220  1  0
 63221  1  0
 66222  1  0
 67223  1  1
 68224  1  0
 68225  1  0
 68226  1  0
 71227  1  0
 73228  1  0
 73229  1  0
 74230  1  0
 74231  1  0
 75232  1  0
 75233  1  0
 76234  1  0
 77235  1  0
 77236  1  0
 77237  1  0
 80238  1  0
 81239  1  6
 82240  1  0
 82241  1  0
 83242  1  0
 83243  1  0
 84244  1  0
 84245  1  0
 85246  1  0
 87247  1  0
 87248  1  0
 88249  1  0
 88250  1  0
 91251  1  0
 92252  1  6
 93253  1  0
 93254  1  0
 94255  1  0
 94256  1  0
 95257  1  0
 95258  1  0
 96259  1  0
 98260  1  0
 98261  1  0
 99262  1  0
 99263  1  0
102264  1  0
103265  1  6
104266  1  0
104267  1  0
105268  1  0
105269  1  0
106270  1  0
106271  1  0
107272  1  0
109273  1  0
109274  1  0
110275  1  0
110276  1  0
113277  1  0
115278  1  0
115279  1  0
116280  1  0
116281  1  0
117282  1  0
117283  1  0
118284  1  0
119285  1  0
119286  1  0
119287  1  0
122288  1  0
123289  1  1
124290  1  0
124291  1  0
125292  1  0
125293  1  0
126294  1  0
126295  1  0
127296  1  0
129297  1  0
129298  1  0
130299  1  0
130300  1  0
133301  1  0
134302  1  6
135303  1  0
135304  1  0
135305  1  0
138306  1  0
139307  1  1
140308  1  0
140309  1  0
140310  1  0
143311  1  0
144312  1  6
145313  1  0
145314  1  0
145315  1  0
148316  1  0
149317  1  1
150318  1  0
150319  1  0
150320  1  0
M  CHG  8  13   1  24   1  45   1  87   1  98   1 109   1 129   1 153  -1
M  END
