
     RDKit          2D

340346  0  0  0  0  0  0  0  0999 V2000
   44.1928   -0.5616    0.0000 C   0  0  0  0  0  0  0  0  0  0  0  0
   45.4919    0.1884    0.0000 N   0  0  0  0  0  0  0  0  0  0  0  0
   46.7909   -0.5616    0.0000 C   0  0  0  0  0  0  0  0  0  0  0  0
   46.7909   -2.0616    0.0000 C   0  0  0  0  0  0  0  0  0  0  0  0
   48.0899   -2.8117    0.0000 C   0  0  0  0  0  0  0  0  0  0  0  0
   49.3890   -2.0617    0.0000 C   0  0  0  0  0  0  0  0  0  0  0  0
   49.3890   -0.5617    0.0000 C   0  0  0  0  0  0  0  0  0  0  0  0
   48.0900    0.1883    0.0000 C   0  0  0  0  0  0  0  0  0  0  0  0
   50.8156   -0.0982    0.0000 C   0  0  0  0  0  0  0  0  0  0  0  0
   51.6972   -1.3117    0.0000 O   0  0  0  0  0  0  0  0  0  0  0  0
   50.8155   -2.5253    0.0000 C   0  0  0  0  0  0  0  0  0  0  0  0
   51.2790   -3.9518    0.0000 O   0  0  0  0  0  0  0  0  0  0  0  0
   52.2828    0.2136    0.0000 C   0  0  0  0  0  0  0  0  0  0  0  0
   52.7464    1.6402    0.0000 C   0  0  0  0  0  0  0  0  0  0  0  0
   54.2136    1.9520    0.0000 C   0  0  0  0  0  0  0  0  0  0  0  0
   55.2173    0.8373    0.0000 C   0  0  0  0  0  0  0  0  0  0  0  0
   54.7537   -0.5893    0.0000 C   0  0  0  0  0  0  0  0  0  0  0  0
   53.2865   -0.9011    0.0000 C   0  0  0  0  0  0  0  0  0  0  0  0
   56.6845    1.1491    0.0000 O   0  0  0  0  0  0  0  0  0  0  0  0
   51.7427    2.7549    0.0000 O   0  0  0  0  0  0  0  0  0  0  0  0
   50.2755    2.4431    0.0000 C   0  0  0  0  0  0  0  0  0  0  0  0
   49.8119    1.0165    0.0000 C   0  0  0  0  0  0  0  0  0  0  0  0
   48.5610    1.3704    0.0000 C   0  0  0  0  0  0  0  0  0  0  0  0
   48.0257    1.9650    0.0000 C   0  0  0  0  0  0  0  0  0  0  0  0
   48.2730    2.7258    0.0000 C   0  0  0  0  0  0  0  0  0  0  0  0
   49.0555    2.8921    0.0000 C   0  0  0  0  0  0  0  0  0  0  0  0
   46.8009    4.3608    0.0000 O   0  0  0  0  0  0  0  0  0  0  0  0
   44.1928   -2.0616    0.0000 S   0  0  0  0  0  0  0  0  0  0  0  0
   42.8938    0.1885    0.0000 N   0  0  0  0  0  0  0  0  0  0  0  0
   41.5948   -0.5615    0.0000 C   0  0  0  0  0  0  0  0  0  0  0  0
   40.2957    0.1885    0.0000 C   0  0  0  0  0  0  0  0  0  0  0  0
   38.9967   -0.5614    0.0000 O   0  0  0  0  0  0  0  0  0  0  0  0
   37.6977    0.1886    0.0000 C   0  0  0  0  0  0  0  0  0  0  0  0
   36.3986   -0.5614    0.0000 C   0  0  0  0  0  0  0  0  0  0  0  0
   35.0996    0.1887    0.0000 O   0  0  0  0  0  0  0  0  0  0  0  0
   33.8005   -0.5613    0.0000 C   0  0  0  0  0  0  0  0  0  0  0  0
   32.5015    0.1887    0.0000 C   0  0  0  0  0  0  0  0  0  0  0  0
   31.2025   -0.5612    0.0000 O   0  0  0  0  0  0  0  0  0  0  0  0
   29.9034    0.1888    0.0000 C   0  0  0  0  0  0  0  0  0  0  0  0
   28.6044   -0.5612    0.0000 C   0  0  0  0  0  0  0  0  0  0  0  0
   27.3054    0.1889    0.0000 O   0  0  0  0  0  0  0  0  0  0  0  0
   26.0063   -0.5611    0.0000 C   0  0  0  0  0  0  0  0  0  0  0  0
   24.7073    0.1889    0.0000 C   0  0  0  0  0  0  0  0  0  0  0  0
   23.4082   -0.5610    0.0000 O   0  0  0  0  0  0  0  0  0  0  0  0
   22.1092    0.1890    0.0000 C   0  0  0  0  0  0  0  0  0  0  0  0
   20.8102   -0.5610    0.0000 C   0  0  0  0  0  0  0  0  0  0  0  0
   19.5111    0.1890    0.0000 O   0  0  0  0  0  0  0  0  0  0  0  0
   18.2121   -0.5609    0.0000 C   0  0  0  0  0  0  0  0  0  0  0  0
   16.9131    0.1891    0.0000 C   0  0  0  0  0  0  0  0  0  0  0  0
   15.6140   -0.5609    0.0000 C   0  0  0  0  0  0  0  0  0  0  0  0
   15.6140   -2.0609    0.0000 O   0  0  0  0  0  0  0  0  0  0  0  0
   14.3150    0.1892    0.0000 N   0  0  0  0  0  0  0  0  0  0  0  0
   13.0159   -0.5608    0.0000 C   0  0  0  0  0  0  0  0  0  0  0  0
   12.0517   -1.7098    0.0000 C   0  0  0  0  0  0  0  0  0  0  0  0
   10.5745   -1.4493    0.0000 C   0  0  0  0  0  0  0  0  0  0  0  0
    9.6103   -2.5984    0.0000 N   0  0  0  0  0  0  0  0  0  0  0  0
   10.1287   -0.7885    0.0000 O   0  0  0  0  0  0  0  0  0  0  0  0
   11.7169    0.1892    0.0000 C   0  0  0  0  0  0  0  0  0  0  0  0
   11.7169    1.6892    0.0000 O   0  0  0  0  0  0  0  0  0  0  0  0
   10.4178   -0.5607    0.0000 N   0  0  0  0  0  0  0  0  0  0  0  0
    9.1188    0.1893    0.0000 C   0  0  0  0  0  0  0  0  0  0  0  0
    8.1547    1.3384    0.0000 C   0  0  0  0  0  0  0  0  0  0  0  0
    6.6775    1.0780    0.0000 C   0  0  0  0  0  0  0  0  0  0  0  0
    5.7133    2.2271    0.0000 C   0  0  0  0  0  0  0  0  0  0  0  0
    4.2154    2.1486    0.0000 N   0  0  0  0  0  0  0  0  0  0  0  0
    6.2264    3.6366    0.0000 O   0  0  0  0  0  0  0  0  0  0  0  0
    7.8198   -0.5607    0.0000 C   0  0  0  0  0  0  0  0  0  0  0  0
    7.6369   -2.0495    0.0000 O   0  0  0  0  0  0  0  0  0  0  0  0
    6.5208    0.1894    0.0000 N   0  0  0  0  0  0  0  0  0  0  0  0
    5.2217   -0.5606    0.0000 C   0  0  0  0  0  0  0  0  0  0  0  0
    4.2575   -1.7096    0.0000 C   0  0  0  0  0  0  0  0  0  0  0  0
    2.7803   -1.4491    0.0000 C   0  0  0  0  0  0  0  0  0  0  0  0
    1.8161   -2.5982    0.0000 C   0  0  0  0  0  0  0  0  0  0  0  0
    1.4813   -0.6991    0.0000 C   0  0  0  0  0  0  0  0  0  0  0  0
    3.9227    0.1894    0.0000 C   0  0  0  0  0  0  0  0  0  0  0  0
    3.7399    1.6783    0.0000 O   0  0  0  0  0  0  0  0  0  0  0  0
    2.6236   -0.5605    0.0000 N   0  0  0  0  0  0  0  0  0  0  0  0
    1.3246    0.1895    0.0000 C   0  0  0  0  0  0  0  0  0  0  0  0
    0.3604    1.3386    0.0000 C   0  0  0  0  0  0  0  0  0  0  0  0
   -1.1168    1.0782    0.0000 C   0  0  0  0  0  0  0  0  0  0  0  0
   -2.0809    2.2272    0.0000 C   0  0  0  0  0  0  0  0  0  0  0  0
   -3.5581    1.9668    0.0000 C   0  0  0  0  0  0  0  0  0  0  0  0
   -4.5223    3.1159    0.0000 N   0  0  0  0  0  0  0  0  0  0  0  0
    0.0255   -0.5605    0.0000 C   0  0  0  0  0  0  0  0  0  0  0  0
   -0.3375   -2.0159    0.0000 O   0  0  0  0  0  0  0  0  0  0  0  0
   -1.2735    0.1896    0.0000 N   0  0  0  0  0  0  0  0  0  0  0  0
   -2.5725   -0.5604    0.0000 C   0  0  0  0  0  0  0  0  0  0  0  0
   -3.5367   -1.7094    0.0000 C   0  0  0  0  0  0  0  0  0  0  0  0
   -5.0139   -1.4489    0.0000 C   0  0  0  0  0  0  0  0  0  0  0  0
   -5.9782   -2.5980    0.0000 C   0  0  0  0  0  0  0  0  0  0  0  0
   -7.4554   -2.3375    0.0000 N   0  0  0  0  0  0  0  0  0  0  0  0
   -8.4196   -3.4865    0.0000 C   0  0  0  0  0  0  0  0  0  0  0  0
   -9.8540   -3.0479    0.0000 N   0  0  0  0  0  0  0  0  0  0  0  0
   -7.9066   -4.8961    0.0000 N   0  0  0  0  0  0  0  0  0  0  0  0
   -3.8716    0.1896    0.0000 C   0  0  0  0  0  0  0  0  0  0  0  0
   -4.2345    1.6451    0.0000 O   0  0  0  0  0  0  0  0  0  0  0  0
   -5.1706   -0.5603    0.0000 N   0  0  0  0  0  0  0  0  0  0  0  0
   -6.4696    0.1897    0.0000 C   0  0  0  0  0  0  0  0  0  0  0  0
   -7.4338    1.3388    0.0000 C   0  0  0  0  0  0  0  0  0  0  0  0
   -8.9062    1.6252    0.0000 O   0  0  0  0  0  0  0  0  0  0  0  0
   -7.7687   -0.5603    0.0000 C   0  0  0  0  0  0  0  0  0  0  0  0
   -8.1317   -2.0157    0.0000 O   0  0  0  0  0  0  0  0  0  0  0  0
   -9.0677    0.1898    0.0000 N   0  0  0  0  0  0  0  0  0  0  0  0
  -10.3668   -0.5602    0.0000 C   0  0  0  0  0  0  0  0  0  0  0  0
  -11.3310   -1.7093    0.0000 C   0  0  0  0  0  0  0  0  0  0  0  0
  -12.8082   -1.4487    0.0000 C   0  0  0  0  0  0  0  0  0  0  0  0
  -13.3212   -0.0392    0.0000 C   0  0  0  0  0  0  0  0  0  0  0  0
  -14.7984    0.2213    0.0000 C   0  0  0  0  0  0  0  0  0  0  0  0
  -15.7626   -0.9277    0.0000 C   0  0  0  0  0  0  0  0  0  0  0  0
  -15.2496   -2.3373    0.0000 C   0  0  0  0  0  0  0  0  0  0  0  0
  -13.7724   -2.5978    0.0000 C   0  0  0  0  0  0  0  0  0  0  0  0
  -11.6658    0.1898    0.0000 C   0  0  0  0  0  0  0  0  0  0  0  0
  -11.3028    1.6452    0.0000 O   0  0  0  0  0  0  0  0  0  0  0  0
  -12.9648   -0.5601    0.0000 N   0  0  0  0  0  0  0  0  0  0  0  0
  -14.2639    0.1899    0.0000 C   0  0  0  0  0  0  0  0  0  0  0  0
  -15.2280    1.3390    0.0000 C   0  0  0  0  0  0  0  0  0  0  0  0
  -14.7149    2.7485    0.0000 C   0  0  0  0  0  0  0  0  0  0  0  0
  -13.2377    3.0089    0.0000 C   0  0  0  0  0  0  0  0  0  0  0  0
  -12.7247    4.4185    0.0000 C   0  0  0  0  0  0  0  0  0  0  0  0
  -13.6888    5.5676    0.0000 C   0  0  0  0  0  0  0  0  0  0  0  0
  -15.1660    5.3071    0.0000 C   0  0  0  0  0  0  0  0  0  0  0  0
  -15.6791    3.8976    0.0000 C   0  0  0  0  0  0  0  0  0  0  0  0
  -15.5629   -0.5601    0.0000 C   0  0  0  0  0  0  0  0  0  0  0  0
  -15.9259   -2.0155    0.0000 O   0  0  0  0  0  0  0  0  0  0  0  0
  -16.8619    0.1899    0.0000 N   0  0  0  0  0  0  0  0  0  0  0  0
  -18.1610   -0.5600    0.0000 C   0  0  0  0  0  0  0  0  0  0  0  0
  -19.1252   -1.7091    0.0000 C   0  0  0  0  0  0  0  0  0  0  0  0
  -19.4600    0.1900    0.0000 C   0  0  0  0  0  0  0  0  0  0  0  0
  -19.4600    1.6900    0.0000 O   0  0  0  0  0  0  0  0  0  0  0  0
  -20.7591   -0.5600    0.0000 N   0  0  0  0  0  0  0  0  0  0  0  0
  -22.0581    0.1901    0.0000 C   0  0  0  0  0  0  0  0  0  0  0  0
  -23.0222    1.3392    0.0000 C   0  0  0  0  0  0  0  0  0  0  0  0
  -22.5092    2.7487    0.0000 C   0  0  0  0  0  0  0  0  0  0  0  0
  -23.4733    3.8978    0.0000 C   0  0  0  0  0  0  0  0  0  0  0  0
  -21.5450    3.8977    0.0000 C   0  0  0  0  0  0  0  0  0  0  0  0
  -23.3571   -0.5599    0.0000 C   0  0  0  0  0  0  0  0  0  0  0  0
  -23.3572   -2.0599    0.0000 O   0  0  0  0  0  0  0  0  0  0  0  0
  -24.6562    0.1901    0.0000 N   0  0  0  0  0  0  0  0  0  0  0  0
  -25.9552   -0.5598    0.0000 C   0  0  0  0  0  0  0  0  0  0  0  0
  -26.9194   -1.7089    0.0000 C   0  0  0  0  0  0  0  0  0  0  0  0
  -28.3966   -1.4484    0.0000 C   0  0  0  0  0  0  0  0  0  0  0  0
  -29.3608   -2.5974    0.0000 C   0  0  0  0  0  0  0  0  0  0  0  0
  -30.8381   -2.3369    0.0000 N   0  0  0  0  0  0  0  0  0  0  0  0
  -31.8023   -3.4859    0.0000 C   0  0  0  0  0  0  0  0  0  0  0  0
  -33.2367   -3.0473    0.0000 N   0  0  0  0  0  0  0  0  0  0  0  0
  -31.2893   -4.8955    0.0000 N   0  0  0  0  0  0  0  0  0  0  0  0
  -27.2542    0.1902    0.0000 C   0  0  0  0  0  0  0  0  0  0  0  0
  -27.2542    1.6902    0.0000 O   0  0  0  0  0  0  0  0  0  0  0  0
  -28.5533   -0.5598    0.0000 N   0  0  0  0  0  0  0  0  0  0  0  0
  -29.8523    0.1903    0.0000 C   0  0  0  0  0  0  0  0  0  0  0  0
  -30.8165    1.3394    0.0000 C   0  0  0  0  0  0  0  0  0  0  0  0
  -30.3034    2.7489    0.0000 C   0  0  0  0  0  0  0  0  0  0  0  0
  -31.2676    3.8980    0.0000 O   0  0  0  0  0  0  0  0  0  0  0  0
  -28.8262    3.0093    0.0000 O   0  0  0  0  0  0  0  0  0  0  0  0
  -31.1514   -0.5597    0.0000 C   0  0  0  0  0  0  0  0  0  0  0  0
  -31.5144   -2.0151    0.0000 O   0  0  0  0  0  0  0  0  0  0  0  0
  -32.4504    0.1903    0.0000 N   0  0  0  0  0  0  0  0  0  0  0  0
  -33.7494   -0.5596    0.0000 C   0  0  0  0  0  0  0  0  0  0  0  0
  -34.7137   -1.7087    0.0000 C   0  0  0  0  0  0  0  0  0  0  0  0
  -36.1909   -1.4482    0.0000 C   0  0  0  0  0  0  0  0  0  0  0  0
  -37.1551   -2.5972    0.0000 C   0  0  0  0  0  0  0  0  0  0  0  0
  -38.6530   -2.5187    0.0000 N   0  0  0  0  0  0  0  0  0  0  0  0
  -36.6421   -4.0068    0.0000 O   0  0  0  0  0  0  0  0  0  0  0  0
  -35.0485    0.1904    0.0000 C   0  0  0  0  0  0  0  0  0  0  0  0
  -35.0484    1.6904    0.0000 O   0  0  0  0  0  0  0  0  0  0  0  0
  -36.3475   -0.5596    0.0000 N   0  0  0  0  0  0  0  0  0  0  0  0
  -37.6465    0.1905    0.0000 C   0  0  0  0  0  0  0  0  0  0  0  0
  -38.6107    1.3396    0.0000 C   0  0  0  0  0  0  0  0  0  0  0  0
  -37.9296    2.6760    0.0000 C   0  0  0  0  0  0  0  0  0  0  0  0
  -39.9097    2.0896    0.0000 C   0  0  0  0  0  0  0  0  0  0  0  0
  -39.9097    3.5896    0.0000 C   0  0  0  0  0  0  0  0  0  0  0  0
  -38.9456   -0.5595    0.0000 C   0  0  0  0  0  0  0  0  0  0  0  0
  -40.3875   -0.1461    0.0000 O   0  0  0  0  0  0  0  0  0  0  0  0
  -39.1285   -2.0483    0.0000 O   0  0  0  0  0  0  0  0  0  0  0  0
   45.3091    1.6772    0.0000 H   0  0  0  0  0  0  0  0  0  0  0  0
   45.4918   -2.8116    0.0000 H   0  0  0  0  0  0  0  0  0  0  0  0
   48.0899   -4.3117    0.0000 H   0  0  0  0  0  0  0  0  0  0  0  0
   47.7270    1.6438    0.0000 H   0  0  0  0  0  0  0  0  0  0  0  0
   54.6772    3.3786    0.0000 H   0  0  0  0  0  0  0  0  0  0  0  0
   55.7574   -1.7040    0.0000 H   0  0  0  0  0  0  0  0  0  0  0  0
   52.8229   -2.3277    0.0000 H   0  0  0  0  0  0  0  0  0  0  0  0
   57.6882    0.0344    0.0000 H   0  0  0  0  0  0  0  0  0  0  0  0
   47.8811   -0.7219    0.0000 H   0  0  0  0  0  0  0  0  0  0  0  0
   45.8467    1.6888    0.0000 H   0  0  0  0  0  0  0  0  0  0  0  0
   49.7354    4.9844    0.0000 H   0  0  0  0  0  0  0  0  0  0  0  0
   47.2645    5.7873    0.0000 H   0  0  0  0  0  0  0  0  0  0  0  0
   42.8939    1.6885    0.0000 H   0  0  0  0  0  0  0  0  0  0  0  0
   40.6306   -1.7105    0.0000 H   0  0  0  0  0  0  0  0  0  0  0  0
   42.5589   -1.7106    0.0000 H   0  0  0  0  0  0  0  0  0  0  0  0
   39.4788    1.4466    0.0000 H   0  0  0  0  0  0  0  0  0  0  0  0
   41.2600    1.3376    0.0000 H   0  0  0  0  0  0  0  0  0  0  0  0
   36.7335    1.3377    0.0000 H   0  0  0  0  0  0  0  0  0  0  0  0
   38.5146    1.4466    0.0000 H   0  0  0  0  0  0  0  0  0  0  0  0
   35.5817   -1.8194    0.0000 H   0  0  0  0  0  0  0  0  0  0  0  0
   37.3628   -1.7105    0.0000 H   0  0  0  0  0  0  0  0  0  0  0  0
   32.8363   -1.7103    0.0000 H   0  0  0  0  0  0  0  0  0  0  0  0
   34.6174   -1.8194    0.0000 H   0  0  0  0  0  0  0  0  0  0  0  0
   31.6846    1.4468    0.0000 H   0  0  0  0  0  0  0  0  0  0  0  0
   33.4657    1.3378    0.0000 H   0  0  0  0  0  0  0  0  0  0  0  0
   28.9393    1.3379    0.0000 H   0  0  0  0  0  0  0  0  0  0  0  0
   30.7204    1.4468    0.0000 H   0  0  0  0  0  0  0  0  0  0  0  0
   27.7874   -1.8192    0.0000 H   0  0  0  0  0  0  0  0  0  0  0  0
   29.5685   -1.7103    0.0000 H   0  0  0  0  0  0  0  0  0  0  0  0
   25.0421   -1.7102    0.0000 H   0  0  0  0  0  0  0  0  0  0  0  0
   26.8232   -1.8192    0.0000 H   0  0  0  0  0  0  0  0  0  0  0  0
   23.8904    1.4470    0.0000 H   0  0  0  0  0  0  0  0  0  0  0  0
   25.6715    1.3380    0.0000 H   0  0  0  0  0  0  0  0  0  0  0  0
   21.1451    1.3381    0.0000 H   0  0  0  0  0  0  0  0  0  0  0  0
   22.9262    1.4470    0.0000 H   0  0  0  0  0  0  0  0  0  0  0  0
   19.9932   -1.8190    0.0000 H   0  0  0  0  0  0  0  0  0  0  0  0
   21.7743   -1.7101    0.0000 H   0  0  0  0  0  0  0  0  0  0  0  0
   17.2479   -1.7100    0.0000 H   0  0  0  0  0  0  0  0  0  0  0  0
   19.0290   -1.8190    0.0000 H   0  0  0  0  0  0  0  0  0  0  0  0
   15.9489    1.3382    0.0000 H   0  0  0  0  0  0  0  0  0  0  0  0
   17.8773    1.3382    0.0000 H   0  0  0  0  0  0  0  0  0  0  0  0
   14.3150    1.6892    0.0000 H   0  0  0  0  0  0  0  0  0  0  0  0
   13.9801   -1.7099    0.0000 H   0  0  0  0  0  0  0  0  0  0  0  0
   11.5386   -3.1194    0.0000 H   0  0  0  0  0  0  0  0  0  0  0  0
   13.3507   -2.4599    0.0000 H   0  0  0  0  0  0  0  0  0  0  0  0
    8.1124   -2.5199    0.0000 H   0  0  0  0  0  0  0  0  0  0  0  0
   10.1233   -4.0079    0.0000 H   0  0  0  0  0  0  0  0  0  0  0  0
   10.0548   -2.0161    0.0000 H   0  0  0  0  0  0  0  0  0  0  0  0
   10.0830    1.3383    0.0000 H   0  0  0  0  0  0  0  0  0  0  0  0
    7.6417    2.7479    0.0000 H   0  0  0  0  0  0  0  0  0  0  0  0
    9.4537    2.0884    0.0000 H   0  0  0  0  0  0  0  0  0  0  0  0
    5.3784    0.3280    0.0000 H   0  0  0  0  0  0  0  0  0  0  0  0
    6.4685   -0.4074    0.0000 H   0  0  0  0  0  0  0  0  0  0  0  0
    3.2719    3.1157    0.0000 H   0  0  0  0  0  0  0  0  0  0  0  0
    3.1853    0.8393    0.0000 H   0  0  0  0  0  0  0  0  0  0  0  0
    6.1578    1.6448    0.0000 H   0  0  0  0  0  0  0  0  0  0  0  0
    6.1858   -1.7097    0.0000 H   0  0  0  0  0  0  0  0  0  0  0  0
    3.9201   -3.1712    0.0000 H   0  0  0  0  0  0  0  0  0  0  0  0
    5.5565   -2.4597    0.0000 H   0  0  0  0  0  0  0  0  0  0  0  0
    2.3919   -0.0003    0.0000 H   0  0  0  0  0  0  0  0  0  0  0  0
    0.3197   -2.7029    0.0000 H   0  0  0  0  0  0  0  0  0  0  0  0
    1.3030   -4.0077    0.0000 H   0  0  0  0  0  0  0  0  0  0  0  0
    3.0140   -3.5010    0.0000 H   0  0  0  0  0  0  0  0  0  0  0  0
    0.1822   -1.4491    0.0000 H   0  0  0  0  0  0  0  0  0  0  0  0
    0.5171    0.4500    0.0000 H   0  0  0  0  0  0  0  0  0  0  0  0
    2.5783    0.3238    0.0000 H   0  0  0  0  0  0  0  0  0  0  0  0
    2.2606   -2.0159    0.0000 H   0  0  0  0  0  0  0  0  0  0  0  0
    2.1416    1.4475    0.0000 H   0  0  0  0  0  0  0  0  0  0  0  0
    0.0231    2.8002    0.0000 H   0  0  0  0  0  0  0  0  0  0  0  0
    1.6595    2.0886    0.0000 H   0  0  0  0  0  0  0  0  0  0  0  0
   -2.3147    0.1754    0.0000 H   0  0  0  0  0  0  0  0  0  0  0  0
   -1.3257   -0.4072    0.0000 H   0  0  0  0  0  0  0  0  0  0  0  0
   -2.5939    3.6368    0.0000 H   0  0  0  0  0  0  0  0  0  0  0  0
   -0.8830    3.1300    0.0000 H   0  0  0  0  0  0  0  0  0  0  0  0
   -4.9389    1.3808    0.0000 H   0  0  0  0  0  0  0  0  0  0  0  0
   -3.2208    0.5052    0.0000 H   0  0  0  0  0  0  0  0  0  0  0  0
   -5.9568    2.6773    0.0000 H   0  0  0  0  0  0  0  0  0  0  0  0
   -4.0092    4.5254    0.0000 H   0  0  0  0  0  0  0  0  0  0  0  0
   -1.6364    1.6450    0.0000 H   0  0  0  0  0  0  0  0  0  0  0  0
   -1.6084   -1.7095    0.0000 H   0  0  0  0  0  0  0  0  0  0  0  0
   -3.8742   -3.1710    0.0000 H   0  0  0  0  0  0  0  0  0  0  0  0
   -2.2377   -2.4595    0.0000 H   0  0  0  0  0  0  0  0  0  0  0  0
   -6.3130   -0.6989    0.0000 H   0  0  0  0  0  0  0  0  0  0  0  0
   -5.2228    0.0364    0.0000 H   0  0  0  0  0  0  0  0  0  0  0  0
   -6.4912   -4.0075    0.0000 H   0  0  0  0  0  0  0  0  0  0  0  0
   -4.7803   -3.5008    0.0000 H   0  0  0  0  0  0  0  0  0  0  0  0
   -8.2942   -1.0939    0.0000 H   0  0  0  0  0  0  0  0  0  0  0  0
  -10.8610   -4.3750    0.0000 H   0  0  0  0  0  0  0  0  0  0  0  0
   -8.8708   -6.0451    0.0000 H   0  0  0  0  0  0  0  0  0  0  0  0
   -6.4294   -5.1566    0.0000 H   0  0  0  0  0  0  0  0  0  0  0  0
   -5.5336   -2.0158    0.0000 H   0  0  0  0  0  0  0  0  0  0  0  0
   -5.6527    1.4477    0.0000 H   0  0  0  0  0  0  0  0  0  0  0  0
   -7.9468    2.7483    0.0000 H   0  0  0  0  0  0  0  0  0  0  0  0
   -6.0530    1.9248    0.0000 H   0  0  0  0  0  0  0  0  0  0  0  0
   -9.8752    2.2274    0.0000 H   0  0  0  0  0  0  0  0  0  0  0  0
   -9.2505    1.6786    0.0000 H   0  0  0  0  0  0  0  0  0  0  0  0
   -9.4026   -1.7093    0.0000 H   0  0  0  0  0  0  0  0  0  0  0  0
  -11.8440   -3.1188    0.0000 H   0  0  0  0  0  0  0  0  0  0  0  0
   -9.9502   -2.2953    0.0000 H   0  0  0  0  0  0  0  0  0  0  0  0
  -12.3570    1.1098    0.0000 H   0  0  0  0  0  0  0  0  0  0  0  0
  -15.6372    1.4648    0.0000 H   0  0  0  0  0  0  0  0  0  0  0  0
  -17.2398   -0.6672    0.0000 H   0  0  0  0  0  0  0  0  0  0  0  0
  -16.2138   -3.4863    0.0000 H   0  0  0  0  0  0  0  0  0  0  0  0
  -13.2594   -4.0073    0.0000 H   0  0  0  0  0  0  0  0  0  0  0  0
  -13.3278   -2.0156    0.0000 H   0  0  0  0  0  0  0  0  0  0  0  0
  -13.2996    1.3389    0.0000 H   0  0  0  0  0  0  0  0  0  0  0  0
  -16.4259    2.2418    0.0000 H   0  0  0  0  0  0  0  0  0  0  0  0
  -16.4416    0.4574    0.0000 H   0  0  0  0  0  0  0  0  0  0  0  0
  -12.0242    2.1273    0.0000 H   0  0  0  0  0  0  0  0  0  0  0  0
  -11.2474    4.6789    0.0000 H   0  0  0  0  0  0  0  0  0  0  0  0
  -13.1758    6.9771    0.0000 H   0  0  0  0  0  0  0  0  0  0  0  0
  -16.1302    6.4562    0.0000 H   0  0  0  0  0  0  0  0  0  0  0  0
  -17.1563    3.6372    0.0000 H   0  0  0  0  0  0  0  0  0  0  0  0
  -17.0447    1.6788    0.0000 H   0  0  0  0  0  0  0  0  0  0  0  0
  -17.1968   -1.7091    0.0000 H   0  0  0  0  0  0  0  0  0  0  0  0
  -20.5976   -1.9954    0.0000 H   0  0  0  0  0  0  0  0  0  0  0  0
  -19.6383   -3.1186    0.0000 H   0  0  0  0  0  0  0  0  0  0  0  0
  -17.8262   -2.4591    0.0000 H   0  0  0  0  0  0  0  0  0  0  0  0
  -20.9419   -2.0488    0.0000 H   0  0  0  0  0  0  0  0  0  0  0  0
  -20.9610    1.2130    0.0000 H   0  0  0  0  0  0  0  0  0  0  0  0
  -24.3213    2.0892    0.0000 H   0  0  0  0  0  0  0  0  0  0  0  0
  -24.2358    0.4576    0.0000 H   0  0  0  0  0  0  0  0  0  0  0  0
  -21.1284    2.1626    0.0000 H   0  0  0  0  0  0  0  0  0  0  0  0
  -23.1359    5.3593    0.0000 H   0  0  0  0  0  0  0  0  0  0  0  0
  -24.7723    4.6478    0.0000 H   0  0  0  0  0  0  0  0  0  0  0  0
  -24.5704    2.8748    0.0000 H   0  0  0  0  0  0  0  0  0  0  0  0
  -21.8823    5.3593    0.0000 H   0  0  0  0  0  0  0  0  0  0  0  0
  -20.2459    4.6477    0.0000 H   0  0  0  0  0  0  0  0  0  0  0  0
  -20.5808    2.7486    0.0000 H   0  0  0  0  0  0  0  0  0  0  0  0
  -24.8390    1.6790    0.0000 H   0  0  0  0  0  0  0  0  0  0  0  0
  -24.9911   -1.7089    0.0000 H   0  0  0  0  0  0  0  0  0  0  0  0
  -27.2569   -3.1704    0.0000 H   0  0  0  0  0  0  0  0  0  0  0  0
  -25.6204   -2.4589    0.0000 H   0  0  0  0  0  0  0  0  0  0  0  0
  -29.6957   -0.6983    0.0000 H   0  0  0  0  0  0  0  0  0  0  0  0
  -28.6055    0.0370    0.0000 H   0  0  0  0  0  0  0  0  0  0  0  0
  -29.8739   -4.0069    0.0000 H   0  0  0  0  0  0  0  0  0  0  0  0
  -28.1629   -3.5002    0.0000 H   0  0  0  0  0  0  0  0  0  0  0  0
  -31.6769   -1.0934    0.0000 H   0  0  0  0  0  0  0  0  0  0  0  0
  -34.2437   -4.3745    0.0000 H   0  0  0  0  0  0  0  0  0  0  0  0
  -32.2535   -6.0445    0.0000 H   0  0  0  0  0  0  0  0  0  0  0  0
  -29.8121   -5.1560    0.0000 H   0  0  0  0  0  0  0  0  0  0  0  0
  -28.9163   -2.0152    0.0000 H   0  0  0  0  0  0  0  0  0  0  0  0
  -28.8881    1.3393    0.0000 H   0  0  0  0  0  0  0  0  0  0  0  0
  -32.0144    2.2421    0.0000 H   0  0  0  0  0  0  0  0  0  0  0  0
  -32.0301    0.4578    0.0000 H   0  0  0  0  0  0  0  0  0  0  0  0
  -28.3131    4.4188    0.0000 H   0  0  0  0  0  0  0  0  0  0  0  0
  -32.6332    1.6792    0.0000 H   0  0  0  0  0  0  0  0  0  0  0  0
  -32.7853   -1.7087    0.0000 H   0  0  0  0  0  0  0  0  0  0  0  0
  -35.2267   -3.1182    0.0000 H   0  0  0  0  0  0  0  0  0  0  0  0
  -33.3329   -2.2948    0.0000 H   0  0  0  0  0  0  0  0  0  0  0  0
  -37.4899   -0.6981    0.0000 H   0  0  0  0  0  0  0  0  0  0  0  0
  -36.3997    0.0372    0.0000 H   0  0  0  0  0  0  0  0  0  0  0  0
  -39.5965   -3.4857    0.0000 H   0  0  0  0  0  0  0  0  0  0  0  0
  -39.5158   -1.0936    0.0000 H   0  0  0  0  0  0  0  0  0  0  0  0
  -36.7105   -2.0150    0.0000 H   0  0  0  0  0  0  0  0  0  0  0  0
  -36.5495    1.2134    0.0000 H   0  0  0  0  0  0  0  0  0  0  0  0
  -39.7078    0.3166    0.0000 H   0  0  0  0  0  0  0  0  0  0  0  0
  -38.9044    4.0271    0.0000 H   0  0  0  0  0  0  0  0  0  0  0  0
  -37.1334    3.8981    0.0000 H   0  0  0  0  0  0  0  0  0  0  0  0
  -36.7169    2.1630    0.0000 H   0  0  0  0  0  0  0  0  0  0  0  0
  -41.3869    2.3501    0.0000 H   0  0  0  0  0  0  0  0  0  0  0  0
  -40.5908    0.7531    0.0000 H   0  0  0  0  0  0  0  0  0  0  0  0
  -41.2087    4.3396    0.0000 H   0  0  0  0  0  0  0  0  0  0  0  0
  -39.3966    4.9991    0.0000 H   0  0  0  0  0  0  0  0  0  0  0  0
  -38.4133    3.6943    0.0000 H   0  0  0  0  0  0  0  0  0  0  0  0
  -40.2447   -2.8095    0.0000 H   0  0  0  0  0  0  0  0  0  0  0  0
  1  2  1  0
  2  3  1  0
  3  4  2  0
  4  5  1  0
  5  6  2  0
  6  7  1  0
  7  8  2  0
  7  9  1  0
  9 10  1  0
 10 11  1  0
 11 12  2  0
  9 13  1  0
 13 14  1  0
 14 15  2  0
 15 16  1  0
 16 17  2  0
 17 18  1  0
 16 19  1  0
 14 20  1  0
 20 21  1  0
 21 22  2  0
 22 23  1  0
 23 24  2  0
 24 25  1  0
 25 26  2  0
 25 27  1  0
  1 28  2  0
  1 29  1  0
 29 30  1  0
 30 31  1  0
 31 32  1  0
 32 33  1  0
 33 34  1  0
 34 35  1  0
 35 36  1  0
 36 37  1  0
 37 38  1  0
 38 39  1  0
 39 40  1  0
 40 41  1  0
 41 42  1  0
 42 43  1  0
 43 44  1  0
 44 45  1  0
 45 46  1  0
 46 47  1  0
 47 48  1  0
 48 49  1  0
 49 50  1  0
 50 51  2  0
 50 52  1  0
 52 53  1  0
 53 54  1  0
 54 55  1  0
 55 56  1  0
 55 57  2  0
 53 58  1  0
 58 59  2  0
 58 60  1  0
 60 61  1  0
 61 62  1  0
 62 63  1  0
 63 64  1  0
 64 65  1  0
 64 66  2  0
 61 67  1  0
 67 68  2  0
 67 69  1  0
 69 70  1  0
 70 71  1  0
 71 72  1  0
 72 73  1  0
 72 74  1  0
 70 75  1  0
 75 76  2  0
 75 77  1  0
 77 78  1  0
 78 79  1  0
 79 80  1  0
 80 81  1  0
 81 82  1  0
 82 83  1  0
 78 84  1  0
 84 85  2  0
 84 86  1  0
 86 87  1  0
 87 88  1  0
 88 89  1  0
 89 90  1  0
 90 91  1  0
 91 92  1  0
 92 93  2  3
 92 94  1  0
 87 95  1  0
 95 96  2  0
 95 97  1  0
 97 98  1  0
 98 99  1  0
 99100  1  0
 98101  1  0
101102  2  0
101103  1  0
103104  1  0
104105  1  0
105106  1  0
106107  2  0
107108  1  0
108109  2  0
109110  1  0
110111  2  0
104112  1  0
112113  2  0
112114  1  0
114115  1  0
115116  1  0
116117  1  0
117118  2  0
118119  1  0
119120  2  0
120121  1  0
121122  2  0
115123  1  0
123124  2  0
123125  1  0
125126  1  0
126127  1  0
126128  1  0
128129  2  0
128130  1  0
130131  1  0
131132  1  0
132133  1  0
133134  1  0
133135  1  0
131136  1  0
136137  2  0
136138  1  0
138139  1  0
139140  1  0
140141  1  0
141142  1  0
142143  1  0
143144  1  0
144145  2  3
144146  1  0
139147  1  0
147148  2  0
147149  1  0
149150  1  0
150151  1  0
151152  1  0
152153  2  0
152154  1  0
150155  1  0
155156  2  0
155157  1  0
157158  1  0
158159  1  0
159160  1  0
160161  1  0
161162  1  0
161163  2  0
158164  1  0
164165  2  0
164166  1  0
166167  1  0
167168  1  0
168169  1  0
168170  1  0
170171  1  0
167172  1  0
172173  2  0
172174  1  0
  8  3  1  0
111106  1  0
122117  1  0
 11  6  1  0
 18 13  2  0
 22  9  1  0
 26 21  1  0
  2175  1  0
  4176  1  0
  5177  1  0
  8178  1  0
 15179  1  0
 17180  1  0
 18181  1  0
 19182  1  0
 23183  1  0
 24184  1  0
 26185  1  0
 27186  1  0
 29187  1  0
 30188  1  0
 30189  1  0
 31190  1  0
 31191  1  0
 33192  1  0
 33193  1  0
 34194  1  0
 34195  1  0
 36196  1  0
 36197  1  0
 37198  1  0
 37199  1  0
 39200  1  0
 39201  1  0
 40202  1  0
 40203  1  0
 42204  1  0
 42205  1  0
 43206  1  0
 43207  1  0
 45208  1  0
 45209  1  0
 46210  1  0
 46211  1  0
 48212  1  0
 48213  1  0
 49214  1  0
 49215  1  0
 52216  1  0
 53217  1  1
 54218  1  0
 54219  1  0
 56220  1  0
 56221  1  0
 60222  1  0
 61223  1  6
 62224  1  0
 62225  1  0
 63226  1  0
 63227  1  0
 65228  1  0
 65229  1  0
 69230  1  0
 70231  1  1
 71232  1  0
 71233  1  0
 72234  1  0
 73235  1  0
 73236  1  0
 73237  1  0
 74238  1  0
 74239  1  0
 74240  1  0
 77241  1  0
 78242  1  6
 79243  1  0
 79244  1  0
 80245  1  0
 80246  1  0
 81247  1  0
 81248  1  0
 82249  1  0
 82250  1  0
 83251  1  0
 83252  1  0
 86253  1  0
 87254  1  1
 88255  1  0
 88256  1  0
 89257  1  0
 89258  1  0
 90259  1  0
 90260  1  0
 91261  1  0
 93262  1  0
 94263  1  0
 94264  1  0
 97265  1  0
 98266  1  6
 99267  1  0
 99268  1  0
100269  1  0
103270  1  0
104271  1  1
105272  1  0
105273  1  0
107274  1  0
108275  1  0
109276  1  0
110277  1  0
111278  1  0
114279  1  0
115280  1  6
116281  1  0
116282  1  0
118283  1  0
119284  1  0
120285  1  0
121286  1  0
122287  1  0
125288  1  0
126289  1  1
127290  1  0
127291  1  0
127292  1  0
130293  1  0
131294  1  6
132295  1  0
132296  1  0
133297  1  0
134298  1  0
134299  1  0
134300  1  0
135301  1  0
135302  1  0
135303  1  0
138304  1  0
139305  1  1
140306  1  0
140307  1  0
141308  1  0
141309  1  0
142310  1  0
142311  1  0
143312  1  0
145313  1  0
146314  1  0
146315  1  0
149316  1  0
150317  1  6
151318  1  0
151319  1  0
154320  1  0
157321  1  0
158322  1  1
159323  1  0
159324  1  0
160325  1  0
160326  1  0
162327  1  0
162328  1  0
166329  1  0
167330  1  6
168331  1  1
169332  1  0
169333  1  0
169334  1  0
170335  1  0
170336  1  0
171337  1  0
171338  1  0
171339  1  0
174340  1  0
M  END
