
     RDKit          2D

464470  0  0  0  0  0  0  0  0999 V2000
  -46.5595   -5.0069    0.0000 C   0  0  0  0  0  0  0  0  0  0  0  0
  -47.5503   -6.1330    0.0000 N   0  0  0  0  0  0  0  0  0  0  0  0
  -49.0210   -5.8380    0.0000 C   0  0  0  0  0  0  0  0  0  0  0  0
  -49.5009   -4.4168    0.0000 C   0  0  0  0  0  0  0  0  0  0  0  0
  -50.9716   -4.1218    0.0000 C   0  0  0  0  0  0  0  0  0  0  0  0
  -51.9624   -5.2480    0.0000 C   0  0  0  0  0  0  0  0  0  0  0  0
  -51.4826   -6.6692    0.0000 C   0  0  0  0  0  0  0  0  0  0  0  0
  -50.0119   -6.9642    0.0000 C   0  0  0  0  0  0  0  0  0  0  0  0
  -52.6859   -7.5647    0.0000 C   0  0  0  0  0  0  0  0  0  0  0  0
  -53.9095   -6.6970    0.0000 O   0  0  0  0  0  0  0  0  0  0  0  0
  -53.4623   -5.2652    0.0000 C   0  0  0  0  0  0  0  0  0  0  0  0
  -54.3579   -4.0619    0.0000 O   0  0  0  0  0  0  0  0  0  0  0  0
  -53.9763   -8.3296    0.0000 C   0  0  0  0  0  0  0  0  0  0  0  0
  -53.9590   -9.8295    0.0000 C   0  0  0  0  0  0  0  0  0  0  0  0
  -55.2494  -10.5943    0.0000 C   0  0  0  0  0  0  0  0  0  0  0  0
  -56.5570   -9.8593    0.0000 C   0  0  0  0  0  0  0  0  0  0  0  0
  -56.5742   -8.3594    0.0000 C   0  0  0  0  0  0  0  0  0  0  0  0
  -55.2838   -7.5945    0.0000 C   0  0  0  0  0  0  0  0  0  0  0  0
  -57.8473  -10.6241    0.0000 O   0  0  0  0  0  0  0  0  0  0  0  0
  -52.6515  -10.5645    0.0000 O   0  0  0  0  0  0  0  0  0  0  0  0
  -51.3611   -9.7996    0.0000 C   0  0  0  0  0  0  0  0  0  0  0  0
  -51.3784   -8.2997    0.0000 C   0  0  0  0  0  0  0  0  0  0  0  0
  -50.0800   -8.2348    0.0000 C   0  0  0  0  0  0  0  0  0  0  0  0
  -49.3826   -8.6269    0.0000 C   0  0  0  0  0  0  0  0  0  0  0  0
  -49.3734   -9.4268    0.0000 C   0  0  0  0  0  0  0  0  0  0  0  0
  -50.0616   -9.8347    0.0000 C   0  0  0  0  0  0  0  0  0  0  0  0
  -47.4557  -10.5049    0.0000 O   0  0  0  0  0  0  0  0  0  0  0  0
  -47.0394   -3.5857    0.0000 S   0  0  0  0  0  0  0  0  0  0  0  0
  -45.0888   -5.3019    0.0000 N   0  0  0  0  0  0  0  0  0  0  0  0
  -44.0979   -4.1757    0.0000 C   0  0  0  0  0  0  0  0  0  0  0  0
  -42.6272   -4.4707    0.0000 C   0  0  0  0  0  0  0  0  0  0  0  0
  -41.6364   -3.3446    0.0000 C   0  0  0  0  0  0  0  0  0  0  0  0
  -42.1163   -1.9234    0.0000 O   0  0  0  0  0  0  0  0  0  0  0  0
  -40.1657   -3.6396    0.0000 N   0  0  0  0  0  0  0  0  0  0  0  0
  -39.1749   -2.5134    0.0000 C   0  0  0  0  0  0  0  0  0  0  0  0
  -38.6289   -1.1163    0.0000 C   0  0  0  0  0  0  0  0  0  0  0  0
  -37.3255   -0.3740    0.0000 O   0  0  0  0  0  0  0  0  0  0  0  0
  -37.7042   -2.8084    0.0000 C   0  0  0  0  0  0  0  0  0  0  0  0
  -37.2243   -4.2296    0.0000 O   0  0  0  0  0  0  0  0  0  0  0  0
  -36.7133   -1.6823    0.0000 N   0  0  0  0  0  0  0  0  0  0  0  0
  -35.2426   -1.9773    0.0000 C   0  0  0  0  0  0  0  0  0  0  0  0
  -33.9615   -2.7575    0.0000 C   0  0  0  0  0  0  0  0  0  0  0  0
  -33.9967   -4.2571    0.0000 C   0  0  0  0  0  0  0  0  0  0  0  0
  -32.7155   -5.0373    0.0000 C   0  0  0  0  0  0  0  0  0  0  0  0
  -32.7507   -6.5369    0.0000 O   0  0  0  0  0  0  0  0  0  0  0  0
  -31.3993   -4.3180    0.0000 O   0  0  0  0  0  0  0  0  0  0  0  0
  -34.2518   -0.8511    0.0000 C   0  0  0  0  0  0  0  0  0  0  0  0
  -34.7316    0.5700    0.0000 O   0  0  0  0  0  0  0  0  0  0  0  0
  -32.7811   -1.1461    0.0000 N   0  0  0  0  0  0  0  0  0  0  0  0
  -31.7902   -0.0200    0.0000 C   0  0  0  0  0  0  0  0  0  0  0  0
  -31.2443    1.3772    0.0000 C   0  0  0  0  0  0  0  0  0  0  0  0
  -29.7614    1.6029    0.0000 C   0  0  0  0  0  0  0  0  0  0  0  0
  -29.2155    3.0001    0.0000 C   0  0  0  0  0  0  0  0  0  0  0  0
  -28.0456    3.3280    0.0000 O   0  0  0  0  0  0  0  0  0  0  0  0
  -30.1525    4.1714    0.0000 O   0  0  0  0  0  0  0  0  0  0  0  0
  -30.3195   -0.3150    0.0000 C   0  0  0  0  0  0  0  0  0  0  0  0
  -29.8397   -1.7362    0.0000 O   0  0  0  0  0  0  0  0  0  0  0  0
  -29.3287    0.8112    0.0000 N   0  0  0  0  0  0  0  0  0  0  0  0
  -27.8580    0.5162    0.0000 C   0  0  0  0  0  0  0  0  0  0  0  0
  -26.5769   -0.2641    0.0000 C   0  0  0  0  0  0  0  0  0  0  0  0
  -26.6120   -1.7637    0.0000 C   0  0  0  0  0  0  0  0  0  0  0  0
  -25.3309   -2.5439    0.0000 C   0  0  0  0  0  0  0  0  0  0  0  0
  -27.1579   -3.1608    0.0000 C   0  0  0  0  0  0  0  0  0  0  0  0
  -26.8671    1.6423    0.0000 C   0  0  0  0  0  0  0  0  0  0  0  0
  -27.1126    2.8323    0.0000 O   0  0  0  0  0  0  0  0  0  0  0  0
  -25.3964    1.3473    0.0000 N   0  0  0  0  0  0  0  0  0  0  0  0
  -24.4056    2.4735    0.0000 C   0  0  0  0  0  0  0  0  0  0  0  0
  -23.8597    3.8706    0.0000 C   0  0  0  0  0  0  0  0  0  0  0  0
  -22.4755    4.4485    0.0000 C   0  0  0  0  0  0  0  0  0  0  0  0
  -22.9349    2.1784    0.0000 C   0  0  0  0  0  0  0  0  0  0  0  0
  -22.6319    0.7094    0.0000 O   0  0  0  0  0  0  0  0  0  0  0  0
  -21.9441    3.3046    0.0000 N   0  0  0  0  0  0  0  0  0  0  0  0
  -20.4734    3.0096    0.0000 C   0  0  0  0  0  0  0  0  0  0  0  0
  -19.7214    1.7117    0.0000 C   0  0  0  0  0  0  0  0  0  0  0  0
  -18.6203    0.6931    0.0000 C   0  0  0  0  0  0  0  0  0  0  0  0
  -17.2679    0.0443    0.0000 C   0  0  0  0  0  0  0  0  0  0  0  0
  -15.7843   -0.1771    0.0000 C   0  0  0  0  0  0  0  0  0  0  0  0
  -21.4892    1.9060    0.0000 C   0  0  0  0  0  0  0  0  0  0  0  0
  -20.8093    4.4715    0.0000 C   0  0  0  0  0  0  0  0  0  0  0  0
  -21.6826    4.6197    0.0000 O   0  0  0  0  0  0  0  0  0  0  0  0
  -20.6995    5.9675    0.0000 N   0  0  0  0  0  0  0  0  0  0  0  0
  -20.1536    7.3646    0.0000 C   0  0  0  0  0  0  0  0  0  0  0  0
  -20.8399    8.6984    0.0000 C   0  0  0  0  0  0  0  0  0  0  0  0
  -22.3381    8.7709    0.0000 C   0  0  0  0  0  0  0  0  0  0  0  0
  -23.0244   10.1047    0.0000 C   0  0  0  0  0  0  0  0  0  0  0  0
  -24.5227   10.1772    0.0000 O   0  0  0  0  0  0  0  0  0  0  0  0
  -22.2125   11.3659    0.0000 O   0  0  0  0  0  0  0  0  0  0  0  0
  -19.2201    8.5387    0.0000 C   0  0  0  0  0  0  0  0  0  0  0  0
  -20.2420    9.6368    0.0000 O   0  0  0  0  0  0  0  0  0  0  0  0
  -17.9820    9.3856    0.0000 N   0  0  0  0  0  0  0  0  0  0  0  0
  -16.5493    9.8299    0.0000 C   0  0  0  0  0  0  0  0  0  0  0  0
  -15.9344   11.1980    0.0000 C   0  0  0  0  0  0  0  0  0  0  0  0
  -15.0493    9.8321    0.0000 C   0  0  0  0  0  0  0  0  0  0  0  0
  -14.8280   11.3157    0.0000 O   0  0  0  0  0  0  0  0  0  0  0  0
  -13.6153    9.3921    0.0000 N   0  0  0  0  0  0  0  0  0  0  0  0
  -12.3747    8.5490    0.0000 C   0  0  0  0  0  0  0  0  0  0  0  0
  -10.9216    8.9213    0.0000 C   0  0  0  0  0  0  0  0  0  0  0  0
  -10.5175   10.3659    0.0000 C   0  0  0  0  0  0  0  0  0  0  0  0
  -11.4487   11.5419    0.0000 C   0  0  0  0  0  0  0  0  0  0  0  0
  -10.6179   12.7908    0.0000 N   0  0  0  0  0  0  0  0  0  0  0  0
   -9.1734   12.3867    0.0000 C   0  0  0  0  0  0  0  0  0  0  0  0
   -9.1113   10.8880    0.0000 N   0  0  0  0  0  0  0  0  0  0  0  0
  -11.4377    7.3777    0.0000 C   0  0  0  0  0  0  0  0  0  0  0  0
  -10.1398    8.1296    0.0000 O   0  0  0  0  0  0  0  0  0  0  0  0
  -10.8876    5.9822    0.0000 N   0  0  0  0  0  0  0  0  0  0  0  0
  -10.7732    4.4865    0.0000 C   0  0  0  0  0  0  0  0  0  0  0  0
  -11.1048    3.0237    0.0000 C   0  0  0  0  0  0  0  0  0  0  0  0
  -11.8529    1.7235    0.0000 C   0  0  0  0  0  0  0  0  0  0  0  0
  -12.9509    0.7016    0.0000 C   0  0  0  0  0  0  0  0  0  0  0  0
  -14.3014    0.0487    0.0000 C   0  0  0  0  0  0  0  0  0  0  0  0
   -9.4570    5.2059    0.0000 C   0  0  0  0  0  0  0  0  0  0  0  0
   -9.5762    3.5826    0.0000 C   0  0  0  0  0  0  0  0  0  0  0  0
   -9.3948    2.0936    0.0000 O   0  0  0  0  0  0  0  0  0  0  0  0
   -8.1948    4.1674    0.0000 N   0  0  0  0  0  0  0  0  0  0  0  0
   -6.9978    3.2634    0.0000 C   0  0  0  0  0  0  0  0  0  0  0  0
   -6.1821    2.0046    0.0000 C   0  0  0  0  0  0  0  0  0  0  0  0
   -6.8644    0.6688    0.0000 C   0  0  0  0  0  0  0  0  0  0  0  0
   -6.0487   -0.5900    0.0000 C   0  0  0  0  0  0  0  0  0  0  0  0
   -7.9624   -0.3531    0.0000 C   0  0  0  0  0  0  0  0  0  0  0  0
   -5.6164    3.8482    0.0000 C   0  0  0  0  0  0  0  0  0  0  0  0
   -5.4322    5.3368    0.0000 O   0  0  0  0  0  0  0  0  0  0  0  0
   -4.4194    2.9443    0.0000 N   0  0  0  0  0  0  0  0  0  0  0  0
   -3.0380    3.5290    0.0000 C   0  0  0  0  0  0  0  0  0  0  0  0
   -1.9400    4.5509    0.0000 C   0  0  0  0  0  0  0  0  0  0  0  0
   -0.4436    4.6542    0.0000 S   0  0  0  0  0  0  0  0  0  0  0  0
   -1.8410    2.6251    0.0000 C   0  0  0  0  0  0  0  0  0  0  0  0
   -2.0253    1.1364    0.0000 O   0  0  0  0  0  0  0  0  0  0  0  0
   -0.4596    3.2098    0.0000 N   0  0  0  0  0  0  0  0  0  0  0  0
    0.7374    2.3059    0.0000 C   0  0  0  0  0  0  0  0  0  0  0  0
    1.5531    1.0471    0.0000 C   0  0  0  0  0  0  0  0  0  0  0  0
    2.6311    0.0040    0.0000 O   0  0  0  0  0  0  0  0  0  0  0  0
    0.8708   -0.2888    0.0000 C   0  0  0  0  0  0  0  0  0  0  0  0
    2.1187    2.8906    0.0000 C   0  0  0  0  0  0  0  0  0  0  0  0
    2.3030    4.3792    0.0000 O   0  0  0  0  0  0  0  0  0  0  0  0
    3.3158    1.9867    0.0000 N   0  0  0  0  0  0  0  0  0  0  0  0
    4.6971    2.5714    0.0000 C   0  0  0  0  0  0  0  0  0  0  0  0
    5.7952    3.5933    0.0000 C   0  0  0  0  0  0  0  0  0  0  0  0
    7.2292    3.1534    0.0000 C   0  0  0  0  0  0  0  0  0  0  0  0
    8.3273    4.1753    0.0000 C   0  0  0  0  0  0  0  0  0  0  0  0
    8.4263    2.2494    0.0000 C   0  0  0  0  0  0  0  0  0  0  0  0
    5.8942    1.6675    0.0000 C   0  0  0  0  0  0  0  0  0  0  0  0
    5.7099    0.1789    0.0000 O   0  0  0  0  0  0  0  0  0  0  0  0
    7.2755    2.2522    0.0000 N   0  0  0  0  0  0  0  0  0  0  0  0
    8.4726    1.3483    0.0000 C   0  0  0  0  0  0  0  0  0  0  0  0
    9.2883    0.0895    0.0000 C   0  0  0  0  0  0  0  0  0  0  0  0
    8.6060   -1.2463    0.0000 C   0  0  0  0  0  0  0  0  0  0  0  0
    9.4217   -2.5051    0.0000 C   0  0  0  0  0  0  0  0  0  0  0  0
    7.5079   -2.2682    0.0000 C   0  0  0  0  0  0  0  0  0  0  0  0
    9.8539    1.9331    0.0000 C   0  0  0  0  0  0  0  0  0  0  0  0
   10.2183    3.3881    0.0000 O   0  0  0  0  0  0  0  0  0  0  0  0
   11.0510    1.0291    0.0000 N   0  0  0  0  0  0  0  0  0  0  0  0
   12.4323    1.6139    0.0000 C   0  0  0  0  0  0  0  0  0  0  0  0
   13.5304    2.6358    0.0000 C   0  0  0  0  0  0  0  0  0  0  0  0
   14.9644    2.1958    0.0000 C   0  0  0  0  0  0  0  0  0  0  0  0
   16.0624    3.2177    0.0000 C   0  0  0  0  0  0  0  0  0  0  0  0
   17.2588    3.0056    0.0000 O   0  0  0  0  0  0  0  0  0  0  0  0
   15.7265    4.6796    0.0000 O   0  0  0  0  0  0  0  0  0  0  0  0
   13.6294    0.7100    0.0000 C   0  0  0  0  0  0  0  0  0  0  0  0
   13.4451   -0.7787    0.0000 O   0  0  0  0  0  0  0  0  0  0  0  0
   15.0107    1.2947    0.0000 N   0  0  0  0  0  0  0  0  0  0  0  0
   16.2078    0.3908    0.0000 C   0  0  0  0  0  0  0  0  0  0  0  0
   17.0235   -0.8680    0.0000 C   0  0  0  0  0  0  0  0  0  0  0  0
   16.3412   -2.2039    0.0000 C   0  0  0  0  0  0  0  0  0  0  0  0
   17.1569   -3.4627    0.0000 N   0  0  0  0  0  0  0  0  0  0  0  0
   14.8432   -2.2809    0.0000 O   0  0  0  0  0  0  0  0  0  0  0  0
   17.5891    0.9755    0.0000 C   0  0  0  0  0  0  0  0  0  0  0  0
   17.8843    2.1541    0.0000 O   0  0  0  0  0  0  0  0  0  0  0  0
   18.7862    0.0716    0.0000 N   0  0  0  0  0  0  0  0  0  0  0  0
   20.1675    0.6563    0.0000 C   0  0  0  0  0  0  0  0  0  0  0  0
   21.2656    1.6782    0.0000 C   0  0  0  0  0  0  0  0  0  0  0  0
   21.3646   -0.2476    0.0000 C   0  0  0  0  0  0  0  0  0  0  0  0
   21.1803   -1.7362    0.0000 O   0  0  0  0  0  0  0  0  0  0  0  0
   22.7459    0.3371    0.0000 N   0  0  0  0  0  0  0  0  0  0  0  0
   23.9430   -0.5668    0.0000 C   0  0  0  0  0  0  0  0  0  0  0  0
   24.7587   -1.8256    0.0000 C   0  0  0  0  0  0  0  0  0  0  0  0
   23.9186   -3.0683    0.0000 C   0  0  0  0  0  0  0  0  0  0  0  0
   25.9557   -2.7295    0.0000 C   0  0  0  0  0  0  0  0  0  0  0  0
   25.7714   -4.2182    0.0000 C   0  0  0  0  0  0  0  0  0  0  0  0
   25.3243    0.0179    0.0000 C   0  0  0  0  0  0  0  0  0  0  0  0
   25.5086    1.5066    0.0000 O   0  0  0  0  0  0  0  0  0  0  0  0
   26.5214   -0.8860    0.0000 N   0  0  0  0  0  0  0  0  0  0  0  0
   27.9027   -0.3012    0.0000 C   0  0  0  0  0  0  0  0  0  0  0  0
   29.0007    0.7207    0.0000 C   0  0  0  0  0  0  0  0  0  0  0  0
   30.4348    0.2807    0.0000 C   0  0  0  0  0  0  0  0  0  0  0  0
   31.5328    1.3026    0.0000 C   0  0  0  0  0  0  0  0  0  0  0  0
   33.0098    1.0407    0.0000 N   0  0  0  0  0  0  0  0  0  0  0  0
   31.1968    2.7645    0.0000 O   0  0  0  0  0  0  0  0  0  0  0  0
   29.0998   -1.2052    0.0000 C   0  0  0  0  0  0  0  0  0  0  0  0
   28.9155   -2.6938    0.0000 O   0  0  0  0  0  0  0  0  0  0  0  0
   30.4811   -0.6204    0.0000 N   0  0  0  0  0  0  0  0  0  0  0  0
   31.6781   -1.5243    0.0000 C   0  0  0  0  0  0  0  0  0  0  0  0
   32.4939   -2.7832    0.0000 C   0  0  0  0  0  0  0  0  0  0  0  0
   31.8115   -4.1190    0.0000 C   0  0  0  0  0  0  0  0  0  0  0  0
   32.6273   -5.3778    0.0000 O   0  0  0  0  0  0  0  0  0  0  0  0
   30.3135   -4.1960    0.0000 O   0  0  0  0  0  0  0  0  0  0  0  0
   33.0595   -0.9396    0.0000 C   0  0  0  0  0  0  0  0  0  0  0  0
   33.3251    0.1211    0.0000 O   0  0  0  0  0  0  0  0  0  0  0  0
   34.2565   -1.8435    0.0000 N   0  0  0  0  0  0  0  0  0  0  0  0
   35.6379   -1.2588    0.0000 C   0  0  0  0  0  0  0  0  0  0  0  0
   36.7359   -0.2369    0.0000 C   0  0  0  0  0  0  0  0  0  0  0  0
   37.4182    1.0989    0.0000 O   0  0  0  0  0  0  0  0  0  0  0  0
   38.2129   -0.4988    0.0000 C   0  0  0  0  0  0  0  0  0  0  0  0
   36.8349   -2.1627    0.0000 C   0  0  0  0  0  0  0  0  0  0  0  0
   36.6507   -3.6514    0.0000 O   0  0  0  0  0  0  0  0  0  0  0  0
   38.2163   -1.5780    0.0000 N   0  0  0  0  0  0  0  0  0  0  0  0
   39.4133   -2.4819    0.0000 C   0  0  0  0  0  0  0  0  0  0  0  0
   40.2290   -3.7407    0.0000 C   0  0  0  0  0  0  0  0  0  0  0  0
   39.5467   -5.0766    0.0000 C   0  0  0  0  0  0  0  0  0  0  0  0
   40.7947   -1.8972    0.0000 C   0  0  0  0  0  0  0  0  0  0  0  0
   40.9790   -0.4085    0.0000 O   0  0  0  0  0  0  0  0  0  0  0  0
   41.9917   -2.8011    0.0000 N   0  0  0  0  0  0  0  0  0  0  0  0
   43.3731   -2.2164    0.0000 C   0  0  0  0  0  0  0  0  0  0  0  0
   44.4711   -1.1945    0.0000 C   0  0  0  0  0  0  0  0  0  0  0  0
   45.9051   -1.6344    0.0000 C   0  0  0  0  0  0  0  0  0  0  0  0
   47.0032   -0.6125    0.0000 C   0  0  0  0  0  0  0  0  0  0  0  0
   48.4372   -1.0525    0.0000 N   0  0  0  0  0  0  0  0  0  0  0  0
   49.5352   -0.0306    0.0000 C   0  0  0  0  0  0  0  0  0  0  0  0
   50.9049   -0.6421    0.0000 N   0  0  0  0  0  0  0  0  0  0  0  0
   49.1993    1.4313    0.0000 N   0  0  0  0  0  0  0  0  0  0  0  0
   44.5701   -3.1203    0.0000 C   0  0  0  0  0  0  0  0  0  0  0  0
   44.3858   -4.6089    0.0000 O   0  0  0  0  0  0  0  0  0  0  0  0
   45.9515   -2.5356    0.0000 N   0  0  0  0  0  0  0  0  0  0  0  0
   47.1485   -3.4395    0.0000 C   0  0  0  0  0  0  0  0  0  0  0  0
   47.9642   -4.6983    0.0000 C   0  0  0  0  0  0  0  0  0  0  0  0
   47.2819   -6.0341    0.0000 C   0  0  0  0  0  0  0  0  0  0  0  0
   48.0976   -7.2929    0.0000 C   0  0  0  0  0  0  0  0  0  0  0  0
   47.4153   -8.6288    0.0000 O   0  0  0  0  0  0  0  0  0  0  0  0
   49.5956   -7.2159    0.0000 O   0  0  0  0  0  0  0  0  0  0  0  0
   48.5299   -2.8547    0.0000 C   0  0  0  0  0  0  0  0  0  0  0  0
   48.9665   -1.7209    0.0000 O   0  0  0  0  0  0  0  0  0  0  0  0
   49.7269   -3.7587    0.0000 N   0  0  0  0  0  0  0  0  0  0  0  0
   51.1083   -3.1739    0.0000 C   0  0  0  0  0  0  0  0  0  0  0  0
   52.2063   -2.1520    0.0000 C   0  0  0  0  0  0  0  0  0  0  0  0
   53.6403   -2.5920    0.0000 C   0  0  0  0  0  0  0  0  0  0  0  0
   54.7384   -1.5701    0.0000 C   0  0  0  0  0  0  0  0  0  0  0  0
   56.1724   -2.0101    0.0000 N   0  0  0  0  0  0  0  0  0  0  0  0
   54.4024   -0.1082    0.0000 O   0  0  0  0  0  0  0  0  0  0  0  0
   52.3053   -4.0778    0.0000 C   0  0  0  0  0  0  0  0  0  0  0  0
   53.7476   -3.6659    0.0000 O   0  0  0  0  0  0  0  0  0  0  0  0
   52.1210   -5.5665    0.0000 O   0  0  0  0  0  0  0  0  0  0  0  0
  -46.9008   -7.4851    0.0000 H   0  0  0  0  0  0  0  0  0  0  0  0
  -48.5101   -3.2907    0.0000 H   0  0  0  0  0  0  0  0  0  0  0  0
  -51.4515   -2.7006    0.0000 H   0  0  0  0  0  0  0  0  0  0  0  0
  -49.2024   -8.2270    0.0000 H   0  0  0  0  0  0  0  0  0  0  0  0
  -55.2322  -12.0942    0.0000 H   0  0  0  0  0  0  0  0  0  0  0  0
  -57.8817   -7.6243    0.0000 H   0  0  0  0  0  0  0  0  0  0  0  0
  -55.3010   -6.0946    0.0000 H   0  0  0  0  0  0  0  0  0  0  0  0
  -59.1549   -9.8891    0.0000 H   0  0  0  0  0  0  0  0  0  0  0  0
  -50.1052   -6.0350    0.0000 H   0  0  0  0  0  0  0  0  0  0  0  0
  -47.4065   -7.6681    0.0000 H   0  0  0  0  0  0  0  0  0  0  0  0
  -50.0364  -12.0346    0.0000 H   0  0  0  0  0  0  0  0  0  0  0  0
  -47.4385  -12.0048    0.0000 H   0  0  0  0  0  0  0  0  0  0  0  0
  -44.6089   -6.7230    0.0000 H   0  0  0  0  0  0  0  0  0  0  0  0
  -43.5520   -2.7786    0.0000 H   0  0  0  0  0  0  0  0  0  0  0  0
  -45.3791   -3.3955    0.0000 H   0  0  0  0  0  0  0  0  0  0  0  0
  -41.3461   -5.2510    0.0000 H   0  0  0  0  0  0  0  0  0  0  0  0
  -43.1732   -5.8679    0.0000 H   0  0  0  0  0  0  0  0  0  0  0  0
  -39.6858   -5.0608    0.0000 H   0  0  0  0  0  0  0  0  0  0  0  0
  -40.4560   -1.7332    0.0000 H   0  0  0  0  0  0  0  0  0  0  0  0
  -38.5938    0.3833    0.0000 H   0  0  0  0  0  0  0  0  0  0  0  0
  -40.0997   -0.8213    0.0000 H   0  0  0  0  0  0  0  0  0  0  0  0
  -36.6001    0.5066    0.0000 H   0  0  0  0  0  0  0  0  0  0  0  0
  -37.0164   -0.2132    0.0000 H   0  0  0  0  0  0  0  0  0  0  0  0
  -35.9548   -3.2975    0.0000 H   0  0  0  0  0  0  0  0  0  0  0  0
  -32.5377   -3.2296    0.0000 H   0  0  0  0  0  0  0  0  0  0  0  0
  -33.0937   -1.5340    0.0000 H   0  0  0  0  0  0  0  0  0  0  0  0
  -34.5426   -5.6542    0.0000 H   0  0  0  0  0  0  0  0  0  0  0  0
  -35.4924   -4.1436    0.0000 H   0  0  0  0  0  0  0  0  0  0  0  0
  -30.1182   -5.0982    0.0000 H   0  0  0  0  0  0  0  0  0  0  0  0
  -32.1316   -2.4982    0.0000 H   0  0  0  0  0  0  0  0  0  0  0  0
  -33.0713    0.7603    0.0000 H   0  0  0  0  0  0  0  0  0  0  0  0
  -31.2092    2.8767    0.0000 H   0  0  0  0  0  0  0  0  0  0  0  0
  -32.7150    1.6722    0.0000 H   0  0  0  0  0  0  0  0  0  0  0  0
  -28.2907    1.3079    0.0000 H   0  0  0  0  0  0  0  0  0  0  0  0
  -29.0883    0.2625    0.0000 H   0  0  0  0  0  0  0  0  0  0  0  0
  -29.6066    5.5685    0.0000 H   0  0  0  0  0  0  0  0  0  0  0  0
  -29.4504    2.3062    0.0000 H   0  0  0  0  0  0  0  0  0  0  0  0
  -28.5701   -0.8040    0.0000 H   0  0  0  0  0  0  0  0  0  0  0  0
  -25.1062   -0.5591    0.0000 H   0  0  0  0  0  0  0  0  0  0  0  0
  -25.7091    0.9594    0.0000 H   0  0  0  0  0  0  0  0  0  0  0  0
  -28.1077   -1.6501    0.0000 H   0  0  0  0  0  0  0  0  0  0  0  0
  -25.1830   -4.0366    0.0000 H   0  0  0  0  0  0  0  0  0  0  0  0
  -23.8602   -2.8389    0.0000 H   0  0  0  0  0  0  0  0  0  0  0  0
  -24.6188   -1.2237    0.0000 H   0  0  0  0  0  0  0  0  0  0  0  0
  -26.3707   -4.4376    0.0000 H   0  0  0  0  0  0  0  0  0  0  0  0
  -28.1488   -4.2870    0.0000 H   0  0  0  0  0  0  0  0  0  0  0  0
  -28.4390   -2.3806    0.0000 H   0  0  0  0  0  0  0  0  0  0  0  0
  -24.7469   -0.0048    0.0000 H   0  0  0  0  0  0  0  0  0  0  0  0
  -25.6867    3.2537    0.0000 H   0  0  0  0  0  0  0  0  0  0  0  0
  -23.8245    5.3702    0.0000 H   0  0  0  0  0  0  0  0  0  0  0  0
  -25.3304    4.1656    0.0000 H   0  0  0  0  0  0  0  0  0  0  0  0
  -21.9631    5.5643    0.0000 H   0  0  0  0  0  0  0  0  0  0  0  0
  -20.8362    4.1807    0.0000 H   0  0  0  0  0  0  0  0  0  0  0  0
  -21.8320    2.7035    0.0000 H   0  0  0  0  0  0  0  0  0  0  0  0
  -22.4239    4.7258    0.0000 H   0  0  0  0  0  0  0  0  0  0  0  0
  -21.1841    1.3793    0.0000 H   0  0  0  0  0  0  0  0  0  0  0  0
  -20.1970    0.2891    0.0000 H   0  0  0  0  0  0  0  0  0  0  0  0
  -19.8191   -0.2085    0.0000 H   0  0  0  0  0  0  0  0  0  0  0  0
  -18.8380   -0.7910    0.0000 H   0  0  0  0  0  0  0  0  0  0  0  0
  -18.2892   -1.0543    0.0000 H   0  0  0  0  0  0  0  0  0  0  0  0
  -16.8594   -1.3990    0.0000 H   0  0  0  0  0  0  0  0  0  0  0  0
  -15.7820   -1.6771    0.0000 H   0  0  0  0  0  0  0  0  0  0  0  0
  -21.1094    0.2839    0.0000 H   0  0  0  0  0  0  0  0  0  0  0  0
  -22.4597    0.8171    0.0000 H   0  0  0  0  0  0  0  0  0  0  0  0
  -22.6787    2.4740    0.0000 H   0  0  0  0  0  0  0  0  0  0  0  0
  -22.1110    6.4749    0.0000 H   0  0  0  0  0  0  0  0  0  0  0  0
  -21.6310    7.1055    0.0000 H   0  0  0  0  0  0  0  0  0  0  0  0
  -21.0286   10.1864    0.0000 H   0  0  0  0  0  0  0  0  0  0  0  0
  -19.5573    9.4761    0.0000 H   0  0  0  0  0  0  0  0  0  0  0  0
  -23.7708    8.3266    0.0000 H   0  0  0  0  0  0  0  0  0  0  0  0
  -22.3322    7.2709    0.0000 H   0  0  0  0  0  0  0  0  0  0  0  0
  -22.8988   12.6997    0.0000 H   0  0  0  0  0  0  0  0  0  0  0  0
  -18.6349   10.7361    0.0000 H   0  0  0  0  0  0  0  0  0  0  0  0
  -17.5435   10.9530    0.0000 H   0  0  0  0  0  0  0  0  0  0  0  0
  -16.8119   12.4146    0.0000 H   0  0  0  0  0  0  0  0  0  0  0  0
  -14.8887   12.2734    0.0000 H   0  0  0  0  0  0  0  0  0  0  0  0
  -14.5267   10.6802    0.0000 H   0  0  0  0  0  0  0  0  0  0  0  0
  -13.1362   10.8136    0.0000 H   0  0  0  0  0  0  0  0  0  0  0  0
  -12.1164   10.0266    0.0000 H   0  0  0  0  0  0  0  0  0  0  0  0
   -9.4288    8.7742    0.0000 H   0  0  0  0  0  0  0  0  0  0  0  0
  -10.4488    7.4978    0.0000 H   0  0  0  0  0  0  0  0  0  0  0  0
  -12.9438   11.6629    0.0000 H   0  0  0  0  0  0  0  0  0  0  0  0
  -11.1401   14.1970    0.0000 H   0  0  0  0  0  0  0  0  0  0  0  0
   -7.9974   13.3179    0.0000 H   0  0  0  0  0  0  0  0  0  0  0  0
   -9.4257    6.3182    0.0000 H   0  0  0  0  0  0  0  0  0  0  0  0
  -10.2274    1.8071    0.0000 H   0  0  0  0  0  0  0  0  0  0  0  0
   -9.6062    2.9585    0.0000 H   0  0  0  0  0  0  0  0  0  0  0  0
  -11.2033    0.3714    0.0000 H   0  0  0  0  0  0  0  0  0  0  0  0
  -10.4401    1.2195    0.0000 H   0  0  0  0  0  0  0  0  0  0  0  0
  -12.9113   -0.7979    0.0000 H   0  0  0  0  0  0  0  0  0  0  0  0
  -11.6489   -0.0433    0.0000 H   0  0  0  0  0  0  0  0  0  0  0  0
  -13.8571   -1.3840    0.0000 H   0  0  0  0  0  0  0  0  0  0  0  0
   -8.0251    4.7589    0.0000 H   0  0  0  0  0  0  0  0  0  0  0  0
   -8.6108    6.4444    0.0000 H   0  0  0  0  0  0  0  0  0  0  0  0
  -10.0827    6.5692    0.0000 H   0  0  0  0  0  0  0  0  0  0  0  0
   -7.8305    5.6224    0.0000 H   0  0  0  0  0  0  0  0  0  0  0  0
   -8.2122    2.3830    0.0000 H   0  0  0  0  0  0  0  0  0  0  0  0
   -4.9850    1.1007    0.0000 H   0  0  0  0  0  0  0  0  0  0  0  0
   -4.8694    2.7305    0.0000 H   0  0  0  0  0  0  0  0  0  0  0  0
   -8.1627    1.4201    0.0000 H   0  0  0  0  0  0  0  0  0  0  0  0
   -6.5631   -1.9991    0.0000 H   0  0  0  0  0  0  0  0  0  0  0  0
   -4.8516   -1.4939    0.0000 H   0  0  0  0  0  0  0  0  0  0  0  0
   -4.8342    0.2904    0.0000 H   0  0  0  0  0  0  0  0  0  0  0  0
   -7.8072   -1.8451    0.0000 H   0  0  0  0  0  0  0  0  0  0  0  0
   -9.3438   -0.9378    0.0000 H   0  0  0  0  0  0  0  0  0  0  0  0
   -8.7781    0.9057    0.0000 H   0  0  0  0  0  0  0  0  0  0  0  0
   -4.4208    1.4443    0.0000 H   0  0  0  0  0  0  0  0  0  0  0  0
   -3.8538    4.7878    0.0000 H   0  0  0  0  0  0  0  0  0  0  0  0
   -1.2577    5.8867    0.0000 H   0  0  0  0  0  0  0  0  0  0  0  0
   -3.1371    5.4548    0.0000 H   0  0  0  0  0  0  0  0  0  0  0  0
    0.5921    5.1328    0.0000 H   0  0  0  0  0  0  0  0  0  0  0  0
   -0.0953    4.6649    0.0000 H   0  0  0  0  0  0  0  0  0  0  0  0
   -0.4770    1.4254    0.0000 H   0  0  0  0  0  0  0  0  0  0  0  0
    2.8658    1.7729    0.0000 H   0  0  0  0  0  0  0  0  0  0  0  0
    2.7487   -1.3568    0.0000 H   0  0  0  0  0  0  0  0  0  0  0  0
    1.5270   -1.6376    0.0000 H   0  0  0  0  0  0  0  0  0  0  0  0
   -0.2272   -1.3107    0.0000 H   0  0  0  0  0  0  0  0  0  0  0  0
   -0.4275    0.4625    0.0000 H   0  0  0  0  0  0  0  0  0  0  0  0
    3.3144    0.4867    0.0000 H   0  0  0  0  0  0  0  0  0  0  0  0
    3.8814    3.8302    0.0000 H   0  0  0  0  0  0  0  0  0  0  0  0
    6.3096    5.0024    0.0000 H   0  0  0  0  0  0  0  0  0  0  0  0
    4.5981    4.4972    0.0000 H   0  0  0  0  0  0  0  0  0  0  0  0
    7.2541    1.6536    0.0000 H   0  0  0  0  0  0  0  0  0  0  0  0
    9.8251    4.0953    0.0000 H   0  0  0  0  0  0  0  0  0  0  0  0
    9.0096    5.5111    0.0000 H   0  0  0  0  0  0  0  0  0  0  0  0
    7.2493    5.2183    0.0000 H   0  0  0  0  0  0  0  0  0  0  0  0
    8.6077    0.7605    0.0000 H   0  0  0  0  0  0  0  0  0  0  0  0
    9.9227    2.3527    0.0000 H   0  0  0  0  0  0  0  0  0  0  0  0
    9.2663    3.4921    0.0000 H   0  0  0  0  0  0  0  0  0  0  0  0
    7.8146    3.6520    0.0000 H   0  0  0  0  0  0  0  0  0  0  0  0
    7.2582    0.4679    0.0000 H   0  0  0  0  0  0  0  0  0  0  0  0
   10.4854   -0.8144    0.0000 H   0  0  0  0  0  0  0  0  0  0  0  0
   10.6797    0.6499    0.0000 H   0  0  0  0  0  0  0  0  0  0  0  0
    7.3077   -0.4951    0.0000 H   0  0  0  0  0  0  0  0  0  0  0  0
    8.9073   -3.9142    0.0000 H   0  0  0  0  0  0  0  0  0  0  0  0
   10.6188   -3.4090    0.0000 H   0  0  0  0  0  0  0  0  0  0  0  0
   10.6361   -1.6247    0.0000 H   0  0  0  0  0  0  0  0  0  0  0  0
    7.6632   -3.7602    0.0000 H   0  0  0  0  0  0  0  0  0  0  0  0
    6.1266   -2.8530    0.0000 H   0  0  0  0  0  0  0  0  0  0  0  0
    6.6922   -1.0094    0.0000 H   0  0  0  0  0  0  0  0  0  0  0  0
   11.0495   -0.4709    0.0000 H   0  0  0  0  0  0  0  0  0  0  0  0
   11.6166    2.8727    0.0000 H   0  0  0  0  0  0  0  0  0  0  0  0
   14.2127    3.9716    0.0000 H   0  0  0  0  0  0  0  0  0  0  0  0
   12.3333    3.5397    0.0000 H   0  0  0  0  0  0  0  0  0  0  0  0
   16.1615    1.2919    0.0000 H   0  0  0  0  0  0  0  0  0  0  0  0
   14.9892    0.6960    0.0000 H   0  0  0  0  0  0  0  0  0  0  0  0
   16.8245    5.7015    0.0000 H   0  0  0  0  0  0  0  0  0  0  0  0
   15.5497    2.6945    0.0000 H   0  0  0  0  0  0  0  0  0  0  0  0
   15.1097   -0.6311    0.0000 H   0  0  0  0  0  0  0  0  0  0  0  0
   18.1014   -1.9111    0.0000 H   0  0  0  0  0  0  0  0  0  0  0  0
   18.3362   -0.1422    0.0000 H   0  0  0  0  0  0  0  0  0  0  0  0
   16.4746   -4.7985    0.0000 H   0  0  0  0  0  0  0  0  0  0  0  0
   18.6549   -3.3857    0.0000 H   0  0  0  0  0  0  0  0  0  0  0  0
   18.7847   -1.4284    0.0000 H   0  0  0  0  0  0  0  0  0  0  0  0
   19.3518    1.9151    0.0000 H   0  0  0  0  0  0  0  0  0  0  0  0
   22.7620    1.7815    0.0000 H   0  0  0  0  0  0  0  0  0  0  0  0
   21.9479    3.0140    0.0000 H   0  0  0  0  0  0  0  0  0  0  0  0
   20.0685    2.5821    0.0000 H   0  0  0  0  0  0  0  0  0  0  0  0
   23.1103    1.7922    0.0000 H   0  0  0  0  0  0  0  0  0  0  0  0
   22.7285   -1.4472    0.0000 H   0  0  0  0  0  0  0  0  0  0  0  0
   26.0714   -1.0998    0.0000 H   0  0  0  0  0  0  0  0  0  0  0  0
   24.7200   -4.5288    0.0000 H   0  0  0  0  0  0  0  0  0  0  0  0
   22.9783   -4.1833    0.0000 H   0  0  0  0  0  0  0  0  0  0  0  0
   22.7780   -2.4102    0.0000 H   0  0  0  0  0  0  0  0  0  0  0  0
   27.3897   -3.1695    0.0000 H   0  0  0  0  0  0  0  0  0  0  0  0
   26.9410   -1.5985    0.0000 H   0  0  0  0  0  0  0  0  0  0  0  0
   26.9685   -5.1221    0.0000 H   0  0  0  0  0  0  0  0  0  0  0  0
   25.0891   -5.5540    0.0000 H   0  0  0  0  0  0  0  0  0  0  0  0
   24.2736   -4.1382    0.0000 H   0  0  0  0  0  0  0  0  0  0  0  0
   26.7028   -2.3750    0.0000 H   0  0  0  0  0  0  0  0  0  0  0  0
   27.0870    0.9576    0.0000 H   0  0  0  0  0  0  0  0  0  0  0  0
   29.6831    2.0565    0.0000 H   0  0  0  0  0  0  0  0  0  0  0  0
   27.8037    1.6246    0.0000 H   0  0  0  0  0  0  0  0  0  0  0  0
   31.6318   -0.6232    0.0000 H   0  0  0  0  0  0  0  0  0  0  0  0
   30.4596   -1.2191    0.0000 H   0  0  0  0  0  0  0  0  0  0  0  0
   34.0649    1.8845    0.0000 H   0  0  0  0  0  0  0  0  0  0  0  0
   33.6909   -0.4796    0.0000 H   0  0  0  0  0  0  0  0  0  0  0  0
   31.0201    0.7794    0.0000 H   0  0  0  0  0  0  0  0  0  0  0  0
   30.5801   -2.5463    0.0000 H   0  0  0  0  0  0  0  0  0  0  0  0
   33.5718   -3.8263    0.0000 H   0  0  0  0  0  0  0  0  0  0  0  0
   33.8065   -2.0573    0.0000 H   0  0  0  0  0  0  0  0  0  0  0  0
   29.6312   -5.5318    0.0000 H   0  0  0  0  0  0  0  0  0  0  0  0
   34.2551   -3.3435    0.0000 H   0  0  0  0  0  0  0  0  0  0  0  0
   34.8222    0.0000    0.0000 H   0  0  0  0  0  0  0  0  0  0  0  0
   35.5389    0.6670    0.0000 H   0  0  0  0  0  0  0  0  0  0  0  0
   38.8957    1.3580    0.0000 H   0  0  0  0  0  0  0  0  0  0  0  0
   39.3844    0.2036    0.0000 H   0  0  0  0  0  0  0  0  0  0  0  0
   39.3670   -1.5808    0.0000 H   0  0  0  0  0  0  0  0  0  0  0  0
   38.1948   -2.1767    0.0000 H   0  0  0  0  0  0  0  0  0  0  0  0
   38.5806   -0.1229    0.0000 H   0  0  0  0  0  0  0  0  0  0  0  0
   38.1989   -3.3623    0.0000 H   0  0  0  0  0  0  0  0  0  0  0  0
   41.3070   -4.7838    0.0000 H   0  0  0  0  0  0  0  0  0  0  0  0
   41.5417   -3.0149    0.0000 H   0  0  0  0  0  0  0  0  0  0  0  0
   40.3624   -6.3354    0.0000 H   0  0  0  0  0  0  0  0  0  0  0  0
   38.4487   -6.0985    0.0000 H   0  0  0  0  0  0  0  0  0  0  0  0
   38.2484   -4.3253    0.0000 H   0  0  0  0  0  0  0  0  0  0  0  0
   41.9903   -4.3011    0.0000 H   0  0  0  0  0  0  0  0  0  0  0  0
   42.5574   -0.9576    0.0000 H   0  0  0  0  0  0  0  0  0  0  0  0
   44.9855    0.2146    0.0000 H   0  0  0  0  0  0  0  0  0  0  0  0
   43.2741   -0.2905    0.0000 H   0  0  0  0  0  0  0  0  0  0  0  0
   47.1022   -2.5384    0.0000 H   0  0  0  0  0  0  0  0  0  0  0  0
   45.9300   -3.1342    0.0000 H   0  0  0  0  0  0  0  0  0  0  0  0
   47.6855    0.7233    0.0000 H   0  0  0  0  0  0  0  0  0  0  0  0
   45.9252    0.4306    0.0000 H   0  0  0  0  0  0  0  0  0  0  0  0
   49.1169   -2.3897    0.0000 H   0  0  0  0  0  0  0  0  0  0  0  0
   52.0673    0.5513    0.0000 H   0  0  0  0  0  0  0  0  0  0  0  0
   50.2973    2.4532    0.0000 H   0  0  0  0  0  0  0  0  0  0  0  0
   47.7652    1.8713    0.0000 H   0  0  0  0  0  0  0  0  0  0  0  0
   46.4905   -1.1357    0.0000 H   0  0  0  0  0  0  0  0  0  0  0  0
   45.9341   -4.3199    0.0000 H   0  0  0  0  0  0  0  0  0  0  0  0
   49.0422   -5.7414    0.0000 H   0  0  0  0  0  0  0  0  0  0  0  0
   49.2769   -3.9724    0.0000 H   0  0  0  0  0  0  0  0  0  0  0  0
   46.1839   -7.0560    0.0000 H   0  0  0  0  0  0  0  0  0  0  0  0
   45.9836   -5.2829    0.0000 H   0  0  0  0  0  0  0  0  0  0  0  0
   50.4114   -8.4747    0.0000 H   0  0  0  0  0  0  0  0  0  0  0  0
   49.7255   -5.2587    0.0000 H   0  0  0  0  0  0  0  0  0  0  0  0
   50.2925   -1.9151    0.0000 H   0  0  0  0  0  0  0  0  0  0  0  0
   52.8886   -0.8162    0.0000 H   0  0  0  0  0  0  0  0  0  0  0  0
   50.9080   -1.4008    0.0000 H   0  0  0  0  0  0  0  0  0  0  0  0
   54.8374   -3.4959    0.0000 H   0  0  0  0  0  0  0  0  0  0  0  0
   53.4822   -4.0836    0.0000 H   0  0  0  0  0  0  0  0  0  0  0  0
   57.2704   -0.9882    0.0000 H   0  0  0  0  0  0  0  0  0  0  0  0
   56.5084   -3.4720    0.0000 H   0  0  0  0  0  0  0  0  0  0  0  0
   53.3181   -6.4704    0.0000 H   0  0  0  0  0  0  0  0  0  0  0  0
  1  2  1  0
  2  3  1  0
  3  4  2  0
  4  5  1  0
  5  6  2  0
  6  7  1  0
  7  8  2  0
  7  9  1  0
  9 10  1  0
 10 11  1  0
 11 12  2  0
  9 13  1  0
 13 14  1  0
 14 15  2  0
 15 16  1  0
 16 17  2  0
 17 18  1  0
 16 19  1  0
 14 20  1  0
 20 21  1  0
 21 22  2  0
 22 23  1  0
 23 24  2  0
 24 25  1  0
 25 26  2  0
 25 27  1  0
  1 28  2  0
  1 29  1  0
 29 30  1  0
 30 31  1  0
 31 32  1  0
 32 33  2  0
 32 34  1  0
 34 35  1  0
 35 36  1  0
 36 37  1  0
 35 38  1  0
 38 39  2  0
 38 40  1  0
 40 41  1  0
 41 42  1  0
 42 43  1  0
 43 44  1  0
 44 45  2  0
 44 46  1  0
 41 47  1  0
 47 48  2  0
 47 49  1  0
 49 50  1  0
 50 51  1  0
 51 52  1  0
 52 53  1  0
 53 54  2  0
 53 55  1  0
 50 56  1  0
 56 57  2  0
 56 58  1  0
 58 59  1  0
 59 60  1  0
 60 61  1  0
 61 62  1  0
 61 63  1  0
 59 64  1  0
 64 65  2  0
 64 66  1  0
 66 67  1  0
 67 68  1  0
 68 69  1  0
 67 70  1  0
 70 71  2  0
 70 72  1  0
 73 72  1  6
 73 74  1  0
 74 75  1  0
 75 76  1  0
 76 77  1  0
 73 78  1  0
 73 79  1  0
 79 80  2  0
 79 81  1  0
 81 82  1  0
 82 83  1  0
 83 84  1  0
 84 85  1  0
 85 86  2  0
 85 87  1  0
 82 88  1  0
 88 89  2  0
 88 90  1  0
 90 91  1  0
 91 92  1  0
 91 93  1  0
 93 94  2  0
 93 95  1  0
 95 96  1  0
 96 97  1  0
 97 98  1  0
 98 99  2  0
 99100  1  0
100101  1  0
101102  2  0
 96103  1  0
103104  2  0
103105  1  0
105106  1  0
106107  1  0
107108  1  0
108109  1  0
109110  1  0
106111  1  0
106112  1  6
112113  2  0
112114  1  0
114115  1  0
115116  1  0
116117  1  0
117118  1  0
117119  1  0
115120  1  0
120121  2  0
120122  1  0
122123  1  0
123124  1  0
124125  1  0
123126  1  0
126127  2  0
126128  1  0
128129  1  0
129130  1  0
130131  1  0
130132  1  0
129133  1  0
133134  2  0
133135  1  0
135136  1  0
136137  1  0
137138  1  0
138139  1  0
138140  1  0
136141  1  0
141142  2  0
141143  1  0
143144  1  0
144145  1  0
145146  1  0
146147  1  0
146148  1  0
144149  1  0
149150  2  0
149151  1  0
151152  1  0
152153  1  0
153154  1  0
154155  1  0
155156  2  0
155157  1  0
152158  1  0
158159  2  0
158160  1  0
160161  1  0
161162  1  0
162163  1  0
163164  1  0
163165  2  0
161166  1  0
166167  2  0
166168  1  0
168169  1  0
169170  1  0
169171  1  0
171172  2  0
171173  1  0
173174  1  0
174175  1  0
175176  1  0
175177  1  0
177178  1  0
174179  1  0
179180  2  0
179181  1  0
181182  1  0
182183  1  0
183184  1  0
184185  1  0
185186  1  0
185187  2  0
182188  1  0
188189  2  0
188190  1  0
190191  1  0
191192  1  0
192193  1  0
193194  2  0
193195  1  0
191196  1  0
196197  2  0
196198  1  0
198199  1  0
199200  1  0
200201  1  0
200202  1  0
199203  1  0
203204  2  0
203205  1  0
205206  1  0
206207  1  0
207208  1  0
206209  1  0
209210  2  0
209211  1  0
211212  1  0
212213  1  0
213214  1  0
214215  1  0
215216  1  0
216217  1  0
217218  2  3
217219  1  0
212220  1  0
220221  2  0
220222  1  0
222223  1  0
223224  1  0
224225  1  0
225226  1  0
226227  2  0
226228  1  0
223229  1  0
229230  2  0
229231  1  0
231232  1  0
232233  1  0
233234  1  0
234235  1  0
235236  1  0
235237  2  0
232238  1  0
238239  2  0
238240  1  0
  8  3  1  0
102 98  1  0
 11  6  1  0
 77110  2  0
 18 13  2  0
 22  9  1  0
 26 21  1  0
  2241  1  0
  4242  1  0
  5243  1  0
  8244  1  0
 15245  1  0
 17246  1  0
 18247  1  0
 19248  1  0
 23249  1  0
 24250  1  0
 26251  1  0
 27252  1  0
 29253  1  0
 30254  1  0
 30255  1  0
 31256  1  0
 31257  1  0
 34258  1  0
 35259  1  1
 36260  1  0
 36261  1  0
 37262  1  0
 40263  1  0
 41264  1  6
 42265  1  0
 42266  1  0
 43267  1  0
 43268  1  0
 46269  1  0
 49270  1  0
 50271  1  1
 51272  1  0
 51273  1  0
 52274  1  0
 52275  1  0
 55276  1  0
 58277  1  0
 59278  1  6
 60279  1  0
 60280  1  0
 61281  1  0
 62282  1  0
 62283  1  0
 62284  1  0
 63285  1  0
 63286  1  0
 63287  1  0
 66288  1  0
 67289  1  1
 68290  1  0
 68291  1  0
 69292  1  0
 69293  1  0
 69294  1  0
 72295  1  0
 74296  1  0
 74297  1  0
 75298  1  0
 75299  1  0
 76300  1  0
 76301  1  0
 77302  1  0
 78303  1  0
 78304  1  0
 78305  1  0
 81306  1  0
 82307  1  1
 83308  1  0
 83309  1  0
 84310  1  0
 84311  1  0
 87312  1  0
 90313  1  0
 91314  1  1
 92315  1  0
 92316  1  0
 92317  1  0
 95318  1  0
 96319  1  1
 97320  1  0
 97321  1  0
 99322  1  0
100323  1  0
101324  1  0
105325  1  0
107326  1  0
107327  1  0
108328  1  0
108329  1  0
109330  1  0
109331  1  0
110332  1  0
111333  1  0
111334  1  0
111335  1  0
114336  1  0
115337  1  6
116338  1  0
116339  1  0
117340  1  0
118341  1  0
118342  1  0
118343  1  0
119344  1  0
119345  1  0
119346  1  0
122347  1  0
123348  1  1
124349  1  0
124350  1  0
125351  1  0
128352  1  0
129353  1  6
130354  1  1
131355  1  0
132356  1  0
132357  1  0
132358  1  0
135359  1  0
136360  1  1
137361  1  0
137362  1  0
138363  1  0
139364  1  0
139365  1  0
139366  1  0
140367  1  0
140368  1  0
140369  1  0
143370  1  0
144371  1  6
145372  1  0
145373  1  0
146374  1  0
147375  1  0
147376  1  0
147377  1  0
148378  1  0
148379  1  0
148380  1  0
151381  1  0
152382  1  1
153383  1  0
153384  1  0
154385  1  0
154386  1  0
157387  1  0
160388  1  0
161389  1  6
162390  1  0
162391  1  0
164392  1  0
164393  1  0
168394  1  0
169395  1  1
170396  1  0
170397  1  0
170398  1  0
173399  1  0
174400  1  6
175401  1  1
176402  1  0
176403  1  0
176404  1  0
177405  1  0
177406  1  0
178407  1  0
178408  1  0
178409  1  0
181410  1  0
182411  1  1
183412  1  0
183413  1  0
184414  1  0
184415  1  0
186416  1  0
186417  1  0
190418  1  0
191419  1  6
192420  1  0
192421  1  0
195422  1  0
198423  1  0
199424  1  1
200425  1  1
201426  1  0
202427  1  0
202428  1  0
202429  1  0
205430  1  0
206431  1  6
207432  1  0
207433  1  0
208434  1  0
208435  1  0
208436  1  0
211437  1  0
212438  1  1
213439  1  0
213440  1  0
214441  1  0
214442  1  0
215443  1  0
215444  1  0
216445  1  0
218446  1  0
219447  1  0
219448  1  0
222449  1  0
223450  1  6
224451  1  0
224452  1  0
225453  1  0
225454  1  0
228455  1  0
231456  1  0
232457  1  1
233458  1  0
233459  1  0
234460  1  0
234461  1  0
236462  1  0
236463  1  0
240464  1  0
M  END
