
     RDKit          2D

260261  0  0  0  0  0  0  0  0999 V2000
  -20.4620   -1.0769    0.0000 N   0  0  0  0  0  0  0  0  0  0  0  0
  -19.1193   -1.7456    0.0000 C   0  0  0  0  0  0  0  0  0  0  0  0
  -19.0270   -3.2427    0.0000 C   0  0  0  0  0  0  0  0  0  0  0  0
  -17.6843   -3.9114    0.0000 C   0  0  0  0  0  0  0  0  0  0  0  0
  -16.4339   -3.0829    0.0000 O   0  0  0  0  0  0  0  0  0  0  0  0
  -17.5920   -5.4085    0.0000 N   0  0  0  0  0  0  0  0  0  0  0  0
  -16.2493   -6.0772    0.0000 C   0  0  0  0  0  0  0  0  0  0  0  0
  -17.1410   -7.2834    0.0000 C   0  0  0  0  0  0  0  0  0  0  0  0
  -18.6314   -7.1143    0.0000 C   0  0  0  0  0  0  0  0  0  0  0  0
  -19.5231   -8.3205    0.0000 N   0  0  0  0  0  0  0  0  0  0  0  0
  -19.3934   -5.8222    0.0000 O   0  0  0  0  0  0  0  0  0  0  0  0
  -14.7589   -6.2463    0.0000 C   0  0  0  0  0  0  0  0  0  0  0  0
  -14.3322   -7.6843    0.0000 O   0  0  0  0  0  0  0  0  0  0  0  0
  -13.8672   -5.0401    0.0000 N   0  0  0  0  0  0  0  0  0  0  0  0
  -12.3768   -5.2092    0.0000 C   0  0  0  0  0  0  0  0  0  0  0  0
  -12.8021   -6.6476    0.0000 C   0  0  0  0  0  0  0  0  0  0  0  0
  -11.7691   -7.7352    0.0000 C   0  0  0  0  0  0  0  0  0  0  0  0
  -12.1944   -9.1736    0.0000 C   0  0  0  0  0  0  0  0  0  0  0  0
  -11.1614  -10.2612    0.0000 O   0  0  0  0  0  0  0  0  0  0  0  0
  -13.6528   -9.5245    0.0000 O   0  0  0  0  0  0  0  0  0  0  0  0
  -10.9184   -4.8584    0.0000 C   0  0  0  0  0  0  0  0  0  0  0  0
   -9.8853   -5.9459    0.0000 O   0  0  0  0  0  0  0  0  0  0  0  0
  -10.4930   -3.4199    0.0000 N   0  0  0  0  0  0  0  0  0  0  0  0
   -9.0346   -3.0691    0.0000 C   0  0  0  0  0  0  0  0  0  0  0  0
   -9.6334   -1.6938    0.0000 C   0  0  0  0  0  0  0  0  0  0  0  0
  -11.1238   -1.5247    0.0000 C   0  0  0  0  0  0  0  0  0  0  0  0
  -11.7226   -0.1493    0.0000 C   0  0  0  0  0  0  0  0  0  0  0  0
  -12.5822   -1.8755    0.0000 C   0  0  0  0  0  0  0  0  0  0  0  0
   -7.5442   -3.2382    0.0000 C   0  0  0  0  0  0  0  0  0  0  0  0
   -7.1175   -4.6762    0.0000 O   0  0  0  0  0  0  0  0  0  0  0  0
   -6.6525   -2.0320    0.0000 N   0  0  0  0  0  0  0  0  0  0  0  0
   -5.1621   -2.2011    0.0000 C   0  0  0  0  0  0  0  0  0  0  0  0
   -4.3940   -3.4895    0.0000 C   0  0  0  0  0  0  0  0  0  0  0  0
   -3.3960   -4.6093    0.0000 C   0  0  0  0  0  0  0  0  0  0  0  0
   -2.2041   -5.5200    0.0000 C   0  0  0  0  0  0  0  0  0  0  0  0
   -0.8614   -6.1887    0.0000 C   0  0  0  0  0  0  0  0  0  0  0  0
    0.5836   -6.5911    0.0000 C   0  0  0  0  0  0  0  0  0  0  0  0
    2.0787   -6.7129    0.0000 C   0  0  0  0  0  0  0  0  0  0  0  0
    3.5697   -6.5495    0.0000 C   0  0  0  0  0  0  0  0  0  0  0  0
   -6.1230   -3.3529    0.0000 C   0  0  0  0  0  0  0  0  0  0  0  0
   -5.6724   -0.7906    0.0000 C   0  0  0  0  0  0  0  0  0  0  0  0
   -7.1598   -0.9846    0.0000 O   0  0  0  0  0  0  0  0  0  0  0  0
   -5.9066    0.6911    0.0000 N   0  0  0  0  0  0  0  0  0  0  0  0
   -5.8561    2.1902    0.0000 C   0  0  0  0  0  0  0  0  0  0  0  0
   -7.2218    1.5697    0.0000 C   0  0  0  0  0  0  0  0  0  0  0  0
   -8.4420    2.4421    0.0000 C   0  0  0  0  0  0  0  0  0  0  0  0
   -8.2965    3.9350    0.0000 C   0  0  0  0  0  0  0  0  0  0  0  0
   -9.5167    4.8075    0.0000 N   0  0  0  0  0  0  0  0  0  0  0  0
   -9.3713    6.3004    0.0000 C   0  0  0  0  0  0  0  0  0  0  0  0
  -10.5915    7.1728    0.0000 N   0  0  0  0  0  0  0  0  0  0  0  0
   -8.0057    6.9209    0.0000 N   0  0  0  0  0  0  0  0  0  0  0  0
   -5.5229    3.6527    0.0000 C   0  0  0  0  0  0  0  0  0  0  0  0
   -6.9939    3.9464    0.0000 O   0  0  0  0  0  0  0  0  0  0  0  0
   -4.9189    5.0257    0.0000 N   0  0  0  0  0  0  0  0  0  0  0  0
   -4.0659    6.2596    0.0000 C   0  0  0  0  0  0  0  0  0  0  0  0
   -5.5502    6.4759    0.0000 C   0  0  0  0  0  0  0  0  0  0  0  0
   -6.1051    7.8695    0.0000 O   0  0  0  0  0  0  0  0  0  0  0  0
   -2.9949    7.3098    0.0000 C   0  0  0  0  0  0  0  0  0  0  0  0
   -3.9385    8.4758    0.0000 O   0  0  0  0  0  0  0  0  0  0  0  0
   -1.7444    8.1383    0.0000 N   0  0  0  0  0  0  0  0  0  0  0  0
   -0.3598    8.7152    0.0000 C   0  0  0  0  0  0  0  0  0  0  0  0
   -1.4915    9.6996    0.0000 C   0  0  0  0  0  0  0  0  0  0  0  0
   -1.2049   11.1720    0.0000 C   0  0  0  0  0  0  0  0  0  0  0  0
    0.2136   11.6598    0.0000 C   0  0  0  0  0  0  0  0  0  0  0  0
    0.5003   13.1322    0.0000 C   0  0  0  0  0  0  0  0  0  0  0  0
   -0.6315   14.1167    0.0000 C   0  0  0  0  0  0  0  0  0  0  0  0
   -2.0499   13.6288    0.0000 C   0  0  0  0  0  0  0  0  0  0  0  0
   -2.3366   12.1564    0.0000 C   0  0  0  0  0  0  0  0  0  0  0  0
    1.1090    9.0196    0.0000 C   0  0  0  0  0  0  0  0  0  0  0  0
    1.1286   10.5194    0.0000 O   0  0  0  0  0  0  0  0  0  0  0  0
    2.6088    9.0405    0.0000 N   0  0  0  0  0  0  0  0  0  0  0  0
    4.0856    8.7772    0.0000 C   0  0  0  0  0  0  0  0  0  0  0  0
    3.6657   10.2172    0.0000 C   0  0  0  0  0  0  0  0  0  0  0  0
    4.7029   11.3009    0.0000 C   0  0  0  0  0  0  0  0  0  0  0  0
    4.2830   12.7409    0.0000 C   0  0  0  0  0  0  0  0  0  0  0  0
    5.3202   13.8245    0.0000 N   0  0  0  0  0  0  0  0  0  0  0  0
    4.9004   15.2646    0.0000 C   0  0  0  0  0  0  0  0  0  0  0  0
    5.9376   16.3482    0.0000 N   0  0  0  0  0  0  0  0  0  0  0  0
    3.4433   15.6210    0.0000 N   0  0  0  0  0  0  0  0  0  0  0  0
    5.4858    8.2392    0.0000 C   0  0  0  0  0  0  0  0  0  0  0  0
    6.3131    9.4904    0.0000 O   0  0  0  0  0  0  0  0  0  0  0  0
    6.7588    7.4459    0.0000 N   0  0  0  0  0  0  0  0  0  0  0  0
    7.8588    6.4261    0.0000 C   0  0  0  0  0  0  0  0  0  0  0  0
    8.2841    7.8645    0.0000 C   0  0  0  0  0  0  0  0  0  0  0  0
    9.7425    8.2153    0.0000 O   0  0  0  0  0  0  0  0  0  0  0  0
    8.7458    5.2165    0.0000 C   0  0  0  0  0  0  0  0  0  0  0  0
   10.0343    5.9845    0.0000 O   0  0  0  0  0  0  0  0  0  0  0  0
    9.3879    3.8608    0.0000 N   0  0  0  0  0  0  0  0  0  0  0  0
    9.7619    2.4082    0.0000 C   0  0  0  0  0  0  0  0  0  0  0  0
   10.8974    3.3883    0.0000 C   0  0  0  0  0  0  0  0  0  0  0  0
   12.3139    2.8950    0.0000 C   0  0  0  0  0  0  0  0  0  0  0  0
   13.4494    3.8751    0.0000 C   0  0  0  0  0  0  0  0  0  0  0  0
   13.4764    1.9470    0.0000 C   0  0  0  0  0  0  0  0  0  0  0  0
    9.8542    0.9110    0.0000 C   0  0  0  0  0  0  0  0  0  0  0  0
   11.3360    0.6782    0.0000 O   0  0  0  0  0  0  0  0  0  0  0  0
    9.6614   -0.5765    0.0000 N   0  0  0  0  0  0  0  0  0  0  0  0
    9.1907   -2.0007    0.0000 C   0  0  0  0  0  0  0  0  0  0  0  0
    8.4589   -3.3101    0.0000 C   0  0  0  0  0  0  0  0  0  0  0  0
    7.4925   -4.4573    0.0000 C   0  0  0  0  0  0  0  0  0  0  0  0
    6.3265   -5.4009    0.0000 C   0  0  0  0  0  0  0  0  0  0  0  0
    5.0029   -6.1068    0.0000 C   0  0  0  0  0  0  0  0  0  0  0  0
   10.1834   -3.1253    0.0000 C   0  0  0  0  0  0  0  0  0  0  0  0
   10.6758   -1.7901    0.0000 C   0  0  0  0  0  0  0  0  0  0  0  0
   11.4014   -0.4773    0.0000 O   0  0  0  0  0  0  0  0  0  0  0  0
   11.6008   -2.9709    0.0000 N   0  0  0  0  0  0  0  0  0  0  0  0
   13.0859   -2.7603    0.0000 C   0  0  0  0  0  0  0  0  0  0  0  0
   14.4094   -2.0544    0.0000 C   0  0  0  0  0  0  0  0  0  0  0  0
   15.6825   -2.8477    0.0000 C   0  0  0  0  0  0  0  0  0  0  0  0
   17.0061   -2.1418    0.0000 O   0  0  0  0  0  0  0  0  0  0  0  0
   15.7530   -3.6417    0.0000 O   0  0  0  0  0  0  0  0  0  0  0  0
   14.0109   -3.9412    0.0000 C   0  0  0  0  0  0  0  0  0  0  0  0
   14.8079   -3.9263    0.0000 O   0  0  0  0  0  0  0  0  0  0  0  0
   13.4508   -5.3326    0.0000 N   0  0  0  0  0  0  0  0  0  0  0  0
   14.3757   -6.5135    0.0000 C   0  0  0  0  0  0  0  0  0  0  0  0
   15.6488   -7.3068    0.0000 C   0  0  0  0  0  0  0  0  0  0  0  0
   16.1391   -8.7244    0.0000 O   0  0  0  0  0  0  0  0  0  0  0  0
   13.8156   -7.9050    0.0000 C   0  0  0  0  0  0  0  0  0  0  0  0
   12.3304   -8.1156    0.0000 O   0  0  0  0  0  0  0  0  0  0  0  0
   14.7406   -9.0858    0.0000 N   0  0  0  0  0  0  0  0  0  0  0  0
   14.1804  -10.4773    0.0000 C   0  0  0  0  0  0  0  0  0  0  0  0
   13.1781  -11.5933    0.0000 C   0  0  0  0  0  0  0  0  0  0  0  0
   13.6435  -13.0193    0.0000 C   0  0  0  0  0  0  0  0  0  0  0  0
   11.8546  -12.2992    0.0000 C   0  0  0  0  0  0  0  0  0  0  0  0
   10.5815  -11.5059    0.0000 C   0  0  0  0  0  0  0  0  0  0  0  0
   15.1054  -11.6582    0.0000 C   0  0  0  0  0  0  0  0  0  0  0  0
   14.7190  -13.1075    0.0000 O   0  0  0  0  0  0  0  0  0  0  0  0
   16.5905  -11.4475    0.0000 O   0  0  0  0  0  0  0  0  0  0  0  0
  -20.5543    0.4203    0.0000 H   0  0  0  0  0  0  0  0  0  0  0  0
  -21.7124   -1.9054    0.0000 H   0  0  0  0  0  0  0  0  0  0  0  0
  -18.6939   -0.3071    0.0000 H   0  0  0  0  0  0  0  0  0  0  0  0
  -17.6288   -1.9147    0.0000 H   0  0  0  0  0  0  0  0  0  0  0  0
  -20.5174   -3.0736    0.0000 H   0  0  0  0  0  0  0  0  0  0  0  0
  -19.4524   -4.6811    0.0000 H   0  0  0  0  0  0  0  0  0  0  0  0
  -18.9341   -6.0784    0.0000 H   0  0  0  0  0  0  0  0  0  0  0  0
  -15.8239   -4.6388    0.0000 H   0  0  0  0  0  0  0  0  0  0  0  0
  -17.5663   -8.7218    0.0000 H   0  0  0  0  0  0  0  0  0  0  0  0
  -15.7982   -7.9521    0.0000 H   0  0  0  0  0  0  0  0  0  0  0  0
  -21.0135   -8.1514    0.0000 H   0  0  0  0  0  0  0  0  0  0  0  0
  -18.9243   -9.6958    0.0000 H   0  0  0  0  0  0  0  0  0  0  0  0
  -14.4660   -3.6648    0.0000 H   0  0  0  0  0  0  0  0  0  0  0  0
  -12.6508   -3.7345    0.0000 H   0  0  0  0  0  0  0  0  0  0  0  0
  -13.5401   -7.9535    0.0000 H   0  0  0  0  0  0  0  0  0  0  0  0
  -14.2667   -6.3237    0.0000 H   0  0  0  0  0  0  0  0  0  0  0  0
  -10.4263   -8.4039    0.0000 H   0  0  0  0  0  0  0  0  0  0  0  0
  -10.8774   -6.5290    0.0000 H   0  0  0  0  0  0  0  0  0  0  0  0
  -11.6509   -2.4664    0.0000 H   0  0  0  0  0  0  0  0  0  0  0  0
   -8.9424   -4.5662    0.0000 H   0  0  0  0  0  0  0  0  0  0  0  0
   -9.5425   -0.1965    0.0000 H   0  0  0  0  0  0  0  0  0  0  0  0
   -8.1750   -1.3429    0.0000 H   0  0  0  0  0  0  0  0  0  0  0  0
  -11.5743   -2.9554    0.0000 H   0  0  0  0  0  0  0  0  0  0  0  0
  -13.1813    0.2002    0.0000 H   0  0  0  0  0  0  0  0  0  0  0  0
  -11.8149    1.3478    0.0000 H   0  0  0  0  0  0  0  0  0  0  0  0
  -10.3179    0.3767    0.0000 H   0  0  0  0  0  0  0  0  0  0  0  0
  -13.1797   -3.2514    0.0000 H   0  0  0  0  0  0  0  0  0  0  0  0
  -14.0727   -1.7064    0.0000 H   0  0  0  0  0  0  0  0  0  0  0  0
  -12.8563   -0.4008    0.0000 H   0  0  0  0  0  0  0  0  0  0  0  0
   -7.4145   -0.7399    0.0000 H   0  0  0  0  0  0  0  0  0  0  0  0
   -5.1196   -4.8023    0.0000 H   0  0  0  0  0  0  0  0  0  0  0  0
   -5.8642   -3.7870    0.0000 H   0  0  0  0  0  0  0  0  0  0  0  0
   -3.8600   -6.0357    0.0000 H   0  0  0  0  0  0  0  0  0  0  0  0
   -4.7834   -5.1796    0.0000 H   0  0  0  0  0  0  0  0  0  0  0  0
   -2.3898   -7.0085    0.0000 H   0  0  0  0  0  0  0  0  0  0  0  0
   -3.4585   -6.3426    0.0000 H   0  0  0  0  0  0  0  0  0  0  0  0
   -0.7620   -7.6854    0.0000 H   0  0  0  0  0  0  0  0  0  0  0  0
   -1.9374   -7.2338    0.0000 H   0  0  0  0  0  0  0  0  0  0  0  0
    0.9644   -8.0420    0.0000 H   0  0  0  0  0  0  0  0  0  0  0  0
   -0.2752   -7.8210    0.0000 H   0  0  0  0  0  0  0  0  0  0  0  0
    2.8872   -7.9763    0.0000 H   0  0  0  0  0  0  0  0  0  0  0  0
    1.4681   -8.0830    0.0000 H   0  0  0  0  0  0  0  0  0  0  0  0
    3.8741   -8.0183    0.0000 H   0  0  0  0  0  0  0  0  0  0  0  0
   -7.4252   -3.7130    0.0000 H   0  0  0  0  0  0  0  0  0  0  0  0
   -6.1158   -4.9348    0.0000 H   0  0  0  0  0  0  0  0  0  0  0  0
   -4.8056   -4.3933    0.0000 H   0  0  0  0  0  0  0  0  0  0  0  0
   -7.3813    0.4170    0.0000 H   0  0  0  0  0  0  0  0  0  0  0  0
   -6.8943    3.2729    0.0000 H   0  0  0  0  0  0  0  0  0  0  0  0
   -8.4129    0.6579    0.0000 H   0  0  0  0  0  0  0  0  0  0  0  0
   -6.6981    0.1641    0.0000 H   0  0  0  0  0  0  0  0  0  0  0  0
   -9.8870    2.8446    0.0000 H   0  0  0  0  0  0  0  0  0  0  0  0
   -9.0893    1.0889    0.0000 H   0  0  0  0  0  0  0  0  0  0  0  0
   -7.6493    5.2882    0.0000 H   0  0  0  0  0  0  0  0  0  0  0  0
   -6.8515    3.5326    0.0000 H   0  0  0  0  0  0  0  0  0  0  0  0
  -10.8824    4.1869    0.0000 H   0  0  0  0  0  0  0  0  0  0  0  0
  -10.4461    8.6657    0.0000 H   0  0  0  0  0  0  0  0  0  0  0  0
  -11.9571    6.5523    0.0000 H   0  0  0  0  0  0  0  0  0  0  0  0
   -8.0433    8.4204    0.0000 H   0  0  0  0  0  0  0  0  0  0  0  0
   -7.0328    5.7792    0.0000 H   0  0  0  0  0  0  0  0  0  0  0  0
   -6.3664    5.4189    0.0000 H   0  0  0  0  0  0  0  0  0  0  0  0
   -4.5312    7.6856    0.0000 H   0  0  0  0  0  0  0  0  0  0  0  0
   -7.0190    6.1715    0.0000 H   0  0  0  0  0  0  0  0  0  0  0  0
   -5.8696    5.0103    0.0000 H   0  0  0  0  0  0  0  0  0  0  0  0
   -7.5520    8.2652    0.0000 H   0  0  0  0  0  0  0  0  0  0  0  0
   -2.6064    9.3659    0.0000 H   0  0  0  0  0  0  0  0  0  0  0  0
    0.0197   10.1664    0.0000 H   0  0  0  0  0  0  0  0  0  0  0  0
   -2.8157   10.4043    0.0000 H   0  0  0  0  0  0  0  0  0  0  0  0
   -2.5526    8.6393    0.0000 H   0  0  0  0  0  0  0  0  0  0  0  0
    1.4569   10.8207    0.0000 H   0  0  0  0  0  0  0  0  0  0  0  0
    1.9187   13.6201    0.0000 H   0  0  0  0  0  0  0  0  0  0  0  0
   -0.3448   15.5890    0.0000 H   0  0  0  0  0  0  0  0  0  0  0  0
   -3.1817   14.6132    0.0000 H   0  0  0  0  0  0  0  0  0  0  0  0
   -3.7550   11.6685    0.0000 H   0  0  0  0  0  0  0  0  0  0  0  0
    2.5474   10.5392    0.0000 H   0  0  0  0  0  0  0  0  0  0  0  0
    5.3050    9.6507    0.0000 H   0  0  0  0  0  0  0  0  0  0  0  0
    2.7787   11.4268    0.0000 H   0  0  0  0  0  0  0  0  0  0  0  0
    2.1999    9.8989    0.0000 H   0  0  0  0  0  0  0  0  0  0  0  0
    6.0482   11.9644    0.0000 H   0  0  0  0  0  0  0  0  0  0  0  0
    5.8563   10.3419    0.0000 H   0  0  0  0  0  0  0  0  0  0  0  0
    3.3960   13.9505    0.0000 H   0  0  0  0  0  0  0  0  0  0  0  0
    2.8669   12.2463    0.0000 H   0  0  0  0  0  0  0  0  0  0  0  0
    6.7773   13.4681    0.0000 H   0  0  0  0  0  0  0  0  0  0  0  0
    5.5177   17.7882    0.0000 H   0  0  0  0  0  0  0  0  0  0  0  0
    7.3946   15.9918    0.0000 H   0  0  0  0  0  0  0  0  0  0  0  0
    3.0235   17.0610    0.0000 H   0  0  0  0  0  0  0  0  0  0  0  0
    2.4062   14.5374    0.0000 H   0  0  0  0  0  0  0  0  0  0  0  0
    7.5174    8.7400    0.0000 H   0  0  0  0  0  0  0  0  0  0  0  0
    9.3365    6.6837    0.0000 H   0  0  0  0  0  0  0  0  0  0  0  0
    8.3750    9.3617    0.0000 H   0  0  0  0  0  0  0  0  0  0  0  0
    6.8789    8.3892    0.0000 H   0  0  0  0  0  0  0  0  0  0  0  0
   10.1679    9.6538    0.0000 H   0  0  0  0  0  0  0  0  0  0  0  0
   10.7257    4.5393    0.0000 H   0  0  0  0  0  0  0  0  0  0  0  0
   11.0630    1.6619    0.0000 H   0  0  0  0  0  0  0  0  0  0  0  0
   11.6292    4.6977    0.0000 H   0  0  0  0  0  0  0  0  0  0  0  0
    9.9989    4.5895    0.0000 H   0  0  0  0  0  0  0  0  0  0  0  0
   11.9207    1.4475    0.0000 H   0  0  0  0  0  0  0  0  0  0  0  0
   14.9156    3.5582    0.0000 H   0  0  0  0  0  0  0  0  0  0  0  0
   14.1812    5.1845    0.0000 H   0  0  0  0  0  0  0  0  0  0  0  0
   12.4113    4.9578    0.0000 H   0  0  0  0  0  0  0  0  0  0  0  0
   14.9331    2.3047    0.0000 H   0  0  0  0  0  0  0  0  0  0  0  0
   14.2444    0.6585    0.0000 H   0  0  0  0  0  0  0  0  0  0  0  0
   12.3409    0.9668    0.0000 H   0  0  0  0  0  0  0  0  0  0  0  0
   11.1537   -0.7290    0.0000 H   0  0  0  0  0  0  0  0  0  0  0  0
    9.9368   -3.5664    0.0000 H   0  0  0  0  0  0  0  0  0  0  0  0
    9.0576   -4.6854    0.0000 H   0  0  0  0  0  0  0  0  0  0  0  0
    8.8200   -5.1557    0.0000 H   0  0  0  0  0  0  0  0  0  0  0  0
    7.9961   -5.8703    0.0000 H   0  0  0  0  0  0  0  0  0  0  0  0
    7.6033   -6.1882    0.0000 H   0  0  0  0  0  0  0  0  0  0  0  0
    6.3712   -6.9003    0.0000 H   0  0  0  0  0  0  0  0  0  0  0  0
    5.5798   -7.4915    0.0000 H   0  0  0  0  0  0  0  0  0  0  0  0
    9.7698   -4.7391    0.0000 H   0  0  0  0  0  0  0  0  0  0  0  0
   11.1310   -4.2341    0.0000 H   0  0  0  0  0  0  0  0  0  0  0  0
   11.3093   -2.4398    0.0000 H   0  0  0  0  0  0  0  0  0  0  0  0
   11.2144   -4.4203    0.0000 H   0  0  0  0  0  0  0  0  0  0  0  0
   12.6206   -1.3343    0.0000 H   0  0  0  0  0  0  0  0  0  0  0  0
   15.4117   -0.9384    0.0000 H   0  0  0  0  0  0  0  0  0  0  0  0
   13.4845   -0.8736    0.0000 H   0  0  0  0  0  0  0  0  0  0  0  0
   11.9656   -5.5433    0.0000 H   0  0  0  0  0  0  0  0  0  0  0  0
   15.3780   -5.3975    0.0000 H   0  0  0  0  0  0  0  0  0  0  0  0
   17.1164   -7.6168    0.0000 H   0  0  0  0  0  0  0  0  0  0  0  0
   16.2090   -5.9153    0.0000 H   0  0  0  0  0  0  0  0  0  0  0  0
   16.8714   -9.5992    0.0000 H   0  0  0  0  0  0  0  0  0  0  0  0
   16.2403   -9.0578    0.0000 H   0  0  0  0  0  0  0  0  0  0  0  0
   12.9073   -9.6840    0.0000 H   0  0  0  0  0  0  0  0  0  0  0  0
   12.4040  -10.3085    0.0000 H   0  0  0  0  0  0  0  0  0  0  0  0
   12.7847  -14.2491    0.0000 H   0  0  0  0  0  0  0  0  0  0  0  0
   14.5684  -14.2001    0.0000 H   0  0  0  0  0  0  0  0  0  0  0  0
   15.1321  -12.8347    0.0000 H   0  0  0  0  0  0  0  0  0  0  0  0
   10.8523  -13.4152    0.0000 H   0  0  0  0  0  0  0  0  0  0  0  0
   12.6287  -13.5840    0.0000 H   0  0  0  0  0  0  0  0  0  0  0  0
    9.2580  -12.2118    0.0000 H   0  0  0  0  0  0  0  0  0  0  0  0
    9.6565  -10.3251    0.0000 H   0  0  0  0  0  0  0  0  0  0  0  0
   11.4403  -10.2761    0.0000 H   0  0  0  0  0  0  0  0  0  0  0  0
  1  2  1  0
  2  3  1  0
  3  4  1  0
  4  5  2  0
  4  6  1  0
  6  7  1  0
  7  8  1  0
  8  9  1  0
  9 10  1  0
  9 11  2  0
  7 12  1  0
 12 13  2  0
 12 14  1  0
 14 15  1  0
 15 16  1  0
 16 17  1  0
 17 18  1  0
 18 19  2  0
 18 20  1  0
 15 21  1  0
 21 22  2  0
 21 23  1  0
 23 24  1  0
 24 25  1  0
 25 26  1  0
 26 27  1  0
 26 28  1  0
 24 29  1  0
 29 30  2  0
 29 31  1  0
 32 31  1  1
 32 33  1  0
 33 34  1  0
 34 35  1  0
 35 36  1  0
 36 37  1  0
 37 38  1  0
 38 39  1  0
 32 40  1  0
 32 41  1  0
 41 42  2  0
 41 43  1  0
 43 44  1  0
 44 45  1  0
 45 46  1  0
 46 47  1  0
 47 48  1  0
 48 49  1  0
 49 50  2  3
 49 51  1  0
 44 52  1  0
 52 53  2  0
 52 54  1  0
 54 55  1  0
 55 56  1  0
 56 57  1  0
 55 58  1  0
 58 59  2  0
 58 60  1  0
 60 61  1  0
 61 62  1  0
 62 63  1  0
 63 64  2  0
 64 65  1  0
 65 66  2  0
 66 67  1  0
 67 68  2  0
 61 69  1  0
 69 70  2  0
 69 71  1  0
 71 72  1  0
 72 73  1  0
 73 74  1  0
 74 75  1  0
 75 76  1  0
 76 77  1  0
 77 78  2  3
 77 79  1  0
 72 80  1  0
 80 81  2  0
 80 82  1  0
 82 83  1  0
 83 84  1  0
 84 85  1  0
 83 86  1  0
 86 87  2  0
 86 88  1  0
 88 89  1  0
 89 90  1  0
 90 91  1  0
 91 92  1  0
 91 93  1  0
 89 94  1  0
 94 95  2  0
 94 96  1  0
 96 97  1  0
 97 98  1  0
 98 99  1  0
 99100  1  0
100101  1  0
 97102  1  0
 97103  1  6
103104  2  0
103105  1  0
105106  1  0
106107  1  0
107108  1  0
108109  2  0
108110  1  0
106111  1  0
111112  2  0
111113  1  0
113114  1  0
114115  1  0
115116  1  0
114117  1  0
117118  2  0
117119  1  0
119120  1  0
120121  1  0
121122  1  0
121123  1  0
123124  1  0
120125  1  0
125126  2  0
125127  1  0
 68 63  1  0
 39101  2  0
  1128  1  0
  1129  1  0
  2130  1  0
  2131  1  0
  3132  1  0
  3133  1  0
  6134  1  0
  7135  1  6
  8136  1  0
  8137  1  0
 10138  1  0
 10139  1  0
 14140  1  0
 15141  1  6
 16142  1  0
 16143  1  0
 17144  1  0
 17145  1  0
 23146  1  0
 24147  1  1
 25148  1  0
 25149  1  0
 26150  1  0
 27151  1  0
 27152  1  0
 27153  1  0
 28154  1  0
 28155  1  0
 28156  1  0
 31157  1  0
 33158  1  0
 33159  1  0
 34160  1  0
 34161  1  0
 35162  1  0
 35163  1  0
 36164  1  0
 36165  1  0
 37166  1  0
 37167  1  0
 38168  1  0
 38169  1  0
 39170  1  0
 40171  1  0
 40172  1  0
 40173  1  0
 43174  1  0
 44175  1  1
 45176  1  0
 45177  1  0
 46178  1  0
 46179  1  0
 47180  1  0
 47181  1  0
 48182  1  0
 50183  1  0
 50184  1  0
 51185  1  0
 51186  1  0
 54187  1  0
 55188  1  1
 56189  1  0
 56190  1  0
 57191  1  0
 60192  1  0
 61193  1  1
 62194  1  0
 62195  1  0
 64196  1  0
 65197  1  0
 66198  1  0
 67199  1  0
 68200  1  0
 71201  1  0
 72202  1  1
 73203  1  0
 73204  1  0
 74205  1  0
 74206  1  0
 75207  1  0
 75208  1  0
 76209  1  0
 78210  1  0
 78211  1  0
 79212  1  0
 79213  1  0
 82214  1  0
 83215  1  1
 84216  1  0
 84217  1  0
 85218  1  0
 88219  1  0
 89220  1  1
 90221  1  0
 90222  1  0
 91223  1  0
 92224  1  0
 92225  1  0
 92226  1  0
 93227  1  0
 93228  1  0
 93229  1  0
 96230  1  0
 98231  1  0
 98232  1  0
 99233  1  0
 99234  1  0
100235  1  0
100236  1  0
101237  1  0
102238  1  0
102239  1  0
102240  1  0
105241  1  0
106242  1  1
107243  1  0
107244  1  0
113245  1  0
114246  1  1
115247  1  0
115248  1  0
116249  1  0
119250  1  0
120251  1  6
121252  1  6
122253  1  0
122254  1  0
122255  1  0
123256  1  0
123257  1  0
124258  1  0
124259  1  0
124260  1  0
M  CHG  5  20  -1  50   1  78   1 110  -1 127  -1
M  END
