
     RDKit          2D

224231  0  0  0  0  0  0  0  0999 V2000
  -24.3104    0.2575    0.0000 C   0  0  0  0  0  0  0  0  0  0  0  0
  -25.6062   -0.4981    0.0000 N   0  0  0  0  0  0  0  0  0  0  0  0
  -26.9085    0.2462    0.0000 C   0  0  0  0  0  0  0  0  0  0  0  0
  -26.9150    1.7462    0.0000 C   0  0  0  0  0  0  0  0  0  0  0  0
  -28.2173    2.4905    0.0000 C   0  0  0  0  0  0  0  0  0  0  0  0
  -29.5131    1.7349    0.0000 C   0  0  0  0  0  0  0  0  0  0  0  0
  -29.5065    0.2349    0.0000 C   0  0  0  0  0  0  0  0  0  0  0  0
  -28.2043   -0.5094    0.0000 C   0  0  0  0  0  0  0  0  0  0  0  0
  -30.9311   -0.2348    0.0000 C   0  0  0  0  0  0  0  0  0  0  0  0
  -31.8180    0.9749    0.0000 O   0  0  0  0  0  0  0  0  0  0  0  0
  -30.9416    2.1922    0.0000 C   0  0  0  0  0  0  0  0  0  0  0  0
  -31.4114    3.6168    0.0000 O   0  0  0  0  0  0  0  0  0  0  0  0
  -32.3969   -0.5530    0.0000 C   0  0  0  0  0  0  0  0  0  0  0  0
  -32.8543   -1.9816    0.0000 C   0  0  0  0  0  0  0  0  0  0  0  0
  -34.3201   -2.2999    0.0000 C   0  0  0  0  0  0  0  0  0  0  0  0
  -35.3286   -1.1895    0.0000 C   0  0  0  0  0  0  0  0  0  0  0  0
  -34.8713    0.2391    0.0000 C   0  0  0  0  0  0  0  0  0  0  0  0
  -33.4055    0.5573    0.0000 C   0  0  0  0  0  0  0  0  0  0  0  0
  -36.7945   -1.5078    0.0000 O   0  0  0  0  0  0  0  0  0  0  0  0
  -31.8457   -3.0920    0.0000 O   0  0  0  0  0  0  0  0  0  0  0  0
  -30.3799   -2.7737    0.0000 C   0  0  0  0  0  0  0  0  0  0  0  0
  -29.9226   -1.3451    0.0000 C   0  0  0  0  0  0  0  0  0  0  0  0
  -28.6701   -1.6936    0.0000 C   0  0  0  0  0  0  0  0  0  0  0  0
  -28.1322   -2.2858    0.0000 C   0  0  0  0  0  0  0  0  0  0  0  0
  -28.3761   -3.0477    0.0000 C   0  0  0  0  0  0  0  0  0  0  0  0
  -29.1579   -3.2174    0.0000 C   0  0  0  0  0  0  0  0  0  0  0  0
  -26.8970   -4.6762    0.0000 O   0  0  0  0  0  0  0  0  0  0  0  0
  -24.3170    1.7575    0.0000 S   0  0  0  0  0  0  0  0  0  0  0  0
  -23.0081   -0.4868    0.0000 N   0  0  0  0  0  0  0  0  0  0  0  0
  -21.7124    0.2688    0.0000 C   0  0  0  0  0  0  0  0  0  0  0  0
  -20.4101   -0.4755    0.0000 C   0  0  0  0  0  0  0  0  0  0  0  0
  -19.1143    0.2801    0.0000 O   0  0  0  0  0  0  0  0  0  0  0  0
  -17.8120   -0.4643    0.0000 C   0  0  0  0  0  0  0  0  0  0  0  0
  -16.5163    0.2914    0.0000 O   0  0  0  0  0  0  0  0  0  0  0  0
  -15.2140   -0.4530    0.0000 C   0  0  0  0  0  0  0  0  0  0  0  0
  -13.9182    0.3027    0.0000 C   0  0  0  0  0  0  0  0  0  0  0  0
  -12.6159   -0.4417    0.0000 O   0  0  0  0  0  0  0  0  0  0  0  0
  -11.3202    0.3140    0.0000 C   0  0  0  0  0  0  0  0  0  0  0  0
  -10.0179   -0.4304    0.0000 C   0  0  0  0  0  0  0  0  0  0  0  0
   -8.7221    0.3253    0.0000 C   0  0  0  0  0  0  0  0  0  0  0  0
   -8.7286    1.8253    0.0000 O   0  0  0  0  0  0  0  0  0  0  0  0
   -7.4198   -0.4191    0.0000 N   0  0  0  0  0  0  0  0  0  0  0  0
   -6.1241    0.3366    0.0000 C   0  0  0  0  0  0  0  0  0  0  0  0
   -4.8218   -0.4078    0.0000 C   0  0  0  0  0  0  0  0  0  0  0  0
   -4.8153   -1.9078    0.0000 O   0  0  0  0  0  0  0  0  0  0  0  0
   -3.5260    0.3479    0.0000 N   0  0  0  0  0  0  0  0  0  0  0  0
   -2.2237   -0.3965    0.0000 C   0  0  0  0  0  0  0  0  0  0  0  0
   -1.2546   -1.5414    0.0000 C   0  0  0  0  0  0  0  0  0  0  0  0
   -0.9280    0.3591    0.0000 C   0  0  0  0  0  0  0  0  0  0  0  0
   -0.9345    1.8591    0.0000 O   0  0  0  0  0  0  0  0  0  0  0  0
    0.3743   -0.3852    0.0000 N   0  0  0  0  0  0  0  0  0  0  0  0
    1.6701    0.3704    0.0000 C   0  0  0  0  0  0  0  0  0  0  0  0
    2.6293    1.5237    0.0000 C   0  0  0  0  0  0  0  0  0  0  0  0
    4.1076    1.2696    0.0000 C   0  0  0  0  0  0  0  0  0  0  0  0
    4.6267   -0.1377    0.0000 C   0  0  0  0  0  0  0  0  0  0  0  0
    6.1051   -0.3917    0.0000 C   0  0  0  0  0  0  0  0  0  0  0  0
    7.0643    0.7615    0.0000 C   0  0  0  0  0  0  0  0  0  0  0  0
    6.5451    2.1688    0.0000 C   0  0  0  0  0  0  0  0  0  0  0  0
    5.0668    2.4229    0.0000 C   0  0  0  0  0  0  0  0  0  0  0  0
    2.9724   -0.3739    0.0000 C   0  0  0  0  0  0  0  0  0  0  0  0
    2.6157   -1.8309    0.0000 O   0  0  0  0  0  0  0  0  0  0  0  0
    4.2681    0.3817    0.0000 N   0  0  0  0  0  0  0  0  0  0  0  0
    5.5704   -0.3626    0.0000 C   0  0  0  0  0  0  0  0  0  0  0  0
    5.8740   -1.8316    0.0000 C   0  0  0  0  0  0  0  0  0  0  0  0
    6.5971   -3.1458    0.0000 C   0  0  0  0  0  0  0  0  0  0  0  0
    7.6755   -4.1884    0.0000 C   0  0  0  0  0  0  0  0  0  0  0  0
    9.0132   -4.8670    0.0000 C   0  0  0  0  0  0  0  0  0  0  0  0
    4.3563   -1.2435    0.0000 C   0  0  0  0  0  0  0  0  0  0  0  0
    5.7133    1.1306    0.0000 C   0  0  0  0  0  0  0  0  0  0  0  0
    4.4852    1.9918    0.0000 O   0  0  0  0  0  0  0  0  0  0  0  0
    6.2899    2.5153    0.0000 N   0  0  0  0  0  0  0  0  0  0  0  0
    7.2491    3.6685    0.0000 C   0  0  0  0  0  0  0  0  0  0  0  0
    7.0191    5.1508    0.0000 C   0  0  0  0  0  0  0  0  0  0  0  0
    5.6204    5.6927    0.0000 C   0  0  0  0  0  0  0  0  0  0  0  0
    5.3904    7.1750    0.0000 N   0  0  0  0  0  0  0  0  0  0  0  0
    4.4517    4.7524    0.0000 O   0  0  0  0  0  0  0  0  0  0  0  0
    8.5056    4.4878    0.0000 C   0  0  0  0  0  0  0  0  0  0  0  0
    7.8827    5.8524    0.0000 O   0  0  0  0  0  0  0  0  0  0  0  0
    9.9477    4.9004    0.0000 N   0  0  0  0  0  0  0  0  0  0  0  0
   11.4474    4.8695    0.0000 C   0  0  0  0  0  0  0  0  0  0  0  0
   12.4629    5.9735    0.0000 C   0  0  0  0  0  0  0  0  0  0  0  0
   12.0145    7.4049    0.0000 C   0  0  0  0  0  0  0  0  0  0  0  0
   13.0300    8.5089    0.0000 C   0  0  0  0  0  0  0  0  0  0  0  0
   11.1036    8.5967    0.0000 C   0  0  0  0  0  0  0  0  0  0  0  0
   12.8714    4.3979    0.0000 C   0  0  0  0  0  0  0  0  0  0  0  0
   13.5499    5.7357    0.0000 O   0  0  0  0  0  0  0  0  0  0  0  0
   14.0931    3.5276    0.0000 N   0  0  0  0  0  0  0  0  0  0  0  0
   15.0040    2.3359    0.0000 C   0  0  0  0  0  0  0  0  0  0  0  0
   16.5003    2.2303    0.0000 C   0  0  0  0  0  0  0  0  0  0  0  0
   17.3398    3.4733    0.0000 C   0  0  0  0  0  0  0  0  0  0  0  0
   18.8361    3.3677    0.0000 C   0  0  0  0  0  0  0  0  0  0  0  0
   19.6757    4.6107    0.0000 C   0  0  0  0  0  0  0  0  0  0  0  0
   19.0190    5.9594    0.0000 C   0  0  0  0  0  0  0  0  0  0  0  0
   17.5227    6.0649    0.0000 C   0  0  0  0  0  0  0  0  0  0  0  0
   16.6831    4.8219    0.0000 C   0  0  0  0  0  0  0  0  0  0  0  0
   15.5231    0.9286    0.0000 C   0  0  0  0  0  0  0  0  0  0  0  0
   16.9921    1.2322    0.0000 O   0  0  0  0  0  0  0  0  0  0  0  0
   15.6044   -0.5692    0.0000 N   0  0  0  0  0  0  0  0  0  0  0  0
   15.2406   -2.0244    0.0000 C   0  0  0  0  0  0  0  0  0  0  0  0
   14.4640   -3.3077    0.0000 C   0  0  0  0  0  0  0  0  0  0  0  0
   13.3437   -4.3051    0.0000 C   0  0  0  0  0  0  0  0  0  0  0  0
   11.9791   -4.9280    0.0000 C   0  0  0  0  0  0  0  0  0  0  0  0
   10.4916   -5.1210    0.0000 C   0  0  0  0  0  0  0  0  0  0  0  0
   16.7167   -1.7575    0.0000 C   0  0  0  0  0  0  0  0  0  0  0  0
   16.0910   -3.2601    0.0000 C   0  0  0  0  0  0  0  0  0  0  0  0
   15.7929   -4.7302    0.0000 O   0  0  0  0  0  0  0  0  0  0  0  0
   17.5863   -3.1415    0.0000 N   0  0  0  0  0  0  0  0  0  0  0  0
   18.4366   -4.3772    0.0000 C   0  0  0  0  0  0  0  0  0  0  0  0
   18.8131   -5.8292    0.0000 C   0  0  0  0  0  0  0  0  0  0  0  0
   17.7438   -6.8812    0.0000 O   0  0  0  0  0  0  0  0  0  0  0  0
   19.9319   -4.2586    0.0000 C   0  0  0  0  0  0  0  0  0  0  0  0
   20.5769   -2.9043    0.0000 O   0  0  0  0  0  0  0  0  0  0  0  0
   20.7823   -5.4942    0.0000 N   0  0  0  0  0  0  0  0  0  0  0  0
   22.2776   -5.3757    0.0000 C   0  0  0  0  0  0  0  0  0  0  0  0
   23.6422   -4.7528    0.0000 C   0  0  0  0  0  0  0  0  0  0  0  0
   24.8639   -5.6231    0.0000 C   0  0  0  0  0  0  0  0  0  0  0  0
   23.1279   -6.6113    0.0000 C   0  0  0  0  0  0  0  0  0  0  0  0
   24.6266   -6.6759    0.0000 O   0  0  0  0  0  0  0  0  0  0  0  0
   22.4830   -7.9656    0.0000 O   0  0  0  0  0  0  0  0  0  0  0  0
  -25.4169   -1.9861    0.0000 H   0  0  0  0  0  0  0  0  0  0  0  0
  -25.6192    2.5018    0.0000 H   0  0  0  0  0  0  0  0  0  0  0  0
  -28.2238    3.9905    0.0000 H   0  0  0  0  0  0  0  0  0  0  0  0
  -27.8350   -1.9633    0.0000 H   0  0  0  0  0  0  0  0  0  0  0  0
  -34.7774   -3.7285    0.0000 H   0  0  0  0  0  0  0  0  0  0  0  0
  -35.8799    1.3494    0.0000 H   0  0  0  0  0  0  0  0  0  0  0  0
  -32.9482    1.9859    0.0000 H   0  0  0  0  0  0  0  0  0  0  0  0
  -37.8030   -0.3974    0.0000 H   0  0  0  0  0  0  0  0  0  0  0  0
  -27.9994    0.4017    0.0000 H   0  0  0  0  0  0  0  0  0  0  0  0
  -25.9545   -2.0001    0.0000 H   0  0  0  0  0  0  0  0  0  0  0  0
  -29.8287   -5.3127    0.0000 H   0  0  0  0  0  0  0  0  0  0  0  0
  -27.3543   -6.1048    0.0000 H   0  0  0  0  0  0  0  0  0  0  0  0
  -23.0016   -1.9868    0.0000 H   0  0  0  0  0  0  0  0  0  0  0  0
  -20.7532    1.4220    0.0000 H   0  0  0  0  0  0  0  0  0  0  0  0
  -22.6815    1.4137    0.0000 H   0  0  0  0  0  0  0  0  0  0  0  0
  -19.5877   -1.7300    0.0000 H   0  0  0  0  0  0  0  0  0  0  0  0
  -21.3693   -1.6288    0.0000 H   0  0  0  0  0  0  0  0  0  0  0  0
  -16.9897   -1.7187    0.0000 H   0  0  0  0  0  0  0  0  0  0  0  0
  -18.6235   -1.7258    0.0000 H   0  0  0  0  0  0  0  0  0  0  0  0
  -14.2448   -1.5978    0.0000 H   0  0  0  0  0  0  0  0  0  0  0  0
  -16.0254   -1.7145    0.0000 H   0  0  0  0  0  0  0  0  0  0  0  0
  -13.1068    1.5642    0.0000 H   0  0  0  0  0  0  0  0  0  0  0  0
  -14.8874    1.4475    0.0000 H   0  0  0  0  0  0  0  0  0  0  0  0
  -10.3610    1.4672    0.0000 H   0  0  0  0  0  0  0  0  0  0  0  0
  -12.1426    1.5684    0.0000 H   0  0  0  0  0  0  0  0  0  0  0  0
   -9.0487   -1.5752    0.0000 H   0  0  0  0  0  0  0  0  0  0  0  0
  -10.9771   -1.5836    0.0000 H   0  0  0  0  0  0  0  0  0  0  0  0
   -7.4133   -1.9191    0.0000 H   0  0  0  0  0  0  0  0  0  0  0  0
   -5.1649    1.4898    0.0000 H   0  0  0  0  0  0  0  0  0  0  0  0
   -7.0932    1.4814    0.0000 H   0  0  0  0  0  0  0  0  0  0  0  0
   -3.5325    1.8478    0.0000 H   0  0  0  0  0  0  0  0  0  0  0  0
   -3.1829   -1.5497    0.0000 H   0  0  0  0  0  0  0  0  0  0  0  0
   -1.7615   -2.9531    0.0000 H   0  0  0  0  0  0  0  0  0  0  0  0
   -0.0527   -2.4389    0.0000 H   0  0  0  0  0  0  0  0  0  0  0  0
   -0.0448   -0.6545    0.0000 H   0  0  0  0  0  0  0  0  0  0  0  0
    0.5636   -1.8732    0.0000 H   0  0  0  0  0  0  0  0  0  0  0  0
    0.7009    1.5153    0.0000 H   0  0  0  0  0  0  0  0  0  0  0  0
    3.1362    2.9354    0.0000 H   0  0  0  0  0  0  0  0  0  0  0  0
    1.3270    2.2680    0.0000 H   0  0  0  0  0  0  0  0  0  0  0  0
    3.4170   -1.0245    0.0000 H   0  0  0  0  0  0  0  0  0  0  0  0
    6.9493   -1.6316    0.0000 H   0  0  0  0  0  0  0  0  0  0  0  0
    8.5426    0.5075    0.0000 H   0  0  0  0  0  0  0  0  0  0  0  0
    7.7548    3.0557    0.0000 H   0  0  0  0  0  0  0  0  0  0  0  0
    4.3799    3.7564    0.0000 H   0  0  0  0  0  0  0  0  0  0  0  0
    4.4445    1.8713    0.0000 H   0  0  0  0  0  0  0  0  0  0  0  0
    4.3745   -1.8681    0.0000 H   0  0  0  0  0  0  0  0  0  0  0  0
    4.9735   -3.0312    0.0000 H   0  0  0  0  0  0  0  0  0  0  0  0
    5.1750   -3.6227    0.0000 H   0  0  0  0  0  0  0  0  0  0  0  0
    5.9219   -4.4852    0.0000 H   0  0  0  0  0  0  0  0  0  0  0  0
    6.3595   -4.9083    0.0000 H   0  0  0  0  0  0  0  0  0  0  0  0
    7.6072   -5.6869    0.0000 H   0  0  0  0  0  0  0  0  0  0  0  0
    8.5417   -6.2909    0.0000 H   0  0  0  0  0  0  0  0  0  0  0  0
    4.1465   -2.7288    0.0000 H   0  0  0  0  0  0  0  0  0  0  0  0
    3.0569   -1.9928    0.0000 H   0  0  0  0  0  0  0  0  0  0  0  0
    3.3928   -0.0939    0.0000 H   0  0  0  0  0  0  0  0  0  0  0  0
    5.1108    3.4425    0.0000 H   0  0  0  0  0  0  0  0  0  0  0  0
    5.8034    4.0685    0.0000 H   0  0  0  0  0  0  0  0  0  0  0  0
    7.3099    6.6223    0.0000 H   0  0  0  0  0  0  0  0  0  0  0  0
    8.4817    5.4837    0.0000 H   0  0  0  0  0  0  0  0  0  0  0  0
    3.9917    7.7169    0.0000 H   0  0  0  0  0  0  0  0  0  0  0  0
    6.5591    8.1153    0.0000 H   0  0  0  0  0  0  0  0  0  0  0  0
    9.7548    6.3879    0.0000 H   0  0  0  0  0  0  0  0  0  0  0  0
   10.6950    6.1671    0.0000 H   0  0  0  0  0  0  0  0  0  0  0  0
   13.8689    6.4961    0.0000 H   0  0  0  0  0  0  0  0  0  0  0  0
   13.6351    5.0376    0.0000 H   0  0  0  0  0  0  0  0  0  0  0  0
   10.6085    6.8823    0.0000 H   0  0  0  0  0  0  0  0  0  0  0  0
   12.7595    9.9843    0.0000 H   0  0  0  0  0  0  0  0  0  0  0  0
   14.3618    9.1990    0.0000 H   0  0  0  0  0  0  0  0  0  0  0  0
   14.0794    7.4371    0.0000 H   0  0  0  0  0  0  0  0  0  0  0  0
   11.5072   10.0414    0.0000 H   0  0  0  0  0  0  0  0  0  0  0  0
    9.8401    9.4050    0.0000 H   0  0  0  0  0  0  0  0  0  0  0  0
   10.0882    7.4927    0.0000 H   0  0  0  0  0  0  0  0  0  0  0  0
   14.9965    4.7250    0.0000 H   0  0  0  0  0  0  0  0  0  0  0  0
   15.7156    3.6563    0.0000 H   0  0  0  0  0  0  0  0  0  0  0  0
   17.8702    1.6193    0.0000 H   0  0  0  0  0  0  0  0  0  0  0  0
   16.4994    0.7303    0.0000 H   0  0  0  0  0  0  0  0  0  0  0  0
   19.4928    2.0191    0.0000 H   0  0  0  0  0  0  0  0  0  0  0  0
   21.1720    4.5051    0.0000 H   0  0  0  0  0  0  0  0  0  0  0  0
   19.8586    7.2024    0.0000 H   0  0  0  0  0  0  0  0  0  0  0  0
   16.8660    7.4136    0.0000 H   0  0  0  0  0  0  0  0  0  0  0  0
   15.2109    5.1091    0.0000 H   0  0  0  0  0  0  0  0  0  0  0  0
   17.0976   -0.7121    0.0000 H   0  0  0  0  0  0  0  0  0  0  0  0
   14.9124   -4.7392    0.0000 H   0  0  0  0  0  0  0  0  0  0  0  0
   15.8654   -3.8428    0.0000 H   0  0  0  0  0  0  0  0  0  0  0  0
   13.5330   -5.7932    0.0000 H   0  0  0  0  0  0  0  0  0  0  0  0
   14.5250   -5.2295    0.0000 H   0  0  0  0  0  0  0  0  0  0  0  0
   11.5432   -6.3633    0.0000 H   0  0  0  0  0  0  0  0  0  0  0  0
   12.9793   -6.0459    0.0000 H   0  0  0  0  0  0  0  0  0  0  0  0
   10.4607   -6.6207    0.0000 H   0  0  0  0  0  0  0  0  0  0  0  0
   17.9341   -2.6339    0.0000 H   0  0  0  0  0  0  0  0  0  0  0  0
   17.9107   -0.8496    0.0000 H   0  0  0  0  0  0  0  0  0  0  0  0
   16.5535   -0.2664    0.0000 H   0  0  0  0  0  0  0  0  0  0  0  0
   18.3915   -1.8759    0.0000 H   0  0  0  0  0  0  0  0  0  0  0  0
   17.0721   -5.0000    0.0000 H   0  0  0  0  0  0  0  0  0  0  0  0
   19.5065   -7.1593    0.0000 H   0  0  0  0  0  0  0  0  0  0  0  0
   20.2878   -5.5550    0.0000 H   0  0  0  0  0  0  0  0  0  0  0  0
   18.1203   -8.3332    0.0000 H   0  0  0  0  0  0  0  0  0  0  0  0
   20.3072   -6.9170    0.0000 H   0  0  0  0  0  0  0  0  0  0  0  0
   21.9011   -3.9237    0.0000 H   0  0  0  0  0  0  0  0  0  0  0  0
   24.7114   -3.7008    0.0000 H   0  0  0  0  0  0  0  0  0  0  0  0
   22.7918   -3.5171    0.0000 H   0  0  0  0  0  0  0  0  0  0  0  0
   26.2284   -5.0002    0.0000 H   0  0  0  0  0  0  0  0  0  0  0  0
   25.7142   -6.8588    0.0000 H   0  0  0  0  0  0  0  0  0  0  0  0
   24.2428   -6.9885    0.0000 H   0  0  0  0  0  0  0  0  0  0  0  0
   23.3334   -9.2013    0.0000 H   0  0  0  0  0  0  0  0  0  0  0  0
  1  2  1  0
  2  3  1  0
  3  4  2  0
  4  5  1  0
  5  6  2  0
  6  7  1  0
  7  8  2  0
  7  9  1  0
  9 10  1  0
 10 11  1  0
 11 12  2  0
  9 13  1  0
 13 14  1  0
 14 15  2  0
 15 16  1  0
 16 17  2  0
 17 18  1  0
 16 19  1  0
 14 20  1  0
 20 21  1  0
 21 22  2  0
 22 23  1  0
 23 24  2  0
 24 25  1  0
 25 26  2  0
 25 27  1  0
  1 28  2  0
  1 29  1  0
 29 30  1  0
 30 31  1  0
 31 32  1  0
 32 33  1  0
 33 34  1  0
 34 35  1  0
 35 36  1  0
 36 37  1  0
 37 38  1  0
 38 39  1  0
 39 40  1  0
 40 41  2  0
 40 42  1  0
 42 43  1  0
 43 44  1  0
 44 45  2  0
 44 46  1  0
 46 47  1  0
 47 48  1  0
 47 49  1  0
 49 50  2  0
 49 51  1  0
 51 52  1  0
 52 53  1  0
 53 54  1  0
 54 55  2  0
 55 56  1  0
 56 57  2  0
 57 58  1  0
 58 59  2  0
 52 60  1  0
 60 61  2  0
 60 62  1  0
 63 62  1  6
 63 64  1  0
 64 65  1  0
 65 66  1  0
 66 67  1  0
 63 68  1  0
 63 69  1  0
 69 70  2  0
 69 71  1  0
 71 72  1  0
 72 73  1  0
 73 74  1  0
 74 75  1  0
 74 76  2  0
 72 77  1  0
 77 78  2  0
 77 79  1  0
 79 80  1  0
 80 81  1  0
 81 82  1  0
 82 83  1  0
 82 84  1  0
 80 85  1  0
 85 86  2  0
 85 87  1  0
 87 88  1  0
 88 89  1  0
 89 90  1  0
 90 91  2  0
 91 92  1  0
 92 93  2  0
 93 94  1  0
 94 95  2  0
 88 96  1  0
 96 97  2  0
 96 98  1  0
 98 99  1  0
 99100  1  0
100101  1  0
101102  1  0
102103  1  0
 99104  1  0
 99105  1  6
105106  2  0
105107  1  0
107108  1  0
108109  1  0
109110  1  0
108111  1  0
111112  2  0
111113  1  0
113114  1  0
114115  1  0
115116  1  0
114117  1  0
117118  2  0
117119  1  0
  8  3  1  0
 59 54  1  0
 95 90  1  0
 11  6  1  0
 67103  2  0
 18 13  2  0
 22  9  1  0
 26 21  1  0
  2120  1  0
  4121  1  0
  5122  1  0
  8123  1  0
 15124  1  0
 17125  1  0
 18126  1  0
 19127  1  0
 23128  1  0
 24129  1  0
 26130  1  0
 27131  1  0
 29132  1  0
 30133  1  0
 30134  1  0
 31135  1  0
 31136  1  0
 33137  1  0
 33138  1  0
 35139  1  0
 35140  1  0
 36141  1  0
 36142  1  0
 38143  1  0
 38144  1  0
 39145  1  0
 39146  1  0
 42147  1  0
 43148  1  0
 43149  1  0
 46150  1  0
 47151  1  6
 48152  1  0
 48153  1  0
 48154  1  0
 51155  1  0
 52156  1  1
 53157  1  0
 53158  1  0
 55159  1  0
 56160  1  0
 57161  1  0
 58162  1  0
 59163  1  0
 62164  1  0
 64165  1  0
 64166  1  0
 65167  1  0
 65168  1  0
 66169  1  0
 66170  1  0
 67171  1  0
 68172  1  0
 68173  1  0
 68174  1  0
 71175  1  0
 72176  1  1
 73177  1  0
 73178  1  0
 75179  1  0
 75180  1  0
 79181  1  0
 80182  1  1
 81183  1  0
 81184  1  0
 82185  1  0
 83186  1  0
 83187  1  0
 83188  1  0
 84189  1  0
 84190  1  0
 84191  1  0
 87192  1  0
 88193  1  1
 89194  1  0
 89195  1  0
 91196  1  0
 92197  1  0
 93198  1  0
 94199  1  0
 95200  1  0
 98201  1  0
100202  1  0
100203  1  0
101204  1  0
101205  1  0
102206  1  0
102207  1  0
103208  1  0
104209  1  0
104210  1  0
104211  1  0
107212  1  0
108213  1  6
109214  1  0
109215  1  0
110216  1  0
113217  1  0
114218  1  1
115219  1  0
115220  1  0
116221  1  0
116222  1  0
116223  1  0
119224  1  0
M  END
