
     RDKit          2D

303310  0  0  0  0  0  0  0  0999 V2000
   20.3879   -3.0457    0.0000 C   0  0  0  0  0  0  0  0  0  0  0  0
   21.7126   -2.3418    0.0000 N   0  0  0  0  0  0  0  0  0  0  0  0
   22.9844   -3.1371    0.0000 C   0  0  0  0  0  0  0  0  0  0  0  0
   22.9316   -4.6362    0.0000 C   0  0  0  0  0  0  0  0  0  0  0  0
   24.2035   -5.4314    0.0000 C   0  0  0  0  0  0  0  0  0  0  0  0
   25.5281   -4.7276    0.0000 C   0  0  0  0  0  0  0  0  0  0  0  0
   25.5809   -3.2285    0.0000 C   0  0  0  0  0  0  0  0  0  0  0  0
   24.3090   -2.4333    0.0000 C   0  0  0  0  0  0  0  0  0  0  0  0
   27.0229   -2.8155    0.0000 C   0  0  0  0  0  0  0  0  0  0  0  0
   27.8613   -4.0593    0.0000 O   0  0  0  0  0  0  0  0  0  0  0  0
   26.9375   -5.2410    0.0000 C   0  0  0  0  0  0  0  0  0  0  0  0
   27.3505   -6.6830    0.0000 O   0  0  0  0  0  0  0  0  0  0  0  0
   28.5002   -2.5554    0.0000 C   0  0  0  0  0  0  0  0  0  0  0  0
   29.0136   -1.1460    0.0000 C   0  0  0  0  0  0  0  0  0  0  0  0
   30.4909   -0.8860    0.0000 C   0  0  0  0  0  0  0  0  0  0  0  0
   31.4548   -2.0353    0.0000 C   0  0  0  0  0  0  0  0  0  0  0  0
   30.9413   -3.4447    0.0000 C   0  0  0  0  0  0  0  0  0  0  0  0
   29.4640   -3.7048    0.0000 C   0  0  0  0  0  0  0  0  0  0  0  0
   32.9320   -1.7753    0.0000 O   0  0  0  0  0  0  0  0  0  0  0  0
   28.0498    0.0033    0.0000 O   0  0  0  0  0  0  0  0  0  0  0  0
   26.5725   -0.2567    0.0000 C   0  0  0  0  0  0  0  0  0  0  0  0
   26.0590   -1.6661    0.0000 C   0  0  0  0  0  0  0  0  0  0  0  0
   24.8214   -1.2684    0.0000 C   0  0  0  0  0  0  0  0  0  0  0  0
   24.3073   -0.6555    0.0000 C   0  0  0  0  0  0  0  0  0  0  0  0
   24.5811    0.0962    0.0000 C   0  0  0  0  0  0  0  0  0  0  0  0
   25.3690    0.2349    0.0000 C   0  0  0  0  0  0  0  0  0  0  0  0
   23.1675    1.7819    0.0000 O   0  0  0  0  0  0  0  0  0  0  0  0
   20.3352   -4.5447    0.0000 S   0  0  0  0  0  0  0  0  0  0  0  0
   19.1161   -2.2504    0.0000 N   0  0  0  0  0  0  0  0  0  0  0  0
   17.7915   -2.9542    0.0000 C   0  0  0  0  0  0  0  0  0  0  0  0
   16.5196   -2.1590    0.0000 C   0  0  0  0  0  0  0  0  0  0  0  0
   15.1950   -2.8628    0.0000 C   0  0  0  0  0  0  0  0  0  0  0  0
   15.3606   -3.6426    0.0000 O   0  0  0  0  0  0  0  0  0  0  0  0
   13.9232   -2.0676    0.0000 N   0  0  0  0  0  0  0  0  0  0  0  0
   12.5985   -2.7714    0.0000 C   0  0  0  0  0  0  0  0  0  0  0  0
   13.5217   -3.9537    0.0000 C   0  0  0  0  0  0  0  0  0  0  0  0
   15.0072   -3.7454    0.0000 C   0  0  0  0  0  0  0  0  0  0  0  0
   15.9303   -4.9276    0.0000 N   0  0  0  0  0  0  0  0  0  0  0  0
   15.8893   -2.5321    0.0000 O   0  0  0  0  0  0  0  0  0  0  0  0
   11.1131   -2.9797    0.0000 C   0  0  0  0  0  0  0  0  0  0  0  0
   10.9040   -4.4651    0.0000 O   0  0  0  0  0  0  0  0  0  0  0  0
   10.1899   -1.7975    0.0000 N   0  0  0  0  0  0  0  0  0  0  0  0
    8.7045   -2.0058    0.0000 C   0  0  0  0  0  0  0  0  0  0  0  0
    9.1676   -3.4325    0.0000 C   0  0  0  0  0  0  0  0  0  0  0  0
   10.6347   -3.7448    0.0000 C   0  0  0  0  0  0  0  0  0  0  0  0
   11.0978   -5.1715    0.0000 C   0  0  0  0  0  0  0  0  0  0  0  0
   12.5160   -5.6603    0.0000 N   0  0  0  0  0  0  0  0  0  0  0  0
   10.0938   -6.2860    0.0000 O   0  0  0  0  0  0  0  0  0  0  0  0
    7.2373   -1.6935    0.0000 C   0  0  0  0  0  0  0  0  0  0  0  0
    6.5328   -3.0178    0.0000 O   0  0  0  0  0  0  0  0  0  0  0  0
    6.7742   -0.2668    0.0000 N   0  0  0  0  0  0  0  0  0  0  0  0
    5.3071    0.0455    0.0000 C   0  0  0  0  0  0  0  0  0  0  0  0
    5.2543   -1.4536    0.0000 C   0  0  0  0  0  0  0  0  0  0  0  0
    6.5262   -2.2488    0.0000 C   0  0  0  0  0  0  0  0  0  0  0  0
    6.4734   -3.7479    0.0000 C   0  0  0  0  0  0  0  0  0  0  0  0
    7.9933   -2.5611    0.0000 C   0  0  0  0  0  0  0  0  0  0  0  0
    4.0352    0.8407    0.0000 C   0  0  0  0  0  0  0  0  0  0  0  0
    2.9203   -0.1627    0.0000 O   0  0  0  0  0  0  0  0  0  0  0  0
    4.0880    2.3398    0.0000 N   0  0  0  0  0  0  0  0  0  0  0  0
    2.8162    3.1351    0.0000 C   0  0  0  0  0  0  0  0  0  0  0  0
    2.6684    1.6423    0.0000 C   0  0  0  0  0  0  0  0  0  0  0  0
    2.2409    0.2046    0.0000 C   0  0  0  0  0  0  0  0  0  0  0  0
    1.5489   -1.1263    0.0000 C   0  0  0  0  0  0  0  0  0  0  0  0
    0.6176   -2.3022    0.0000 C   0  0  0  0  0  0  0  0  0  0  0  0
   -0.5194   -3.2805    0.0000 C   0  0  0  0  0  0  0  0  0  0  0  0
   -1.8210   -4.0260    0.0000 C   0  0  0  0  0  0  0  0  0  0  0  0
   -3.2402   -4.5117    0.0000 C   0  0  0  0  0  0  0  0  0  0  0  0
    4.0935    3.9215    0.0000 C   0  0  0  0  0  0  0  0  0  0  0  0
    2.6788    4.6287    0.0000 C   0  0  0  0  0  0  0  0  0  0  0  0
    4.1077    5.0851    0.0000 O   0  0  0  0  0  0  0  0  0  0  0  0
    2.2611    6.0694    0.0000 N   0  0  0  0  0  0  0  0  0  0  0  0
    1.5784    7.4051    0.0000 C   0  0  0  0  0  0  0  0  0  0  0  0
    2.2278    8.7572    0.0000 C   0  0  0  0  0  0  0  0  0  0  0  0
    3.7235    8.8709    0.0000 C   0  0  0  0  0  0  0  0  0  0  0  0
    4.5698    7.6325    0.0000 C   0  0  0  0  0  0  0  0  0  0  0  0
    6.0655    7.7462    0.0000 C   0  0  0  0  0  0  0  0  0  0  0  0
    6.7149    9.0983    0.0000 C   0  0  0  0  0  0  0  0  0  0  0  0
    5.8685   10.3368    0.0000 C   0  0  0  0  0  0  0  0  0  0  0  0
    4.3729   10.2231    0.0000 C   0  0  0  0  0  0  0  0  0  0  0  0
    0.6553    8.5873    0.0000 C   0  0  0  0  0  0  0  0  0  0  0  0
    1.6106    9.7438    0.0000 O   0  0  0  0  0  0  0  0  0  0  0  0
   -0.4749    9.5736    0.0000 N   0  0  0  0  0  0  0  0  0  0  0  0
   -1.7714   10.3280    0.0000 C   0  0  0  0  0  0  0  0  0  0  0  0
   -1.9561   11.8166    0.0000 C   0  0  0  0  0  0  0  0  0  0  0  0
   -0.7593   12.7209    0.0000 O   0  0  0  0  0  0  0  0  0  0  0  0
   -3.1872   10.8235    0.0000 C   0  0  0  0  0  0  0  0  0  0  0  0
   -3.0087   12.3129    0.0000 O   0  0  0  0  0  0  0  0  0  0  0  0
   -4.6712   11.0422    0.0000 N   0  0  0  0  0  0  0  0  0  0  0  0
   -6.1697   10.9760    0.0000 C   0  0  0  0  0  0  0  0  0  0  0  0
   -7.1299   12.1284    0.0000 C   0  0  0  0  0  0  0  0  0  0  0  0
   -6.6120   13.5361    0.0000 C   0  0  0  0  0  0  0  0  0  0  0  0
   -7.5722   14.6885    0.0000 C   0  0  0  0  0  0  0  0  0  0  0  0
   -7.0543   16.0963    0.0000 N   0  0  0  0  0  0  0  0  0  0  0  0
   -8.0145   17.2487    0.0000 C   0  0  0  0  0  0  0  0  0  0  0  0
   -7.4966   18.6564    0.0000 N   0  0  0  0  0  0  0  0  0  0  0  0
   -9.4926   16.9933    0.0000 N   0  0  0  0  0  0  0  0  0  0  0  0
   -7.6286   10.6274    0.0000 C   0  0  0  0  0  0  0  0  0  0  0  0
   -8.2837   11.9768    0.0000 O   0  0  0  0  0  0  0  0  0  0  0  0
   -8.9952   10.0090    0.0000 N   0  0  0  0  0  0  0  0  0  0  0  0
  -10.2201    9.1431    0.0000 C   0  0  0  0  0  0  0  0  0  0  0  0
  -11.6509    9.5935    0.0000 C   0  0  0  0  0  0  0  0  0  0  0  0
  -11.9763   11.0577    0.0000 C   0  0  0  0  0  0  0  0  0  0  0  0
  -10.8709   12.0717    0.0000 C   0  0  0  0  0  0  0  0  0  0  0  0
  -11.1963   13.5360    0.0000 C   0  0  0  0  0  0  0  0  0  0  0  0
  -12.6271   13.9863    0.0000 C   0  0  0  0  0  0  0  0  0  0  0  0
  -13.7325   12.9724    0.0000 C   0  0  0  0  0  0  0  0  0  0  0  0
  -13.4071   11.5081    0.0000 C   0  0  0  0  0  0  0  0  0  0  0  0
  -11.2590    8.0611    0.0000 C   0  0  0  0  0  0  0  0  0  0  0  0
  -12.5396    8.8421    0.0000 O   0  0  0  0  0  0  0  0  0  0  0  0
  -12.0743    6.8020    0.0000 N   0  0  0  0  0  0  0  0  0  0  0  0
  -12.6366    5.4114    0.0000 C   0  0  0  0  0  0  0  0  0  0  0  0
  -14.0837    5.0167    0.0000 C   0  0  0  0  0  0  0  0  0  0  0  0
  -12.9256    3.9395    0.0000 C   0  0  0  0  0  0  0  0  0  0  0  0
  -14.4252    3.9042    0.0000 O   0  0  0  0  0  0  0  0  0  0  0  0
  -12.9308    2.4395    0.0000 N   0  0  0  0  0  0  0  0  0  0  0  0
  -12.6520    0.9657    0.0000 C   0  0  0  0  0  0  0  0  0  0  0  0
  -13.6560   -0.1488    0.0000 C   0  0  0  0  0  0  0  0  0  0  0  0
  -15.1231    0.1635    0.0000 C   0  0  0  0  0  0  0  0  0  0  0  0
  -16.1271   -0.9509    0.0000 C   0  0  0  0  0  0  0  0  0  0  0  0
  -16.3950    0.9588    0.0000 C   0  0  0  0  0  0  0  0  0  0  0  0
  -12.0993   -0.4288    0.0000 C   0  0  0  0  0  0  0  0  0  0  0  0
  -13.3417   -1.2692    0.0000 O   0  0  0  0  0  0  0  0  0  0  0  0
  -11.2927   -1.6935    0.0000 N   0  0  0  0  0  0  0  0  0  0  0  0
  -10.2614   -2.7827    0.0000 C   0  0  0  0  0  0  0  0  0  0  0  0
   -9.0425   -3.6570    0.0000 C   0  0  0  0  0  0  0  0  0  0  0  0
   -7.6802   -4.2848    0.0000 C   0  0  0  0  0  0  0  0  0  0  0  0
   -6.2237   -4.6435    0.0000 C   0  0  0  0  0  0  0  0  0  0  0  0
   -4.7257   -4.7200    0.0000 C   0  0  0  0  0  0  0  0  0  0  0  0
  -11.6952   -3.2231    0.0000 C   0  0  0  0  0  0  0  0  0  0  0  0
  -10.5035   -4.2630    0.0000 C   0  0  0  0  0  0  0  0  0  0  0  0
   -9.6069   -5.4655    0.0000 O   0  0  0  0  0  0  0  0  0  0  0  0
  -11.9066   -4.7935    0.0000 N   0  0  0  0  0  0  0  0  0  0  0  0
  -12.1487   -6.2738    0.0000 C   0  0  0  0  0  0  0  0  0  0  0  0
  -11.8699   -7.7477    0.0000 C   0  0  0  0  0  0  0  0  0  0  0  0
  -13.0069   -8.7260    0.0000 C   0  0  0  0  0  0  0  0  0  0  0  0
  -12.7281  -10.1999    0.0000 O   0  0  0  0  0  0  0  0  0  0  0  0
  -14.5005   -8.5878    0.0000 O   0  0  0  0  0  0  0  0  0  0  0  0
  -13.5517   -6.8043    0.0000 C   0  0  0  0  0  0  0  0  0  0  0  0
  -14.7127   -5.8544    0.0000 O   0  0  0  0  0  0  0  0  0  0  0  0
  -13.7939   -8.2846    0.0000 N   0  0  0  0  0  0  0  0  0  0  0  0
  -15.1969   -8.8151    0.0000 C   0  0  0  0  0  0  0  0  0  0  0  0
  -16.6968   -8.8337    0.0000 C   0  0  0  0  0  0  0  0  0  0  0  0
  -17.4306  -10.1419    0.0000 C   0  0  0  0  0  0  0  0  0  0  0  0
  -18.9305  -10.1605    0.0000 C   0  0  0  0  0  0  0  0  0  0  0  0
  -19.8184  -11.3696    0.0000 N   0  0  0  0  0  0  0  0  0  0  0  0
  -19.6966   -8.8709    0.0000 O   0  0  0  0  0  0  0  0  0  0  0  0
  -15.4391  -10.2954    0.0000 C   0  0  0  0  0  0  0  0  0  0  0  0
  -14.2781  -11.2453    0.0000 O   0  0  0  0  0  0  0  0  0  0  0  0
  -16.8421  -10.8259    0.0000 N   0  0  0  0  0  0  0  0  0  0  0  0
  -17.0843  -12.3062    0.0000 C   0  0  0  0  0  0  0  0  0  0  0  0
  -16.8055  -13.7801    0.0000 C   0  0  0  0  0  0  0  0  0  0  0  0
  -17.9425  -14.7584    0.0000 C   0  0  0  0  0  0  0  0  0  0  0  0
  -16.0394  -15.0697    0.0000 C   0  0  0  0  0  0  0  0  0  0  0  0
  -14.5395  -15.0511    0.0000 C   0  0  0  0  0  0  0  0  0  0  0  0
  -18.4873  -12.8367    0.0000 C   0  0  0  0  0  0  0  0  0  0  0  0
  -18.9081  -14.2765    0.0000 O   0  0  0  0  0  0  0  0  0  0  0  0
  -19.7554  -12.0354    0.0000 O   0  0  0  0  0  0  0  0  0  0  0  0
   21.5822   -0.8475    0.0000 H   0  0  0  0  0  0  0  0  0  0  0  0
   21.6070   -5.3400    0.0000 H   0  0  0  0  0  0  0  0  0  0  0  0
   24.1507   -6.9305    0.0000 H   0  0  0  0  0  0  0  0  0  0  0  0
   23.9975   -0.9660    0.0000 H   0  0  0  0  0  0  0  0  0  0  0  0
   31.0043    0.5234    0.0000 H   0  0  0  0  0  0  0  0  0  0  0  0
   31.9052   -4.5940    0.0000 H   0  0  0  0  0  0  0  0  0  0  0  0
   28.9506   -5.1141    0.0000 H   0  0  0  0  0  0  0  0  0  0  0  0
   33.8959   -2.9246    0.0000 H   0  0  0  0  0  0  0  0  0  0  0  0
   24.0683   -3.3356    0.0000 H   0  0  0  0  0  0  0  0  0  0  0  0
   22.1199   -0.8549    0.0000 H   0  0  0  0  0  0  0  0  0  0  0  0
   26.1221    2.3020    0.0000 H   0  0  0  0  0  0  0  0  0  0  0  0
   23.6809    3.1913    0.0000 H   0  0  0  0  0  0  0  0  0  0  0  0
   19.1689   -0.7513    0.0000 H   0  0  0  0  0  0  0  0  0  0  0  0
   18.7146   -4.1365    0.0000 H   0  0  0  0  0  0  0  0  0  0  0  0
   16.9308   -4.1828    0.0000 H   0  0  0  0  0  0  0  0  0  0  0  0
   17.5237   -1.0446    0.0000 H   0  0  0  0  0  0  0  0  0  0  0  0
   15.5965   -0.9767    0.0000 H   0  0  0  0  0  0  0  0  0  0  0  0
   13.9759   -0.5685    0.0000 H   0  0  0  0  0  0  0  0  0  0  0  0
   12.1354   -1.3447    0.0000 H   0  0  0  0  0  0  0  0  0  0  0  0
   13.9848   -5.3804    0.0000 H   0  0  0  0  0  0  0  0  0  0  0  0
   12.2927   -4.8137    0.0000 H   0  0  0  0  0  0  0  0  0  0  0  0
   17.4301   -4.9019    0.0000 H   0  0  0  0  0  0  0  0  0  0  0  0
   15.3680   -6.3183    0.0000 H   0  0  0  0  0  0  0  0  0  0  0  0
   10.7522   -0.4069    0.0000 H   0  0  0  0  0  0  0  0  0  0  0  0
    8.9396   -0.5243    0.0000 H   0  0  0  0  0  0  0  0  0  0  0  0
    9.1148   -4.9316    0.0000 H   0  0  0  0  0  0  0  0  0  0  0  0
    7.7767   -3.9941    0.0000 H   0  0  0  0  0  0  0  0  0  0  0  0
   12.1202   -3.5365    0.0000 H   0  0  0  0  0  0  0  0  0  0  0  0
   11.0487   -2.3031    0.0000 H   0  0  0  0  0  0  0  0  0  0  0  0
   13.0281   -6.9105    0.0000 H   0  0  0  0  0  0  0  0  0  0  0  0
   13.8501   -4.6626    0.0000 H   0  0  0  0  0  0  0  0  0  0  0  0
    7.7782    0.8476    0.0000 H   0  0  0  0  0  0  0  0  0  0  0  0
    5.8694    1.4361    0.0000 H   0  0  0  0  0  0  0  0  0  0  0  0
    4.5267   -2.7653    0.0000 H   0  0  0  0  0  0  0  0  0  0  0  0
    3.7872   -1.1413    0.0000 H   0  0  0  0  0  0  0  0  0  0  0  0
    7.4082   -1.0356    0.0000 H   0  0  0  0  0  0  0  0  0  0  0  0
    7.5150   -4.8273    0.0000 H   0  0  0  0  0  0  0  0  0  0  0  0
    5.9111   -5.1385    0.0000 H   0  0  0  0  0  0  0  0  0  0  0  0
    4.9791   -3.6168    0.0000 H   0  0  0  0  0  0  0  0  0  0  0  0
    8.4564   -3.9878    0.0000 H   0  0  0  0  0  0  0  0  0  0  0  0
    9.4850   -2.7184    0.0000 H   0  0  0  0  0  0  0  0  0  0  0  0
    7.8629   -1.0668    0.0000 H   0  0  0  0  0  0  0  0  0  0  0  0
    5.4886    2.8769    0.0000 H   0  0  0  0  0  0  0  0  0  0  0  0
    4.1582    1.8176    0.0000 H   0  0  0  0  0  0  0  0  0  0  0  0
    3.6341    0.4945    0.0000 H   0  0  0  0  0  0  0  0  0  0  0  0
    3.7123   -0.0868    0.0000 H   0  0  0  0  0  0  0  0  0  0  0  0
    3.1260   -1.0064    0.0000 H   0  0  0  0  0  0  0  0  0  0  0  0
    3.0486   -1.1553    0.0000 H   0  0  0  0  0  0  0  0  0  0  0  0
    2.3495   -2.3948    0.0000 H   0  0  0  0  0  0  0  0  0  0  0  0
    2.0357   -2.7909    0.0000 H   0  0  0  0  0  0  0  0  0  0  0  0
    1.1637   -3.6992    0.0000 H   0  0  0  0  0  0  0  0  0  0  0  0
    0.7806   -4.0289    0.0000 H   0  0  0  0  0  0  0  0  0  0  0  0
   -0.2476   -4.7557    0.0000 H   0  0  0  0  0  0  0  0  0  0  0  0
   -0.6862   -5.0069    0.0000 H   0  0  0  0  0  0  0  0  0  0  0  0
   -2.0161   -5.5133    0.0000 H   0  0  0  0  0  0  0  0  0  0  0  0
   -2.8916   -5.9706    0.0000 H   0  0  0  0  0  0  0  0  0  0  0  0
    5.4903    3.3747    0.0000 H   0  0  0  0  0  0  0  0  0  0  0  0
    5.1612    4.9750    0.0000 H   0  0  0  0  0  0  0  0  0  0  0  0
    3.3982    5.2506    0.0000 H   0  0  0  0  0  0  0  0  0  0  0  0
    3.7126    6.4480    0.0000 H   0  0  0  0  0  0  0  0  0  0  0  0
    3.0783    7.4237    0.0000 H   0  0  0  0  0  0  0  0  0  0  0  0
    2.5564   10.2208    0.0000 H   0  0  0  0  0  0  0  0  0  0  0  0
    0.9243    9.4994    0.0000 H   0  0  0  0  0  0  0  0  0  0  0  0
    4.0901    6.2112    0.0000 H   0  0  0  0  0  0  0  0  0  0  0  0
    6.9118    6.5077    0.0000 H   0  0  0  0  0  0  0  0  0  0  0  0
    8.2105    9.2120    0.0000 H   0  0  0  0  0  0  0  0  0  0  0  0
    6.5179   11.6889    0.0000 H   0  0  0  0  0  0  0  0  0  0  0  0
    3.5266   11.4615    0.0000 H   0  0  0  0  0  0  0  0  0  0  0  0
    0.3994   10.7924    0.0000 H   0  0  0  0  0  0  0  0  0  0  0  0
   -0.5197   11.1546    0.0000 H   0  0  0  0  0  0  0  0  0  0  0  0
   -2.4709   13.2255    0.0000 H   0  0  0  0  0  0  0  0  0  0  0  0
   -3.4540   11.7363    0.0000 H   0  0  0  0  0  0  0  0  0  0  0  0
   -0.9441   14.2095    0.0000 H   0  0  0  0  0  0  0  0  0  0  0  0
   -4.4126   12.5197    0.0000 H   0  0  0  0  0  0  0  0  0  0  0  0
   -5.4008   12.2639    0.0000 H   0  0  0  0  0  0  0  0  0  0  0  0
   -8.4263   12.8829    0.0000 H   0  0  0  0  0  0  0  0  0  0  0  0
   -8.3465   11.2510    0.0000 H   0  0  0  0  0  0  0  0  0  0  0  0
   -5.6438   14.6818    0.0000 H   0  0  0  0  0  0  0  0  0  0  0  0
   -5.1715   13.1178    0.0000 H   0  0  0  0  0  0  0  0  0  0  0  0
   -8.8686   15.4430    0.0000 H   0  0  0  0  0  0  0  0  0  0  0  0
   -8.6728   13.6693    0.0000 H   0  0  0  0  0  0  0  0  0  0  0  0
   -5.5762   16.3516    0.0000 H   0  0  0  0  0  0  0  0  0  0  0  0
   -8.4568   19.8088    0.0000 H   0  0  0  0  0  0  0  0  0  0  0  0
  -10.4528   18.1457    0.0000 H   0  0  0  0  0  0  0  0  0  0  0  0
  -10.0105   15.5856    0.0000 H   0  0  0  0  0  0  0  0  0  0  0  0
   -9.5765   11.3918    0.0000 H   0  0  0  0  0  0  0  0  0  0  0  0
  -10.4520   10.6251    0.0000 H   0  0  0  0  0  0  0  0  0  0  0  0
  -13.1463    9.7104    0.0000 H   0  0  0  0  0  0  0  0  0  0  0  0
  -12.2000    8.1976    0.0000 H   0  0  0  0  0  0  0  0  0  0  0  0
   -9.3959   11.7991    0.0000 H   0  0  0  0  0  0  0  0  0  0  0  0
  -10.0909   14.5499    0.0000 H   0  0  0  0  0  0  0  0  0  0  0  0
  -12.9525   15.4506    0.0000 H   0  0  0  0  0  0  0  0  0  0  0  0
  -15.1633   13.4227    0.0000 H   0  0  0  0  0  0  0  0  0  0  0  0
  -14.5125   10.4941    0.0000 H   0  0  0  0  0  0  0  0  0  0  0  0
  -13.4052    7.4940    0.0000 H   0  0  0  0  0  0  0  0  0  0  0  0
  -13.6329    6.5328    0.0000 H   0  0  0  0  0  0  0  0  0  0  0  0
  -15.1491    6.0726    0.0000 H   0  0  0  0  0  0  0  0  0  0  0  0
  -15.4050    4.3066    0.0000 H   0  0  0  0  0  0  0  0  0  0  0  0
  -13.7910    3.5456    0.0000 H   0  0  0  0  0  0  0  0  0  0  0  0
  -14.4301    2.4852    0.0000 H   0  0  0  0  0  0  0  0  0  0  0  0
  -14.0362    1.5434    0.0000 H   0  0  0  0  0  0  0  0  0  0  0  0
  -14.2183   -1.5394    0.0000 H   0  0  0  0  0  0  0  0  0  0  0  0
  -12.6144   -1.2281    0.0000 H   0  0  0  0  0  0  0  0  0  0  0  0
  -14.9140    1.6489    0.0000 H   0  0  0  0  0  0  0  0  0  0  0  0
  -17.6214   -0.8198    0.0000 H   0  0  0  0  0  0  0  0  0  0  0  0
  -16.6895   -2.3415    0.0000 H   0  0  0  0  0  0  0  0  0  0  0  0
  -14.9617   -1.8952    0.0000 H   0  0  0  0  0  0  0  0  0  0  0  0
  -17.7955    0.4217    0.0000 H   0  0  0  0  0  0  0  0  0  0  0  0
  -17.3181    2.1411    0.0000 H   0  0  0  0  0  0  0  0  0  0  0  0
  -15.3910    2.0732    0.0000 H   0  0  0  0  0  0  0  0  0  0  0  0
  -12.5787   -2.4656    0.0000 H   0  0  0  0  0  0  0  0  0  0  0  0
   -9.0001   -5.1564    0.0000 H   0  0  0  0  0  0  0  0  0  0  0  0
  -10.1575   -4.6604    0.0000 H   0  0  0  0  0  0  0  0  0  0  0  0
   -7.5357   -5.7778    0.0000 H   0  0  0  0  0  0  0  0  0  0  0  0
   -8.5851   -5.4811    0.0000 H   0  0  0  0  0  0  0  0  0  0  0  0
   -5.6271   -6.0197    0.0000 H   0  0  0  0  0  0  0  0  0  0  0  0
   -7.0450   -5.8987    0.0000 H   0  0  0  0  0  0  0  0  0  0  0  0
   -4.6595   -6.2186    0.0000 H   0  0  0  0  0  0  0  0  0  0  0  0
  -12.3746   -4.5604    0.0000 H   0  0  0  0  0  0  0  0  0  0  0  0
  -13.1933   -3.1465    0.0000 H   0  0  0  0  0  0  0  0  0  0  0  0
  -12.2347   -1.8234    0.0000 H   0  0  0  0  0  0  0  0  0  0  0  0
  -13.1746   -3.9922    0.0000 H   0  0  0  0  0  0  0  0  0  0  0  0
  -10.6488   -6.2552    0.0000 H   0  0  0  0  0  0  0  0  0  0  0  0
  -11.1038   -9.0373    0.0000 H   0  0  0  0  0  0  0  0  0  0  0  0
  -10.4668   -7.2172    0.0000 H   0  0  0  0  0  0  0  0  0  0  0  0
  -15.6785   -8.9341    0.0000 H   0  0  0  0  0  0  0  0  0  0  0  0
  -12.8973   -9.4871    0.0000 H   0  0  0  0  0  0  0  0  0  0  0  0
  -15.4757   -7.3412    0.0000 H   0  0  0  0  0  0  0  0  0  0  0  0
  -18.1126   -8.3382    0.0000 H   0  0  0  0  0  0  0  0  0  0  0  0
  -16.4547   -7.3534    0.0000 H   0  0  0  0  0  0  0  0  0  0  0  0
  -17.6728  -11.6223    0.0000 H   0  0  0  0  0  0  0  0  0  0  0  0
  -16.4133  -11.2442    0.0000 H   0  0  0  0  0  0  0  0  0  0  0  0
  -21.1642  -11.4874    0.0000 H   0  0  0  0  0  0  0  0  0  0  0  0
  -19.4573  -12.9959    0.0000 H   0  0  0  0  0  0  0  0  0  0  0  0
  -18.1984  -10.1852    0.0000 H   0  0  0  0  0  0  0  0  0  0  0  0
  -15.5844  -12.2876    0.0000 H   0  0  0  0  0  0  0  0  0  0  0  0
  -15.4775  -13.0825    0.0000 H   0  0  0  0  0  0  0  0  0  0  0  0
  -17.8455  -16.2553    0.0000 H   0  0  0  0  0  0  0  0  0  0  0  0
  -19.3456  -15.2889    0.0000 H   0  0  0  0  0  0  0  0  0  0  0  0
  -19.2244  -13.9795    0.0000 H   0  0  0  0  0  0  0  0  0  0  0  0
  -15.7606  -16.5436    0.0000 H   0  0  0  0  0  0  0  0  0  0  0  0
  -17.3674  -15.7673    0.0000 H   0  0  0  0  0  0  0  0  0  0  0  0
  -13.7735  -16.3407    0.0000 H   0  0  0  0  0  0  0  0  0  0  0  0
  -13.1365  -14.5206    0.0000 H   0  0  0  0  0  0  0  0  0  0  0  0
  -14.6366  -13.5542    0.0000 H   0  0  0  0  0  0  0  0  0  0  0  0
  -21.0513  -12.4173    0.0000 H   0  0  0  0  0  0  0  0  0  0  0  0
  1  2  1  0
  2  3  1  0
  3  4  2  0
  4  5  1  0
  5  6  2  0
  6  7  1  0
  7  8  2  0
  7  9  1  0
  9 10  1  0
 10 11  1  0
 11 12  2  0
  9 13  1  0
 13 14  1  0
 14 15  2  0
 15 16  1  0
 16 17  2  0
 17 18  1  0
 16 19  1  0
 14 20  1  0
 20 21  1  0
 21 22  2  0
 22 23  1  0
 23 24  2  0
 24 25  1  0
 25 26  2  0
 25 27  1  0
  1 28  2  0
  1 29  1  0
 29 30  1  0
 30 31  1  0
 31 32  1  0
 32 33  2  0
 32 34  1  0
 34 35  1  0
 35 36  1  0
 36 37  1  0
 37 38  1  0
 37 39  2  0
 35 40  1  0
 40 41  2  0
 40 42  1  0
 42 43  1  0
 43 44  1  0
 44 45  1  0
 45 46  1  0
 46 47  1  0
 46 48  2  0
 43 49  1  0
 49 50  2  0
 49 51  1  0
 51 52  1  0
 52 53  1  0
 53 54  1  0
 54 55  1  0
 54 56  1  0
 52 57  1  0
 57 58  2  0
 57 59  1  0
 60 59  1  6
 60 61  1  0
 61 62  1  0
 62 63  1  0
 63 64  1  0
 64 65  1  0
 65 66  1  0
 66 67  1  0
 60 68  1  0
 60 69  1  0
 69 70  2  0
 69 71  1  0
 71 72  1  0
 72 73  1  0
 73 74  1  0
 74 75  2  0
 75 76  1  0
 76 77  2  0
 77 78  1  0
 78 79  2  0
 72 80  1  0
 80 81  2  0
 80 82  1  0
 82 83  1  0
 83 84  1  0
 84 85  1  0
 83 86  1  0
 86 87  2  0
 86 88  1  0
 88 89  1  0
 89 90  1  0
 90 91  1  0
 91 92  1  0
 92 93  1  0
 93 94  1  0
 94 95  2  3
 94 96  1  0
 89 97  1  0
 97 98  2  0
 97 99  1  0
 99100  1  0
100101  1  0
101102  1  0
102103  2  0
103104  1  0
104105  2  0
105106  1  0
106107  2  0
100108  1  0
108109  2  0
108110  1  0
110111  1  0
111112  1  0
111113  1  0
113114  2  0
113115  1  0
115116  1  0
116117  1  0
117118  1  0
118119  1  0
118120  1  0
116121  1  0
121122  2  0
121123  1  0
123124  1  0
124125  1  0
125126  1  0
126127  1  0
127128  1  0
124129  1  0
124130  1  1
130131  2  0
130132  1  0
132133  1  0
133134  1  0
134135  1  0
135136  2  0
135137  1  0
133138  1  0
138139  2  0
138140  1  0
140141  1  0
141142  1  0
142143  1  0
143144  1  0
144145  1  0
144146  2  0
141147  1  0
147148  2  0
147149  1  0
149150  1  0
150151  1  0
151152  1  0
151153  1  0
153154  1  0
150155  1  0
155156  2  0
155157  1  0
  8  3  1  0
 79 74  1  0
107102  1  0
 11  6  1  0
 67128  2  0
 18 13  2  0
 22  9  1  0
 26 21  1  0
  2158  1  0
  4159  1  0
  5160  1  0
  8161  1  0
 15162  1  0
 17163  1  0
 18164  1  0
 19165  1  0
 23166  1  0
 24167  1  0
 26168  1  0
 27169  1  0
 29170  1  0
 30171  1  0
 30172  1  0
 31173  1  0
 31174  1  0
 34175  1  0
 35176  1  1
 36177  1  0
 36178  1  0
 38179  1  0
 38180  1  0
 42181  1  0
 43182  1  1
 44183  1  0
 44184  1  0
 45185  1  0
 45186  1  0
 47187  1  0
 47188  1  0
 51189  1  0
 52190  1  1
 53191  1  0
 53192  1  0
 54193  1  0
 55194  1  0
 55195  1  0
 55196  1  0
 56197  1  0
 56198  1  0
 56199  1  0
 59200  1  0
 61201  1  0
 61202  1  0
 62203  1  0
 62204  1  0
 63205  1  0
 63206  1  0
 64207  1  0
 64208  1  0
 65209  1  0
 65210  1  0
 66211  1  0
 66212  1  0
 67213  1  0
 68214  1  0
 68215  1  0
 68216  1  0
 71217  1  0
 72218  1  6
 73219  1  0
 73220  1  0
 75221  1  0
 76222  1  0
 77223  1  0
 78224  1  0
 79225  1  0
 82226  1  0
 83227  1  6
 84228  1  0
 84229  1  0
 85230  1  0
 88231  1  0
 89232  1  6
 90233  1  0
 90234  1  0
 91235  1  0
 91236  1  0
 92237  1  0
 92238  1  0
 93239  1  0
 95240  1  0
 96241  1  0
 96242  1  0
 99243  1  0
100244  1  6
101245  1  0
101246  1  0
103247  1  0
104248  1  0
105249  1  0
106250  1  0
107251  1  0
110252  1  0
111253  1  6
112254  1  0
112255  1  0
112256  1  0
115257  1  0
116258  1  6
117259  1  0
117260  1  0
118261  1  0
119262  1  0
119263  1  0
119264  1  0
120265  1  0
120266  1  0
120267  1  0
123268  1  0
125269  1  0
125270  1  0
126271  1  0
126272  1  0
127273  1  0
127274  1  0
128275  1  0
129276  1  0
129277  1  0
129278  1  0
132279  1  0
133280  1  1
134281  1  0
134282  1  0
137283  1  0
140284  1  0
141285  1  6
142286  1  0
142287  1  0
143288  1  0
143289  1  0
145290  1  0
145291  1  0
149292  1  0
150293  1  1
151294  1  1
152295  1  0
152296  1  0
152297  1  0
153298  1  0
153299  1  0
154300  1  0
154301  1  0
154302  1  0
157303  1  0
M  END
