
     RDKit          2D

337344  0  0  0  0  0  0  0  0999 V2000
  -29.1486   -0.4228    0.0000 C   0  0  0  0  0  0  0  0  0  0  0  0
  -30.3947   -1.2578    0.0000 N   0  0  0  0  0  0  0  0  0  0  0  0
  -31.7409   -0.5962    0.0000 C   0  0  0  0  0  0  0  0  0  0  0  0
  -31.8410    0.9004    0.0000 C   0  0  0  0  0  0  0  0  0  0  0  0
  -33.1872    1.5620    0.0000 C   0  0  0  0  0  0  0  0  0  0  0  0
  -34.4333    0.7269    0.0000 C   0  0  0  0  0  0  0  0  0  0  0  0
  -34.3331   -0.7697    0.0000 C   0  0  0  0  0  0  0  0  0  0  0  0
  -32.9869   -1.4313    0.0000 C   0  0  0  0  0  0  0  0  0  0  0  0
  -35.7256   -1.3274    0.0000 C   0  0  0  0  0  0  0  0  0  0  0  0
  -36.6863   -0.1755    0.0000 O   0  0  0  0  0  0  0  0  0  0  0  0
  -35.8876    1.0942    0.0000 C   0  0  0  0  0  0  0  0  0  0  0  0
  -36.4454    2.4866    0.0000 O   0  0  0  0  0  0  0  0  0  0  0  0
  -37.1687   -1.7366    0.0000 C   0  0  0  0  0  0  0  0  0  0  0  0
  -37.5360   -3.1909    0.0000 C   0  0  0  0  0  0  0  0  0  0  0  0
  -38.9791   -3.6001    0.0000 C   0  0  0  0  0  0  0  0  0  0  0  0
  -40.0550   -2.5548    0.0000 C   0  0  0  0  0  0  0  0  0  0  0  0
  -39.6877   -1.1005    0.0000 C   0  0  0  0  0  0  0  0  0  0  0  0
  -38.2446   -0.6914    0.0000 C   0  0  0  0  0  0  0  0  0  0  0  0
  -41.4981   -2.9640    0.0000 O   0  0  0  0  0  0  0  0  0  0  0  0
  -36.4601   -4.2361    0.0000 O   0  0  0  0  0  0  0  0  0  0  0  0
  -35.0170   -3.8270    0.0000 C   0  0  0  0  0  0  0  0  0  0  0  0
  -34.6497   -2.3727    0.0000 C   0  0  0  0  0  0  0  0  0  0  0  0
  -33.3780   -2.6422    0.0000 C   0  0  0  0  0  0  0  0  0  0  0  0
  -32.8042   -3.1997    0.0000 C   0  0  0  0  0  0  0  0  0  0  0  0
  -33.0000   -3.9753    0.0000 C   0  0  0  0  0  0  0  0  0  0  0  0
  -33.7697   -4.1935    0.0000 C   0  0  0  0  0  0  0  0  0  0  0  0
  -31.4221   -5.5083    0.0000 O   0  0  0  0  0  0  0  0  0  0  0  0
  -29.2487    1.0739    0.0000 S   0  0  0  0  0  0  0  0  0  0  0  0
  -27.8024   -1.0844    0.0000 N   0  0  0  0  0  0  0  0  0  0  0  0
  -26.5563   -0.2493    0.0000 C   0  0  0  0  0  0  0  0  0  0  0  0
  -25.2101   -0.9109    0.0000 C   0  0  0  0  0  0  0  0  0  0  0  0
  -23.9640   -0.0759    0.0000 C   0  0  0  0  0  0  0  0  0  0  0  0
  -24.0642    1.4208    0.0000 O   0  0  0  0  0  0  0  0  0  0  0  0
  -22.6178   -0.7375    0.0000 N   0  0  0  0  0  0  0  0  0  0  0  0
  -21.3718    0.0976    0.0000 C   0  0  0  0  0  0  0  0  0  0  0  0
  -20.4864    1.3085    0.0000 C   0  0  0  0  0  0  0  0  0  0  0  0
  -18.9951    1.1472    0.0000 C   0  0  0  0  0  0  0  0  0  0  0  0
  -18.1098    2.3581    0.0000 C   0  0  0  0  0  0  0  0  0  0  0  0
  -16.8950    2.3757    0.0000 O   0  0  0  0  0  0  0  0  0  0  0  0
  -18.7158    3.7302    0.0000 O   0  0  0  0  0  0  0  0  0  0  0  0
  -20.0255   -0.5640    0.0000 C   0  0  0  0  0  0  0  0  0  0  0  0
  -19.9254   -2.0606    0.0000 O   0  0  0  0  0  0  0  0  0  0  0  0
  -18.7795    0.2711    0.0000 N   0  0  0  0  0  0  0  0  0  0  0  0
  -17.4333   -0.3905    0.0000 C   0  0  0  0  0  0  0  0  0  0  0  0
  -16.3945   -1.4727    0.0000 C   0  0  0  0  0  0  0  0  0  0  0  0
  -16.8123   -2.9133    0.0000 C   0  0  0  0  0  0  0  0  0  0  0  0
  -15.7735   -3.9954    0.0000 C   0  0  0  0  0  0  0  0  0  0  0  0
  -16.1913   -5.4361    0.0000 N   0  0  0  0  0  0  0  0  0  0  0  0
  -15.1526   -6.5182    0.0000 C   0  0  0  0  0  0  0  0  0  0  0  0
  -15.5703   -7.9589    0.0000 N   0  0  0  0  0  0  0  0  0  0  0  0
  -13.6960   -6.1597    0.0000 N   0  0  0  0  0  0  0  0  0  0  0  0
  -16.1872    0.4445    0.0000 C   0  0  0  0  0  0  0  0  0  0  0  0
  -16.1199    1.6577    0.0000 O   0  0  0  0  0  0  0  0  0  0  0  0
  -14.8410   -0.2171    0.0000 N   0  0  0  0  0  0  0  0  0  0  0  0
  -13.5949    0.6180    0.0000 C   0  0  0  0  0  0  0  0  0  0  0  0
  -12.7096    1.8289    0.0000 C   0  0  0  0  0  0  0  0  0  0  0  0
  -11.2183    1.6676    0.0000 C   0  0  0  0  0  0  0  0  0  0  0  0
  -10.3330    2.8785    0.0000 C   0  0  0  0  0  0  0  0  0  0  0  0
   -9.8721    1.0060    0.0000 C   0  0  0  0  0  0  0  0  0  0  0  0
  -12.2487   -0.0436    0.0000 C   0  0  0  0  0  0  0  0  0  0  0  0
  -12.1486   -1.5403    0.0000 O   0  0  0  0  0  0  0  0  0  0  0  0
  -11.0026    0.7915    0.0000 N   0  0  0  0  0  0  0  0  0  0  0  0
   -9.6564    0.1299    0.0000 C   0  0  0  0  0  0  0  0  0  0  0  0
   -8.6177   -0.9523    0.0000 C   0  0  0  0  0  0  0  0  0  0  0  0
   -8.4104    0.9649    0.0000 C   0  0  0  0  0  0  0  0  0  0  0  0
   -8.3273    2.4626    0.0000 O   0  0  0  0  0  0  0  0  0  0  0  0
   -7.0641    0.3033    0.0000 N   0  0  0  0  0  0  0  0  0  0  0  0
   -5.8181    1.1384    0.0000 C   0  0  0  0  0  0  0  0  0  0  0  0
   -4.9328    2.3493    0.0000 C   0  0  0  0  0  0  0  0  0  0  0  0
   -3.4415    2.1880    0.0000 C   0  0  0  0  0  0  0  0  0  0  0  0
   -2.5561    3.3989    0.0000 C   0  0  0  0  0  0  0  0  0  0  0  0
   -1.0648    3.2376    0.0000 N   0  0  0  0  0  0  0  0  0  0  0  0
   -0.1795    4.4485    0.0000 C   0  0  0  0  0  0  0  0  0  0  0  0
    1.3118    4.2872    0.0000 N   0  0  0  0  0  0  0  0  0  0  0  0
   -0.7855    5.8206    0.0000 N   0  0  0  0  0  0  0  0  0  0  0  0
   -4.4719    0.4768    0.0000 C   0  0  0  0  0  0  0  0  0  0  0  0
   -4.3717   -1.0199    0.0000 O   0  0  0  0  0  0  0  0  0  0  0  0
   -3.2258    1.3118    0.0000 N   0  0  0  0  0  0  0  0  0  0  0  0
   -1.8796    0.6502    0.0000 C   0  0  0  0  0  0  0  0  0  0  0  0
   -0.8408   -0.4319    0.0000 C   0  0  0  0  0  0  0  0  0  0  0  0
   -1.2586   -1.8725    0.0000 C   0  0  0  0  0  0  0  0  0  0  0  0
   -0.2199   -2.9547    0.0000 C   0  0  0  0  0  0  0  0  0  0  0  0
   -0.6376   -4.3953    0.0000 N   0  0  0  0  0  0  0  0  0  0  0  0
    0.4011   -5.4774    0.0000 C   0  0  0  0  0  0  0  0  0  0  0  0
   -0.0167   -6.9181    0.0000 N   0  0  0  0  0  0  0  0  0  0  0  0
    1.8576   -5.1189    0.0000 N   0  0  0  0  0  0  0  0  0  0  0  0
   -0.6335    1.4853    0.0000 C   0  0  0  0  0  0  0  0  0  0  0  0
   -0.4404    2.5616    0.0000 O   0  0  0  0  0  0  0  0  0  0  0  0
    0.7127    0.8237    0.0000 N   0  0  0  0  0  0  0  0  0  0  0  0
    1.9588    1.6588    0.0000 C   0  0  0  0  0  0  0  0  0  0  0  0
    2.8441    2.8696    0.0000 C   0  0  0  0  0  0  0  0  0  0  0  0
    4.3439    2.8914    0.0000 C   0  0  0  0  0  0  0  0  0  0  0  0
    3.2618    4.3103    0.0000 C   0  0  0  0  0  0  0  0  0  0  0  0
    4.6638    4.8437    0.0000 C   0  0  0  0  0  0  0  0  0  0  0  0
    3.3050    0.9972    0.0000 C   0  0  0  0  0  0  0  0  0  0  0  0
    3.2219   -0.5005    0.0000 O   0  0  0  0  0  0  0  0  0  0  0  0
    4.5510    1.8322    0.0000 N   0  0  0  0  0  0  0  0  0  0  0  0
    5.8973    1.1706    0.0000 C   0  0  0  0  0  0  0  0  0  0  0  0
    6.2920   -0.2765    0.0000 C   0  0  0  0  0  0  0  0  0  0  0  0
    7.0957   -1.5430    0.0000 C   0  0  0  0  0  0  0  0  0  0  0  0
    8.2370   -2.5163    0.0000 C   0  0  0  0  0  0  0  0  0  0  0  0
    9.6146   -3.1100    0.0000 C   0  0  0  0  0  0  0  0  0  0  0  0
    4.6327    0.3638    0.0000 C   0  0  0  0  0  0  0  0  0  0  0  0
    5.9466    2.6698    0.0000 C   0  0  0  0  0  0  0  0  0  0  0  0
    5.1862    2.9090    0.0000 O   0  0  0  0  0  0  0  0  0  0  0  0
    6.4357    4.0879    0.0000 N   0  0  0  0  0  0  0  0  0  0  0  0
    7.3210    5.2987    0.0000 C   0  0  0  0  0  0  0  0  0  0  0  0
    6.9989    6.7637    0.0000 C   0  0  0  0  0  0  0  0  0  0  0  0
    8.1066    7.7752    0.0000 C   0  0  0  0  0  0  0  0  0  0  0  0
    7.7845    9.2402    0.0000 C   0  0  0  0  0  0  0  0  0  0  0  0
    9.4134    8.5116    0.0000 C   0  0  0  0  0  0  0  0  0  0  0  0
    8.5239    6.1949    0.0000 C   0  0  0  0  0  0  0  0  0  0  0  0
    8.1582    7.6496    0.0000 O   0  0  0  0  0  0  0  0  0  0  0  0
    9.9375    6.6966    0.0000 N   0  0  0  0  0  0  0  0  0  0  0  0
   11.4362    6.7594    0.0000 C   0  0  0  0  0  0  0  0  0  0  0  0
   12.3807    7.9247    0.0000 C   0  0  0  0  0  0  0  0  0  0  0  0
   11.8439    9.3253    0.0000 S   0  0  0  0  0  0  0  0  0  0  0  0
   12.8868    6.3777    0.0000 C   0  0  0  0  0  0  0  0  0  0  0  0
   13.4804    7.7552    0.0000 O   0  0  0  0  0  0  0  0  0  0  0  0
   14.1604    5.5853    0.0000 N   0  0  0  0  0  0  0  0  0  0  0  0
   15.1439    4.4528    0.0000 C   0  0  0  0  0  0  0  0  0  0  0  0
   16.6439    4.4408    0.0000 C   0  0  0  0  0  0  0  0  0  0  0  0
   17.4042    5.7338    0.0000 C   0  0  0  0  0  0  0  0  0  0  0  0
   18.9042    5.7218    0.0000 C   0  0  0  0  0  0  0  0  0  0  0  0
   19.6645    7.0148    0.0000 N   0  0  0  0  0  0  0  0  0  0  0  0
   21.1645    7.0029    0.0000 C   0  0  0  0  0  0  0  0  0  0  0  0
   21.9248    8.2959    0.0000 N   0  0  0  0  0  0  0  0  0  0  0  0
   21.9041    5.6979    0.0000 N   0  0  0  0  0  0  0  0  0  0  0  0
   15.7499    3.0806    0.0000 C   0  0  0  0  0  0  0  0  0  0  0  0
   17.1971    3.4754    0.0000 O   0  0  0  0  0  0  0  0  0  0  0  0
   15.9246    1.5908    0.0000 N   0  0  0  0  0  0  0  0  0  0  0  0
   15.6523    0.1158    0.0000 C   0  0  0  0  0  0  0  0  0  0  0  0
   14.9574   -1.2135    0.0000 C   0  0  0  0  0  0  0  0  0  0  0  0
   13.9015   -2.2789    0.0000 C   0  0  0  0  0  0  0  0  0  0  0  0
   12.5784   -2.9858    0.0000 C   0  0  0  0  0  0  0  0  0  0  0  0
   11.1059   -3.2713    0.0000 C   0  0  0  0  0  0  0  0  0  0  0  0
   17.1088    0.4743    0.0000 C   0  0  0  0  0  0  0  0  0  0  0  0
   16.5781   -1.0644    0.0000 C   0  0  0  0  0  0  0  0  0  0  0  0
   16.3724   -2.5502    0.0000 O   0  0  0  0  0  0  0  0  0  0  0  0
   18.0631   -0.8527    0.0000 N   0  0  0  0  0  0  0  0  0  0  0  0
   18.9890   -2.0329    0.0000 C   0  0  0  0  0  0  0  0  0  0  0  0
   19.4553   -3.4585    0.0000 C   0  0  0  0  0  0  0  0  0  0  0  0
   18.4539   -4.5753    0.0000 C   0  0  0  0  0  0  0  0  0  0  0  0
   18.7686   -6.0419    0.0000 C   0  0  0  0  0  0  0  0  0  0  0  0
   17.4711   -6.7944    0.0000 N   0  0  0  0  0  0  0  0  0  0  0  0
   16.3544   -5.7930    0.0000 C   0  0  0  0  0  0  0  0  0  0  0  0
   16.9618   -4.4214    0.0000 N   0  0  0  0  0  0  0  0  0  0  0  0
   20.4740   -1.8212    0.0000 C   0  0  0  0  0  0  0  0  0  0  0  0
   21.0331   -0.4293    0.0000 O   0  0  0  0  0  0  0  0  0  0  0  0
   21.3998   -3.0013    0.0000 N   0  0  0  0  0  0  0  0  0  0  0  0
   22.8848   -2.7896    0.0000 C   0  0  0  0  0  0  0  0  0  0  0  0
   24.2078   -2.0828    0.0000 C   0  0  0  0  0  0  0  0  0  0  0  0
   25.4815   -2.8751    0.0000 C   0  0  0  0  0  0  0  0  0  0  0  0
   26.8711   -2.3105    0.0000 C   0  0  0  0  0  0  0  0  0  0  0  0
   27.8376   -3.4576    0.0000 N   0  0  0  0  0  0  0  0  0  0  0  0
   27.0452   -4.7313    0.0000 C   0  0  0  0  0  0  0  0  0  0  0  0
   25.5891   -4.3713    0.0000 N   0  0  0  0  0  0  0  0  0  0  0  0
   23.8106   -3.9698    0.0000 C   0  0  0  0  0  0  0  0  0  0  0  0
   23.2515   -5.3617    0.0000 O   0  0  0  0  0  0  0  0  0  0  0  0
   25.2956   -3.7581    0.0000 N   0  0  0  0  0  0  0  0  0  0  0  0
   26.2215   -4.9383    0.0000 C   0  0  0  0  0  0  0  0  0  0  0  0
   26.6878   -6.3639    0.0000 C   0  0  0  0  0  0  0  0  0  0  0  0
   25.6863   -7.4806    0.0000 O   0  0  0  0  0  0  0  0  0  0  0  0
   27.7064   -4.7266    0.0000 C   0  0  0  0  0  0  0  0  0  0  0  0
   28.5858   -3.5113    0.0000 O   0  0  0  0  0  0  0  0  0  0  0  0
   28.6323   -5.9067    0.0000 N   0  0  0  0  0  0  0  0  0  0  0  0
   30.1173   -5.6950    0.0000 C   0  0  0  0  0  0  0  0  0  0  0  0
   31.4403   -4.9882    0.0000 C   0  0  0  0  0  0  0  0  0  0  0  0
   32.4418   -3.8715    0.0000 O   0  0  0  0  0  0  0  0  0  0  0  0
   32.7139   -5.7805    0.0000 C   0  0  0  0  0  0  0  0  0  0  0  0
   31.0431   -6.8752    0.0000 C   0  0  0  0  0  0  0  0  0  0  0  0
   32.5428   -6.8461    0.0000 O   0  0  0  0  0  0  0  0  0  0  0  0
   30.4840   -8.2671    0.0000 O   0  0  0  0  0  0  0  0  0  0  0  0
  -30.1128   -2.7311    0.0000 H   0  0  0  0  0  0  0  0  0  0  0  0
  -30.5950    1.7355    0.0000 H   0  0  0  0  0  0  0  0  0  0  0  0
  -33.2874    3.0587    0.0000 H   0  0  0  0  0  0  0  0  0  0  0  0
  -32.5276   -2.8592    0.0000 H   0  0  0  0  0  0  0  0  0  0  0  0
  -39.3463   -5.0544    0.0000 H   0  0  0  0  0  0  0  0  0  0  0  0
  -40.7636   -0.0553    0.0000 H   0  0  0  0  0  0  0  0  0  0  0  0
  -37.8774    0.7630    0.0000 H   0  0  0  0  0  0  0  0  0  0  0  0
  -42.5740   -1.9188    0.0000 H   0  0  0  0  0  0  0  0  0  0  0  0
  -32.8394   -0.5092    0.0000 H   0  0  0  0  0  0  0  0  0  0  0  0
  -30.6485   -2.7786    0.0000 H   0  0  0  0  0  0  0  0  0  0  0  0
  -34.3083   -6.3266    0.0000 H   0  0  0  0  0  0  0  0  0  0  0  0
  -31.7893   -6.9627    0.0000 H   0  0  0  0  0  0  0  0  0  0  0  0
  -27.7022   -2.5810    0.0000 H   0  0  0  0  0  0  0  0  0  0  0  0
  -25.6710    0.9616    0.0000 H   0  0  0  0  0  0  0  0  0  0  0  0
  -27.5951    0.8328    0.0000 H   0  0  0  0  0  0  0  0  0  0  0  0
  -24.1714   -1.9930    0.0000 H   0  0  0  0  0  0  0  0  0  0  0  0
  -26.0954   -2.1218    0.0000 H   0  0  0  0  0  0  0  0  0  0  0  0
  -22.5177   -2.2341    0.0000 H   0  0  0  0  0  0  0  0  0  0  0  0
  -22.4105    1.1797    0.0000 H   0  0  0  0  0  0  0  0  0  0  0  0
  -20.0687    2.7491    0.0000 H   0  0  0  0  0  0  0  0  0  0  0  0
  -21.8327    1.9701    0.0000 H   0  0  0  0  0  0  0  0  0  0  0  0
  -17.6489    0.4856    0.0000 H   0  0  0  0  0  0  0  0  0  0  0  0
  -18.6875   -0.3209    0.0000 H   0  0  0  0  0  0  0  0  0  0  0  0
  -17.8305    4.9411    0.0000 H   0  0  0  0  0  0  0  0  0  0  0  0
  -18.5145    1.7475    0.0000 H   0  0  0  0  0  0  0  0  0  0  0  0
  -18.4596   -1.4845    0.0000 H   0  0  0  0  0  0  0  0  0  0  0  0
  -15.0483   -2.1343    0.0000 H   0  0  0  0  0  0  0  0  0  0  0  0
  -15.2425   -0.5120    0.0000 H   0  0  0  0  0  0  0  0  0  0  0  0
  -17.6976   -4.1242    0.0000 H   0  0  0  0  0  0  0  0  0  0  0  0
  -18.2291   -2.4207    0.0000 H   0  0  0  0  0  0  0  0  0  0  0  0
  -14.4273   -4.6570    0.0000 H   0  0  0  0  0  0  0  0  0  0  0  0
  -14.7472   -2.9015    0.0000 H   0  0  0  0  0  0  0  0  0  0  0  0
  -17.6478   -5.7946    0.0000 H   0  0  0  0  0  0  0  0  0  0  0  0
  -14.5316   -9.0410    0.0000 H   0  0  0  0  0  0  0  0  0  0  0  0
  -12.6573   -7.2418    0.0000 H   0  0  0  0  0  0  0  0  0  0  0  0
  -13.2783   -4.7190    0.0000 H   0  0  0  0  0  0  0  0  0  0  0  0
  -14.5591   -1.6903    0.0000 H   0  0  0  0  0  0  0  0  0  0  0  0
  -14.6337    1.7001    0.0000 H   0  0  0  0  0  0  0  0  0  0  0  0
  -12.4706    3.3097    0.0000 H   0  0  0  0  0  0  0  0  0  0  0  0
  -14.0558    2.4905    0.0000 H   0  0  0  0  0  0  0  0  0  0  0  0
  -10.9107    0.1995    0.0000 H   0  0  0  0  0  0  0  0  0  0  0  0
   -8.8470    3.0829    0.0000 H   0  0  0  0  0  0  0  0  0  0  0  0
   -9.9152    4.3191    0.0000 H   0  0  0  0  0  0  0  0  0  0  0  0
  -11.5885    3.6992    0.0000 H   0  0  0  0  0  0  0  0  0  0  0  0
   -9.4128   -0.4219    0.0000 H   0  0  0  0  0  0  0  0  0  0  0  0
   -8.4221    1.3900    0.0000 H   0  0  0  0  0  0  0  0  0  0  0  0
   -9.2818    2.3850    0.0000 H   0  0  0  0  0  0  0  0  0  0  0  0
  -10.7377    2.2679    0.0000 H   0  0  0  0  0  0  0  0  0  0  0  0
  -10.5417   -1.0810    0.0000 H   0  0  0  0  0  0  0  0  0  0  0  0
   -9.0355   -2.3929    0.0000 H   0  0  0  0  0  0  0  0  0  0  0  0
   -7.3621   -1.7730    0.0000 H   0  0  0  0  0  0  0  0  0  0  0  0
   -7.3572   -0.1392    0.0000 H   0  0  0  0  0  0  0  0  0  0  0  0
   -6.7823   -1.1700    0.0000 H   0  0  0  0  0  0  0  0  0  0  0  0
   -6.8568    2.2205    0.0000 H   0  0  0  0  0  0  0  0  0  0  0  0
   -4.6937    3.8301    0.0000 H   0  0  0  0  0  0  0  0  0  0  0  0
   -6.2790    3.0109    0.0000 H   0  0  0  0  0  0  0  0  0  0  0  0
   -2.0952    1.5264    0.0000 H   0  0  0  0  0  0  0  0  0  0  0  0
   -3.1338    0.7199    0.0000 H   0  0  0  0  0  0  0  0  0  0  0  0
   -2.1384    4.8395    0.0000 H   0  0  0  0  0  0  0  0  0  0  0  0
   -3.8117    4.2196    0.0000 H   0  0  0  0  0  0  0  0  0  0  0  0
   -0.1448    2.0529    0.0000 H   0  0  0  0  0  0  0  0  0  0  0  0
    2.1971    5.4981    0.0000 H   0  0  0  0  0  0  0  0  0  0  0  0
    0.0998    7.0315    0.0000 H   0  0  0  0  0  0  0  0  0  0  0  0
   -2.2768    5.9819    0.0000 H   0  0  0  0  0  0  0  0  0  0  0  0
   -2.9608    2.7883    0.0000 H   0  0  0  0  0  0  0  0  0  0  0  0
   -2.9059   -0.4437    0.0000 H   0  0  0  0  0  0  0  0  0  0  0  0
    0.5054   -1.0935    0.0000 H   0  0  0  0  0  0  0  0  0  0  0  0
    0.3112    0.5288    0.0000 H   0  0  0  0  0  0  0  0  0  0  0  0
   -2.1439   -3.0834    0.0000 H   0  0  0  0  0  0  0  0  0  0  0  0
   -2.6754   -1.3800    0.0000 H   0  0  0  0  0  0  0  0  0  0  0  0
    1.1263   -3.6163    0.0000 H   0  0  0  0  0  0  0  0  0  0  0  0
    0.8064   -1.8607    0.0000 H   0  0  0  0  0  0  0  0  0  0  0  0
   -2.0942   -4.7538    0.0000 H   0  0  0  0  0  0  0  0  0  0  0  0
    1.0221   -8.0002    0.0000 H   0  0  0  0  0  0  0  0  0  0  0  0
    2.8964   -6.2010    0.0000 H   0  0  0  0  0  0  0  0  0  0  0  0
    2.2754   -3.6783    0.0000 H   0  0  0  0  0  0  0  0  0  0  0  0
    0.9945   -0.6496    0.0000 H   0  0  0  0  0  0  0  0  0  0  0  0
    0.9200    2.7409    0.0000 H   0  0  0  0  0  0  0  0  0  0  0  0
    1.4272    3.3622    0.0000 H   0  0  0  0  0  0  0  0  0  0  0  0
    5.2431    3.9196    0.0000 H   0  0  0  0  0  0  0  0  0  0  0  0
    5.8462    2.3956    0.0000 H   0  0  0  0  0  0  0  0  0  0  0  0
    4.5279    1.2228    0.0000 H   0  0  0  0  0  0  0  0  0  0  0  0
    3.1617    5.8069    0.0000 H   0  0  0  0  0  0  0  0  0  0  0  0
    1.8013    4.6521    0.0000 H   0  0  0  0  0  0  0  0  0  0  0  0
    4.8158    6.1861    0.0000 H   0  0  0  0  0  0  0  0  0  0  0  0
    6.2044    4.8732    0.0000 H   0  0  0  0  0  0  0  0  0  0  0  0
    4.8185    3.1722    0.0000 H   0  0  0  0  0  0  0  0  0  0  0  0
    4.2692    3.3055    0.0000 H   0  0  0  0  0  0  0  0  0  0  0  0
    4.7929   -0.2234    0.0000 H   0  0  0  0  0  0  0  0  0  0  0  0
    5.4681   -1.5300    0.0000 H   0  0  0  0  0  0  0  0  0  0  0  0
    5.7061   -2.1077    0.0000 H   0  0  0  0  0  0  0  0  0  0  0  0
    6.5054   -2.9220    0.0000 H   0  0  0  0  0  0  0  0  0  0  0  0
    6.9686   -3.3169    0.0000 H   0  0  0  0  0  0  0  0  0  0  0  0
    8.2625   -4.0161    0.0000 H   0  0  0  0  0  0  0  0  0  0  0  0
    9.2328   -4.5606    0.0000 H   0  0  0  0  0  0  0  0  0  0  0  0
    4.5848   -1.3015    0.0000 H   0  0  0  0  0  0  0  0  0  0  0  0
    3.4159   -0.4404    0.0000 H   0  0  0  0  0  0  0  0  0  0  0  0
    3.6282    1.2173    0.0000 H   0  0  0  0  0  0  0  0  0  0  0  0
    5.3140    5.0838    0.0000 H   0  0  0  0  0  0  0  0  0  0  0  0
    5.8532    5.6077    0.0000 H   0  0  0  0  0  0  0  0  0  0  0  0
    6.0468    7.9228    0.0000 H   0  0  0  0  0  0  0  0  0  0  0  0
    5.5150    6.5447    0.0000 H   0  0  0  0  0  0  0  0  0  0  0  0
    9.1929    6.7408    0.0000 H   0  0  0  0  0  0  0  0  0  0  0  0
    8.7606   10.3791    0.0000 H   0  0  0  0  0  0  0  0  0  0  0  0
    6.9808   10.5067    0.0000 H   0  0  0  0  0  0  0  0  0  0  0  0
    6.3383    8.8419    0.0000 H   0  0  0  0  0  0  0  0  0  0  0  0
    9.8716    9.7983    0.0000 H   0  0  0  0  0  0  0  0  0  0  0  0
   10.9928    8.6028    0.0000 H   0  0  0  0  0  0  0  0  0  0  0  0
   10.1604    7.0032    0.0000 H   0  0  0  0  0  0  0  0  0  0  0  0
    9.8336    8.1930    0.0000 H   0  0  0  0  0  0  0  0  0  0  0  0
   10.9309    8.1718    0.0000 H   0  0  0  0  0  0  0  0  0  0  0  0
   13.6669    8.6966    0.0000 H   0  0  0  0  0  0  0  0  0  0  0  0
   13.6091    7.0637    0.0000 H   0  0  0  0  0  0  0  0  0  0  0  0
   12.7885   10.4905    0.0000 H   0  0  0  0  0  0  0  0  0  0  0  0
   15.1338    6.7267    0.0000 H   0  0  0  0  0  0  0  0  0  0  0  0
   15.6010    5.8814    0.0000 H   0  0  0  0  0  0  0  0  0  0  0  0
   17.9749    3.7491    0.0000 H   0  0  0  0  0  0  0  0  0  0  0  0
   16.7367    2.9437    0.0000 H   0  0  0  0  0  0  0  0  0  0  0  0
   17.6765    7.2089    0.0000 H   0  0  0  0  0  0  0  0  0  0  0  0
   16.0732    6.4255    0.0000 H   0  0  0  0  0  0  0  0  0  0  0  0
   20.3096    5.1976    0.0000 H   0  0  0  0  0  0  0  0  0  0  0  0
   18.8138    4.2246    0.0000 H   0  0  0  0  0  0  0  0  0  0  0  0
   18.9249    8.3198    0.0000 H   0  0  0  0  0  0  0  0  0  0  0  0
   23.4248    8.2839    0.0000 H   0  0  0  0  0  0  0  0  0  0  0  0
   23.4041    5.6859    0.0000 H   0  0  0  0  0  0  0  0  0  0  0  0
   21.1438    4.4049    0.0000 H   0  0  0  0  0  0  0  0  0  0  0  0
   17.4238    1.5415    0.0000 H   0  0  0  0  0  0  0  0  0  0  0  0
   15.4942   -2.6142    0.0000 H   0  0  0  0  0  0  0  0  0  0  0  0
   16.3894   -1.6600    0.0000 H   0  0  0  0  0  0  0  0  0  0  0  0
   14.1833   -3.7522    0.0000 H   0  0  0  0  0  0  0  0  0  0  0  0
   15.1382   -3.1277    0.0000 H   0  0  0  0  0  0  0  0  0  0  0  0
   12.2330   -4.4455    0.0000 H   0  0  0  0  0  0  0  0  0  0  0  0
   13.6464   -4.0391    0.0000 H   0  0  0  0  0  0  0  0  0  0  0  0
   11.1687   -4.7699    0.0000 H   0  0  0  0  0  0  0  0  0  0  0  0
   18.3786   -0.3243    0.0000 H   0  0  0  0  0  0  0  0  0  0  0  0
   18.2438    1.4550    0.0000 H   0  0  0  0  0  0  0  0  0  0  0  0
   16.8529    1.9523    0.0000 H   0  0  0  0  0  0  0  0  0  0  0  0
   18.7878    0.4606    0.0000 H   0  0  0  0  0  0  0  0  0  0  0  0
   17.6660   -2.7397    0.0000 H   0  0  0  0  0  0  0  0  0  0  0  0
   20.2304   -4.7428    0.0000 H   0  0  0  0  0  0  0  0  0  0  0  0
   20.9101   -3.0928    0.0000 H   0  0  0  0  0  0  0  0  0  0  0  0
   20.1402   -6.6492    0.0000 H   0  0  0  0  0  0  0  0  0  0  0  0
   17.3173   -8.2865    0.0000 H   0  0  0  0  0  0  0  0  0  0  0  0
   14.8878   -6.1077    0.0000 H   0  0  0  0  0  0  0  0  0  0  0  0
   21.0145   -4.4510    0.0000 H   0  0  0  0  0  0  0  0  0  0  0  0
   22.4184   -1.3640    0.0000 H   0  0  0  0  0  0  0  0  0  0  0  0
   25.2093   -0.9661    0.0000 H   0  0  0  0  0  0  0  0  0  0  0  0
   23.2820   -0.9026    0.0000 H   0  0  0  0  0  0  0  0  0  0  0  0
   27.2311   -0.8543    0.0000 H   0  0  0  0  0  0  0  0  0  0  0  0
   29.3337   -3.3500    0.0000 H   0  0  0  0  0  0  0  0  0  0  0  0
   27.7751   -6.0417    0.0000 H   0  0  0  0  0  0  0  0  0  0  0  0
   26.1749   -2.5429    0.0000 H   0  0  0  0  0  0  0  0  0  0  0  0
   24.8984   -5.6451    0.0000 H   0  0  0  0  0  0  0  0  0  0  0  0
   27.4629   -7.6482    0.0000 H   0  0  0  0  0  0  0  0  0  0  0  0
   28.1763   -6.1783    0.0000 H   0  0  0  0  0  0  0  0  0  0  0  0
   26.1527   -8.9063    0.0000 H   0  0  0  0  0  0  0  0  0  0  0  0
   28.2470   -7.3564    0.0000 H   0  0  0  0  0  0  0  0  0  0  0  0
   29.6509   -4.2694    0.0000 H   0  0  0  0  0  0  0  0  0  0  0  0
   30.5144   -3.8080    0.0000 H   0  0  0  0  0  0  0  0  0  0  0  0
   33.9363   -3.9992    0.0000 H   0  0  0  0  0  0  0  0  0  0  0  0
   34.1132   -5.2402    0.0000 H   0  0  0  0  0  0  0  0  0  0  0  0
   33.6398   -6.9607    0.0000 H   0  0  0  0  0  0  0  0  0  0  0  0
   32.1793   -7.1820    0.0000 H   0  0  0  0  0  0  0  0  0  0  0  0
   31.4098   -9.4473    0.0000 H   0  0  0  0  0  0  0  0  0  0  0  0
  1  2  1  0
  2  3  1  0
  3  4  2  0
  4  5  1  0
  5  6  2  0
  6  7  1  0
  7  8  2  0
  7  9  1  0
  9 10  1  0
 10 11  1  0
 11 12  2  0
  9 13  1  0
 13 14  1  0
 14 15  2  0
 15 16  1  0
 16 17  2  0
 17 18  1  0
 16 19  1  0
 14 20  1  0
 20 21  1  0
 21 22  2  0
 22 23  1  0
 23 24  2  0
 24 25  1  0
 25 26  2  0
 25 27  1  0
  1 28  2  0
  1 29  1  0
 29 30  1  0
 30 31  1  0
 31 32  1  0
 32 33  2  0
 32 34  1  0
 34 35  1  0
 35 36  1  0
 36 37  1  0
 37 38  1  0
 38 39  2  0
 38 40  1  0
 35 41  1  0
 41 42  2  0
 41 43  1  0
 43 44  1  0
 44 45  1  0
 45 46  1  0
 46 47  1  0
 47 48  1  0
 48 49  1  0
 49 50  2  3
 49 51  1  0
 44 52  1  0
 52 53  2  0
 52 54  1  0
 54 55  1  0
 55 56  1  0
 56 57  1  0
 57 58  1  0
 57 59  1  0
 55 60  1  0
 60 61  2  0
 60 62  1  0
 62 63  1  0
 63 64  1  0
 63 65  1  0
 65 66  2  0
 65 67  1  0
 67 68  1  0
 68 69  1  0
 69 70  1  0
 70 71  1  0
 71 72  1  0
 72 73  1  0
 73 74  2  3
 73 75  1  0
 68 76  1  0
 76 77  2  0
 76 78  1  0
 78 79  1  0
 79 80  1  0
 80 81  1  0
 81 82  1  0
 82 83  1  0
 83 84  1  0
 84 85  2  3
 84 86  1  0
 79 87  1  0
 87 88  2  0
 87 89  1  0
 89 90  1  0
 90 91  1  0
 91 92  1  0
 91 93  1  0
 93 94  1  0
 90 95  1  0
 95 96  2  0
 95 97  1  0
 98 97  1  6
 98 99  1  0
 99100  1  0
100101  1  0
101102  1  0
 98103  1  0
 98104  1  0
104105  2  0
104106  1  0
106107  1  0
107108  1  0
108109  1  0
109110  1  0
109111  1  0
107112  1  0
112113  2  0
112114  1  0
114115  1  0
115116  1  0
116117  1  0
115118  1  0
118119  2  0
118120  1  0
120121  1  0
121122  1  0
122123  1  0
123124  1  0
124125  1  0
125126  1  0
126127  2  3
126128  1  0
121129  1  0
129130  2  0
129131  1  0
131132  1  0
132133  1  0
133134  1  0
134135  1  0
135136  1  0
132137  1  0
132138  1  6
138139  2  0
138140  1  0
140141  1  0
141142  1  0
142143  1  0
143144  2  0
144145  1  0
145146  1  0
146147  2  0
141148  1  0
148149  2  0
148150  1  0
150151  1  0
151152  1  0
152153  1  0
153154  2  0
154155  1  0
155156  1  0
156157  2  0
151158  1  0
158159  2  0
158160  1  0
160161  1  0
161162  1  0
162163  1  0
161164  1  0
164165  2  0
164166  1  0
166167  1  0
167168  1  0
168169  1  0
168170  1  0
167171  1  0
171172  2  0
171173  1  0
  8  3  1  0
147143  1  0
157153  1  0
 11  6  1  0
102136  2  0
 18 13  2  0
 22  9  1  0
 26 21  1  0
  2174  1  0
  4175  1  0
  5176  1  0
  8177  1  0
 15178  1  0
 17179  1  0
 18180  1  0
 19181  1  0
 23182  1  0
 24183  1  0
 26184  1  0
 27185  1  0
 29186  1  0
 30187  1  0
 30188  1  0
 31189  1  0
 31190  1  0
 34191  1  0
 35192  1  1
 36193  1  0
 36194  1  0
 37195  1  0
 37196  1  0
 40197  1  0
 43198  1  0
 44199  1  6
 45200  1  0
 45201  1  0
 46202  1  0
 46203  1  0
 47204  1  0
 47205  1  0
 48206  1  0
 50207  1  0
 51208  1  0
 51209  1  0
 54210  1  0
 55211  1  1
 56212  1  0
 56213  1  0
 57214  1  0
 58215  1  0
 58216  1  0
 58217  1  0
 59218  1  0
 59219  1  0
 59220  1  0
 62221  1  0
 63222  1  6
 64223  1  0
 64224  1  0
 64225  1  0
 67226  1  0
 68227  1  1
 69228  1  0
 69229  1  0
 70230  1  0
 70231  1  0
 71232  1  0
 71233  1  0
 72234  1  0
 74235  1  0
 75236  1  0
 75237  1  0
 78238  1  0
 79239  1  6
 80240  1  0
 80241  1  0
 81242  1  0
 81243  1  0
 82244  1  0
 82245  1  0
 83246  1  0
 85247  1  0
 86248  1  0
 86249  1  0
 89250  1  0
 90251  1  1
 91252  1  1
 92253  1  0
 92254  1  0
 92255  1  0
 93256  1  0
 93257  1  0
 94258  1  0
 94259  1  0
 94260  1  0
 97261  1  0
 99262  1  0
 99263  1  0
100264  1  0
100265  1  0
101266  1  0
101267  1  0
102268  1  0
103269  1  0
103270  1  0
103271  1  0
106272  1  0
107273  1  1
108274  1  0
108275  1  0
109276  1  0
110277  1  0
110278  1  0
110279  1  0
111280  1  0
111281  1  0
111282  1  0
114283  1  0
115284  1  1
116285  1  0
116286  1  0
117287  1  0
120288  1  0
121289  1  1
122290  1  0
122291  1  0
123292  1  0
123293  1  0
124294  1  0
124295  1  0
125296  1  0
127297  1  0
128298  1  0
128299  1  0
131300  1  0
133301  1  0
133302  1  0
134303  1  0
134304  1  0
135305  1  0
135306  1  0
136307  1  0
137308  1  0
137309  1  0
137310  1  0
140311  1  0
141312  1  6
142313  1  0
142314  1  0
144315  1  0
145316  1  0
146317  1  0
150318  1  0
151319  1  1
152320  1  0
152321  1  0
154322  1  0
155323  1  0
156324  1  0
160325  1  0
161326  1  6
162327  1  0
162328  1  0
163329  1  0
166330  1  0
167331  1  1
168332  1  1
169333  1  0
170334  1  0
170335  1  0
170336  1  0
173337  1  0
M  END
