
     RDKit          2D

242249  0  0  0  0  0  0  0  0999 V2000
  -17.5637   -0.4604    0.0000 C   0  0  0  0  0  0  0  0  0  0  0  0
  -18.8301   -1.2643    0.0000 N   0  0  0  0  0  0  0  0  0  0  0  0
  -20.1595   -0.5695    0.0000 C   0  0  0  0  0  0  0  0  0  0  0  0
  -20.2225    0.9292    0.0000 C   0  0  0  0  0  0  0  0  0  0  0  0
  -21.5519    1.6240    0.0000 C   0  0  0  0  0  0  0  0  0  0  0  0
  -22.8183    0.8201    0.0000 C   0  0  0  0  0  0  0  0  0  0  0  0
  -22.7553   -0.6786    0.0000 C   0  0  0  0  0  0  0  0  0  0  0  0
  -21.4259   -1.3734    0.0000 C   0  0  0  0  0  0  0  0  0  0  0  0
  -24.1611   -1.2016    0.0000 C   0  0  0  0  0  0  0  0  0  0  0  0
  -25.0930   -0.0262    0.0000 O   0  0  0  0  0  0  0  0  0  0  0  0
  -24.2630    1.2233    0.0000 C   0  0  0  0  0  0  0  0  0  0  0  0
  -24.7861    2.6292    0.0000 O   0  0  0  0  0  0  0  0  0  0  0  0
  -25.6140   -1.5748    0.0000 C   0  0  0  0  0  0  0  0  0  0  0  0
  -26.0172   -3.0196    0.0000 C   0  0  0  0  0  0  0  0  0  0  0  0
  -27.4700   -3.3928    0.0000 C   0  0  0  0  0  0  0  0  0  0  0  0
  -28.5196   -2.3212    0.0000 C   0  0  0  0  0  0  0  0  0  0  0  0
  -28.1164   -0.8764    0.0000 C   0  0  0  0  0  0  0  0  0  0  0  0
  -26.6636   -0.5032    0.0000 C   0  0  0  0  0  0  0  0  0  0  0  0
  -29.9724   -2.6944    0.0000 O   0  0  0  0  0  0  0  0  0  0  0  0
  -24.9675   -4.0912    0.0000 O   0  0  0  0  0  0  0  0  0  0  0  0
  -23.5147   -3.7180    0.0000 C   0  0  0  0  0  0  0  0  0  0  0  0
  -23.1115   -2.2732    0.0000 C   0  0  0  0  0  0  0  0  0  0  0  0
  -21.8468   -2.5742    0.0000 C   0  0  0  0  0  0  0  0  0  0  0  0
  -21.2870   -3.1457    0.0000 C   0  0  0  0  0  0  0  0  0  0  0  0
  -21.5021   -3.9163    0.0000 C   0  0  0  0  0  0  0  0  0  0  0  0
  -22.2769   -4.1153    0.0000 C   0  0  0  0  0  0  0  0  0  0  0  0
  -19.9626   -5.4879    0.0000 O   0  0  0  0  0  0  0  0  0  0  0  0
  -17.6267    1.0383    0.0000 S   0  0  0  0  0  0  0  0  0  0  0  0
  -16.2343   -1.1552    0.0000 N   0  0  0  0  0  0  0  0  0  0  0  0
  -14.9679   -0.3513    0.0000 C   0  0  0  0  0  0  0  0  0  0  0  0
  -13.6385   -1.0461    0.0000 C   0  0  0  0  0  0  0  0  0  0  0  0
  -12.3721   -0.2422    0.0000 C   0  0  0  0  0  0  0  0  0  0  0  0
  -12.4351    1.2565    0.0000 O   0  0  0  0  0  0  0  0  0  0  0  0
  -11.0427   -0.9369    0.0000 N   0  0  0  0  0  0  0  0  0  0  0  0
   -9.7763   -0.1331    0.0000 C   0  0  0  0  0  0  0  0  0  0  0  0
   -8.8613    1.0555    0.0000 C   0  0  0  0  0  0  0  0  0  0  0  0
   -7.3744    0.8573    0.0000 C   0  0  0  0  0  0  0  0  0  0  0  0
   -6.4593    2.0458    0.0000 C   0  0  0  0  0  0  0  0  0  0  0  0
   -4.9725    1.8476    0.0000 N   0  0  0  0  0  0  0  0  0  0  0  0
   -4.0574    3.0362    0.0000 C   0  0  0  0  0  0  0  0  0  0  0  0
   -2.6058    2.6582    0.0000 N   0  0  0  0  0  0  0  0  0  0  0  0
   -4.6292    4.4229    0.0000 N   0  0  0  0  0  0  0  0  0  0  0  0
   -8.4470   -0.8278    0.0000 C   0  0  0  0  0  0  0  0  0  0  0  0
   -8.3840   -2.3265    0.0000 O   0  0  0  0  0  0  0  0  0  0  0  0
   -7.1806   -0.0239    0.0000 N   0  0  0  0  0  0  0  0  0  0  0  0
   -5.8512   -0.7187    0.0000 C   0  0  0  0  0  0  0  0  0  0  0  0
   -4.8396   -1.8263    0.0000 C   0  0  0  0  0  0  0  0  0  0  0  0
   -5.2930   -3.2561    0.0000 C   0  0  0  0  0  0  0  0  0  0  0  0
   -4.2814   -4.3637    0.0000 C   0  0  0  0  0  0  0  0  0  0  0  0
   -4.7348   -5.7935    0.0000 C   0  0  0  0  0  0  0  0  0  0  0  0
   -3.7232   -6.9011    0.0000 N   0  0  0  0  0  0  0  0  0  0  0  0
   -4.5848    0.0852    0.0000 C   0  0  0  0  0  0  0  0  0  0  0  0
   -4.3650    1.1563    0.0000 O   0  0  0  0  0  0  0  0  0  0  0  0
   -3.2554   -0.6096    0.0000 N   0  0  0  0  0  0  0  0  0  0  0  0
   -1.9890    0.1943    0.0000 C   0  0  0  0  0  0  0  0  0  0  0  0
   -1.0739    1.3828    0.0000 C   0  0  0  0  0  0  0  0  0  0  0  0
   -0.6596   -0.5005    0.0000 C   0  0  0  0  0  0  0  0  0  0  0  0
   -0.7798   -1.9957    0.0000 O   0  0  0  0  0  0  0  0  0  0  0  0
    0.6068    0.3034    0.0000 N   0  0  0  0  0  0  0  0  0  0  0  0
    1.9362   -0.3914    0.0000 C   0  0  0  0  0  0  0  0  0  0  0  0
    2.2949   -1.8479    0.0000 C   0  0  0  0  0  0  0  0  0  0  0  0
    3.0670   -3.1339    0.0000 C   0  0  0  0  0  0  0  0  0  0  0  0
    4.1838   -4.1353    0.0000 C   0  0  0  0  0  0  0  0  0  0  0  0
    5.5462   -4.7629    0.0000 C   0  0  0  0  0  0  0  0  0  0  0  0
    0.6520   -1.1667    0.0000 C   0  0  0  0  0  0  0  0  0  0  0  0
    2.0227    1.1061    0.0000 C   0  0  0  0  0  0  0  0  0  0  0  0
    0.6732    1.7609    0.0000 O   0  0  0  0  0  0  0  0  0  0  0  0
    2.5468    2.5115    0.0000 N   0  0  0  0  0  0  0  0  0  0  0  0
    3.4619    3.7001    0.0000 C   0  0  0  0  0  0  0  0  0  0  0  0
    3.1762    5.1726    0.0000 C   0  0  0  0  0  0  0  0  0  0  0  0
    1.7581    5.6615    0.0000 C   0  0  0  0  0  0  0  0  0  0  0  0
    1.4725    7.1341    0.0000 C   0  0  0  0  0  0  0  0  0  0  0  0
    0.0544    7.6230    0.0000 N   0  0  0  0  0  0  0  0  0  0  0  0
   -0.2313    9.0955    0.0000 C   0  0  0  0  0  0  0  0  0  0  0  0
   -1.6493    9.5844    0.0000 N   0  0  0  0  0  0  0  0  0  0  0  0
    0.9012   10.0792    0.0000 N   0  0  0  0  0  0  0  0  0  0  0  0
    4.6866    4.5661    0.0000 C   0  0  0  0  0  0  0  0  0  0  0  0
    4.0128    5.9062    0.0000 O   0  0  0  0  0  0  0  0  0  0  0  0
    6.1122    5.0326    0.0000 N   0  0  0  0  0  0  0  0  0  0  0  0
    7.6120    5.0583    0.0000 C   0  0  0  0  0  0  0  0  0  0  0  0
    8.5852    6.1997    0.0000 C   0  0  0  0  0  0  0  0  0  0  0  0
    8.0833    7.6132    0.0000 C   0  0  0  0  0  0  0  0  0  0  0  0
    9.0565    8.7547    0.0000 C   0  0  0  0  0  0  0  0  0  0  0  0
    7.1282    8.7698    0.0000 C   0  0  0  0  0  0  0  0  0  0  0  0
    9.0527    4.6407    0.0000 C   0  0  0  0  0  0  0  0  0  0  0  0
    9.6804    6.0030    0.0000 O   0  0  0  0  0  0  0  0  0  0  0  0
   10.3063    3.8170    0.0000 N   0  0  0  0  0  0  0  0  0  0  0  0
   11.2615    2.6603    0.0000 C   0  0  0  0  0  0  0  0  0  0  0  0
   12.7606    2.6112    0.0000 C   0  0  0  0  0  0  0  0  0  0  0  0
   13.5528    3.8849    0.0000 C   0  0  0  0  0  0  0  0  0  0  0  0
   15.0520    3.8357    0.0000 C   0  0  0  0  0  0  0  0  0  0  0  0
   15.8442    5.1095    0.0000 C   0  0  0  0  0  0  0  0  0  0  0  0
   15.1372    6.4324    0.0000 C   0  0  0  0  0  0  0  0  0  0  0  0
   13.6380    6.4816    0.0000 C   0  0  0  0  0  0  0  0  0  0  0  0
   12.8458    5.2078    0.0000 C   0  0  0  0  0  0  0  0  0  0  0  0
   11.8332    1.2736    0.0000 C   0  0  0  0  0  0  0  0  0  0  0  0
   13.2897    1.6323    0.0000 O   0  0  0  0  0  0  0  0  0  0  0  0
   11.9708   -0.2201    0.0000 N   0  0  0  0  0  0  0  0  0  0  0  0
   11.6621   -1.6880    0.0000 C   0  0  0  0  0  0  0  0  0  0  0  0
   10.9344   -2.9996    0.0000 C   0  0  0  0  0  0  0  0  0  0  0  0
    9.8524   -4.0385    0.0000 C   0  0  0  0  0  0  0  0  0  0  0  0
    8.5122   -4.7123    0.0000 C   0  0  0  0  0  0  0  0  0  0  0  0
    7.0330   -4.9611    0.0000 C   0  0  0  0  0  0  0  0  0  0  0  0
   13.1270   -1.3657    0.0000 C   0  0  0  0  0  0  0  0  0  0  0  0
   12.5584   -2.8907    0.0000 C   0  0  0  0  0  0  0  0  0  0  0  0
   12.3158   -4.3710    0.0000 O   0  0  0  0  0  0  0  0  0  0  0  0
   14.0481   -2.7159    0.0000 N   0  0  0  0  0  0  0  0  0  0  0  0
   14.9444   -3.9187    0.0000 C   0  0  0  0  0  0  0  0  0  0  0  0
   15.3753   -5.3555    0.0000 C   0  0  0  0  0  0  0  0  0  0  0  0
   14.3464   -6.4470    0.0000 O   0  0  0  0  0  0  0  0  0  0  0  0
   16.4342   -3.7439    0.0000 C   0  0  0  0  0  0  0  0  0  0  0  0
   17.0277   -2.3663    0.0000 O   0  0  0  0  0  0  0  0  0  0  0  0
   17.3305   -4.9467    0.0000 N   0  0  0  0  0  0  0  0  0  0  0  0
   18.8203   -4.7719    0.0000 C   0  0  0  0  0  0  0  0  0  0  0  0
   20.1604   -4.0981    0.0000 C   0  0  0  0  0  0  0  0  0  0  0  0
   21.4140   -4.9218    0.0000 C   0  0  0  0  0  0  0  0  0  0  0  0
   21.3275   -6.4193    0.0000 C   0  0  0  0  0  0  0  0  0  0  0  0
   22.5811   -7.2430    0.0000 C   0  0  0  0  0  0  0  0  0  0  0  0
   23.9212   -6.5691    0.0000 C   0  0  0  0  0  0  0  0  0  0  0  0
   25.1748   -7.3928    0.0000 O   0  0  0  0  0  0  0  0  0  0  0  0
   24.0078   -5.0716    0.0000 C   0  0  0  0  0  0  0  0  0  0  0  0
   22.7541   -4.2479    0.0000 C   0  0  0  0  0  0  0  0  0  0  0  0
   19.7165   -5.9746    0.0000 C   0  0  0  0  0  0  0  0  0  0  0  0
   20.5951   -6.0873    0.0000 O   0  0  0  0  0  0  0  0  0  0  0  0
   18.9595   -7.2696    0.0000 O   0  0  0  0  0  0  0  0  0  0  0  0
  -18.5849   -2.7441    0.0000 H   0  0  0  0  0  0  0  0  0  0  0  0
  -18.9561    1.7331    0.0000 H   0  0  0  0  0  0  0  0  0  0  0  0
  -21.6148    3.1227    0.0000 H   0  0  0  0  0  0  0  0  0  0  0  0
  -21.2007   -2.1381    0.0000 H   0  0  0  0  0  0  0  0  0  0  0  0
  -27.8732   -4.8376    0.0000 H   0  0  0  0  0  0  0  0  0  0  0  0
  -29.1660    0.1951    0.0000 H   0  0  0  0  0  0  0  0  0  0  0  0
  -26.2604    0.9416    0.0000 H   0  0  0  0  0  0  0  0  0  0  0  0
  -31.0221   -1.6229    0.0000 H   0  0  0  0  0  0  0  0  0  0  0  0
  -21.2555   -0.4552    0.0000 H   0  0  0  0  0  0  0  0  0  0  0  0
  -19.1216   -2.7782    0.0000 H   0  0  0  0  0  0  0  0  0  0  0  0
  -22.8683   -6.2344    0.0000 H   0  0  0  0  0  0  0  0  0  0  0  0
  -20.3658   -6.9327    0.0000 H   0  0  0  0  0  0  0  0  0  0  0  0
  -16.1713   -2.6538    0.0000 H   0  0  0  0  0  0  0  0  0  0  0  0
  -14.0528    0.8373    0.0000 H   0  0  0  0  0  0  0  0  0  0  0  0
  -15.9795    0.7563    0.0000 H   0  0  0  0  0  0  0  0  0  0  0  0
  -12.6269   -2.1536    0.0000 H   0  0  0  0  0  0  0  0  0  0  0  0
  -14.5536   -2.2346    0.0000 H   0  0  0  0  0  0  0  0  0  0  0  0
  -10.9797   -2.4356    0.0000 H   0  0  0  0  0  0  0  0  0  0  0  0
  -10.7879    0.9745    0.0000 H   0  0  0  0  0  0  0  0  0  0  0  0
   -8.5856    2.5299    0.0000 H   0  0  0  0  0  0  0  0  0  0  0  0
  -10.1907    1.7503    0.0000 H   0  0  0  0  0  0  0  0  0  0  0  0
   -6.0450    0.1625    0.0000 H   0  0  0  0  0  0  0  0  0  0  0  0
   -7.1033   -0.6180    0.0000 H   0  0  0  0  0  0  0  0  0  0  0  0
   -6.0060    3.4757    0.0000 H   0  0  0  0  0  0  0  0  0  0  0  0
   -7.6941    2.8975    0.0000 H   0  0  0  0  0  0  0  0  0  0  0  0
   -4.0822    0.6404    0.0000 H   0  0  0  0  0  0  0  0  0  0  0  0
   -1.6555    4.0265    0.0000 H   0  0  0  0  0  0  0  0  0  0  0  0
   -2.1505    1.3862    0.0000 H   0  0  0  0  0  0  0  0  0  0  0  0
   -3.7141    5.6115    0.0000 H   0  0  0  0  0  0  0  0  0  0  0  0
   -6.1160    4.6211    0.0000 H   0  0  0  0  0  0  0  0  0  0  0  0
   -6.8790    1.4454    0.0000 H   0  0  0  0  0  0  0  0  0  0  0  0
   -6.9043   -1.7869    0.0000 H   0  0  0  0  0  0  0  0  0  0  0  0
   -3.5102   -2.5211    0.0000 H   0  0  0  0  0  0  0  0  0  0  0  0
   -3.6641   -0.8945    0.0000 H   0  0  0  0  0  0  0  0  0  0  0  0
   -6.3461   -4.3243    0.0000 H   0  0  0  0  0  0  0  0  0  0  0  0
   -6.6971   -2.7286    0.0000 H   0  0  0  0  0  0  0  0  0  0  0  0
   -2.8772   -4.8913    0.0000 H   0  0  0  0  0  0  0  0  0  0  0  0
   -3.2283   -3.2956    0.0000 H   0  0  0  0  0  0  0  0  0  0  0  0
   -5.6498   -6.9821    0.0000 H   0  0  0  0  0  0  0  0  0  0  0  0
   -6.1389   -5.2660    0.0000 H   0  0  0  0  0  0  0  0  0  0  0  0
   -4.1766   -8.3309    0.0000 H   0  0  0  0  0  0  0  0  0  0  0  0
   -2.3938   -7.5959    0.0000 H   0  0  0  0  0  0  0  0  0  0  0  0
   -2.6700   -5.8330    0.0000 H   0  0  0  0  0  0  0  0  0  0  0  0
   -3.0102   -2.0895    0.0000 H   0  0  0  0  0  0  0  0  0  0  0  0
   -3.0006    1.3018    0.0000 H   0  0  0  0  0  0  0  0  0  0  0  0
    0.3319    1.9060    0.0000 H   0  0  0  0  0  0  0  0  0  0  0  0
   -0.6205    2.8126    0.0000 H   0  0  0  0  0  0  0  0  0  0  0  0
   -2.5319    1.7353    0.0000 H   0  0  0  0  0  0  0  0  0  0  0  0
    0.5438    1.8020    0.0000 H   0  0  0  0  0  0  0  0  0  0  0  0
    0.7976   -1.7577    0.0000 H   0  0  0  0  0  0  0  0  0  0  0  0
    1.4402   -3.0806    0.0000 H   0  0  0  0  0  0  0  0  0  0  0  0
    1.6637   -3.6640    0.0000 H   0  0  0  0  0  0  0  0  0  0  0  0
    2.4427   -4.4979    0.0000 H   0  0  0  0  0  0  0  0  0  0  0  0
    2.8958   -4.9042    0.0000 H   0  0  0  0  0  0  0  0  0  0  0  0
    4.1720   -5.6352    0.0000 H   0  0  0  0  0  0  0  0  0  0  0  0
    5.1286   -6.2036    0.0000 H   0  0  0  0  0  0  0  0  0  0  0  0
    0.5628   -2.8302    0.0000 H   0  0  0  0  0  0  0  0  0  0  0  0
   -0.5844   -1.9404    0.0000 H   0  0  0  0  0  0  0  0  0  0  0  0
   -0.2166   -0.1752    0.0000 H   0  0  0  0  0  0  0  0  0  0  0  0
    1.2352    3.2393    0.0000 H   0  0  0  0  0  0  0  0  0  0  0  0
    1.9710    3.8648    0.0000 H   0  0  0  0  0  0  0  0  0  0  0  0
    3.5903    6.6144    0.0000 H   0  0  0  0  0  0  0  0  0  0  0  0
    4.6253    5.5604    0.0000 H   0  0  0  0  0  0  0  0  0  0  0  0
    0.2584    5.6359    0.0000 H   0  0  0  0  0  0  0  0  0  0  0  0
    1.3441    4.2198    0.0000 H   0  0  0  0  0  0  0  0  0  0  0  0
    1.7077    8.6155    0.0000 H   0  0  0  0  0  0  0  0  0  0  0  0
    2.9580    7.3423    0.0000 H   0  0  0  0  0  0  0  0  0  0  0  0
   -1.0780    6.6393    0.0000 H   0  0  0  0  0  0  0  0  0  0  0  0
   -1.9350   11.0570    0.0000 H   0  0  0  0  0  0  0  0  0  0  0  0
   -2.7818    8.6007    0.0000 H   0  0  0  0  0  0  0  0  0  0  0  0
    0.6155   11.5517    0.0000 H   0  0  0  0  0  0  0  0  0  0  0  0
    2.3193    9.5903    0.0000 H   0  0  0  0  0  0  0  0  0  0  0  0
    5.8634    6.5119    0.0000 H   0  0  0  0  0  0  0  0  0  0  0  0
    6.8113    6.3266    0.0000 H   0  0  0  0  0  0  0  0  0  0  0  0
    9.9705    6.7749    0.0000 H   0  0  0  0  0  0  0  0  0  0  0  0
    9.7918    5.3086    0.0000 H   0  0  0  0  0  0  0  0  0  0  0  0
    6.6979    7.0380    0.0000 H   0  0  0  0  0  0  0  0  0  0  0  0
    8.7306   10.2189    0.0000 H   0  0  0  0  0  0  0  0  0  0  0  0
   10.3614    9.4945    0.0000 H   0  0  0  0  0  0  0  0  0  0  0  0
   10.1454    7.7231    0.0000 H   0  0  0  0  0  0  0  0  0  0  0  0
    7.4770   10.2287    0.0000 H   0  0  0  0  0  0  0  0  0  0  0  0
    5.8351    9.5300    0.0000 H   0  0  0  0  0  0  0  0  0  0  0  0
    6.1550    7.6284    0.0000 H   0  0  0  0  0  0  0  0  0  0  0  0
   11.1641    5.0475    0.0000 H   0  0  0  0  0  0  0  0  0  0  0  0
   11.9229    4.0066    0.0000 H   0  0  0  0  0  0  0  0  0  0  0  0
   14.1526    2.0522    0.0000 H   0  0  0  0  0  0  0  0  0  0  0  0
   12.8162    1.1122    0.0000 H   0  0  0  0  0  0  0  0  0  0  0  0
   15.7590    2.5128    0.0000 H   0  0  0  0  0  0  0  0  0  0  0  0
   17.3434    5.0603    0.0000 H   0  0  0  0  0  0  0  0  0  0  0  0
   15.9294    7.7062    0.0000 H   0  0  0  0  0  0  0  0  0  0  0  0
   12.9310    7.8045    0.0000 H   0  0  0  0  0  0  0  0  0  0  0  0
   11.3638    5.4394    0.0000 H   0  0  0  0  0  0  0  0  0  0  0  0
   13.4683   -0.3066    0.0000 H   0  0  0  0  0  0  0  0  0  0  0  0
   11.4363   -4.4131    0.0000 H   0  0  0  0  0  0  0  0  0  0  0  0
   12.3548   -3.4815    0.0000 H   0  0  0  0  0  0  0  0  0  0  0  0
   10.0976   -5.5183    0.0000 H   0  0  0  0  0  0  0  0  0  0  0  0
   11.0677   -4.9177    0.0000 H   0  0  0  0  0  0  0  0  0  0  0  0
    8.1307   -6.1630    0.0000 H   0  0  0  0  0  0  0  0  0  0  0  0
    9.5538   -5.7917    0.0000 H   0  0  0  0  0  0  0  0  0  0  0  0
    7.0586   -6.4609    0.0000 H   0  0  0  0  0  0  0  0  0  0  0  0
   14.3766   -2.1955    0.0000 H   0  0  0  0  0  0  0  0  0  0  0  0
   14.2860   -0.4134    0.0000 H   0  0  0  0  0  0  0  0  0  0  0  0
   12.9078    0.1182    0.0000 H   0  0  0  0  0  0  0  0  0  0  0  0
   14.8051   -1.4209    0.0000 H   0  0  0  0  0  0  0  0  0  0  0  0
   13.6043   -4.5925    0.0000 H   0  0  0  0  0  0  0  0  0  0  0  0
   16.1183   -6.6586    0.0000 H   0  0  0  0  0  0  0  0  0  0  0  0
   16.8386   -5.0260    0.0000 H   0  0  0  0  0  0  0  0  0  0  0  0
   14.7773   -7.8838    0.0000 H   0  0  0  0  0  0  0  0  0  0  0  0
   16.9093   -6.3863    0.0000 H   0  0  0  0  0  0  0  0  0  0  0  0
   18.3894   -3.3351    0.0000 H   0  0  0  0  0  0  0  0  0  0  0  0
   21.1893   -3.0065    0.0000 H   0  0  0  0  0  0  0  0  0  0  0  0
   19.2641   -2.8953    0.0000 H   0  0  0  0  0  0  0  0  0  0  0  0
   20.0794   -7.2514    0.0000 H   0  0  0  0  0  0  0  0  0  0  0  0
   22.4945   -8.7405    0.0000 H   0  0  0  0  0  0  0  0  0  0  0  0
   26.5150   -6.7190    0.0000 H   0  0  0  0  0  0  0  0  0  0  0  0
   25.3479   -4.3978    0.0000 H   0  0  0  0  0  0  0  0  0  0  0  0
   22.8407   -2.7504    0.0000 H   0  0  0  0  0  0  0  0  0  0  0  0
  1  2  1  0
  2  3  1  0
  3  4  2  0
  4  5  1  0
  5  6  2  0
  6  7  1  0
  7  8  2  0
  7  9  1  0
  9 10  1  0
 10 11  1  0
 11 12  2  0
  9 13  1  0
 13 14  1  0
 14 15  2  0
 15 16  1  0
 16 17  2  0
 17 18  1  0
 16 19  1  0
 14 20  1  0
 20 21  1  0
 21 22  2  0
 22 23  1  0
 23 24  2  0
 24 25  1  0
 25 26  2  0
 25 27  1  0
  1 28  2  0
  1 29  1  0
 29 30  1  0
 30 31  1  0
 31 32  1  0
 32 33  2  0
 32 34  1  0
 34 35  1  0
 35 36  1  0
 36 37  1  0
 37 38  1  0
 38 39  1  0
 39 40  1  0
 40 41  2  3
 40 42  1  0
 35 43  1  0
 43 44  2  0
 43 45  1  0
 45 46  1  0
 46 47  1  0
 47 48  1  0
 48 49  1  0
 49 50  1  0
 50 51  1  0
 46 52  1  0
 52 53  2  0
 52 54  1  0
 54 55  1  0
 55 56  1  0
 55 57  1  0
 57 58  2  0
 57 59  1  0
 60 59  1  6
 60 61  1  0
 61 62  1  0
 62 63  1  0
 63 64  1  0
 60 65  1  0
 60 66  1  0
 66 67  2  0
 66 68  1  0
 68 69  1  0
 69 70  1  0
 70 71  1  0
 71 72  1  0
 72 73  1  0
 73 74  1  0
 74 75  2  3
 74 76  1  0
 69 77  1  0
 77 78  2  0
 77 79  1  0
 79 80  1  0
 80 81  1  0
 81 82  1  0
 82 83  1  0
 82 84  1  0
 80 85  1  0
 85 86  2  0
 85 87  1  0
 87 88  1  0
 88 89  1  0
 89 90  1  0
 90 91  2  0
 91 92  1  0
 92 93  2  0
 93 94  1  0
 94 95  2  0
 88 96  1  0
 96 97  2  0
 96 98  1  0
 98 99  1  0
 99100  1  0
100101  1  0
101102  1  0
102103  1  0
 99104  1  0
 99105  1  6
105106  2  0
105107  1  0
107108  1  0
108109  1  0
109110  1  0
108111  1  0
111112  2  0
111113  1  0
113114  1  0
114115  1  0
115116  1  0
116117  2  0
117118  1  0
118119  2  0
119120  1  0
119121  1  0
121122  2  0
114123  1  0
123124  2  0
123125  1  0
  8  3  1  0
 95 90  1  0
122116  1  0
 11  6  1  0
 18 13  2  0
 64103  2  0
 22  9  1  0
 26 21  1  0
  2126  1  0
  4127  1  0
  5128  1  0
  8129  1  0
 15130  1  0
 17131  1  0
 18132  1  0
 19133  1  0
 23134  1  0
 24135  1  0
 26136  1  0
 27137  1  0
 29138  1  0
 30139  1  0
 30140  1  0
 31141  1  0
 31142  1  0
 34143  1  0
 35144  1  1
 36145  1  0
 36146  1  0
 37147  1  0
 37148  1  0
 38149  1  0
 38150  1  0
 39151  1  0
 41152  1  0
 41153  1  0
 42154  1  0
 42155  1  0
 45156  1  0
 46157  1  6
 47158  1  0
 47159  1  0
 48160  1  0
 48161  1  0
 49162  1  0
 49163  1  0
 50164  1  0
 50165  1  0
 51166  1  0
 51167  1  0
 51168  1  0
 54169  1  0
 55170  1  1
 56171  1  0
 56172  1  0
 56173  1  0
 59174  1  0
 61175  1  0
 61176  1  0
 62177  1  0
 62178  1  0
 63179  1  0
 63180  1  0
 64181  1  0
 65182  1  0
 65183  1  0
 65184  1  0
 68185  1  0
 69186  1  1
 70187  1  0
 70188  1  0
 71189  1  0
 71190  1  0
 72191  1  0
 72192  1  0
 73193  1  0
 75194  1  0
 75195  1  0
 76196  1  0
 76197  1  0
 79198  1  0
 80199  1  1
 81200  1  0
 81201  1  0
 82202  1  0
 83203  1  0
 83204  1  0
 83205  1  0
 84206  1  0
 84207  1  0
 84208  1  0
 87209  1  0
 88210  1  1
 89211  1  0
 89212  1  0
 91213  1  0
 92214  1  0
 93215  1  0
 94216  1  0
 95217  1  0
 98218  1  0
100219  1  0
100220  1  0
101221  1  0
101222  1  0
102223  1  0
102224  1  0
103225  1  0
104226  1  0
104227  1  0
104228  1  0
107229  1  0
108230  1  6
109231  1  0
109232  1  0
110233  1  0
113234  1  0
114235  1  1
115236  1  0
115237  1  0
117238  1  0
118239  1  0
120240  1  0
121241  1  0
122242  1  0
M  CHG  4  41   1  51   1  75   1 125  -1
M  END
