
     RDKit          2D

311315  0  0  0  0  0  0  0  0999 V2000
  -26.7836   -1.5247    0.0000 N   0  0  0  0  0  0  0  0  0  0  0  0
  -25.3541   -1.9790    0.0000 C   0  0  0  0  0  0  0  0  0  0  0  0
  -24.2459   -0.9681    0.0000 C   0  0  0  0  0  0  0  0  0  0  0  0
  -22.8163   -1.4224    0.0000 C   0  0  0  0  0  0  0  0  0  0  0  0
  -22.7026   -2.6321    0.0000 O   0  0  0  0  0  0  0  0  0  0  0  0
  -21.7081   -0.4115    0.0000 N   0  0  0  0  0  0  0  0  0  0  0  0
  -20.2786   -0.8658    0.0000 C   0  0  0  0  0  0  0  0  0  0  0  0
  -20.9742   -2.1948    0.0000 C   0  0  0  0  0  0  0  0  0  0  0  0
  -20.1711   -3.4617    0.0000 C   0  0  0  0  0  0  0  0  0  0  0  0
  -20.8667   -4.7906    0.0000 C   0  0  0  0  0  0  0  0  0  0  0  0
  -18.9831   -4.3775    0.0000 C   0  0  0  0  0  0  0  0  0  0  0  0
  -18.7799   -0.8038    0.0000 C   0  0  0  0  0  0  0  0  0  0  0  0
  -17.9768   -2.0707    0.0000 O   0  0  0  0  0  0  0  0  0  0  0  0
  -18.0842    0.5252    0.0000 N   0  0  0  0  0  0  0  0  0  0  0  0
  -16.5855    0.5872    0.0000 C   0  0  0  0  0  0  0  0  0  0  0  0
  -16.9069    2.0524    0.0000 C   0  0  0  0  0  0  0  0  0  0  0  0
  -18.2704    2.6775    0.0000 O   0  0  0  0  0  0  0  0  0  0  0  0
  -15.1560    0.1329    0.0000 C   0  0  0  0  0  0  0  0  0  0  0  0
  -15.0156   -1.3605    0.0000 O   0  0  0  0  0  0  0  0  0  0  0  0
  -14.0478    1.1438    0.0000 N   0  0  0  0  0  0  0  0  0  0  0  0
  -12.6182    0.6895    0.0000 C   0  0  0  0  0  0  0  0  0  0  0  0
  -12.0129   -0.6829    0.0000 C   0  0  0  0  0  0  0  0  0  0  0  0
  -11.0300   -1.8160    0.0000 C   0  0  0  0  0  0  0  0  0  0  0  0
   -9.7567   -2.6090    0.0000 C   0  0  0  0  0  0  0  0  0  0  0  0
   -8.3063   -2.9914    0.0000 C   0  0  0  0  0  0  0  0  0  0  0  0
  -13.7488   -0.2962    0.0000 C   0  0  0  0  0  0  0  0  0  0  0  0
  -12.7921    2.1794    0.0000 C   0  0  0  0  0  0  0  0  0  0  0  0
  -13.8724    2.3489    0.0000 O   0  0  0  0  0  0  0  0  0  0  0  0
  -12.5191    3.6544    0.0000 N   0  0  0  0  0  0  0  0  0  0  0  0
  -11.8235    4.9833    0.0000 C   0  0  0  0  0  0  0  0  0  0  0  0
  -13.3209    5.0708    0.0000 C   0  0  0  0  0  0  0  0  0  0  0  0
  -13.9939    6.4114    0.0000 C   0  0  0  0  0  0  0  0  0  0  0  0
  -15.4913    6.4989    0.0000 C   0  0  0  0  0  0  0  0  0  0  0  0
  -16.1643    7.8394    0.0000 O   0  0  0  0  0  0  0  0  0  0  0  0
  -16.3158    5.2458    0.0000 O   0  0  0  0  0  0  0  0  0  0  0  0
  -10.7670    6.0482    0.0000 C   0  0  0  0  0  0  0  0  0  0  0  0
  -11.6625    7.2515    0.0000 O   0  0  0  0  0  0  0  0  0  0  0  0
   -9.4436    6.7544    0.0000 N   0  0  0  0  0  0  0  0  0  0  0  0
   -7.9709    7.0391    0.0000 C   0  0  0  0  0  0  0  0  0  0  0  0
   -8.8362    8.2644    0.0000 C   0  0  0  0  0  0  0  0  0  0  0  0
  -10.0683    9.1198    0.0000 O   0  0  0  0  0  0  0  0  0  0  0  0
   -8.2076    9.6263    0.0000 C   0  0  0  0  0  0  0  0  0  0  0  0
   -6.4797    6.8771    0.0000 C   0  0  0  0  0  0  0  0  0  0  0  0
   -6.0972    8.3275    0.0000 O   0  0  0  0  0  0  0  0  0  0  0  0
   -5.1025    6.2827    0.0000 N   0  0  0  0  0  0  0  0  0  0  0  0
   -3.9616    5.3088    0.0000 C   0  0  0  0  0  0  0  0  0  0  0  0
   -3.5431    6.7492    0.0000 C   0  0  0  0  0  0  0  0  0  0  0  0
   -4.5813    7.8319    0.0000 C   0  0  0  0  0  0  0  0  0  0  0  0
   -4.1628    9.2723    0.0000 C   0  0  0  0  0  0  0  0  0  0  0  0
   -5.2010   10.3550    0.0000 C   0  0  0  0  0  0  0  0  0  0  0  0
   -6.6577    9.9972    0.0000 C   0  0  0  0  0  0  0  0  0  0  0  0
   -7.0762    8.5568    0.0000 C   0  0  0  0  0  0  0  0  0  0  0  0
   -6.0380    7.4741    0.0000 C   0  0  0  0  0  0  0  0  0  0  0  0
   -3.1585    4.0419    0.0000 C   0  0  0  0  0  0  0  0  0  0  0  0
   -2.2310    5.2208    0.0000 O   0  0  0  0  0  0  0  0  0  0  0  0
   -2.7646    2.5946    0.0000 N   0  0  0  0  0  0  0  0  0  0  0  0
   -2.8147    1.0954    0.0000 C   0  0  0  0  0  0  0  0  0  0  0  0
   -3.3045   -0.3224    0.0000 C   0  0  0  0  0  0  0  0  0  0  0  0
   -4.1904   -1.5328    0.0000 C   0  0  0  0  0  0  0  0  0  0  0  0
   -5.3937   -2.4283    0.0000 C   0  0  0  0  0  0  0  0  0  0  0  0
   -6.8076   -2.9294    0.0000 C   0  0  0  0  0  0  0  0  0  0  0  0
   -1.7510    2.2823    0.0000 C   0  0  0  0  0  0  0  0  0  0  0  0
   -1.1336    3.5019    0.0000 C   0  0  0  0  0  0  0  0  0  0  0  0
   -0.2965    4.5826    0.0000 C   0  0  0  0  0  0  0  0  0  0  0  0
    0.7299    5.4853    0.0000 C   0  0  0  0  0  0  0  0  0  0  0  0
   -2.2463   -0.3937    0.0000 C   0  0  0  0  0  0  0  0  0  0  0  0
   -4.4462   -0.4099    0.0000 O   0  0  0  0  0  0  0  0  0  0  0  0
   -2.1063   -1.7534    0.0000 N   0  0  0  0  0  0  0  0  0  0  0  0
   -1.7115   -3.0621    0.0000 C   0  0  0  0  0  0  0  0  0  0  0  0
   -3.2399   -4.5415    0.0000 C   0  0  0  0  0  0  0  0  0  0  0  0
   -2.6284   -5.9111    0.0000 C   0  0  0  0  0  0  0  0  0  0  0  0
   -3.5088   -7.1256    0.0000 O   0  0  0  0  0  0  0  0  0  0  0  0
   -1.2183   -6.4228    0.0000 O   0  0  0  0  0  0  0  0  0  0  0  0
   -1.0762   -4.2724    0.0000 C   0  0  0  0  0  0  0  0  0  0  0  0
   -2.1300   -5.2451    0.0000 O   0  0  0  0  0  0  0  0  0  0  0  0
   -0.2233   -5.3406    0.0000 N   0  0  0  0  0  0  0  0  0  0  0  0
    0.8163   -6.2281    0.0000 C   0  0  0  0  0  0  0  0  0  0  0  0
    0.3304   -8.2989    0.0000 C   0  0  0  0  0  0  0  0  0  0  0  0
   -1.0087   -8.9749    0.0000 C   0  0  0  0  0  0  0  0  0  0  0  0
   -1.0928  -10.4726    0.0000 C   0  0  0  0  0  0  0  0  0  0  0  0
   -2.4982   -9.1522    0.0000 C   0  0  0  0  0  0  0  0  0  0  0  0
    2.0051   -6.9028    0.0000 C   0  0  0  0  0  0  0  0  0  0  0  0
    1.2774   -8.9752    0.0000 O   0  0  0  0  0  0  0  0  0  0  0  0
    3.3001   -7.3403    0.0000 N   0  0  0  0  0  0  0  0  0  0  0  0
    4.6545   -7.5249    0.0000 C   0  0  0  0  0  0  0  0  0  0  0  0
    5.3653   -9.5297    0.0000 C   0  0  0  0  0  0  0  0  0  0  0  0
    4.6043  -10.8223    0.0000 C   0  0  0  0  0  0  0  0  0  0  0  0
    3.1112  -10.9664    0.0000 C   0  0  0  0  0  0  0  0  0  0  0  0
    2.7869  -12.4309    0.0000 N   0  0  0  0  0  0  0  0  0  0  0  0
    4.0795  -13.1919    0.0000 C   0  0  0  0  0  0  0  0  0  0  0  0
    4.3789  -14.6618    0.0000 C   0  0  0  0  0  0  0  0  0  0  0  0
    5.8015  -15.1374    0.0000 C   0  0  0  0  0  0  0  0  0  0  0  0
    6.9247  -14.1432    0.0000 C   0  0  0  0  0  0  0  0  0  0  0  0
    6.6253  -12.6734    0.0000 C   0  0  0  0  0  0  0  0  0  0  0  0
    5.2027  -12.1978    0.0000 C   0  0  0  0  0  0  0  0  0  0  0  0
    6.0193   -7.4498    0.0000 C   0  0  0  0  0  0  0  0  0  0  0  0
    6.5276   -9.5866    0.0000 O   0  0  0  0  0  0  0  0  0  0  0  0
    7.3453   -7.1177    0.0000 N   0  0  0  0  0  0  0  0  0  0  0  0
    8.5845   -6.5407    0.0000 C   0  0  0  0  0  0  0  0  0  0  0  0
   10.2663   -7.8430    0.0000 C   0  0  0  0  0  0  0  0  0  0  0  0
   10.3250   -9.3418    0.0000 C   0  0  0  0  0  0  0  0  0  0  0  0
   11.6523  -10.0405    0.0000 C   0  0  0  0  0  0  0  0  0  0  0  0
   11.7110  -11.5393    0.0000 C   0  0  0  0  0  0  0  0  0  0  0  0
   13.0384  -12.2380    0.0000 N   0  0  0  0  0  0  0  0  0  0  0  0
    9.6921   -5.7396    0.0000 C   0  0  0  0  0  0  0  0  0  0  0  0
   11.2749   -7.2625    0.0000 O   0  0  0  0  0  0  0  0  0  0  0  0
   10.6280   -4.7434    0.0000 N   0  0  0  0  0  0  0  0  0  0  0  0
   11.3585   -3.5881    0.0000 C   0  0  0  0  0  0  0  0  0  0  0  0
   13.4774   -3.7743    0.0000 C   0  0  0  0  0  0  0  0  0  0  0  0
   14.3371   -5.0035    0.0000 C   0  0  0  0  0  0  0  0  0  0  0  0
   15.8315   -4.8736    0.0000 C   0  0  0  0  0  0  0  0  0  0  0  0
   14.7245   -6.4526    0.0000 C   0  0  0  0  0  0  0  0  0  0  0  0
   11.8572   -2.3154    0.0000 C   0  0  0  0  0  0  0  0  0  0  0  0
   14.0121   -2.7407    0.0000 O   0  0  0  0  0  0  0  0  0  0  0  0
   12.1060   -0.9713    0.0000 N   0  0  0  0  0  0  0  0  0  0  0  0
   12.0959    0.3956    0.0000 C   0  0  0  0  0  0  0  0  0  0  0  0
   13.9791    1.3845    0.0000 C   0  0  0  0  0  0  0  0  0  0  0  0
   15.3669    0.8152    0.0000 C   0  0  0  0  0  0  0  0  0  0  0  0
   16.5538    1.7324    0.0000 C   0  0  0  0  0  0  0  0  0  0  0  0
   16.4763   -0.1944    0.0000 C   0  0  0  0  0  0  0  0  0  0  0  0
   11.8273    1.7359    0.0000 C   0  0  0  0  0  0  0  0  0  0  0  0
   13.8701    2.5431    0.0000 O   0  0  0  0  0  0  0  0  0  0  0  0
   11.3099    3.0011    0.0000 N   0  0  0  0  0  0  0  0  0  0  0  0
   10.5625    4.1456    0.0000 C   0  0  0  0  0  0  0  0  0  0  0  0
    9.6119    5.1279    0.0000 C   0  0  0  0  0  0  0  0  0  0  0  0
    8.4926    5.9125    0.0000 C   0  0  0  0  0  0  0  0  0  0  0  0
    7.2451    6.4712    0.0000 C   0  0  0  0  0  0  0  0  0  0  0  0
    5.9143    6.7836    0.0000 C   0  0  0  0  0  0  0  0  0  0  0  0
    4.5485    6.8386    0.0000 C   0  0  0  0  0  0  0  0  0  0  0  0
    3.1970    6.6341    0.0000 C   0  0  0  0  0  0  0  0  0  0  0  0
    1.9086    6.1775    0.0000 C   0  0  0  0  0  0  0  0  0  0  0  0
   12.5990    4.7596    0.0000 C   0  0  0  0  0  0  0  0  0  0  0  0
   11.6121    5.9956    0.0000 C   0  0  0  0  0  0  0  0  0  0  0  0
   10.9447    7.3389    0.0000 O   0  0  0  0  0  0  0  0  0  0  0  0
   13.0874    6.2670    0.0000 N   0  0  0  0  0  0  0  0  0  0  0  0
   13.5900    7.6803    0.0000 C   0  0  0  0  0  0  0  0  0  0  0  0
   13.5789    9.1802    0.0000 C   0  0  0  0  0  0  0  0  0  0  0  0
   14.8724    9.9398    0.0000 C   0  0  0  0  0  0  0  0  0  0  0  0
   14.8613   11.4397    0.0000 C   0  0  0  0  0  0  0  0  0  0  0  0
   15.8262   12.1781    0.0000 O   0  0  0  0  0  0  0  0  0  0  0  0
   13.5568   12.1801    0.0000 O   0  0  0  0  0  0  0  0  0  0  0  0
   15.0652    7.9516    0.0000 C   0  0  0  0  0  0  0  0  0  0  0  0
   16.0379    6.8097    0.0000 O   0  0  0  0  0  0  0  0  0  0  0  0
   15.5679    9.3649    0.0000 N   0  0  0  0  0  0  0  0  0  0  0  0
   17.0431    9.6363    0.0000 C   0  0  0  0  0  0  0  0  0  0  0  0
   18.5222    9.3867    0.0000 C   0  0  0  0  0  0  0  0  0  0  0  0
   19.0456    7.9810    0.0000 C   0  0  0  0  0  0  0  0  0  0  0  0
   20.5247    7.7314    0.0000 N   0  0  0  0  0  0  0  0  0  0  0  0
   18.0899    6.8248    0.0000 O   0  0  0  0  0  0  0  0  0  0  0  0
   17.5457   11.0495    0.0000 C   0  0  0  0  0  0  0  0  0  0  0  0
   18.9769   11.4987    0.0000 O   0  0  0  0  0  0  0  0  0  0  0  0
   16.8765   12.0636    0.0000 O   0  0  0  0  0  0  0  0  0  0  0  0
  -27.8918   -2.5356    0.0000 H   0  0  0  0  0  0  0  0  0  0  0  0
  -27.1050   -0.0596    0.0000 H   0  0  0  0  0  0  0  0  0  0  0  0
  -26.0497   -3.3080    0.0000 H   0  0  0  0  0  0  0  0  0  0  0  0
  -24.1661   -2.8949    0.0000 H   0  0  0  0  0  0  0  0  0  0  0  0
  -25.4339   -0.0523    0.0000 H   0  0  0  0  0  0  0  0  0  0  0  0
  -23.5503    0.3608    0.0000 H   0  0  0  0  0  0  0  0  0  0  0  0
  -22.0295    1.0536    0.0000 H   0  0  0  0  0  0  0  0  0  0  0  0
  -20.0794    0.6209    0.0000 H   0  0  0  0  0  0  0  0  0  0  0  0
  -21.8718   -3.0136    0.0000 H   0  0  0  0  0  0  0  0  0  0  0  0
  -21.9760   -1.7565    0.0000 H   0  0  0  0  0  0  0  0  0  0  0  0
  -19.0629   -2.4508    0.0000 H   0  0  0  0  0  0  0  0  0  0  0  0
  -20.2241   -6.1460    0.0000 H   0  0  0  0  0  0  0  0  0  0  0  0
  -21.9749   -5.8015    0.0000 H   0  0  0  0  0  0  0  0  0  0  0  0
  -22.1575   -4.0264    0.0000 H   0  0  0  0  0  0  0  0  0  0  0  0
  -18.9996   -5.8774    0.0000 H   0  0  0  0  0  0  0  0  0  0  0  0
  -17.5536   -4.8318    0.0000 H   0  0  0  0  0  0  0  0  0  0  0  0
  -18.2875   -3.0486    0.0000 H   0  0  0  0  0  0  0  0  0  0  0  0
  -19.0358    1.6847    0.0000 H   0  0  0  0  0  0  0  0  0  0  0  0
  -16.7847   -0.8995    0.0000 H   0  0  0  0  0  0  0  0  0  0  0  0
  -16.7077    3.5391    0.0000 H   0  0  0  0  0  0  0  0  0  0  0  0
  -15.4082    2.1144    0.0000 H   0  0  0  0  0  0  0  0  0  0  0  0
  -18.6578    3.9718    0.0000 H   0  0  0  0  0  0  0  0  0  0  0  0
  -14.4105    2.1754    0.0000 H   0  0  0  0  0  0  0  0  0  0  0  0
  -12.6414   -2.0449    0.0000 H   0  0  0  0  0  0  0  0  0  0  0  0
  -13.5032   -0.8531    0.0000 H   0  0  0  0  0  0  0  0  0  0  0  0
  -11.4089   -3.2673    0.0000 H   0  0  0  0  0  0  0  0  0  0  0  0
  -12.4039   -2.4179    0.0000 H   0  0  0  0  0  0  0  0  0  0  0  0
   -9.5088   -4.0883    0.0000 H   0  0  0  0  0  0  0  0  0  0  0  0
  -10.8922   -3.5891    0.0000 H   0  0  0  0  0  0  0  0  0  0  0  0
   -8.4683   -4.4827    0.0000 H   0  0  0  0  0  0  0  0  0  0  0  0
  -15.0915   -0.4463    0.0000 H   0  0  0  0  0  0  0  0  0  0  0  0
  -13.9914   -1.8595    0.0000 H   0  0  0  0  0  0  0  0  0  0  0  0
  -12.7712   -1.6608    0.0000 H   0  0  0  0  0  0  0  0  0  0  0  0
  -13.9369    4.1441    0.0000 H   0  0  0  0  0  0  0  0  0  0  0  0
  -12.1848    6.4391    0.0000 H   0  0  0  0  0  0  0  0  0  0  0  0
  -14.7580    4.6409    0.0000 H   0  0  0  0  0  0  0  0  0  0  0  0
  -13.5127    3.5831    0.0000 H   0  0  0  0  0  0  0  0  0  0  0  0
  -14.1677    7.9013    0.0000 H   0  0  0  0  0  0  0  0  0  0  0  0
  -12.6199    7.0133    0.0000 H   0  0  0  0  0  0  0  0  0  0  0  0
   -9.9447    8.1682    0.0000 H   0  0  0  0  0  0  0  0  0  0  0  0
   -7.3732    8.4148    0.0000 H   0  0  0  0  0  0  0  0  0  0  0  0
  -10.1189    7.4868    0.0000 H   0  0  0  0  0  0  0  0  0  0  0  0
  -10.1267   10.6187    0.0000 H   0  0  0  0  0  0  0  0  0  0  0  0
   -8.9171   10.9480    0.0000 H   0  0  0  0  0  0  0  0  0  0  0  0
   -7.2889   10.8121    0.0000 H   0  0  0  0  0  0  0  0  0  0  0  0
   -6.7507    9.2694    0.0000 H   0  0  0  0  0  0  0  0  0  0  0  0
   -4.6411    7.7100    0.0000 H   0  0  0  0  0  0  0  0  0  0  0  0
   -2.5133    5.6992    0.0000 H   0  0  0  0  0  0  0  0  0  0  0  0
   -2.6572    7.9597    0.0000 H   0  0  0  0  0  0  0  0  0  0  0  0
   -2.1266    6.2559    0.0000 H   0  0  0  0  0  0  0  0  0  0  0  0
   -2.7061    9.6301    0.0000 H   0  0  0  0  0  0  0  0  0  0  0  0
   -4.7825   11.7954    0.0000 H   0  0  0  0  0  0  0  0  0  0  0  0
   -7.5562   11.1983    0.0000 H   0  0  0  0  0  0  0  0  0  0  0  0
   -8.5762    8.5621    0.0000 H   0  0  0  0  0  0  0  0  0  0  0  0
   -6.4565    6.0337    0.0000 H   0  0  0  0  0  0  0  0  0  0  0  0
   -1.2747    2.7684    0.0000 H   0  0  0  0  0  0  0  0  0  0  0  0
   -1.8107   -0.1857    0.0000 H   0  0  0  0  0  0  0  0  0  0  0  0
   -2.7302   -1.7081    0.0000 H   0  0  0  0  0  0  0  0  0  0  0  0
   -2.9312   -2.3480    0.0000 H   0  0  0  0  0  0  0  0  0  0  0  0
   -4.2331   -3.0322    0.0000 H   0  0  0  0  0  0  0  0  0  0  0  0
   -4.4308   -3.5785    0.0000 H   0  0  0  0  0  0  0  0  0  0  0  0
   -5.5185   -3.9231    0.0000 H   0  0  0  0  0  0  0  0  0  0  0  0
   -6.5229   -4.4021    0.0000 H   0  0  0  0  0  0  0  0  0  0  0  0
   -3.8780    2.2664    0.0000 H   0  0  0  0  0  0  0  0  0  0  0  0
   -3.1478    3.8396    0.0000 H   0  0  0  0  0  0  0  0  0  0  0  0
   -3.1209    4.4255    0.0000 H   0  0  0  0  0  0  0  0  0  0  0  0
   -2.0339    5.3439    0.0000 H   0  0  0  0  0  0  0  0  0  0  0  0
   -2.1617    5.7053    0.0000 H   0  0  0  0  0  0  0  0  0  0  0  0
   -1.1941    6.5110    0.0000 H   0  0  0  0  0  0  0  0  0  0  0  0
   -0.5594    7.2679    0.0000 H   0  0  0  0  0  0  0  0  0  0  0  0
   -4.0600   -2.6933    0.0000 H   0  0  0  0  0  0  0  0  0  0  0  0
   -3.8579   -3.2596    0.0000 H   0  0  0  0  0  0  0  0  0  0  0  0
   -4.4826   -5.3815    0.0000 H   0  0  0  0  0  0  0  0  0  0  0  0
   -4.6000   -3.9090    0.0000 H   0  0  0  0  0  0  0  0  0  0  0  0
   -1.9234   -6.7313    0.0000 H   0  0  0  0  0  0  0  0  0  0  0  0
   -1.0264   -7.2185    0.0000 H   0  0  0  0  0  0  0  0  0  0  0  0
    0.7636   -9.7350    0.0000 H   0  0  0  0  0  0  0  0  0  0  0  0
    1.8185   -8.4874    0.0000 H   0  0  0  0  0  0  0  0  0  0  0  0
   -1.7765   -7.6863    0.0000 H   0  0  0  0  0  0  0  0  0  0  0  0
   -2.3394  -11.3067    0.0000 H   0  0  0  0  0  0  0  0  0  0  0  0
   -0.6596  -11.9086    0.0000 H   0  0  0  0  0  0  0  0  0  0  0  0
    0.4072  -10.4782    0.0000 H   0  0  0  0  0  0  0  0  0  0  0  0
   -3.2530  -10.4484    0.0000 H   0  0  0  0  0  0  0  0  0  0  0  0
   -3.9585   -8.8093    0.0000 H   0  0  0  0  0  0  0  0  0  0  0  0
   -2.4141   -7.6545    0.0000 H   0  0  0  0  0  0  0  0  0  0  0  0
    2.6217   -9.4294    0.0000 H   0  0  0  0  0  0  0  0  0  0  0  0
    3.7849   -9.4661    0.0000 H   0  0  0  0  0  0  0  0  0  0  0  0
    6.3789  -10.6354    0.0000 H   0  0  0  0  0  0  0  0  0  0  0  0
    6.7190   -8.8837    0.0000 H   0  0  0  0  0  0  0  0  0  0  0  0
    1.9875   -9.9728    0.0000 H   0  0  0  0  0  0  0  0  0  0  0  0
    1.4115  -13.0294    0.0000 H   0  0  0  0  0  0  0  0  0  0  0  0
    3.2557  -15.6560    0.0000 H   0  0  0  0  0  0  0  0  0  0  0  0
    6.1009  -16.6072    0.0000 H   0  0  0  0  0  0  0  0  0  0  0  0
    8.3473  -14.6188    0.0000 H   0  0  0  0  0  0  0  0  0  0  0  0
    7.7485  -11.6792    0.0000 H   0  0  0  0  0  0  0  0  0  0  0  0
    7.9041   -9.2419    0.0000 H   0  0  0  0  0  0  0  0  0  0  0  0
    8.7199   -8.6283    0.0000 H   0  0  0  0  0  0  0  0  0  0  0  0
   11.7526   -8.0455    0.0000 H   0  0  0  0  0  0  0  0  0  0  0  0
   11.0559   -6.5676    0.0000 H   0  0  0  0  0  0  0  0  0  0  0  0
    9.6967  -10.7039    0.0000 H   0  0  0  0  0  0  0  0  0  0  0  0
    8.8339   -9.5050    0.0000 H   0  0  0  0  0  0  0  0  0  0  0  0
   13.1522  -10.0603    0.0000 H   0  0  0  0  0  0  0  0  0  0  0  0
   12.2806   -8.6784    0.0000 H   0  0  0  0  0  0  0  0  0  0  0  0
   11.2535  -12.9678    0.0000 H   0  0  0  0  0  0  0  0  0  0  0  0
   10.2111  -11.5195    0.0000 H   0  0  0  0  0  0  0  0  0  0  0  0
   13.0970  -13.7368    0.0000 H   0  0  0  0  0  0  0  0  0  0  0  0
   14.5246  -12.4405    0.0000 H   0  0  0  0  0  0  0  0  0  0  0  0
   13.6666  -10.8759    0.0000 H   0  0  0  0  0  0  0  0  0  0  0  0
   12.2465   -6.2283    0.0000 H   0  0  0  0  0  0  0  0  0  0  0  0
   12.6011   -5.2710    0.0000 H   0  0  0  0  0  0  0  0  0  0  0  0
   14.8373   -3.1412    0.0000 H   0  0  0  0  0  0  0  0  0  0  0  0
   13.4522   -2.2745    0.0000 H   0  0  0  0  0  0  0  0  0  0  0  0
   13.1709   -5.9469    0.0000 H   0  0  0  0  0  0  0  0  0  0  0  0
   16.8346   -5.9889    0.0000 H   0  0  0  0  0  0  0  0  0  0  0  0
   17.1913   -4.2405    0.0000 H   0  0  0  0  0  0  0  0  0  0  0  0
   15.6236   -3.3881    0.0000 H   0  0  0  0  0  0  0  0  0  0  0  0
   16.1150   -7.0154    0.0000 H   0  0  0  0  0  0  0  0  0  0  0  0
   14.5930   -7.9469    0.0000 H   0  0  0  0  0  0  0  0  0  0  0  0
   13.2302   -6.5825    0.0000 H   0  0  0  0  0  0  0  0  0  0  0  0
   14.2703   -1.3454    0.0000 H   0  0  0  0  0  0  0  0  0  0  0  0
   14.0511   -0.3484    0.0000 H   0  0  0  0  0  0  0  0  0  0  0  0
   14.7808    2.6523    0.0000 H   0  0  0  0  0  0  0  0  0  0  0  0
   13.1470    2.6325    0.0000 H   0  0  0  0  0  0  0  0  0  0  0  0
   14.8959   -0.6089    0.0000 H   0  0  0  0  0  0  0  0  0  0  0  0
   18.0006    1.3365    0.0000 H   0  0  0  0  0  0  0  0  0  0  0  0
   17.3554    3.0002    0.0000 H   0  0  0  0  0  0  0  0  0  0  0  0
   15.5758    2.8697    0.0000 H   0  0  0  0  0  0  0  0  0  0  0  0
   17.9502    0.0839    0.0000 H   0  0  0  0  0  0  0  0  0  0  0  0
   17.1734   -1.5226    0.0000 H   0  0  0  0  0  0  0  0  0  0  0  0
   15.2894   -1.1116    0.0000 H   0  0  0  0  0  0  0  0  0  0  0  0
   13.3330    3.8565    0.0000 H   0  0  0  0  0  0  0  0  0  0  0  0
   10.2925    7.1431    0.0000 H   0  0  0  0  0  0  0  0  0  0  0  0
   11.3426    6.4484    0.0000 H   0  0  0  0  0  0  0  0  0  0  0  0
    8.9626    8.0161    0.0000 H   0  0  0  0  0  0  0  0  0  0  0  0
    9.9422    7.5368    0.0000 H   0  0  0  0  0  0  0  0  0  0  0  0
    7.3085    8.6257    0.0000 H   0  0  0  0  0  0  0  0  0  0  0  0
    8.5014    8.2227    0.0000 H   0  0  0  0  0  0  0  0  0  0  0  0
    5.5689    8.9112    0.0000 H   0  0  0  0  0  0  0  0  0  0  0  0
    6.8165    8.7412    0.0000 H   0  0  0  0  0  0  0  0  0  0  0  0
    3.8066    8.8624    0.0000 H   0  0  0  0  0  0  0  0  0  0  0  0
    5.0639    8.9316    0.0000 H   0  0  0  0  0  0  0  0  0  0  0  0
    1.9502    8.3574    0.0000 H   0  0  0  0  0  0  0  0  0  0  0  0
    3.3069    8.7868    0.0000 H   0  0  0  0  0  0  0  0  0  0  0  0
    0.9799    8.1719    0.0000 H   0  0  0  0  0  0  0  0  0  0  0  0
   13.5062    5.9541    0.0000 H   0  0  0  0  0  0  0  0  0  0  0  0
   14.0593    4.4167    0.0000 H   0  0  0  0  0  0  0  0  0  0  0  0
   12.8798    3.2861    0.0000 H   0  0  0  0  0  0  0  0  0  0  0  0
   14.1919    5.2521    0.0000 H   0  0  0  0  0  0  0  0  0  0  0  0
   12.1109    7.9298    0.0000 H   0  0  0  0  0  0  0  0  0  0  0  0
   13.0555   10.5859    0.0000 H   0  0  0  0  0  0  0  0  0  0  0  0
   12.1037    8.9088    0.0000 H   0  0  0  0  0  0  0  0  0  0  0  0
   16.3476   10.2111    0.0000 H   0  0  0  0  0  0  0  0  0  0  0  0
   15.9946    8.9444    0.0000 H   0  0  0  0  0  0  0  0  0  0  0  0
   14.9004   10.7082    0.0000 H   0  0  0  0  0  0  0  0  0  0  0  0
   17.0542    8.1363    0.0000 H   0  0  0  0  0  0  0  0  0  0  0  0
   19.9974    9.6581    0.0000 H   0  0  0  0  0  0  0  0  0  0  0  0
   18.6941   10.8768    0.0000 H   0  0  0  0  0  0  0  0  0  0  0  0
   21.0481    6.3257    0.0000 H   0  0  0  0  0  0  0  0  0  0  0  0
   21.4804    8.8876    0.0000 H   0  0  0  0  0  0  0  0  0  0  0  0
  1  2  1  0
  2  3  1  0
  3  4  1  0
  4  5  2  0
  4  6  1  0
  6  7  1  0
  7  8  1  0
  8  9  1  0
  9 10  1  0
  9 11  1  0
  7 12  1  0
 12 13  2  0
 12 14  1  0
 14 15  1  0
 15 16  1  0
 16 17  1  0
 15 18  1  0
 18 19  2  0
 18 20  1  0
 21 20  1  6
 21 22  1  0
 22 23  1  0
 23 24  1  0
 24 25  1  0
 21 26  1  0
 21 27  1  0
 27 28  2  0
 27 29  1  0
 29 30  1  0
 30 31  1  0
 31 32  1  0
 32 33  1  0
 33 34  2  0
 33 35  1  0
 30 36  1  0
 36 37  2  0
 36 38  1  0
 38 39  1  0
 39 40  1  0
 40 41  1  0
 40 42  1  0
 39 43  1  0
 43 44  2  0
 43 45  1  0
 45 46  1  0
 46 47  1  0
 47 48  1  0
 48 49  2  0
 49 50  1  0
 50 51  2  0
 51 52  1  0
 52 53  2  0
 46 54  1  0
 54 55  2  0
 54 56  1  0
 56 57  1  0
 57 58  1  0
 58 59  1  0
 59 60  1  0
 60 61  1  0
 57 62  1  0
 62 63  1  0
 63 64  1  0
 64 65  1  0
 57 66  1  0
 66 67  2  0
 66 68  1  0
 68 69  1  0
 69 70  1  0
 70 71  1  0
 71 72  2  0
 71 73  1  0
 69 74  1  0
 74 75  2  0
 74 76  1  0
 76 77  1  0
 77 78  1  0
 78 79  1  0
 79 80  1  0
 79 81  1  0
 77 82  1  0
 82 83  2  0
 82 84  1  0
 84 85  1  0
 85 86  1  0
 86 87  1  0
 87 88  2  0
 88 89  1  0
 89 90  1  0
 90 91  2  0
 91 92  1  0
 92 93  2  0
 93 94  1  0
 94 95  2  0
 85 96  1  0
 96 97  2  0
 96 98  1  0
 98 99  1  0
 99100  1  0
100101  1  0
101102  1  0
102103  1  0
103104  1  0
 99105  1  0
105106  2  0
105107  1  0
107108  1  0
108109  1  0
109110  1  0
110111  1  0
110112  1  0
108113  1  0
113114  2  0
113115  1  0
115116  1  0
116117  1  0
117118  1  0
118119  1  0
118120  1  0
116121  1  0
121122  2  0
121123  1  0
123124  1  0
124125  1  0
125126  1  0
126127  1  0
127128  1  0
128129  1  0
129130  1  0
130131  1  0
124132  1  0
124133  1  1
133134  2  0
133135  1  0
135136  1  0
136137  1  0
137138  1  0
138139  1  0
139140  2  0
139141  1  0
136142  1  0
142143  2  0
142144  1  0
144145  1  0
145146  1  0
146147  1  0
147148  1  0
147149  2  0
145150  1  0
150151  2  0
150152  1  0
 53 48  1  0
 95 87  1  0
 95 90  1  0
 25 61  2  0
 65131  2  0
  1153  1  0
  1154  1  0
  2155  1  0
  2156  1  0
  3157  1  0
  3158  1  0
  6159  1  0
  7160  1  6
  8161  1  0
  8162  1  0
  9163  1  0
 10164  1  0
 10165  1  0
 10166  1  0
 11167  1  0
 11168  1  0
 11169  1  0
 14170  1  0
 15171  1  1
 16172  1  0
 16173  1  0
 17174  1  0
 20175  1  0
 22176  1  0
 22177  1  0
 23178  1  0
 23179  1  0
 24180  1  0
 24181  1  0
 25182  1  0
 26183  1  0
 26184  1  0
 26185  1  0
 29186  1  0
 30187  1  1
 31188  1  0
 31189  1  0
 32190  1  0
 32191  1  0
 38192  1  0
 39193  1  1
 40194  1  1
 41195  1  0
 42196  1  0
 42197  1  0
 42198  1  0
 45199  1  0
 46200  1  1
 47201  1  0
 47202  1  0
 49203  1  0
 50204  1  0
 51205  1  0
 52206  1  0
 53207  1  0
 56208  1  0
 58209  1  0
 58210  1  0
 59211  1  0
 59212  1  0
 60213  1  0
 60214  1  0
 61215  1  0
 62216  1  0
 62217  1  0
 63218  1  0
 63219  1  0
 64220  1  0
 64221  1  0
 65222  1  0
 68223  1  0
 69224  1  6
 70225  1  0
 70226  1  0
 76227  1  0
 77228  1  6
 78229  1  0
 78230  1  0
 79231  1  0
 80232  1  0
 80233  1  0
 80234  1  0
 81235  1  0
 81236  1  0
 81237  1  0
 84238  1  0
 85239  1  6
 86240  1  0
 86241  1  0
 88242  1  0
 89243  1  0
 91244  1  0
 92245  1  0
 93246  1  0
 94247  1  0
 98248  1  0
 99249  1  6
100250  1  0
100251  1  0
101252  1  0
101253  1  0
102254  1  0
102255  1  0
103256  1  0
103257  1  0
104258  1  0
104259  1  0
104260  1  0
107261  1  0
108262  1  6
109263  1  0
109264  1  0
110265  1  0
111266  1  0
111267  1  0
111268  1  0
112269  1  0
112270  1  0
112271  1  0
115272  1  0
116273  1  6
117274  1  0
117275  1  0
118276  1  0
119277  1  0
119278  1  0
119279  1  0
120280  1  0
120281  1  0
120282  1  0
123283  1  0
125284  1  0
125285  1  0
126286  1  0
126287  1  0
127288  1  0
127289  1  0
128290  1  0
128291  1  0
129292  1  0
129293  1  0
130294  1  0
130295  1  0
131296  1  0
132297  1  0
132298  1  0
132299  1  0
135300  1  0
136301  1  1
137302  1  0
137303  1  0
138304  1  0
138305  1  0
144306  1  0
145307  1  6
146308  1  0
146309  1  0
148310  1  0
148311  1  0
M  CHG  5  35  -1  73  -1 104   1 141  -1 152  -1
M  END
