
     RDKit          2D

345352  0  0  0  0  0  0  0  0999 V2000
  -28.6952   -0.1548    0.0000 C   0  0  0  0  0  0  0  0  0  0  0  0
  -29.9411   -0.9901    0.0000 N   0  0  0  0  0  0  0  0  0  0  0  0
  -31.2875   -0.3287    0.0000 C   0  0  0  0  0  0  0  0  0  0  0  0
  -31.3879    1.1679    0.0000 C   0  0  0  0  0  0  0  0  0  0  0  0
  -32.7343    1.8292    0.0000 C   0  0  0  0  0  0  0  0  0  0  0  0
  -33.9802    0.9939    0.0000 C   0  0  0  0  0  0  0  0  0  0  0  0
  -33.8797   -0.5027    0.0000 C   0  0  0  0  0  0  0  0  0  0  0  0
  -32.5334   -1.1640    0.0000 C   0  0  0  0  0  0  0  0  0  0  0  0
  -35.2721   -1.0607    0.0000 C   0  0  0  0  0  0  0  0  0  0  0  0
  -36.2330    0.0911    0.0000 O   0  0  0  0  0  0  0  0  0  0  0  0
  -35.4346    1.3609    0.0000 C   0  0  0  0  0  0  0  0  0  0  0  0
  -35.9926    2.7533    0.0000 O   0  0  0  0  0  0  0  0  0  0  0  0
  -36.7151   -1.4701    0.0000 C   0  0  0  0  0  0  0  0  0  0  0  0
  -37.0821   -2.9245    0.0000 C   0  0  0  0  0  0  0  0  0  0  0  0
  -38.5251   -3.3339    0.0000 C   0  0  0  0  0  0  0  0  0  0  0  0
  -39.6012   -2.2889    0.0000 C   0  0  0  0  0  0  0  0  0  0  0  0
  -39.2343   -0.8345    0.0000 C   0  0  0  0  0  0  0  0  0  0  0  0
  -37.7912   -0.4251    0.0000 C   0  0  0  0  0  0  0  0  0  0  0  0
  -41.0443   -2.6983    0.0000 O   0  0  0  0  0  0  0  0  0  0  0  0
  -36.0060   -3.9695    0.0000 O   0  0  0  0  0  0  0  0  0  0  0  0
  -34.5630   -3.5601    0.0000 C   0  0  0  0  0  0  0  0  0  0  0  0
  -34.1960   -2.1057    0.0000 C   0  0  0  0  0  0  0  0  0  0  0  0
  -32.9242   -2.3750    0.0000 C   0  0  0  0  0  0  0  0  0  0  0  0
  -32.3503   -2.9324    0.0000 C   0  0  0  0  0  0  0  0  0  0  0  0
  -32.5460   -3.7081    0.0000 C   0  0  0  0  0  0  0  0  0  0  0  0
  -33.3156   -3.9264    0.0000 C   0  0  0  0  0  0  0  0  0  0  0  0
  -30.9678   -5.2407    0.0000 O   0  0  0  0  0  0  0  0  0  0  0  0
  -28.7957    1.3419    0.0000 S   0  0  0  0  0  0  0  0  0  0  0  0
  -27.3489   -0.8161    0.0000 N   0  0  0  0  0  0  0  0  0  0  0  0
  -26.1030    0.0192    0.0000 C   0  0  0  0  0  0  0  0  0  0  0  0
  -24.7567   -0.6421    0.0000 C   0  0  0  0  0  0  0  0  0  0  0  0
  -23.5107    0.1931    0.0000 C   0  0  0  0  0  0  0  0  0  0  0  0
  -23.6112    1.6898    0.0000 O   0  0  0  0  0  0  0  0  0  0  0  0
  -22.1644   -0.4682    0.0000 N   0  0  0  0  0  0  0  0  0  0  0  0
  -20.9185    0.3671    0.0000 C   0  0  0  0  0  0  0  0  0  0  0  0
  -20.0334    1.5782    0.0000 C   0  0  0  0  0  0  0  0  0  0  0  0
  -18.5421    1.4172    0.0000 C   0  0  0  0  0  0  0  0  0  0  0  0
  -17.6570    2.6282    0.0000 C   0  0  0  0  0  0  0  0  0  0  0  0
  -16.4421    2.6460    0.0000 O   0  0  0  0  0  0  0  0  0  0  0  0
  -18.2633    4.0002    0.0000 O   0  0  0  0  0  0  0  0  0  0  0  0
  -19.5722   -0.2942    0.0000 C   0  0  0  0  0  0  0  0  0  0  0  0
  -19.4717   -1.7909    0.0000 O   0  0  0  0  0  0  0  0  0  0  0  0
  -18.3263    0.5411    0.0000 N   0  0  0  0  0  0  0  0  0  0  0  0
  -16.9799   -0.1203    0.0000 C   0  0  0  0  0  0  0  0  0  0  0  0
  -15.9410   -1.2022    0.0000 C   0  0  0  0  0  0  0  0  0  0  0  0
  -16.3585   -2.6429    0.0000 C   0  0  0  0  0  0  0  0  0  0  0  0
  -15.3195   -3.7249    0.0000 C   0  0  0  0  0  0  0  0  0  0  0  0
  -15.7370   -5.1656    0.0000 N   0  0  0  0  0  0  0  0  0  0  0  0
  -14.6981   -6.2475    0.0000 C   0  0  0  0  0  0  0  0  0  0  0  0
  -15.1156   -7.6882    0.0000 N   0  0  0  0  0  0  0  0  0  0  0  0
  -13.2416   -5.8887    0.0000 N   0  0  0  0  0  0  0  0  0  0  0  0
  -15.7340    0.7150    0.0000 C   0  0  0  0  0  0  0  0  0  0  0  0
  -15.6670    1.9282    0.0000 O   0  0  0  0  0  0  0  0  0  0  0  0
  -14.3877    0.0537    0.0000 N   0  0  0  0  0  0  0  0  0  0  0  0
  -13.1418    0.8890    0.0000 C   0  0  0  0  0  0  0  0  0  0  0  0
  -12.2567    2.1000    0.0000 C   0  0  0  0  0  0  0  0  0  0  0  0
  -10.7653    1.9390    0.0000 C   0  0  0  0  0  0  0  0  0  0  0  0
   -9.8803    3.1501    0.0000 C   0  0  0  0  0  0  0  0  0  0  0  0
   -9.4190    1.2777    0.0000 C   0  0  0  0  0  0  0  0  0  0  0  0
  -11.7954    0.2276    0.0000 C   0  0  0  0  0  0  0  0  0  0  0  0
  -11.6950   -1.2690    0.0000 O   0  0  0  0  0  0  0  0  0  0  0  0
  -10.5495    1.0629    0.0000 N   0  0  0  0  0  0  0  0  0  0  0  0
   -9.2032    0.4016    0.0000 C   0  0  0  0  0  0  0  0  0  0  0  0
   -8.1642   -0.6803    0.0000 C   0  0  0  0  0  0  0  0  0  0  0  0
   -8.5817   -2.1211    0.0000 C   0  0  0  0  0  0  0  0  0  0  0  0
   -7.5428   -3.2030    0.0000 C   0  0  0  0  0  0  0  0  0  0  0  0
   -7.9603   -4.6437    0.0000 N   0  0  0  0  0  0  0  0  0  0  0  0
   -6.9213   -5.7256    0.0000 C   0  0  0  0  0  0  0  0  0  0  0  0
   -7.3388   -7.1664    0.0000 N   0  0  0  0  0  0  0  0  0  0  0  0
   -5.4649   -5.3668    0.0000 N   0  0  0  0  0  0  0  0  0  0  0  0
   -7.9573    1.2369    0.0000 C   0  0  0  0  0  0  0  0  0  0  0  0
   -7.8745    2.7346    0.0000 O   0  0  0  0  0  0  0  0  0  0  0  0
   -6.6109    0.5756    0.0000 N   0  0  0  0  0  0  0  0  0  0  0  0
   -5.3650    1.4109    0.0000 C   0  0  0  0  0  0  0  0  0  0  0  0
   -4.4799    2.6219    0.0000 C   0  0  0  0  0  0  0  0  0  0  0  0
   -2.9886    2.4609    0.0000 C   0  0  0  0  0  0  0  0  0  0  0  0
   -2.1035    3.6720    0.0000 C   0  0  0  0  0  0  0  0  0  0  0  0
   -0.6122    3.5110    0.0000 N   0  0  0  0  0  0  0  0  0  0  0  0
    0.2729    4.7220    0.0000 C   0  0  0  0  0  0  0  0  0  0  0  0
    1.7335    4.3805    0.0000 N   0  0  0  0  0  0  0  0  0  0  0  0
   -0.3334    6.0941    0.0000 N   0  0  0  0  0  0  0  0  0  0  0  0
   -4.0187    0.7495    0.0000 C   0  0  0  0  0  0  0  0  0  0  0  0
   -3.9183   -0.7471    0.0000 O   0  0  0  0  0  0  0  0  0  0  0  0
   -2.7728    1.5848    0.0000 N   0  0  0  0  0  0  0  0  0  0  0  0
   -1.4264    0.9235    0.0000 C   0  0  0  0  0  0  0  0  0  0  0  0
   -0.3875   -0.1585    0.0000 C   0  0  0  0  0  0  0  0  0  0  0  0
   -0.8050   -1.5992    0.0000 C   0  0  0  0  0  0  0  0  0  0  0  0
    0.2340   -2.6811    0.0000 C   0  0  0  0  0  0  0  0  0  0  0  0
   -0.1835   -4.1218    0.0000 N   0  0  0  0  0  0  0  0  0  0  0  0
    0.8554   -5.2038    0.0000 C   0  0  0  0  0  0  0  0  0  0  0  0
    0.4379   -6.6445    0.0000 N   0  0  0  0  0  0  0  0  0  0  0  0
    2.3119   -4.8450    0.0000 N   0  0  0  0  0  0  0  0  0  0  0  0
   -0.1805    1.7588    0.0000 C   0  0  0  0  0  0  0  0  0  0  0  0
    0.0124    2.8351    0.0000 O   0  0  0  0  0  0  0  0  0  0  0  0
    1.1658    1.0974    0.0000 N   0  0  0  0  0  0  0  0  0  0  0  0
    2.4117    1.9327    0.0000 C   0  0  0  0  0  0  0  0  0  0  0  0
    3.2968    3.1438    0.0000 C   0  0  0  0  0  0  0  0  0  0  0  0
    4.7881    2.9828    0.0000 C   0  0  0  0  0  0  0  0  0  0  0  0
    5.5190    4.2927    0.0000 N   0  0  0  0  0  0  0  0  0  0  0  0
    5.2772    2.3533    0.0000 O   0  0  0  0  0  0  0  0  0  0  0  0
    3.7581    1.2714    0.0000 C   0  0  0  0  0  0  0  0  0  0  0  0
    3.6753   -0.2263    0.0000 O   0  0  0  0  0  0  0  0  0  0  0  0
    5.0040    2.1067    0.0000 N   0  0  0  0  0  0  0  0  0  0  0  0
    6.3503    1.4454    0.0000 C   0  0  0  0  0  0  0  0  0  0  0  0
    6.7453   -0.0017    0.0000 C   0  0  0  0  0  0  0  0  0  0  0  0
    7.5493   -1.2680    0.0000 C   0  0  0  0  0  0  0  0  0  0  0  0
    8.6908   -2.2412    0.0000 C   0  0  0  0  0  0  0  0  0  0  0  0
   10.0684   -2.8346    0.0000 C   0  0  0  0  0  0  0  0  0  0  0  0
    5.0859    0.6383    0.0000 C   0  0  0  0  0  0  0  0  0  0  0  0
    6.3994    2.9446    0.0000 C   0  0  0  0  0  0  0  0  0  0  0  0
    5.1197    3.7272    0.0000 O   0  0  0  0  0  0  0  0  0  0  0  0
    6.8882    4.3627    0.0000 N   0  0  0  0  0  0  0  0  0  0  0  0
    7.7733    5.5737    0.0000 C   0  0  0  0  0  0  0  0  0  0  0  0
    7.4509    7.0387    0.0000 C   0  0  0  0  0  0  0  0  0  0  0  0
    6.0210    7.4920    0.0000 C   0  0  0  0  0  0  0  0  0  0  0  0
    5.6986    8.9569    0.0000 C   0  0  0  0  0  0  0  0  0  0  0  0
    4.5223    7.4289    0.0000 C   0  0  0  0  0  0  0  0  0  0  0  0
    8.9760    6.4701    0.0000 C   0  0  0  0  0  0  0  0  0  0  0  0
    8.2689    7.7930    0.0000 O   0  0  0  0  0  0  0  0  0  0  0  0
   10.3895    6.9721    0.0000 N   0  0  0  0  0  0  0  0  0  0  0  0
   11.8881    7.0352    0.0000 C   0  0  0  0  0  0  0  0  0  0  0  0
   12.8325    8.2006    0.0000 C   0  0  0  0  0  0  0  0  0  0  0  0
   12.2954    9.6012    0.0000 S   0  0  0  0  0  0  0  0  0  0  0  0
   13.3388    6.6538    0.0000 C   0  0  0  0  0  0  0  0  0  0  0  0
   13.9322    8.0314    0.0000 O   0  0  0  0  0  0  0  0  0  0  0  0
   14.6126    5.8616    0.0000 N   0  0  0  0  0  0  0  0  0  0  0  0
   15.5964    4.7293    0.0000 C   0  0  0  0  0  0  0  0  0  0  0  0
   17.0963    4.7176    0.0000 C   0  0  0  0  0  0  0  0  0  0  0  0
   17.8564    6.0107    0.0000 C   0  0  0  0  0  0  0  0  0  0  0  0
   19.3564    5.9991    0.0000 C   0  0  0  0  0  0  0  0  0  0  0  0
   20.1165    7.2922    0.0000 N   0  0  0  0  0  0  0  0  0  0  0  0
   21.6164    7.2805    0.0000 C   0  0  0  0  0  0  0  0  0  0  0  0
   22.3765    8.5737    0.0000 N   0  0  0  0  0  0  0  0  0  0  0  0
   22.3563    5.9757    0.0000 N   0  0  0  0  0  0  0  0  0  0  0  0
   16.2026    3.3573    0.0000 C   0  0  0  0  0  0  0  0  0  0  0  0
   17.6497    3.7522    0.0000 O   0  0  0  0  0  0  0  0  0  0  0  0
   16.3775    1.8675    0.0000 N   0  0  0  0  0  0  0  0  0  0  0  0
   16.1056    0.3923    0.0000 C   0  0  0  0  0  0  0  0  0  0  0  0
   15.4109   -0.9371    0.0000 C   0  0  0  0  0  0  0  0  0  0  0  0
   14.3552   -2.0027    0.0000 C   0  0  0  0  0  0  0  0  0  0  0  0
   13.0323   -2.7098    0.0000 C   0  0  0  0  0  0  0  0  0  0  0  0
   11.5598   -2.9955    0.0000 C   0  0  0  0  0  0  0  0  0  0  0  0
   17.5620    0.7511    0.0000 C   0  0  0  0  0  0  0  0  0  0  0  0
   17.0316   -0.7877    0.0000 C   0  0  0  0  0  0  0  0  0  0  0  0
   16.8262   -2.2735    0.0000 O   0  0  0  0  0  0  0  0  0  0  0  0
   18.5166   -0.5757    0.0000 N   0  0  0  0  0  0  0  0  0  0  0  0
   19.4426   -1.7557    0.0000 C   0  0  0  0  0  0  0  0  0  0  0  0
   19.9093   -3.1812    0.0000 C   0  0  0  0  0  0  0  0  0  0  0  0
   18.9080   -4.2981    0.0000 C   0  0  0  0  0  0  0  0  0  0  0  0
   19.2231   -5.7647    0.0000 C   0  0  0  0  0  0  0  0  0  0  0  0
   17.9257   -6.5175    0.0000 N   0  0  0  0  0  0  0  0  0  0  0  0
   16.8088   -5.5162    0.0000 C   0  0  0  0  0  0  0  0  0  0  0  0
   17.4159   -4.1446    0.0000 N   0  0  0  0  0  0  0  0  0  0  0  0
   20.9276   -1.5437    0.0000 C   0  0  0  0  0  0  0  0  0  0  0  0
   21.4865   -0.1517    0.0000 O   0  0  0  0  0  0  0  0  0  0  0  0
   21.8536   -2.7237    0.0000 N   0  0  0  0  0  0  0  0  0  0  0  0
   23.3386   -2.5117    0.0000 C   0  0  0  0  0  0  0  0  0  0  0  0
   24.6615   -1.8046    0.0000 C   0  0  0  0  0  0  0  0  0  0  0  0
   25.9353   -2.5967    0.0000 C   0  0  0  0  0  0  0  0  0  0  0  0
   27.3248   -2.0317    0.0000 C   0  0  0  0  0  0  0  0  0  0  0  0
   28.2915   -3.1787    0.0000 N   0  0  0  0  0  0  0  0  0  0  0  0
   27.4994   -4.4525    0.0000 C   0  0  0  0  0  0  0  0  0  0  0  0
   26.0432   -4.0928    0.0000 N   0  0  0  0  0  0  0  0  0  0  0  0
   24.2647   -3.6917    0.0000 C   0  0  0  0  0  0  0  0  0  0  0  0
   23.7058   -5.0837    0.0000 O   0  0  0  0  0  0  0  0  0  0  0  0
   25.7496   -3.4797    0.0000 N   0  0  0  0  0  0  0  0  0  0  0  0
   26.6757   -4.6597    0.0000 C   0  0  0  0  0  0  0  0  0  0  0  0
   27.1423   -6.0852    0.0000 C   0  0  0  0  0  0  0  0  0  0  0  0
   26.1410   -7.2021    0.0000 O   0  0  0  0  0  0  0  0  0  0  0  0
   28.1606   -4.4477    0.0000 C   0  0  0  0  0  0  0  0  0  0  0  0
   29.0397   -3.2323    0.0000 O   0  0  0  0  0  0  0  0  0  0  0  0
   29.0867   -5.6277    0.0000 N   0  0  0  0  0  0  0  0  0  0  0  0
   30.5716   -5.4157    0.0000 C   0  0  0  0  0  0  0  0  0  0  0  0
   31.8945   -4.7086    0.0000 C   0  0  0  0  0  0  0  0  0  0  0  0
   32.8958   -3.5917    0.0000 O   0  0  0  0  0  0  0  0  0  0  0  0
   33.1683   -5.5007    0.0000 C   0  0  0  0  0  0  0  0  0  0  0  0
   31.4977   -6.5957    0.0000 C   0  0  0  0  0  0  0  0  0  0  0  0
   32.9974   -6.5663    0.0000 O   0  0  0  0  0  0  0  0  0  0  0  0
   30.9388   -7.9877    0.0000 O   0  0  0  0  0  0  0  0  0  0  0  0
  -29.6590   -2.4633    0.0000 H   0  0  0  0  0  0  0  0  0  0  0  0
  -30.1420    2.0032    0.0000 H   0  0  0  0  0  0  0  0  0  0  0  0
  -32.8347    3.3259    0.0000 H   0  0  0  0  0  0  0  0  0  0  0  0
  -32.0738   -2.5919    0.0000 H   0  0  0  0  0  0  0  0  0  0  0  0
  -38.8921   -4.7883    0.0000 H   0  0  0  0  0  0  0  0  0  0  0  0
  -40.3103    0.2105    0.0000 H   0  0  0  0  0  0  0  0  0  0  0  0
  -37.4242    1.0293    0.0000 H   0  0  0  0  0  0  0  0  0  0  0  0
  -42.1203   -1.6533    0.0000 H   0  0  0  0  0  0  0  0  0  0  0  0
  -32.3860   -0.2419    0.0000 H   0  0  0  0  0  0  0  0  0  0  0  0
  -30.1947   -2.5109    0.0000 H   0  0  0  0  0  0  0  0  0  0  0  0
  -33.8538   -6.0596    0.0000 H   0  0  0  0  0  0  0  0  0  0  0  0
  -31.3347   -6.6952    0.0000 H   0  0  0  0  0  0  0  0  0  0  0  0
  -27.2485   -2.3127    0.0000 H   0  0  0  0  0  0  0  0  0  0  0  0
  -25.2179    1.2302    0.0000 H   0  0  0  0  0  0  0  0  0  0  0  0
  -27.1419    1.1011    0.0000 H   0  0  0  0  0  0  0  0  0  0  0  0
  -23.7177   -1.7241    0.0000 H   0  0  0  0  0  0  0  0  0  0  0  0
  -25.6417   -1.8532    0.0000 H   0  0  0  0  0  0  0  0  0  0  0  0
  -22.0640   -1.9648    0.0000 H   0  0  0  0  0  0  0  0  0  0  0  0
  -21.9575    1.4490    0.0000 H   0  0  0  0  0  0  0  0  0  0  0  0
  -19.6159    3.0189    0.0000 H   0  0  0  0  0  0  0  0  0  0  0  0
  -21.3798    2.2395    0.0000 H   0  0  0  0  0  0  0  0  0  0  0  0
  -17.1957    0.7558    0.0000 H   0  0  0  0  0  0  0  0  0  0  0  0
  -18.2342   -0.0509    0.0000 H   0  0  0  0  0  0  0  0  0  0  0  0
  -17.3782    5.2113    0.0000 H   0  0  0  0  0  0  0  0  0  0  0  0
  -18.0616    2.0175    0.0000 H   0  0  0  0  0  0  0  0  0  0  0  0
  -18.0060   -1.2144    0.0000 H   0  0  0  0  0  0  0  0  0  0  0  0
  -14.5946   -1.8635    0.0000 H   0  0  0  0  0  0  0  0  0  0  0  0
  -14.7891   -0.2413    0.0000 H   0  0  0  0  0  0  0  0  0  0  0  0
  -17.2435   -3.8540    0.0000 H   0  0  0  0  0  0  0  0  0  0  0  0
  -17.7754   -2.1506    0.0000 H   0  0  0  0  0  0  0  0  0  0  0  0
  -13.9732   -4.3862    0.0000 H   0  0  0  0  0  0  0  0  0  0  0  0
  -14.2934   -2.6307    0.0000 H   0  0  0  0  0  0  0  0  0  0  0  0
  -17.1935   -5.5244    0.0000 H   0  0  0  0  0  0  0  0  0  0  0  0
  -14.0766   -8.7702    0.0000 H   0  0  0  0  0  0  0  0  0  0  0  0
  -12.2026   -6.9706    0.0000 H   0  0  0  0  0  0  0  0  0  0  0  0
  -12.8241   -4.4480    0.0000 H   0  0  0  0  0  0  0  0  0  0  0  0
  -14.1056   -1.4195    0.0000 H   0  0  0  0  0  0  0  0  0  0  0  0
  -14.1807    1.9709    0.0000 H   0  0  0  0  0  0  0  0  0  0  0  0
  -12.0179    3.5809    0.0000 H   0  0  0  0  0  0  0  0  0  0  0  0
  -13.6030    2.7614    0.0000 H   0  0  0  0  0  0  0  0  0  0  0  0
  -10.4574    0.4710    0.0000 H   0  0  0  0  0  0  0  0  0  0  0  0
   -8.3943    3.3548    0.0000 H   0  0  0  0  0  0  0  0  0  0  0  0
   -9.4628    4.5908    0.0000 H   0  0  0  0  0  0  0  0  0  0  0  0
  -11.1360    3.9706    0.0000 H   0  0  0  0  0  0  0  0  0  0  0  0
   -8.9594   -0.1501    0.0000 H   0  0  0  0  0  0  0  0  0  0  0  0
   -7.9691    1.6620    0.0000 H   0  0  0  0  0  0  0  0  0  0  0  0
   -8.8290    2.6568    0.0000 H   0  0  0  0  0  0  0  0  0  0  0  0
  -10.2848    2.5394    0.0000 H   0  0  0  0  0  0  0  0  0  0  0  0
  -10.2293   -0.6925    0.0000 H   0  0  0  0  0  0  0  0  0  0  0  0
   -6.8179   -1.3417    0.0000 H   0  0  0  0  0  0  0  0  0  0  0  0
   -6.9039    0.1330    0.0000 H   0  0  0  0  0  0  0  0  0  0  0  0
   -9.4668   -3.3321    0.0000 H   0  0  0  0  0  0  0  0  0  0  0  0
   -9.9986   -1.6288    0.0000 H   0  0  0  0  0  0  0  0  0  0  0  0
   -6.1964   -3.8643    0.0000 H   0  0  0  0  0  0  0  0  0  0  0  0
   -6.5167   -2.1089    0.0000 H   0  0  0  0  0  0  0  0  0  0  0  0
   -9.4167   -5.0025    0.0000 H   0  0  0  0  0  0  0  0  0  0  0  0
   -6.2999   -8.2483    0.0000 H   0  0  0  0  0  0  0  0  0  0  0  0
   -4.4259   -6.4488    0.0000 H   0  0  0  0  0  0  0  0  0  0  0  0
   -5.0474   -3.9261    0.0000 H   0  0  0  0  0  0  0  0  0  0  0  0
   -6.3288   -0.8977    0.0000 H   0  0  0  0  0  0  0  0  0  0  0  0
   -6.4040    2.4928    0.0000 H   0  0  0  0  0  0  0  0  0  0  0  0
   -4.2412    4.1028    0.0000 H   0  0  0  0  0  0  0  0  0  0  0  0
   -5.8263    3.2832    0.0000 H   0  0  0  0  0  0  0  0  0  0  0  0
   -1.6423    1.7996    0.0000 H   0  0  0  0  0  0  0  0  0  0  0  0
   -2.6807    0.9929    0.0000 H   0  0  0  0  0  0  0  0  0  0  0  0
   -1.6860    5.1127    0.0000 H   0  0  0  0  0  0  0  0  0  0  0  0
   -3.3592    4.4925    0.0000 H   0  0  0  0  0  0  0  0  0  0  0  0
    0.3080    2.3264    0.0000 H   0  0  0  0  0  0  0  0  0  0  0  0
    2.6493    5.7721    0.0000 H   0  0  0  0  0  0  0  0  0  0  0  0
    0.5517    7.3051    0.0000 H   0  0  0  0  0  0  0  0  0  0  0  0
   -1.8247    6.2550    0.0000 H   0  0  0  0  0  0  0  0  0  0  0  0
   -2.5081    3.0613    0.0000 H   0  0  0  0  0  0  0  0  0  0  0  0
   -2.4525   -0.1706    0.0000 H   0  0  0  0  0  0  0  0  0  0  0  0
    0.9589   -0.8198    0.0000 H   0  0  0  0  0  0  0  0  0  0  0  0
    0.7643    0.8024    0.0000 H   0  0  0  0  0  0  0  0  0  0  0  0
   -1.6901   -2.8102    0.0000 H   0  0  0  0  0  0  0  0  0  0  0  0
   -2.2219   -1.1069    0.0000 H   0  0  0  0  0  0  0  0  0  0  0  0
    1.5803   -3.3424    0.0000 H   0  0  0  0  0  0  0  0  0  0  0  0
    1.2601   -1.5870    0.0000 H   0  0  0  0  0  0  0  0  0  0  0  0
   -1.6400   -4.4806    0.0000 H   0  0  0  0  0  0  0  0  0  0  0  0
    1.4769   -7.7264    0.0000 H   0  0  0  0  0  0  0  0  0  0  0  0
    3.3508   -5.9269    0.0000 H   0  0  0  0  0  0  0  0  0  0  0  0
    2.7294   -3.4042    0.0000 H   0  0  0  0  0  0  0  0  0  0  0  0
    1.4479   -0.3758    0.0000 H   0  0  0  0  0  0  0  0  0  0  0  0
    1.3728    3.0147    0.0000 H   0  0  0  0  0  0  0  0  0  0  0  0
    3.7143    4.5845    0.0000 H   0  0  0  0  0  0  0  0  0  0  0  0
    1.8799    3.6361    0.0000 H   0  0  0  0  0  0  0  0  0  0  0  0
    7.1592    4.3985    0.0000 H   0  0  0  0  0  0  0  0  0  0  0  0
    4.9151    5.5013    0.0000 H   0  0  0  0  0  0  0  0  0  0  0  0
    5.0867    3.6044    0.0000 H   0  0  0  0  0  0  0  0  0  0  0  0
    5.2462    0.0511    0.0000 H   0  0  0  0  0  0  0  0  0  0  0  0
    5.9217   -1.2554    0.0000 H   0  0  0  0  0  0  0  0  0  0  0  0
    6.1598   -1.8331    0.0000 H   0  0  0  0  0  0  0  0  0  0  0  0
    6.9593   -2.6471    0.0000 H   0  0  0  0  0  0  0  0  0  0  0  0
    7.4225   -3.0420    0.0000 H   0  0  0  0  0  0  0  0  0  0  0  0
    8.7165   -3.7409    0.0000 H   0  0  0  0  0  0  0  0  0  0  0  0
    9.6870   -4.2852    0.0000 H   0  0  0  0  0  0  0  0  0  0  0  0
    5.0383   -1.0270    0.0000 H   0  0  0  0  0  0  0  0  0  0  0  0
    3.8692   -0.1662    0.0000 H   0  0  0  0  0  0  0  0  0  0  0  0
    4.1928    1.6077    0.0000 H   0  0  0  0  0  0  0  0  0  0  0  0
    5.7663    5.3584    0.0000 H   0  0  0  0  0  0  0  0  0  0  0  0
    6.2787    5.7012    0.0000 H   0  0  0  0  0  0  0  0  0  0  0  0
    7.8288    8.4903    0.0000 H   0  0  0  0  0  0  0  0  0  0  0  0
    8.8897    7.4625    0.0000 H   0  0  0  0  0  0  0  0  0  0  0  0
    5.8229    6.0051    0.0000 H   0  0  0  0  0  0  0  0  0  0  0  0
    4.3347    9.5811    0.0000 H   0  0  0  0  0  0  0  0  0  0  0  0
    5.8967   10.4438    0.0000 H   0  0  0  0  0  0  0  0  0  0  0  0
    7.1784    9.2022    0.0000 H   0  0  0  0  0  0  0  0  0  0  0  0
    3.5700    8.5878    0.0000 H   0  0  0  0  0  0  0  0  0  0  0  0
    3.1356    6.8570    0.0000 H   0  0  0  0  0  0  0  0  0  0  0  0
    4.6637    5.9355    0.0000 H   0  0  0  0  0  0  0  0  0  0  0  0
   10.1037    8.4446    0.0000 H   0  0  0  0  0  0  0  0  0  0  0  0
   11.2142    8.3753    0.0000 H   0  0  0  0  0  0  0  0  0  0  0  0
   14.1185    8.9728    0.0000 H   0  0  0  0  0  0  0  0  0  0  0  0
   14.0610    7.3399    0.0000 H   0  0  0  0  0  0  0  0  0  0  0  0
   13.2397   10.7666    0.0000 H   0  0  0  0  0  0  0  0  0  0  0  0
   15.5857    7.0032    0.0000 H   0  0  0  0  0  0  0  0  0  0  0  0
   16.0532    6.1580    0.0000 H   0  0  0  0  0  0  0  0  0  0  0  0
   18.4275    4.0262    0.0000 H   0  0  0  0  0  0  0  0  0  0  0  0
   17.1894    3.2205    0.0000 H   0  0  0  0  0  0  0  0  0  0  0  0
   18.1284    7.4859    0.0000 H   0  0  0  0  0  0  0  0  0  0  0  0
   16.5253    6.7022    0.0000 H   0  0  0  0  0  0  0  0  0  0  0  0
   20.7619    5.4751    0.0000 H   0  0  0  0  0  0  0  0  0  0  0  0
   19.2662    4.5018    0.0000 H   0  0  0  0  0  0  0  0  0  0  0  0
   19.3766    8.5970    0.0000 H   0  0  0  0  0  0  0  0  0  0  0  0
   23.8765    8.5620    0.0000 H   0  0  0  0  0  0  0  0  0  0  0  0
   23.8562    5.9640    0.0000 H   0  0  0  0  0  0  0  0  0  0  0  0
   21.5962    4.6825    0.0000 H   0  0  0  0  0  0  0  0  0  0  0  0
   17.8767    1.8184    0.0000 H   0  0  0  0  0  0  0  0  0  0  0  0
   15.9480   -2.3376    0.0000 H   0  0  0  0  0  0  0  0  0  0  0  0
   16.8429   -1.3833    0.0000 H   0  0  0  0  0  0  0  0  0  0  0  0
   14.6373   -3.4759    0.0000 H   0  0  0  0  0  0  0  0  0  0  0  0
   15.5921   -2.8512    0.0000 H   0  0  0  0  0  0  0  0  0  0  0  0
   12.6871   -4.1695    0.0000 H   0  0  0  0  0  0  0  0  0  0  0  0
   14.1005   -3.7628    0.0000 H   0  0  0  0  0  0  0  0  0  0  0  0
   11.6228   -4.4942    0.0000 H   0  0  0  0  0  0  0  0  0  0  0  0
   18.8319   -0.0472    0.0000 H   0  0  0  0  0  0  0  0  0  0  0  0
   18.6968    1.7321    0.0000 H   0  0  0  0  0  0  0  0  0  0  0  0
   17.3058    2.2291    0.0000 H   0  0  0  0  0  0  0  0  0  0  0  0
   19.2410    0.7378    0.0000 H   0  0  0  0  0  0  0  0  0  0  0  0
   18.1198   -2.4627    0.0000 H   0  0  0  0  0  0  0  0  0  0  0  0
   20.6846   -4.4653    0.0000 H   0  0  0  0  0  0  0  0  0  0  0  0
   21.3639   -2.8152    0.0000 H   0  0  0  0  0  0  0  0  0  0  0  0
   20.5947   -6.3718    0.0000 H   0  0  0  0  0  0  0  0  0  0  0  0
   17.7721   -8.0096    0.0000 H   0  0  0  0  0  0  0  0  0  0  0  0
   15.3422   -5.8313    0.0000 H   0  0  0  0  0  0  0  0  0  0  0  0
   21.4686   -4.1734    0.0000 H   0  0  0  0  0  0  0  0  0  0  0  0
   22.8720   -1.0861    0.0000 H   0  0  0  0  0  0  0  0  0  0  0  0
   25.6627   -0.6877    0.0000 H   0  0  0  0  0  0  0  0  0  0  0  0
   23.7354   -0.6246    0.0000 H   0  0  0  0  0  0  0  0  0  0  0  0
   27.6845   -0.5755    0.0000 H   0  0  0  0  0  0  0  0  0  0  0  0
   29.7876   -3.0708    0.0000 H   0  0  0  0  0  0  0  0  0  0  0  0
   28.2295   -5.7628    0.0000 H   0  0  0  0  0  0  0  0  0  0  0  0
   26.6287   -2.2643    0.0000 H   0  0  0  0  0  0  0  0  0  0  0  0
   25.3528   -5.3668    0.0000 H   0  0  0  0  0  0  0  0  0  0  0  0
   27.9176   -7.3693    0.0000 H   0  0  0  0  0  0  0  0  0  0  0  0
   28.6307   -5.8993    0.0000 H   0  0  0  0  0  0  0  0  0  0  0  0
   26.6077   -8.6277    0.0000 H   0  0  0  0  0  0  0  0  0  0  0  0
   28.7016   -7.0774    0.0000 H   0  0  0  0  0  0  0  0  0  0  0  0
   30.1050   -3.9901    0.0000 H   0  0  0  0  0  0  0  0  0  0  0  0
   30.9684   -3.5286    0.0000 H   0  0  0  0  0  0  0  0  0  0  0  0
   34.3903   -3.7191    0.0000 H   0  0  0  0  0  0  0  0  0  0  0  0
   34.5675   -4.9601    0.0000 H   0  0  0  0  0  0  0  0  0  0  0  0
   34.0944   -6.6807    0.0000 H   0  0  0  0  0  0  0  0  0  0  0  0
   32.6339   -6.9023    0.0000 H   0  0  0  0  0  0  0  0  0  0  0  0
   31.8649   -9.1677    0.0000 H   0  0  0  0  0  0  0  0  0  0  0  0
  1  2  1  0
  2  3  1  0
  3  4  2  0
  4  5  1  0
  5  6  2  0
  6  7  1  0
  7  8  2  0
  7  9  1  0
  9 10  1  0
 10 11  1  0
 11 12  2  0
  9 13  1  0
 13 14  1  0
 14 15  2  0
 15 16  1  0
 16 17  2  0
 17 18  1  0
 16 19  1  0
 14 20  1  0
 20 21  1  0
 21 22  2  0
 22 23  1  0
 23 24  2  0
 24 25  1  0
 25 26  2  0
 25 27  1  0
  1 28  2  0
  1 29  1  0
 29 30  1  0
 30 31  1  0
 31 32  1  0
 32 33  2  0
 32 34  1  0
 34 35  1  0
 35 36  1  0
 36 37  1  0
 37 38  1  0
 38 39  2  0
 38 40  1  0
 35 41  1  0
 41 42  2  0
 41 43  1  0
 43 44  1  0
 44 45  1  0
 45 46  1  0
 46 47  1  0
 47 48  1  0
 48 49  1  0
 49 50  2  3
 49 51  1  0
 44 52  1  0
 52 53  2  0
 52 54  1  0
 54 55  1  0
 55 56  1  0
 56 57  1  0
 57 58  1  0
 57 59  1  0
 55 60  1  0
 60 61  2  0
 60 62  1  0
 62 63  1  0
 63 64  1  0
 64 65  1  0
 65 66  1  0
 66 67  1  0
 67 68  1  0
 68 69  2  3
 68 70  1  0
 63 71  1  0
 71 72  2  0
 71 73  1  0
 73 74  1  0
 74 75  1  0
 75 76  1  0
 76 77  1  0
 77 78  1  0
 78 79  1  0
 79 80  2  3
 79 81  1  0
 74 82  1  0
 82 83  2  0
 82 84  1  0
 84 85  1  0
 85 86  1  0
 86 87  1  0
 87 88  1  0
 88 89  1  0
 89 90  1  0
 90 91  2  3
 90 92  1  0
 85 93  1  0
 93 94  2  0
 93 95  1  0
 95 96  1  0
 96 97  1  0
 97 98  1  0
 98 99  1  0
 98100  2  0
 96101  1  0
101102  2  0
101103  1  0
104103  1  6
104105  1  0
105106  1  0
106107  1  0
107108  1  0
104109  1  0
104110  1  0
110111  2  0
110112  1  0
112113  1  0
113114  1  0
114115  1  0
115116  1  0
115117  1  0
113118  1  0
118119  2  0
118120  1  0
120121  1  0
121122  1  0
122123  1  0
121124  1  0
124125  2  0
124126  1  0
126127  1  0
127128  1  0
128129  1  0
129130  1  0
130131  1  0
131132  1  0
132133  2  3
132134  1  0
127135  1  0
135136  2  0
135137  1  0
137138  1  0
138139  1  0
139140  1  0
140141  1  0
141142  1  0
138143  1  0
138144  1  6
144145  2  0
144146  1  0
146147  1  0
147148  1  0
148149  1  0
149150  2  0
150151  1  0
151152  1  0
152153  2  0
147154  1  0
154155  2  0
154156  1  0
156157  1  0
157158  1  0
158159  1  0
159160  2  0
160161  1  0
161162  1  0
162163  2  0
157164  1  0
164165  2  0
164166  1  0
166167  1  0
167168  1  0
168169  1  0
167170  1  0
170171  2  0
170172  1  0
172173  1  0
173174  1  0
174175  1  0
174176  1  0
173177  1  0
177178  2  0
177179  1  0
  8  3  1  0
153149  1  0
163159  1  0
 11  6  1  0
108142  2  0
 18 13  2  0
 22  9  1  0
 26 21  1  0
  2180  1  0
  4181  1  0
  5182  1  0
  8183  1  0
 15184  1  0
 17185  1  0
 18186  1  0
 19187  1  0
 23188  1  0
 24189  1  0
 26190  1  0
 27191  1  0
 29192  1  0
 30193  1  0
 30194  1  0
 31195  1  0
 31196  1  0
 34197  1  0
 35198  1  1
 36199  1  0
 36200  1  0
 37201  1  0
 37202  1  0
 40203  1  0
 43204  1  0
 44205  1  6
 45206  1  0
 45207  1  0
 46208  1  0
 46209  1  0
 47210  1  0
 47211  1  0
 48212  1  0
 50213  1  0
 51214  1  0
 51215  1  0
 54216  1  0
 55217  1  1
 56218  1  0
 56219  1  0
 57220  1  0
 58221  1  0
 58222  1  0
 58223  1  0
 59224  1  0
 59225  1  0
 59226  1  0
 62227  1  0
 63228  1  6
 64229  1  0
 64230  1  0
 65231  1  0
 65232  1  0
 66233  1  0
 66234  1  0
 67235  1  0
 69236  1  0
 70237  1  0
 70238  1  0
 73239  1  0
 74240  1  1
 75241  1  0
 75242  1  0
 76243  1  0
 76244  1  0
 77245  1  0
 77246  1  0
 78247  1  0
 80248  1  0
 81249  1  0
 81250  1  0
 84251  1  0
 85252  1  6
 86253  1  0
 86254  1  0
 87255  1  0
 87256  1  0
 88257  1  0
 88258  1  0
 89259  1  0
 91260  1  0
 92261  1  0
 92262  1  0
 95263  1  0
 96264  1  6
 97265  1  0
 97266  1  0
 99267  1  0
 99268  1  0
103269  1  0
105270  1  0
105271  1  0
106272  1  0
106273  1  0
107274  1  0
107275  1  0
108276  1  0
109277  1  0
109278  1  0
109279  1  0
112280  1  0
113281  1  1
114282  1  0
114283  1  0
115284  1  0
116285  1  0
116286  1  0
116287  1  0
117288  1  0
117289  1  0
117290  1  0
120291  1  0
121292  1  1
122293  1  0
122294  1  0
123295  1  0
126296  1  0
127297  1  1
128298  1  0
128299  1  0
129300  1  0
129301  1  0
130302  1  0
130303  1  0
131304  1  0
133305  1  0
134306  1  0
134307  1  0
137308  1  0
139309  1  0
139310  1  0
140311  1  0
140312  1  0
141313  1  0
141314  1  0
142315  1  0
143316  1  0
143317  1  0
143318  1  0
146319  1  0
147320  1  6
148321  1  0
148322  1  0
150323  1  0
151324  1  0
152325  1  0
156326  1  0
157327  1  1
158328  1  0
158329  1  0
160330  1  0
161331  1  0
162332  1  0
166333  1  0
167334  1  6
168335  1  0
168336  1  0
169337  1  0
172338  1  0
173339  1  1
174340  1  1
175341  1  0
176342  1  0
176343  1  0
176344  1  0
179345  1  0
M  END
