
     RDKit          2D

301303  0  0  0  0  0  0  0  0999 V2000
  -20.8563    1.0201    0.0000 N   0  0  0  0  0  0  0  0  0  0  0  0
  -19.4747    0.4359    0.0000 C   0  0  0  0  0  0  0  0  0  0  0  0
  -18.2780    1.3403    0.0000 C   0  0  0  0  0  0  0  0  0  0  0  0
  -16.8965    0.7561    0.0000 C   0  0  0  0  0  0  0  0  0  0  0  0
  -16.7116   -0.7325    0.0000 O   0  0  0  0  0  0  0  0  0  0  0  0
  -15.6997    1.6605    0.0000 N   0  0  0  0  0  0  0  0  0  0  0  0
  -14.3182    1.0763    0.0000 C   0  0  0  0  0  0  0  0  0  0  0  0
  -13.9828    2.5383    0.0000 C   0  0  0  0  0  0  0  0  0  0  0  0
  -15.0812    3.5598    0.0000 C   0  0  0  0  0  0  0  0  0  0  0  0
  -14.7458    5.0218    0.0000 C   0  0  0  0  0  0  0  0  0  0  0  0
  -15.8443    6.0433    0.0000 N   0  0  0  0  0  0  0  0  0  0  0  0
  -15.5089    7.5053    0.0000 C   0  0  0  0  0  0  0  0  0  0  0  0
  -16.6073    8.5268    0.0000 N   0  0  0  0  0  0  0  0  0  0  0  0
  -14.0750    7.9459    0.0000 N   0  0  0  0  0  0  0  0  0  0  0  0
  -13.2197    0.0548    0.0000 C   0  0  0  0  0  0  0  0  0  0  0  0
  -11.7859    0.4954    0.0000 O   0  0  0  0  0  0  0  0  0  0  0  0
  -13.5551   -1.4072    0.0000 N   0  0  0  0  0  0  0  0  0  0  0  0
  -12.4567   -2.4287    0.0000 C   0  0  0  0  0  0  0  0  0  0  0  0
  -13.6534   -3.3331    0.0000 C   0  0  0  0  0  0  0  0  0  0  0  0
  -15.0350   -2.7489    0.0000 C   0  0  0  0  0  0  0  0  0  0  0  0
  -16.2317   -3.6533    0.0000 C   0  0  0  0  0  0  0  0  0  0  0  0
  -17.6132   -3.0691    0.0000 N   0  0  0  0  0  0  0  0  0  0  0  0
  -18.8099   -3.9735    0.0000 C   0  0  0  0  0  0  0  0  0  0  0  0
  -20.1915   -3.3893    0.0000 N   0  0  0  0  0  0  0  0  0  0  0  0
  -18.6251   -5.4620    0.0000 N   0  0  0  0  0  0  0  0  0  0  0  0
  -11.0751   -3.0129    0.0000 C   0  0  0  0  0  0  0  0  0  0  0  0
  -11.0731   -4.5129    0.0000 O   0  0  0  0  0  0  0  0  0  0  0  0
   -9.8784   -2.1085    0.0000 N   0  0  0  0  0  0  0  0  0  0  0  0
   -8.4969   -2.6927    0.0000 C   0  0  0  0  0  0  0  0  0  0  0  0
   -9.3121   -3.9518    0.0000 C   0  0  0  0  0  0  0  0  0  0  0  0
   -8.6292   -5.2874    0.0000 C   0  0  0  0  0  0  0  0  0  0  0  0
   -9.4444   -6.5465    0.0000 C   0  0  0  0  0  0  0  0  0  0  0  0
   -8.7616   -7.8821    0.0000 N   0  0  0  0  0  0  0  0  0  0  0  0
   -9.5768   -9.1412    0.0000 C   0  0  0  0  0  0  0  0  0  0  0  0
   -8.8940  -10.4768    0.0000 N   0  0  0  0  0  0  0  0  0  0  0  0
  -11.0749   -9.0648    0.0000 N   0  0  0  0  0  0  0  0  0  0  0  0
   -6.9988   -2.7691    0.0000 C   0  0  0  0  0  0  0  0  0  0  0  0
   -6.3160   -4.1047    0.0000 O   0  0  0  0  0  0  0  0  0  0  0  0
   -6.1836   -1.5100    0.0000 N   0  0  0  0  0  0  0  0  0  0  0  0
   -4.6855   -1.5864    0.0000 C   0  0  0  0  0  0  0  0  0  0  0  0
   -4.8704   -0.0978    0.0000 C   0  0  0  0  0  0  0  0  0  0  0  0
   -6.2520    0.4864    0.0000 C   0  0  0  0  0  0  0  0  0  0  0  0
   -6.4368    1.9749    0.0000 C   0  0  0  0  0  0  0  0  0  0  0  0
   -7.8184    2.5591    0.0000 N   0  0  0  0  0  0  0  0  0  0  0  0
   -8.0033    4.0477    0.0000 C   0  0  0  0  0  0  0  0  0  0  0  0
   -9.3848    4.6319    0.0000 N   0  0  0  0  0  0  0  0  0  0  0  0
   -6.8066    4.9520    0.0000 N   0  0  0  0  0  0  0  0  0  0  0  0
   -3.3040   -2.1706    0.0000 C   0  0  0  0  0  0  0  0  0  0  0  0
   -2.2264   -1.1271    0.0000 O   0  0  0  0  0  0  0  0  0  0  0  0
   -3.1191   -3.6591    0.0000 N   0  0  0  0  0  0  0  0  0  0  0  0
   -1.7375   -4.2433    0.0000 C   0  0  0  0  0  0  0  0  0  0  0  0
   -1.3657   -5.6965    0.0000 C   0  0  0  0  0  0  0  0  0  0  0  0
   -0.7256   -7.0531    0.0000 C   0  0  0  0  0  0  0  0  0  0  0  0
    0.1597   -8.2640    0.0000 C   0  0  0  0  0  0  0  0  0  0  0  0
    1.2581   -9.2854    0.0000 C   0  0  0  0  0  0  0  0  0  0  0  0
   -2.9853   -5.0759    0.0000 C   0  0  0  0  0  0  0  0  0  0  0  0
   -1.8276   -2.7460    0.0000 C   0  0  0  0  0  0  0  0  0  0  0  0
   -2.5938   -2.5261    0.0000 O   0  0  0  0  0  0  0  0  0  0  0  0
   -1.6327   -1.2587    0.0000 N   0  0  0  0  0  0  0  0  0  0  0  0
   -1.1599    0.1648    0.0000 C   0  0  0  0  0  0  0  0  0  0  0  0
   -2.6453   -0.0437    0.0000 C   0  0  0  0  0  0  0  0  0  0  0  0
   -3.5685    1.1385    0.0000 C   0  0  0  0  0  0  0  0  0  0  0  0
   -5.0540    0.9301    0.0000 C   0  0  0  0  0  0  0  0  0  0  0  0
   -5.9772    2.1123    0.0000 N   0  0  0  0  0  0  0  0  0  0  0  0
   -7.4627    1.9038    0.0000 C   0  0  0  0  0  0  0  0  0  0  0  0
   -8.6446    2.8275    0.0000 N   0  0  0  0  0  0  0  0  0  0  0  0
   -8.1902    0.5920    0.0000 N   0  0  0  0  0  0  0  0  0  0  0  0
   -0.4261    1.4731    0.0000 C   0  0  0  0  0  0  0  0  0  0  0  0
   -1.5454    2.4717    0.0000 O   0  0  0  0  0  0  0  0  0  0  0  0
    0.5419    2.6189    0.0000 N   0  0  0  0  0  0  0  0  0  0  0  0
    1.7093    3.5608    0.0000 C   0  0  0  0  0  0  0  0  0  0  0  0
    0.3470    4.1885    0.0000 C   0  0  0  0  0  0  0  0  0  0  0  0
    0.2094    5.6822    0.0000 C   0  0  0  0  0  0  0  0  0  0  0  0
   -1.1529    6.3099    0.0000 C   0  0  0  0  0  0  0  0  0  0  0  0
   -1.2904    7.8036    0.0000 N   0  0  0  0  0  0  0  0  0  0  0  0
   -2.6528    8.4313    0.0000 C   0  0  0  0  0  0  0  0  0  0  0  0
   -2.7903    9.9250    0.0000 N   0  0  0  0  0  0  0  0  0  0  0  0
   -3.8776    7.5654    0.0000 N   0  0  0  0  0  0  0  0  0  0  0  0
    3.0339    4.2647    0.0000 C   0  0  0  0  0  0  0  0  0  0  0  0
    2.6322    5.7099    0.0000 O   0  0  0  0  0  0  0  0  0  0  0  0
    4.4677    4.7053    0.0000 N   0  0  0  0  0  0  0  0  0  0  0  0
    5.9590    4.8665    0.0000 C   0  0  0  0  0  0  0  0  0  0  0  0
    5.1523    6.1311    0.0000 C   0  0  0  0  0  0  0  0  0  0  0  0
    5.8442    7.4620    0.0000 C   0  0  0  0  0  0  0  0  0  0  0  0
    5.0375    8.7266    0.0000 C   0  0  0  0  0  0  0  0  0  0  0  0
    5.7293   10.0576    0.0000 N   0  0  0  0  0  0  0  0  0  0  0  0
    4.9226   11.3222    0.0000 C   0  0  0  0  0  0  0  0  0  0  0  0
    5.6145   12.6531    0.0000 N   0  0  0  0  0  0  0  0  0  0  0  0
    3.4241   11.2559    0.0000 N   0  0  0  0  0  0  0  0  0  0  0  0
    7.4539    4.7426    0.0000 C   0  0  0  0  0  0  0  0  0  0  0  0
    7.8974    6.1755    0.0000 O   0  0  0  0  0  0  0  0  0  0  0  0
    8.8983    4.3380    0.0000 N   0  0  0  0  0  0  0  0  0  0  0  0
   10.2401    3.6673    0.0000 C   0  0  0  0  0  0  0  0  0  0  0  0
   10.2451    5.1673    0.0000 C   0  0  0  0  0  0  0  0  0  0  0  0
   11.5467    5.9129    0.0000 C   0  0  0  0  0  0  0  0  0  0  0  0
   12.9149    5.2982    0.0000 C   0  0  0  0  0  0  0  0  0  0  0  0
   13.9224    6.4095    0.0000 N   0  0  0  0  0  0  0  0  0  0  0  0
   13.1768    7.7111    0.0000 C   0  0  0  0  0  0  0  0  0  0  0  0
   13.6451    9.1361    0.0000 C   0  0  0  0  0  0  0  0  0  0  0  0
   12.6452   10.2542    0.0000 C   0  0  0  0  0  0  0  0  0  0  0  0
   11.1769    9.9473    0.0000 C   0  0  0  0  0  0  0  0  0  0  0  0
   10.7086    8.5223    0.0000 C   0  0  0  0  0  0  0  0  0  0  0  0
   11.7085    7.4042    0.0000 C   0  0  0  0  0  0  0  0  0  0  0  0
   11.4306    2.7549    0.0000 C   0  0  0  0  0  0  0  0  0  0  0  0
   12.5784    3.7206    0.0000 O   0  0  0  0  0  0  0  0  0  0  0  0
   12.4270    1.6336    0.0000 N   0  0  0  0  0  0  0  0  0  0  0  0
   13.1932    0.3441    0.0000 C   0  0  0  0  0  0  0  0  0  0  0  0
   14.0084    1.6032    0.0000 C   0  0  0  0  0  0  0  0  0  0  0  0
   15.5064    1.5268    0.0000 C   0  0  0  0  0  0  0  0  0  0  0  0
   16.3217    2.7859    0.0000 C   0  0  0  0  0  0  0  0  0  0  0  0
   17.8197    2.7095    0.0000 N   0  0  0  0  0  0  0  0  0  0  0  0
   18.6349    3.9686    0.0000 C   0  0  0  0  0  0  0  0  0  0  0  0
   20.1330    3.8922    0.0000 N   0  0  0  0  0  0  0  0  0  0  0  0
   17.9521    5.3042    0.0000 N   0  0  0  0  0  0  0  0  0  0  0  0
   13.7014   -1.0672    0.0000 C   0  0  0  0  0  0  0  0  0  0  0  0
   15.1891   -0.8753    0.0000 O   0  0  0  0  0  0  0  0  0  0  0  0
   13.9334   -2.5491    0.0000 N   0  0  0  0  0  0  0  0  0  0  0  0
   13.8808   -4.0482    0.0000 C   0  0  0  0  0  0  0  0  0  0  0  0
   15.2473   -3.4297    0.0000 C   0  0  0  0  0  0  0  0  0  0  0  0
   16.4663   -4.3039    0.0000 C   0  0  0  0  0  0  0  0  0  0  0  0
   17.8328   -3.6854    0.0000 C   0  0  0  0  0  0  0  0  0  0  0  0
   19.0517   -4.5596    0.0000 N   0  0  0  0  0  0  0  0  0  0  0  0
   20.4183   -3.9411    0.0000 C   0  0  0  0  0  0  0  0  0  0  0  0
   21.6372   -4.8153    0.0000 N   0  0  0  0  0  0  0  0  0  0  0  0
   20.5659   -2.4484    0.0000 N   0  0  0  0  0  0  0  0  0  0  0  0
   13.5454   -5.5102    0.0000 C   0  0  0  0  0  0  0  0  0  0  0  0
   14.9007   -6.1531    0.0000 O   0  0  0  0  0  0  0  0  0  0  0  0
   12.9394   -6.8824    0.0000 N   0  0  0  0  0  0  0  0  0  0  0  0
   12.0846   -8.1150    0.0000 C   0  0  0  0  0  0  0  0  0  0  0  0
   11.0120   -9.1636    0.0000 C   0  0  0  0  0  0  0  0  0  0  0  0
    9.7604   -9.9903    0.0000 C   0  0  0  0  0  0  0  0  0  0  0  0
    8.3749  -10.5651    0.0000 C   0  0  0  0  0  0  0  0  0  0  0  0
    6.9057  -10.8674    0.0000 C   0  0  0  0  0  0  0  0  0  0  0  0
    5.4058  -10.8861    0.0000 C   0  0  0  0  0  0  0  0  0  0  0  0
    3.9294  -10.6206    0.0000 C   0  0  0  0  0  0  0  0  0  0  0  0
    2.5300  -10.0806    0.0000 C   0  0  0  0  0  0  0  0  0  0  0  0
   12.7183   -9.4746    0.0000 C   0  0  0  0  0  0  0  0  0  0  0  0
   13.5686   -8.3335    0.0000 C   0  0  0  0  0  0  0  0  0  0  0  0
   14.1214   -9.7279    0.0000 O   0  0  0  0  0  0  0  0  0  0  0  0
   14.6362   -7.2798    0.0000 O   0  0  0  0  0  0  0  0  0  0  0  0
  -22.0530    0.1157    0.0000 H   0  0  0  0  0  0  0  0  0  0  0  0
  -21.0412    2.5086    0.0000 H   0  0  0  0  0  0  0  0  0  0  0  0
  -20.2899   -0.8232    0.0000 H   0  0  0  0  0  0  0  0  0  0  0  0
  -18.3763   -0.5856    0.0000 H   0  0  0  0  0  0  0  0  0  0  0  0
  -19.3765    2.3618    0.0000 H   0  0  0  0  0  0  0  0  0  0  0  0
  -17.4628    2.5994    0.0000 H   0  0  0  0  0  0  0  0  0  0  0  0
  -16.0647    3.1154    0.0000 H   0  0  0  0  0  0  0  0  0  0  0  0
  -15.1334   -0.1828    0.0000 H   0  0  0  0  0  0  0  0  0  0  0  0
  -13.0202    3.6887    0.0000 H   0  0  0  0  0  0  0  0  0  0  0  0
  -12.6012    1.9541    0.0000 H   0  0  0  0  0  0  0  0  0  0  0  0
  -16.4628    4.1440    0.0000 H   0  0  0  0  0  0  0  0  0  0  0  0
  -16.2936    2.6765    0.0000 H   0  0  0  0  0  0  0  0  0  0  0  0
  -13.9306    6.2809    0.0000 H   0  0  0  0  0  0  0  0  0  0  0  0
  -13.3033    4.6104    0.0000 H   0  0  0  0  0  0  0  0  0  0  0  0
  -17.2781    5.6027    0.0000 H   0  0  0  0  0  0  0  0  0  0  0  0
  -16.2719    9.9888    0.0000 H   0  0  0  0  0  0  0  0  0  0  0  0
  -18.0412    8.0862    0.0000 H   0  0  0  0  0  0  0  0  0  0  0  0
  -13.7396    9.4079    0.0000 H   0  0  0  0  0  0  0  0  0  0  0  0
  -12.9766    6.9244    0.0000 H   0  0  0  0  0  0  0  0  0  0  0  0
  -15.0320   -1.6697    0.0000 H   0  0  0  0  0  0  0  0  0  0  0  0
  -11.6415   -1.1695    0.0000 H   0  0  0  0  0  0  0  0  0  0  0  0
  -14.3090   -4.6822    0.0000 H   0  0  0  0  0  0  0  0  0  0  0  0
  -12.5549   -4.3545    0.0000 H   0  0  0  0  0  0  0  0  0  0  0  0
  -16.1334   -1.7274    0.0000 H   0  0  0  0  0  0  0  0  0  0  0  0
  -14.7252   -1.2812    0.0000 H   0  0  0  0  0  0  0  0  0  0  0  0
  -17.0469   -4.9124    0.0000 H   0  0  0  0  0  0  0  0  0  0  0  0
  -15.2659   -4.8010    0.0000 H   0  0  0  0  0  0  0  0  0  0  0  0
  -17.7981   -1.5805    0.0000 H   0  0  0  0  0  0  0  0  0  0  0  0
  -21.3882   -4.2937    0.0000 H   0  0  0  0  0  0  0  0  0  0  0  0
  -20.3764   -1.9007    0.0000 H   0  0  0  0  0  0  0  0  0  0  0  0
  -19.8218   -6.3664    0.0000 H   0  0  0  0  0  0  0  0  0  0  0  0
  -17.2435   -6.0462    0.0000 H   0  0  0  0  0  0  0  0  0  0  0  0
  -10.0633   -0.6199    0.0000 H   0  0  0  0  0  0  0  0  0  0  0  0
   -8.1615   -1.2306    0.0000 H   0  0  0  0  0  0  0  0  0  0  0  0
  -10.5088   -4.8562    0.0000 H   0  0  0  0  0  0  0  0  0  0  0  0
  -10.6250   -3.2265    0.0000 H   0  0  0  0  0  0  0  0  0  0  0  0
   -7.5308   -6.3088    0.0000 H   0  0  0  0  0  0  0  0  0  0  0  0
   -7.4325   -4.3830    0.0000 H   0  0  0  0  0  0  0  0  0  0  0  0
  -10.6412   -7.4509    0.0000 H   0  0  0  0  0  0  0  0  0  0  0  0
  -10.6592   -5.6665    0.0000 H   0  0  0  0  0  0  0  0  0  0  0  0
   -7.2636   -7.9585    0.0000 H   0  0  0  0  0  0  0  0  0  0  0  0
   -9.7092  -11.7359    0.0000 H   0  0  0  0  0  0  0  0  0  0  0  0
   -7.3959  -10.5532    0.0000 H   0  0  0  0  0  0  0  0  0  0  0  0
  -11.8901  -10.3239    0.0000 H   0  0  0  0  0  0  0  0  0  0  0  0
  -11.7577   -7.7292    0.0000 H   0  0  0  0  0  0  0  0  0  0  0  0
   -7.2998   -0.5079    0.0000 H   0  0  0  0  0  0  0  0  0  0  0  0
   -5.0209   -3.0484    0.0000 H   0  0  0  0  0  0  0  0  0  0  0  0
   -4.7157    1.3942    0.0000 H   0  0  0  0  0  0  0  0  0  0  0  0
   -3.5837   -0.8687    0.0000 H   0  0  0  0  0  0  0  0  0  0  0  0
   -7.7482    0.3796    0.0000 H   0  0  0  0  0  0  0  0  0  0  0  0
   -6.9312   -0.8511    0.0000 H   0  0  0  0  0  0  0  0  0  0  0  0
   -6.2821    3.4669    0.0000 H   0  0  0  0  0  0  0  0  0  0  0  0
   -4.9406    2.0817    0.0000 H   0  0  0  0  0  0  0  0  0  0  0  0
   -9.0151    1.6547    0.0000 H   0  0  0  0  0  0  0  0  0  0  0  0
   -9.5697    6.1204    0.0000 H   0  0  0  0  0  0  0  0  0  0  0  0
  -10.5815    3.7275    0.0000 H   0  0  0  0  0  0  0  0  0  0  0  0
   -6.9914    6.4406    0.0000 H   0  0  0  0  0  0  0  0  0  0  0  0
   -5.3641    4.5406    0.0000 H   0  0  0  0  0  0  0  0  0  0  0  0
   -4.4171   -4.4109    0.0000 H   0  0  0  0  0  0  0  0  0  0  0  0
   -2.4333   -6.7502    0.0000 H   0  0  0  0  0  0  0  0  0  0  0  0
   -2.8600   -5.5655    0.0000 H   0  0  0  0  0  0  0  0  0  0  0  0
   -1.5745   -8.2897    0.0000 H   0  0  0  0  0  0  0  0  0  0  0  0
   -2.2177   -7.2072    0.0000 H   0  0  0  0  0  0  0  0  0  0  0  0
   -0.2678   -9.7018    0.0000 H   0  0  0  0  0  0  0  0  0  0  0  0
   -1.2762   -8.6977    0.0000 H   0  0  0  0  0  0  0  0  0  0  0  0
    0.3457  -10.4760    0.0000 H   0  0  0  0  0  0  0  0  0  0  0  0
   -4.3232   -4.8881    0.0000 H   0  0  0  0  0  0  0  0  0  0  0  0
   -3.6082   -6.5301    0.0000 H   0  0  0  0  0  0  0  0  0  0  0  0
   -2.0164   -6.4467    0.0000 H   0  0  0  0  0  0  0  0  0  0  0  0
   -3.1324   -1.2871    0.0000 H   0  0  0  0  0  0  0  0  0  0  0  0
   -1.8490    1.4971    0.0000 H   0  0  0  0  0  0  0  0  0  0  0  0
   -3.8742   -0.9038    0.0000 H   0  0  0  0  0  0  0  0  0  0  0  0
   -2.3594   -1.5162    0.0000 H   0  0  0  0  0  0  0  0  0  0  0  0
   -4.0318    2.5652    0.0000 H   0  0  0  0  0  0  0  0  0  0  0  0
   -2.4537    2.1420    0.0000 H   0  0  0  0  0  0  0  0  0  0  0  0
   -6.5429    0.7477    0.0000 H   0  0  0  0  0  0  0  0  0  0  0  0
   -4.4203   -0.4295    0.0000 H   0  0  0  0  0  0  0  0  0  0  0  0
   -5.0953    3.3256    0.0000 H   0  0  0  0  0  0  0  0  0  0  0  0
   -9.8714    2.8775    0.0000 H   0  0  0  0  0  0  0  0  0  0  0  0
   -8.2472    4.6263    0.0000 H   0  0  0  0  0  0  0  0  0  0  0  0
   -9.5103    0.3047    0.0000 H   0  0  0  0  0  0  0  0  0  0  0  0
   -7.4391   -0.8950    0.0000 H   0  0  0  0  0  0  0  0  0  0  0  0
   -0.6296    3.5556    0.0000 H   0  0  0  0  0  0  0  0  0  0  0  0
    1.8499    5.0542    0.0000 H   0  0  0  0  0  0  0  0  0  0  0  0
   -1.1479    4.3124    0.0000 H   0  0  0  0  0  0  0  0  0  0  0  0
   -0.3743    2.8733    0.0000 H   0  0  0  0  0  0  0  0  0  0  0  0
    0.5911    7.1328    0.0000 H   0  0  0  0  0  0  0  0  0  0  0  0
    1.6899    5.9237    0.0000 H   0  0  0  0  0  0  0  0  0  0  0  0
   -2.6478    6.4338    0.0000 H   0  0  0  0  0  0  0  0  0  0  0  0
   -1.7085    4.9166    0.0000 H   0  0  0  0  0  0  0  0  0  0  0  0
   -0.0656    8.6695    0.0000 H   0  0  0  0  0  0  0  0  0  0  0  0
   -4.1527   10.5527    0.0000 H   0  0  0  0  0  0  0  0  0  0  0  0
   -1.5655   10.7909    0.0000 H   0  0  0  0  0  0  0  0  0  0  0  0
   -5.2399    8.1931    0.0000 H   0  0  0  0  0  0  0  0  0  0  0  0
   -3.7400    6.0717    0.0000 H   0  0  0  0  0  0  0  0  0  0  0  0
    3.9886    6.1267    0.0000 H   0  0  0  0  0  0  0  0  0  0  0  0
    6.8847    6.0468    0.0000 H   0  0  0  0  0  0  0  0  0  0  0  0
    3.9618    7.0435    0.0000 H   0  0  0  0  0  0  0  0  0  0  0  0
    3.8345    5.4146    0.0000 H   0  0  0  0  0  0  0  0  0  0  0  0
    6.9495    8.4761    0.0000 H   0  0  0  0  0  0  0  0  0  0  0  0
    7.2202    6.8648    0.0000 H   0  0  0  0  0  0  0  0  0  0  0  0
    3.8469    9.6391    0.0000 H   0  0  0  0  0  0  0  0  0  0  0  0
    3.8168    7.8549    0.0000 H   0  0  0  0  0  0  0  0  0  0  0  0
    7.2279   10.1239    0.0000 H   0  0  0  0  0  0  0  0  0  0  0  0
    4.8078   13.9177    0.0000 H   0  0  0  0  0  0  0  0  0  0  0  0
    7.1130   12.7194    0.0000 H   0  0  0  0  0  0  0  0  0  0  0  0
    2.6174   12.5205    0.0000 H   0  0  0  0  0  0  0  0  0  0  0  0
    2.7323    9.9249    0.0000 H   0  0  0  0  0  0  0  0  0  0  0  0
    9.2638    5.7928    0.0000 H   0  0  0  0  0  0  0  0  0  0  0  0
   11.5863    4.3289    0.0000 H   0  0  0  0  0  0  0  0  0  0  0  0
    9.9127    6.6300    0.0000 H   0  0  0  0  0  0  0  0  0  0  0  0
    8.7491    5.2771    0.0000 H   0  0  0  0  0  0  0  0  0  0  0  0
   13.3985    3.8783    0.0000 H   0  0  0  0  0  0  0  0  0  0  0  0
   15.4136    6.2477    0.0000 H   0  0  0  0  0  0  0  0  0  0  0  0
   15.1134    9.4430    0.0000 H   0  0  0  0  0  0  0  0  0  0  0  0
   13.1135   11.6792    0.0000 H   0  0  0  0  0  0  0  0  0  0  0  0
   10.1770   11.0654    0.0000 H   0  0  0  0  0  0  0  0  0  0  0  0
    9.2403    8.2154    0.0000 H   0  0  0  0  0  0  0  0  0  0  0  0
   13.5210    2.6599    0.0000 H   0  0  0  0  0  0  0  0  0  0  0  0
   14.6514   -0.0076    0.0000 H   0  0  0  0  0  0  0  0  0  0  0  0
   14.3438    3.0652    0.0000 H   0  0  0  0  0  0  0  0  0  0  0  0
   12.8092    2.5043    0.0000 H   0  0  0  0  0  0  0  0  0  0  0  0
   16.8880    0.9426    0.0000 H   0  0  0  0  0  0  0  0  0  0  0  0
   15.5348    0.0270    0.0000 H   0  0  0  0  0  0  0  0  0  0  0  0
   16.6571    4.2479    0.0000 H   0  0  0  0  0  0  0  0  0  0  0  0
   15.0216    3.5342    0.0000 H   0  0  0  0  0  0  0  0  0  0  0  0
   18.5025    1.3739    0.0000 H   0  0  0  0  0  0  0  0  0  0  0  0
   20.9482    5.1513    0.0000 H   0  0  0  0  0  0  0  0  0  0  0  0
   20.8158    2.5566    0.0000 H   0  0  0  0  0  0  0  0  0  0  0  0
   18.7673    6.5633    0.0000 H   0  0  0  0  0  0  0  0  0  0  0  0
   16.4540    5.3806    0.0000 H   0  0  0  0  0  0  0  0  0  0  0  0
   15.4086   -2.2772    0.0000 H   0  0  0  0  0  0  0  0  0  0  0  0
   14.9174   -5.1324    0.0000 H   0  0  0  0  0  0  0  0  0  0  0  0
   16.3199   -2.3811    0.0000 H   0  0  0  0  0  0  0  0  0  0  0  0
   14.7257   -2.0233    0.0000 H   0  0  0  0  0  0  0  0  0  0  0  0
   17.3127   -5.5423    0.0000 H   0  0  0  0  0  0  0  0  0  0  0  0
   15.6793   -5.5809    0.0000 H   0  0  0  0  0  0  0  0  0  0  0  0
   18.9054   -2.6368    0.0000 H   0  0  0  0  0  0  0  0  0  0  0  0
   17.1436   -2.3531    0.0000 H   0  0  0  0  0  0  0  0  0  0  0  0
   18.9041   -6.0523    0.0000 H   0  0  0  0  0  0  0  0  0  0  0  0
   23.0037   -4.1968    0.0000 H   0  0  0  0  0  0  0  0  0  0  0  0
   21.4896   -6.3080    0.0000 H   0  0  0  0  0  0  0  0  0  0  0  0
   21.9324   -1.8298    0.0000 H   0  0  0  0  0  0  0  0  0  0  0  0
   19.3470   -1.5742    0.0000 H   0  0  0  0  0  0  0  0  0  0  0  0
   14.3273   -7.4511    0.0000 H   0  0  0  0  0  0  0  0  0  0  0  0
   12.3569   -9.8279    0.0000 H   0  0  0  0  0  0  0  0  0  0  0  0
   11.1969  -10.6522    0.0000 H   0  0  0  0  0  0  0  0  0  0  0  0
   10.8358  -11.0359    0.0000 H   0  0  0  0  0  0  0  0  0  0  0  0
    9.8434  -11.4880    0.0000 H   0  0  0  0  0  0  0  0  0  0  0  0
    9.3766  -11.6816    0.0000 H   0  0  0  0  0  0  0  0  0  0  0  0
    8.1729  -12.0514    0.0000 H   0  0  0  0  0  0  0  0  0  0  0  0
    7.6779  -12.1533    0.0000 H   0  0  0  0  0  0  0  0  0  0  0  0
    6.4261  -12.2886    0.0000 H   0  0  0  0  0  0  0  0  0  0  0  0
    5.9207  -12.2949    0.0000 H   0  0  0  0  0  0  0  0  0  0  0  0
    4.6659  -12.1909    0.0000 H   0  0  0  0  0  0  0  0  0  0  0  0
    4.1685  -12.1015    0.0000 H   0  0  0  0  0  0  0  0  0  0  0  0
    2.8241  -11.6347    0.0000 H   0  0  0  0  0  0  0  0  0  0  0  0
    1.8594  -11.4223    0.0000 H   0  0  0  0  0  0  0  0  0  0  0  0
   11.8647  -10.9052    0.0000 H   0  0  0  0  0  0  0  0  0  0  0  0
   13.4711  -10.7239    0.0000 H   0  0  0  0  0  0  0  0  0  0  0  0
   13.9922   -9.1359    0.0000 H   0  0  0  0  0  0  0  0  0  0  0  0
  1  2  1  0
  2  3  1  0
  3  4  1  0
  4  5  2  0
  4  6  1  0
  6  7  1  0
  7  8  1  0
  8  9  1  0
  9 10  1  0
 10 11  1  0
 11 12  1  0
 12 13  2  3
 12 14  1  0
  7 15  1  0
 15 16  2  0
 15 17  1  0
 17 18  1  0
 18 19  1  0
 19 20  1  0
 20 21  1  0
 21 22  1  0
 22 23  1  0
 23 24  2  3
 23 25  1  0
 18 26  1  0
 26 27  2  0
 26 28  1  0
 28 29  1  0
 29 30  1  0
 30 31  1  0
 31 32  1  0
 32 33  1  0
 33 34  1  0
 34 35  2  3
 34 36  1  0
 29 37  1  0
 37 38  2  0
 37 39  1  0
 39 40  1  0
 40 41  1  0
 41 42  1  0
 42 43  1  0
 43 44  1  0
 44 45  1  0
 45 46  2  3
 45 47  1  0
 40 48  1  0
 48 49  2  0
 48 50  1  0
 51 50  1  1
 51 52  1  0
 52 53  1  0
 53 54  1  0
 54 55  1  0
 51 56  1  0
 51 57  1  0
 57 58  2  0
 57 59  1  0
 59 60  1  0
 60 61  1  0
 61 62  1  0
 62 63  1  0
 63 64  1  0
 64 65  1  0
 65 66  2  3
 65 67  1  0
 60 68  1  0
 68 69  2  0
 68 70  1  0
 70 71  1  0
 71 72  1  0
 72 73  1  0
 73 74  1  0
 74 75  1  0
 75 76  1  0
 76 77  2  3
 76 78  1  0
 71 79  1  0
 79 80  2  0
 79 81  1  0
 81 82  1  0
 82 83  1  0
 83 84  1  0
 84 85  1  0
 85 86  1  0
 86 87  1  0
 87 88  2  3
 87 89  1  0
 82 90  1  0
 90 91  2  0
 90 92  1  0
 92 93  1  0
 93 94  1  0
 94 95  1  0
 95 96  2  0
 96 97  1  0
 97 98  1  0
 98 99  2  0
 99100  1  0
100101  2  0
101102  1  0
102103  2  0
 93104  1  0
104105  2  0
104106  1  0
106107  1  0
107108  1  0
108109  1  0
109110  1  0
110111  1  0
111112  1  0
112113  2  3
112114  1  0
107115  1  0
115116  2  0
115117  1  0
117118  1  0
118119  1  0
119120  1  0
120121  1  0
121122  1  0
122123  1  0
123124  2  3
123125  1  0
118126  1  0
126127  2  0
126128  1  0
128129  1  0
129130  1  0
130131  1  0
131132  1  0
132133  1  0
133134  1  0
134135  1  0
135136  1  0
129137  1  0
129138  1  6
138139  2  0
138140  1  0
103 95  1  0
103 98  1  0
 55136  2  0
  1141  1  0
  1142  1  0
  2143  1  0
  2144  1  0
  3145  1  0
  3146  1  0
  6147  1  0
  7148  1  1
  8149  1  0
  8150  1  0
  9151  1  0
  9152  1  0
 10153  1  0
 10154  1  0
 11155  1  0
 13156  1  0
 13157  1  0
 14158  1  0
 14159  1  0
 17160  1  0
 18161  1  6
 19162  1  0
 19163  1  0
 20164  1  0
 20165  1  0
 21166  1  0
 21167  1  0
 22168  1  0
 24169  1  0
 24170  1  0
 25171  1  0
 25172  1  0
 28173  1  0
 29174  1  6
 30175  1  0
 30176  1  0
 31177  1  0
 31178  1  0
 32179  1  0
 32180  1  0
 33181  1  0
 35182  1  0
 35183  1  0
 36184  1  0
 36185  1  0
 39186  1  0
 40187  1  1
 41188  1  0
 41189  1  0
 42190  1  0
 42191  1  0
 43192  1  0
 43193  1  0
 44194  1  0
 46195  1  0
 46196  1  0
 47197  1  0
 47198  1  0
 50199  1  0
 52200  1  0
 52201  1  0
 53202  1  0
 53203  1  0
 54204  1  0
 54205  1  0
 55206  1  0
 56207  1  0
 56208  1  0
 56209  1  0
 59210  1  0
 60211  1  1
 61212  1  0
 61213  1  0
 62214  1  0
 62215  1  0
 63216  1  0
 63217  1  0
 64218  1  0
 66219  1  0
 66220  1  0
 67221  1  0
 67222  1  0
 70223  1  0
 71224  1  1
 72225  1  0
 72226  1  0
 73227  1  0
 73228  1  0
 74229  1  0
 74230  1  0
 75231  1  0
 77232  1  0
 77233  1  0
 78234  1  0
 78235  1  0
 81236  1  0
 82237  1  1
 83238  1  0
 83239  1  0
 84240  1  0
 84241  1  0
 85242  1  0
 85243  1  0
 86244  1  0
 88245  1  0
 88246  1  0
 89247  1  0
 89248  1  0
 92249  1  0
 93250  1  1
 94251  1  0
 94252  1  0
 96253  1  0
 97254  1  0
 99255  1  0
100256  1  0
101257  1  0
102258  1  0
106259  1  0
107260  1  1
108261  1  0
108262  1  0
109263  1  0
109264  1  0
110265  1  0
110266  1  0
111267  1  0
113268  1  0
113269  1  0
114270  1  0
114271  1  0
117272  1  0
118273  1  1
119274  1  0
119275  1  0
120276  1  0
120277  1  0
121278  1  0
121279  1  0
122280  1  0
124281  1  0
124282  1  0
125283  1  0
125284  1  0
128285  1  0
130286  1  0
130287  1  0
131288  1  0
131289  1  0
132290  1  0
132291  1  0
133292  1  0
133293  1  0
134294  1  0
134295  1  0
135296  1  0
135297  1  0
136298  1  0
137299  1  0
137300  1  0
137301  1  0
M  CHG  8  13   1  24   1  35   1  46   1  66   1  77   1  88   1 113   1
M  CHG  2 124   1 140  -1
M  END
