
     RDKit          2D

346355  0  0  0  0  0  0  0  0999 V2000
   23.9201   -2.1609    0.0000 C   0  0  0  0  0  0  0  0  0  0  0  0
   25.2300   -1.4300    0.0000 N   0  0  0  0  0  0  0  0  0  0  0  0
   26.5179   -2.1989    0.0000 C   0  0  0  0  0  0  0  0  0  0  0  0
   26.4960   -3.6987    0.0000 C   0  0  0  0  0  0  0  0  0  0  0  0
   27.7839   -4.4676    0.0000 C   0  0  0  0  0  0  0  0  0  0  0  0
   29.0938   -3.7367    0.0000 C   0  0  0  0  0  0  0  0  0  0  0  0
   29.1157   -2.2369    0.0000 C   0  0  0  0  0  0  0  0  0  0  0  0
   27.8278   -1.4680    0.0000 C   0  0  0  0  0  0  0  0  0  0  0  0
   30.5489   -1.7942    0.0000 C   0  0  0  0  0  0  0  0  0  0  0  0
   31.4128   -3.0205    0.0000 O   0  0  0  0  0  0  0  0  0  0  0  0
   30.5135   -4.2210    0.0000 C   0  0  0  0  0  0  0  0  0  0  0  0
   30.9561   -5.6542    0.0000 O   0  0  0  0  0  0  0  0  0  0  0  0
   32.0206   -1.5039    0.0000 C   0  0  0  0  0  0  0  0  0  0  0  0
   32.5049   -0.0842    0.0000 C   0  0  0  0  0  0  0  0  0  0  0  0
   33.9765    0.2062    0.0000 C   0  0  0  0  0  0  0  0  0  0  0  0
   34.9638   -0.9231    0.0000 C   0  0  0  0  0  0  0  0  0  0  0  0
   34.4795   -2.3427    0.0000 C   0  0  0  0  0  0  0  0  0  0  0  0
   33.0078   -2.6331    0.0000 C   0  0  0  0  0  0  0  0  0  0  0  0
   36.4354   -0.6327    0.0000 O   0  0  0  0  0  0  0  0  0  0  0  0
   31.5176    1.0451    0.0000 O   0  0  0  0  0  0  0  0  0  0  0  0
   30.0460    0.7547    0.0000 C   0  0  0  0  0  0  0  0  0  0  0  0
   29.5616   -0.6650    0.0000 C   0  0  0  0  0  0  0  0  0  0  0  0
   28.3160   -0.2929    0.0000 C   0  0  0  0  0  0  0  0  0  0  0  0
   27.7895    0.3094    0.0000 C   0  0  0  0  0  0  0  0  0  0  0  0
   28.0478    1.0666    0.0000 C   0  0  0  0  0  0  0  0  0  0  0  0
   28.8327    1.2214    0.0000 C   0  0  0  0  0  0  0  0  0  0  0  0
   26.5998    2.7228    0.0000 O   0  0  0  0  0  0  0  0  0  0  0  0
   23.8982   -3.6607    0.0000 S   0  0  0  0  0  0  0  0  0  0  0  0
   22.6322   -1.3920    0.0000 N   0  0  0  0  0  0  0  0  0  0  0  0
   21.3223   -2.1229    0.0000 C   0  0  0  0  0  0  0  0  0  0  0  0
   20.0344   -1.3540    0.0000 C   0  0  0  0  0  0  0  0  0  0  0  0
   18.7245   -2.0849    0.0000 C   0  0  0  0  0  0  0  0  0  0  0  0
   18.9061   -2.8611    0.0000 O   0  0  0  0  0  0  0  0  0  0  0  0
   17.4366   -1.3160    0.0000 N   0  0  0  0  0  0  0  0  0  0  0  0
   16.1267   -2.0470    0.0000 C   0  0  0  0  0  0  0  0  0  0  0  0
   17.0740   -3.2100    0.0000 C   0  0  0  0  0  0  0  0  0  0  0  0
   18.5549   -2.9711    0.0000 C   0  0  0  0  0  0  0  0  0  0  0  0
   19.5022   -4.1342    0.0000 C   0  0  0  0  0  0  0  0  0  0  0  0
   19.8647   -2.2402    0.0000 C   0  0  0  0  0  0  0  0  0  0  0  0
   14.6459   -2.2858    0.0000 C   0  0  0  0  0  0  0  0  0  0  0  0
   14.2872   -3.7423    0.0000 O   0  0  0  0  0  0  0  0  0  0  0  0
   13.6986   -1.1228    0.0000 N   0  0  0  0  0  0  0  0  0  0  0  0
   12.2177   -1.3616    0.0000 C   0  0  0  0  0  0  0  0  0  0  0  0
   12.7101   -2.7785    0.0000 C   0  0  0  0  0  0  0  0  0  0  0  0
   14.1380   -3.2380    0.0000 O   0  0  0  0  0  0  0  0  0  0  0  0
   10.7445   -1.0796    0.0000 C   0  0  0  0  0  0  0  0  0  0  0  0
   10.0674   -2.4180    0.0000 O   0  0  0  0  0  0  0  0  0  0  0  0
   10.2521    0.3373    0.0000 N   0  0  0  0  0  0  0  0  0  0  0  0
    8.7789    0.6194    0.0000 C   0  0  0  0  0  0  0  0  0  0  0  0
    8.7569   -0.8805    0.0000 C   0  0  0  0  0  0  0  0  0  0  0  0
   10.0449   -1.6494    0.0000 C   0  0  0  0  0  0  0  0  0  0  0  0
   10.0229   -3.1492    0.0000 C   0  0  0  0  0  0  0  0  0  0  0  0
   11.2075   -4.0694    0.0000 N   0  0  0  0  0  0  0  0  0  0  0  0
    8.7131   -3.8802    0.0000 O   0  0  0  0  0  0  0  0  0  0  0  0
    7.4909    1.3883    0.0000 C   0  0  0  0  0  0  0  0  0  0  0  0
    6.5301    0.2364    0.0000 O   0  0  0  0  0  0  0  0  0  0  0  0
    7.5129    2.8881    0.0000 N   0  0  0  0  0  0  0  0  0  0  0  0
    6.2249    3.6570    0.0000 C   0  0  0  0  0  0  0  0  0  0  0  0
    6.0538    2.1668    0.0000 C   0  0  0  0  0  0  0  0  0  0  0  0
    5.4510    0.7933    0.0000 C   0  0  0  0  0  0  0  0  0  0  0  0
    4.4701   -0.3416    0.0000 C   0  0  0  0  0  0  0  0  0  0  0  0
    3.1983   -1.1369    0.0000 C   0  0  0  0  0  0  0  0  0  0  0  0
    7.4555    4.5147    0.0000 C   0  0  0  0  0  0  0  0  0  0  0  0
    5.9492    5.1315    0.0000 C   0  0  0  0  0  0  0  0  0  0  0  0
    7.3661    5.6238    0.0000 O   0  0  0  0  0  0  0  0  0  0  0  0
    5.2512    6.4592    0.0000 N   0  0  0  0  0  0  0  0  0  0  0  0
    4.1928    7.5221    0.0000 C   0  0  0  0  0  0  0  0  0  0  0  0
    4.2895    9.0190    0.0000 C   0  0  0  0  0  0  0  0  0  0  0  0
    3.8683   10.4586    0.0000 O   0  0  0  0  0  0  0  0  0  0  0  0
    5.6341    9.6837    0.0000 C   0  0  0  0  0  0  0  0  0  0  0  0
    2.8682    8.2258    0.0000 C   0  0  0  0  0  0  0  0  0  0  0  0
    3.3666    9.6406    0.0000 O   0  0  0  0  0  0  0  0  0  0  0  0
    1.3949    8.5079    0.0000 N   0  0  0  0  0  0  0  0  0  0  0  0
   -0.0960    8.3432    0.0000 C   0  0  0  0  0  0  0  0  0  0  0  0
   -1.2061    9.3520    0.0000 C   0  0  0  0  0  0  0  0  0  0  0  0
   -0.8874   10.8178    0.0000 C   0  0  0  0  0  0  0  0  0  0  0  0
    0.5413   11.2747    0.0000 C   0  0  0  0  0  0  0  0  0  0  0  0
    0.8600   12.7404    0.0000 C   0  0  0  0  0  0  0  0  0  0  0  0
   -0.2500   13.7493    0.0000 C   0  0  0  0  0  0  0  0  0  0  0  0
   -1.6787   13.2924    0.0000 C   0  0  0  0  0  0  0  0  0  0  0  0
   -1.9974   11.8266    0.0000 C   0  0  0  0  0  0  0  0  0  0  0  0
   -1.4721    7.7463    0.0000 C   0  0  0  0  0  0  0  0  0  0  0  0
   -2.2675    9.0181    0.0000 O   0  0  0  0  0  0  0  0  0  0  0  0
   -2.6112    6.7703    0.0000 N   0  0  0  0  0  0  0  0  0  0  0  0
   -3.4120    5.5019    0.0000 C   0  0  0  0  0  0  0  0  0  0  0  0
   -4.8929    5.2631    0.0000 C   0  0  0  0  0  0  0  0  0  0  0  0
   -5.6913    6.5329    0.0000 O   0  0  0  0  0  0  0  0  0  0  0  0
   -3.8033    4.0539    0.0000 C   0  0  0  0  0  0  0  0  0  0  0  0
   -5.1332    4.7478    0.0000 O   0  0  0  0  0  0  0  0  0  0  0  0
   -3.7505    2.5548    0.0000 N   0  0  0  0  0  0  0  0  0  0  0  0
   -3.2581    1.1379    0.0000 C   0  0  0  0  0  0  0  0  0  0  0  0
   -2.3700   -0.0709    0.0000 C   0  0  0  0  0  0  0  0  0  0  0  0
   -1.1650   -0.9642    0.0000 C   0  0  0  0  0  0  0  0  0  0  0  0
    0.2497   -1.4627    0.0000 C   0  0  0  0  0  0  0  0  0  0  0  0
    1.7486   -1.5220    0.0000 C   0  0  0  0  0  0  0  0  0  0  0  0
   -2.6894   -0.2501    0.0000 C   0  0  0  0  0  0  0  0  0  0  0  0
   -2.3937   -1.7207    0.0000 C   0  0  0  0  0  0  0  0  0  0  0  0
   -2.3816   -3.2206    0.0000 C   0  0  0  0  0  0  0  0  0  0  0  0
   -2.6537   -4.6957    0.0000 C   0  0  0  0  0  0  0  0  0  0  0  0
   -4.0792    2.3932    0.0000 C   0  0  0  0  0  0  0  0  0  0  0  0
   -2.9076    3.3299    0.0000 O   0  0  0  0  0  0  0  0  0  0  0  0
   -5.1230    3.4705    0.0000 N   0  0  0  0  0  0  0  0  0  0  0  0
   -6.3518    4.3307    0.0000 C   0  0  0  0  0  0  0  0  0  0  0  0
   -6.4115    5.8295    0.0000 C   0  0  0  0  0  0  0  0  0  0  0  0
   -7.7393    6.5273    0.0000 C   0  0  0  0  0  0  0  0  0  0  0  0
   -7.7990    8.0261    0.0000 C   0  0  0  0  0  0  0  0  0  0  0  0
   -9.1328    7.0825    0.0000 C   0  0  0  0  0  0  0  0  0  0  0  0
   -7.7213    4.9428    0.0000 C   0  0  0  0  0  0  0  0  0  0  0  0
   -7.7834    6.4415    0.0000 O   0  0  0  0  0  0  0  0  0  0  0  0
   -9.1818    5.2847    0.0000 N   0  0  0  0  0  0  0  0  0  0  0  0
  -10.6806    5.3440    0.0000 C   0  0  0  0  0  0  0  0  0  0  0  0
  -11.5411    6.5727    0.0000 C   0  0  0  0  0  0  0  0  0  0  0  0
  -10.9073    7.9322    0.0000 C   0  0  0  0  0  0  0  0  0  0  0  0
   -9.4349    8.2186    0.0000 C   0  0  0  0  0  0  0  0  0  0  0  0
   -9.2523    9.7074    0.0000 N   0  0  0  0  0  0  0  0  0  0  0  0
  -10.6118   10.3412    0.0000 C   0  0  0  0  0  0  0  0  0  0  0  0
  -11.0505   11.7756    0.0000 C   0  0  0  0  0  0  0  0  0  0  0  0
  -12.5121   12.1129    0.0000 C   0  0  0  0  0  0  0  0  0  0  0  0
  -13.5350   11.0157    0.0000 C   0  0  0  0  0  0  0  0  0  0  0  0
  -13.0963    9.5813    0.0000 C   0  0  0  0  0  0  0  0  0  0  0  0
  -11.6347    9.2440    0.0000 C   0  0  0  0  0  0  0  0  0  0  0  0
  -12.1636    5.1186    0.0000 C   0  0  0  0  0  0  0  0  0  0  0  0
  -12.7035    6.5181    0.0000 O   0  0  0  0  0  0  0  0  0  0  0  0
  -13.5771    4.6166    0.0000 N   0  0  0  0  0  0  0  0  0  0  0  0
  -14.8700    3.8562    0.0000 C   0  0  0  0  0  0  0  0  0  0  0  0
  -16.2582    4.4246    0.0000 C   0  0  0  0  0  0  0  0  0  0  0  0
  -16.4600    5.9109    0.0000 C   0  0  0  0  0  0  0  0  0  0  0  0
  -17.8482    6.4793    0.0000 C   0  0  0  0  0  0  0  0  0  0  0  0
  -18.0501    7.9657    0.0000 C   0  0  0  0  0  0  0  0  0  0  0  0
  -19.4382    8.5340    0.0000 N   0  0  0  0  0  0  0  0  0  0  0  0
  -15.9957    2.8648    0.0000 C   0  0  0  0  0  0  0  0  0  0  0  0
  -17.2066    3.7502    0.0000 O   0  0  0  0  0  0  0  0  0  0  0  0
  -16.9134    1.6783    0.0000 N   0  0  0  0  0  0  0  0  0  0  0  0
  -17.5900    0.3396    0.0000 C   0  0  0  0  0  0  0  0  0  0  0  0
  -19.0651    0.0672    0.0000 C   0  0  0  0  0  0  0  0  0  0  0  0
  -20.0385    1.2085    0.0000 C   0  0  0  0  0  0  0  0  0  0  0  0
  -21.5136    0.9362    0.0000 C   0  0  0  0  0  0  0  0  0  0  0  0
  -20.5629    2.6139    0.0000 C   0  0  0  0  0  0  0  0  0  0  0  0
  -18.0010   -1.1030    0.0000 C   0  0  0  0  0  0  0  0  0  0  0  0
  -19.4983   -1.0128    0.0000 O   0  0  0  0  0  0  0  0  0  0  0  0
  -18.1316   -2.5973    0.0000 N   0  0  0  0  0  0  0  0  0  0  0  0
  -17.9770   -4.0893    0.0000 C   0  0  0  0  0  0  0  0  0  0  0  0
  -19.0707   -5.1159    0.0000 C   0  0  0  0  0  0  0  0  0  0  0  0
  -20.5066   -4.6821    0.0000 C   0  0  0  0  0  0  0  0  0  0  0  0
  -21.6002   -5.7087    0.0000 C   0  0  0  0  0  0  0  0  0  0  0  0
  -21.7075   -3.7833    0.0000 C   0  0  0  0  0  0  0  0  0  0  0  0
  -17.5428   -5.5251    0.0000 C   0  0  0  0  0  0  0  0  0  0  0  0
  -18.8512   -6.2588    0.0000 O   0  0  0  0  0  0  0  0  0  0  0  0
  -16.8448   -6.8528    0.0000 N   0  0  0  0  0  0  0  0  0  0  0  0
  -15.9081   -8.0244    0.0000 C   0  0  0  0  0  0  0  0  0  0  0  0
  -16.2731   -9.4793    0.0000 C   0  0  0  0  0  0  0  0  0  0  0  0
  -14.7666   -8.9975    0.0000 C   0  0  0  0  0  0  0  0  0  0  0  0
  -15.4706  -10.3220    0.0000 O   0  0  0  0  0  0  0  0  0  0  0  0
  -13.4616   -9.7370    0.0000 N   0  0  0  0  0  0  0  0  0  0  0  0
  -12.0402  -10.2162    0.0000 C   0  0  0  0  0  0  0  0  0  0  0  0
  -10.5538  -10.4177    0.0000 C   0  0  0  0  0  0  0  0  0  0  0  0
   -9.0561  -10.3343    0.0000 C   0  0  0  0  0  0  0  0  0  0  0  0
   -7.6013   -9.9690    0.0000 C   0  0  0  0  0  0  0  0  0  0  0  0
   -6.2419   -9.3349    0.0000 C   0  0  0  0  0  0  0  0  0  0  0  0
   -5.0271   -8.4550    0.0000 C   0  0  0  0  0  0  0  0  0  0  0  0
   -4.0007   -7.3611    0.0000 C   0  0  0  0  0  0  0  0  0  0  0  0
   -3.1999   -6.0927    0.0000 C   0  0  0  0  0  0  0  0  0  0  0  0
  -13.1007  -11.2770    0.0000 C   0  0  0  0  0  0  0  0  0  0  0  0
  -11.5607  -11.6375    0.0000 C   0  0  0  0  0  0  0  0  0  0  0  0
  -10.2052  -12.2800    0.0000 O   0  0  0  0  0  0  0  0  0  0  0  0
  -12.5518  -12.7634    0.0000 N   0  0  0  0  0  0  0  0  0  0  0  0
  -12.0723  -14.1847    0.0000 C   0  0  0  0  0  0  0  0  0  0  0  0
  -11.1356  -15.3563    0.0000 C   0  0  0  0  0  0  0  0  0  0  0  0
  -11.6819  -16.7533    0.0000 C   0  0  0  0  0  0  0  0  0  0  0  0
  -10.7452  -17.9249    0.0000 N   0  0  0  0  0  0  0  0  0  0  0  0
  -13.1263  -17.1578    0.0000 O   0  0  0  0  0  0  0  0  0  0  0  0
  -13.0634  -15.3106    0.0000 C   0  0  0  0  0  0  0  0  0  0  0  0
  -12.7607  -16.7798    0.0000 O   0  0  0  0  0  0  0  0  0  0  0  0
  -14.5341  -15.0152    0.0000 O   0  0  0  0  0  0  0  0  0  0  0  0
   25.0689    0.0614    0.0000 H   0  0  0  0  0  0  0  0  0  0  0  0
   25.1861   -4.4296    0.0000 H   0  0  0  0  0  0  0  0  0  0  0  0
   27.7620   -5.9675    0.0000 H   0  0  0  0  0  0  0  0  0  0  0  0
   27.4861   -0.0074    0.0000 H   0  0  0  0  0  0  0  0  0  0  0  0
   34.4608    1.6258    0.0000 H   0  0  0  0  0  0  0  0  0  0  0  0
   35.4668   -3.4720    0.0000 H   0  0  0  0  0  0  0  0  0  0  0  0
   32.5235   -4.0528    0.0000 H   0  0  0  0  0  0  0  0  0  0  0  0
   37.4227   -1.7620    0.0000 H   0  0  0  0  0  0  0  0  0  0  0  0
   27.6057   -2.3750    0.0000 H   0  0  0  0  0  0  0  0  0  0  0  0
   25.6067    0.0651    0.0000 H   0  0  0  0  0  0  0  0  0  0  0  0
   29.5430    3.3036    0.0000 H   0  0  0  0  0  0  0  0  0  0  0  0
   27.0841    4.1425    0.0000 H   0  0  0  0  0  0  0  0  0  0  0  0
   22.6541    0.1079    0.0000 H   0  0  0  0  0  0  0  0  0  0  0  0
   22.2696   -3.2860    0.0000 H   0  0  0  0  0  0  0  0  0  0  0  0
   20.6452   -3.4614    0.0000 H   0  0  0  0  0  0  0  0  0  0  0  0
   20.8696   -0.1081    0.0000 H   0  0  0  0  0  0  0  0  0  0  0  0
   19.2359   -0.0842    0.0000 H   0  0  0  0  0  0  0  0  0  0  0  0
   17.4585    0.1838    0.0000 H   0  0  0  0  0  0  0  0  0  0  0  0
   15.6344   -0.6301    0.0000 H   0  0  0  0  0  0  0  0  0  0  0  0
   17.3900   -4.6763    0.0000 H   0  0  0  0  0  0  0  0  0  0  0  0
   15.7641   -3.9409    0.0000 H   0  0  0  0  0  0  0  0  0  0  0  0
   18.4200   -1.4772    0.0000 H   0  0  0  0  0  0  0  0  0  0  0  0
   20.9968   -4.2608    0.0000 H   0  0  0  0  0  0  0  0  0  0  0  0
   19.9945   -5.5511    0.0000 H   0  0  0  0  0  0  0  0  0  0  0  0
   18.2912   -5.0193    0.0000 H   0  0  0  0  0  0  0  0  0  0  0  0
   21.1527   -3.0091    0.0000 H   0  0  0  0  0  0  0  0  0  0  0  0
   20.9766   -1.2334    0.0000 H   0  0  0  0  0  0  0  0  0  0  0  0
   18.7828   -1.2013    0.0000 H   0  0  0  0  0  0  0  0  0  0  0  0
   14.2322    0.2791    0.0000 H   0  0  0  0  0  0  0  0  0  0  0  0
   12.2397    0.1382    0.0000 H   0  0  0  0  0  0  0  0  0  0  0  0
   12.6882   -4.2783    0.0000 H   0  0  0  0  0  0  0  0  0  0  0  0
   11.2694   -3.1961    0.0000 H   0  0  0  0  0  0  0  0  0  0  0  0
   14.6757   -4.4774    0.0000 H   0  0  0  0  0  0  0  0  0  0  0  0
   11.2330    1.4722    0.0000 H   0  0  0  0  0  0  0  0  0  0  0  0
    9.3125    2.0213    0.0000 H   0  0  0  0  0  0  0  0  0  0  0  0
    8.2234   -2.2824    0.0000 H   0  0  0  0  0  0  0  0  0  0  0  0
    7.2837   -0.5984    0.0000 H   0  0  0  0  0  0  0  0  0  0  0  0
   11.5181   -1.9314    0.0000 H   0  0  0  0  0  0  0  0  0  0  0  0
   10.9018   -0.4183    0.0000 H   0  0  0  0  0  0  0  0  0  0  0  0
   11.2890   -5.4180    0.0000 H   0  0  0  0  0  0  0  0  0  0  0  0
   12.7922   -3.5554    0.0000 H   0  0  0  0  0  0  0  0  0  0  0  0
    8.9021    3.4539    0.0000 H   0  0  0  0  0  0  0  0  0  0  0  0
    7.5506    2.2644    0.0000 H   0  0  0  0  0  0  0  0  0  0  0  0
    6.9145    0.9384    0.0000 H   0  0  0  0  0  0  0  0  0  0  0  0
    6.7825    0.1026    0.0000 H   0  0  0  0  0  0  0  0  0  0  0  0
    6.2431   -0.4805    0.0000 H   0  0  0  0  0  0  0  0  0  0  0  0
    5.8451   -0.9410    0.0000 H   0  0  0  0  0  0  0  0  0  0  0  0
    4.6720   -1.8279    0.0000 H   0  0  0  0  0  0  0  0  0  0  0  0
    3.7952   -2.5130    0.0000 H   0  0  0  0  0  0  0  0  0  0  0  0
    8.8811    4.0482    0.0000 H   0  0  0  0  0  0  0  0  0  0  0  0
    8.3185    5.7416    0.0000 H   0  0  0  0  0  0  0  0  0  0  0  0
    6.6858    5.8022    0.0000 H   0  0  0  0  0  0  0  0  0  0  0  0
    6.4600    7.3473    0.0000 H   0  0  0  0  0  0  0  0  0  0  0  0
    5.6508    7.8745    0.0000 H   0  0  0  0  0  0  0  0  0  0  0  0
    2.8030    9.2199    0.0000 H   0  0  0  0  0  0  0  0  0  0  0  0
    4.7646   11.6614    0.0000 H   0  0  0  0  0  0  0  0  0  0  0  0
    5.9126   11.1576    0.0000 H   0  0  0  0  0  0  0  0  0  0  0  0
    7.1251    9.8484    0.0000 H   0  0  0  0  0  0  0  0  0  0  0  0
    6.2276    8.3061    0.0000 H   0  0  0  0  0  0  0  0  0  0  0  0
    1.6365    9.9883    0.0000 H   0  0  0  0  0  0  0  0  0  0  0  0
    0.3670    9.7699    0.0000 H   0  0  0  0  0  0  0  0  0  0  0  0
   -2.5942    9.9204    0.0000 H   0  0  0  0  0  0  0  0  0  0  0  0
   -2.2900    8.3151    0.0000 H   0  0  0  0  0  0  0  0  0  0  0  0
    1.7661   10.4086    0.0000 H   0  0  0  0  0  0  0  0  0  0  0  0
    2.2888   13.1973    0.0000 H   0  0  0  0  0  0  0  0  0  0  0  0
    0.0687   15.2150    0.0000 H   0  0  0  0  0  0  0  0  0  0  0  0
   -2.7888   14.3013    0.0000 H   0  0  0  0  0  0  0  0  0  0  0  0
   -3.4261   11.3697    0.0000 H   0  0  0  0  0  0  0  0  0  0  0  0
   -3.7461    7.7512    0.0000 H   0  0  0  0  0  0  0  0  0  0  0  0
   -4.2388    6.7535    0.0000 H   0  0  0  0  0  0  0  0  0  0  0  0
   -6.3407    4.8708    0.0000 H   0  0  0  0  0  0  0  0  0  0  0  0
   -4.9411    3.7639    0.0000 H   0  0  0  0  0  0  0  0  0  0  0  0
   -7.3082    6.7340    0.0000 H   0  0  0  0  0  0  0  0  0  0  0  0
   -5.2249    2.2791    0.0000 H   0  0  0  0  0  0  0  0  0  0  0  0
   -2.5076   -1.5646    0.0000 H   0  0  0  0  0  0  0  0  0  0  0  0
   -3.8371   -0.3833    0.0000 H   0  0  0  0  0  0  0  0  0  0  0  0
   -0.8563   -2.4321    0.0000 H   0  0  0  0  0  0  0  0  0  0  0  0
   -2.1258   -2.1161    0.0000 H   0  0  0  0  0  0  0  0  0  0  0  0
    0.8121   -2.8533    0.0000 H   0  0  0  0  0  0  0  0  0  0  0  0
   -0.3289   -2.8466    0.0000 H   0  0  0  0  0  0  0  0  0  0  0  0
    1.9133   -3.0129    0.0000 H   0  0  0  0  0  0  0  0  0  0  0  0
   -1.6983    0.8758    0.0000 H   0  0  0  0  0  0  0  0  0  0  0  0
   -1.2986   -0.8119    0.0000 H   0  0  0  0  0  0  0  0  0  0  0  0
   -0.9572   -1.2889    0.0000 H   0  0  0  0  0  0  0  0  0  0  0  0
   -1.1343   -2.5355    0.0000 H   0  0  0  0  0  0  0  0  0  0  0  0
   -0.8894   -3.0685    0.0000 H   0  0  0  0  0  0  0  0  0  0  0  0
   -1.1807   -4.1194    0.0000 H   0  0  0  0  0  0  0  0  0  0  0  0
   -1.2111   -5.1067    0.0000 H   0  0  0  0  0  0  0  0  0  0  0  0
   -4.2963    4.7221    0.0000 H   0  0  0  0  0  0  0  0  0  0  0  0
   -5.2485    5.3469    0.0000 H   0  0  0  0  0  0  0  0  0  0  0  0
   -5.9549    7.2583    0.0000 H   0  0  0  0  0  0  0  0  0  0  0  0
   -4.9607    5.4483    0.0000 H   0  0  0  0  0  0  0  0  0  0  0  0
   -8.5281    5.2514    0.0000 H   0  0  0  0  0  0  0  0  0  0  0  0
   -8.7885    9.1534    0.0000 H   0  0  0  0  0  0  0  0  0  0  0  0
   -7.3424    9.4549    0.0000 H   0  0  0  0  0  0  0  0  0  0  0  0
   -6.2991    8.0072    0.0000 H   0  0  0  0  0  0  0  0  0  0  0  0
   -9.6210    8.1758    0.0000 H   0  0  0  0  0  0  0  0  0  0  0  0
  -10.7618    6.6048    0.0000 H   0  0  0  0  0  0  0  0  0  0  0  0
   -9.5305    5.2601    0.0000 H   0  0  0  0  0  0  0  0  0  0  0  0
   -8.9803    6.7711    0.0000 H   0  0  0  0  0  0  0  0  0  0  0  0
  -10.3018    6.7954    0.0000 H   0  0  0  0  0  0  0  0  0  0  0  0
  -12.6559    7.5763    0.0000 H   0  0  0  0  0  0  0  0  0  0  0  0
  -12.8268    5.8000    0.0000 H   0  0  0  0  0  0  0  0  0  0  0  0
   -8.2213    7.3371    0.0000 H   0  0  0  0  0  0  0  0  0  0  0  0
   -7.9404   10.4348    0.0000 H   0  0  0  0  0  0  0  0  0  0  0  0
  -10.0277   12.8727    0.0000 H   0  0  0  0  0  0  0  0  0  0  0  0
  -12.9509   13.5473    0.0000 H   0  0  0  0  0  0  0  0  0  0  0  0
  -14.9966   11.3530    0.0000 H   0  0  0  0  0  0  0  0  0  0  0  0
  -14.1192    8.4842    0.0000 H   0  0  0  0  0  0  0  0  0  0  0  0
  -14.0407    6.0432    0.0000 H   0  0  0  0  0  0  0  0  0  0  0  0
  -14.7940    5.3543    0.0000 H   0  0  0  0  0  0  0  0  0  0  0  0
  -17.7570    4.4839    0.0000 H   0  0  0  0  0  0  0  0  0  0  0  0
  -16.9221    3.0795    0.0000 H   0  0  0  0  0  0  0  0  0  0  0  0
  -15.9651    7.3269    0.0000 H   0  0  0  0  0  0  0  0  0  0  0  0
  -14.9914    6.2161    0.0000 H   0  0  0  0  0  0  0  0  0  0  0  0
  -19.3470    6.5386    0.0000 H   0  0  0  0  0  0  0  0  0  0  0  0
  -18.3432    5.0633    0.0000 H   0  0  0  0  0  0  0  0  0  0  0  0
  -17.7314    9.4314    0.0000 H   0  0  0  0  0  0  0  0  0  0  0  0
  -16.5552    8.0895    0.0000 H   0  0  0  0  0  0  0  0  0  0  0  0
  -19.6401   10.0204    0.0000 H   0  0  0  0  0  0  0  0  0  0  0  0
  -20.6245    7.6160    0.0000 H   0  0  0  0  0  0  0  0  0  0  0  0
  -18.0747    2.6277    0.0000 H   0  0  0  0  0  0  0  0  0  0  0  0
  -18.3360    1.6409    0.0000 H   0  0  0  0  0  0  0  0  0  0  0  0
  -20.3581   -0.6932    0.0000 H   0  0  0  0  0  0  0  0  0  0  0  0
  -18.8964   -1.4233    0.0000 H   0  0  0  0  0  0  0  0  0  0  0  0
  -18.9680    2.2592    0.0000 H   0  0  0  0  0  0  0  0  0  0  0  0
  -22.6188    1.9503    0.0000 H   0  0  0  0  0  0  0  0  0  0  0  0
  -22.8065    0.1757    0.0000 H   0  0  0  0  0  0  0  0  0  0  0  0
  -21.1644   -0.5226    0.0000 H   0  0  0  0  0  0  0  0  0  0  0  0
  -22.0008    3.0409    0.0000 H   0  0  0  0  0  0  0  0  0  0  0  0
  -20.5749    4.1138    0.0000 H   0  0  0  0  0  0  0  0  0  0  0  0
  -19.0878    2.8862    0.0000 H   0  0  0  0  0  0  0  0  0  0  0  0
  -19.6218   -2.4265    0.0000 H   0  0  0  0  0  0  0  0  0  0  0  0
  -19.3081   -3.3979    0.0000 H   0  0  0  0  0  0  0  0  0  0  0  0
  -19.7473   -6.4547    0.0000 H   0  0  0  0  0  0  0  0  0  0  0  0
  -18.1229   -6.2786    0.0000 H   0  0  0  0  0  0  0  0  0  0  0  0
  -20.1740   -3.2194    0.0000 H   0  0  0  0  0  0  0  0  0  0  0  0
  -23.0783   -5.4531    0.0000 H   0  0  0  0  0  0  0  0  0  0  0  0
  -22.2768   -7.0474    0.0000 H   0  0  0  0  0  0  0  0  0  0  0  0
  -20.5178   -6.7472    0.0000 H   0  0  0  0  0  0  0  0  0  0  0  0
  -23.1480   -4.2015    0.0000 H   0  0  0  0  0  0  0  0  0  0  0  0
  -22.5286   -2.5280    0.0000 H   0  0  0  0  0  0  0  0  0  0  0  0
  -20.6138   -2.7567    0.0000 H   0  0  0  0  0  0  0  0  0  0  0  0
  -18.1001   -7.6739    0.0000 H   0  0  0  0  0  0  0  0  0  0  0  0
  -17.3738   -8.3434    0.0000 H   0  0  0  0  0  0  0  0  0  0  0  0
  -17.7156   -9.8906    0.0000 H   0  0  0  0  0  0  0  0  0  0  0  0
  -16.3016  -10.9790    0.0000 H   0  0  0  0  0  0  0  0  0  0  0  0
  -14.8473   -9.9450    0.0000 H   0  0  0  0  0  0  0  0  0  0  0  0
  -14.2361  -11.0216    0.0000 H   0  0  0  0  0  0  0  0  0  0  0  0
   -9.8140  -11.7226    0.0000 H   0  0  0  0  0  0  0  0  0  0  0  0
  -11.0688  -11.8266    0.0000 H   0  0  0  0  0  0  0  0  0  0  0  0
   -8.2291  -11.5857    0.0000 H   0  0  0  0  0  0  0  0  0  0  0  0
   -9.2952  -11.8151    0.0000 H   0  0  0  0  0  0  0  0  0  0  0  0
   -6.5524  -11.0412    0.0000 H   0  0  0  0  0  0  0  0  0  0  0  0
   -7.7389  -11.4626    0.0000 H   0  0  0  0  0  0  0  0  0  0  0  0
   -5.0090  -10.1893    0.0000 H   0  0  0  0  0  0  0  0  0  0  0  0
   -6.0944  -10.8276    0.0000 H   0  0  0  0  0  0  0  0  0  0  0  0
   -3.6548   -9.0606    0.0000 H   0  0  0  0  0  0  0  0  0  0  0  0
   -4.5997   -9.8928    0.0000 H   0  0  0  0  0  0  0  0  0  0  0  0
   -2.5087   -7.5154    0.0000 H   0  0  0  0  0  0  0  0  0  0  0  0
   -3.3090   -8.6921    0.0000 H   0  0  0  0  0  0  0  0  0  0  0  0
   -1.8612   -6.7693    0.0000 H   0  0  0  0  0  0  0  0  0  0  0  0
  -13.0744  -12.7768    0.0000 H   0  0  0  0  0  0  0  0  0  0  0  0
  -14.4601  -11.9111    0.0000 H   0  0  0  0  0  0  0  0  0  0  0  0
  -14.2329  -10.2931    0.0000 H   0  0  0  0  0  0  0  0  0  0  0  0
  -14.0475  -12.6495    0.0000 H   0  0  0  0  0  0  0  0  0  0  0  0
  -10.7559  -13.4657    0.0000 H   0  0  0  0  0  0  0  0  0  0  0  0
   -9.8547  -16.1369    0.0000 H   0  0  0  0  0  0  0  0  0  0  0  0
  -10.1445  -14.2304    0.0000 H   0  0  0  0  0  0  0  0  0  0  0  0
  -11.2914  -19.3219    0.0000 H   0  0  0  0  0  0  0  0  0  0  0  0
   -9.2622  -17.6995    0.0000 H   0  0  0  0  0  0  0  0  0  0  0  0
  -15.5252  -16.1412    0.0000 H   0  0  0  0  0  0  0  0  0  0  0  0
  1  2  1  0
  2  3  1  0
  3  4  2  0
  4  5  1  0
  5  6  2  0
  6  7  1  0
  7  8  2  0
  7  9  1  0
  9 10  1  0
 10 11  1  0
 11 12  2  0
  9 13  1  0
 13 14  1  0
 14 15  2  0
 15 16  1  0
 16 17  2  0
 17 18  1  0
 16 19  1  0
 14 20  1  0
 20 21  1  0
 21 22  2  0
 22 23  1  0
 23 24  2  0
 24 25  1  0
 25 26  2  0
 25 27  1  0
  1 28  2  0
  1 29  1  0
 29 30  1  0
 30 31  1  0
 31 32  1  0
 32 33  2  0
 32 34  1  0
 34 35  1  0
 35 36  1  0
 36 37  1  0
 37 38  1  0
 37 39  1  0
 35 40  1  0
 40 41  2  0
 40 42  1  0
 42 43  1  0
 43 44  1  0
 44 45  1  0
 43 46  1  0
 46 47  2  0
 46 48  1  0
 48 49  1  0
 49 50  1  0
 50 51  1  0
 51 52  1  0
 52 53  1  0
 52 54  2  0
 49 55  1  0
 55 56  2  0
 55 57  1  0
 58 57  1  1
 58 59  1  0
 59 60  1  0
 60 61  1  0
 61 62  1  0
 58 63  1  0
 58 64  1  0
 64 65  2  0
 64 66  1  0
 66 67  1  0
 67 68  1  0
 68 69  1  0
 68 70  1  0
 67 71  1  0
 71 72  2  0
 71 73  1  0
 73 74  1  0
 74 75  1  0
 75 76  1  0
 76 77  2  0
 77 78  1  0
 78 79  2  0
 79 80  1  0
 80 81  2  0
 74 82  1  0
 82 83  2  0
 82 84  1  0
 84 85  1  0
 85 86  1  0
 86 87  1  0
 85 88  1  0
 88 89  2  0
 88 90  1  0
 90 91  1  0
 91 92  1  0
 92 93  1  0
 93 94  1  0
 94 95  1  0
 91 96  1  0
 96 97  1  0
 97 98  1  0
 98 99  1  0
 91100  1  0
100101  2  0
100102  1  0
102103  1  0
103104  1  0
104105  1  0
105106  1  0
105107  1  0
103108  1  0
108109  2  0
108110  1  0
110111  1  0
111112  1  0
112113  1  0
113114  2  0
114115  1  0
115116  1  0
116117  2  0
117118  1  0
118119  2  0
119120  1  0
120121  2  0
111122  1  0
122123  2  0
122124  1  0
124125  1  0
125126  1  0
126127  1  0
127128  1  0
128129  1  0
129130  1  0
125131  1  0
131132  2  0
131133  1  0
133134  1  0
134135  1  0
135136  1  0
136137  1  0
136138  1  0
134139  1  0
139140  2  0
139141  1  0
141142  1  0
142143  1  0
143144  1  0
144145  1  0
144146  1  0
142147  1  0
147148  2  0
147149  1  0
149150  1  0
150151  1  0
150152  1  0
152153  2  0
152154  1  0
154155  1  0
155156  1  0
156157  1  0
157158  1  0
158159  1  0
159160  1  0
160161  1  0
161162  1  0
155163  1  0
155164  1  1
164165  2  0
164166  1  0
166167  1  0
167168  1  0
168169  1  0
169170  1  0
169171  2  0
167172  1  0
172173  2  0
172174  1  0
  8  3  1  0
 81 76  1  0
121113  1  0
 11  6  1  0
 62 95  2  0
121116  1  0
 18 13  2  0
 99162  2  0
 22  9  1  0
 26 21  1  0
  2175  1  0
  4176  1  0
  5177  1  0
  8178  1  0
 15179  1  0
 17180  1  0
 18181  1  0
 19182  1  0
 23183  1  0
 24184  1  0
 26185  1  0
 27186  1  0
 29187  1  0
 30188  1  0
 30189  1  0
 31190  1  0
 31191  1  0
 34192  1  0
 35193  1  1
 36194  1  0
 36195  1  0
 37196  1  0
 38197  1  0
 38198  1  0
 38199  1  0
 39200  1  0
 39201  1  0
 39202  1  0
 42203  1  0
 43204  1  1
 44205  1  0
 44206  1  0
 45207  1  0
 48208  1  0
 49209  1  1
 50210  1  0
 50211  1  0
 51212  1  0
 51213  1  0
 53214  1  0
 53215  1  0
 57216  1  0
 59217  1  0
 59218  1  0
 60219  1  0
 60220  1  0
 61221  1  0
 61222  1  0
 62223  1  0
 63224  1  0
 63225  1  0
 63226  1  0
 66227  1  0
 67228  1  6
 68229  1  1
 69230  1  0
 70231  1  0
 70232  1  0
 70233  1  0
 73234  1  0
 74235  1  6
 75236  1  0
 75237  1  0
 77238  1  0
 78239  1  0
 79240  1  0
 80241  1  0
 81242  1  0
 84243  1  0
 85244  1  6
 86245  1  0
 86246  1  0
 87247  1  0
 90248  1  0
 92249  1  0
 92250  1  0
 93251  1  0
 93252  1  0
 94253  1  0
 94254  1  0
 95255  1  0
 96256  1  0
 96257  1  0
 97258  1  0
 97259  1  0
 98260  1  0
 98261  1  0
 99262  1  0
102263  1  0
103264  1  6
104265  1  0
104266  1  0
105267  1  0
106268  1  0
106269  1  0
106270  1  0
107271  1  0
107272  1  0
107273  1  0
110274  1  0
111275  1  6
112276  1  0
112277  1  0
114278  1  0
115279  1  0
117280  1  0
118281  1  0
119282  1  0
120283  1  0
124284  1  0
125285  1  6
126286  1  0
126287  1  0
127288  1  0
127289  1  0
128290  1  0
128291  1  0
129292  1  0
129293  1  0
130294  1  0
130295  1  0
133296  1  0
134297  1  6
135298  1  0
135299  1  0
136300  1  0
137301  1  0
137302  1  0
137303  1  0
138304  1  0
138305  1  0
138306  1  0
141307  1  0
142308  1  6
143309  1  0
143310  1  0
144311  1  0
145312  1  0
145313  1  0
145314  1  0
146315  1  0
146316  1  0
146317  1  0
149318  1  0
150319  1  6
151320  1  0
151321  1  0
151322  1  0
154323  1  0
156324  1  0
156325  1  0
157326  1  0
157327  1  0
158328  1  0
158329  1  0
159330  1  0
159331  1  0
160332  1  0
160333  1  0
161334  1  0
161335  1  0
162336  1  0
163337  1  0
163338  1  0
163339  1  0
166340  1  0
167341  1  1
168342  1  0
168343  1  0
170344  1  0
170345  1  0
174346  1  0
M  END
