
     RDKit          2D

354362  0  0  0  0  0  0  0  0999 V2000
  -28.8067    0.0939    0.0000 C   0  0  0  0  0  0  0  0  0  0  0  0
  -30.0617   -0.7278    0.0000 N   0  0  0  0  0  0  0  0  0  0  0  0
  -31.4007   -0.0518    0.0000 C   0  0  0  0  0  0  0  0  0  0  0  0
  -31.4848    1.4459    0.0000 C   0  0  0  0  0  0  0  0  0  0  0  0
  -32.8239    2.1218    0.0000 C   0  0  0  0  0  0  0  0  0  0  0  0
  -34.0788    1.3002    0.0000 C   0  0  0  0  0  0  0  0  0  0  0  0
  -33.9947   -0.1975    0.0000 C   0  0  0  0  0  0  0  0  0  0  0  0
  -32.6556   -0.8735    0.0000 C   0  0  0  0  0  0  0  0  0  0  0  0
  -35.3930   -0.7403    0.0000 C   0  0  0  0  0  0  0  0  0  0  0  0
  -36.3414    0.4219    0.0000 O   0  0  0  0  0  0  0  0  0  0  0  0
  -35.5291    1.6830    0.0000 C   0  0  0  0  0  0  0  0  0  0  0  0
  -36.0719    3.0813    0.0000 O   0  0  0  0  0  0  0  0  0  0  0  0
  -36.8405   -1.1339    0.0000 C   0  0  0  0  0  0  0  0  0  0  0  0
  -37.2233   -2.5843    0.0000 C   0  0  0  0  0  0  0  0  0  0  0  0
  -38.6707   -2.9779    0.0000 C   0  0  0  0  0  0  0  0  0  0  0  0
  -39.7353   -1.9212    0.0000 C   0  0  0  0  0  0  0  0  0  0  0  0
  -39.3525   -0.4709    0.0000 C   0  0  0  0  0  0  0  0  0  0  0  0
  -37.9051   -0.0773    0.0000 C   0  0  0  0  0  0  0  0  0  0  0  0
  -41.1827   -2.3149    0.0000 O   0  0  0  0  0  0  0  0  0  0  0  0
  -36.1586   -3.6409    0.0000 O   0  0  0  0  0  0  0  0  0  0  0  0
  -34.7112   -3.2473    0.0000 C   0  0  0  0  0  0  0  0  0  0  0  0
  -34.3284   -1.7970    0.0000 C   0  0  0  0  0  0  0  0  0  0  0  0
  -33.0596   -2.0801    0.0000 C   0  0  0  0  0  0  0  0  0  0  0  0
  -32.4918   -2.6437    0.0000 C   0  0  0  0  0  0  0  0  0  0  0  0
  -32.6960   -3.4172    0.0000 C   0  0  0  0  0  0  0  0  0  0  0  0
  -33.4679   -3.6271    0.0000 C   0  0  0  0  0  0  0  0  0  0  0  0
  -31.1345   -4.9670    0.0000 O   0  0  0  0  0  0  0  0  0  0  0  0
  -28.8908    1.5916    0.0000 S   0  0  0  0  0  0  0  0  0  0  0  0
  -27.4677   -0.5821    0.0000 N   0  0  0  0  0  0  0  0  0  0  0  0
  -26.2127    0.2396    0.0000 C   0  0  0  0  0  0  0  0  0  0  0  0
  -24.8737   -0.4364    0.0000 C   0  0  0  0  0  0  0  0  0  0  0  0
  -23.6187    0.3853    0.0000 C   0  0  0  0  0  0  0  0  0  0  0  0
  -23.7029    1.8829    0.0000 O   0  0  0  0  0  0  0  0  0  0  0  0
  -22.2797   -0.2907    0.0000 N   0  0  0  0  0  0  0  0  0  0  0  0
  -21.0248    0.5310    0.0000 C   0  0  0  0  0  0  0  0  0  0  0  0
  -20.1265    1.7323    0.0000 C   0  0  0  0  0  0  0  0  0  0  0  0
  -18.6370    1.5551    0.0000 C   0  0  0  0  0  0  0  0  0  0  0  0
  -17.7388    2.7564    0.0000 C   0  0  0  0  0  0  0  0  0  0  0  0
  -16.5238    2.7610    0.0000 O   0  0  0  0  0  0  0  0  0  0  0  0
  -18.3301    4.1350    0.0000 O   0  0  0  0  0  0  0  0  0  0  0  0
  -19.6857   -0.1450    0.0000 C   0  0  0  0  0  0  0  0  0  0  0  0
  -19.6016   -1.6426    0.0000 O   0  0  0  0  0  0  0  0  0  0  0  0
  -18.4308    0.6767    0.0000 N   0  0  0  0  0  0  0  0  0  0  0  0
  -17.0917    0.0007    0.0000 C   0  0  0  0  0  0  0  0  0  0  0  0
  -16.0646   -1.0925    0.0000 C   0  0  0  0  0  0  0  0  0  0  0  0
  -16.4978   -2.5286    0.0000 C   0  0  0  0  0  0  0  0  0  0  0  0
  -15.4707   -3.6217    0.0000 C   0  0  0  0  0  0  0  0  0  0  0  0
  -15.9039   -5.0578    0.0000 N   0  0  0  0  0  0  0  0  0  0  0  0
  -14.8768   -6.1510    0.0000 C   0  0  0  0  0  0  0  0  0  0  0  0
  -15.3099   -7.5871    0.0000 N   0  0  0  0  0  0  0  0  0  0  0  0
  -13.4165   -5.8081    0.0000 N   0  0  0  0  0  0  0  0  0  0  0  0
  -15.8368    0.8224    0.0000 C   0  0  0  0  0  0  0  0  0  0  0  0
  -15.7565    2.0347    0.0000 O   0  0  0  0  0  0  0  0  0  0  0  0
  -14.4977    0.1464    0.0000 N   0  0  0  0  0  0  0  0  0  0  0  0
  -13.2428    0.9681    0.0000 C   0  0  0  0  0  0  0  0  0  0  0  0
  -12.3446    2.1694    0.0000 C   0  0  0  0  0  0  0  0  0  0  0  0
  -10.8551    1.9922    0.0000 C   0  0  0  0  0  0  0  0  0  0  0  0
  -10.2638    0.6136    0.0000 C   0  0  0  0  0  0  0  0  0  0  0  0
   -8.7743    0.4364    0.0000 C   0  0  0  0  0  0  0  0  0  0  0  0
   -7.8761    1.6377    0.0000 C   0  0  0  0  0  0  0  0  0  0  0  0
   -8.4673    3.0163    0.0000 C   0  0  0  0  0  0  0  0  0  0  0  0
   -9.9568    3.1935    0.0000 C   0  0  0  0  0  0  0  0  0  0  0  0
  -11.9037    0.2921    0.0000 C   0  0  0  0  0  0  0  0  0  0  0  0
  -12.0028   -1.2046    0.0000 O   0  0  0  0  0  0  0  0  0  0  0  0
  -10.6488    1.1138    0.0000 N   0  0  0  0  0  0  0  0  0  0  0  0
   -9.3098    0.4378    0.0000 C   0  0  0  0  0  0  0  0  0  0  0  0
   -8.2826   -0.6554    0.0000 C   0  0  0  0  0  0  0  0  0  0  0  0
   -8.7158   -2.0915    0.0000 C   0  0  0  0  0  0  0  0  0  0  0  0
   -7.6887   -3.1847    0.0000 C   0  0  0  0  0  0  0  0  0  0  0  0
   -8.1219   -4.6208    0.0000 N   0  0  0  0  0  0  0  0  0  0  0  0
   -7.0948   -5.7139    0.0000 C   0  0  0  0  0  0  0  0  0  0  0  0
   -7.5280   -7.1500    0.0000 N   0  0  0  0  0  0  0  0  0  0  0  0
   -5.6345   -5.3710    0.0000 N   0  0  0  0  0  0  0  0  0  0  0  0
   -8.0548    1.2595    0.0000 C   0  0  0  0  0  0  0  0  0  0  0  0
   -7.7740    2.7330    0.0000 O   0  0  0  0  0  0  0  0  0  0  0  0
   -6.7158    0.5835    0.0000 N   0  0  0  0  0  0  0  0  0  0  0  0
   -5.4608    1.4052    0.0000 C   0  0  0  0  0  0  0  0  0  0  0  0
   -4.5626    2.6065    0.0000 C   0  0  0  0  0  0  0  0  0  0  0  0
   -3.0731    2.4293    0.0000 C   0  0  0  0  0  0  0  0  0  0  0  0
   -2.1749    3.6306    0.0000 C   0  0  0  0  0  0  0  0  0  0  0  0
   -0.6854    3.4534    0.0000 N   0  0  0  0  0  0  0  0  0  0  0  0
    0.2128    4.6547    0.0000 C   0  0  0  0  0  0  0  0  0  0  0  0
    1.7023    4.4775    0.0000 N   0  0  0  0  0  0  0  0  0  0  0  0
   -0.3784    6.0333    0.0000 N   0  0  0  0  0  0  0  0  0  0  0  0
   -4.1218    0.7292    0.0000 C   0  0  0  0  0  0  0  0  0  0  0  0
   -4.0377   -0.7684    0.0000 O   0  0  0  0  0  0  0  0  0  0  0  0
   -2.8668    1.5509    0.0000 N   0  0  0  0  0  0  0  0  0  0  0  0
   -1.5278    0.8749    0.0000 C   0  0  0  0  0  0  0  0  0  0  0  0
   -0.5007   -0.2183    0.0000 C   0  0  0  0  0  0  0  0  0  0  0  0
   -0.9339   -1.6544    0.0000 C   0  0  0  0  0  0  0  0  0  0  0  0
    0.0932   -2.7476    0.0000 C   0  0  0  0  0  0  0  0  0  0  0  0
   -0.3399   -4.1837    0.0000 N   0  0  0  0  0  0  0  0  0  0  0  0
    0.6872   -5.2769    0.0000 C   0  0  0  0  0  0  0  0  0  0  0  0
    0.2540   -6.7129    0.0000 N   0  0  0  0  0  0  0  0  0  0  0  0
    2.1474   -4.9340    0.0000 N   0  0  0  0  0  0  0  0  0  0  0  0
   -0.2729    1.6966    0.0000 C   0  0  0  0  0  0  0  0  0  0  0  0
    0.0079    3.1700    0.0000 O   0  0  0  0  0  0  0  0  0  0  0  0
    1.0662    1.0206    0.0000 N   0  0  0  0  0  0  0  0  0  0  0  0
    2.3211    1.8423    0.0000 C   0  0  0  0  0  0  0  0  0  0  0  0
    3.2194    3.0436    0.0000 C   0  0  0  0  0  0  0  0  0  0  0  0
    4.7194    3.0492    0.0000 C   0  0  0  0  0  0  0  0  0  0  0  0
    3.6525    4.4797    0.0000 C   0  0  0  0  0  0  0  0  0  0  0  0
    5.0601    4.9980    0.0000 C   0  0  0  0  0  0  0  0  0  0  0  0
    3.6602    1.1663    0.0000 C   0  0  0  0  0  0  0  0  0  0  0  0
    3.5611   -0.3304    0.0000 O   0  0  0  0  0  0  0  0  0  0  0  0
    4.9151    1.9879    0.0000 N   0  0  0  0  0  0  0  0  0  0  0  0
    6.2542    1.3120    0.0000 C   0  0  0  0  0  0  0  0  0  0  0  0
    6.6334   -0.1393    0.0000 C   0  0  0  0  0  0  0  0  0  0  0  0
    7.4235   -1.4143    0.0000 C   0  0  0  0  0  0  0  0  0  0  0  0
    8.5543   -2.3998    0.0000 C   0  0  0  0  0  0  0  0  0  0  0  0
    9.9254   -3.0082    0.0000 C   0  0  0  0  0  0  0  0  0  0  0  0
    4.9811    0.5187    0.0000 C   0  0  0  0  0  0  0  0  0  0  0  0
    6.3196    2.8105    0.0000 C   0  0  0  0  0  0  0  0  0  0  0  0
    4.8936    3.2759    0.0000 O   0  0  0  0  0  0  0  0  0  0  0  0
    6.8238    4.2233    0.0000 N   0  0  0  0  0  0  0  0  0  0  0  0
    7.7220    5.4246    0.0000 C   0  0  0  0  0  0  0  0  0  0  0  0
    7.4157    6.8930    0.0000 C   0  0  0  0  0  0  0  0  0  0  0  0
    8.5341    7.8925    0.0000 C   0  0  0  0  0  0  0  0  0  0  0  0
    8.2277    9.3609    0.0000 C   0  0  0  0  0  0  0  0  0  0  0  0
    9.8487    8.6148    0.0000 C   0  0  0  0  0  0  0  0  0  0  0  0
    8.9345    6.3078    0.0000 C   0  0  0  0  0  0  0  0  0  0  0  0
    8.5844    7.7664    0.0000 O   0  0  0  0  0  0  0  0  0  0  0  0
   10.3533    6.7944    0.0000 N   0  0  0  0  0  0  0  0  0  0  0  0
   11.8526    6.8411    0.0000 C   0  0  0  0  0  0  0  0  0  0  0  0
   12.8096    7.9962    0.0000 C   0  0  0  0  0  0  0  0  0  0  0  0
   12.2878    9.4025    0.0000 S   0  0  0  0  0  0  0  0  0  0  0  0
   13.2991    6.4439    0.0000 C   0  0  0  0  0  0  0  0  0  0  0  0
   13.9074    7.8150    0.0000 O   0  0  0  0  0  0  0  0  0  0  0  0
   14.5642    5.6380    0.0000 N   0  0  0  0  0  0  0  0  0  0  0  0
   15.5355    4.4949    0.0000 C   0  0  0  0  0  0  0  0  0  0  0  0
   17.0352    4.4669    0.0000 C   0  0  0  0  0  0  0  0  0  0  0  0
   17.8094    5.7517    0.0000 C   0  0  0  0  0  0  0  0  0  0  0  0
   19.3091    5.7236    0.0000 C   0  0  0  0  0  0  0  0  0  0  0  0
   20.0833    7.0084    0.0000 N   0  0  0  0  0  0  0  0  0  0  0  0
   21.5830    6.9804    0.0000 C   0  0  0  0  0  0  0  0  0  0  0  0
   22.3571    8.2652    0.0000 N   0  0  0  0  0  0  0  0  0  0  0  0
   22.3086    5.6676    0.0000 N   0  0  0  0  0  0  0  0  0  0  0  0
   16.1268    3.1164    0.0000 C   0  0  0  0  0  0  0  0  0  0  0  0
   17.5780    3.4956    0.0000 O   0  0  0  0  0  0  0  0  0  0  0  0
   16.2854    1.6248    0.0000 N   0  0  0  0  0  0  0  0  0  0  0  0
   15.9974    0.1527    0.0000 C   0  0  0  0  0  0  0  0  0  0  0  0
   15.2882   -1.1691    0.0000 C   0  0  0  0  0  0  0  0  0  0  0  0
   14.2210   -2.2231    0.0000 C   0  0  0  0  0  0  0  0  0  0  0  0
   12.8905   -2.9157    0.0000 C   0  0  0  0  0  0  0  0  0  0  0  0
   11.4149   -3.1854    0.0000 C   0  0  0  0  0  0  0  0  0  0  0  0
   17.4577    0.4956    0.0000 C   0  0  0  0  0  0  0  0  0  0  0  0
   16.9105   -1.0373    0.0000 C   0  0  0  0  0  0  0  0  0  0  0  0
   16.6889   -2.5209    0.0000 O   0  0  0  0  0  0  0  0  0  0  0  0
   18.3977   -0.8415    0.0000 N   0  0  0  0  0  0  0  0  0  0  0  0
   19.3108   -2.0315    0.0000 C   0  0  0  0  0  0  0  0  0  0  0  0
   19.7619   -3.4621    0.0000 C   0  0  0  0  0  0  0  0  0  0  0  0
   18.7485   -4.5680    0.0000 C   0  0  0  0  0  0  0  0  0  0  0  0
   19.0476   -6.0379    0.0000 C   0  0  0  0  0  0  0  0  0  0  0  0
   17.7421   -6.7766    0.0000 N   0  0  0  0  0  0  0  0  0  0  0  0
   16.6362   -5.7632    0.0000 C   0  0  0  0  0  0  0  0  0  0  0  0
   17.2582   -4.3982    0.0000 N   0  0  0  0  0  0  0  0  0  0  0  0
   20.7980   -1.8357    0.0000 C   0  0  0  0  0  0  0  0  0  0  0  0
   21.3720   -0.4499    0.0000 O   0  0  0  0  0  0  0  0  0  0  0  0
   21.7112   -3.0258    0.0000 N   0  0  0  0  0  0  0  0  0  0  0  0
   23.1983   -2.8300    0.0000 C   0  0  0  0  0  0  0  0  0  0  0  0
   24.5288   -2.1373    0.0000 C   0  0  0  0  0  0  0  0  0  0  0  0
   25.7939   -2.9433    0.0000 C   0  0  0  0  0  0  0  0  0  0  0  0
   27.1896   -2.3935    0.0000 C   0  0  0  0  0  0  0  0  0  0  0  0
   28.1437   -3.5509    0.0000 N   0  0  0  0  0  0  0  0  0  0  0  0
   27.3377   -4.8160    0.0000 C   0  0  0  0  0  0  0  0  0  0  0  0
   25.8855   -4.4405    0.0000 N   0  0  0  0  0  0  0  0  0  0  0  0
   24.1115   -4.0200    0.0000 C   0  0  0  0  0  0  0  0  0  0  0  0
   23.5375   -5.4058    0.0000 O   0  0  0  0  0  0  0  0  0  0  0  0
   25.5986   -3.8242    0.0000 N   0  0  0  0  0  0  0  0  0  0  0  0
   26.5118   -5.0142    0.0000 C   0  0  0  0  0  0  0  0  0  0  0  0
   26.9629   -6.4448    0.0000 C   0  0  0  0  0  0  0  0  0  0  0  0
   25.9495   -7.5507    0.0000 O   0  0  0  0  0  0  0  0  0  0  0  0
   27.9990   -4.8184    0.0000 C   0  0  0  0  0  0  0  0  0  0  0  0
   28.8913   -3.6127    0.0000 O   0  0  0  0  0  0  0  0  0  0  0  0
   28.9121   -6.0084    0.0000 N   0  0  0  0  0  0  0  0  0  0  0  0
   30.3993   -5.8126    0.0000 C   0  0  0  0  0  0  0  0  0  0  0  0
   31.7298   -5.1200    0.0000 C   0  0  0  0  0  0  0  0  0  0  0  0
   32.7432   -4.0141    0.0000 O   0  0  0  0  0  0  0  0  0  0  0  0
   32.9949   -5.9259    0.0000 C   0  0  0  0  0  0  0  0  0  0  0  0
   31.3124   -7.0027    0.0000 C   0  0  0  0  0  0  0  0  0  0  0  0
   32.8124   -6.9896    0.0000 O   0  0  0  0  0  0  0  0  0  0  0  0
   30.7384   -8.3885    0.0000 O   0  0  0  0  0  0  0  0  0  0  0  0
  -29.7956   -2.2040    0.0000 H   0  0  0  0  0  0  0  0  0  0  0  0
  -30.2299    2.2675    0.0000 H   0  0  0  0  0  0  0  0  0  0  0  0
  -32.9080    3.6195    0.0000 H   0  0  0  0  0  0  0  0  0  0  0  0
  -32.2116   -2.3062    0.0000 H   0  0  0  0  0  0  0  0  0  0  0  0
  -39.0535   -4.4283    0.0000 H   0  0  0  0  0  0  0  0  0  0  0  0
  -40.4171    0.5858    0.0000 H   0  0  0  0  0  0  0  0  0  0  0  0
  -37.5223    1.3731    0.0000 H   0  0  0  0  0  0  0  0  0  0  0  0
  -42.2474   -1.2582    0.0000 H   0  0  0  0  0  0  0  0  0  0  0  0
  -32.4982    0.0470    0.0000 H   0  0  0  0  0  0  0  0  0  0  0  0
  -30.3317   -2.2457    0.0000 H   0  0  0  0  0  0  0  0  0  0  0  0
  -34.0294   -5.7543    0.0000 H   0  0  0  0  0  0  0  0  0  0  0  0
  -31.5173   -6.4173    0.0000 H   0  0  0  0  0  0  0  0  0  0  0  0
  -27.3835   -2.0797    0.0000 H   0  0  0  0  0  0  0  0  0  0  0  0
  -25.3145    1.4409    0.0000 H   0  0  0  0  0  0  0  0  0  0  0  0
  -27.2398    1.3328    0.0000 H   0  0  0  0  0  0  0  0  0  0  0  0
  -23.8466   -1.5296    0.0000 H   0  0  0  0  0  0  0  0  0  0  0  0
  -25.7719   -1.6377    0.0000 H   0  0  0  0  0  0  0  0  0  0  0  0
  -22.1956   -1.7883    0.0000 H   0  0  0  0  0  0  0  0  0  0  0  0
  -22.0519    1.6242    0.0000 H   0  0  0  0  0  0  0  0  0  0  0  0
  -19.6933    3.1684    0.0000 H   0  0  0  0  0  0  0  0  0  0  0  0
  -21.4656    2.4083    0.0000 H   0  0  0  0  0  0  0  0  0  0  0  0
  -17.2980    0.8791    0.0000 H   0  0  0  0  0  0  0  0  0  0  0  0
  -18.3451    0.0838    0.0000 H   0  0  0  0  0  0  0  0  0  0  0  0
  -18.1500    2.1502    0.0000 H   0  0  0  0  0  0  0  0  0  0  0  0
  -18.1297   -1.0822    0.0000 H   0  0  0  0  0  0  0  0  0  0  0  0
  -14.7256   -1.7684    0.0000 H   0  0  0  0  0  0  0  0  0  0  0  0
  -14.9024   -0.1442    0.0000 H   0  0  0  0  0  0  0  0  0  0  0  0
  -17.3960   -3.7299    0.0000 H   0  0  0  0  0  0  0  0  0  0  0  0
  -17.9093   -2.0209    0.0000 H   0  0  0  0  0  0  0  0  0  0  0  0
  -14.1316   -4.2977    0.0000 H   0  0  0  0  0  0  0  0  0  0  0  0
  -14.4327   -2.5389    0.0000 H   0  0  0  0  0  0  0  0  0  0  0  0
  -17.3641   -5.4007    0.0000 H   0  0  0  0  0  0  0  0  0  0  0  0
  -14.2828   -8.6803    0.0000 H   0  0  0  0  0  0  0  0  0  0  0  0
  -16.7702   -7.9300    0.0000 H   0  0  0  0  0  0  0  0  0  0  0  0
  -12.3894   -6.9013    0.0000 H   0  0  0  0  0  0  0  0  0  0  0  0
  -12.9833   -4.3720    0.0000 H   0  0  0  0  0  0  0  0  0  0  0  0
  -14.2317   -1.3298    0.0000 H   0  0  0  0  0  0  0  0  0  0  0  0
  -14.2699    2.0613    0.0000 H   0  0  0  0  0  0  0  0  0  0  0  0
  -11.9114    3.6055    0.0000 H   0  0  0  0  0  0  0  0  0  0  0  0
  -13.6836    2.8454    0.0000 H   0  0  0  0  0  0  0  0  0  0  0  0
  -11.0089   -0.6882    0.0000 H   0  0  0  0  0  0  0  0  0  0  0  0
   -7.8670   -0.7581    0.0000 H   0  0  0  0  0  0  0  0  0  0  0  0
   -6.3866    1.4605    0.0000 H   0  0  0  0  0  0  0  0  0  0  0  0
   -7.5691    4.2176    0.0000 H   0  0  0  0  0  0  0  0  0  0  0  0
  -10.5481    4.5721    0.0000 H   0  0  0  0  0  0  0  0  0  0  0  0
  -10.3680    2.5873    0.0000 H   0  0  0  0  0  0  0  0  0  0  0  0
  -10.3477   -0.6451    0.0000 H   0  0  0  0  0  0  0  0  0  0  0  0
   -6.9436   -1.3314    0.0000 H   0  0  0  0  0  0  0  0  0  0  0  0
   -7.1204    0.2929    0.0000 H   0  0  0  0  0  0  0  0  0  0  0  0
   -9.6141   -3.2928    0.0000 H   0  0  0  0  0  0  0  0  0  0  0  0
  -10.1273   -1.5838    0.0000 H   0  0  0  0  0  0  0  0  0  0  0  0
   -6.3497   -3.8606    0.0000 H   0  0  0  0  0  0  0  0  0  0  0  0
   -6.6508   -2.1018    0.0000 H   0  0  0  0  0  0  0  0  0  0  0  0
   -9.5822   -4.9637    0.0000 H   0  0  0  0  0  0  0  0  0  0  0  0
   -6.5009   -8.2432    0.0000 H   0  0  0  0  0  0  0  0  0  0  0  0
   -8.9883   -7.4929    0.0000 H   0  0  0  0  0  0  0  0  0  0  0  0
   -4.6074   -6.4642    0.0000 H   0  0  0  0  0  0  0  0  0  0  0  0
   -5.2013   -3.9350    0.0000 H   0  0  0  0  0  0  0  0  0  0  0  0
   -6.4497   -0.8927    0.0000 H   0  0  0  0  0  0  0  0  0  0  0  0
   -6.4879    2.4984    0.0000 H   0  0  0  0  0  0  0  0  0  0  0  0
   -4.3077    4.0847    0.0000 H   0  0  0  0  0  0  0  0  0  0  0  0
   -5.9017    3.2825    0.0000 H   0  0  0  0  0  0  0  0  0  0  0  0
   -1.7341    1.7533    0.0000 H   0  0  0  0  0  0  0  0  0  0  0  0
   -2.7812    0.9579    0.0000 H   0  0  0  0  0  0  0  0  0  0  0  0
   -1.7417    5.0667    0.0000 H   0  0  0  0  0  0  0  0  0  0  0  0
   -3.4215    4.4648    0.0000 H   0  0  0  0  0  0  0  0  0  0  0  0
    0.2219    2.2589    0.0000 H   0  0  0  0  0  0  0  0  0  0  0  0
    2.6006    5.6788    0.0000 H   0  0  0  0  0  0  0  0  0  0  0  0
    2.1429    3.0318    0.0000 H   0  0  0  0  0  0  0  0  0  0  0  0
    0.5198    7.2346    0.0000 H   0  0  0  0  0  0  0  0  0  0  0  0
   -1.8679    6.2105    0.0000 H   0  0  0  0  0  0  0  0  0  0  0  0
   -2.5861    3.0243    0.0000 H   0  0  0  0  0  0  0  0  0  0  0  0
   -2.5658   -0.2080    0.0000 H   0  0  0  0  0  0  0  0  0  0  0  0
    0.8384   -0.8943    0.0000 H   0  0  0  0  0  0  0  0  0  0  0  0
    0.6615    0.7300    0.0000 H   0  0  0  0  0  0  0  0  0  0  0  0
   -1.8321   -2.8557    0.0000 H   0  0  0  0  0  0  0  0  0  0  0  0
   -2.3453   -1.1467    0.0000 H   0  0  0  0  0  0  0  0  0  0  0  0
    1.4323   -3.4236    0.0000 H   0  0  0  0  0  0  0  0  0  0  0  0
    1.1312   -1.6647    0.0000 H   0  0  0  0  0  0  0  0  0  0  0  0
   -1.8002   -4.5266    0.0000 H   0  0  0  0  0  0  0  0  0  0  0  0
    1.2811   -7.8061    0.0000 H   0  0  0  0  0  0  0  0  0  0  0  0
   -1.2063   -7.0559    0.0000 H   0  0  0  0  0  0  0  0  0  0  0  0
    3.1745   -6.0271    0.0000 H   0  0  0  0  0  0  0  0  0  0  0  0
    2.5806   -3.4979    0.0000 H   0  0  0  0  0  0  0  0  0  0  0  0
    1.3322   -0.4556    0.0000 H   0  0  0  0  0  0  0  0  0  0  0  0
    1.2940    2.9354    0.0000 H   0  0  0  0  0  0  0  0  0  0  0  0
    1.7565    3.3754    0.0000 H   0  0  0  0  0  0  0  0  0  0  0  0
    5.6295    4.0678    0.0000 H   0  0  0  0  0  0  0  0  0  0  0  0
    6.2162    2.5374    0.0000 H   0  0  0  0  0  0  0  0  0  0  0  0
    4.8855    1.3788    0.0000 H   0  0  0  0  0  0  0  0  0  0  0  0
    3.5684    5.9773    0.0000 H   0  0  0  0  0  0  0  0  0  0  0  0
    2.1958    4.8371    0.0000 H   0  0  0  0  0  0  0  0  0  0  0  0
    5.2265    6.3388    0.0000 H   0  0  0  0  0  0  0  0  0  0  0  0
    6.6009    5.0110    0.0000 H   0  0  0  0  0  0  0  0  0  0  0  0
    5.1969    3.3249    0.0000 H   0  0  0  0  0  0  0  0  0  0  0  0
    4.6491    3.4642    0.0000 H   0  0  0  0  0  0  0  0  0  0  0  0
    5.1350   -0.0702    0.0000 H   0  0  0  0  0  0  0  0  0  0  0  0
    5.7961   -1.3839    0.0000 H   0  0  0  0  0  0  0  0  0  0  0  0
    6.0279   -1.9642    0.0000 H   0  0  0  0  0  0  0  0  0  0  0  0
    6.8185   -2.7869    0.0000 H   0  0  0  0  0  0  0  0  0  0  0  0
    7.2774   -3.1868    0.0000 H   0  0  0  0  0  0  0  0  0  0  0  0
    8.5637   -3.8998    0.0000 H   0  0  0  0  0  0  0  0  0  0  0  0
    9.5282   -4.4547    0.0000 H   0  0  0  0  0  0  0  0  0  0  0  0
    4.9153   -1.1459    0.0000 H   0  0  0  0  0  0  0  0  0  0  0  0
    3.7557   -0.2724    0.0000 H   0  0  0  0  0  0  0  0  0  0  0  0
    3.9858    1.3829    0.0000 H   0  0  0  0  0  0  0  0  0  0  0  0
    5.7129    5.2312    0.0000 H   0  0  0  0  0  0  0  0  0  0  0  0
    6.2576    5.7492    0.0000 H   0  0  0  0  0  0  0  0  0  0  0  0
    6.4760    8.0622    0.0000 H   0  0  0  0  0  0  0  0  0  0  0  0
    5.9295    6.6898    0.0000 H   0  0  0  0  0  0  0  0  0  0  0  0
    9.6093    6.8465    0.0000 H   0  0  0  0  0  0  0  0  0  0  0  0
    9.2160   10.4893    0.0000 H   0  0  0  0  0  0  0  0  0  0  0  0
    7.4376   10.6359    0.0000 H   0  0  0  0  0  0  0  0  0  0  0  0
    6.7774    8.9781    0.0000 H   0  0  0  0  0  0  0  0  0  0  0  0
   10.3206    9.8966    0.0000 H   0  0  0  0  0  0  0  0  0  0  0  0
   11.4290    8.6891    0.0000 H   0  0  0  0  0  0  0  0  0  0  0  0
   10.5796    7.0986    0.0000 H   0  0  0  0  0  0  0  0  0  0  0  0
   10.2655    8.2918    0.0000 H   0  0  0  0  0  0  0  0  0  0  0  0
   11.3625    8.2588    0.0000 H   0  0  0  0  0  0  0  0  0  0  0  0
   14.1039    8.7543    0.0000 H   0  0  0  0  0  0  0  0  0  0  0  0
   14.0287    7.1222    0.0000 H   0  0  0  0  0  0  0  0  0  0  0  0
   13.2448   10.5576    0.0000 H   0  0  0  0  0  0  0  0  0  0  0  0
   15.5496    6.7688    0.0000 H   0  0  0  0  0  0  0  0  0  0  0  0
   16.0078    5.9186    0.0000 H   0  0  0  0  0  0  0  0  0  0  0  0
   18.3588    3.7610    0.0000 H   0  0  0  0  0  0  0  0  0  0  0  0
   17.1120    2.9689    0.0000 H   0  0  0  0  0  0  0  0  0  0  0  0
   18.0974    7.2238    0.0000 H   0  0  0  0  0  0  0  0  0  0  0  0
   16.4858    6.4576    0.0000 H   0  0  0  0  0  0  0  0  0  0  0  0
   20.7088    5.1844    0.0000 H   0  0  0  0  0  0  0  0  0  0  0  0
   19.2027    4.2274    0.0000 H   0  0  0  0  0  0  0  0  0  0  0  0
   19.3577    8.3213    0.0000 H   0  0  0  0  0  0  0  0  0  0  0  0
   23.8569    8.2372    0.0000 H   0  0  0  0  0  0  0  0  0  0  0  0
   21.6316    9.5780    0.0000 H   0  0  0  0  0  0  0  0  0  0  0  0
   23.8083    5.6395    0.0000 H   0  0  0  0  0  0  0  0  0  0  0  0
   21.5344    4.3828    0.0000 H   0  0  0  0  0  0  0  0  0  0  0  0
   17.7840    1.5594    0.0000 H   0  0  0  0  0  0  0  0  0  0  0  0
   15.8101   -2.5754    0.0000 H   0  0  0  0  0  0  0  0  0  0  0  0
   16.7154   -1.6309    0.0000 H   0  0  0  0  0  0  0  0  0  0  0  0
   14.4870   -3.6993    0.0000 H   0  0  0  0  0  0  0  0  0  0  0  0
   15.4486   -3.0851    0.0000 H   0  0  0  0  0  0  0  0  0  0  0  0
   12.5294   -4.3716    0.0000 H   0  0  0  0  0  0  0  0  0  0  0  0
   13.9471   -3.9804    0.0000 H   0  0  0  0  0  0  0  0  0  0  0  0
   11.4617   -4.6847    0.0000 H   0  0  0  0  0  0  0  0  0  0  0  0
   18.7188   -0.3166    0.0000 H   0  0  0  0  0  0  0  0  0  0  0  0
   18.6031    1.4641    0.0000 H   0  0  0  0  0  0  0  0  0  0  0  0
   17.2175    1.9763    0.0000 H   0  0  0  0  0  0  0  0  0  0  0  0
   19.1364    0.4640    0.0000 H   0  0  0  0  0  0  0  0  0  0  0  0
   17.9803   -2.7242    0.0000 H   0  0  0  0  0  0  0  0  0  0  0  0
   20.5232   -4.7546    0.0000 H   0  0  0  0  0  0  0  0  0  0  0  0
   21.2205   -3.1120    0.0000 H   0  0  0  0  0  0  0  0  0  0  0  0
   20.4126   -6.6599    0.0000 H   0  0  0  0  0  0  0  0  0  0  0  0
   17.5723   -8.2669    0.0000 H   0  0  0  0  0  0  0  0  0  0  0  0
   15.1663   -6.0623    0.0000 H   0  0  0  0  0  0  0  0  0  0  0  0
   21.3104   -4.4712    0.0000 H   0  0  0  0  0  0  0  0  0  0  0  0
   22.7473   -1.3994    0.0000 H   0  0  0  0  0  0  0  0  0  0  0  0
   25.5422   -1.0314    0.0000 H   0  0  0  0  0  0  0  0  0  0  0  0
   23.6157   -0.9473    0.0000 H   0  0  0  0  0  0  0  0  0  0  0  0
   27.5651   -0.9413    0.0000 H   0  0  0  0  0  0  0  0  0  0  0  0
   29.6409   -3.4593    0.0000 H   0  0  0  0  0  0  0  0  0  0  0  0
   28.0535   -6.1342    0.0000 H   0  0  0  0  0  0  0  0  0  0  0  0
   26.4909   -2.6184    0.0000 H   0  0  0  0  0  0  0  0  0  0  0  0
   25.1813   -5.7068    0.0000 H   0  0  0  0  0  0  0  0  0  0  0  0
   27.7242   -7.7372    0.0000 H   0  0  0  0  0  0  0  0  0  0  0  0
   28.4532   -6.2751    0.0000 H   0  0  0  0  0  0  0  0  0  0  0  0
   26.4006   -8.9813    0.0000 H   0  0  0  0  0  0  0  0  0  0  0  0
   28.5113   -7.4539    0.0000 H   0  0  0  0  0  0  0  0  0  0  0  0
   29.9482   -4.3821    0.0000 H   0  0  0  0  0  0  0  0  0  0  0  0
   30.8166   -3.9300    0.0000 H   0  0  0  0  0  0  0  0  0  0  0  0
   34.2363   -4.1578    0.0000 H   0  0  0  0  0  0  0  0  0  0  0  0
   34.3999   -5.4006    0.0000 H   0  0  0  0  0  0  0  0  0  0  0  0
   33.9080   -7.1160    0.0000 H   0  0  0  0  0  0  0  0  0  0  0  0
   32.4453   -7.3216    0.0000 H   0  0  0  0  0  0  0  0  0  0  0  0
  1  2  1  0
  2  3  1  0
  3  4  2  0
  4  5  1  0
  5  6  2  0
  6  7  1  0
  7  8  2  0
  7  9  1  0
  9 10  1  0
 10 11  1  0
 11 12  2  0
  9 13  1  0
 13 14  1  0
 14 15  2  0
 15 16  1  0
 16 17  2  0
 17 18  1  0
 16 19  1  0
 14 20  1  0
 20 21  1  0
 21 22  2  0
 22 23  1  0
 23 24  2  0
 24 25  1  0
 25 26  2  0
 25 27  1  0
  1 28  2  0
  1 29  1  0
 29 30  1  0
 30 31  1  0
 31 32  1  0
 32 33  2  0
 32 34  1  0
 34 35  1  0
 35 36  1  0
 36 37  1  0
 37 38  1  0
 38 39  2  0
 38 40  1  0
 35 41  1  0
 41 42  2  0
 41 43  1  0
 43 44  1  0
 44 45  1  0
 45 46  1  0
 46 47  1  0
 47 48  1  0
 48 49  1  0
 49 50  2  3
 49 51  1  0
 44 52  1  0
 52 53  2  0
 52 54  1  0
 54 55  1  0
 55 56  1  0
 56 57  1  0
 57 58  2  0
 58 59  1  0
 59 60  2  0
 60 61  1  0
 61 62  2  0
 55 63  1  0
 63 64  2  0
 63 65  1  0
 65 66  1  0
 66 67  1  0
 67 68  1  0
 68 69  1  0
 69 70  1  0
 70 71  1  0
 71 72  2  3
 71 73  1  0
 66 74  1  0
 74 75  2  0
 74 76  1  0
 76 77  1  0
 77 78  1  0
 78 79  1  0
 79 80  1  0
 80 81  1  0
 81 82  1  0
 82 83  2  3
 82 84  1  0
 77 85  1  0
 85 86  2  0
 85 87  1  0
 87 88  1  0
 88 89  1  0
 89 90  1  0
 90 91  1  0
 91 92  1  0
 92 93  1  0
 93 94  2  3
 93 95  1  0
 88 96  1  0
 96 97  2  0
 96 98  1  0
 98 99  1  0
 99100  1  0
100101  1  0
100102  1  0
102103  1  0
 99104  1  0
104105  2  0
104106  1  0
107106  1  6
107108  1  0
108109  1  0
109110  1  0
110111  1  0
107112  1  0
107113  1  0
113114  2  0
113115  1  0
115116  1  0
116117  1  0
117118  1  0
118119  1  0
118120  1  0
116121  1  0
121122  2  0
121123  1  0
123124  1  0
124125  1  0
125126  1  0
124127  1  0
127128  2  0
127129  1  0
129130  1  0
130131  1  0
131132  1  0
132133  1  0
133134  1  0
134135  1  0
135136  2  3
135137  1  0
130138  1  0
138139  2  0
138140  1  0
140141  1  0
141142  1  0
142143  1  0
143144  1  0
144145  1  0
141146  1  0
141147  1  6
147148  2  0
147149  1  0
149150  1  0
150151  1  0
151152  1  0
152153  2  0
153154  1  0
154155  1  0
155156  2  0
150157  1  0
157158  2  0
157159  1  0
159160  1  0
160161  1  0
161162  1  0
162163  2  0
163164  1  0
164165  1  0
165166  2  0
160167  1  0
167168  2  0
167169  1  0
169170  1  0
170171  1  0
171172  1  0
170173  1  0
173174  2  0
173175  1  0
175176  1  0
176177  1  0
177178  1  0
177179  1  0
176180  1  0
180181  2  0
180182  1  0
  8  3  1  0
 62 57  1  0
156152  1  0
166162  1  0
 11  6  1  0
111145  2  0
 18 13  2  0
 22  9  1  0
 26 21  1  0
  2183  1  0
  4184  1  0
  5185  1  0
  8186  1  0
 15187  1  0
 17188  1  0
 18189  1  0
 19190  1  0
 23191  1  0
 24192  1  0
 26193  1  0
 27194  1  0
 29195  1  0
 30196  1  0
 30197  1  0
 31198  1  0
 31199  1  0
 34200  1  0
 35201  1  1
 36202  1  0
 36203  1  0
 37204  1  0
 37205  1  0
 43206  1  0
 44207  1  6
 45208  1  0
 45209  1  0
 46210  1  0
 46211  1  0
 47212  1  0
 47213  1  0
 48214  1  0
 50215  1  0
 50216  1  0
 51217  1  0
 51218  1  0
 54219  1  0
 55220  1  1
 56221  1  0
 56222  1  0
 58223  1  0
 59224  1  0
 60225  1  0
 61226  1  0
 62227  1  0
 65228  1  0
 66229  1  6
 67230  1  0
 67231  1  0
 68232  1  0
 68233  1  0
 69234  1  0
 69235  1  0
 70236  1  0
 72237  1  0
 72238  1  0
 73239  1  0
 73240  1  0
 76241  1  0
 77242  1  1
 78243  1  0
 78244  1  0
 79245  1  0
 79246  1  0
 80247  1  0
 80248  1  0
 81249  1  0
 83250  1  0
 83251  1  0
 84252  1  0
 84253  1  0
 87254  1  0
 88255  1  6
 89256  1  0
 89257  1  0
 90258  1  0
 90259  1  0
 91260  1  0
 91261  1  0
 92262  1  0
 94263  1  0
 94264  1  0
 95265  1  0
 95266  1  0
 98267  1  0
 99268  1  1
100269  1  1
101270  1  0
101271  1  0
101272  1  0
102273  1  0
102274  1  0
103275  1  0
103276  1  0
103277  1  0
106278  1  0
108279  1  0
108280  1  0
109281  1  0
109282  1  0
110283  1  0
110284  1  0
111285  1  0
112286  1  0
112287  1  0
112288  1  0
115289  1  0
116290  1  1
117291  1  0
117292  1  0
118293  1  0
119294  1  0
119295  1  0
119296  1  0
120297  1  0
120298  1  0
120299  1  0
123300  1  0
124301  1  1
125302  1  0
125303  1  0
126304  1  0
129305  1  0
130306  1  1
131307  1  0
131308  1  0
132309  1  0
132310  1  0
133311  1  0
133312  1  0
134313  1  0
136314  1  0
136315  1  0
137316  1  0
137317  1  0
140318  1  0
142319  1  0
142320  1  0
143321  1  0
143322  1  0
144323  1  0
144324  1  0
145325  1  0
146326  1  0
146327  1  0
146328  1  0
149329  1  0
150330  1  6
151331  1  0
151332  1  0
153333  1  0
154334  1  0
155335  1  0
159336  1  0
160337  1  1
161338  1  0
161339  1  0
163340  1  0
164341  1  0
165342  1  0
169343  1  0
170344  1  6
171345  1  0
171346  1  0
172347  1  0
175348  1  0
176349  1  1
177350  1  1
178351  1  0
179352  1  0
179353  1  0
179354  1  0
M  CHG  7  40  -1  50   1  72   1  83   1  94   1 136   1 182  -1
M  END
