
     RDKit          2D

320328  0  0  0  0  0  0  0  0999 V2000
   15.3044   -3.2325    0.0000 C   0  0  0  0  0  0  0  0  0  0  0  0
   16.6242   -3.9453    0.0000 N   0  0  0  0  0  0  0  0  0  0  0  0
   16.6668   -5.4447    0.0000 C   0  0  0  0  0  0  0  0  0  0  0  0
   15.3896   -6.2313    0.0000 C   0  0  0  0  0  0  0  0  0  0  0  0
   15.4321   -7.7307    0.0000 C   0  0  0  0  0  0  0  0  0  0  0  0
   16.7519   -8.4435    0.0000 C   0  0  0  0  0  0  0  0  0  0  0  0
   18.0292   -7.6569    0.0000 C   0  0  0  0  0  0  0  0  0  0  0  0
   17.9866   -6.1575    0.0000 C   0  0  0  0  0  0  0  0  0  0  0  0
   19.1719   -8.6285    0.0000 C   0  0  0  0  0  0  0  0  0  0  0  0
   18.6010  -10.0156    0.0000 O   0  0  0  0  0  0  0  0  0  0  0  0
   17.1053   -9.9012    0.0000 C   0  0  0  0  0  0  0  0  0  0  0  0
   16.1337  -11.0440    0.0000 O   0  0  0  0  0  0  0  0  0  0  0  0
   20.2069   -9.7143    0.0000 C   0  0  0  0  0  0  0  0  0  0  0  0
   21.6646   -9.3609    0.0000 C   0  0  0  0  0  0  0  0  0  0  0  0
   22.6996  -10.4467    0.0000 C   0  0  0  0  0  0  0  0  0  0  0  0
   22.2767  -11.8859    0.0000 C   0  0  0  0  0  0  0  0  0  0  0  0
   20.8190  -12.2393    0.0000 C   0  0  0  0  0  0  0  0  0  0  0  0
   19.7840  -11.1535    0.0000 C   0  0  0  0  0  0  0  0  0  0  0  0
   23.3117  -12.9716    0.0000 O   0  0  0  0  0  0  0  0  0  0  0  0
   22.0875   -7.9217    0.0000 O   0  0  0  0  0  0  0  0  0  0  0  0
   21.0525   -6.8360    0.0000 C   0  0  0  0  0  0  0  0  0  0  0  0
   19.5948   -7.1894    0.0000 C   0  0  0  0  0  0  0  0  0  0  0  0
   19.2401   -5.9387    0.0000 C   0  0  0  0  0  0  0  0  0  0  0  0
   19.4656   -5.1711    0.0000 C   0  0  0  0  0  0  0  0  0  0  0  0
   20.2431   -4.9826    0.0000 C   0  0  0  0  0  0  0  0  0  0  0  0
   20.7951   -5.5617    0.0000 C   0  0  0  0  0  0  0  0  0  0  0  0
   20.8633   -2.8719    0.0000 O   0  0  0  0  0  0  0  0  0  0  0  0
   14.0272   -4.0190    0.0000 S   0  0  0  0  0  0  0  0  0  0  0  0
   15.2618   -1.7331    0.0000 N   0  0  0  0  0  0  0  0  0  0  0  0
   13.9420   -1.0203    0.0000 C   0  0  0  0  0  0  0  0  0  0  0  0
   13.8994    0.4791    0.0000 C   0  0  0  0  0  0  0  0  0  0  0  0
   12.5796    1.1920    0.0000 C   0  0  0  0  0  0  0  0  0  0  0  0
   11.6692   -0.0002    0.0000 O   0  0  0  0  0  0  0  0  0  0  0  0
   12.5370    2.6914    0.0000 N   0  0  0  0  0  0  0  0  0  0  0  0
   11.2172    3.4042    0.0000 C   0  0  0  0  0  0  0  0  0  0  0  0
   11.1103    1.9080    0.0000 C   0  0  0  0  0  0  0  0  0  0  0  0
   10.5671    0.5098    0.0000 C   0  0  0  0  0  0  0  0  0  0  0  0
    9.6359   -0.6662    0.0000 C   0  0  0  0  0  0  0  0  0  0  0  0
    8.3995   -1.5154    0.0000 C   0  0  0  0  0  0  0  0  0  0  0  0
   12.4098    4.3140    0.0000 C   0  0  0  0  0  0  0  0  0  0  0  0
   10.8784    4.8654    0.0000 C   0  0  0  0  0  0  0  0  0  0  0  0
   12.2728    5.4182    0.0000 O   0  0  0  0  0  0  0  0  0  0  0  0
   10.1239    6.1618    0.0000 N   0  0  0  0  0  0  0  0  0  0  0  0
    9.0208    7.1783    0.0000 C   0  0  0  0  0  0  0  0  0  0  0  0
    9.0530    8.6779    0.0000 C   0  0  0  0  0  0  0  0  0  0  0  0
   10.3678    9.3999    0.0000 C   0  0  0  0  0  0  0  0  0  0  0  0
   10.4000   10.8995    0.0000 C   0  0  0  0  0  0  0  0  0  0  0  0
   11.7149   11.6215    0.0000 N   0  0  0  0  0  0  0  0  0  0  0  0
   11.7471   13.1211    0.0000 C   0  0  0  0  0  0  0  0  0  0  0  0
   13.0619   13.8431    0.0000 N   0  0  0  0  0  0  0  0  0  0  0  0
   10.4644   13.8988    0.0000 N   0  0  0  0  0  0  0  0  0  0  0  0
    7.6671    7.8244    0.0000 C   0  0  0  0  0  0  0  0  0  0  0  0
    8.1042    9.2593    0.0000 O   0  0  0  0  0  0  0  0  0  0  0  0
    6.1831    8.0429    0.0000 N   0  0  0  0  0  0  0  0  0  0  0  0
    4.7006    7.8142    0.0000 C   0  0  0  0  0  0  0  0  0  0  0  0
    3.5482    8.7744    0.0000 C   0  0  0  0  0  0  0  0  0  0  0  0
    3.8036   10.2525    0.0000 C   0  0  0  0  0  0  0  0  0  0  0  0
    2.6512   11.2127    0.0000 C   0  0  0  0  0  0  0  0  0  0  0  0
    2.9065   12.6908    0.0000 N   0  0  0  0  0  0  0  0  0  0  0  0
    1.7541   13.6510    0.0000 C   0  0  0  0  0  0  0  0  0  0  0  0
    2.0095   15.1291    0.0000 N   0  0  0  0  0  0  0  0  0  0  0  0
    0.3464   13.1331    0.0000 N   0  0  0  0  0  0  0  0  0  0  0  0
    3.3514    7.1587    0.0000 C   0  0  0  0  0  0  0  0  0  0  0  0
    2.5021    8.3951    0.0000 O   0  0  0  0  0  0  0  0  0  0  0  0
    2.2554    6.1346    0.0000 N   0  0  0  0  0  0  0  0  0  0  0  0
    1.5099    4.8330    0.0000 C   0  0  0  0  0  0  0  0  0  0  0  0
    0.0407    4.5307    0.0000 C   0  0  0  0  0  0  0  0  0  0  0  0
   -0.9558    5.6519    0.0000 C   0  0  0  0  0  0  0  0  0  0  0  0
   -2.4357    5.8963    0.0000 N   0  0  0  0  0  0  0  0  0  0  0  0
   -0.3130    7.0072    0.0000 O   0  0  0  0  0  0  0  0  0  0  0  0
    1.1812    3.3694    0.0000 C   0  0  0  0  0  0  0  0  0  0  0  0
    0.3790    3.7451    0.0000 O   0  0  0  0  0  0  0  0  0  0  0  0
    1.2984    1.8740    0.0000 N   0  0  0  0  0  0  0  0  0  0  0  0
    1.8513    0.4796    0.0000 C   0  0  0  0  0  0  0  0  0  0  0  0
    2.7906   -0.6899    0.0000 C   0  0  0  0  0  0  0  0  0  0  0  0
    4.0328   -1.5306    0.0000 C   0  0  0  0  0  0  0  0  0  0  0  0
    5.4677   -1.9677    0.0000 C   0  0  0  0  0  0  0  0  0  0  0  0
    6.9677   -1.9625    0.0000 C   0  0  0  0  0  0  0  0  0  0  0  0
    1.8184   -1.1139    0.0000 C   0  0  0  0  0  0  0  0  0  0  0  0
    2.1453   -2.4412    0.0000 C   0  0  0  0  0  0  0  0  0  0  0  0
    2.2150   -3.8063    0.0000 C   0  0  0  0  0  0  0  0  0  0  0  0
    2.0252   -5.1600    0.0000 C   0  0  0  0  0  0  0  0  0  0  0  0
    0.4495    1.2382    0.0000 C   0  0  0  0  0  0  0  0  0  0  0  0
    2.1072    2.6847    0.0000 O   0  0  0  0  0  0  0  0  0  0  0  0
   -0.5430    2.1781    0.0000 N   0  0  0  0  0  0  0  0  0  0  0  0
   -1.6955    2.9131    0.0000 C   0  0  0  0  0  0  0  0  0  0  0  0
   -1.5009    5.0313    0.0000 C   0  0  0  0  0  0  0  0  0  0  0  0
   -2.8576    5.6713    0.0000 C   0  0  0  0  0  0  0  0  0  0  0  0
   -2.9816    7.1661    0.0000 C   0  0  0  0  0  0  0  0  0  0  0  0
   -4.3382    7.8061    0.0000 N   0  0  0  0  0  0  0  0  0  0  0  0
   -4.4623    9.3010    0.0000 C   0  0  0  0  0  0  0  0  0  0  0  0
   -5.6237   10.2503    0.0000 N   0  0  0  0  0  0  0  0  0  0  0  0
   -3.2297   10.1559    0.0000 N   0  0  0  0  0  0  0  0  0  0  0  0
   -2.9663    3.4168    0.0000 C   0  0  0  0  0  0  0  0  0  0  0  0
   -2.8979    5.5837    0.0000 O   0  0  0  0  0  0  0  0  0  0  0  0
   -4.3094    3.6708    0.0000 N   0  0  0  0  0  0  0  0  0  0  0  0
   -5.6763    3.6661    0.0000 C   0  0  0  0  0  0  0  0  0  0  0  0
   -6.6578    5.5532    0.0000 C   0  0  0  0  0  0  0  0  0  0  0  0
   -6.0830    6.9387    0.0000 C   0  0  0  0  0  0  0  0  0  0  0  0
   -6.9956    8.1292    0.0000 C   0  0  0  0  0  0  0  0  0  0  0  0
   -6.4209    9.5147    0.0000 N   0  0  0  0  0  0  0  0  0  0  0  0
   -7.3334   10.7052    0.0000 C   0  0  0  0  0  0  0  0  0  0  0  0
   -6.7587   12.0907    0.0000 N   0  0  0  0  0  0  0  0  0  0  0  0
   -8.8207   10.5102    0.0000 N   0  0  0  0  0  0  0  0  0  0  0  0
   -7.0176    3.4027    0.0000 C   0  0  0  0  0  0  0  0  0  0  0  0
   -7.8168    5.4486    0.0000 O   0  0  0  0  0  0  0  0  0  0  0  0
   -8.2848    2.8903    0.0000 N   0  0  0  0  0  0  0  0  0  0  0  0
   -9.4322    2.1473    0.0000 C   0  0  0  0  0  0  0  0  0  0  0  0
  -11.2781    3.2042    0.0000 C   0  0  0  0  0  0  0  0  0  0  0  0
  -11.5437    4.6805    0.0000 C   0  0  0  0  0  0  0  0  0  0  0  0
  -12.9550    5.1887    0.0000 C   0  0  0  0  0  0  0  0  0  0  0  0
  -13.2206    6.6650    0.0000 N   0  0  0  0  0  0  0  0  0  0  0  0
  -14.6319    7.1731    0.0000 C   0  0  0  0  0  0  0  0  0  0  0  0
  -14.8975    8.6494    0.0000 N   0  0  0  0  0  0  0  0  0  0  0  0
  -15.7776    6.2050    0.0000 N   0  0  0  0  0  0  0  0  0  0  0  0
  -10.4182    1.2006    0.0000 C   0  0  0  0  0  0  0  0  0  0  0  0
  -12.1966    2.4897    0.0000 O   0  0  0  0  0  0  0  0  0  0  0  0
  -11.2073    0.0844    0.0000 N   0  0  0  0  0  0  0  0  0  0  0  0
  -11.7708   -1.1609    0.0000 C   0  0  0  0  0  0  0  0  0  0  0  0
  -13.8951   -1.2698    0.0000 C   0  0  0  0  0  0  0  0  0  0  0  0
  -14.9166   -0.1714    0.0000 C   0  0  0  0  0  0  0  0  0  0  0  0
  -14.6285    1.3006    0.0000 C   0  0  0  0  0  0  0  0  0  0  0  0
  -15.9395    2.0296    0.0000 N   0  0  0  0  0  0  0  0  0  0  0  0
  -17.0379    1.0080    0.0000 C   0  0  0  0  0  0  0  0  0  0  0  0
  -18.5320    1.1407    0.0000 C   0  0  0  0  0  0  0  0  0  0  0  0
  -19.3939   -0.0869    0.0000 C   0  0  0  0  0  0  0  0  0  0  0  0
  -18.7618   -1.4472    0.0000 C   0  0  0  0  0  0  0  0  0  0  0  0
  -17.2677   -1.5799    0.0000 C   0  0  0  0  0  0  0  0  0  0  0  0
  -16.4057   -0.3523    0.0000 C   0  0  0  0  0  0  0  0  0  0  0  0
  -12.0885   -2.4904    0.0000 C   0  0  0  0  0  0  0  0  0  0  0  0
  -14.2814   -2.3675    0.0000 O   0  0  0  0  0  0  0  0  0  0  0  0
  -12.1488   -3.8560    0.0000 N   0  0  0  0  0  0  0  0  0  0  0  0
  -11.9496   -5.2083    0.0000 C   0  0  0  0  0  0  0  0  0  0  0  0
  -13.6778   -6.4484    0.0000 C   0  0  0  0  0  0  0  0  0  0  0  0
  -15.1310   -6.0767    0.0000 C   0  0  0  0  0  0  0  0  0  0  0  0
  -16.1795   -7.1494    0.0000 C   0  0  0  0  0  0  0  0  0  0  0  0
  -17.6327   -6.7777    0.0000 N   0  0  0  0  0  0  0  0  0  0  0  0
  -18.6812   -7.8504    0.0000 C   0  0  0  0  0  0  0  0  0  0  0  0
  -20.1344   -7.4787    0.0000 N   0  0  0  0  0  0  0  0  0  0  0  0
  -18.2765   -9.2947    0.0000 N   0  0  0  0  0  0  0  0  0  0  0  0
  -11.4980   -6.4985    0.0000 C   0  0  0  0  0  0  0  0  0  0  0  0
  -13.4093   -7.5807    0.0000 O   0  0  0  0  0  0  0  0  0  0  0  0
  -10.8105   -7.6799    0.0000 N   0  0  0  0  0  0  0  0  0  0  0  0
   -9.9117   -8.7099    0.0000 C   0  0  0  0  0  0  0  0  0  0  0  0
  -10.6952  -10.6874    0.0000 C   0  0  0  0  0  0  0  0  0  0  0  0
  -12.1186  -11.1604    0.0000 C   0  0  0  0  0  0  0  0  0  0  0  0
  -12.4208  -12.6297    0.0000 C   0  0  0  0  0  0  0  0  0  0  0  0
  -13.8443  -13.1026    0.0000 O   0  0  0  0  0  0  0  0  0  0  0  0
  -11.2994  -13.6259    0.0000 O   0  0  0  0  0  0  0  0  0  0  0  0
   -8.8344   -9.5511    0.0000 C   0  0  0  0  0  0  0  0  0  0  0  0
   -9.8572  -11.4949    0.0000 O   0  0  0  0  0  0  0  0  0  0  0  0
   -7.6172  -10.1733    0.0000 N   0  0  0  0  0  0  0  0  0  0  0  0
   -6.3043  -10.5538    0.0000 C   0  0  0  0  0  0  0  0  0  0  0  0
   -4.9432  -10.6791    0.0000 C   0  0  0  0  0  0  0  0  0  0  0  0
   -3.5829  -10.5444    0.0000 C   0  0  0  0  0  0  0  0  0  0  0  0
   -2.2727  -10.1548    0.0000 C   0  0  0  0  0  0  0  0  0  0  0  0
   -1.0599   -9.5242    0.0000 C   0  0  0  0  0  0  0  0  0  0  0  0
    0.0116   -8.6755    0.0000 C   0  0  0  0  0  0  0  0  0  0  0  0
    0.9032   -7.6394    0.0000 C   0  0  0  0  0  0  0  0  0  0  0  0
    1.5826   -6.4533    0.0000 C   0  0  0  0  0  0  0  0  0  0  0  0
   -7.4484  -12.3471    0.0000 C   0  0  0  0  0  0  0  0  0  0  0  0
   -5.8943  -12.6410    0.0000 C   0  0  0  0  0  0  0  0  0  0  0  0
   -6.6867  -13.9146    0.0000 O   0  0  0  0  0  0  0  0  0  0  0  0
   -4.5124  -13.2246    0.0000 O   0  0  0  0  0  0  0  0  0  0  0  0
   17.7960   -3.0089    0.0000 H   0  0  0  0  0  0  0  0  0  0  0  0
   14.0697   -5.5184    0.0000 H   0  0  0  0  0  0  0  0  0  0  0  0
   14.1549   -8.5172    0.0000 H   0  0  0  0  0  0  0  0  0  0  0  0
   19.0355   -5.0852    0.0000 H   0  0  0  0  0  0  0  0  0  0  0  0
   24.1574  -10.0933    0.0000 H   0  0  0  0  0  0  0  0  0  0  0  0
   20.3961  -13.6784    0.0000 H   0  0  0  0  0  0  0  0  0  0  0  0
   18.3263  -11.5069    0.0000 H   0  0  0  0  0  0  0  0  0  0  0  0
   22.8888  -14.4108    0.0000 H   0  0  0  0  0  0  0  0  0  0  0  0
   17.1021   -6.4570    0.0000 H   0  0  0  0  0  0  0  0  0  0  0  0
   18.0878   -3.4606    0.0000 H   0  0  0  0  0  0  0  0  0  0  0  0
   22.9332   -5.0434    0.0000 H   0  0  0  0  0  0  0  0  0  0  0  0
   22.3211   -2.5185    0.0000 H   0  0  0  0  0  0  0  0  0  0  0  0
   16.5390   -0.9465    0.0000 H   0  0  0  0  0  0  0  0  0  0  0  0
   13.4692   -2.4438    0.0000 H   0  0  0  0  0  0  0  0  0  0  0  0
   12.4580   -0.8018    0.0000 H   0  0  0  0  0  0  0  0  0  0  0  0
   15.3834    0.2607    0.0000 H   0  0  0  0  0  0  0  0  0  0  0  0
   14.3722    1.9027    0.0000 H   0  0  0  0  0  0  0  0  0  0  0  0
   13.9006    3.3164    0.0000 H   0  0  0  0  0  0  0  0  0  0  0  0
   12.6015    2.0699    0.0000 H   0  0  0  0  0  0  0  0  0  0  0  0
   12.0231    0.7177    0.0000 H   0  0  0  0  0  0  0  0  0  0  0  0
   11.9271   -0.1230    0.0000 H   0  0  0  0  0  0  0  0  0  0  0  0
   11.4133   -0.7287    0.0000 H   0  0  0  0  0  0  0  0  0  0  0  0
   11.0355   -1.2059    0.0000 H   0  0  0  0  0  0  0  0  0  0  0  0
    9.9015   -2.1425    0.0000 H   0  0  0  0  0  0  0  0  0  0  0  0
    9.0550   -2.8646    0.0000 H   0  0  0  0  0  0  0  0  0  0  0  0
   13.8541    3.9092    0.0000 H   0  0  0  0  0  0  0  0  0  0  0  0
   13.2192    5.5769    0.0000 H   0  0  0  0  0  0  0  0  0  0  0  0
   11.5854    5.5672    0.0000 H   0  0  0  0  0  0  0  0  0  0  0  0
   11.2934    7.1011    0.0000 H   0  0  0  0  0  0  0  0  0  0  0  0
   10.4623    7.5931    0.0000 H   0  0  0  0  0  0  0  0  0  0  0  0
    8.4008   10.0287    0.0000 H   0  0  0  0  0  0  0  0  0  0  0  0
    7.5592    8.8148    0.0000 H   0  0  0  0  0  0  0  0  0  0  0  0
   11.8503    9.6286    0.0000 H   0  0  0  0  0  0  0  0  0  0  0  0
   11.0200    8.0491    0.0000 H   0  0  0  0  0  0  0  0  0  0  0  0
    9.9174   12.3198    0.0000 H   0  0  0  0  0  0  0  0  0  0  0  0
    8.9007   10.8532    0.0000 H   0  0  0  0  0  0  0  0  0  0  0  0
   12.9975   10.8437    0.0000 H   0  0  0  0  0  0  0  0  0  0  0  0
   13.0941   15.3427    0.0000 H   0  0  0  0  0  0  0  0  0  0  0  0
   10.4967   15.3985    0.0000 H   0  0  0  0  0  0  0  0  0  0  0  0
    9.1496   13.1769    0.0000 H   0  0  0  0  0  0  0  0  0  0  0  0
    6.1779    9.5429    0.0000 H   0  0  0  0  0  0  0  0  0  0  0  0
    5.2751    9.1998    0.0000 H   0  0  0  0  0  0  0  0  0  0  0  0
    2.0855    9.1067    0.0000 H   0  0  0  0  0  0  0  0  0  0  0  0
    2.5099    7.6918    0.0000 H   0  0  0  0  0  0  0  0  0  0  0  0
    4.5491   11.5541    0.0000 H   0  0  0  0  0  0  0  0  0  0  0  0
    5.2663    9.9201    0.0000 H   0  0  0  0  0  0  0  0  0  0  0  0
    1.2399   11.7208    0.0000 H   0  0  0  0  0  0  0  0  0  0  0  0
    1.7526   10.0116    0.0000 H   0  0  0  0  0  0  0  0  0  0  0  0
    4.3143   13.2087    0.0000 H   0  0  0  0  0  0  0  0  0  0  0  0
    0.8571   16.0893    0.0000 H   0  0  0  0  0  0  0  0  0  0  0  0
   -0.8060   14.0933    0.0000 H   0  0  0  0  0  0  0  0  0  0  0  0
    0.0910   11.6550    0.0000 H   0  0  0  0  0  0  0  0  0  0  0  0
    1.0794    7.0658    0.0000 H   0  0  0  0  0  0  0  0  0  0  0  0
    0.6300    6.0479    0.0000 H   0  0  0  0  0  0  0  0  0  0  0  0
   -1.3889    4.0765    0.0000 H   0  0  0  0  0  0  0  0  0  0  0  0
    0.0569    3.0308    0.0000 H   0  0  0  0  0  0  0  0  0  0  0  0
   -3.4214    6.4708    0.0000 H   0  0  0  0  0  0  0  0  0  0  0  0
   -3.1345    3.9971    0.0000 H   0  0  0  0  0  0  0  0  0  0  0  0
   -0.1628    1.5352    0.0000 H   0  0  0  0  0  0  0  0  0  0  0  0
    2.7173   -2.1881    0.0000 H   0  0  0  0  0  0  0  0  0  0  0  0
    1.3382   -1.0650    0.0000 H   0  0  0  0  0  0  0  0  0  0  0  0
    4.4044   -2.9838    0.0000 H   0  0  0  0  0  0  0  0  0  0  0  0
    3.1224   -2.7227    0.0000 H   0  0  0  0  0  0  0  0  0  0  0  0
    6.0894   -3.3328    0.0000 H   0  0  0  0  0  0  0  0  0  0  0  0
    4.9491   -3.3752    0.0000 H   0  0  0  0  0  0  0  0  0  0  0  0
    7.1964   -3.4450    0.0000 H   0  0  0  0  0  0  0  0  0  0  0  0
    3.4209    0.2848    0.0000 H   0  0  0  0  0  0  0  0  0  0  0  0
    3.8928   -1.3841    0.0000 H   0  0  0  0  0  0  0  0  0  0  0  0
    4.2544   -1.8460    0.0000 H   0  0  0  0  0  0  0  0  0  0  0  0
    4.1310   -3.0991    0.0000 H   0  0  0  0  0  0  0  0  0  0  0  0
    4.3987   -3.6210    0.0000 H   0  0  0  0  0  0  0  0  0  0  0  0
    4.1528   -4.6835    0.0000 H   0  0  0  0  0  0  0  0  0  0  0  0
    4.1649   -5.6712    0.0000 H   0  0  0  0  0  0  0  0  0  0  0  0
    0.6599    4.0158    0.0000 H   0  0  0  0  0  0  0  0  0  0  0  0
   -0.3183    4.5991    0.0000 H   0  0  0  0  0  0  0  0  0  0  0  0
   -1.1062    6.4784    0.0000 H   0  0  0  0  0  0  0  0  0  0  0  0
   -0.0351    4.7128    0.0000 H   0  0  0  0  0  0  0  0  0  0  0  0
   -4.3234    5.9898    0.0000 H   0  0  0  0  0  0  0  0  0  0  0  0
   -3.7448    4.4618    0.0000 H   0  0  0  0  0  0  0  0  0  0  0  0
   -2.5869    8.6133    0.0000 H   0  0  0  0  0  0  0  0  0  0  0  0
   -1.4823    7.2118    0.0000 H   0  0  0  0  0  0  0  0  0  0  0  0
   -5.7410    7.2749    0.0000 H   0  0  0  0  0  0  0  0  0  0  0  0
   -5.9429   11.4359    0.0000 H   0  0  0  0  0  0  0  0  0  0  0  0
   -3.3538   11.6507    0.0000 H   0  0  0  0  0  0  0  0  0  0  0  0
   -1.8731    9.5159    0.0000 H   0  0  0  0  0  0  0  0  0  0  0  0
   -4.1078    5.8616    0.0000 H   0  0  0  0  0  0  0  0  0  0  0  0
   -5.0838    5.7090    0.0000 H   0  0  0  0  0  0  0  0  0  0  0  0
   -7.9224    6.3598    0.0000 H   0  0  0  0  0  0  0  0  0  0  0  0
   -7.9091    4.7260    0.0000 H   0  0  0  0  0  0  0  0  0  0  0  0
   -5.3667    8.2566    0.0000 H   0  0  0  0  0  0  0  0  0  0  0  0
   -4.7295    6.2923    0.0000 H   0  0  0  0  0  0  0  0  0  0  0  0
   -8.2603    8.9358    0.0000 H   0  0  0  0  0  0  0  0  0  0  0  0
   -8.1367    7.1556    0.0000 H   0  0  0  0  0  0  0  0  0  0  0  0
   -5.0250   10.0638    0.0000 H   0  0  0  0  0  0  0  0  0  0  0  0
   -7.6712   13.2812    0.0000 H   0  0  0  0  0  0  0  0  0  0  0  0
   -9.7332   11.7007    0.0000 H   0  0  0  0  0  0  0  0  0  0  0  0
   -9.3954    9.1246    0.0000 H   0  0  0  0  0  0  0  0  0  0  0  0
   -9.1323    4.9167    0.0000 H   0  0  0  0  0  0  0  0  0  0  0  0
   -9.8553    4.1960    0.0000 H   0  0  0  0  0  0  0  0  0  0  0  0
  -12.7781    3.1990    0.0000 H   0  0  0  0  0  0  0  0  0  0  0  0
  -11.8836    1.8318    0.0000 H   0  0  0  0  0  0  0  0  0  0  0  0
  -11.2883    6.1586    0.0000 H   0  0  0  0  0  0  0  0  0  0  0  0
  -10.0895    5.0485    0.0000 H   0  0  0  0  0  0  0  0  0  0  0  0
  -14.4550    5.1835    0.0000 H   0  0  0  0  0  0  0  0  0  0  0  0
  -13.3886    3.7527    0.0000 H   0  0  0  0  0  0  0  0  0  0  0  0
  -12.0749    7.6331    0.0000 H   0  0  0  0  0  0  0  0  0  0  0  0
  -16.3088    9.1576    0.0000 H   0  0  0  0  0  0  0  0  0  0  0  0
  -17.1889    6.7131    0.0000 H   0  0  0  0  0  0  0  0  0  0  0  0
  -15.5120    4.7287    0.0000 H   0  0  0  0  0  0  0  0  0  0  0  0
  -13.0157    1.3309    0.0000 H   0  0  0  0  0  0  0  0  0  0  0  0
  -13.3829    0.2267    0.0000 H   0  0  0  0  0  0  0  0  0  0  0  0
  -15.2441   -1.9256    0.0000 H   0  0  0  0  0  0  0  0  0  0  0  0
  -13.6624   -2.7516    0.0000 H   0  0  0  0  0  0  0  0  0  0  0  0
  -13.3554    2.0939    0.0000 H   0  0  0  0  0  0  0  0  0  0  0  0
  -16.1204    3.5186    0.0000 H   0  0  0  0  0  0  0  0  0  0  0  0
  -19.1641    2.5009    0.0000 H   0  0  0  0  0  0  0  0  0  0  0  0
  -20.8881    0.0457    0.0000 H   0  0  0  0  0  0  0  0  0  0  0  0
  -19.6237   -2.6748    0.0000 H   0  0  0  0  0  0  0  0  0  0  0  0
  -16.6355   -2.9402    0.0000 H   0  0  0  0  0  0  0  0  0  0  0  0
  -14.3441   -3.7851    0.0000 H   0  0  0  0  0  0  0  0  0  0  0  0
  -13.9889   -4.7421    0.0000 H   0  0  0  0  0  0  0  0  0  0  0  0
  -14.2961   -7.8150    0.0000 H   0  0  0  0  0  0  0  0  0  0  0  0
  -12.6809   -7.5692    0.0000 H   0  0  0  0  0  0  0  0  0  0  0  0
  -16.3694   -5.2304    0.0000 H   0  0  0  0  0  0  0  0  0  0  0  0
  -14.8616   -4.6011    0.0000 H   0  0  0  0  0  0  0  0  0  0  0  0
  -16.7979   -8.5160    0.0000 H   0  0  0  0  0  0  0  0  0  0  0  0
  -15.0534   -8.1403    0.0000 H   0  0  0  0  0  0  0  0  0  0  0  0
  -18.0374   -5.3333    0.0000 H   0  0  0  0  0  0  0  0  0  0  0  0
  -21.1829   -8.5513    0.0000 H   0  0  0  0  0  0  0  0  0  0  0  0
  -19.3250  -10.3674    0.0000 H   0  0  0  0  0  0  0  0  0  0  0  0
  -16.8233   -9.6664    0.0000 H   0  0  0  0  0  0  0  0  0  0  0  0
  -12.6956   -8.8072    0.0000 H   0  0  0  0  0  0  0  0  0  0  0  0
  -11.8794   -9.4202    0.0000 H   0  0  0  0  0  0  0  0  0  0  0  0
  -10.6591  -12.1870    0.0000 H   0  0  0  0  0  0  0  0  0  0  0  0
   -9.2506  -11.0914    0.0000 H   0  0  0  0  0  0  0  0  0  0  0  0
  -13.6180  -11.1180    0.0000 H   0  0  0  0  0  0  0  0  0  0  0  0
  -12.6898   -9.7734    0.0000 H   0  0  0  0  0  0  0  0  0  0  0  0
  -11.6016  -15.0952    0.0000 H   0  0  0  0  0  0  0  0  0  0  0  0
   -8.5937  -12.1407    0.0000 H   0  0  0  0  0  0  0  0  0  0  0  0
   -4.1455  -12.6509    0.0000 H   0  0  0  0  0  0  0  0  0  0  0  0
   -5.3947  -12.8087    0.0000 H   0  0  0  0  0  0  0  0  0  0  0  0
   -2.5680  -12.4460    0.0000 H   0  0  0  0  0  0  0  0  0  0  0  0
   -3.6233  -12.7211    0.0000 H   0  0  0  0  0  0  0  0  0  0  0  0
   -0.9162  -11.8299    0.0000 H   0  0  0  0  0  0  0  0  0  0  0  0
   -2.0836  -12.3019    0.0000 H   0  0  0  0  0  0  0  0  0  0  0  0
    0.5891  -10.9124    0.0000 H   0  0  0  0  0  0  0  0  0  0  0  0
   -0.4678  -11.5968    0.0000 H   0  0  0  0  0  0  0  0  0  0  0  0
    1.8935   -9.7265    0.0000 H   0  0  0  0  0  0  0  0  0  0  0  0
    0.9853  -10.5986    0.0000 H   0  0  0  0  0  0  0  0  0  0  0  0
    2.9721   -8.1334    0.0000 H   0  0  0  0  0  0  0  0  0  0  0  0
    2.2232   -9.3435    0.0000 H   0  0  0  0  0  0  0  0  0  0  0  0
    3.5869   -7.3602    0.0000 H   0  0  0  0  0  0  0  0  0  0  0  0
   -7.1758  -13.8221    0.0000 H   0  0  0  0  0  0  0  0  0  0  0  0
   -8.6850  -13.1961    0.0000 H   0  0  0  0  0  0  0  0  0  0  0  0
   -8.6219  -11.4128    0.0000 H   0  0  0  0  0  0  0  0  0  0  0  0
   -3.8721  -14.2722    0.0000 H   0  0  0  0  0  0  0  0  0  0  0  0
  1  2  1  0
  2  3  1  0
  3  4  2  0
  4  5  1  0
  5  6  2  0
  6  7  1  0
  7  8  2  0
  7  9  1  0
  9 10  1  0
 10 11  1  0
 11 12  2  0
  9 13  1  0
 13 14  1  0
 14 15  2  0
 15 16  1  0
 16 17  2  0
 17 18  1  0
 16 19  1  0
 14 20  1  0
 20 21  1  0
 21 22  2  0
 22 23  1  0
 23 24  2  0
 24 25  1  0
 25 26  2  0
 25 27  1  0
  1 28  2  0
  1 29  1  0
 29 30  1  0
 30 31  1  0
 31 32  1  0
 32 33  2  0
 32 34  1  0
 35 34  1  1
 35 36  1  0
 36 37  1  0
 37 38  1  0
 38 39  1  0
 35 40  1  0
 35 41  1  0
 41 42  2  0
 41 43  1  0
 43 44  1  0
 44 45  1  0
 45 46  1  0
 46 47  1  0
 47 48  1  0
 48 49  1  0
 49 50  2  3
 49 51  1  0
 44 52  1  0
 52 53  2  0
 52 54  1  0
 54 55  1  0
 55 56  1  0
 56 57  1  0
 57 58  1  0
 58 59  1  0
 59 60  1  0
 60 61  2  3
 60 62  1  0
 55 63  1  0
 63 64  2  0
 63 65  1  0
 65 66  1  0
 66 67  1  0
 67 68  1  0
 68 69  1  0
 68 70  2  0
 66 71  1  0
 71 72  2  0
 71 73  1  0
 73 74  1  0
 74 75  1  0
 75 76  1  0
 76 77  1  0
 77 78  1  0
 74 79  1  0
 79 80  1  0
 80 81  1  0
 81 82  1  0
 74 83  1  0
 83 84  2  0
 83 85  1  0
 85 86  1  0
 86 87  1  0
 87 88  1  0
 88 89  1  0
 89 90  1  0
 90 91  1  0
 91 92  2  3
 91 93  1  0
 86 94  1  0
 94 95  2  0
 94 96  1  0
 96 97  1  0
 97 98  1  0
 98 99  1  0
 99100  1  0
100101  1  0
101102  1  0
102103  2  3
102104  1  0
 97105  1  0
105106  2  0
105107  1  0
107108  1  0
108109  1  0
109110  1  0
110111  1  0
111112  1  0
112113  1  0
113114  2  3
113115  1  0
108116  1  0
116117  2  0
116118  1  0
118119  1  0
119120  1  0
120121  1  0
121122  2  0
122123  1  0
123124  1  0
124125  2  0
125126  1  0
126127  2  0
127128  1  0
128129  2  0
119130  1  0
130131  2  0
130132  1  0
132133  1  0
133134  1  0
134135  1  0
135136  1  0
136137  1  0
137138  1  0
138139  2  3
138140  1  0
133141  1  0
141142  2  0
141143  1  0
143144  1  0
144145  1  0
145146  1  0
146147  1  0
147148  2  0
147149  1  0
144150  1  0
150151  2  0
150152  1  0
152153  1  0
153154  1  0
154155  1  0
155156  1  0
156157  1  0
157158  1  0
158159  1  0
159160  1  0
153161  1  0
153162  1  1
162163  2  0
162164  1  0
  8  3  1  0
129121  1  0
 11  6  1  0
 39 78  2  0
129124  1  0
 18 13  2  0
 82160  2  0
 22  9  1  0
 26 21  1  0
  2165  1  0
  4166  1  0
  5167  1  0
  8168  1  0
 15169  1  0
 17170  1  0
 18171  1  0
 19172  1  0
 23173  1  0
 24174  1  0
 26175  1  0
 27176  1  0
 29177  1  0
 30178  1  0
 30179  1  0
 31180  1  0
 31181  1  0
 34182  1  0
 36183  1  0
 36184  1  0
 37185  1  0
 37186  1  0
 38187  1  0
 38188  1  0
 39189  1  0
 40190  1  0
 40191  1  0
 40192  1  0
 43193  1  0
 44194  1  6
 45195  1  0
 45196  1  0
 46197  1  0
 46198  1  0
 47199  1  0
 47200  1  0
 48201  1  0
 50202  1  0
 51203  1  0
 51204  1  0
 54205  1  0
 55206  1  6
 56207  1  0
 56208  1  0
 57209  1  0
 57210  1  0
 58211  1  0
 58212  1  0
 59213  1  0
 61214  1  0
 62215  1  0
 62216  1  0
 65217  1  0
 66218  1  6
 67219  1  0
 67220  1  0
 69221  1  0
 69222  1  0
 73223  1  0
 75224  1  0
 75225  1  0
 76226  1  0
 76227  1  0
 77228  1  0
 77229  1  0
 78230  1  0
 79231  1  0
 79232  1  0
 80233  1  0
 80234  1  0
 81235  1  0
 81236  1  0
 82237  1  0
 85238  1  0
 86239  1  6
 87240  1  0
 87241  1  0
 88242  1  0
 88243  1  0
 89244  1  0
 89245  1  0
 90246  1  0
 92247  1  0
 93248  1  0
 93249  1  0
 96250  1  0
 97251  1  6
 98252  1  0
 98253  1  0
 99254  1  0
 99255  1  0
100256  1  0
100257  1  0
101258  1  0
103259  1  0
104260  1  0
104261  1  0
107262  1  0
108263  1  6
109264  1  0
109265  1  0
110266  1  0
110267  1  0
111268  1  0
111269  1  0
112270  1  0
114271  1  0
115272  1  0
115273  1  0
118274  1  0
119275  1  6
120276  1  0
120277  1  0
122278  1  0
123279  1  0
125280  1  0
126281  1  0
127282  1  0
128283  1  0
132284  1  0
133285  1  6
134286  1  0
134287  1  0
135288  1  0
135289  1  0
136290  1  0
136291  1  0
137292  1  0
139293  1  0
140294  1  0
140295  1  0
143296  1  0
144297  1  6
145298  1  0
145299  1  0
146300  1  0
146301  1  0
149302  1  0
152303  1  0
154304  1  0
154305  1  0
155306  1  0
155307  1  0
156308  1  0
156309  1  0
157310  1  0
157311  1  0
158312  1  0
158313  1  0
159314  1  0
159315  1  0
160316  1  0
161317  1  0
161318  1  0
161319  1  0
164320  1  0
M  END
