
     RDKit          2D

301302  0  0  0  0  0  0  0  0999 V2000
  -29.9865  -10.6807    0.0000 N   0  0  0  0  0  0  0  0  0  0  0  0
  -28.5306  -10.3197    0.0000 C   0  0  0  0  0  0  0  0  0  0  0  0
  -28.1152   -8.8784    0.0000 C   0  0  0  0  0  0  0  0  0  0  0  0
  -26.6593   -8.5174    0.0000 O   0  0  0  0  0  0  0  0  0  0  0  0
  -26.2440   -7.0761    0.0000 C   0  0  0  0  0  0  0  0  0  0  0  0
  -24.7880   -6.7151    0.0000 C   0  0  0  0  0  0  0  0  0  0  0  0
  -24.3727   -5.2738    0.0000 O   0  0  0  0  0  0  0  0  0  0  0  0
  -22.9167   -4.9128    0.0000 C   0  0  0  0  0  0  0  0  0  0  0  0
  -22.5014   -3.4715    0.0000 C   0  0  0  0  0  0  0  0  0  0  0  0
  -21.0455   -3.1105    0.0000 N   0  0  0  0  0  0  0  0  0  0  0  0
  -20.6301   -1.6692    0.0000 C   0  0  0  0  0  0  0  0  0  0  0  0
  -21.6706   -0.5888    0.0000 O   0  0  0  0  0  0  0  0  0  0  0  0
  -19.1742   -1.3082    0.0000 C   0  0  0  0  0  0  0  0  0  0  0  0
  -18.7588    0.1331    0.0000 C   0  0  0  0  0  0  0  0  0  0  0  0
  -17.3029    0.4941    0.0000 C   0  0  0  0  0  0  0  0  0  0  0  0
  -16.2623   -0.5863    0.0000 O   0  0  0  0  0  0  0  0  0  0  0  0
  -16.8875    1.9354    0.0000 N   0  0  0  0  0  0  0  0  0  0  0  0
  -15.4316    2.2964    0.0000 C   0  0  0  0  0  0  0  0  0  0  0  0
  -16.0399    3.6675    0.0000 C   0  0  0  0  0  0  0  0  0  0  0  0
  -17.5397    3.6433    0.0000 C   0  0  0  0  0  0  0  0  0  0  0  0
  -16.1425    5.1640    0.0000 C   0  0  0  0  0  0  0  0  0  0  0  0
  -17.4898    5.8233    0.0000 C   0  0  0  0  0  0  0  0  0  0  0  0
  -13.9400    2.1376    0.0000 C   0  0  0  0  0  0  0  0  0  0  0  0
  -13.2111    3.4486    0.0000 O   0  0  0  0  0  0  0  0  0  0  0  0
  -13.3317    0.7665    0.0000 N   0  0  0  0  0  0  0  0  0  0  0  0
  -11.8401    0.6077    0.0000 C   0  0  0  0  0  0  0  0  0  0  0  0
  -11.9428    2.1042    0.0000 C   0  0  0  0  0  0  0  0  0  0  0  0
  -10.6981    2.9413    0.0000 C   0  0  0  0  0  0  0  0  0  0  0  0
  -10.8008    4.4378    0.0000 C   0  0  0  0  0  0  0  0  0  0  0  0
   -9.2971    3.4771    0.0000 C   0  0  0  0  0  0  0  0  0  0  0  0
  -10.4928   -0.0516    0.0000 C   0  0  0  0  0  0  0  0  0  0  0  0
   -9.2482    0.7855    0.0000 O   0  0  0  0  0  0  0  0  0  0  0  0
  -10.3902   -1.5481    0.0000 N   0  0  0  0  0  0  0  0  0  0  0  0
   -9.0429   -2.2075    0.0000 C   0  0  0  0  0  0  0  0  0  0  0  0
   -9.9261   -3.4198    0.0000 C   0  0  0  0  0  0  0  0  0  0  0  0
  -11.4177   -3.2611    0.0000 C   0  0  0  0  0  0  0  0  0  0  0  0
  -12.3010   -4.4734    0.0000 C   0  0  0  0  0  0  0  0  0  0  0  0
  -13.7926   -4.3146    0.0000 N   0  0  0  0  0  0  0  0  0  0  0  0
  -14.6759   -5.5270    0.0000 C   0  0  0  0  0  0  0  0  0  0  0  0
  -16.1674   -5.3682    0.0000 N   0  0  0  0  0  0  0  0  0  0  0  0
  -14.0676   -6.8981    0.0000 N   0  0  0  0  0  0  0  0  0  0  0  0
   -7.5513   -2.3662    0.0000 C   0  0  0  0  0  0  0  0  0  0  0  0
   -7.1147   -3.8013    0.0000 O   0  0  0  0  0  0  0  0  0  0  0  0
   -6.6680   -1.1539    0.0000 N   0  0  0  0  0  0  0  0  0  0  0  0
   -5.1764   -1.3127    0.0000 C   0  0  0  0  0  0  0  0  0  0  0  0
   -4.3995   -2.5957    0.0000 C   0  0  0  0  0  0  0  0  0  0  0  0
   -3.3937   -3.7086    0.0000 C   0  0  0  0  0  0  0  0  0  0  0  0
   -2.1955   -4.6110    0.0000 C   0  0  0  0  0  0  0  0  0  0  0  0
   -0.8482   -5.2704    0.0000 C   0  0  0  0  0  0  0  0  0  0  0  0
    0.5996   -5.6628    0.0000 C   0  0  0  0  0  0  0  0  0  0  0  0
    2.0954   -5.7742    0.0000 C   0  0  0  0  0  0  0  0  0  0  0  0
    3.5853   -5.6004    0.0000 C   0  0  0  0  0  0  0  0  0  0  0  0
   -6.1294   -2.4711    0.0000 C   0  0  0  0  0  0  0  0  0  0  0  0
   -5.6965    0.0943    0.0000 C   0  0  0  0  0  0  0  0  0  0  0  0
   -7.1825   -0.1101    0.0000 O   0  0  0  0  0  0  0  0  0  0  0  0
   -5.9410    1.5742    0.0000 N   0  0  0  0  0  0  0  0  0  0  0  0
   -5.9009    3.0737    0.0000 C   0  0  0  0  0  0  0  0  0  0  0  0
   -7.2622    2.4437    0.0000 C   0  0  0  0  0  0  0  0  0  0  0  0
   -5.5778    4.5385    0.0000 C   0  0  0  0  0  0  0  0  0  0  0  0
   -7.0052    4.9994    0.0000 O   0  0  0  0  0  0  0  0  0  0  0  0
   -4.9833    5.9157    0.0000 N   0  0  0  0  0  0  0  0  0  0  0  0
   -4.1389    7.1554    0.0000 C   0  0  0  0  0  0  0  0  0  0  0  0
   -5.6247    7.3614    0.0000 C   0  0  0  0  0  0  0  0  0  0  0  0
   -6.1892    8.7512    0.0000 C   0  0  0  0  0  0  0  0  0  0  0  0
   -3.0752    8.2130    0.0000 C   0  0  0  0  0  0  0  0  0  0  0  0
   -3.8784    9.4798    0.0000 O   0  0  0  0  0  0  0  0  0  0  0  0
   -1.8305    9.0501    0.0000 N   0  0  0  0  0  0  0  0  0  0  0  0
   -0.4499    9.6366    0.0000 C   0  0  0  0  0  0  0  0  0  0  0  0
   -1.5885   10.6132    0.0000 C   0  0  0  0  0  0  0  0  0  0  0  0
   -1.3120   12.0875    0.0000 O   0  0  0  0  0  0  0  0  0  0  0  0
    1.0167    9.9512    0.0000 C   0  0  0  0  0  0  0  0  0  0  0  0
    0.8430   11.4411    0.0000 O   0  0  0  0  0  0  0  0  0  0  0  0
    2.5164    9.9825    0.0000 N   0  0  0  0  0  0  0  0  0  0  0  0
    3.9949    9.7294    0.0000 C   0  0  0  0  0  0  0  0  0  0  0  0
    3.5651   11.1665    0.0000 C   0  0  0  0  0  0  0  0  0  0  0  0
    4.5947   12.2573    0.0000 C   0  0  0  0  0  0  0  0  0  0  0  0
    4.3175   13.7315    0.0000 C   0  0  0  0  0  0  0  0  0  0  0  0
    5.6338   14.4507    0.0000 N   0  0  0  0  0  0  0  0  0  0  0  0
    6.7246   13.4211    0.0000 C   0  0  0  0  0  0  0  0  0  0  0  0
    6.0824   12.0655    0.0000 N   0  0  0  0  0  0  0  0  0  0  0  0
    5.3988    9.2012    0.0000 C   0  0  0  0  0  0  0  0  0  0  0  0
    6.0581   10.5485    0.0000 O   0  0  0  0  0  0  0  0  0  0  0  0
    6.6773    8.4167    0.0000 N   0  0  0  0  0  0  0  0  0  0  0  0
    7.7843    7.4045    0.0000 C   0  0  0  0  0  0  0  0  0  0  0  0
    8.1997    8.8459    0.0000 C   0  0  0  0  0  0  0  0  0  0  0  0
    9.6556    9.2068    0.0000 C   0  0  0  0  0  0  0  0  0  0  0  0
   10.0710   10.6482    0.0000 S   0  0  0  0  0  0  0  0  0  0  0  0
   11.5269   11.0091    0.0000 C   0  0  0  0  0  0  0  0  0  0  0  0
    8.6797    6.2011    0.0000 C   0  0  0  0  0  0  0  0  0  0  0  0
   10.0480    6.8159    0.0000 O   0  0  0  0  0  0  0  0  0  0  0  0
    9.3312    4.8500    0.0000 N   0  0  0  0  0  0  0  0  0  0  0  0
    9.7152    3.3999    0.0000 C   0  0  0  0  0  0  0  0  0  0  0  0
   10.8439    4.3879    0.0000 C   0  0  0  0  0  0  0  0  0  0  0  0
   12.2639    3.9044    0.0000 C   0  0  0  0  0  0  0  0  0  0  0  0
   13.3925    4.8924    0.0000 C   0  0  0  0  0  0  0  0  0  0  0  0
   14.8125    4.4089    0.0000 C   0  0  0  0  0  0  0  0  0  0  0  0
   15.9412    5.3969    0.0000 N   0  0  0  0  0  0  0  0  0  0  0  0
    9.8179    1.9035    0.0000 C   0  0  0  0  0  0  0  0  0  0  0  0
   11.3013    1.6809    0.0000 O   0  0  0  0  0  0  0  0  0  0  0  0
    9.6355    0.4146    0.0000 N   0  0  0  0  0  0  0  0  0  0  0  0
    9.1746   -1.0128    0.0000 C   0  0  0  0  0  0  0  0  0  0  0  0
    8.4519   -2.3273    0.0000 C   0  0  0  0  0  0  0  0  0  0  0  0
    7.4935   -3.4812    0.0000 C   0  0  0  0  0  0  0  0  0  0  0  0
    6.3340   -4.4328    0.0000 C   0  0  0  0  0  0  0  0  0  0  0  0
    5.0154   -5.1479    0.0000 C   0  0  0  0  0  0  0  0  0  0  0  0
   10.1751   -2.1305    0.0000 C   0  0  0  0  0  0  0  0  0  0  0  0
   10.6582   -0.7919    0.0000 C   0  0  0  0  0  0  0  0  0  0  0  0
   11.3747    0.5259    0.0000 O   0  0  0  0  0  0  0  0  0  0  0  0
   11.5914   -1.9663    0.0000 N   0  0  0  0  0  0  0  0  0  0  0  0
   13.0750   -1.7454    0.0000 C   0  0  0  0  0  0  0  0  0  0  0  0
   14.3936   -1.0304    0.0000 C   0  0  0  0  0  0  0  0  0  0  0  0
   15.6722   -1.8148    0.0000 C   0  0  0  0  0  0  0  0  0  0  0  0
   16.9908   -1.0998    0.0000 C   0  0  0  0  0  0  0  0  0  0  0  0
   16.6053   -2.9892    0.0000 C   0  0  0  0  0  0  0  0  0  0  0  0
   14.0082   -2.9198    0.0000 C   0  0  0  0  0  0  0  0  0  0  0  0
   13.4577   -4.3151    0.0000 O   0  0  0  0  0  0  0  0  0  0  0  0
   15.4918   -2.6989    0.0000 N   0  0  0  0  0  0  0  0  0  0  0  0
   16.4250   -3.8733    0.0000 C   0  0  0  0  0  0  0  0  0  0  0  0
   16.9002   -5.2960    0.0000 C   0  0  0  0  0  0  0  0  0  0  0  0
   15.9056   -6.4189    0.0000 C   0  0  0  0  0  0  0  0  0  0  0  0
   16.3808   -7.8417    0.0000 C   0  0  0  0  0  0  0  0  0  0  0  0
   15.3863   -8.9646    0.0000 N   0  0  0  0  0  0  0  0  0  0  0  0
   15.8615  -10.3873    0.0000 C   0  0  0  0  0  0  0  0  0  0  0  0
   14.8670  -11.5102    0.0000 N   0  0  0  0  0  0  0  0  0  0  0  0
   17.3312  -10.6872    0.0000 N   0  0  0  0  0  0  0  0  0  0  0  0
   17.9086   -3.6524    0.0000 C   0  0  0  0  0  0  0  0  0  0  0  0
   18.6251   -2.3345    0.0000 O   0  0  0  0  0  0  0  0  0  0  0  0
   18.8417   -4.8268    0.0000 N   0  0  0  0  0  0  0  0  0  0  0  0
   20.3254   -4.6059    0.0000 C   0  0  0  0  0  0  0  0  0  0  0  0
   21.2585   -5.7803    0.0000 C   0  0  0  0  0  0  0  0  0  0  0  0
   20.7080   -7.1756    0.0000 O   0  0  0  0  0  0  0  0  0  0  0  0
   22.7422   -5.5593    0.0000 N   0  0  0  0  0  0  0  0  0  0  0  0
   23.6753   -6.7337    0.0000 C   0  0  0  0  0  0  0  0  0  0  0  0
   24.1505   -8.1565    0.0000 C   0  0  0  0  0  0  0  0  0  0  0  0
   25.0837   -9.3309    0.0000 O   0  0  0  0  0  0  0  0  0  0  0  0
   23.1560   -9.2794    0.0000 C   0  0  0  0  0  0  0  0  0  0  0  0
   25.1590   -6.5128    0.0000 C   0  0  0  0  0  0  0  0  0  0  0  0
   26.2283   -7.5647    0.0000 O   0  0  0  0  0  0  0  0  0  0  0  0
   25.7095   -5.1175    0.0000 O   0  0  0  0  0  0  0  0  0  0  0  0
  -30.4019  -12.1220    0.0000 H   0  0  0  0  0  0  0  0  0  0  0  0
  -31.0271   -9.6003    0.0000 H   0  0  0  0  0  0  0  0  0  0  0  0
  -28.4280  -11.8162    0.0000 H   0  0  0  0  0  0  0  0  0  0  0  0
  -27.0390  -10.4785    0.0000 H   0  0  0  0  0  0  0  0  0  0  0  0
  -29.6068   -8.7196    0.0000 H   0  0  0  0  0  0  0  0  0  0  0  0
  -28.3995   -7.4056    0.0000 H   0  0  0  0  0  0  0  0  0  0  0  0
  -27.7051   -6.7367    0.0000 H   0  0  0  0  0  0  0  0  0  0  0  0
  -26.3466   -5.5796    0.0000 H   0  0  0  0  0  0  0  0  0  0  0  0
  -24.6854   -8.2116    0.0000 H   0  0  0  0  0  0  0  0  0  0  0  0
  -23.3269   -7.0545    0.0000 H   0  0  0  0  0  0  0  0  0  0  0  0
  -22.6324   -6.3856    0.0000 H   0  0  0  0  0  0  0  0  0  0  0  0
  -21.4252   -5.0716    0.0000 H   0  0  0  0  0  0  0  0  0  0  0  0
  -23.9930   -3.3127    0.0000 H   0  0  0  0  0  0  0  0  0  0  0  0
  -22.6040   -1.9750    0.0000 H   0  0  0  0  0  0  0  0  0  0  0  0
  -20.0049   -4.1909    0.0000 H   0  0  0  0  0  0  0  0  0  0  0  0
  -19.0715   -2.8047    0.0000 H   0  0  0  0  0  0  0  0  0  0  0  0
  -17.6826   -1.4670    0.0000 H   0  0  0  0  0  0  0  0  0  0  0  0
  -20.2504    0.2919    0.0000 H   0  0  0  0  0  0  0  0  0  0  0  0
  -18.8614    1.6296    0.0000 H   0  0  0  0  0  0  0  0  0  0  0  0
  -17.5064    2.4379    0.0000 H   0  0  0  0  0  0  0  0  0  0  0  0
  -15.3289    0.7999    0.0000 H   0  0  0  0  0  0  0  0  0  0  0  0
  -14.5840    4.0284    0.0000 H   0  0  0  0  0  0  0  0  0  0  0  0
  -18.3247    5.1126    0.0000 H   0  0  0  0  0  0  0  0  0  0  0  0
  -18.9874    3.4653    0.0000 H   0  0  0  0  0  0  0  0  0  0  0  0
  -17.7950    2.9046    0.0000 H   0  0  0  0  0  0  0  0  0  0  0  0
  -15.7272    6.6053    0.0000 H   0  0  0  0  0  0  0  0  0  0  0  0
  -14.6510    5.0052    0.0000 H   0  0  0  0  0  0  0  0  0  0  0  0
  -17.5925    7.3198    0.0000 H   0  0  0  0  0  0  0  0  0  0  0  0
  -18.9814    5.9821    0.0000 H   0  0  0  0  0  0  0  0  0  0  0  0
  -18.2416    4.5253    0.0000 H   0  0  0  0  0  0  0  0  0  0  0  0
  -14.2150   -0.4459    0.0000 H   0  0  0  0  0  0  0  0  0  0  0  0
  -12.2555   -0.8336    0.0000 H   0  0  0  0  0  0  0  0  0  0  0  0
  -12.5511    3.4753    0.0000 H   0  0  0  0  0  0  0  0  0  0  0  0
  -13.4428    2.1062    0.0000 H   0  0  0  0  0  0  0  0  0  0  0  0
  -10.0898    1.5702    0.0000 H   0  0  0  0  0  0  0  0  0  0  0  0
   -9.6674    5.4204    0.0000 H   0  0  0  0  0  0  0  0  0  0  0  0
  -11.4091    5.8089    0.0000 H   0  0  0  0  0  0  0  0  0  0  0  0
  -12.2899    4.2570    0.0000 H   0  0  0  0  0  0  0  0  0  0  0  0
   -8.6542    4.6822    0.0000 H   0  0  0  0  0  0  0  0  0  0  0  0
   -7.7215    3.3345    0.0000 H   0  0  0  0  0  0  0  0  0  0  0  0
   -9.1396    1.8058    0.0000 H   0  0  0  0  0  0  0  0  0  0  0  0
  -11.7276   -2.2273    0.0000 H   0  0  0  0  0  0  0  0  0  0  0  0
   -8.6275   -0.7661    0.0000 H   0  0  0  0  0  0  0  0  0  0  0  0
  -10.1627   -4.9011    0.0000 H   0  0  0  0  0  0  0  0  0  0  0  0
   -8.5788   -4.0792    0.0000 H   0  0  0  0  0  0  0  0  0  0  0  0
  -12.7650   -2.6017    0.0000 H   0  0  0  0  0  0  0  0  0  0  0  0
  -11.5466   -1.7666    0.0000 H   0  0  0  0  0  0  0  0  0  0  0  0
  -12.7164   -5.9148    0.0000 H   0  0  0  0  0  0  0  0  0  0  0  0
  -11.0441   -5.2921    0.0000 H   0  0  0  0  0  0  0  0  0  0  0  0
  -14.4009   -2.9435    0.0000 H   0  0  0  0  0  0  0  0  0  0  0  0
  -17.0507   -6.5806    0.0000 H   0  0  0  0  0  0  0  0  0  0  0  0
  -16.7757   -3.9971    0.0000 H   0  0  0  0  0  0  0  0  0  0  0  0
  -14.9509   -8.1105    0.0000 H   0  0  0  0  0  0  0  0  0  0  0  0
  -12.5760   -7.0569    0.0000 H   0  0  0  0  0  0  0  0  0  0  0  0
   -7.4389    0.1329    0.0000 H   0  0  0  0  0  0  0  0  0  0  0  0
   -5.1159   -3.9136    0.0000 H   0  0  0  0  0  0  0  0  0  0  0  0
   -5.8676   -2.9034    0.0000 H   0  0  0  0  0  0  0  0  0  0  0  0
   -3.8478   -5.1382    0.0000 H   0  0  0  0  0  0  0  0  0  0  0  0
   -4.7771   -4.2885    0.0000 H   0  0  0  0  0  0  0  0  0  0  0  0
   -2.3709   -6.1007    0.0000 H   0  0  0  0  0  0  0  0  0  0  0  0
   -3.4441   -5.4423    0.0000 H   0  0  0  0  0  0  0  0  0  0  0  0
   -0.7385   -6.7663    0.0000 H   0  0  0  0  0  0  0  0  0  0  0  0
   -1.9169   -6.3229    0.0000 H   0  0  0  0  0  0  0  0  0  0  0  0
    0.9904   -7.1110    0.0000 H   0  0  0  0  0  0  0  0  0  0  0  0
   -0.2507   -6.8986    0.0000 H   0  0  0  0  0  0  0  0  0  0  0  0
    2.9127   -7.0320    0.0000 H   0  0  0  0  0  0  0  0  0  0  0  0
    1.4944   -7.1485    0.0000 H   0  0  0  0  0  0  0  0  0  0  0  0
    3.8999   -7.0671    0.0000 H   0  0  0  0  0  0  0  0  0  0  0  0
   -7.4290   -2.8402    0.0000 H   0  0  0  0  0  0  0  0  0  0  0  0
   -6.1112   -4.0530    0.0000 H   0  0  0  0  0  0  0  0  0  0  0  0
   -4.8048   -3.5023    0.0000 H   0  0  0  0  0  0  0  0  0  0  0  0
   -7.4138    1.2899    0.0000 H   0  0  0  0  0  0  0  0  0  0  0  0
   -7.0699    4.0137    0.0000 H   0  0  0  0  0  0  0  0  0  0  0  0
   -8.2429    3.5787    0.0000 H   0  0  0  0  0  0  0  0  0  0  0  0
   -8.4469    1.5237    0.0000 H   0  0  0  0  0  0  0  0  0  0  0  0
   -6.7288    1.0418    0.0000 H   0  0  0  0  0  0  0  0  0  0  0  0
   -6.3760    6.4727    0.0000 H   0  0  0  0  0  0  0  0  0  0  0  0
   -4.4372    8.6255    0.0000 H   0  0  0  0  0  0  0  0  0  0  0  0
   -7.1188    7.2280    0.0000 H   0  0  0  0  0  0  0  0  0  0  0  0
   -5.9339    5.8937    0.0000 H   0  0  0  0  0  0  0  0  0  0  0  0
   -7.6750    8.9572    0.0000 H   0  0  0  0  0  0  0  0  0  0  0  0
   -6.2443   10.2502    0.0000 H   0  0  0  0  0  0  0  0  0  0  0  0
   -4.8423    9.4113    0.0000 H   0  0  0  0  0  0  0  0  0  0  0  0
   -2.7010   10.2717    0.0000 H   0  0  0  0  0  0  0  0  0  0  0  0
   -0.0805   11.0904    0.0000 H   0  0  0  0  0  0  0  0  0  0  0  0
   -2.9175   11.3087    0.0000 H   0  0  0  0  0  0  0  0  0  0  0  0
   -2.6421    9.5456    0.0000 H   0  0  0  0  0  0  0  0  0  0  0  0
   -2.4505   13.0641    0.0000 H   0  0  0  0  0  0  0  0  0  0  0  0
    2.4446   11.4808    0.0000 H   0  0  0  0  0  0  0  0  0  0  0  0
    5.0917   10.7527    0.0000 H   0  0  0  0  0  0  0  0  0  0  0  0
    2.8230   12.4701    0.0000 H   0  0  0  0  0  0  0  0  0  0  0  0
    2.1015   10.8381    0.0000 H   0  0  0  0  0  0  0  0  0  0  0  0
    2.9619   14.3737    0.0000 H   0  0  0  0  0  0  0  0  0  0  0  0
    5.8257   15.9384    0.0000 H   0  0  0  0  0  0  0  0  0  0  0  0
    8.1988   13.6983    0.0000 H   0  0  0  0  0  0  0  0  0  0  0  0
    7.4270    9.7160    0.0000 H   0  0  0  0  0  0  0  0  0  0  0  0
    9.2819    7.4905    0.0000 H   0  0  0  0  0  0  0  0  0  0  0  0
    8.2802   10.3437    0.0000 H   0  0  0  0  0  0  0  0  0  0  0  0
    6.7909    9.3608    0.0000 H   0  0  0  0  0  0  0  0  0  0  0  0
   11.1167    8.8674    0.0000 H   0  0  0  0  0  0  0  0  0  0  0  0
   10.1173    7.7796    0.0000 H   0  0  0  0  0  0  0  0  0  0  0  0
   11.9423   12.4505    0.0000 H   0  0  0  0  0  0  0  0  0  0  0  0
   13.0185   10.8503    0.0000 H   0  0  0  0  0  0  0  0  0  0  0  0
   11.8112    9.5363    0.0000 H   0  0  0  0  0  0  0  0  0  0  0  0
   10.6643    5.5377    0.0000 H   0  0  0  0  0  0  0  0  0  0  0  0
   11.0215    2.6627    0.0000 H   0  0  0  0  0  0  0  0  0  0  0  0
   11.5666    5.7023    0.0000 H   0  0  0  0  0  0  0  0  0  0  0  0
    9.9371    5.5828    0.0000 H   0  0  0  0  0  0  0  0  0  0  0  0
   13.3095    2.8290    0.0000 H   0  0  0  0  0  0  0  0  0  0  0  0
   11.8807    2.4542    0.0000 H   0  0  0  0  0  0  0  0  0  0  0  0
   13.9496    6.2851    0.0000 H   0  0  0  0  0  0  0  0  0  0  0  0
   12.3469    5.9679    0.0000 H   0  0  0  0  0  0  0  0  0  0  0  0
   15.9814    3.4690    0.0000 H   0  0  0  0  0  0  0  0  0  0  0  0
   14.2554    3.0162    0.0000 H   0  0  0  0  0  0  0  0  0  0  0  0
   17.3611    4.9134    0.0000 H   0  0  0  0  0  0  0  0  0  0  0  0
   16.6639    6.7113    0.0000 H   0  0  0  0  0  0  0  0  0  0  0  0
   14.8955    6.4724    0.0000 H   0  0  0  0  0  0  0  0  0  0  0  0
   11.1287    0.2724    0.0000 H   0  0  0  0  0  0  0  0  0  0  0  0
    9.9316   -2.5733    0.0000 H   0  0  0  0  0  0  0  0  0  0  0  0
    9.0602   -3.6984    0.0000 H   0  0  0  0  0  0  0  0  0  0  0  0
    8.8258   -4.1703    0.0000 H   0  0  0  0  0  0  0  0  0  0  0  0
    8.0069   -4.8905    0.0000 H   0  0  0  0  0  0  0  0  0  0  0  0
    7.6163   -5.2112    0.0000 H   0  0  0  0  0  0  0  0  0  0  0  0
    6.3891   -5.9318    0.0000 H   0  0  0  0  0  0  0  0  0  0  0  0
    5.6019   -6.5285    0.0000 H   0  0  0  0  0  0  0  0  0  0  0  0
    9.7727   -3.7471    0.0000 H   0  0  0  0  0  0  0  0  0  0  0  0
   11.1304   -3.2327    0.0000 H   0  0  0  0  0  0  0  0  0  0  0  0
   11.2962   -1.4372    0.0000 H   0  0  0  0  0  0  0  0  0  0  0  0
   11.2151   -3.4184    0.0000 H   0  0  0  0  0  0  0  0  0  0  0  0
   12.5998   -0.3227    0.0000 H   0  0  0  0  0  0  0  0  0  0  0  0
   15.2439    0.2054    0.0000 H   0  0  0  0  0  0  0  0  0  0  0  0
   13.4605    0.1440    0.0000 H   0  0  0  0  0  0  0  0  0  0  0  0
   15.3214   -3.2732    0.0000 H   0  0  0  0  0  0  0  0  0  0  0  0
   18.4211   -1.5515    0.0000 H   0  0  0  0  0  0  0  0  0  0  0  0
   17.9853    0.0231    0.0000 H   0  0  0  0  0  0  0  0  0  0  0  0
   16.2077    0.1796    0.0000 H   0  0  0  0  0  0  0  0  0  0  0  0
   16.4088   -4.4763    0.0000 H   0  0  0  0  0  0  0  0  0  0  0  0
   18.0801   -3.2632    0.0000 H   0  0  0  0  0  0  0  0  0  0  0  0
   17.7293   -1.9959    0.0000 H   0  0  0  0  0  0  0  0  0  0  0  0
   16.3636   -1.4782    0.0000 H   0  0  0  0  0  0  0  0  0  0  0  0
   15.0290   -4.4223    0.0000 H   0  0  0  0  0  0  0  0  0  0  0  0
   17.8333   -6.4704    0.0000 H   0  0  0  0  0  0  0  0  0  0  0  0
   18.3874   -5.1012    0.0000 H   0  0  0  0  0  0  0  0  0  0  0  0
   14.5870   -7.1340    0.0000 H   0  0  0  0  0  0  0  0  0  0  0  0
   14.8363   -5.3670    0.0000 H   0  0  0  0  0  0  0  0  0  0  0  0
   17.3140   -9.0161    0.0000 H   0  0  0  0  0  0  0  0  0  0  0  0
   17.7768   -7.2927    0.0000 H   0  0  0  0  0  0  0  0  0  0  0  0
   13.9166   -8.6647    0.0000 H   0  0  0  0  0  0  0  0  0  0  0  0
   15.3422  -12.9330    0.0000 H   0  0  0  0  0  0  0  0  0  0  0  0
   13.3972  -11.2104    0.0000 H   0  0  0  0  0  0  0  0  0  0  0  0
   17.8064  -12.1099    0.0000 H   0  0  0  0  0  0  0  0  0  0  0  0
   18.3258   -9.5642    0.0000 H   0  0  0  0  0  0  0  0  0  0  0  0
   18.4654   -6.2788    0.0000 H   0  0  0  0  0  0  0  0  0  0  0  0
   21.6440   -3.8908    0.0000 H   0  0  0  0  0  0  0  0  0  0  0  0
   19.8502   -3.1831    0.0000 H   0  0  0  0  0  0  0  0  0  0  0  0
   23.2927   -4.1640    0.0000 H   0  0  0  0  0  0  0  0  0  0  0  0
   22.2794   -7.2827    0.0000 H   0  0  0  0  0  0  0  0  0  0  0  0
   25.5465   -7.6075    0.0000 H   0  0  0  0  0  0  0  0  0  0  0  0
   24.7074  -10.7829    0.0000 H   0  0  0  0  0  0  0  0  0  0  0  0
   23.4542  -10.7494    0.0000 H   0  0  0  0  0  0  0  0  0  0  0  0
   21.8374   -9.9944    0.0000 H   0  0  0  0  0  0  0  0  0  0  0  0
   22.0866   -8.2275    0.0000 H   0  0  0  0  0  0  0  0  0  0  0  0
  1  2  1  0
  2  3  1  0
  3  4  1  0
  4  5  1  0
  5  6  1  0
  6  7  1  0
  7  8  1  0
  8  9  1  0
  9 10  1  0
 10 11  1  0
 11 12  2  0
 11 13  1  0
 13 14  1  0
 14 15  1  0
 15 16  2  0
 15 17  1  0
 17 18  1  0
 18 19  1  0
 19 20  1  0
 19 21  1  0
 21 22  1  0
 18 23  1  0
 23 24  2  0
 23 25  1  0
 25 26  1  0
 26 27  1  0
 27 28  1  0
 28 29  1  0
 28 30  1  0
 26 31  1  0
 31 32  2  0
 31 33  1  0
 33 34  1  0
 34 35  1  0
 35 36  1  0
 36 37  1  0
 37 38  1  0
 38 39  1  0
 39 40  2  3
 39 41  1  0
 34 42  1  0
 42 43  2  0
 42 44  1  0
 45 44  1  1
 45 46  1  0
 46 47  1  0
 47 48  1  0
 48 49  1  0
 49 50  1  0
 50 51  1  0
 51 52  1  0
 45 53  1  0
 45 54  1  0
 54 55  2  0
 54 56  1  0
 56 57  1  0
 57 58  1  0
 57 59  1  0
 59 60  2  0
 59 61  1  0
 61 62  1  0
 62 63  1  0
 63 64  1  0
 62 65  1  0
 65 66  2  0
 65 67  1  0
 67 68  1  0
 68 69  1  0
 69 70  1  0
 68 71  1  0
 71 72  2  0
 71 73  1  0
 73 74  1  0
 74 75  1  0
 75 76  1  0
 76 77  2  0
 77 78  1  0
 78 79  1  0
 79 80  2  0
 74 81  1  0
 81 82  2  0
 81 83  1  0
 83 84  1  0
 84 85  1  0
 85 86  1  0
 86 87  1  0
 87 88  1  0
 84 89  1  0
 89 90  2  0
 89 91  1  0
 91 92  1  0
 92 93  1  0
 93 94  1  0
 94 95  1  0
 95 96  1  0
 96 97  1  0
 92 98  1  0
 98 99  2  0
 98100  1  0
100101  1  0
101102  1  0
102103  1  0
103104  1  0
104105  1  0
101106  1  0
101107  1  6
107108  2  0
107109  1  0
109110  1  0
110111  1  0
111112  1  0
112113  1  0
112114  1  0
110115  1  0
115116  2  0
115117  1  0
117118  1  0
118119  1  0
119120  1  0
120121  1  0
121122  1  0
122123  1  0
123124  2  3
123125  1  0
118126  1  0
126127  2  0
126128  1  0
128129  1  0
129130  1  0
130131  2  0
130132  1  0
132133  1  0
133134  1  0
134135  1  0
134136  1  0
133137  1  0
137138  2  0
137139  1  0
 80 76  1  0
 52105  2  0
  1140  1  0
  1141  1  0
  2142  1  0
  2143  1  0
  3144  1  0
  3145  1  0
  5146  1  0
  5147  1  0
  6148  1  0
  6149  1  0
  8150  1  0
  8151  1  0
  9152  1  0
  9153  1  0
 10154  1  0
 13155  1  0
 13156  1  0
 14157  1  0
 14158  1  0
 17159  1  0
 18160  1  1
 19161  1  6
 20162  1  0
 20163  1  0
 20164  1  0
 21165  1  0
 21166  1  0
 22167  1  0
 22168  1  0
 22169  1  0
 25170  1  0
 26171  1  1
 27172  1  0
 27173  1  0
 28174  1  0
 29175  1  0
 29176  1  0
 29177  1  0
 30178  1  0
 30179  1  0
 30180  1  0
 33181  1  0
 34182  1  6
 35183  1  0
 35184  1  0
 36185  1  0
 36186  1  0
 37187  1  0
 37188  1  0
 38189  1  0
 40190  1  0
 40191  1  0
 41192  1  0
 41193  1  0
 44194  1  0
 46195  1  0
 46196  1  0
 47197  1  0
 47198  1  0
 48199  1  0
 48200  1  0
 49201  1  0
 49202  1  0
 50203  1  0
 50204  1  0
 51205  1  0
 51206  1  0
 52207  1  0
 53208  1  0
 53209  1  0
 53210  1  0
 56211  1  0
 57212  1  1
 58213  1  0
 58214  1  0
 58215  1  0
 61216  1  0
 62217  1  1
 63218  1  0
 63219  1  0
 64220  1  0
 64221  1  0
 64222  1  0
 67223  1  0
 68224  1  1
 69225  1  0
 69226  1  0
 70227  1  0
 73228  1  0
 74229  1  1
 75230  1  0
 75231  1  0
 77232  1  0
 78233  1  0
 79234  1  0
 83235  1  0
 84236  1  1
 85237  1  0
 85238  1  0
 86239  1  0
 86240  1  0
 88241  1  0
 88242  1  0
 88243  1  0
 91244  1  0
 92245  1  1
 93246  1  0
 93247  1  0
 94248  1  0
 94249  1  0
 95250  1  0
 95251  1  0
 96252  1  0
 96253  1  0
 97254  1  0
 97255  1  0
 97256  1  0
100257  1  0
102258  1  0
102259  1  0
103260  1  0
103261  1  0
104262  1  0
104263  1  0
105264  1  0
106265  1  0
106266  1  0
106267  1  0
109268  1  0
110269  1  1
111270  1  0
111271  1  0
112272  1  0
113273  1  0
113274  1  0
113275  1  0
114276  1  0
114277  1  0
114278  1  0
117279  1  0
118280  1  6
119281  1  0
119282  1  0
120283  1  0
120284  1  0
121285  1  0
121286  1  0
122287  1  0
124288  1  0
124289  1  0
125290  1  0
125291  1  0
128292  1  0
129293  1  0
129294  1  0
132295  1  0
133296  1  6
134297  1  1
135298  1  0
136299  1  0
136300  1  0
136301  1  0
M  CHG  4  40   1  97   1 124   1 139  -1
M  END
