
     RDKit          2D

268276  0  0  0  0  0  0  0  0999 V2000
  -25.1052   -0.2141    0.0000 C   0  0  0  0  0  0  0  0  0  0  0  0
  -26.3880   -0.9915    0.0000 N   0  0  0  0  0  0  0  0  0  0  0  0
  -27.7027   -0.2693    0.0000 C   0  0  0  0  0  0  0  0  0  0  0  0
  -27.7345    1.2304    0.0000 C   0  0  0  0  0  0  0  0  0  0  0  0
  -29.0492    1.9527    0.0000 C   0  0  0  0  0  0  0  0  0  0  0  0
  -30.3320    1.1753    0.0000 C   0  0  0  0  0  0  0  0  0  0  0  0
  -30.3002   -0.3244    0.0000 C   0  0  0  0  0  0  0  0  0  0  0  0
  -28.9855   -1.0467    0.0000 C   0  0  0  0  0  0  0  0  0  0  0  0
  -31.7166   -0.8181    0.0000 C   0  0  0  0  0  0  0  0  0  0  0  0
  -32.6238    0.3764    0.0000 O   0  0  0  0  0  0  0  0  0  0  0  0
  -31.7681    1.6084    0.0000 C   0  0  0  0  0  0  0  0  0  0  0  0
  -32.2618    3.0248    0.0000 O   0  0  0  0  0  0  0  0  0  0  0  0
  -33.1769   -1.1610    0.0000 C   0  0  0  0  0  0  0  0  0  0  0  0
  -33.6100   -2.5972    0.0000 C   0  0  0  0  0  0  0  0  0  0  0  0
  -35.0703   -2.9401    0.0000 C   0  0  0  0  0  0  0  0  0  0  0  0
  -36.0974   -1.8469    0.0000 C   0  0  0  0  0  0  0  0  0  0  0  0
  -35.6643   -0.4108    0.0000 C   0  0  0  0  0  0  0  0  0  0  0  0
  -34.2040   -0.0679    0.0000 C   0  0  0  0  0  0  0  0  0  0  0  0
  -37.5577   -2.1899    0.0000 O   0  0  0  0  0  0  0  0  0  0  0  0
  -32.5829   -3.6903    0.0000 O   0  0  0  0  0  0  0  0  0  0  0  0
  -31.1226   -3.3474    0.0000 C   0  0  0  0  0  0  0  0  0  0  0  0
  -30.6895   -1.9113    0.0000 C   0  0  0  0  0  0  0  0  0  0  0  0
  -29.4313   -2.2385    0.0000 C   0  0  0  0  0  0  0  0  0  0  0  0
  -28.8835   -2.8215    0.0000 C   0  0  0  0  0  0  0  0  0  0  0  0
  -29.1145   -3.5874    0.0000 C   0  0  0  0  0  0  0  0  0  0  0  0
  -29.8933   -3.7703    0.0000 C   0  0  0  0  0  0  0  0  0  0  0  0
  -27.6081   -5.1907    0.0000 O   0  0  0  0  0  0  0  0  0  0  0  0
  -25.1370    1.2856    0.0000 S   0  0  0  0  0  0  0  0  0  0  0  0
  -23.7905   -0.9364    0.0000 N   0  0  0  0  0  0  0  0  0  0  0  0
  -22.5077   -0.1590    0.0000 C   0  0  0  0  0  0  0  0  0  0  0  0
  -21.1930   -0.8812    0.0000 C   0  0  0  0  0  0  0  0  0  0  0  0
  -19.9102   -0.1038    0.0000 O   0  0  0  0  0  0  0  0  0  0  0  0
  -18.5955   -0.8261    0.0000 C   0  0  0  0  0  0  0  0  0  0  0  0
  -17.3127   -0.0487    0.0000 O   0  0  0  0  0  0  0  0  0  0  0  0
  -15.9980   -0.7709    0.0000 C   0  0  0  0  0  0  0  0  0  0  0  0
  -14.7152    0.0065    0.0000 C   0  0  0  0  0  0  0  0  0  0  0  0
  -13.4005   -0.7158    0.0000 O   0  0  0  0  0  0  0  0  0  0  0  0
  -12.1177    0.0616    0.0000 C   0  0  0  0  0  0  0  0  0  0  0  0
  -10.8031   -0.6606    0.0000 C   0  0  0  0  0  0  0  0  0  0  0  0
   -9.5202    0.1168    0.0000 C   0  0  0  0  0  0  0  0  0  0  0  0
   -9.5521    1.6165    0.0000 O   0  0  0  0  0  0  0  0  0  0  0  0
   -8.2056   -0.6055    0.0000 N   0  0  0  0  0  0  0  0  0  0  0  0
   -6.9227    0.1719    0.0000 C   0  0  0  0  0  0  0  0  0  0  0  0
   -5.9832    1.3412    0.0000 C   0  0  0  0  0  0  0  0  0  0  0  0
   -4.5008    1.1122    0.0000 C   0  0  0  0  0  0  0  0  0  0  0  0
   -3.5612    2.2814    0.0000 C   0  0  0  0  0  0  0  0  0  0  0  0
   -2.0788    2.0524    0.0000 N   0  0  0  0  0  0  0  0  0  0  0  0
   -1.1392    3.2217    0.0000 C   0  0  0  0  0  0  0  0  0  0  0  0
    0.3042    2.8136    0.0000 N   0  0  0  0  0  0  0  0  0  0  0  0
   -1.6820    4.6200    0.0000 N   0  0  0  0  0  0  0  0  0  0  0  0
   -5.6081   -0.5503    0.0000 C   0  0  0  0  0  0  0  0  0  0  0  0
   -5.5762   -2.0500    0.0000 O   0  0  0  0  0  0  0  0  0  0  0  0
   -4.3253    0.2271    0.0000 N   0  0  0  0  0  0  0  0  0  0  0  0
   -3.0106   -0.4952    0.0000 C   0  0  0  0  0  0  0  0  0  0  0  0
   -2.0222   -1.6235    0.0000 C   0  0  0  0  0  0  0  0  0  0  0  0
   -2.5052   -3.0436    0.0000 C   0  0  0  0  0  0  0  0  0  0  0  0
   -1.5169   -4.1720    0.0000 C   0  0  0  0  0  0  0  0  0  0  0  0
   -1.9999   -5.5921    0.0000 C   0  0  0  0  0  0  0  0  0  0  0  0
   -1.0115   -6.7204    0.0000 N   0  0  0  0  0  0  0  0  0  0  0  0
   -1.7278    0.2822    0.0000 C   0  0  0  0  0  0  0  0  0  0  0  0
   -1.4857    1.3486    0.0000 O   0  0  0  0  0  0  0  0  0  0  0  0
   -0.4131   -0.4400    0.0000 N   0  0  0  0  0  0  0  0  0  0  0  0
    0.8697    0.3374    0.0000 C   0  0  0  0  0  0  0  0  0  0  0  0
    1.8093    1.5067    0.0000 C   0  0  0  0  0  0  0  0  0  0  0  0
    3.2917    1.2776    0.0000 C   0  0  0  0  0  0  0  0  0  0  0  0
    3.8345   -0.1207    0.0000 C   0  0  0  0  0  0  0  0  0  0  0  0
    2.8669   -0.8555    0.0000 F   0  0  0  0  0  0  0  0  0  0  0  0
    5.3170   -0.3498    0.0000 C   0  0  0  0  0  0  0  0  0  0  0  0
    6.1820   -1.5752    0.0000 F   0  0  0  0  0  0  0  0  0  0  0  0
    6.2565    0.8195    0.0000 C   0  0  0  0  0  0  0  0  0  0  0  0
    7.7389    0.5904    0.0000 F   0  0  0  0  0  0  0  0  0  0  0  0
    5.7137    2.2178    0.0000 C   0  0  0  0  0  0  0  0  0  0  0  0
    6.9083    3.1250    0.0000 F   0  0  0  0  0  0  0  0  0  0  0  0
    4.2313    2.4469    0.0000 C   0  0  0  0  0  0  0  0  0  0  0  0
    3.3662    3.6723    0.0000 F   0  0  0  0  0  0  0  0  0  0  0  0
    2.1844   -0.3849    0.0000 C   0  0  0  0  0  0  0  0  0  0  0  0
    1.8524   -1.8477    0.0000 O   0  0  0  0  0  0  0  0  0  0  0  0
    3.4672    0.3925    0.0000 N   0  0  0  0  0  0  0  0  0  0  0  0
    4.7819   -0.3297    0.0000 C   0  0  0  0  0  0  0  0  0  0  0  0
    5.1102   -1.7933    0.0000 C   0  0  0  0  0  0  0  0  0  0  0  0
    5.8554   -3.0951    0.0000 C   0  0  0  0  0  0  0  0  0  0  0  0
    6.9512   -4.1195    0.0000 C   0  0  0  0  0  0  0  0  0  0  0  0
    8.3003   -4.7753    0.0000 C   0  0  0  0  0  0  0  0  0  0  0  0
    3.5828   -1.2310    0.0000 C   0  0  0  0  0  0  0  0  0  0  0  0
    4.8995    1.1657    0.0000 C   0  0  0  0  0  0  0  0  0  0  0  0
    3.6571    2.0061    0.0000 O   0  0  0  0  0  0  0  0  0  0  0  0
    5.4527    2.5599    0.0000 N   0  0  0  0  0  0  0  0  0  0  0  0
    6.3923    3.7292    0.0000 C   0  0  0  0  0  0  0  0  0  0  0  0
    6.1373    5.2074    0.0000 C   0  0  0  0  0  0  0  0  0  0  0  0
    4.7296    5.7256    0.0000 C   0  0  0  0  0  0  0  0  0  0  0  0
    4.4747    7.2038    0.0000 C   0  0  0  0  0  0  0  0  0  0  0  0
    3.0670    7.7220    0.0000 N   0  0  0  0  0  0  0  0  0  0  0  0
    2.8120    9.2002    0.0000 C   0  0  0  0  0  0  0  0  0  0  0  0
    1.4044    9.7185    0.0000 N   0  0  0  0  0  0  0  0  0  0  0  0
    3.9647   10.1601    0.0000 N   0  0  0  0  0  0  0  0  0  0  0  0
    7.6348    4.5696    0.0000 C   0  0  0  0  0  0  0  0  0  0  0  0
    6.9889    5.9234    0.0000 O   0  0  0  0  0  0  0  0  0  0  0  0
    9.0697    5.0064    0.0000 N   0  0  0  0  0  0  0  0  0  0  0  0
   10.5697    5.0009    0.0000 C   0  0  0  0  0  0  0  0  0  0  0  0
   11.5664    6.1218    0.0000 C   0  0  0  0  0  0  0  0  0  0  0  0
   11.0940    7.5455    0.0000 C   0  0  0  0  0  0  0  0  0  0  0  0
   12.0907    8.6665    0.0000 C   0  0  0  0  0  0  0  0  0  0  0  0
   10.1631    8.7217    0.0000 C   0  0  0  0  0  0  0  0  0  0  0  0
   12.0014    4.5534    0.0000 C   0  0  0  0  0  0  0  0  0  0  0  0
   12.6573    5.9025    0.0000 O   0  0  0  0  0  0  0  0  0  0  0  0
   13.2377    3.7039    0.0000 N   0  0  0  0  0  0  0  0  0  0  0  0
   14.1685    2.5276    0.0000 C   0  0  0  0  0  0  0  0  0  0  0  0
   15.6664    2.4473    0.0000 C   0  0  0  0  0  0  0  0  0  0  0  0
   16.4849    3.7043    0.0000 C   0  0  0  0  0  0  0  0  0  0  0  0
   17.9827    3.6240    0.0000 C   0  0  0  0  0  0  0  0  0  0  0  0
   18.8012    4.8810    0.0000 C   0  0  0  0  0  0  0  0  0  0  0  0
   18.1218    6.2184    0.0000 C   0  0  0  0  0  0  0  0  0  0  0  0
   16.6240    6.2987    0.0000 C   0  0  0  0  0  0  0  0  0  0  0  0
   15.8055    5.0417    0.0000 C   0  0  0  0  0  0  0  0  0  0  0  0
   14.7114    1.1293    0.0000 C   0  0  0  0  0  0  0  0  0  0  0  0
   16.1750    1.4577    0.0000 O   0  0  0  0  0  0  0  0  0  0  0  0
   14.8179   -0.3669    0.0000 N   0  0  0  0  0  0  0  0  0  0  0  0
   14.4787   -1.8280    0.0000 C   0  0  0  0  0  0  0  0  0  0  0  0
   13.7239   -3.1243    0.0000 C   0  0  0  0  0  0  0  0  0  0  0  0
   12.6206   -4.1405    0.0000 C   0  0  0  0  0  0  0  0  0  0  0  0
   11.2667   -4.7863    0.0000 C   0  0  0  0  0  0  0  0  0  0  0  0
    9.7827   -5.0044    0.0000 C   0  0  0  0  0  0  0  0  0  0  0  0
   15.9501   -1.5363    0.0000 C   0  0  0  0  0  0  0  0  0  0  0  0
   15.3498   -3.0492    0.0000 C   0  0  0  0  0  0  0  0  0  0  0  0
   15.0766   -4.5241    0.0000 O   0  0  0  0  0  0  0  0  0  0  0  0
   16.8429   -2.9054    0.0000 N   0  0  0  0  0  0  0  0  0  0  0  0
   17.7140   -4.1265    0.0000 C   0  0  0  0  0  0  0  0  0  0  0  0
   18.1149   -5.5719    0.0000 C   0  0  0  0  0  0  0  0  0  0  0  0
   17.0636   -6.6418    0.0000 O   0  0  0  0  0  0  0  0  0  0  0  0
   19.2071   -3.9827    0.0000 C   0  0  0  0  0  0  0  0  0  0  0  0
   19.8291   -2.6177    0.0000 O   0  0  0  0  0  0  0  0  0  0  0  0
   20.0782   -5.2038    0.0000 N   0  0  0  0  0  0  0  0  0  0  0  0
   21.5713   -5.0600    0.0000 C   0  0  0  0  0  0  0  0  0  0  0  0
   22.9252   -4.4142    0.0000 C   0  0  0  0  0  0  0  0  0  0  0  0
   24.1614   -5.2638    0.0000 C   0  0  0  0  0  0  0  0  0  0  0  0
   24.0437   -6.7591    0.0000 C   0  0  0  0  0  0  0  0  0  0  0  0
   25.2800   -7.6087    0.0000 C   0  0  0  0  0  0  0  0  0  0  0  0
   26.6338   -6.9629    0.0000 C   0  0  0  0  0  0  0  0  0  0  0  0
   27.8700   -7.8125    0.0000 O   0  0  0  0  0  0  0  0  0  0  0  0
   26.7514   -5.4675    0.0000 C   0  0  0  0  0  0  0  0  0  0  0  0
   25.5152   -4.6179    0.0000 C   0  0  0  0  0  0  0  0  0  0  0  0
   22.4424   -6.2811    0.0000 C   0  0  0  0  0  0  0  0  0  0  0  0
   23.9259   -6.5029    0.0000 O   0  0  0  0  0  0  0  0  0  0  0  0
   21.6587   -7.5601    0.0000 O   0  0  0  0  0  0  0  0  0  0  0  0
  -26.1736   -2.4761    0.0000 H   0  0  0  0  0  0  0  0  0  0  0  0
  -26.4517    2.0078    0.0000 H   0  0  0  0  0  0  0  0  0  0  0  0
  -29.0810    3.4523    0.0000 H   0  0  0  0  0  0  0  0  0  0  0  0
  -28.5917   -2.4941    0.0000 H   0  0  0  0  0  0  0  0  0  0  0  0
  -35.5034   -4.3762    0.0000 H   0  0  0  0  0  0  0  0  0  0  0  0
  -36.6914    0.6823    0.0000 H   0  0  0  0  0  0  0  0  0  0  0  0
  -33.7708    1.3682    0.0000 H   0  0  0  0  0  0  0  0  0  0  0  0
  -38.5848   -1.0967    0.0000 H   0  0  0  0  0  0  0  0  0  0  0  0
  -28.7960   -0.1322    0.0000 H   0  0  0  0  0  0  0  0  0  0  0  0
  -26.7109   -2.4991    0.0000 H   0  0  0  0  0  0  0  0  0  0  0  0
  -30.5286   -5.8766    0.0000 H   0  0  0  0  0  0  0  0  0  0  0  0
  -28.0412   -6.6269    0.0000 H   0  0  0  0  0  0  0  0  0  0  0  0
  -23.7587   -2.4360    0.0000 H   0  0  0  0  0  0  0  0  0  0  0  0
  -21.5681    1.0103    0.0000 H   0  0  0  0  0  0  0  0  0  0  0  0
  -23.4960    0.9694    0.0000 H   0  0  0  0  0  0  0  0  0  0  0  0
  -20.3496   -2.1216    0.0000 H   0  0  0  0  0  0  0  0  0  0  0  0
  -22.1326   -2.0505    0.0000 H   0  0  0  0  0  0  0  0  0  0  0  0
  -17.7521   -2.0665    0.0000 H   0  0  0  0  0  0  0  0  0  0  0  0
  -19.3856   -2.1011    0.0000 H   0  0  0  0  0  0  0  0  0  0  0  0
  -15.0097   -1.8993    0.0000 H   0  0  0  0  0  0  0  0  0  0  0  0
  -16.7881   -2.0460    0.0000 H   0  0  0  0  0  0  0  0  0  0  0  0
  -13.9252    1.2816    0.0000 H   0  0  0  0  0  0  0  0  0  0  0  0
  -15.7036    1.1348    0.0000 H   0  0  0  0  0  0  0  0  0  0  0  0
  -11.1782    1.2309    0.0000 H   0  0  0  0  0  0  0  0  0  0  0  0
  -12.9612    1.3020    0.0000 H   0  0  0  0  0  0  0  0  0  0  0  0
   -9.8147   -1.7890    0.0000 H   0  0  0  0  0  0  0  0  0  0  0  0
  -11.7426   -1.8299    0.0000 H   0  0  0  0  0  0  0  0  0  0  0  0
   -8.1737   -2.1051    0.0000 H   0  0  0  0  0  0  0  0  0  0  0  0
   -7.9111    1.3003    0.0000 H   0  0  0  0  0  0  0  0  0  0  0  0
   -5.6769    2.8096    0.0000 H   0  0  0  0  0  0  0  0  0  0  0  0
   -7.2978    2.0635    0.0000 H   0  0  0  0  0  0  0  0  0  0  0  0
   -3.1861    0.3899    0.0000 H   0  0  0  0  0  0  0  0  0  0  0  0
   -4.2604   -0.3684    0.0000 H   0  0  0  0  0  0  0  0  0  0  0  0
   -3.0782    3.7015    0.0000 H   0  0  0  0  0  0  0  0  0  0  0  0
   -4.7780    3.1586    0.0000 H   0  0  0  0  0  0  0  0  0  0  0  0
   -1.2137    0.8270    0.0000 H   0  0  0  0  0  0  0  0  0  0  0  0
    1.2828    4.1619    0.0000 H   0  0  0  0  0  0  0  0  0  0  0  0
   -0.7425    5.7893    0.0000 H   0  0  0  0  0  0  0  0  0  0  0  0
   -3.1645    4.8490    0.0000 H   0  0  0  0  0  0  0  0  0  0  0  0
   -3.9933    1.6899    0.0000 H   0  0  0  0  0  0  0  0  0  0  0  0
   -4.0857   -1.5412    0.0000 H   0  0  0  0  0  0  0  0  0  0  0  0
   -0.7076   -2.3458    0.0000 H   0  0  0  0  0  0  0  0  0  0  0  0
   -0.8276   -0.7163    0.0000 H   0  0  0  0  0  0  0  0  0  0  0  0
   -3.5803   -4.0896    0.0000 H   0  0  0  0  0  0  0  0  0  0  0  0
   -3.8981   -2.4870    0.0000 H   0  0  0  0  0  0  0  0  0  0  0  0
   -0.2022   -4.8942    0.0000 H   0  0  0  0  0  0  0  0  0  0  0  0
   -0.4418   -3.1259    0.0000 H   0  0  0  0  0  0  0  0  0  0  0  0
   -2.9394   -6.7613    0.0000 H   0  0  0  0  0  0  0  0  0  0  0  0
   -3.3928   -5.0355    0.0000 H   0  0  0  0  0  0  0  0  0  0  0  0
   -1.4945   -8.1405    0.0000 H   0  0  0  0  0  0  0  0  0  0  0  0
    0.4598   -6.4286    0.0000 H   0  0  0  0  0  0  0  0  0  0  0  0
   -0.1987   -1.9246    0.0000 H   0  0  0  0  0  0  0  0  0  0  0  0
   -0.1186    1.4657    0.0000 H   0  0  0  0  0  0  0  0  0  0  0  0
    2.2923    2.9268    0.0000 H   0  0  0  0  0  0  0  0  0  0  0  0
    0.4164    2.0633    0.0000 H   0  0  0  0  0  0  0  0  0  0  0  0
    3.6184    1.8849    0.0000 H   0  0  0  0  0  0  0  0  0  0  0  0
    3.6115   -1.8552    0.0000 H   0  0  0  0  0  0  0  0  0  0  0  0
    4.2301   -3.0080    0.0000 H   0  0  0  0  0  0  0  0  0  0  0  0
    4.4415   -3.5960    0.0000 H   0  0  0  0  0  0  0  0  0  0  0  0
    5.2029   -4.4458    0.0000 H   0  0  0  0  0  0  0  0  0  0  0  0
    5.6476   -4.8614    0.0000 H   0  0  0  0  0  0  0  0  0  0  0  0
    6.9083   -5.6189    0.0000 H   0  0  0  0  0  0  0  0  0  0  0  0
    7.8528   -6.2070    0.0000 H   0  0  0  0  0  0  0  0  0  0  0  0
    3.3982   -2.7196    0.0000 H   0  0  0  0  0  0  0  0  0  0  0  0
    2.2962   -2.0021    0.0000 H   0  0  0  0  0  0  0  0  0  0  0  0
    2.6001   -0.0978    0.0000 H   0  0  0  0  0  0  0  0  0  0  0  0
    4.2581    3.4671    0.0000 H   0  0  0  0  0  0  0  0  0  0  0  0
    4.9051    3.9249    0.0000 H   0  0  0  0  0  0  0  0  0  0  0  0
    6.5812    6.6402    0.0000 H   0  0  0  0  0  0  0  0  0  0  0  0
    7.5940    5.5649    0.0000 H   0  0  0  0  0  0  0  0  0  0  0  0
    3.2297    5.7312    0.0000 H   0  0  0  0  0  0  0  0  0  0  0  0
    4.1144    4.3576    0.0000 H   0  0  0  0  0  0  0  0  0  0  0  0
    4.7406    8.6800    0.0000 H   0  0  0  0  0  0  0  0  0  0  0  0
    5.9641    7.3811    0.0000 H   0  0  0  0  0  0  0  0  0  0  0  0
    1.9144    6.7621    0.0000 H   0  0  0  0  0  0  0  0  0  0  0  0
    1.1494   11.1966    0.0000 H   0  0  0  0  0  0  0  0  0  0  0  0
    3.7097   11.6383    0.0000 H   0  0  0  0  0  0  0  0  0  0  0  0
    5.3723    9.6419    0.0000 H   0  0  0  0  0  0  0  0  0  0  0  0
    8.8517    6.4905    0.0000 H   0  0  0  0  0  0  0  0  0  0  0  0
    9.7955    6.2856    0.0000 H   0  0  0  0  0  0  0  0  0  0  0  0
   12.9634    6.6681    0.0000 H   0  0  0  0  0  0  0  0  0  0  0  0
   12.7543    5.2058    0.0000 H   0  0  0  0  0  0  0  0  0  0  0  0
    9.6970    6.9992    0.0000 H   0  0  0  0  0  0  0  0  0  0  0  0
   11.7953   10.1371    0.0000 H   0  0  0  0  0  0  0  0  0  0  0  0
   13.4106    9.3790    0.0000 H   0  0  0  0  0  0  0  0  0  0  0  0
   13.1580    7.6125    0.0000 H   0  0  0  0  0  0  0  0  0  0  0  0
   10.5422   10.1730    0.0000 H   0  0  0  0  0  0  0  0  0  0  0  0
    8.8860    9.5086    0.0000 H   0  0  0  0  0  0  0  0  0  0  0  0
    9.1664    7.6007    0.0000 H   0  0  0  0  0  0  0  0  0  0  0  0
   14.1208    4.9163    0.0000 H   0  0  0  0  0  0  0  0  0  0  0  0
   14.8578    3.8599    0.0000 H   0  0  0  0  0  0  0  0  0  0  0  0
   17.0464    1.8596    0.0000 H   0  0  0  0  0  0  0  0  0  0  0  0
   15.6908    0.9475    0.0000 H   0  0  0  0  0  0  0  0  0  0  0  0
   18.6621    2.2867    0.0000 H   0  0  0  0  0  0  0  0  0  0  0  0
   20.2991    4.8007    0.0000 H   0  0  0  0  0  0  0  0  0  0  0  0
   18.9403    7.4754    0.0000 H   0  0  0  0  0  0  0  0  0  0  0  0
   15.9446    7.6360    0.0000 H   0  0  0  0  0  0  0  0  0  0  0  0
   14.3286    5.3040    0.0000 H   0  0  0  0  0  0  0  0  0  0  0  0
   16.3133   -0.4845    0.0000 H   0  0  0  0  0  0  0  0  0  0  0  0
   14.1964   -4.5479    0.0000 H   0  0  0  0  0  0  0  0  0  0  0  0
   15.1341   -3.6356    0.0000 H   0  0  0  0  0  0  0  0  0  0  0  0
   12.8350   -5.6251    0.0000 H   0  0  0  0  0  0  0  0  0  0  0  0
   13.8174   -5.0447    0.0000 H   0  0  0  0  0  0  0  0  0  0  0  0
   10.8551   -6.2287    0.0000 H   0  0  0  0  0  0  0  0  0  0  0  0
   12.2856   -5.8871    0.0000 H   0  0  0  0  0  0  0  0  0  0  0  0
    9.7771   -6.5043    0.0000 H   0  0  0  0  0  0  0  0  0  0  0  0
   17.1821   -2.3919    0.0000 H   0  0  0  0  0  0  0  0  0  0  0  0
   17.1286   -0.6083    0.0000 H   0  0  0  0  0  0  0  0  0  0  0  0
   15.7617   -0.0481    0.0000 H   0  0  0  0  0  0  0  0  0  0  0  0
   17.6267   -1.6264    0.0000 H   0  0  0  0  0  0  0  0  0  0  0  0
   16.3602   -4.7723    0.0000 H   0  0  0  0  0  0  0  0  0  0  0  0
   18.8307   -6.8902    0.0000 H   0  0  0  0  0  0  0  0  0  0  0  0
   19.5848   -5.2729    0.0000 H   0  0  0  0  0  0  0  0  0  0  0  0
   17.4645   -8.0873    0.0000 H   0  0  0  0  0  0  0  0  0  0  0  0
   19.6272   -6.6344    0.0000 H   0  0  0  0  0  0  0  0  0  0  0  0
   21.1704   -3.6146    0.0000 H   0  0  0  0  0  0  0  0  0  0  0  0
   23.9765   -3.3443    0.0000 H   0  0  0  0  0  0  0  0  0  0  0  0
   22.0541   -3.1930    0.0000 H   0  0  0  0  0  0  0  0  0  0  0  0
   22.7787   -7.5652    0.0000 H   0  0  0  0  0  0  0  0  0  0  0  0
   25.1623   -9.1041    0.0000 H   0  0  0  0  0  0  0  0  0  0  0  0
   29.2239   -7.1666    0.0000 H   0  0  0  0  0  0  0  0  0  0  0  0
   28.1053   -4.8217    0.0000 H   0  0  0  0  0  0  0  0  0  0  0  0
   25.6329   -3.1226    0.0000 H   0  0  0  0  0  0  0  0  0  0  0  0
   22.6915   -8.8673    0.0000 H   0  0  0  0  0  0  0  0  0  0  0  0
  1  2  1  0
  2  3  1  0
  3  4  2  0
  4  5  1  0
  5  6  2  0
  6  7  1  0
  7  8  2  0
  7  9  1  0
  9 10  1  0
 10 11  1  0
 11 12  2  0
  9 13  1  0
 13 14  1  0
 14 15  2  0
 15 16  1  0
 16 17  2  0
 17 18  1  0
 16 19  1  0
 14 20  1  0
 20 21  1  0
 21 22  2  0
 22 23  1  0
 23 24  2  0
 24 25  1  0
 25 26  2  0
 25 27  1  0
  1 28  2  0
  1 29  1  0
 29 30  1  0
 30 31  1  0
 31 32  1  0
 32 33  1  0
 33 34  1  0
 34 35  1  0
 35 36  1  0
 36 37  1  0
 37 38  1  0
 38 39  1  0
 39 40  1  0
 40 41  2  0
 40 42  1  0
 42 43  1  0
 43 44  1  0
 44 45  1  0
 45 46  1  0
 46 47  1  0
 47 48  1  0
 48 49  2  3
 48 50  1  0
 43 51  1  0
 51 52  2  0
 51 53  1  0
 53 54  1  0
 54 55  1  0
 55 56  1  0
 56 57  1  0
 57 58  1  0
 58 59  1  0
 54 60  1  0
 60 61  2  0
 60 62  1  0
 62 63  1  0
 63 64  1  0
 64 65  1  0
 65 66  2  0
 66 67  1  0
 66 68  1  0
 68 69  1  0
 68 70  2  0
 70 71  1  0
 70 72  1  0
 72 73  1  0
 72 74  2  0
 74 75  1  0
 63 76  1  0
 76 77  2  0
 76 78  1  0
 79 78  1  6
 79 80  1  0
 80 81  1  0
 81 82  1  0
 82 83  1  0
 79 84  1  0
 79 85  1  0
 85 86  2  0
 85 87  1  0
 87 88  1  0
 88 89  1  0
 89 90  1  0
 90 91  1  0
 91 92  1  0
 92 93  1  0
 93 94  2  3
 93 95  1  0
 88 96  1  0
 96 97  2  0
 96 98  1  0
 98 99  1  0
 99100  1  0
100101  1  0
101102  1  0
101103  1  0
 99104  1  0
104105  2  0
104106  1  0
106107  1  0
107108  1  0
108109  1  0
109110  2  0
110111  1  0
111112  2  0
112113  1  0
113114  2  0
107115  1  0
115116  2  0
115117  1  0
117118  1  0
118119  1  0
119120  1  0
120121  1  0
121122  1  0
118123  1  0
118124  1  6
124125  2  0
124126  1  0
126127  1  0
127128  1  0
128129  1  0
127130  1  0
130131  2  0
130132  1  0
132133  1  0
133134  1  0
134135  1  0
135136  2  0
136137  1  0
137138  2  0
138139  1  0
138140  1  0
140141  2  0
133142  1  0
142143  2  0
142144  1  0
  8  3  1  0
 74 65  1  0
114109  1  0
141135  1  0
 11  6  1  0
 83122  2  0
 18 13  2  0
 22  9  1  0
 26 21  1  0
  2145  1  0
  4146  1  0
  5147  1  0
  8148  1  0
 15149  1  0
 17150  1  0
 18151  1  0
 19152  1  0
 23153  1  0
 24154  1  0
 26155  1  0
 27156  1  0
 29157  1  0
 30158  1  0
 30159  1  0
 31160  1  0
 31161  1  0
 33162  1  0
 33163  1  0
 35164  1  0
 35165  1  0
 36166  1  0
 36167  1  0
 38168  1  0
 38169  1  0
 39170  1  0
 39171  1  0
 42172  1  0
 43173  1  1
 44174  1  0
 44175  1  0
 45176  1  0
 45177  1  0
 46178  1  0
 46179  1  0
 47180  1  0
 49181  1  0
 50182  1  0
 50183  1  0
 53184  1  0
 54185  1  6
 55186  1  0
 55187  1  0
 56188  1  0
 56189  1  0
 57190  1  0
 57191  1  0
 58192  1  0
 58193  1  0
 59194  1  0
 59195  1  0
 62196  1  0
 63197  1  6
 64198  1  0
 64199  1  0
 78200  1  0
 80201  1  0
 80202  1  0
 81203  1  0
 81204  1  0
 82205  1  0
 82206  1  0
 83207  1  0
 84208  1  0
 84209  1  0
 84210  1  0
 87211  1  0
 88212  1  1
 89213  1  0
 89214  1  0
 90215  1  0
 90216  1  0
 91217  1  0
 91218  1  0
 92219  1  0
 94220  1  0
 95221  1  0
 95222  1  0
 98223  1  0
 99224  1  1
100225  1  0
100226  1  0
101227  1  0
102228  1  0
102229  1  0
102230  1  0
103231  1  0
103232  1  0
103233  1  0
106234  1  0
107235  1  1
108236  1  0
108237  1  0
110238  1  0
111239  1  0
112240  1  0
113241  1  0
114242  1  0
117243  1  0
119244  1  0
119245  1  0
120246  1  0
120247  1  0
121248  1  0
121249  1  0
122250  1  0
123251  1  0
123252  1  0
123253  1  0
126254  1  0
127255  1  6
128256  1  0
128257  1  0
129258  1  0
132259  1  0
133260  1  1
134261  1  0
134262  1  0
136263  1  0
137264  1  0
139265  1  0
140266  1  0
141267  1  0
144268  1  0
M  END
