
     RDKit          2D

305311  0  0  0  0  0  0  0  0999 V2000
   20.4303   -3.3371    0.0000 C   0  0  0  0  0  0  0  0  0  0  0  0
   21.7609   -2.6446    0.0000 N   0  0  0  0  0  0  0  0  0  0  0  0
   23.0259   -3.4507    0.0000 C   0  0  0  0  0  0  0  0  0  0  0  0
   22.9604   -4.9492    0.0000 C   0  0  0  0  0  0  0  0  0  0  0  0
   24.2254   -5.7553    0.0000 C   0  0  0  0  0  0  0  0  0  0  0  0
   25.5560   -5.0628    0.0000 C   0  0  0  0  0  0  0  0  0  0  0  0
   25.6215   -3.5642    0.0000 C   0  0  0  0  0  0  0  0  0  0  0  0
   24.3565   -2.7582    0.0000 C   0  0  0  0  0  0  0  0  0  0  0  0
   27.0670   -3.1635    0.0000 C   0  0  0  0  0  0  0  0  0  0  0  0
   27.8948   -4.4144    0.0000 O   0  0  0  0  0  0  0  0  0  0  0  0
   26.9609   -5.5882    0.0000 C   0  0  0  0  0  0  0  0  0  0  0  0
   27.3617   -7.0337    0.0000 O   0  0  0  0  0  0  0  0  0  0  0  0
   28.5465   -2.9161    0.0000 C   0  0  0  0  0  0  0  0  0  0  0  0
   29.0719   -1.5111    0.0000 C   0  0  0  0  0  0  0  0  0  0  0  0
   30.5513   -1.2637    0.0000 C   0  0  0  0  0  0  0  0  0  0  0  0
   31.5054   -2.4212    0.0000 C   0  0  0  0  0  0  0  0  0  0  0  0
   30.9799   -3.8261    0.0000 C   0  0  0  0  0  0  0  0  0  0  0  0
   29.5005   -4.0736    0.0000 C   0  0  0  0  0  0  0  0  0  0  0  0
   32.9848   -2.1737    0.0000 O   0  0  0  0  0  0  0  0  0  0  0  0
   28.1179   -0.3536    0.0000 O   0  0  0  0  0  0  0  0  0  0  0  0
   26.6384   -0.6010    0.0000 C   0  0  0  0  0  0  0  0  0  0  0  0
   26.1130   -2.0060    0.0000 C   0  0  0  0  0  0  0  0  0  0  0  0
   24.8787   -1.5978    0.0000 C   0  0  0  0  0  0  0  0  0  0  0  0
   24.3699   -0.9804    0.0000 C   0  0  0  0  0  0  0  0  0  0  0  0
   24.6502   -0.2311    0.0000 C   0  0  0  0  0  0  0  0  0  0  0  0
   25.4392   -0.0991    0.0000 C   0  0  0  0  0  0  0  0  0  0  0  0
   23.2509    1.4666    0.0000 O   0  0  0  0  0  0  0  0  0  0  0  0
   20.3648   -4.8357    0.0000 S   0  0  0  0  0  0  0  0  0  0  0  0
   19.1653   -2.5311    0.0000 N   0  0  0  0  0  0  0  0  0  0  0  0
   17.8347   -3.2236    0.0000 C   0  0  0  0  0  0  0  0  0  0  0  0
   16.5697   -2.4175    0.0000 C   0  0  0  0  0  0  0  0  0  0  0  0
   15.2392   -3.1100    0.0000 C   0  0  0  0  0  0  0  0  0  0  0  0
   15.3981   -3.8912    0.0000 O   0  0  0  0  0  0  0  0  0  0  0  0
   13.9741   -2.3039    0.0000 N   0  0  0  0  0  0  0  0  0  0  0  0
   12.6436   -2.9965    0.0000 C   0  0  0  0  0  0  0  0  0  0  0  0
   13.5566   -4.1866    0.0000 C   0  0  0  0  0  0  0  0  0  0  0  0
   15.0438   -3.9909    0.0000 C   0  0  0  0  0  0  0  0  0  0  0  0
   15.9568   -5.1810    0.0000 N   0  0  0  0  0  0  0  0  0  0  0  0
   15.9362   -2.7852    0.0000 O   0  0  0  0  0  0  0  0  0  0  0  0
   11.1564   -3.1921    0.0000 C   0  0  0  0  0  0  0  0  0  0  0  0
   10.9346   -4.6756    0.0000 O   0  0  0  0  0  0  0  0  0  0  0  0
   10.2433   -2.0020    0.0000 N   0  0  0  0  0  0  0  0  0  0  0  0
    8.7562   -2.1977    0.0000 C   0  0  0  0  0  0  0  0  0  0  0  0
    9.2071   -3.6283    0.0000 C   0  0  0  0  0  0  0  0  0  0  0  0
   10.6715   -3.9531    0.0000 C   0  0  0  0  0  0  0  0  0  0  0  0
   11.1224   -5.3837    0.0000 C   0  0  0  0  0  0  0  0  0  0  0  0
   12.5363   -5.8846    0.0000 O   0  0  0  0  0  0  0  0  0  0  0  0
   10.1089   -6.4895    0.0000 O   0  0  0  0  0  0  0  0  0  0  0  0
    7.2917   -1.8729    0.0000 C   0  0  0  0  0  0  0  0  0  0  0  0
    6.5760   -3.1911    0.0000 O   0  0  0  0  0  0  0  0  0  0  0  0
    6.8408   -0.4423    0.0000 N   0  0  0  0  0  0  0  0  0  0  0  0
    5.3764   -0.1175    0.0000 C   0  0  0  0  0  0  0  0  0  0  0  0
    5.3108   -1.6160    0.0000 C   0  0  0  0  0  0  0  0  0  0  0  0
    6.5758   -2.4221    0.0000 C   0  0  0  0  0  0  0  0  0  0  0  0
    6.5103   -3.9207    0.0000 C   0  0  0  0  0  0  0  0  0  0  0  0
    8.0403   -2.7469    0.0000 C   0  0  0  0  0  0  0  0  0  0  0  0
    4.1114    0.6886    0.0000 C   0  0  0  0  0  0  0  0  0  0  0  0
    2.9879   -0.3053    0.0000 O   0  0  0  0  0  0  0  0  0  0  0  0
    4.1769    2.1872    0.0000 N   0  0  0  0  0  0  0  0  0  0  0  0
    2.9119    2.9932    0.0000 C   0  0  0  0  0  0  0  0  0  0  0  0
    2.7514    1.5018    0.0000 C   0  0  0  0  0  0  0  0  0  0  0  0
    2.3116    0.0678    0.0000 C   0  0  0  0  0  0  0  0  0  0  0  0
    1.6083   -1.2572    0.0000 C   0  0  0  0  0  0  0  0  0  0  0  0
    0.6670   -2.4250    0.0000 C   0  0  0  0  0  0  0  0  0  0  0  0
   -0.4783   -3.3937    0.0000 C   0  0  0  0  0  0  0  0  0  0  0  0
   -1.7862   -4.1280    0.0000 C   0  0  0  0  0  0  0  0  0  0  0  0
   -3.2095   -4.6016    0.0000 C   0  0  0  0  0  0  0  0  0  0  0  0
    4.1959    3.7687    0.0000 C   0  0  0  0  0  0  0  0  0  0  0  0
    2.7872    4.4880    0.0000 C   0  0  0  0  0  0  0  0  0  0  0  0
    4.2200    4.9322    0.0000 O   0  0  0  0  0  0  0  0  0  0  0  0
    2.3819    5.9322    0.0000 N   0  0  0  0  0  0  0  0  0  0  0  0
    1.7106    7.2736    0.0000 C   0  0  0  0  0  0  0  0  0  0  0  0
    2.3715    8.6202    0.0000 C   0  0  0  0  0  0  0  0  0  0  0  0
    3.8681    8.7211    0.0000 C   0  0  0  0  0  0  0  0  0  0  0  0
    4.5290   10.0677    0.0000 C   0  0  0  0  0  0  0  0  0  0  0  0
    6.0256   10.1686    0.0000 N   0  0  0  0  0  0  0  0  0  0  0  0
    6.6865   11.5152    0.0000 C   0  0  0  0  0  0  0  0  0  0  0  0
    8.1831   11.6161    0.0000 N   0  0  0  0  0  0  0  0  0  0  0  0
    5.8508   12.7608    0.0000 N   0  0  0  0  0  0  0  0  0  0  0  0
    0.7976    8.4637    0.0000 C   0  0  0  0  0  0  0  0  0  0  0  0
    1.7628    9.6120    0.0000 O   0  0  0  0  0  0  0  0  0  0  0  0
   -0.3242    9.4596    0.0000 N   0  0  0  0  0  0  0  0  0  0  0  0
   -1.6141   10.2251    0.0000 C   0  0  0  0  0  0  0  0  0  0  0  0
   -1.7862   11.7152    0.0000 C   0  0  0  0  0  0  0  0  0  0  0  0
   -0.5817   12.6092    0.0000 O   0  0  0  0  0  0  0  0  0  0  0  0
   -3.0256   10.7326    0.0000 C   0  0  0  0  0  0  0  0  0  0  0  0
   -2.8345   12.2204    0.0000 O   0  0  0  0  0  0  0  0  0  0  0  0
   -4.5077   10.9639    0.0000 N   0  0  0  0  0  0  0  0  0  0  0  0
   -6.0068   10.9105    0.0000 C   0  0  0  0  0  0  0  0  0  0  0  0
   -6.9571   12.0710    0.0000 C   0  0  0  0  0  0  0  0  0  0  0  0
   -6.4272   13.4743    0.0000 C   0  0  0  0  0  0  0  0  0  0  0  0
   -4.9470   13.7171    0.0000 C   0  0  0  0  0  0  0  0  0  0  0  0
   -4.4171   15.1203    0.0000 C   0  0  0  0  0  0  0  0  0  0  0  0
   -5.3674   16.2809    0.0000 C   0  0  0  0  0  0  0  0  0  0  0  0
   -6.8477   16.0381    0.0000 C   0  0  0  0  0  0  0  0  0  0  0  0
   -7.3775   14.6349    0.0000 C   0  0  0  0  0  0  0  0  0  0  0  0
   -7.4686   10.5743    0.0000 C   0  0  0  0  0  0  0  0  0  0  0  0
   -8.1122   11.9293    0.0000 O   0  0  0  0  0  0  0  0  0  0  0  0
   -8.8404    9.9676    0.0000 N   0  0  0  0  0  0  0  0  0  0  0  0
  -10.0726    9.1123    0.0000 C   0  0  0  0  0  0  0  0  0  0  0  0
  -11.4996    9.5748    0.0000 C   0  0  0  0  0  0  0  0  0  0  0  0
  -11.8125   11.0418    0.0000 C   0  0  0  0  0  0  0  0  0  0  0  0
  -13.2394   11.5043    0.0000 C   0  0  0  0  0  0  0  0  0  0  0  0
  -13.5523   12.9713    0.0000 N   0  0  0  0  0  0  0  0  0  0  0  0
  -14.9792   13.4338    0.0000 C   0  0  0  0  0  0  0  0  0  0  0  0
  -15.2921   14.9008    0.0000 N   0  0  0  0  0  0  0  0  0  0  0  0
  -16.0932   12.4293    0.0000 N   0  0  0  0  0  0  0  0  0  0  0  0
  -11.1207    8.0391    0.0000 C   0  0  0  0  0  0  0  0  0  0  0  0
  -12.3946    8.8311    0.0000 O   0  0  0  0  0  0  0  0  0  0  0  0
  -11.9467    6.7871    0.0000 N   0  0  0  0  0  0  0  0  0  0  0  0
  -12.5209    5.4013    0.0000 C   0  0  0  0  0  0  0  0  0  0  0  0
  -13.9713    5.0190    0.0000 C   0  0  0  0  0  0  0  0  0  0  0  0
  -12.8224    3.9319    0.0000 C   0  0  0  0  0  0  0  0  0  0  0  0
  -14.3222    3.9094    0.0000 O   0  0  0  0  0  0  0  0  0  0  0  0
  -12.8404    2.4320    0.0000 N   0  0  0  0  0  0  0  0  0  0  0  0
  -12.5742    0.9558    0.0000 C   0  0  0  0  0  0  0  0  0  0  0  0
  -13.5877   -0.1500    0.0000 C   0  0  0  0  0  0  0  0  0  0  0  0
  -15.0521    0.1748    0.0000 C   0  0  0  0  0  0  0  0  0  0  0  0
  -16.0656   -0.9310    0.0000 C   0  0  0  0  0  0  0  0  0  0  0  0
  -16.3171    0.9809    0.0000 C   0  0  0  0  0  0  0  0  0  0  0  0
  -12.0334   -0.4433    0.0000 C   0  0  0  0  0  0  0  0  0  0  0  0
  -13.2830   -1.2731    0.0000 O   0  0  0  0  0  0  0  0  0  0  0  0
  -11.2376   -1.7148    0.0000 N   0  0  0  0  0  0  0  0  0  0  0  0
  -10.2156   -2.8127    0.0000 C   0  0  0  0  0  0  0  0  0  0  0  0
   -9.0043   -3.6974    0.0000 C   0  0  0  0  0  0  0  0  0  0  0  0
   -7.6474   -4.3368    0.0000 C   0  0  0  0  0  0  0  0  0  0  0  0
   -6.1940   -4.7079    0.0000 C   0  0  0  0  0  0  0  0  0  0  0  0
   -4.6967   -4.7973    0.0000 C   0  0  0  0  0  0  0  0  0  0  0  0
  -11.6532   -3.2409    0.0000 C   0  0  0  0  0  0  0  0  0  0  0  0
  -10.4704   -4.2910    0.0000 C   0  0  0  0  0  0  0  0  0  0  0  0
   -9.5840   -5.5011    0.0000 O   0  0  0  0  0  0  0  0  0  0  0  0
  -11.8779   -4.8094    0.0000 N   0  0  0  0  0  0  0  0  0  0  0  0
  -12.1326   -6.2877    0.0000 C   0  0  0  0  0  0  0  0  0  0  0  0
  -11.8664   -7.7638    0.0000 C   0  0  0  0  0  0  0  0  0  0  0  0
  -13.0118   -8.7325    0.0000 C   0  0  0  0  0  0  0  0  0  0  0  0
  -12.7456  -10.2087    0.0000 O   0  0  0  0  0  0  0  0  0  0  0  0
  -14.5041   -8.5816    0.0000 O   0  0  0  0  0  0  0  0  0  0  0  0
  -13.5402   -6.8061    0.0000 C   0  0  0  0  0  0  0  0  0  0  0  0
  -14.6930   -5.8464    0.0000 O   0  0  0  0  0  0  0  0  0  0  0  0
  -13.7949   -8.2844    0.0000 N   0  0  0  0  0  0  0  0  0  0  0  0
  -15.2025   -8.8029    0.0000 C   0  0  0  0  0  0  0  0  0  0  0  0
  -16.7024   -8.8087    0.0000 C   0  0  0  0  0  0  0  0  0  0  0  0
  -17.4474  -10.1106    0.0000 C   0  0  0  0  0  0  0  0  0  0  0  0
  -18.9474  -10.1164    0.0000 C   0  0  0  0  0  0  0  0  0  0  0  0
  -19.8455  -11.3178    0.0000 N   0  0  0  0  0  0  0  0  0  0  0  0
  -19.7024   -8.8203    0.0000 O   0  0  0  0  0  0  0  0  0  0  0  0
  -15.4572  -10.2811    0.0000 C   0  0  0  0  0  0  0  0  0  0  0  0
  -14.3044  -11.2408    0.0000 O   0  0  0  0  0  0  0  0  0  0  0  0
  -16.8647  -10.7996    0.0000 N   0  0  0  0  0  0  0  0  0  0  0  0
  -17.1195  -12.2778    0.0000 C   0  0  0  0  0  0  0  0  0  0  0  0
  -16.8533  -13.7540    0.0000 C   0  0  0  0  0  0  0  0  0  0  0  0
  -17.9986  -14.7226    0.0000 C   0  0  0  0  0  0  0  0  0  0  0  0
  -16.0982  -15.0501    0.0000 C   0  0  0  0  0  0  0  0  0  0  0  0
  -14.5983  -15.0443    0.0000 C   0  0  0  0  0  0  0  0  0  0  0  0
  -18.5270  -12.7963    0.0000 C   0  0  0  0  0  0  0  0  0  0  0  0
  -18.9600  -14.2324    0.0000 O   0  0  0  0  0  0  0  0  0  0  0  0
  -19.7882  -11.9842    0.0000 O   0  0  0  0  0  0  0  0  0  0  0  0
   21.6433   -1.1492    0.0000 H   0  0  0  0  0  0  0  0  0  0  0  0
   21.6298   -5.6417    0.0000 H   0  0  0  0  0  0  0  0  0  0  0  0
   24.1598   -7.2539    0.0000 H   0  0  0  0  0  0  0  0  0  0  0  0
   24.0575   -1.2883    0.0000 H   0  0  0  0  0  0  0  0  0  0  0  0
   31.0768    0.1413    0.0000 H   0  0  0  0  0  0  0  0  0  0  0  0
   31.9339   -4.9837    0.0000 H   0  0  0  0  0  0  0  0  0  0  0  0
   28.9750   -5.4785    0.0000 H   0  0  0  0  0  0  0  0  0  0  0  0
   33.9388   -3.3313    0.0000 H   0  0  0  0  0  0  0  0  0  0  0  0
   24.1081   -3.6584    0.0000 H   0  0  0  0  0  0  0  0  0  0  0  0
   22.1809   -1.1612    0.0000 H   0  0  0  0  0  0  0  0  0  0  0  0
   26.2098    1.9615    0.0000 H   0  0  0  0  0  0  0  0  0  0  0  0
   23.7764    2.8715    0.0000 H   0  0  0  0  0  0  0  0  0  0  0  0
   19.2309   -1.0325    0.0000 H   0  0  0  0  0  0  0  0  0  0  0  0
   18.7478   -4.4137    0.0000 H   0  0  0  0  0  0  0  0  0  0  0  0
   16.9636   -4.4447    0.0000 H   0  0  0  0  0  0  0  0  0  0  0  0
   17.5832   -1.3117    0.0000 H   0  0  0  0  0  0  0  0  0  0  0  0
   15.6567   -1.2274    0.0000 H   0  0  0  0  0  0  0  0  0  0  0  0
   14.0397   -0.8054    0.0000 H   0  0  0  0  0  0  0  0  0  0  0  0
   12.1926   -1.5658    0.0000 H   0  0  0  0  0  0  0  0  0  0  0  0
   14.0075   -5.6172    0.0000 H   0  0  0  0  0  0  0  0  0  0  0  0
   12.3204   -5.0361    0.0000 H   0  0  0  0  0  0  0  0  0  0  0  0
   17.4568   -5.1681    0.0000 H   0  0  0  0  0  0  0  0  0  0  0  0
   15.3827   -6.5668    0.0000 H   0  0  0  0  0  0  0  0  0  0  0  0
   10.8175   -0.6162    0.0000 H   0  0  0  0  0  0  0  0  0  0  0  0
    9.0039   -0.7183    0.0000 H   0  0  0  0  0  0  0  0  0  0  0  0
    9.1415   -5.1268    0.0000 H   0  0  0  0  0  0  0  0  0  0  0  0
    7.8114   -4.1780    0.0000 H   0  0  0  0  0  0  0  0  0  0  0  0
   12.1587   -3.7574    0.0000 H   0  0  0  0  0  0  0  0  0  0  0  0
   11.0977   -2.5149    0.0000 H   0  0  0  0  0  0  0  0  0  0  0  0
   10.5599   -7.9201    0.0000 H   0  0  0  0  0  0  0  0  0  0  0  0
    7.8543    0.6636    0.0000 H   0  0  0  0  0  0  0  0  0  0  0  0
    5.9505    1.2683    0.0000 H   0  0  0  0  0  0  0  0  0  0  0  0
    4.5720   -2.9215    0.0000 H   0  0  0  0  0  0  0  0  0  0  0  0
    3.8464   -1.2912    0.0000 H   0  0  0  0  0  0  0  0  0  0  0  0
    7.4682   -1.2164    0.0000 H   0  0  0  0  0  0  0  0  0  0  0  0
    7.5427   -5.0089    0.0000 H   0  0  0  0  0  0  0  0  0  0  0  0
    5.9361   -5.3064    0.0000 H   0  0  0  0  0  0  0  0  0  0  0  0
    5.0172   -3.7768    0.0000 H   0  0  0  0  0  0  0  0  0  0  0  0
    8.4912   -4.1775    0.0000 H   0  0  0  0  0  0  0  0  0  0  0  0
    9.5306   -2.9169    0.0000 H   0  0  0  0  0  0  0  0  0  0  0  0
    7.9227   -1.2515    0.0000 H   0  0  0  0  0  0  0  0  0  0  0  0
    5.5820    2.7123    0.0000 H   0  0  0  0  0  0  0  0  0  0  0  0
    4.2426    1.6643    0.0000 H   0  0  0  0  0  0  0  0  0  0  0  0
    3.7073    0.3458    0.0000 H   0  0  0  0  0  0  0  0  0  0  0  0
    3.7805   -0.2362    0.0000 H   0  0  0  0  0  0  0  0  0  0  0  0
    3.1864   -1.1507    0.0000 H   0  0  0  0  0  0  0  0  0  0  0  0
    3.1078   -1.2989    0.0000 H   0  0  0  0  0  0  0  0  0  0  0  0
    2.3981   -2.5324    0.0000 H   0  0  0  0  0  0  0  0  0  0  0  0
    2.0809   -2.9259    0.0000 H   0  0  0  0  0  0  0  0  0  0  0  0
    1.2012   -3.8267    0.0000 H   0  0  0  0  0  0  0  0  0  0  0  0
    0.8153   -4.1531    0.0000 H   0  0  0  0  0  0  0  0  0  0  0  0
   -0.2191   -4.8711    0.0000 H   0  0  0  0  0  0  0  0  0  0  0  0
   -0.6597   -5.1185    0.0000 H   0  0  0  0  0  0  0  0  0  0  0  0
   -1.9939   -5.6136    0.0000 H   0  0  0  0  0  0  0  0  0  0  0  0
   -2.8734   -6.0635    0.0000 H   0  0  0  0  0  0  0  0  0  0  0  0
    5.5880    3.2100    0.0000 H   0  0  0  0  0  0  0  0  0  0  0  0
    5.2725    4.8132    0.0000 H   0  0  0  0  0  0  0  0  0  0  0  0
    3.5119    5.1037    0.0000 H   0  0  0  0  0  0  0  0  0  0  0  0
    3.8366    6.2984    0.0000 H   0  0  0  0  0  0  0  0  0  0  0  0
    3.2001    7.0966    0.0000 H   0  0  0  0  0  0  0  0  0  0  0  0
    2.5320   10.1116    0.0000 H   0  0  0  0  0  0  0  0  0  0  0  0
    1.0744    9.3735    0.0000 H   0  0  0  0  0  0  0  0  0  0  0  0
    5.3090    8.3041    0.0000 H   0  0  0  0  0  0  0  0  0  0  0  0
    4.0733    7.2352    0.0000 H   0  0  0  0  0  0  0  0  0  0  0  0
    4.6895   11.5591    0.0000 H   0  0  0  0  0  0  0  0  0  0  0  0
    3.1497   10.6572    0.0000 H   0  0  0  0  0  0  0  0  0  0  0  0
    6.8613    8.9230    0.0000 H   0  0  0  0  0  0  0  0  0  0  0  0
    8.8440   12.9627    0.0000 H   0  0  0  0  0  0  0  0  0  0  0  0
    6.5116   14.1074    0.0000 H   0  0  0  0  0  0  0  0  0  0  0  0
    4.3542   12.6599    0.0000 H   0  0  0  0  0  0  0  0  0  0  0  0
    0.5605   10.6709    0.0000 H   0  0  0  0  0  0  0  0  0  0  0  0
   -0.3554   11.0409    0.0000 H   0  0  0  0  0  0  0  0  0  0  0  0
   -2.2890   13.1284    0.0000 H   0  0  0  0  0  0  0  0  0  0  0  0
   -3.2846   11.6476    0.0000 H   0  0  0  0  0  0  0  0  0  0  0  0
   -0.7538   14.0993    0.0000 H   0  0  0  0  0  0  0  0  0  0  0  0
   -4.2365   12.4392    0.0000 H   0  0  0  0  0  0  0  0  0  0  0  0
   -5.3889   12.2773    0.0000 H   0  0  0  0  0  0  0  0  0  0  0  0
   -8.1441   12.9881    0.0000 H   0  0  0  0  0  0  0  0  0  0  0  0
   -8.1812   11.2040    0.0000 H   0  0  0  0  0  0  0  0  0  0  0  0
   -3.8623   12.6810    0.0000 H   0  0  0  0  0  0  0  0  0  0  0  0
   -2.9369   15.3631    0.0000 H   0  0  0  0  0  0  0  0  0  0  0  0
   -4.8375   17.6842    0.0000 H   0  0  0  0  0  0  0  0  0  0  0  0
   -7.7980   17.1987    0.0000 H   0  0  0  0  0  0  0  0  0  0  0  0
   -8.8578   14.3921    0.0000 H   0  0  0  0  0  0  0  0  0  0  0  0
   -9.4099   11.3553    0.0000 H   0  0  0  0  0  0  0  0  0  0  0  0
  -10.1094   10.6118    0.0000 H   0  0  0  0  0  0  0  0  0  0  0  0
  -12.9986    9.5214    0.0000 H   0  0  0  0  0  0  0  0  0  0  0  0
  -12.0606    8.1836    0.0000 H   0  0  0  0  0  0  0  0  0  0  0  0
  -11.6047   12.5273    0.0000 H   0  0  0  0  0  0  0  0  0  0  0  0
  -10.3709   11.4563    0.0000 H   0  0  0  0  0  0  0  0  0  0  0  0
  -14.7384   11.4509    0.0000 H   0  0  0  0  0  0  0  0  0  0  0  0
  -13.6266   10.0551    0.0000 H   0  0  0  0  0  0  0  0  0  0  0  0
  -12.4383   13.9758    0.0000 H   0  0  0  0  0  0  0  0  0  0  0  0
  -16.7190   15.3633    0.0000 H   0  0  0  0  0  0  0  0  0  0  0  0
  -17.5201   12.8919    0.0000 H   0  0  0  0  0  0  0  0  0  0  0  0
  -15.7803   10.9623    0.0000 H   0  0  0  0  0  0  0  0  0  0  0  0
  -13.2717    7.4903    0.0000 H   0  0  0  0  0  0  0  0  0  0  0  0
  -13.5076    6.5311    0.0000 H   0  0  0  0  0  0  0  0  0  0  0  0
  -15.0277    6.0839    0.0000 H   0  0  0  0  0  0  0  0  0  0  0  0
  -15.2986    4.3202    0.0000 H   0  0  0  0  0  0  0  0  0  0  0  0
  -13.6912    3.5453    0.0000 H   0  0  0  0  0  0  0  0  0  0  0  0
  -14.3392    2.4905    0.0000 H   0  0  0  0  0  0  0  0  0  0  0  0
  -13.9535    1.5454    0.0000 H   0  0  0  0  0  0  0  0  0  0  0  0
  -14.1618   -1.5358    0.0000 H   0  0  0  0  0  0  0  0  0  0  0  0
  -12.5553   -1.2382    0.0000 H   0  0  0  0  0  0  0  0  0  0  0  0
  -14.8303    1.6583    0.0000 H   0  0  0  0  0  0  0  0  0  0  0  0
  -17.5586   -0.7872    0.0000 H   0  0  0  0  0  0  0  0  0  0  0  0
  -16.6397   -2.3168    0.0000 H   0  0  0  0  0  0  0  0  0  0  0  0
  -14.9082   -1.8853    0.0000 H   0  0  0  0  0  0  0  0  0  0  0  0
  -17.7222    0.4557    0.0000 H   0  0  0  0  0  0  0  0  0  0  0  0
  -17.2301    2.1710    0.0000 H   0  0  0  0  0  0  0  0  0  0  0  0
  -15.3036    2.0867    0.0000 H   0  0  0  0  0  0  0  0  0  0  0  0
  -12.5302   -2.4760    0.0000 H   0  0  0  0  0  0  0  0  0  0  0  0
   -8.9747   -5.1971    0.0000 H   0  0  0  0  0  0  0  0  0  0  0  0
  -10.1277   -4.6913    0.0000 H   0  0  0  0  0  0  0  0  0  0  0  0
   -7.5156   -5.8311    0.0000 H   0  0  0  0  0  0  0  0  0  0  0  0
   -8.5625   -5.5254    0.0000 H   0  0  0  0  0  0  0  0  0  0  0  0
   -5.6091   -6.0892    0.0000 H   0  0  0  0  0  0  0  0  0  0  0  0
   -7.0260   -5.9561    0.0000 H   0  0  0  0  0  0  0  0  0  0  0  0
   -4.6433   -6.2963    0.0000 H   0  0  0  0  0  0  0  0  0  0  0  0
  -12.3439   -4.5724    0.0000 H   0  0  0  0  0  0  0  0  0  0  0  0
  -13.1505   -3.1516    0.0000 H   0  0  0  0  0  0  0  0  0  0  0  0
  -12.1807   -1.8367    0.0000 H   0  0  0  0  0  0  0  0  0  0  0  0
  -13.1391   -3.9974    0.0000 H   0  0  0  0  0  0  0  0  0  0  0  0
  -10.6326   -6.2818    0.0000 H   0  0  0  0  0  0  0  0  0  0  0  0
  -11.1114   -9.0600    0.0000 H   0  0  0  0  0  0  0  0  0  0  0  0
  -10.4589   -7.2454    0.0000 H   0  0  0  0  0  0  0  0  0  0  0  0
  -15.6850   -8.9178    0.0000 H   0  0  0  0  0  0  0  0  0  0  0  0
  -12.9086   -9.4945    0.0000 H   0  0  0  0  0  0  0  0  0  0  0  0
  -15.4687   -7.3267    0.0000 H   0  0  0  0  0  0  0  0  0  0  0  0
  -18.1140   -8.3011    0.0000 H   0  0  0  0  0  0  0  0  0  0  0  0
  -16.4477   -7.3305    0.0000 H   0  0  0  0  0  0  0  0  0  0  0  0
  -17.7021  -11.5888    0.0000 H   0  0  0  0  0  0  0  0  0  0  0  0
  -16.4395  -11.2215    0.0000 H   0  0  0  0  0  0  0  0  0  0  0  0
  -21.1923  -11.4242    0.0000 H   0  0  0  0  0  0  0  0  0  0  0  0
  -19.4983  -12.9472    0.0000 H   0  0  0  0  0  0  0  0  0  0  0  0
  -18.2155  -10.1473    0.0000 H   0  0  0  0  0  0  0  0  0  0  0  0
  -15.6195  -12.2719    0.0000 H   0  0  0  0  0  0  0  0  0  0  0  0
  -15.5194  -13.0678    0.0000 H   0  0  0  0  0  0  0  0  0  0  0  0
  -17.9143  -16.2202    0.0000 H   0  0  0  0  0  0  0  0  0  0  0  0
  -19.4061  -15.2411    0.0000 H   0  0  0  0  0  0  0  0  0  0  0  0
  -19.2738  -13.9328    0.0000 H   0  0  0  0  0  0  0  0  0  0  0  0
  -15.8320  -16.5263    0.0000 H   0  0  0  0  0  0  0  0  0  0  0  0
  -17.4321  -15.7363    0.0000 H   0  0  0  0  0  0  0  0  0  0  0  0
  -13.8432  -16.3404    0.0000 H   0  0  0  0  0  0  0  0  0  0  0  0
  -13.1907  -14.5258    0.0000 H   0  0  0  0  0  0  0  0  0  0  0  0
  -14.6825  -13.5466    0.0000 H   0  0  0  0  0  0  0  0  0  0  0  0
  -21.0874  -12.3550    0.0000 H   0  0  0  0  0  0  0  0  0  0  0  0
  1  2  1  0
  2  3  1  0
  3  4  2  0
  4  5  1  0
  5  6  2  0
  6  7  1  0
  7  8  2  0
  7  9  1  0
  9 10  1  0
 10 11  1  0
 11 12  2  0
  9 13  1  0
 13 14  1  0
 14 15  2  0
 15 16  1  0
 16 17  2  0
 17 18  1  0
 16 19  1  0
 14 20  1  0
 20 21  1  0
 21 22  2  0
 22 23  1  0
 23 24  2  0
 24 25  1  0
 25 26  2  0
 25 27  1  0
  1 28  2  0
  1 29  1  0
 29 30  1  0
 30 31  1  0
 31 32  1  0
 32 33  2  0
 32 34  1  0
 34 35  1  0
 35 36  1  0
 36 37  1  0
 37 38  1  0
 37 39  2  0
 35 40  1  0
 40 41  2  0
 40 42  1  0
 42 43  1  0
 43 44  1  0
 44 45  1  0
 45 46  1  0
 46 47  2  0
 46 48  1  0
 43 49  1  0
 49 50  2  0
 49 51  1  0
 51 52  1  0
 52 53  1  0
 53 54  1  0
 54 55  1  0
 54 56  1  0
 52 57  1  0
 57 58  2  0
 57 59  1  0
 60 59  1  6
 60 61  1  0
 61 62  1  0
 62 63  1  0
 63 64  1  0
 64 65  1  0
 65 66  1  0
 66 67  1  0
 60 68  1  0
 60 69  1  0
 69 70  2  0
 69 71  1  0
 71 72  1  0
 72 73  1  0
 73 74  1  0
 74 75  1  0
 75 76  1  0
 76 77  1  0
 77 78  2  3
 77 79  1  0
 72 80  1  0
 80 81  2  0
 80 82  1  0
 82 83  1  0
 83 84  1  0
 84 85  1  0
 83 86  1  0
 86 87  2  0
 86 88  1  0
 88 89  1  0
 89 90  1  0
 90 91  1  0
 91 92  2  0
 92 93  1  0
 93 94  2  0
 94 95  1  0
 95 96  2  0
 89 97  1  0
 97 98  2  0
 97 99  1  0
 99100  1  0
100101  1  0
101102  1  0
102103  1  0
103104  1  0
104105  1  0
105106  2  3
105107  1  0
100108  1  0
108109  2  0
108110  1  0
110111  1  0
111112  1  0
111113  1  0
113114  2  0
113115  1  0
115116  1  0
116117  1  0
117118  1  0
118119  1  0
118120  1  0
116121  1  0
121122  2  0
121123  1  0
123124  1  0
124125  1  0
125126  1  0
126127  1  0
127128  1  0
124129  1  0
124130  1  1
130131  2  0
130132  1  0
132133  1  0
133134  1  0
134135  1  0
135136  2  0
135137  1  0
133138  1  0
138139  2  0
138140  1  0
140141  1  0
141142  1  0
142143  1  0
143144  1  0
144145  1  0
144146  2  0
141147  1  0
147148  2  0
147149  1  0
149150  1  0
150151  1  0
151152  1  0
151153  1  0
153154  1  0
150155  1  0
155156  2  0
155157  1  0
  8  3  1  0
 96 91  1  0
 11  6  1  0
 67128  2  0
 18 13  2  0
 22  9  1  0
 26 21  1  0
  2158  1  0
  4159  1  0
  5160  1  0
  8161  1  0
 15162  1  0
 17163  1  0
 18164  1  0
 19165  1  0
 23166  1  0
 24167  1  0
 26168  1  0
 27169  1  0
 29170  1  0
 30171  1  0
 30172  1  0
 31173  1  0
 31174  1  0
 34175  1  0
 35176  1  1
 36177  1  0
 36178  1  0
 38179  1  0
 38180  1  0
 42181  1  0
 43182  1  1
 44183  1  0
 44184  1  0
 45185  1  0
 45186  1  0
 48187  1  0
 51188  1  0
 52189  1  1
 53190  1  0
 53191  1  0
 54192  1  0
 55193  1  0
 55194  1  0
 55195  1  0
 56196  1  0
 56197  1  0
 56198  1  0
 59199  1  0
 61200  1  0
 61201  1  0
 62202  1  0
 62203  1  0
 63204  1  0
 63205  1  0
 64206  1  0
 64207  1  0
 65208  1  0
 65209  1  0
 66210  1  0
 66211  1  0
 67212  1  0
 68213  1  0
 68214  1  0
 68215  1  0
 71216  1  0
 72217  1  6
 73218  1  0
 73219  1  0
 74220  1  0
 74221  1  0
 75222  1  0
 75223  1  0
 76224  1  0
 78225  1  0
 79226  1  0
 79227  1  0
 82228  1  0
 83229  1  6
 84230  1  0
 84231  1  0
 85232  1  0
 88233  1  0
 89234  1  6
 90235  1  0
 90236  1  0
 92237  1  0
 93238  1  0
 94239  1  0
 95240  1  0
 96241  1  0
 99242  1  0
100243  1  6
101244  1  0
101245  1  0
102246  1  0
102247  1  0
103248  1  0
103249  1  0
104250  1  0
106251  1  0
107252  1  0
107253  1  0
110254  1  0
111255  1  6
112256  1  0
112257  1  0
112258  1  0
115259  1  0
116260  1  6
117261  1  0
117262  1  0
118263  1  0
119264  1  0
119265  1  0
119266  1  0
120267  1  0
120268  1  0
120269  1  0
123270  1  0
125271  1  0
125272  1  0
126273  1  0
126274  1  0
127275  1  0
127276  1  0
128277  1  0
129278  1  0
129279  1  0
129280  1  0
132281  1  0
133282  1  1
134283  1  0
134284  1  0
137285  1  0
140286  1  0
141287  1  6
142288  1  0
142289  1  0
143290  1  0
143291  1  0
145292  1  0
145293  1  0
149294  1  0
150295  1  1
151296  1  1
152297  1  0
152298  1  0
152299  1  0
153300  1  0
153301  1  0
154302  1  0
154303  1  0
154304  1  0
157305  1  0
M  END
