
     RDKit          2D

291298  0  0  0  0  0  0  0  0999 V2000
  -28.0540    2.8770    0.0000 N   0  0  0  0  0  0  0  0  0  0  0  0
  -26.5564    2.9613    0.0000 C   0  0  0  0  0  0  0  0  0  0  0  0
  -25.8807    4.3005    0.0000 C   0  0  0  0  0  0  0  0  0  0  0  0
  -24.3830    4.3849    0.0000 C   0  0  0  0  0  0  0  0  0  0  0  0
  -23.5611    3.1301    0.0000 O   0  0  0  0  0  0  0  0  0  0  0  0
  -23.7073    5.7241    0.0000 N   0  0  0  0  0  0  0  0  0  0  0  0
  -22.2097    5.8085    0.0000 C   0  0  0  0  0  0  0  0  0  0  0  0
  -22.5529    7.2687    0.0000 C   0  0  0  0  0  0  0  0  0  0  0  0
  -20.7735    5.3756    0.0000 C   0  0  0  0  0  0  0  0  0  0  0  0
  -19.8139    6.5284    0.0000 O   0  0  0  0  0  0  0  0  0  0  0  0
  -20.4303    3.9154    0.0000 N   0  0  0  0  0  0  0  0  0  0  0  0
  -18.9942    3.4824    0.0000 C   0  0  0  0  0  0  0  0  0  0  0  0
  -17.7193    4.2728    0.0000 C   0  0  0  0  0  0  0  0  0  0  0  0
  -16.2681    4.6523    0.0000 C   0  0  0  0  0  0  0  0  0  0  0  0
  -14.7695    4.5871    0.0000 C   0  0  0  0  0  0  0  0  0  0  0  0
  -13.3567    4.0832    0.0000 C   0  0  0  0  0  0  0  0  0  0  0  0
  -19.3701    4.9346    0.0000 C   0  0  0  0  0  0  0  0  0  0  0  0
  -19.9795    2.3514    0.0000 C   0  0  0  0  0  0  0  0  0  0  0  0
  -21.3335    2.9969    0.0000 O   0  0  0  0  0  0  0  0  0  0  0  0
  -20.5876    0.9802    0.0000 N   0  0  0  0  0  0  0  0  0  0  0  0
  -20.7645   -0.5093    0.0000 C   0  0  0  0  0  0  0  0  0  0  0  0
  -22.0495    0.2646    0.0000 C   0  0  0  0  0  0  0  0  0  0  0  0
  -23.3622   -0.4612    0.0000 O   0  0  0  0  0  0  0  0  0  0  0  0
  -20.4946   -1.9848    0.0000 C   0  0  0  0  0  0  0  0  0  0  0  0
  -21.9134   -2.4717    0.0000 O   0  0  0  0  0  0  0  0  0  0  0  0
  -19.8017   -3.3152    0.0000 N   0  0  0  0  0  0  0  0  0  0  0  0
  -18.7475   -4.3822    0.0000 C   0  0  0  0  0  0  0  0  0  0  0  0
  -20.1537   -4.9043    0.0000 C   0  0  0  0  0  0  0  0  0  0  0  0
  -20.4047   -6.3832    0.0000 C   0  0  0  0  0  0  0  0  0  0  0  0
  -17.4256   -5.0911    0.0000 C   0  0  0  0  0  0  0  0  0  0  0  0
  -17.9295   -6.5040    0.0000 O   0  0  0  0  0  0  0  0  0  0  0  0
  -15.9534   -5.3789    0.0000 N   0  0  0  0  0  0  0  0  0  0  0  0
  -14.4619   -5.2200    0.0000 C   0  0  0  0  0  0  0  0  0  0  0  0
  -14.9304   -6.6449    0.0000 C   0  0  0  0  0  0  0  0  0  0  0  0
  -13.9307   -7.7632    0.0000 C   0  0  0  0  0  0  0  0  0  0  0  0
  -12.4624   -7.4565    0.0000 C   0  0  0  0  0  0  0  0  0  0  0  0
  -11.4627   -8.5748    0.0000 C   0  0  0  0  0  0  0  0  0  0  0  0
  -11.9312   -9.9997    0.0000 C   0  0  0  0  0  0  0  0  0  0  0  0
  -13.3996  -10.3064    0.0000 C   0  0  0  0  0  0  0  0  0  0  0  0
  -14.3993   -9.1881    0.0000 C   0  0  0  0  0  0  0  0  0  0  0  0
  -13.0834   -4.6285    0.0000 C   0  0  0  0  0  0  0  0  0  0  0  0
  -12.1435   -5.7975    0.0000 O   0  0  0  0  0  0  0  0  0  0  0  0
  -11.9406   -3.6569    0.0000 N   0  0  0  0  0  0  0  0  0  0  0  0
  -11.1349   -2.3917    0.0000 C   0  0  0  0  0  0  0  0  0  0  0  0
  -10.7379   -0.9451    0.0000 C   0  0  0  0  0  0  0  0  0  0  0  0
  -10.7849    0.5541    0.0000 C   0  0  0  0  0  0  0  0  0  0  0  0
  -11.2718    1.9729    0.0000 C   0  0  0  0  0  0  0  0  0  0  0  0
  -12.1552    3.1852    0.0000 C   0  0  0  0  0  0  0  0  0  0  0  0
   -9.6357   -2.3409    0.0000 C   0  0  0  0  0  0  0  0  0  0  0  0
  -10.3130   -3.6464    0.0000 C   0  0  0  0  0  0  0  0  0  0  0  0
  -10.8204   -5.0580    0.0000 O   0  0  0  0  0  0  0  0  0  0  0  0
   -8.8153   -3.5621    0.0000 N   0  0  0  0  0  0  0  0  0  0  0  0
   -7.9934   -4.8168    0.0000 C   0  0  0  0  0  0  0  0  0  0  0  0
   -7.6503   -6.2771    0.0000 C   0  0  0  0  0  0  0  0  0  0  0  0
   -6.2141   -6.7100    0.0000 C   0  0  0  0  0  0  0  0  0  0  0  0
   -5.8709   -8.1702    0.0000 N   0  0  0  0  0  0  0  0  0  0  0  0
   -5.5710   -6.2389    0.0000 O   0  0  0  0  0  0  0  0  0  0  0  0
   -6.4958   -4.7324    0.0000 C   0  0  0  0  0  0  0  0  0  0  0  0
   -5.9810   -5.3411    0.0000 O   0  0  0  0  0  0  0  0  0  0  0  0
   -5.8201   -3.3933    0.0000 N   0  0  0  0  0  0  0  0  0  0  0  0
   -4.3225   -3.3089    0.0000 C   0  0  0  0  0  0  0  0  0  0  0  0
   -2.8863   -3.7418    0.0000 C   0  0  0  0  0  0  0  0  0  0  0  0
   -1.7933   -2.7145    0.0000 C   0  0  0  0  0  0  0  0  0  0  0  0
   -0.3571   -3.1474    0.0000 C   0  0  0  0  0  0  0  0  0  0  0  0
    0.7359   -2.1201    0.0000 C   0  0  0  0  0  0  0  0  0  0  0  0
    0.3927   -0.6599    0.0000 C   0  0  0  0  0  0  0  0  0  0  0  0
    1.7018    0.0724    0.0000 O   0  0  0  0  0  0  0  0  0  0  0  0
   -1.0435   -0.2270    0.0000 C   0  0  0  0  0  0  0  0  0  0  0  0
   -2.1365   -1.2543    0.0000 C   0  0  0  0  0  0  0  0  0  0  0  0
   -3.6467   -1.9697    0.0000 C   0  0  0  0  0  0  0  0  0  0  0  0
   -4.6155   -0.8245    0.0000 O   0  0  0  0  0  0  0  0  0  0  0  0
   -2.1491   -1.8853    0.0000 N   0  0  0  0  0  0  0  0  0  0  0  0
   -1.4734   -0.5461    0.0000 C   0  0  0  0  0  0  0  0  0  0  0  0
   -1.2964    0.9434    0.0000 C   0  0  0  0  0  0  0  0  0  0  0  0
    0.0820    1.5349    0.0000 C   0  0  0  0  0  0  0  0  0  0  0  0
    1.2835    0.6369    0.0000 C   0  0  0  0  0  0  0  0  0  0  0  0
    2.6619    1.2284    0.0000 C   0  0  0  0  0  0  0  0  0  0  0  0
    2.8389    2.7180    0.0000 C   0  0  0  0  0  0  0  0  0  0  0  0
    1.6374    3.6160    0.0000 C   0  0  0  0  0  0  0  0  0  0  0  0
    0.2589    3.0244    0.0000 C   0  0  0  0  0  0  0  0  0  0  0  0
    0.0242   -0.4617    0.0000 C   0  0  0  0  0  0  0  0  0  0  0  0
    0.9930   -1.6070    0.0000 O   0  0  0  0  0  0  0  0  0  0  0  0
    0.7000    0.8774    0.0000 N   0  0  0  0  0  0  0  0  0  0  0  0
    2.1976    0.9618    0.0000 C   0  0  0  0  0  0  0  0  0  0  0  0
    3.6338    0.5289    0.0000 C   0  0  0  0  0  0  0  0  0  0  0  0
    4.7267    1.5562    0.0000 C   0  0  0  0  0  0  0  0  0  0  0  0
    4.5381    3.0443    0.0000 C   0  0  0  0  0  0  0  0  0  0  0  0
    5.8951    3.6836    0.0000 N   0  0  0  0  0  0  0  0  0  0  0  0
    6.9224    2.5906    0.0000 C   0  0  0  0  0  0  0  0  0  0  0  0
    6.2003    1.2758    0.0000 N   0  0  0  0  0  0  0  0  0  0  0  0
    2.8733    2.3010    0.0000 C   0  0  0  0  0  0  0  0  0  0  0  0
    2.3795    3.7174    0.0000 O   0  0  0  0  0  0  0  0  0  0  0  0
    4.3709    2.3854    0.0000 N   0  0  0  0  0  0  0  0  0  0  0  0
    5.0467    3.7246    0.0000 C   0  0  0  0  0  0  0  0  0  0  0  0
    5.2236    5.2141    0.0000 C   0  0  0  0  0  0  0  0  0  0  0  0
    6.1629    6.3836    0.0000 O   0  0  0  0  0  0  0  0  0  0  0  0
    6.5443    3.8090    0.0000 C   0  0  0  0  0  0  0  0  0  0  0  0
    7.6454    2.7904    0.0000 O   0  0  0  0  0  0  0  0  0  0  0  0
    7.2200    5.1482    0.0000 N   0  0  0  0  0  0  0  0  0  0  0  0
    8.7176    5.2325    0.0000 C   0  0  0  0  0  0  0  0  0  0  0  0
   10.1538    4.7996    0.0000 C   0  0  0  0  0  0  0  0  0  0  0  0
   11.4629    5.5319    0.0000 C   0  0  0  0  0  0  0  0  0  0  0  0
    9.3934    6.5717    0.0000 C   0  0  0  0  0  0  0  0  0  0  0  0
    8.5715    7.8265    0.0000 O   0  0  0  0  0  0  0  0  0  0  0  0
   10.8910    6.6561    0.0000 N   0  0  0  0  0  0  0  0  0  0  0  0
   11.7030    7.9173    0.0000 C   0  0  0  0  0  0  0  0  0  0  0  0
   13.1534    7.5348    0.0000 C   0  0  0  0  0  0  0  0  0  0  0  0
   13.2378    6.0372    0.0000 C   0  0  0  0  0  0  0  0  0  0  0  0
   11.8395    5.4941    0.0000 C   0  0  0  0  0  0  0  0  0  0  0  0
   12.5258    4.1603    0.0000 C   0  0  0  0  0  0  0  0  0  0  0  0
   11.5661    3.0075    0.0000 O   0  0  0  0  0  0  0  0  0  0  0  0
   14.0240    4.0877    0.0000 N   0  0  0  0  0  0  0  0  0  0  0  0
   14.7102    2.7539    0.0000 C   0  0  0  0  0  0  0  0  0  0  0  0
   14.8989    1.2658    0.0000 C   0  0  0  0  0  0  0  0  0  0  0  0
   13.7045    0.3583    0.0000 C   0  0  0  0  0  0  0  0  0  0  0  0
   12.3215    0.9390    0.0000 C   0  0  0  0  0  0  0  0  0  0  0  0
   11.1271    0.0316    0.0000 C   0  0  0  0  0  0  0  0  0  0  0  0
   11.3157   -1.4565    0.0000 C   0  0  0  0  0  0  0  0  0  0  0  0
   10.1213   -2.3639    0.0000 O   0  0  0  0  0  0  0  0  0  0  0  0
   12.6988   -2.0372    0.0000 C   0  0  0  0  0  0  0  0  0  0  0  0
   13.8932   -1.1297    0.0000 C   0  0  0  0  0  0  0  0  0  0  0  0
   16.2085    2.6812    0.0000 C   0  0  0  0  0  0  0  0  0  0  0  0
   17.0205    3.9425    0.0000 O   0  0  0  0  0  0  0  0  0  0  0  0
   16.8947    1.3474    0.0000 N   0  0  0  0  0  0  0  0  0  0  0  0
   18.3930    1.2748    0.0000 C   0  0  0  0  0  0  0  0  0  0  0  0
   19.8257    1.7190    0.0000 C   0  0  0  0  0  0  0  0  0  0  0  0
   20.9267    0.7003    0.0000 C   0  0  0  0  0  0  0  0  0  0  0  0
   20.5951   -0.7625    0.0000 C   0  0  0  0  0  0  0  0  0  0  0  0
   21.6961   -1.7812    0.0000 C   0  0  0  0  0  0  0  0  0  0  0  0
   23.1288   -1.3370    0.0000 C   0  0  0  0  0  0  0  0  0  0  0  0
   23.4605    0.1259    0.0000 C   0  0  0  0  0  0  0  0  0  0  0  0
   22.3595    1.1445    0.0000 C   0  0  0  0  0  0  0  0  0  0  0  0
   19.0792   -0.0590    0.0000 C   0  0  0  0  0  0  0  0  0  0  0  0
   18.1195   -1.2118    0.0000 O   0  0  0  0  0  0  0  0  0  0  0  0
   20.5774   -0.1316    0.0000 N   0  0  0  0  0  0  0  0  0  0  0  0
   21.2637   -1.4654    0.0000 C   0  0  0  0  0  0  0  0  0  0  0  0
   21.4523   -2.9535    0.0000 C   0  0  0  0  0  0  0  0  0  0  0  0
   20.2579   -3.8610    0.0000 C   0  0  0  0  0  0  0  0  0  0  0  0
   20.4466   -5.3490    0.0000 C   0  0  0  0  0  0  0  0  0  0  0  0
   19.2522   -6.2565    0.0000 O   0  0  0  0  0  0  0  0  0  0  0  0
   21.8296   -5.9297    0.0000 O   0  0  0  0  0  0  0  0  0  0  0  0
   22.7619   -1.5381    0.0000 C   0  0  0  0  0  0  0  0  0  0  0  0
   23.8550   -0.5108    0.0000 O   0  0  0  0  0  0  0  0  0  0  0  0
   23.4482   -2.8719    0.0000 N   0  0  0  0  0  0  0  0  0  0  0  0
   24.9464   -2.9445    0.0000 C   0  0  0  0  0  0  0  0  0  0  0  0
   26.3791   -2.5003    0.0000 C   0  0  0  0  0  0  0  0  0  0  0  0
   27.4802   -3.5190    0.0000 C   0  0  0  0  0  0  0  0  0  0  0  0
   28.9129   -3.0748    0.0000 C   0  0  0  0  0  0  0  0  0  0  0  0
   28.1664   -4.8528    0.0000 C   0  0  0  0  0  0  0  0  0  0  0  0
   25.6326   -4.2783    0.0000 C   0  0  0  0  0  0  0  0  0  0  0  0
   27.1108   -4.5330    0.0000 O   0  0  0  0  0  0  0  0  0  0  0  0
   24.8206   -5.5395    0.0000 O   0  0  0  0  0  0  0  0  0  0  0  0
  -28.7297    1.5378    0.0000 H   0  0  0  0  0  0  0  0  0  0  0  0
  -28.8759    4.1317    0.0000 H   0  0  0  0  0  0  0  0  0  0  0  0
  -26.7333    1.4718    0.0000 H   0  0  0  0  0  0  0  0  0  0  0  0
  -25.1202    2.5284    0.0000 H   0  0  0  0  0  0  0  0  0  0  0  0
  -27.3168    4.7334    0.0000 H   0  0  0  0  0  0  0  0  0  0  0  0
  -25.7037    5.7901    0.0000 H   0  0  0  0  0  0  0  0  0  0  0  0
  -24.6760    6.8693    0.0000 H   0  0  0  0  0  0  0  0  0  0  0  0
  -22.3866    4.3190    0.0000 H   0  0  0  0  0  0  0  0  0  0  0  0
  -23.9255    7.8735    0.0000 H   0  0  0  0  0  0  0  0  0  0  0  0
  -22.3759    8.7582    0.0000 H   0  0  0  0  0  0  0  0  0  0  0  0
  -21.0552    7.3531    0.0000 H   0  0  0  0  0  0  0  0  0  0  0  0
  -21.6404    3.0289    0.0000 H   0  0  0  0  0  0  0  0  0  0  0  0
  -17.4683    5.7517    0.0000 H   0  0  0  0  0  0  0  0  0  0  0  0
  -18.8527    5.2553    0.0000 H   0  0  0  0  0  0  0  0  0  0  0  0
  -15.7606    6.0638    0.0000 H   0  0  0  0  0  0  0  0  0  0  0  0
  -17.0616    5.9252    0.0000 H   0  0  0  0  0  0  0  0  0  0  0  0
  -13.7291    5.6676    0.0000 H   0  0  0  0  0  0  0  0  0  0  0  0
  -15.1525    6.0374    0.0000 H   0  0  0  0  0  0  0  0  0  0  0  0
  -12.6478    5.4051    0.0000 H   0  0  0  0  0  0  0  0  0  0  0  0
  -20.3930    5.8171    0.0000 H   0  0  0  0  0  0  0  0  0  0  0  0
  -18.6868    6.3614    0.0000 H   0  0  0  0  0  0  0  0  0  0  0  0
  -17.7924    5.5080    0.0000 H   0  0  0  0  0  0  0  0  0  0  0  0
  -22.0341    1.3772    0.0000 H   0  0  0  0  0  0  0  0  0  0  0  0
  -21.9984   -1.3622    0.0000 H   0  0  0  0  0  0  0  0  0  0  0  0
  -22.9922    1.4313    0.0000 H   0  0  0  0  0  0  0  0  0  0  0  0
  -21.3672    1.6004    0.0000 H   0  0  0  0  0  0  0  0  0  0  0  0
  -24.6471    0.3127    0.0000 H   0  0  0  0  0  0  0  0  0  0  0  0
  -21.0140   -4.1986    0.0000 H   0  0  0  0  0  0  0  0  0  0  0  0
  -18.6668   -5.8801    0.0000 H   0  0  0  0  0  0  0  0  0  0  0  0
  -21.6537   -4.9140    0.0000 H   0  0  0  0  0  0  0  0  0  0  0  0
  -20.7727   -3.5380    0.0000 H   0  0  0  0  0  0  0  0  0  0  0  0
  -21.8109   -6.9053    0.0000 H   0  0  0  0  0  0  0  0  0  0  0  0
  -20.1347   -7.8587    0.0000 H   0  0  0  0  0  0  0  0  0  0  0  0
  -18.9147   -6.5564    0.0000 H   0  0  0  0  0  0  0  0  0  0  0  0
  -16.0186   -6.8775    0.0000 H   0  0  0  0  0  0  0  0  0  0  0  0
  -13.3557   -6.2331    0.0000 H   0  0  0  0  0  0  0  0  0  0  0  0
  -15.8581   -7.8236    0.0000 H   0  0  0  0  0  0  0  0  0  0  0  0
  -16.3846   -6.2769    0.0000 H   0  0  0  0  0  0  0  0  0  0  0  0
  -11.8236   -6.0993    0.0000 H   0  0  0  0  0  0  0  0  0  0  0  0
   -9.9943   -8.2681    0.0000 H   0  0  0  0  0  0  0  0  0  0  0  0
  -10.9315  -11.1180    0.0000 H   0  0  0  0  0  0  0  0  0  0  0  0
  -13.8681  -11.7313    0.0000 H   0  0  0  0  0  0  0  0  0  0  0  0
  -15.8676   -9.4948    0.0000 H   0  0  0  0  0  0  0  0  0  0  0  0
  -10.9381   -4.7727    0.0000 H   0  0  0  0  0  0  0  0  0  0  0  0
   -9.4746   -1.7540    0.0000 H   0  0  0  0  0  0  0  0  0  0  0  0
   -9.3906   -0.2857    0.0000 H   0  0  0  0  0  0  0  0  0  0  0  0
   -9.3394    0.1536    0.0000 H   0  0  0  0  0  0  0  0  0  0  0  0
   -9.5748    1.4405    0.0000 H   0  0  0  0  0  0  0  0  0  0  0  0
   -9.7724    2.0162    0.0000 H   0  0  0  0  0  0  0  0  0  0  0  0
  -10.5301    3.2767    0.0000 H   0  0  0  0  0  0  0  0  0  0  0  0
  -11.0881    4.2394    0.0000 H   0  0  0  0  0  0  0  0  0  0  0  0
   -8.4996   -3.0721    0.0000 H   0  0  0  0  0  0  0  0  0  0  0  0
   -8.4608   -1.2816    0.0000 H   0  0  0  0  0  0  0  0  0  0  0  0
   -9.5325   -0.6654    0.0000 H   0  0  0  0  0  0  0  0  0  0  0  0
   -7.9814   -2.3152    0.0000 H   0  0  0  0  0  0  0  0  0  0  0  0
   -9.3719   -5.4084    0.0000 H   0  0  0  0  0  0  0  0  0  0  0  0
   -7.8272   -7.7666    0.0000 H   0  0  0  0  0  0  0  0  0  0  0  0
   -9.1479   -6.3614    0.0000 H   0  0  0  0  0  0  0  0  0  0  0  0
   -4.4348   -8.6031    0.0000 H   0  0  0  0  0  0  0  0  0  0  0  0
   -6.9639   -9.1975    0.0000 H   0  0  0  0  0  0  0  0  0  0  0  0
   -6.6420   -2.1385    0.0000 H   0  0  0  0  0  0  0  0  0  0  0  0
   -4.4994   -4.7984    0.0000 H   0  0  0  0  0  0  0  0  0  0  0  0
   -1.6848   -4.6398    0.0000 H   0  0  0  0  0  0  0  0  0  0  0  0
   -3.5620   -5.0810    0.0000 H   0  0  0  0  0  0  0  0  0  0  0  0
   -0.0140   -4.6076    0.0000 H   0  0  0  0  0  0  0  0  0  0  0  0
    2.1720   -2.5530    0.0000 H   0  0  0  0  0  0  0  0  0  0  0  0
    1.1425    1.8276    0.0000 H   0  0  0  0  0  0  0  0  0  0  0  0
   -1.0231    1.2729    0.0000 H   0  0  0  0  0  0  0  0  0  0  0  0
   -3.5092   -0.6495    0.0000 H   0  0  0  0  0  0  0  0  0  0  0  0
   -1.0480   -2.9039    0.0000 H   0  0  0  0  0  0  0  0  0  0  0  0
   -2.9096   -0.1132    0.0000 H   0  0  0  0  0  0  0  0  0  0  0  0
   -1.6396    2.4036    0.0000 H   0  0  0  0  0  0  0  0  0  0  0  0
   -2.7941    0.8590    0.0000 H   0  0  0  0  0  0  0  0  0  0  0  0
    1.6522   -0.8171    0.0000 H   0  0  0  0  0  0  0  0  0  0  0  0
    4.0450    0.6478    0.0000 H   0  0  0  0  0  0  0  0  0  0  0  0
    4.0332    3.6255    0.0000 H   0  0  0  0  0  0  0  0  0  0  0  0
    1.8143    5.1055    0.0000 H   0  0  0  0  0  0  0  0  0  0  0  0
   -0.9425    3.9225    0.0000 H   0  0  0  0  0  0  0  0  0  0  0  0
    0.2061    2.2938    0.0000 H   0  0  0  0  0  0  0  0  0  0  0  0
    2.0206   -0.5277    0.0000 H   0  0  0  0  0  0  0  0  0  0  0  0
    4.8352   -0.3691    0.0000 H   0  0  0  0  0  0  0  0  0  0  0  0
    2.9580   -0.8103    0.0000 H   0  0  0  0  0  0  0  0  0  0  0  0
    3.1451    3.6007    0.0000 H   0  0  0  0  0  0  0  0  0  0  0  0
    6.3530    5.1120    0.0000 H   0  0  0  0  0  0  0  0  0  0  0  0
    8.4104    2.7792    0.0000 H   0  0  0  0  0  0  0  0  0  0  0  0
    5.4720    1.3668    0.0000 H   0  0  0  0  0  0  0  0  0  0  0  0
    3.6740    4.3293    0.0000 H   0  0  0  0  0  0  0  0  0  0  0  0
    4.8804    6.6743    0.0000 H   0  0  0  0  0  0  0  0  0  0  0  0
    3.7260    5.1297    0.0000 H   0  0  0  0  0  0  0  0  0  0  0  0
    6.7790    7.2952    0.0000 H   0  0  0  0  0  0  0  0  0  0  0  0
    6.5572    6.4938    0.0000 H   0  0  0  0  0  0  0  0  0  0  0  0
    8.5407    3.7430    0.0000 H   0  0  0  0  0  0  0  0  0  0  0  0
   11.3553    3.9016    0.0000 H   0  0  0  0  0  0  0  0  0  0  0  0
    9.4781    3.4605    0.0000 H   0  0  0  0  0  0  0  0  0  0  0  0
   12.6830    5.3940    0.0000 H   0  0  0  0  0  0  0  0  0  0  0  0
   12.3043    7.0063    0.0000 H   0  0  0  0  0  0  0  0  0  0  0  0
   10.7715    7.2509    0.0000 H   0  0  0  0  0  0  0  0  0  0  0  0
   10.3638    8.5931    0.0000 H   0  0  0  0  0  0  0  0  0  0  0  0
   12.2350    9.3198    0.0000 H   0  0  0  0  0  0  0  0  0  0  0  0
   13.3822    9.0172    0.0000 H   0  0  0  0  0  0  0  0  0  0  0  0
   14.6516    7.4622    0.0000 H   0  0  0  0  0  0  0  0  0  0  0  0
   14.7184    6.2776    0.0000 H   0  0  0  0  0  0  0  0  0  0  0  0
   13.9702    4.7282    0.0000 H   0  0  0  0  0  0  0  0  0  0  0  0
   10.8209    4.3930    0.0000 H   0  0  0  0  0  0  0  0  0  0  0  0
   14.8360    5.3489    0.0000 H   0  0  0  0  0  0  0  0  0  0  0  0
   13.2775    2.3097    0.0000 H   0  0  0  0  0  0  0  0  0  0  0  0
   15.4174   -0.1418    0.0000 H   0  0  0  0  0  0  0  0  0  0  0  0
   16.3965    1.3501    0.0000 H   0  0  0  0  0  0  0  0  0  0  0  0
   11.9528    2.3930    0.0000 H   0  0  0  0  0  0  0  0  0  0  0  0
    9.7440    0.6122    0.0000 H   0  0  0  0  0  0  0  0  0  0  0  0
   10.3100   -3.8520    0.0000 H   0  0  0  0  0  0  0  0  0  0  0  0
   12.8874   -3.5253    0.0000 H   0  0  0  0  0  0  0  0  0  0  0  0
   15.2762   -1.7104    0.0000 H   0  0  0  0  0  0  0  0  0  0  0  0
   16.2425   -0.0034    0.0000 H   0  0  0  0  0  0  0  0  0  0  0  0
   18.2043    2.7629    0.0000 H   0  0  0  0  0  0  0  0  0  0  0  0
   21.0201    2.6264    0.0000 H   0  0  0  0  0  0  0  0  0  0  0  0
   19.1395    3.0528    0.0000 H   0  0  0  0  0  0  0  0  0  0  0  0
   19.2272   -1.3781    0.0000 H   0  0  0  0  0  0  0  0  0  0  0  0
   21.7283   -3.2809    0.0000 H   0  0  0  0  0  0  0  0  0  0  0  0
   24.2299   -2.3557    0.0000 H   0  0  0  0  0  0  0  0  0  0  0  0
   24.8932    0.5700    0.0000 H   0  0  0  0  0  0  0  0  0  0  0  0
   22.6911    2.6074    0.0000 H   0  0  0  0  0  0  0  0  0  0  0  0
   21.6705    0.8956    0.0000 H   0  0  0  0  0  0  0  0  0  0  0  0
   19.7875   -1.7317    0.0000 H   0  0  0  0  0  0  0  0  0  0  0  0
   21.9709   -4.3611    0.0000 H   0  0  0  0  0  0  0  0  0  0  0  0
   22.9500   -2.8692    0.0000 H   0  0  0  0  0  0  0  0  0  0  0  0
   18.8252   -4.3052    0.0000 H   0  0  0  0  0  0  0  0  0  0  0  0
   19.4142   -2.6207    0.0000 H   0  0  0  0  0  0  0  0  0  0  0  0
   22.7959   -4.2227    0.0000 H   0  0  0  0  0  0  0  0  0  0  0  0
   24.7577   -1.4564    0.0000 H   0  0  0  0  0  0  0  0  0  0  0  0
   27.4540   -1.4540    0.0000 H   0  0  0  0  0  0  0  0  0  0  0  0
   25.6929   -1.1665    0.0000 H   0  0  0  0  0  0  0  0  0  0  0  0
   26.6904   -4.7942    0.0000 H   0  0  0  0  0  0  0  0  0  0  0  0
   30.1299   -3.9516    0.0000 H   0  0  0  0  0  0  0  0  0  0  0  0
   30.1073   -2.1674    0.0000 H   0  0  0  0  0  0  0  0  0  0  0  0
   28.3944   -1.6673    0.0000 H   0  0  0  0  0  0  0  0  0  0  0  0
   29.6446   -5.1075    0.0000 H   0  0  0  0  0  0  0  0  0  0  0  0
   28.3551   -6.3409    0.0000 H   0  0  0  0  0  0  0  0  0  0  0  0
   26.7337   -5.2970    0.0000 H   0  0  0  0  0  0  0  0  0  0  0  0
  1  2  1  0
  2  3  1  0
  3  4  1  0
  4  5  2  0
  4  6  1  0
  6  7  1  0
  7  8  1  0
  7  9  1  0
  9 10  2  0
  9 11  1  0
 12 11  1  1
 12 13  1  0
 13 14  1  0
 14 15  1  0
 15 16  1  0
 12 17  1  0
 12 18  1  0
 18 19  2  0
 18 20  1  0
 20 21  1  0
 21 22  1  0
 22 23  1  0
 21 24  1  0
 24 25  2  0
 24 26  1  0
 26 27  1  0
 27 28  1  0
 28 29  1  0
 27 30  1  0
 30 31  2  0
 30 32  1  0
 32 33  1  0
 33 34  1  0
 34 35  1  0
 35 36  2  0
 36 37  1  0
 37 38  2  0
 38 39  1  0
 39 40  2  0
 33 41  1  0
 41 42  2  0
 41 43  1  0
 43 44  1  0
 44 45  1  0
 45 46  1  0
 46 47  1  0
 47 48  1  0
 44 49  1  0
 44 50  1  1
 50 51  2  0
 50 52  1  0
 52 53  1  0
 53 54  1  0
 54 55  1  0
 55 56  1  0
 55 57  2  0
 53 58  1  0
 58 59  2  0
 58 60  1  0
 60 61  1  0
 61 62  1  0
 62 63  1  0
 63 64  2  0
 64 65  1  0
 65 66  2  0
 66 67  1  0
 66 68  1  0
 68 69  2  0
 61 70  1  0
 70 71  2  0
 70 72  1  0
 72 73  1  0
 73 74  1  0
 74 75  1  0
 75 76  2  0
 76 77  1  0
 77 78  2  0
 78 79  1  0
 79 80  2  0
 73 81  1  0
 81 82  2  0
 81 83  1  0
 83 84  1  0
 84 85  1  0
 85 86  1  0
 86 87  2  0
 87 88  1  0
 88 89  1  0
 89 90  2  0
 84 91  1  0
 91 92  2  0
 91 93  1  0
 93 94  1  0
 94 95  1  0
 95 96  1  0
 94 97  1  0
 97 98  2  0
 97 99  1  0
 99100  1  0
100101  1  0
101102  1  0
100103  1  0
103104  2  0
103105  1  0
105106  1  0
106107  1  0
107108  1  0
108109  1  0
109110  1  0
110111  2  0
110112  1  0
112113  1  0
113114  1  0
114115  1  0
115116  2  0
116117  1  0
117118  2  0
118119  1  0
118120  1  0
120121  2  0
113122  1  0
122123  2  0
122124  1  0
124125  1  0
125126  1  0
126127  1  0
127128  2  0
128129  1  0
129130  2  0
130131  1  0
131132  2  0
125133  1  0
133134  2  0
133135  1  0
135136  1  0
136137  1  0
137138  1  0
138139  1  0
139140  2  0
139141  1  0
136142  1  0
142143  2  0
142144  1  0
144145  1  0
145146  1  0
146147  1  0
147148  1  0
147149  1  0
145150  1  0
150151  2  0
150152  1  0
 40 35  1  0
 69 63  1  0
 80 75  1  0
 90 86  1  0
109105  1  0
121115  1  0
132127  1  0
 16 48  2  0
  1153  1  0
  1154  1  0
  2155  1  0
  2156  1  0
  3157  1  0
  3158  1  0
  6159  1  0
  7160  1  1
  8161  1  0
  8162  1  0
  8163  1  0
 11164  1  0
 13165  1  0
 13166  1  0
 14167  1  0
 14168  1  0
 15169  1  0
 15170  1  0
 16171  1  0
 17172  1  0
 17173  1  0
 17174  1  0
 20175  1  0
 21176  1  6
 22177  1  0
 22178  1  0
 23179  1  0
 26180  1  0
 27181  1  6
 28182  1  0
 28183  1  0
 29184  1  0
 29185  1  0
 29186  1  0
 32187  1  0
 33188  1  6
 34189  1  0
 34190  1  0
 36191  1  0
 37192  1  0
 38193  1  0
 39194  1  0
 40195  1  0
 43196  1  0
 45197  1  0
 45198  1  0
 46199  1  0
 46200  1  0
 47201  1  0
 47202  1  0
 48203  1  0
 49204  1  0
 49205  1  0
 49206  1  0
 52207  1  0
 53208  1  6
 54209  1  0
 54210  1  0
 56211  1  0
 56212  1  0
 60213  1  0
 61214  1  6
 62215  1  0
 62216  1  0
 64217  1  0
 65218  1  0
 67219  1  0
 68220  1  0
 69221  1  0
 72222  1  0
 73223  1  1
 74224  1  0
 74225  1  0
 76226  1  0
 77227  1  0
 78228  1  0
 79229  1  0
 80230  1  0
 83231  1  0
 84232  1  6
 85233  1  0
 85234  1  0
 87235  1  0
 88236  1  0
 89237  1  0
 93238  1  0
 94239  1  1
 95240  1  0
 95241  1  0
 96242  1  0
 99243  1  0
100244  1  6
101245  1  0
101246  1  0
102247  1  0
102248  1  0
102249  1  0
106250  1  0
106251  1  0
107252  1  0
107253  1  0
108254  1  0
108255  1  0
109256  1  0
112257  1  0
113258  1  6
114259  1  0
114260  1  0
116261  1  0
117262  1  0
119263  1  0
120264  1  0
121265  1  0
124266  1  0
125267  1  1
126268  1  0
126269  1  0
128270  1  0
129271  1  0
130272  1  0
131273  1  0
132274  1  0
135275  1  0
136276  1  6
137277  1  0
137278  1  0
138279  1  0
138280  1  0
144281  1  0
145282  1  1
146283  1  0
146284  1  0
147285  1  0
148286  1  0
148287  1  0
148288  1  0
149289  1  0
149290  1  0
149291  1  0
M  CHG  2 141  -1 152  -1
M  END
