
     RDKit          2D

351359  0  0  0  0  0  0  0  0999 V2000
  -28.8202   -0.1649    0.0000 C   0  0  0  0  0  0  0  0  0  0  0  0
  -30.0666   -0.9994    0.0000 N   0  0  0  0  0  0  0  0  0  0  0  0
  -31.4125   -0.3371    0.0000 C   0  0  0  0  0  0  0  0  0  0  0  0
  -31.5119    1.1596    0.0000 C   0  0  0  0  0  0  0  0  0  0  0  0
  -32.8578    1.8218    0.0000 C   0  0  0  0  0  0  0  0  0  0  0  0
  -34.1043    0.9874    0.0000 C   0  0  0  0  0  0  0  0  0  0  0  0
  -34.0049   -0.5093    0.0000 C   0  0  0  0  0  0  0  0  0  0  0  0
  -32.6590   -1.1716    0.0000 C   0  0  0  0  0  0  0  0  0  0  0  0
  -35.3976   -1.0663    0.0000 C   0  0  0  0  0  0  0  0  0  0  0  0
  -36.3578    0.0861    0.0000 O   0  0  0  0  0  0  0  0  0  0  0  0
  -35.5585    1.3554    0.0000 C   0  0  0  0  0  0  0  0  0  0  0  0
  -36.1155    2.7481    0.0000 O   0  0  0  0  0  0  0  0  0  0  0  0
  -36.8409   -1.4748    0.0000 C   0  0  0  0  0  0  0  0  0  0  0  0
  -37.2089   -2.9289    0.0000 C   0  0  0  0  0  0  0  0  0  0  0  0
  -38.6522   -3.3373    0.0000 C   0  0  0  0  0  0  0  0  0  0  0  0
  -39.7276   -2.2916    0.0000 C   0  0  0  0  0  0  0  0  0  0  0  0
  -39.3596   -0.8374    0.0000 C   0  0  0  0  0  0  0  0  0  0  0  0
  -37.9163   -0.4290    0.0000 C   0  0  0  0  0  0  0  0  0  0  0  0
  -41.1709   -2.7000    0.0000 O   0  0  0  0  0  0  0  0  0  0  0  0
  -36.1336   -3.9747    0.0000 O   0  0  0  0  0  0  0  0  0  0  0  0
  -34.6902   -3.5663    0.0000 C   0  0  0  0  0  0  0  0  0  0  0  0
  -34.3223   -2.1121    0.0000 C   0  0  0  0  0  0  0  0  0  0  0  0
  -33.0506   -2.3823    0.0000 C   0  0  0  0  0  0  0  0  0  0  0  0
  -32.4771   -2.9400    0.0000 C   0  0  0  0  0  0  0  0  0  0  0  0
  -32.6734   -3.7156    0.0000 C   0  0  0  0  0  0  0  0  0  0  0  0
  -33.4431   -3.9334    0.0000 C   0  0  0  0  0  0  0  0  0  0  0  0
  -31.0962   -5.2493    0.0000 O   0  0  0  0  0  0  0  0  0  0  0  0
  -28.9196    1.3318    0.0000 S   0  0  0  0  0  0  0  0  0  0  0  0
  -27.4743   -0.8272    0.0000 N   0  0  0  0  0  0  0  0  0  0  0  0
  -26.2278    0.0072    0.0000 C   0  0  0  0  0  0  0  0  0  0  0  0
  -24.8819   -0.6550    0.0000 C   0  0  0  0  0  0  0  0  0  0  0  0
  -23.6354    0.1794    0.0000 C   0  0  0  0  0  0  0  0  0  0  0  0
  -23.7348    1.6761    0.0000 O   0  0  0  0  0  0  0  0  0  0  0  0
  -22.2895   -0.4829    0.0000 N   0  0  0  0  0  0  0  0  0  0  0  0
  -21.0431    0.3516    0.0000 C   0  0  0  0  0  0  0  0  0  0  0  0
  -20.1572    1.5620    0.0000 C   0  0  0  0  0  0  0  0  0  0  0  0
  -18.6659    1.4000    0.0000 C   0  0  0  0  0  0  0  0  0  0  0  0
  -17.7800    2.6105    0.0000 C   0  0  0  0  0  0  0  0  0  0  0  0
  -16.5651    2.6275    0.0000 O   0  0  0  0  0  0  0  0  0  0  0  0
  -18.3853    3.9829    0.0000 O   0  0  0  0  0  0  0  0  0  0  0  0
  -19.6972   -0.3107    0.0000 C   0  0  0  0  0  0  0  0  0  0  0  0
  -19.5978   -1.8074    0.0000 O   0  0  0  0  0  0  0  0  0  0  0  0
  -18.4507    0.5238    0.0000 N   0  0  0  0  0  0  0  0  0  0  0  0
  -17.1048   -0.1385    0.0000 C   0  0  0  0  0  0  0  0  0  0  0  0
  -16.0666   -1.2211    0.0000 C   0  0  0  0  0  0  0  0  0  0  0  0
  -16.4851   -2.6616    0.0000 C   0  0  0  0  0  0  0  0  0  0  0  0
  -15.4469   -3.7442    0.0000 C   0  0  0  0  0  0  0  0  0  0  0  0
  -15.8654   -5.1847    0.0000 N   0  0  0  0  0  0  0  0  0  0  0  0
  -14.8272   -6.2673    0.0000 C   0  0  0  0  0  0  0  0  0  0  0  0
  -15.2457   -7.7077    0.0000 N   0  0  0  0  0  0  0  0  0  0  0  0
  -13.3705   -5.9095    0.0000 N   0  0  0  0  0  0  0  0  0  0  0  0
  -15.8583    0.6959    0.0000 C   0  0  0  0  0  0  0  0  0  0  0  0
  -15.7905    1.9090    0.0000 O   0  0  0  0  0  0  0  0  0  0  0  0
  -14.5125    0.0337    0.0000 N   0  0  0  0  0  0  0  0  0  0  0  0
  -13.2660    0.8681    0.0000 C   0  0  0  0  0  0  0  0  0  0  0  0
  -12.3801    2.0786    0.0000 C   0  0  0  0  0  0  0  0  0  0  0  0
  -10.8888    1.9166    0.0000 C   0  0  0  0  0  0  0  0  0  0  0  0
  -10.0029    3.1270    0.0000 C   0  0  0  0  0  0  0  0  0  0  0  0
   -9.5429    1.2543    0.0000 C   0  0  0  0  0  0  0  0  0  0  0  0
  -11.9201    0.2059    0.0000 C   0  0  0  0  0  0  0  0  0  0  0  0
  -11.8207   -1.2908    0.0000 O   0  0  0  0  0  0  0  0  0  0  0  0
  -10.6736    1.0403    0.0000 N   0  0  0  0  0  0  0  0  0  0  0  0
   -9.3277    0.3780    0.0000 C   0  0  0  0  0  0  0  0  0  0  0  0
   -8.2895   -0.7046    0.0000 C   0  0  0  0  0  0  0  0  0  0  0  0
   -8.7080   -2.1451    0.0000 C   0  0  0  0  0  0  0  0  0  0  0  0
   -7.6698   -3.2277    0.0000 C   0  0  0  0  0  0  0  0  0  0  0  0
   -8.0883   -4.6681    0.0000 N   0  0  0  0  0  0  0  0  0  0  0  0
   -7.0501   -5.7508    0.0000 C   0  0  0  0  0  0  0  0  0  0  0  0
   -7.4686   -7.1912    0.0000 N   0  0  0  0  0  0  0  0  0  0  0  0
   -5.5934   -5.3930    0.0000 N   0  0  0  0  0  0  0  0  0  0  0  0
   -8.0812    1.2125    0.0000 C   0  0  0  0  0  0  0  0  0  0  0  0
   -7.9975    2.7101    0.0000 O   0  0  0  0  0  0  0  0  0  0  0  0
   -6.7354    0.5502    0.0000 N   0  0  0  0  0  0  0  0  0  0  0  0
   -5.4889    1.3846    0.0000 C   0  0  0  0  0  0  0  0  0  0  0  0
   -4.6030    2.5951    0.0000 C   0  0  0  0  0  0  0  0  0  0  0  0
   -3.1117    2.4331    0.0000 C   0  0  0  0  0  0  0  0  0  0  0  0
   -2.2258    3.6435    0.0000 C   0  0  0  0  0  0  0  0  0  0  0  0
   -0.7346    3.4815    0.0000 N   0  0  0  0  0  0  0  0  0  0  0  0
    0.1513    4.6920    0.0000 C   0  0  0  0  0  0  0  0  0  0  0  0
    1.6117    4.3494    0.0000 N   0  0  0  0  0  0  0  0  0  0  0  0
   -0.4540    6.0644    0.0000 N   0  0  0  0  0  0  0  0  0  0  0  0
   -4.1430    0.7224    0.0000 C   0  0  0  0  0  0  0  0  0  0  0  0
   -4.0436   -0.7743    0.0000 O   0  0  0  0  0  0  0  0  0  0  0  0
   -2.8965    1.5568    0.0000 N   0  0  0  0  0  0  0  0  0  0  0  0
   -1.5506    0.8946    0.0000 C   0  0  0  0  0  0  0  0  0  0  0  0
   -0.5124   -0.1881    0.0000 C   0  0  0  0  0  0  0  0  0  0  0  0
   -0.9309   -1.6285    0.0000 C   0  0  0  0  0  0  0  0  0  0  0  0
    0.1073   -2.7112    0.0000 C   0  0  0  0  0  0  0  0  0  0  0  0
   -0.3112   -4.1516    0.0000 N   0  0  0  0  0  0  0  0  0  0  0  0
    0.7270   -5.2343    0.0000 C   0  0  0  0  0  0  0  0  0  0  0  0
    0.3085   -6.6747    0.0000 N   0  0  0  0  0  0  0  0  0  0  0  0
    2.1837   -4.8765    0.0000 N   0  0  0  0  0  0  0  0  0  0  0  0
   -0.3041    1.7290    0.0000 C   0  0  0  0  0  0  0  0  0  0  0  0
   -0.1104    2.8052    0.0000 O   0  0  0  0  0  0  0  0  0  0  0  0
    1.0417    1.0667    0.0000 N   0  0  0  0  0  0  0  0  0  0  0  0
    2.2882    1.9012    0.0000 C   0  0  0  0  0  0  0  0  0  0  0  0
    3.1741    3.1116    0.0000 C   0  0  0  0  0  0  0  0  0  0  0  0
    4.6654    2.9496    0.0000 C   0  0  0  0  0  0  0  0  0  0  0  0
    5.2707    1.5772    0.0000 C   0  0  0  0  0  0  0  0  0  0  0  0
    6.7619    1.4152    0.0000 C   0  0  0  0  0  0  0  0  0  0  0  0
    7.6478    2.6256    0.0000 C   0  0  0  0  0  0  0  0  0  0  0  0
    7.0425    3.9980    0.0000 C   0  0  0  0  0  0  0  0  0  0  0  0
    5.5513    4.1600    0.0000 C   0  0  0  0  0  0  0  0  0  0  0  0
    3.6341    1.2389    0.0000 C   0  0  0  0  0  0  0  0  0  0  0  0
    3.3684   -0.2374    0.0000 O   0  0  0  0  0  0  0  0  0  0  0  0
    4.8806    2.0734    0.0000 N   0  0  0  0  0  0  0  0  0  0  0  0
    6.2265    1.4111    0.0000 C   0  0  0  0  0  0  0  0  0  0  0  0
    6.6205   -0.0362    0.0000 C   0  0  0  0  0  0  0  0  0  0  0  0
    7.4236   -1.3031    0.0000 C   0  0  0  0  0  0  0  0  0  0  0  0
    8.5644   -2.2770    0.0000 C   0  0  0  0  0  0  0  0  0  0  0  0
    9.9416   -2.8714    0.0000 C   0  0  0  0  0  0  0  0  0  0  0  0
    5.0693    0.4567    0.0000 C   0  0  0  0  0  0  0  0  0  0  0  0
    6.2766    2.9103    0.0000 C   0  0  0  0  0  0  0  0  0  0  0  0
    4.9975    3.6938    0.0000 O   0  0  0  0  0  0  0  0  0  0  0  0
    6.7663    4.3280    0.0000 N   0  0  0  0  0  0  0  0  0  0  0  0
    7.6523    5.5385    0.0000 C   0  0  0  0  0  0  0  0  0  0  0  0
    7.3309    7.0036    0.0000 C   0  0  0  0  0  0  0  0  0  0  0  0
    5.9013    7.4579    0.0000 C   0  0  0  0  0  0  0  0  0  0  0  0
    5.5800    8.9231    0.0000 C   0  0  0  0  0  0  0  0  0  0  0  0
    4.4026    7.3959    0.0000 C   0  0  0  0  0  0  0  0  0  0  0  0
    8.8556    6.4340    0.0000 C   0  0  0  0  0  0  0  0  0  0  0  0
    8.1494    7.7574    0.0000 O   0  0  0  0  0  0  0  0  0  0  0  0
   10.2694    6.9351    0.0000 N   0  0  0  0  0  0  0  0  0  0  0  0
   11.7682    6.9971    0.0000 C   0  0  0  0  0  0  0  0  0  0  0  0
   12.7133    8.1619    0.0000 C   0  0  0  0  0  0  0  0  0  0  0  0
   12.1771    9.5628    0.0000 S   0  0  0  0  0  0  0  0  0  0  0  0
   13.2186    6.6147    0.0000 C   0  0  0  0  0  0  0  0  0  0  0  0
   13.8129    7.9919    0.0000 O   0  0  0  0  0  0  0  0  0  0  0  0
   14.4918    5.8217    0.0000 N   0  0  0  0  0  0  0  0  0  0  0  0
   15.4748    4.6887    0.0000 C   0  0  0  0  0  0  0  0  0  0  0  0
   16.9747    4.6759    0.0000 C   0  0  0  0  0  0  0  0  0  0  0  0
   17.7357    5.9686    0.0000 C   0  0  0  0  0  0  0  0  0  0  0  0
   19.2357    5.9558    0.0000 C   0  0  0  0  0  0  0  0  0  0  0  0
   19.9967    7.2485    0.0000 N   0  0  0  0  0  0  0  0  0  0  0  0
   21.4966    7.2358    0.0000 C   0  0  0  0  0  0  0  0  0  0  0  0
   22.2576    8.5284    0.0000 N   0  0  0  0  0  0  0  0  0  0  0  0
   22.2356    5.9304    0.0000 N   0  0  0  0  0  0  0  0  0  0  0  0
   16.0801    3.3162    0.0000 C   0  0  0  0  0  0  0  0  0  0  0  0
   17.5274    3.7102    0.0000 O   0  0  0  0  0  0  0  0  0  0  0  0
   16.2540    1.8263    0.0000 N   0  0  0  0  0  0  0  0  0  0  0  0
   15.9810    0.3514    0.0000 C   0  0  0  0  0  0  0  0  0  0  0  0
   15.2854   -0.9776    0.0000 C   0  0  0  0  0  0  0  0  0  0  0  0
   14.2290   -2.0425    0.0000 C   0  0  0  0  0  0  0  0  0  0  0  0
   12.9056   -2.7486    0.0000 C   0  0  0  0  0  0  0  0  0  0  0  0
   11.4329   -3.0334    0.0000 C   0  0  0  0  0  0  0  0  0  0  0  0
   17.4377    0.7092    0.0000 C   0  0  0  0  0  0  0  0  0  0  0  0
   16.9063   -0.8293    0.0000 C   0  0  0  0  0  0  0  0  0  0  0  0
   16.6998   -2.3150    0.0000 O   0  0  0  0  0  0  0  0  0  0  0  0
   18.3913   -0.6183    0.0000 N   0  0  0  0  0  0  0  0  0  0  0  0
   19.3166   -1.7989    0.0000 C   0  0  0  0  0  0  0  0  0  0  0  0
   19.7823   -3.2248    0.0000 C   0  0  0  0  0  0  0  0  0  0  0  0
   18.7802   -4.3410    0.0000 C   0  0  0  0  0  0  0  0  0  0  0  0
   19.0943   -5.8078    0.0000 C   0  0  0  0  0  0  0  0  0  0  0  0
   17.7964   -6.5597    0.0000 N   0  0  0  0  0  0  0  0  0  0  0  0
   16.6802   -5.5577    0.0000 C   0  0  0  0  0  0  0  0  0  0  0  0
   17.2882   -4.1865    0.0000 N   0  0  0  0  0  0  0  0  0  0  0  0
   20.8017   -1.5879    0.0000 C   0  0  0  0  0  0  0  0  0  0  0  0
   21.3615   -0.1963    0.0000 O   0  0  0  0  0  0  0  0  0  0  0  0
   21.7269   -2.7686    0.0000 N   0  0  0  0  0  0  0  0  0  0  0  0
   23.2120   -2.5576    0.0000 C   0  0  0  0  0  0  0  0  0  0  0  0
   24.5354   -1.8514    0.0000 C   0  0  0  0  0  0  0  0  0  0  0  0
   25.8087   -2.6444    0.0000 C   0  0  0  0  0  0  0  0  0  0  0  0
   27.1986   -2.0804    0.0000 C   0  0  0  0  0  0  0  0  0  0  0  0
   28.1645   -3.2280    0.0000 N   0  0  0  0  0  0  0  0  0  0  0  0
   27.3715   -4.5013    0.0000 C   0  0  0  0  0  0  0  0  0  0  0  0
   25.9155   -4.1406    0.0000 N   0  0  0  0  0  0  0  0  0  0  0  0
   24.1373   -3.7382    0.0000 C   0  0  0  0  0  0  0  0  0  0  0  0
   23.5775   -5.1299    0.0000 O   0  0  0  0  0  0  0  0  0  0  0  0
   25.6224   -3.5273    0.0000 N   0  0  0  0  0  0  0  0  0  0  0  0
   26.5476   -4.7079    0.0000 C   0  0  0  0  0  0  0  0  0  0  0  0
   27.0133   -6.1338    0.0000 C   0  0  0  0  0  0  0  0  0  0  0  0
   26.0113   -7.2500    0.0000 O   0  0  0  0  0  0  0  0  0  0  0  0
   28.0327   -4.4969    0.0000 C   0  0  0  0  0  0  0  0  0  0  0  0
   28.9127   -3.2821    0.0000 O   0  0  0  0  0  0  0  0  0  0  0  0
   28.9580   -5.6776    0.0000 N   0  0  0  0  0  0  0  0  0  0  0  0
   30.4431   -5.4666    0.0000 C   0  0  0  0  0  0  0  0  0  0  0  0
   31.7664   -4.7604    0.0000 C   0  0  0  0  0  0  0  0  0  0  0  0
   32.7685   -3.6442    0.0000 O   0  0  0  0  0  0  0  0  0  0  0  0
   33.0397   -5.5534    0.0000 C   0  0  0  0  0  0  0  0  0  0  0  0
   31.3683   -6.6472    0.0000 C   0  0  0  0  0  0  0  0  0  0  0  0
   32.8681   -6.6188    0.0000 O   0  0  0  0  0  0  0  0  0  0  0  0
   30.8085   -8.0388    0.0000 O   0  0  0  0  0  0  0  0  0  0  0  0
  -29.7855   -2.4728    0.0000 H   0  0  0  0  0  0  0  0  0  0  0  0
  -30.2655    1.9940    0.0000 H   0  0  0  0  0  0  0  0  0  0  0  0
  -32.9572    3.3186    0.0000 H   0  0  0  0  0  0  0  0  0  0  0  0
  -32.2004   -2.5997    0.0000 H   0  0  0  0  0  0  0  0  0  0  0  0
  -39.0202   -4.7915    0.0000 H   0  0  0  0  0  0  0  0  0  0  0  0
  -40.4350    0.2083    0.0000 H   0  0  0  0  0  0  0  0  0  0  0  0
  -37.5483    1.0252    0.0000 H   0  0  0  0  0  0  0  0  0  0  0  0
  -42.2463   -1.6543    0.0000 H   0  0  0  0  0  0  0  0  0  0  0  0
  -32.5110   -0.2495    0.0000 H   0  0  0  0  0  0  0  0  0  0  0  0
  -30.3212   -2.5200    0.0000 H   0  0  0  0  0  0  0  0  0  0  0  0
  -33.9828   -6.0662    0.0000 H   0  0  0  0  0  0  0  0  0  0  0  0
  -31.4641   -6.7035    0.0000 H   0  0  0  0  0  0  0  0  0  0  0  0
  -27.3749   -2.3239    0.0000 H   0  0  0  0  0  0  0  0  0  0  0  0
  -25.3419    1.2177    0.0000 H   0  0  0  0  0  0  0  0  0  0  0  0
  -27.2660    1.0899    0.0000 H   0  0  0  0  0  0  0  0  0  0  0  0
  -23.8437   -1.7377    0.0000 H   0  0  0  0  0  0  0  0  0  0  0  0
  -25.7678   -1.8655    0.0000 H   0  0  0  0  0  0  0  0  0  0  0  0
  -22.1901   -1.9796    0.0000 H   0  0  0  0  0  0  0  0  0  0  0  0
  -22.0813    1.4342    0.0000 H   0  0  0  0  0  0  0  0  0  0  0  0
  -19.7387    3.0025    0.0000 H   0  0  0  0  0  0  0  0  0  0  0  0
  -21.5030    2.2243    0.0000 H   0  0  0  0  0  0  0  0  0  0  0  0
  -17.3200    0.7378    0.0000 H   0  0  0  0  0  0  0  0  0  0  0  0
  -18.3590   -0.0682    0.0000 H   0  0  0  0  0  0  0  0  0  0  0  0
  -17.4994    5.1933    0.0000 H   0  0  0  0  0  0  0  0  0  0  0  0
  -18.1850    2.0000    0.0000 H   0  0  0  0  0  0  0  0  0  0  0  0
  -18.1317   -1.2319    0.0000 H   0  0  0  0  0  0  0  0  0  0  0  0
  -14.7207   -1.8834    0.0000 H   0  0  0  0  0  0  0  0  0  0  0  0
  -14.9141   -0.2610    0.0000 H   0  0  0  0  0  0  0  0  0  0  0  0
  -17.3710   -3.8720    0.0000 H   0  0  0  0  0  0  0  0  0  0  0  0
  -17.9017   -2.1683    0.0000 H   0  0  0  0  0  0  0  0  0  0  0  0
  -14.1010   -4.4065    0.0000 H   0  0  0  0  0  0  0  0  0  0  0  0
  -14.4200   -2.6508    0.0000 H   0  0  0  0  0  0  0  0  0  0  0  0
  -17.3221   -5.5425    0.0000 H   0  0  0  0  0  0  0  0  0  0  0  0
  -14.2074   -8.7904    0.0000 H   0  0  0  0  0  0  0  0  0  0  0  0
  -12.3323   -6.9922    0.0000 H   0  0  0  0  0  0  0  0  0  0  0  0
  -12.9520   -4.4691    0.0000 H   0  0  0  0  0  0  0  0  0  0  0  0
  -14.2313   -1.4397    0.0000 H   0  0  0  0  0  0  0  0  0  0  0  0
  -14.3042    1.9508    0.0000 H   0  0  0  0  0  0  0  0  0  0  0  0
  -12.1403    3.5593    0.0000 H   0  0  0  0  0  0  0  0  0  0  0  0
  -13.7259    2.7408    0.0000 H   0  0  0  0  0  0  0  0  0  0  0  0
  -10.5819    0.4483    0.0000 H   0  0  0  0  0  0  0  0  0  0  0  0
   -8.5168    3.3306    0.0000 H   0  0  0  0  0  0  0  0  0  0  0  0
   -9.5844    4.5674    0.0000 H   0  0  0  0  0  0  0  0  0  0  0  0
  -11.2580    3.9484    0.0000 H   0  0  0  0  0  0  0  0  0  0  0  0
   -9.0843   -0.1739    0.0000 H   0  0  0  0  0  0  0  0  0  0  0  0
   -8.0927    1.6376    0.0000 H   0  0  0  0  0  0  0  0  0  0  0  0
   -8.9520    2.6330    0.0000 H   0  0  0  0  0  0  0  0  0  0  0  0
  -10.4079    2.5166    0.0000 H   0  0  0  0  0  0  0  0  0  0  0  0
  -10.3546   -0.7154    0.0000 H   0  0  0  0  0  0  0  0  0  0  0  0
   -6.9436   -1.3669    0.0000 H   0  0  0  0  0  0  0  0  0  0  0  0
   -7.0286    0.1078    0.0000 H   0  0  0  0  0  0  0  0  0  0  0  0
   -9.5939   -3.3555    0.0000 H   0  0  0  0  0  0  0  0  0  0  0  0
  -10.1246   -1.6518    0.0000 H   0  0  0  0  0  0  0  0  0  0  0  0
   -6.3239   -3.8900    0.0000 H   0  0  0  0  0  0  0  0  0  0  0  0
   -6.6429   -2.1343    0.0000 H   0  0  0  0  0  0  0  0  0  0  0  0
   -9.5450   -5.0259    0.0000 H   0  0  0  0  0  0  0  0  0  0  0  0
   -6.4304   -8.2739    0.0000 H   0  0  0  0  0  0  0  0  0  0  0  0
   -4.5552   -6.4756    0.0000 H   0  0  0  0  0  0  0  0  0  0  0  0
   -5.1749   -3.9525    0.0000 H   0  0  0  0  0  0  0  0  0  0  0  0
   -6.4543   -0.9232    0.0000 H   0  0  0  0  0  0  0  0  0  0  0  0
   -6.5271    2.4673    0.0000 H   0  0  0  0  0  0  0  0  0  0  0  0
   -4.3632    4.0758    0.0000 H   0  0  0  0  0  0  0  0  0  0  0  0
   -5.9489    3.2573    0.0000 H   0  0  0  0  0  0  0  0  0  0  0  0
   -1.7659    1.7708    0.0000 H   0  0  0  0  0  0  0  0  0  0  0  0
   -2.8048    0.9648    0.0000 H   0  0  0  0  0  0  0  0  0  0  0  0
   -1.8073    5.0840    0.0000 H   0  0  0  0  0  0  0  0  0  0  0  0
   -3.4809    4.4649    0.0000 H   0  0  0  0  0  0  0  0  0  0  0  0
    0.1848    2.2963    0.0000 H   0  0  0  0  0  0  0  0  0  0  0  0
    2.5284    5.7404    0.0000 H   0  0  0  0  0  0  0  0  0  0  0  0
    0.4319    7.2748    0.0000 H   0  0  0  0  0  0  0  0  0  0  0  0
   -1.9452    6.2264    0.0000 H   0  0  0  0  0  0  0  0  0  0  0  0
   -2.6308    3.0331    0.0000 H   0  0  0  0  0  0  0  0  0  0  0  0
   -2.5775   -0.1989    0.0000 H   0  0  0  0  0  0  0  0  0  0  0  0
    0.8335   -0.8503    0.0000 H   0  0  0  0  0  0  0  0  0  0  0  0
    0.6401    0.7720    0.0000 H   0  0  0  0  0  0  0  0  0  0  0  0
   -1.8168   -2.8390    0.0000 H   0  0  0  0  0  0  0  0  0  0  0  0
   -2.3475   -1.1353    0.0000 H   0  0  0  0  0  0  0  0  0  0  0  0
    1.4532   -3.3734    0.0000 H   0  0  0  0  0  0  0  0  0  0  0  0
    1.1342   -1.6177    0.0000 H   0  0  0  0  0  0  0  0  0  0  0  0
   -1.7679   -4.5094    0.0000 H   0  0  0  0  0  0  0  0  0  0  0  0
    1.3467   -7.7573    0.0000 H   0  0  0  0  0  0  0  0  0  0  0  0
    3.2219   -5.9591    0.0000 H   0  0  0  0  0  0  0  0  0  0  0  0
    2.6022   -3.4360    0.0000 H   0  0  0  0  0  0  0  0  0  0  0  0
    1.3228   -0.4067    0.0000 H   0  0  0  0  0  0  0  0  0  0  0  0
    1.2500    2.9838    0.0000 H   0  0  0  0  0  0  0  0  0  0  0  0
    3.5926    4.5521    0.0000 H   0  0  0  0  0  0  0  0  0  0  0  0
    1.7576    3.6049    0.0000 H   0  0  0  0  0  0  0  0  0  0  0  0
    4.1182    0.6171    0.0000 H   0  0  0  0  0  0  0  0  0  0  0  0
    7.6813    0.2300    0.0000 H   0  0  0  0  0  0  0  0  0  0  0  0
    9.1390    2.4636    0.0000 H   0  0  0  0  0  0  0  0  0  0  0  0
    8.1950    4.9581    0.0000 H   0  0  0  0  0  0  0  0  0  0  0  0
    4.4942    5.2243    0.0000 H   0  0  0  0  0  0  0  0  0  0  0  0
    4.9644    3.5710    0.0000 H   0  0  0  0  0  0  0  0  0  0  0  0
    5.1261   -0.1656    0.0000 H   0  0  0  0  0  0  0  0  0  0  0  0
    5.7960   -1.2893    0.0000 H   0  0  0  0  0  0  0  0  0  0  0  0
    6.0337   -1.8672    0.0000 H   0  0  0  0  0  0  0  0  0  0  0  0
    6.8326   -2.6818    0.0000 H   0  0  0  0  0  0  0  0  0  0  0  0
    7.2955   -3.0770    0.0000 H   0  0  0  0  0  0  0  0  0  0  0  0
    8.5891   -3.7768    0.0000 H   0  0  0  0  0  0  0  0  0  0  0  0
    9.5592   -4.3218    0.0000 H   0  0  0  0  0  0  0  0  0  0  0  0
    4.9519   -1.0387    0.0000 H   0  0  0  0  0  0  0  0  0  0  0  0
    3.8187   -0.3716    0.0000 H   0  0  0  0  0  0  0  0  0  0  0  0
    4.0364    1.5444    0.0000 H   0  0  0  0  0  0  0  0  0  0  0  0
    5.5321    5.1805    0.0000 H   0  0  0  0  0  0  0  0  0  0  0  0
    6.1578    5.6669    0.0000 H   0  0  0  0  0  0  0  0  0  0  0  0
    7.7098    8.4550    0.0000 H   0  0  0  0  0  0  0  0  0  0  0  0
    8.7701    7.4265    0.0000 H   0  0  0  0  0  0  0  0  0  0  0  0
    5.3484    6.0636    0.0000 H   0  0  0  0  0  0  0  0  0  0  0  0
    4.2164    9.5482    0.0000 H   0  0  0  0  0  0  0  0  0  0  0  0
    5.7791   10.4098    0.0000 H   0  0  0  0  0  0  0  0  0  0  0  0
    7.0599    9.1674    0.0000 H   0  0  0  0  0  0  0  0  0  0  0  0
    3.4511    8.5554    0.0000 H   0  0  0  0  0  0  0  0  0  0  0  0
    3.0155    6.8249    0.0000 H   0  0  0  0  0  0  0  0  0  0  0  0
    4.5430    5.9024    0.0000 H   0  0  0  0  0  0  0  0  0  0  0  0
    9.9847    8.4078    0.0000 H   0  0  0  0  0  0  0  0  0  0  0  0
   11.0952    8.3377    0.0000 H   0  0  0  0  0  0  0  0  0  0  0  0
   13.9998    8.9332    0.0000 H   0  0  0  0  0  0  0  0  0  0  0  0
   13.9412    7.3004    0.0000 H   0  0  0  0  0  0  0  0  0  0  0  0
   13.1223   10.7276    0.0000 H   0  0  0  0  0  0  0  0  0  0  0  0
   15.4657    6.9625    0.0000 H   0  0  0  0  0  0  0  0  0  0  0  0
   15.9326    6.1171    0.0000 H   0  0  0  0  0  0  0  0  0  0  0  0
   18.3054    3.9836    0.0000 H   0  0  0  0  0  0  0  0  0  0  0  0
   17.0668    3.1788    0.0000 H   0  0  0  0  0  0  0  0  0  0  0  0
   18.0087    7.4435    0.0000 H   0  0  0  0  0  0  0  0  0  0  0  0
   16.4051    6.6609    0.0000 H   0  0  0  0  0  0  0  0  0  0  0  0
   20.6408    5.4309    0.0000 H   0  0  0  0  0  0  0  0  0  0  0  0
   19.1445    4.4586    0.0000 H   0  0  0  0  0  0  0  0  0  0  0  0
   19.2577    8.5538    0.0000 H   0  0  0  0  0  0  0  0  0  0  0  0
   23.7575    8.5157    0.0000 H   0  0  0  0  0  0  0  0  0  0  0  0
   23.7355    5.9177    0.0000 H   0  0  0  0  0  0  0  0  0  0  0  0
   21.4746    4.6378    0.0000 H   0  0  0  0  0  0  0  0  0  0  0  0
   17.7532    1.7762    0.0000 H   0  0  0  0  0  0  0  0  0  0  0  0
   15.8215   -2.3785    0.0000 H   0  0  0  0  0  0  0  0  0  0  0  0
   16.7172   -1.4248    0.0000 H   0  0  0  0  0  0  0  0  0  0  0  0
   14.5101   -3.5159    0.0000 H   0  0  0  0  0  0  0  0  0  0  0  0
   15.4653   -2.8918    0.0000 H   0  0  0  0  0  0  0  0  0  0  0  0
   12.5594   -4.2082    0.0000 H   0  0  0  0  0  0  0  0  0  0  0  0
   13.9731   -3.8024    0.0000 H   0  0  0  0  0  0  0  0  0  0  0  0
   11.4949   -4.5321    0.0000 H   0  0  0  0  0  0  0  0  0  0  0  0
   18.7070   -0.0901    0.0000 H   0  0  0  0  0  0  0  0  0  0  0  0
   18.5732    1.6893    0.0000 H   0  0  0  0  0  0  0  0  0  0  0  0
   17.1825    2.1873    0.0000 H   0  0  0  0  0  0  0  0  0  0  0  0
   19.1166    0.6947    0.0000 H   0  0  0  0  0  0  0  0  0  0  0  0
   17.9932   -2.5051    0.0000 H   0  0  0  0  0  0  0  0  0  0  0  0
   20.5567   -4.5094    0.0000 H   0  0  0  0  0  0  0  0  0  0  0  0
   21.2372   -2.8598    0.0000 H   0  0  0  0  0  0  0  0  0  0  0  0
   20.4655   -6.4158    0.0000 H   0  0  0  0  0  0  0  0  0  0  0  0
   17.6418   -8.0517    0.0000 H   0  0  0  0  0  0  0  0  0  0  0  0
   15.2134   -5.8717    0.0000 H   0  0  0  0  0  0  0  0  0  0  0  0
   21.3409   -4.2181    0.0000 H   0  0  0  0  0  0  0  0  0  0  0  0
   22.7464   -1.1317    0.0000 H   0  0  0  0  0  0  0  0  0  0  0  0
   25.5374   -0.7352    0.0000 H   0  0  0  0  0  0  0  0  0  0  0  0
   23.6101   -0.6708    0.0000 H   0  0  0  0  0  0  0  0  0  0  0  0
   27.5593   -0.6244    0.0000 H   0  0  0  0  0  0  0  0  0  0  0  0
   29.6607   -3.1212    0.0000 H   0  0  0  0  0  0  0  0  0  0  0  0
   28.1007   -5.8121    0.0000 H   0  0  0  0  0  0  0  0  0  0  0  0
   26.5023   -2.3125    0.0000 H   0  0  0  0  0  0  0  0  0  0  0  0
   25.2243   -5.4141    0.0000 H   0  0  0  0  0  0  0  0  0  0  0  0
   27.7877   -7.4184    0.0000 H   0  0  0  0  0  0  0  0  0  0  0  0
   28.5018   -5.9489    0.0000 H   0  0  0  0  0  0  0  0  0  0  0  0
   26.4769   -8.6759    0.0000 H   0  0  0  0  0  0  0  0  0  0  0  0
   28.5720   -7.1270    0.0000 H   0  0  0  0  0  0  0  0  0  0  0  0
   29.9774   -4.0407    0.0000 H   0  0  0  0  0  0  0  0  0  0  0  0
   30.8412   -3.5798    0.0000 H   0  0  0  0  0  0  0  0  0  0  0  0
   34.2630   -3.7726    0.0000 H   0  0  0  0  0  0  0  0  0  0  0  0
   34.4393   -5.0138    0.0000 H   0  0  0  0  0  0  0  0  0  0  0  0
   33.9649   -6.7340    0.0000 H   0  0  0  0  0  0  0  0  0  0  0  0
   32.5043   -6.9546    0.0000 H   0  0  0  0  0  0  0  0  0  0  0  0
   31.7337   -9.2195    0.0000 H   0  0  0  0  0  0  0  0  0  0  0  0
  1  2  1  0
  2  3  1  0
  3  4  2  0
  4  5  1  0
  5  6  2  0
  6  7  1  0
  7  8  2  0
  7  9  1  0
  9 10  1  0
 10 11  1  0
 11 12  2  0
  9 13  1  0
 13 14  1  0
 14 15  2  0
 15 16  1  0
 16 17  2  0
 17 18  1  0
 16 19  1  0
 14 20  1  0
 20 21  1  0
 21 22  2  0
 22 23  1  0
 23 24  2  0
 24 25  1  0
 25 26  2  0
 25 27  1  0
  1 28  2  0
  1 29  1  0
 29 30  1  0
 30 31  1  0
 31 32  1  0
 32 33  2  0
 32 34  1  0
 34 35  1  0
 35 36  1  0
 36 37  1  0
 37 38  1  0
 38 39  2  0
 38 40  1  0
 35 41  1  0
 41 42  2  0
 41 43  1  0
 43 44  1  0
 44 45  1  0
 45 46  1  0
 46 47  1  0
 47 48  1  0
 48 49  1  0
 49 50  2  3
 49 51  1  0
 44 52  1  0
 52 53  2  0
 52 54  1  0
 54 55  1  0
 55 56  1  0
 56 57  1  0
 57 58  1  0
 57 59  1  0
 55 60  1  0
 60 61  2  0
 60 62  1  0
 62 63  1  0
 63 64  1  0
 64 65  1  0
 65 66  1  0
 66 67  1  0
 67 68  1  0
 68 69  2  3
 68 70  1  0
 63 71  1  0
 71 72  2  0
 71 73  1  0
 73 74  1  0
 74 75  1  0
 75 76  1  0
 76 77  1  0
 77 78  1  0
 78 79  1  0
 79 80  2  3
 79 81  1  0
 74 82  1  0
 82 83  2  0
 82 84  1  0
 84 85  1  0
 85 86  1  0
 86 87  1  0
 87 88  1  0
 88 89  1  0
 89 90  1  0
 90 91  2  3
 90 92  1  0
 85 93  1  0
 93 94  2  0
 93 95  1  0
 95 96  1  0
 96 97  1  0
 97 98  1  0
 98 99  2  0
 99100  1  0
100101  2  0
101102  1  0
102103  2  0
 96104  1  0
104105  2  0
104106  1  0
107106  1  6
107108  1  0
108109  1  0
109110  1  0
110111  1  0
107112  1  0
107113  1  0
113114  2  0
113115  1  0
115116  1  0
116117  1  0
117118  1  0
118119  1  0
118120  1  0
116121  1  0
121122  2  0
121123  1  0
123124  1  0
124125  1  0
125126  1  0
124127  1  0
127128  2  0
127129  1  0
129130  1  0
130131  1  0
131132  1  0
132133  1  0
133134  1  0
134135  1  0
135136  2  3
135137  1  0
130138  1  0
138139  2  0
138140  1  0
140141  1  0
141142  1  0
142143  1  0
143144  1  0
144145  1  0
141146  1  0
141147  1  6
147148  2  0
147149  1  0
149150  1  0
150151  1  0
151152  1  0
152153  2  0
153154  1  0
154155  1  0
155156  2  0
150157  1  0
157158  2  0
157159  1  0
159160  1  0
160161  1  0
161162  1  0
162163  2  0
163164  1  0
164165  1  0
165166  2  0
160167  1  0
167168  2  0
167169  1  0
169170  1  0
170171  1  0
171172  1  0
170173  1  0
173174  2  0
173175  1  0
175176  1  0
176177  1  0
177178  1  0
177179  1  0
176180  1  0
180181  2  0
180182  1  0
  8  3  1  0
103 98  1  0
156152  1  0
166162  1  0
 11  6  1  0
111145  2  0
 18 13  2  0
 22  9  1  0
 26 21  1  0
  2183  1  0
  4184  1  0
  5185  1  0
  8186  1  0
 15187  1  0
 17188  1  0
 18189  1  0
 19190  1  0
 23191  1  0
 24192  1  0
 26193  1  0
 27194  1  0
 29195  1  0
 30196  1  0
 30197  1  0
 31198  1  0
 31199  1  0
 34200  1  0
 35201  1  1
 36202  1  0
 36203  1  0
 37204  1  0
 37205  1  0
 40206  1  0
 43207  1  0
 44208  1  6
 45209  1  0
 45210  1  0
 46211  1  0
 46212  1  0
 47213  1  0
 47214  1  0
 48215  1  0
 50216  1  0
 51217  1  0
 51218  1  0
 54219  1  0
 55220  1  1
 56221  1  0
 56222  1  0
 57223  1  0
 58224  1  0
 58225  1  0
 58226  1  0
 59227  1  0
 59228  1  0
 59229  1  0
 62230  1  0
 63231  1  6
 64232  1  0
 64233  1  0
 65234  1  0
 65235  1  0
 66236  1  0
 66237  1  0
 67238  1  0
 69239  1  0
 70240  1  0
 70241  1  0
 73242  1  0
 74243  1  1
 75244  1  0
 75245  1  0
 76246  1  0
 76247  1  0
 77248  1  0
 77249  1  0
 78250  1  0
 80251  1  0
 81252  1  0
 81253  1  0
 84254  1  0
 85255  1  6
 86256  1  0
 86257  1  0
 87258  1  0
 87259  1  0
 88260  1  0
 88261  1  0
 89262  1  0
 91263  1  0
 92264  1  0
 92265  1  0
 95266  1  0
 96267  1  1
 97268  1  0
 97269  1  0
 99270  1  0
100271  1  0
101272  1  0
102273  1  0
103274  1  0
106275  1  0
108276  1  0
108277  1  0
109278  1  0
109279  1  0
110280  1  0
110281  1  0
111282  1  0
112283  1  0
112284  1  0
112285  1  0
115286  1  0
116287  1  1
117288  1  0
117289  1  0
118290  1  0
119291  1  0
119292  1  0
119293  1  0
120294  1  0
120295  1  0
120296  1  0
123297  1  0
124298  1  1
125299  1  0
125300  1  0
126301  1  0
129302  1  0
130303  1  1
131304  1  0
131305  1  0
132306  1  0
132307  1  0
133308  1  0
133309  1  0
134310  1  0
136311  1  0
137312  1  0
137313  1  0
140314  1  0
142315  1  0
142316  1  0
143317  1  0
143318  1  0
144319  1  0
144320  1  0
145321  1  0
146322  1  0
146323  1  0
146324  1  0
149325  1  0
150326  1  6
151327  1  0
151328  1  0
153329  1  0
154330  1  0
155331  1  0
159332  1  0
160333  1  1
161334  1  0
161335  1  0
163336  1  0
164337  1  0
165338  1  0
169339  1  0
170340  1  6
171341  1  0
171342  1  0
172343  1  0
175344  1  0
176345  1  1
177346  1  1
178347  1  0
179348  1  0
179349  1  0
179350  1  0
182351  1  0
M  END
