
     RDKit          2D

272273  0  0  0  0  0  0  0  0999 V2000
  -20.2992   -9.0954    0.0000 N   0  0  0  0  0  0  0  0  0  0  0  0
  -18.8070   -8.9430    0.0000 C   0  0  0  0  0  0  0  0  0  0  0  0
  -18.1928   -7.5746    0.0000 C   0  0  0  0  0  0  0  0  0  0  0  0
  -16.7006   -7.4222    0.0000 C   0  0  0  0  0  0  0  0  0  0  0  0
  -15.9773   -8.7363    0.0000 O   0  0  0  0  0  0  0  0  0  0  0  0
  -16.0864   -6.0537    0.0000 N   0  0  0  0  0  0  0  0  0  0  0  0
  -14.5941   -5.9014    0.0000 C   0  0  0  0  0  0  0  0  0  0  0  0
  -14.7032   -7.3974    0.0000 C   0  0  0  0  0  0  0  0  0  0  0  0
  -13.4622   -8.2399    0.0000 C   0  0  0  0  0  0  0  0  0  0  0  0
  -13.5713   -9.7360    0.0000 C   0  0  0  0  0  0  0  0  0  0  0  0
  -12.3302  -10.5785    0.0000 C   0  0  0  0  0  0  0  0  0  0  0  0
  -12.4394  -12.0745    0.0000 N   0  0  0  0  0  0  0  0  0  0  0  0
  -13.2440   -5.2479    0.0000 C   0  0  0  0  0  0  0  0  0  0  0  0
  -12.0029   -6.0904    0.0000 O   0  0  0  0  0  0  0  0  0  0  0  0
  -13.1349   -3.7519    0.0000 N   0  0  0  0  0  0  0  0  0  0  0  0
  -11.7847   -3.0983    0.0000 C   0  0  0  0  0  0  0  0  0  0  0  0
  -12.6628   -1.8822    0.0000 C   0  0  0  0  0  0  0  0  0  0  0  0
  -14.1253   -2.2153    0.0000 C   0  0  0  0  0  0  0  0  0  0  0  0
  -10.2925   -2.9460    0.0000 C   0  0  0  0  0  0  0  0  0  0  0  0
   -9.8497   -1.5128    0.0000 O   0  0  0  0  0  0  0  0  0  0  0  0
   -9.4144   -4.1622    0.0000 N   0  0  0  0  0  0  0  0  0  0  0  0
   -7.9222   -4.0098    0.0000 C   0  0  0  0  0  0  0  0  0  0  0  0
   -6.8972   -5.1050    0.0000 C   0  0  0  0  0  0  0  0  0  0  0  0
   -5.6835   -5.9865    0.0000 C   0  0  0  0  0  0  0  0  0  0  0  0
   -4.3250   -6.6223    0.0000 C   0  0  0  0  0  0  0  0  0  0  0  0
   -2.8706   -6.9896    0.0000 C   0  0  0  0  0  0  0  0  0  0  0  0
   -1.3731   -7.0749    0.0000 C   0  0  0  0  0  0  0  0  0  0  0  0
    0.1136   -6.8753    0.0000 C   0  0  0  0  0  0  0  0  0  0  0  0
    1.5356   -6.3980    0.0000 C   0  0  0  0  0  0  0  0  0  0  0  0
   -8.6156   -5.3399    0.0000 C   0  0  0  0  0  0  0  0  0  0  0  0
   -8.7213   -2.7404    0.0000 C   0  0  0  0  0  0  0  0  0  0  0  0
   -9.5145   -2.8201    0.0000 O   0  0  0  0  0  0  0  0  0  0  0  0
   -9.2658   -1.3427    0.0000 N   0  0  0  0  0  0  0  0  0  0  0  0
   -9.5359    0.1327    0.0000 C   0  0  0  0  0  0  0  0  0  0  0  0
  -10.7380   -0.7645    0.0000 C   0  0  0  0  0  0  0  0  0  0  0  0
  -12.0335   -0.0085    0.0000 C   0  0  0  0  0  0  0  0  0  0  0  0
  -11.5607   -2.0187    0.0000 C   0  0  0  0  0  0  0  0  0  0  0  0
  -12.9931   -1.5735    0.0000 C   0  0  0  0  0  0  0  0  0  0  0  0
   -9.5219    1.6327    0.0000 C   0  0  0  0  0  0  0  0  0  0  0  0
  -10.9835    1.9699    0.0000 O   0  0  0  0  0  0  0  0  0  0  0  0
   -9.2243    3.1029    0.0000 N   0  0  0  0  0  0  0  0  0  0  0  0
   -8.6538    4.4901    0.0000 C   0  0  0  0  0  0  0  0  0  0  0  0
  -10.1501    4.3852    0.0000 C   0  0  0  0  0  0  0  0  0  0  0  0
  -10.9892    5.6286    0.0000 C   0  0  0  0  0  0  0  0  0  0  0  0
  -12.4855    5.5237    0.0000 C   0  0  0  0  0  0  0  0  0  0  0  0
  -11.3523    7.0840    0.0000 C   0  0  0  0  0  0  0  0  0  0  0  0
   -7.8311    5.7444    0.0000 C   0  0  0  0  0  0  0  0  0  0  0  0
   -8.8784    6.8183    0.0000 O   0  0  0  0  0  0  0  0  0  0  0  0
   -6.7859    6.8203    0.0000 N   0  0  0  0  0  0  0  0  0  0  0  0
   -5.5560    7.6789    0.0000 C   0  0  0  0  0  0  0  0  0  0  0  0
   -6.8715    8.3997    0.0000 C   0  0  0  0  0  0  0  0  0  0  0  0
   -6.9051    9.8993    0.0000 C   0  0  0  0  0  0  0  0  0  0  0  0
   -8.2206   10.6200    0.0000 C   0  0  0  0  0  0  0  0  0  0  0  0
   -8.2542   12.1196    0.0000 C   0  0  0  0  0  0  0  0  0  0  0  0
   -9.5697   12.8403    0.0000 N   0  0  0  0  0  0  0  0  0  0  0  0
   -4.1858    8.2893    0.0000 C   0  0  0  0  0  0  0  0  0  0  0  0
   -4.4862    9.7589    0.0000 O   0  0  0  0  0  0  0  0  0  0  0  0
   -2.7248    8.6293    0.0000 N   0  0  0  0  0  0  0  0  0  0  0  0
   -1.2259    8.6867    0.0000 C   0  0  0  0  0  0  0  0  0  0  0  0
   -1.9429   10.0042    0.0000 C   0  0  0  0  0  0  0  0  0  0  0  0
   -1.1604   11.2839    0.0000 C   0  0  0  0  0  0  0  0  0  0  0  0
   -1.8774   12.6015    0.0000 C   0  0  0  0  0  0  0  0  0  0  0  0
   -1.0949   13.8812    0.0000 C   0  0  0  0  0  0  0  0  0  0  0  0
   -1.8120   15.1987    0.0000 N   0  0  0  0  0  0  0  0  0  0  0  0
    0.2568    8.4594    0.0000 C   0  0  0  0  0  0  0  0  0  0  0  0
    0.7986    9.8581    0.0000 O   0  0  0  0  0  0  0  0  0  0  0  0
    1.6696    7.9555    0.0000 N   0  0  0  0  0  0  0  0  0  0  0  0
    2.9616    7.1934    0.0000 C   0  0  0  0  0  0  0  0  0  0  0  0
    3.0707    8.6895    0.0000 C   0  0  0  0  0  0  0  0  0  0  0  0
    4.0860    6.2006    0.0000 C   0  0  0  0  0  0  0  0  0  0  0  0
    5.1812    7.2256    0.0000 O   0  0  0  0  0  0  0  0  0  0  0  0
    5.0022    5.0129    0.0000 N   0  0  0  0  0  0  0  0  0  0  0  0
    5.6771    3.6733    0.0000 C   0  0  0  0  0  0  0  0  0  0  0  0
    6.5777    4.8729    0.0000 C   0  0  0  0  0  0  0  0  0  0  0  0
    7.1854    6.2442    0.0000 O   0  0  0  0  0  0  0  0  0  0  0  0
    8.0668    4.6927    0.0000 C   0  0  0  0  0  0  0  0  0  0  0  0
    6.0862    2.2302    0.0000 C   0  0  0  0  0  0  0  0  0  0  0  0
    7.5836    2.3184    0.0000 O   0  0  0  0  0  0  0  0  0  0  0  0
    6.2149    0.7357    0.0000 N   0  0  0  0  0  0  0  0  0  0  0  0
    6.0583   -0.7561    0.0000 C   0  0  0  0  0  0  0  0  0  0  0  0
    5.6223   -2.1913    0.0000 C   0  0  0  0  0  0  0  0  0  0  0  0
    4.9226   -3.5181    0.0000 C   0  0  0  0  0  0  0  0  0  0  0  0
    3.9844   -4.6885    0.0000 C   0  0  0  0  0  0  0  0  0  0  0  0
    2.8416   -5.6601    0.0000 C   0  0  0  0  0  0  0  0  0  0  0  0
    7.2678   -1.6433    0.0000 C   0  0  0  0  0  0  0  0  0  0  0  0
    7.4645   -0.2339    0.0000 C   0  0  0  0  0  0  0  0  0  0  0  0
    7.8937    1.2034    0.0000 O   0  0  0  0  0  0  0  0  0  0  0  0
    8.6198   -1.1905    0.0000 N   0  0  0  0  0  0  0  0  0  0  0  0
   10.0260   -0.6683    0.0000 C   0  0  0  0  0  0  0  0  0  0  0  0
   11.1687    0.3034    0.0000 C   0  0  0  0  0  0  0  0  0  0  0  0
   12.5816   -0.2004    0.0000 C   0  0  0  0  0  0  0  0  0  0  0  0
   12.8517   -1.6759    0.0000 C   0  0  0  0  0  0  0  0  0  0  0  0
   14.2646   -2.1797    0.0000 C   0  0  0  0  0  0  0  0  0  0  0  0
   15.4073   -1.2081    0.0000 C   0  0  0  0  0  0  0  0  0  0  0  0
   16.8202   -1.7119    0.0000 O   0  0  0  0  0  0  0  0  0  0  0  0
   15.1372    0.2674    0.0000 C   0  0  0  0  0  0  0  0  0  0  0  0
   13.7243    0.7712    0.0000 C   0  0  0  0  0  0  0  0  0  0  0  0
   11.1813   -1.6250    0.0000 C   0  0  0  0  0  0  0  0  0  0  0  0
   10.7521   -3.0622    0.0000 O   0  0  0  0  0  0  0  0  0  0  0  0
   12.5875   -1.1027    0.0000 N   0  0  0  0  0  0  0  0  0  0  0  0
   13.7428   -2.0594    0.0000 C   0  0  0  0  0  0  0  0  0  0  0  0
   14.5013   -3.3535    0.0000 C   0  0  0  0  0  0  0  0  0  0  0  0
   13.6064   -4.5573    0.0000 C   0  0  0  0  0  0  0  0  0  0  0  0
   15.6566   -4.3102    0.0000 C   0  0  0  0  0  0  0  0  0  0  0  0
   15.4058   -5.7890    0.0000 C   0  0  0  0  0  0  0  0  0  0  0  0
   15.1490   -1.5372    0.0000 C   0  0  0  0  0  0  0  0  0  0  0  0
   15.7502   -0.1629    0.0000 O   0  0  0  0  0  0  0  0  0  0  0  0
   16.3043   -2.4938    0.0000 N   0  0  0  0  0  0  0  0  0  0  0  0
   17.7105   -1.9716    0.0000 C   0  0  0  0  0  0  0  0  0  0  0  0
   18.8532   -0.9999    0.0000 C   0  0  0  0  0  0  0  0  0  0  0  0
   20.2661   -1.5037    0.0000 C   0  0  0  0  0  0  0  0  0  0  0  0
   21.4088   -0.5321    0.0000 C   0  0  0  0  0  0  0  0  0  0  0  0
   21.4214   -2.4604    0.0000 C   0  0  0  0  0  0  0  0  0  0  0  0
   18.8658   -2.9283    0.0000 C   0  0  0  0  0  0  0  0  0  0  0  0
   18.6150   -4.4071    0.0000 O   0  0  0  0  0  0  0  0  0  0  0  0
   20.2720   -2.4060    0.0000 N   0  0  0  0  0  0  0  0  0  0  0  0
   21.4273   -3.3627    0.0000 C   0  0  0  0  0  0  0  0  0  0  0  0
   22.1858   -4.6568    0.0000 C   0  0  0  0  0  0  0  0  0  0  0  0
   21.4443   -5.9607    0.0000 O   0  0  0  0  0  0  0  0  0  0  0  0
   22.8335   -2.8405    0.0000 C   0  0  0  0  0  0  0  0  0  0  0  0
   24.0968   -3.6492    0.0000 O   0  0  0  0  0  0  0  0  0  0  0  0
   23.2627   -1.4032    0.0000 O   0  0  0  0  0  0  0  0  0  0  0  0
  -20.9134  -10.4639    0.0000 H   0  0  0  0  0  0  0  0  0  0  0  0
  -21.1773   -7.8792    0.0000 H   0  0  0  0  0  0  0  0  0  0  0  0
  -18.9161  -10.4391    0.0000 H   0  0  0  0  0  0  0  0  0  0  0  0
  -17.3527   -9.3103    0.0000 H   0  0  0  0  0  0  0  0  0  0  0  0
  -19.6472   -7.2073    0.0000 H   0  0  0  0  0  0  0  0  0  0  0  0
  -18.0837   -6.0785    0.0000 H   0  0  0  0  0  0  0  0  0  0  0  0
  -16.9644   -4.8376    0.0000 H   0  0  0  0  0  0  0  0  0  0  0  0
  -15.0033   -4.4583    0.0000 H   0  0  0  0  0  0  0  0  0  0  0  0
  -15.3174   -8.7659    0.0000 H   0  0  0  0  0  0  0  0  0  0  0  0
  -16.2032   -7.3930    0.0000 H   0  0  0  0  0  0  0  0  0  0  0  0
  -11.9739   -8.4271    0.0000 H   0  0  0  0  0  0  0  0  0  0  0  0
  -12.8480   -6.8714    0.0000 H   0  0  0  0  0  0  0  0  0  0  0  0
  -14.3477  -11.0194    0.0000 H   0  0  0  0  0  0  0  0  0  0  0  0
  -15.0596   -9.5487    0.0000 H   0  0  0  0  0  0  0  0  0  0  0  0
  -10.8759  -10.9457    0.0000 H   0  0  0  0  0  0  0  0  0  0  0  0
  -11.5538   -9.2951    0.0000 H   0  0  0  0  0  0  0  0  0  0  0  0
  -11.1983  -12.9170    0.0000 H   0  0  0  0  0  0  0  0  0  0  0  0
  -13.0536  -13.4430    0.0000 H   0  0  0  0  0  0  0  0  0  0  0  0
  -13.9276  -11.8873    0.0000 H   0  0  0  0  0  0  0  0  0  0  0  0
  -14.5429   -3.2347    0.0000 H   0  0  0  0  0  0  0  0  0  0  0  0
  -11.3756   -4.5415    0.0000 H   0  0  0  0  0  0  0  0  0  0  0  0
  -13.0719   -0.4391    0.0000 H   0  0  0  0  0  0  0  0  0  0  0  0
  -11.1681   -1.7560    0.0000 H   0  0  0  0  0  0  0  0  0  0  0  0
  -15.1966   -0.9394    0.0000 H   0  0  0  0  0  0  0  0  0  0  0  0
  -15.5051   -2.6880    0.0000 H   0  0  0  0  0  0  0  0  0  0  0  0
  -14.4714   -3.5008    0.0000 H   0  0  0  0  0  0  0  0  0  0  0  0
  -10.1908   -5.4456    0.0000 H   0  0  0  0  0  0  0  0  0  0  0  0
   -7.3265   -6.5423    0.0000 H   0  0  0  0  0  0  0  0  0  0  0  0
   -8.2703   -5.7089    0.0000 H   0  0  0  0  0  0  0  0  0  0  0  0
   -5.8330   -7.4790    0.0000 H   0  0  0  0  0  0  0  0  0  0  0  0
   -6.9175   -6.8393    0.0000 H   0  0  0  0  0  0  0  0  0  0  0  0
   -4.1893   -8.1162    0.0000 H   0  0  0  0  0  0  0  0  0  0  0  0
   -5.3753   -7.6933    0.0000 H   0  0  0  0  0  0  0  0  0  0  0  0
   -2.4547   -8.4307    0.0000 H   0  0  0  0  0  0  0  0  0  0  0  0
   -3.6993   -8.2399    0.0000 H   0  0  0  0  0  0  0  0  0  0  0  0
   -0.6919   -8.4113    0.0000 H   0  0  0  0  0  0  0  0  0  0  0  0
   -1.9501   -8.4595    0.0000 H   0  0  0  0  0  0  0  0  0  0  0  0
    1.1728   -7.9375    0.0000 H   0  0  0  0  0  0  0  0  0  0  0  0
   -0.1910   -8.3441    0.0000 H   0  0  0  0  0  0  0  0  0  0  0  0
    2.1460   -7.7682    0.0000 H   0  0  0  0  0  0  0  0  0  0  0  0
   -9.8790   -5.8187    0.0000 H   0  0  0  0  0  0  0  0  0  0  0  0
   -8.4623   -6.9144    0.0000 H   0  0  0  0  0  0  0  0  0  0  0  0
   -7.1068   -6.0757    0.0000 H   0  0  0  0  0  0  0  0  0  0  0  0
  -10.6483   -1.9247    0.0000 H   0  0  0  0  0  0  0  0  0  0  0  0
  -10.7809    0.9694    0.0000 H   0  0  0  0  0  0  0  0  0  0  0  0
   -9.7791   -1.9180    0.0000 H   0  0  0  0  0  0  0  0  0  0  0  0
  -13.5188   -0.7405    0.0000 H   0  0  0  0  0  0  0  0  0  0  0  0
  -13.2084    0.8559    0.0000 H   0  0  0  0  0  0  0  0  0  0  0  0
  -11.6213    1.2440    0.0000 H   0  0  0  0  0  0  0  0  0  0  0  0
  -12.2478   -3.3521    0.0000 H   0  0  0  0  0  0  0  0  0  0  0  0
  -10.0618   -2.0778    0.0000 H   0  0  0  0  0  0  0  0  0  0  0  0
  -13.8810   -3.1876    0.0000 H   0  0  0  0  0  0  0  0  0  0  0  0
  -14.3371   -0.9987    0.0000 H   0  0  0  0  0  0  0  0  0  0  0  0
  -13.1270   -0.4465    0.0000 H   0  0  0  0  0  0  0  0  0  0  0  0
  -10.7020    3.3607    0.0000 H   0  0  0  0  0  0  0  0  0  0  0  0
   -9.2489    5.8671    0.0000 H   0  0  0  0  0  0  0  0  0  0  0  0
  -11.5203    3.7749    0.0000 H   0  0  0  0  0  0  0  0  0  0  0  0
  -10.1499    2.8852    0.0000 H   0  0  0  0  0  0  0  0  0  0  0  0
   -9.8074    6.5524    0.0000 H   0  0  0  0  0  0  0  0  0  0  0  0
  -13.4698    6.6556    0.0000 H   0  0  0  0  0  0  0  0  0  0  0  0
  -13.8557    4.9134    0.0000 H   0  0  0  0  0  0  0  0  0  0  0  0
  -12.3024    4.0349    0.0000 H   0  0  0  0  0  0  0  0  0  0  0  0
  -12.7332    7.6699    0.0000 H   0  0  0  0  0  0  0  0  0  0  0  0
  -11.1958    8.5758    0.0000 H   0  0  0  0  0  0  0  0  0  0  0  0
   -9.8560    7.1889    0.0000 H   0  0  0  0  0  0  0  0  0  0  0  0
   -7.8896    7.8361    0.0000 H   0  0  0  0  0  0  0  0  0  0  0  0
   -5.3121    9.1590    0.0000 H   0  0  0  0  0  0  0  0  0  0  0  0
   -8.3541    8.6270    0.0000 H   0  0  0  0  0  0  0  0  0  0  0  0
   -7.6823    7.1377    0.0000 H   0  0  0  0  0  0  0  0  0  0  0  0
   -6.2541   11.2507    0.0000 H   0  0  0  0  0  0  0  0  0  0  0  0
   -5.4114   10.0375    0.0000 H   0  0  0  0  0  0  0  0  0  0  0  0
   -9.7199   10.6649    0.0000 H   0  0  0  0  0  0  0  0  0  0  0  0
   -8.8715    9.2686    0.0000 H   0  0  0  0  0  0  0  0  0  0  0  0
   -7.7728   13.5403    0.0000 H   0  0  0  0  0  0  0  0  0  0  0  0
   -6.7548   12.0747    0.0000 H   0  0  0  0  0  0  0  0  0  0  0  0
   -9.6033   14.3400    0.0000 H   0  0  0  0  0  0  0  0  0  0  0  0
  -11.0523   13.0677    0.0000 H   0  0  0  0  0  0  0  0  0  0  0  0
  -10.2206   11.4889    0.0000 H   0  0  0  0  0  0  0  0  0  0  0  0
   -3.1041   10.0805    0.0000 H   0  0  0  0  0  0  0  0  0  0  0  0
   -0.2206    9.8000    0.0000 H   0  0  0  0  0  0  0  0  0  0  0  0
   -3.0673   10.9970    0.0000 H   0  0  0  0  0  0  0  0  0  0  0  0
   -3.3073    9.3809    0.0000 H   0  0  0  0  0  0  0  0  0  0  0  0
    0.1178   12.0689    0.0000 H   0  0  0  0  0  0  0  0  0  0  0  0
    0.1708   10.5927    0.0000 H   0  0  0  0  0  0  0  0  0  0  0  0
   -3.1145   13.4498    0.0000 H   0  0  0  0  0  0  0  0  0  0  0  0
   -3.1557   11.8165    0.0000 H   0  0  0  0  0  0  0  0  0  0  0  0
    0.0780   14.8161    0.0000 H   0  0  0  0  0  0  0  0  0  0  0  0
    0.1421   13.0328    0.0000 H   0  0  0  0  0  0  0  0  0  0  0  0
   -1.0295   16.4784    0.0000 H   0  0  0  0  0  0  0  0  0  0  0  0
   -2.9364   16.1915    0.0000 H   0  0  0  0  0  0  0  0  0  0  0  0
   -3.0902   14.4137    0.0000 H   0  0  0  0  0  0  0  0  0  0  0  0
    2.1351    9.3815    0.0000 H   0  0  0  0  0  0  0  0  0  0  0  0
    4.3505    7.7600    0.0000 H   0  0  0  0  0  0  0  0  0  0  0  0
    4.4209    9.3430    0.0000 H   0  0  0  0  0  0  0  0  0  0  0  0
    2.8405   10.1717    0.0000 H   0  0  0  0  0  0  0  0  0  0  0  0
    1.5860    8.9028    0.0000 H   0  0  0  0  0  0  0  0  0  0  0  0
    6.1647    5.9609    0.0000 H   0  0  0  0  0  0  0  0  0  0  0  0
    7.1074    3.2213    0.0000 H   0  0  0  0  0  0  0  0  0  0  0  0
    5.4439    5.8550    0.0000 H   0  0  0  0  0  0  0  0  0  0  0  0
    8.4158    6.8023    0.0000 H   0  0  0  0  0  0  0  0  0  0  0  0
    9.1069    5.7735    0.0000 H   0  0  0  0  0  0  0  0  0  0  0  0
    9.4045    4.0141    0.0000 H   0  0  0  0  0  0  0  0  0  0  0  0
    7.9910    3.1946    0.0000 H   0  0  0  0  0  0  0  0  0  0  0  0
    7.7053    0.9047    0.0000 H   0  0  0  0  0  0  0  0  0  0  0  0
    7.1209   -2.1268    0.0000 H   0  0  0  0  0  0  0  0  0  0  0  0
    6.5004   -3.4075    0.0000 H   0  0  0  0  0  0  0  0  0  0  0  0
    6.3684   -3.9176    0.0000 H   0  0  0  0  0  0  0  0  0  0  0  0
    5.7157   -4.7913    0.0000 H   0  0  0  0  0  0  0  0  0  0  0  0
    5.3996   -5.1856    0.0000 H   0  0  0  0  0  0  0  0  0  0  0  0
    4.3475   -6.1438    0.0000 H   0  0  0  0  0  0  0  0  0  0  0  0
    3.7003   -6.8901    0.0000 H   0  0  0  0  0  0  0  0  0  0  0  0
    7.2076   -3.3081    0.0000 H   0  0  0  0  0  0  0  0  0  0  0  0
    8.4300   -2.5247    0.0000 H   0  0  0  0  0  0  0  0  0  0  0  0
    8.2218   -0.7337    0.0000 H   0  0  0  0  0  0  0  0  0  0  0  0
    8.5512   -2.6889    0.0000 H   0  0  0  0  0  0  0  0  0  0  0  0
    9.2675    0.6258    0.0000 H   0  0  0  0  0  0  0  0  0  0  0  0
   11.9102    1.6073    0.0000 H   0  0  0  0  0  0  0  0  0  0  0  0
   10.0134    1.2600    0.0000 H   0  0  0  0  0  0  0  0  0  0  0  0
   11.8359   -2.7796    0.0000 H   0  0  0  0  0  0  0  0  0  0  0  0
   14.8837   -3.5460    0.0000 H   0  0  0  0  0  0  0  0  0  0  0  0
   17.8360   -0.6082    0.0000 H   0  0  0  0  0  0  0  0  0  0  0  0
   16.2799    1.2391    0.0000 H   0  0  0  0  0  0  0  0  0  0  0  0
   13.4542    2.2467    0.0000 H   0  0  0  0  0  0  0  0  0  0  0  0
   13.1887    0.2715    0.0000 H   0  0  0  0  0  0  0  0  0  0  0  0
   12.4902   -2.8845    0.0000 H   0  0  0  0  0  0  0  0  0  0  0  0
   15.8452   -2.6872    0.0000 H   0  0  0  0  0  0  0  0  0  0  0  0
   14.3415   -6.0523    0.0000 H   0  0  0  0  0  0  0  0  0  0  0  0
   12.6170   -5.6291    0.0000 H   0  0  0  0  0  0  0  0  0  0  0  0
   12.4965   -3.8487    0.0000 H   0  0  0  0  0  0  0  0  0  0  0  0
   17.0695   -4.8140    0.0000 H   0  0  0  0  0  0  0  0  0  0  0  0
   16.6916   -3.2244    0.0000 H   0  0  0  0  0  0  0  0  0  0  0  0
   16.5612   -6.7457    0.0000 H   0  0  0  0  0  0  0  0  0  0  0  0
   14.6643   -7.0929    0.0000 H   0  0  0  0  0  0  0  0  0  0  0  0
   13.9130   -5.6421    0.0000 H   0  0  0  0  0  0  0  0  0  0  0  0
   16.4188   -3.9894    0.0000 H   0  0  0  0  0  0  0  0  0  0  0  0
   16.9520   -0.6775    0.0000 H   0  0  0  0  0  0  0  0  0  0  0  0
   19.4303    0.3846    0.0000 H   0  0  0  0  0  0  0  0  0  0  0  0
   17.8231    0.0904    0.0000 H   0  0  0  0  0  0  0  0  0  0  0  0
   20.2237   -3.0031    0.0000 H   0  0  0  0  0  0  0  0  0  0  0  0
   22.9016   -0.6790    0.0000 H   0  0  0  0  0  0  0  0  0  0  0  0
   22.1503    0.7718    0.0000 H   0  0  0  0  0  0  0  0  0  0  0  0
   20.3787    0.5583    0.0000 H   0  0  0  0  0  0  0  0  0  0  0  0
   21.5359   -3.9560    0.0000 H   0  0  0  0  0  0  0  0  0  0  0  0
   22.9210   -2.4243    0.0000 H   0  0  0  0  0  0  0  0  0  0  0  0
   22.3163   -1.2566    0.0000 H   0  0  0  0  0  0  0  0  0  0  0  0
   20.8732   -1.0318    0.0000 H   0  0  0  0  0  0  0  0  0  0  0  0
   20.2846   -4.3344    0.0000 H   0  0  0  0  0  0  0  0  0  0  0  0
   23.3411   -5.6135    0.0000 H   0  0  0  0  0  0  0  0  0  0  0  0
   23.5297   -3.9905    0.0000 H   0  0  0  0  0  0  0  0  0  0  0  0
   22.2028   -7.2548    0.0000 H   0  0  0  0  0  0  0  0  0  0  0  0
  1  2  1  0
  2  3  1  0
  3  4  1  0
  4  5  2  0
  4  6  1  0
  6  7  1  0
  7  8  1  0
  8  9  1  0
  9 10  1  0
 10 11  1  0
 11 12  1  0
  7 13  1  0
 13 14  2  0
 13 15  1  0
 15 16  1  0
 16 17  1  0
 17 18  1  0
 16 19  1  0
 19 20  2  0
 19 21  1  0
 22 21  1  1
 22 23  1  0
 23 24  1  0
 24 25  1  0
 25 26  1  0
 26 27  1  0
 27 28  1  0
 28 29  1  0
 22 30  1  0
 22 31  1  0
 31 32  2  0
 31 33  1  0
 33 34  1  0
 34 35  1  0
 35 36  1  0
 35 37  1  0
 37 38  1  0
 34 39  1  0
 39 40  2  0
 39 41  1  0
 41 42  1  0
 42 43  1  0
 43 44  1  0
 44 45  1  0
 44 46  1  0
 42 47  1  0
 47 48  2  0
 47 49  1  0
 49 50  1  0
 50 51  1  0
 51 52  1  0
 52 53  1  0
 53 54  1  0
 54 55  1  0
 50 56  1  0
 56 57  2  0
 56 58  1  0
 58 59  1  0
 59 60  1  0
 60 61  1  0
 61 62  1  0
 62 63  1  0
 63 64  1  0
 59 65  1  0
 65 66  2  0
 65 67  1  0
 67 68  1  0
 68 69  1  0
 68 70  1  0
 70 71  2  0
 70 72  1  0
 72 73  1  0
 73 74  1  0
 74 75  1  0
 74 76  1  0
 73 77  1  0
 77 78  2  0
 77 79  1  0
 79 80  1  0
 80 81  1  0
 81 82  1  0
 82 83  1  0
 83 84  1  0
 80 85  1  0
 80 86  1  6
 86 87  2  0
 86 88  1  0
 88 89  1  0
 89 90  1  0
 90 91  1  0
 91 92  2  0
 92 93  1  0
 93 94  2  0
 94 95  1  0
 94 96  1  0
 96 97  2  0
 89 98  1  0
 98 99  2  0
 98100  1  0
100101  1  0
101102  1  0
102103  1  0
102104  1  0
104105  1  0
101106  1  0
106107  2  0
106108  1  0
108109  1  0
109110  1  0
110111  1  0
111112  1  0
111113  1  0
109114  1  0
114115  2  0
114116  1  0
116117  1  0
117118  1  0
118119  1  0
117120  1  0
120121  2  0
120122  1  0
 97 91  1  0
 29 84  2  0
  1123  1  0
  1124  1  0
  2125  1  0
  2126  1  0
  3127  1  0
  3128  1  0
  6129  1  0
  7130  1  6
  8131  1  0
  8132  1  0
  9133  1  0
  9134  1  0
 10135  1  0
 10136  1  0
 11137  1  0
 11138  1  0
 12139  1  0
 12140  1  0
 12141  1  0
 15142  1  0
 16143  1  1
 17144  1  0
 17145  1  0
 18146  1  0
 18147  1  0
 18148  1  0
 21149  1  0
 23150  1  0
 23151  1  0
 24152  1  0
 24153  1  0
 25154  1  0
 25155  1  0
 26156  1  0
 26157  1  0
 27158  1  0
 27159  1  0
 28160  1  0
 28161  1  0
 29162  1  0
 30163  1  0
 30164  1  0
 30165  1  0
 33166  1  0
 34167  1  1
 35168  1  1
 36169  1  0
 36170  1  0
 36171  1  0
 37172  1  0
 37173  1  0
 38174  1  0
 38175  1  0
 38176  1  0
 41177  1  0
 42178  1  1
 43179  1  0
 43180  1  0
 44181  1  0
 45182  1  0
 45183  1  0
 45184  1  0
 46185  1  0
 46186  1  0
 46187  1  0
 49188  1  0
 50189  1  1
 51190  1  0
 51191  1  0
 52192  1  0
 52193  1  0
 53194  1  0
 53195  1  0
 54196  1  0
 54197  1  0
 55198  1  0
 55199  1  0
 55200  1  0
 58201  1  0
 59202  1  1
 60203  1  0
 60204  1  0
 61205  1  0
 61206  1  0
 62207  1  0
 62208  1  0
 63209  1  0
 63210  1  0
 64211  1  0
 64212  1  0
 64213  1  0
 67214  1  0
 68215  1  1
 69216  1  0
 69217  1  0
 69218  1  0
 72219  1  0
 73220  1  1
 74221  1  1
 75222  1  0
 76223  1  0
 76224  1  0
 76225  1  0
 79226  1  0
 81227  1  0
 81228  1  0
 82229  1  0
 82230  1  0
 83231  1  0
 83232  1  0
 84233  1  0
 85234  1  0
 85235  1  0
 85236  1  0
 88237  1  0
 89238  1  1
 90239  1  0
 90240  1  0
 92241  1  0
 93242  1  0
 95243  1  0
 96244  1  0
 97245  1  0
100246  1  0
101247  1  6
102248  1  1
103249  1  0
103250  1  0
103251  1  0
104252  1  0
104253  1  0
105254  1  0
105255  1  0
105256  1  0
108257  1  0
109258  1  1
110259  1  0
110260  1  0
111261  1  0
112262  1  0
112263  1  0
112264  1  0
113265  1  0
113266  1  0
113267  1  0
116268  1  0
117269  1  6
118270  1  0
118271  1  0
119272  1  0
M  CHG  4  12   1  55   1  64   1 122  -1
M  END
