
     RDKit          2D

272273  0  0  0  0  0  0  0  0999 V2000
  -17.8552   -5.7711    0.0000 N   0  0  0  0  0  0  0  0  0  0  0  0
  -17.1765   -4.4335    0.0000 C   0  0  0  0  0  0  0  0  0  0  0  0
  -17.9956   -3.1769    0.0000 C   0  0  0  0  0  0  0  0  0  0  0  0
  -17.3168   -1.8392    0.0000 C   0  0  0  0  0  0  0  0  0  0  0  0
  -15.8190   -1.7581    0.0000 O   0  0  0  0  0  0  0  0  0  0  0  0
  -18.1359   -0.5826    0.0000 N   0  0  0  0  0  0  0  0  0  0  0  0
  -17.4572    0.7551    0.0000 C   0  0  0  0  0  0  0  0  0  0  0  0
  -18.8924    1.1912    0.0000 C   0  0  0  0  0  0  0  0  0  0  0  0
  -19.2323    2.6522    0.0000 C   0  0  0  0  0  0  0  0  0  0  0  0
  -18.1370    3.6770    0.0000 C   0  0  0  0  0  0  0  0  0  0  0  0
  -18.4770    5.1380    0.0000 C   0  0  0  0  0  0  0  0  0  0  0  0
  -19.9122    5.5741    0.0000 C   0  0  0  0  0  0  0  0  0  0  0  0
  -20.2521    7.0351    0.0000 O   0  0  0  0  0  0  0  0  0  0  0  0
  -21.0074    4.5493    0.0000 C   0  0  0  0  0  0  0  0  0  0  0  0
  -20.6675    3.0883    0.0000 C   0  0  0  0  0  0  0  0  0  0  0  0
  -16.3619    1.7799    0.0000 C   0  0  0  0  0  0  0  0  0  0  0  0
  -16.4664    2.7585    0.0000 O   0  0  0  0  0  0  0  0  0  0  0  0
  -14.9267    1.3438    0.0000 N   0  0  0  0  0  0  0  0  0  0  0  0
  -13.8314    2.3687    0.0000 C   0  0  0  0  0  0  0  0  0  0  0  0
  -12.3962    1.9326    0.0000 C   0  0  0  0  0  0  0  0  0  0  0  0
  -12.0563    0.4716    0.0000 O   0  0  0  0  0  0  0  0  0  0  0  0
  -11.3010    2.9574    0.0000 N   0  0  0  0  0  0  0  0  0  0  0  0
   -9.8658    2.5213    0.0000 C   0  0  0  0  0  0  0  0  0  0  0  0
   -9.6855    4.0104    0.0000 C   0  0  0  0  0  0  0  0  0  0  0  0
  -10.8850    4.9111    0.0000 C   0  0  0  0  0  0  0  0  0  0  0  0
  -10.7047    6.4002    0.0000 C   0  0  0  0  0  0  0  0  0  0  0  0
  -11.9042    7.3009    0.0000 N   0  0  0  0  0  0  0  0  0  0  0  0
  -11.7239    8.7901    0.0000 C   0  0  0  0  0  0  0  0  0  0  0  0
  -12.9234    9.6907    0.0000 N   0  0  0  0  0  0  0  0  0  0  0  0
  -10.3441    9.3785    0.0000 N   0  0  0  0  0  0  0  0  0  0  0  0
   -8.6663    1.6206    0.0000 C   0  0  0  0  0  0  0  0  0  0  0  0
   -7.2865    2.2091    0.0000 O   0  0  0  0  0  0  0  0  0  0  0  0
   -8.8465    0.1315    0.0000 N   0  0  0  0  0  0  0  0  0  0  0  0
   -7.6471   -0.7692    0.0000 C   0  0  0  0  0  0  0  0  0  0  0  0
   -8.7423   -1.7941    0.0000 C   0  0  0  0  0  0  0  0  0  0  0  0
  -10.1775   -1.3579    0.0000 C   0  0  0  0  0  0  0  0  0  0  0  0
  -11.2728   -2.3828    0.0000 C   0  0  0  0  0  0  0  0  0  0  0  0
  -12.7080   -1.9467    0.0000 C   0  0  0  0  0  0  0  0  0  0  0  0
  -13.8033   -2.9715    0.0000 N   0  0  0  0  0  0  0  0  0  0  0  0
   -6.2119   -1.2053    0.0000 C   0  0  0  0  0  0  0  0  0  0  0  0
   -6.0526   -2.6968    0.0000 O   0  0  0  0  0  0  0  0  0  0  0  0
   -5.1166   -0.1805    0.0000 N   0  0  0  0  0  0  0  0  0  0  0  0
   -3.6814   -0.6166    0.0000 C   0  0  0  0  0  0  0  0  0  0  0  0
   -3.9279    0.8630    0.0000 C   0  0  0  0  0  0  0  0  0  0  0  0
   -3.8900    2.3625    0.0000 C   0  0  0  0  0  0  0  0  0  0  0  0
   -3.5690    3.8278    0.0000 C   0  0  0  0  0  0  0  0  0  0  0  0
   -2.9765    5.2058    0.0000 C   0  0  0  0  0  0  0  0  0  0  0  0
   -4.7095   -1.7088    0.0000 C   0  0  0  0  0  0  0  0  0  0  0  0
   -3.1592   -2.0228    0.0000 C   0  0  0  0  0  0  0  0  0  0  0  0
   -4.4197   -2.8359    0.0000 O   0  0  0  0  0  0  0  0  0  0  0  0
   -2.3804   -3.3047    0.0000 N   0  0  0  0  0  0  0  0  0  0  0  0
   -1.3731   -4.4162    0.0000 C   0  0  0  0  0  0  0  0  0  0  0  0
   -1.6474   -5.8909    0.0000 C   0  0  0  0  0  0  0  0  0  0  0  0
   -3.0617   -6.3906    0.0000 C   0  0  0  0  0  0  0  0  0  0  0  0
   -3.3361   -7.8653    0.0000 C   0  0  0  0  0  0  0  0  0  0  0  0
   -4.7504   -8.3650    0.0000 N   0  0  0  0  0  0  0  0  0  0  0  0
   -5.0248   -9.8397    0.0000 C   0  0  0  0  0  0  0  0  0  0  0  0
   -6.4391  -10.3395    0.0000 N   0  0  0  0  0  0  0  0  0  0  0  0
   -3.8848  -10.8147    0.0000 N   0  0  0  0  0  0  0  0  0  0  0  0
   -0.1736   -5.3168    0.0000 C   0  0  0  0  0  0  0  0  0  0  0  0
   -0.7944   -6.6824    0.0000 O   0  0  0  0  0  0  0  0  0  0  0  0
    1.1747   -5.9743    0.0000 N   0  0  0  0  0  0  0  0  0  0  0  0
    2.6230   -6.3646    0.0000 C   0  0  0  0  0  0  0  0  0  0  0  0
    3.1895   -7.7535    0.0000 C   0  0  0  0  0  0  0  0  0  0  0  0
    2.2699   -8.9386    0.0000 C   0  0  0  0  0  0  0  0  0  0  0  0
    2.8363  -10.3275    0.0000 C   0  0  0  0  0  0  0  0  0  0  0  0
    1.9167  -11.5125    0.0000 N   0  0  0  0  0  0  0  0  0  0  0  0
    2.4832  -12.9015    0.0000 C   0  0  0  0  0  0  0  0  0  0  0  0
    1.5636  -14.0865    0.0000 N   0  0  0  0  0  0  0  0  0  0  0  0
    3.9693  -13.1054    0.0000 N   0  0  0  0  0  0  0  0  0  0  0  0
    4.1190   -6.4738    0.0000 C   0  0  0  0  0  0  0  0  0  0  0  0
    4.3350   -7.9582    0.0000 O   0  0  0  0  0  0  0  0  0  0  0  0
    5.6087   -6.2980    0.0000 N   0  0  0  0  0  0  0  0  0  0  0  0
    7.0381   -5.8433    0.0000 C   0  0  0  0  0  0  0  0  0  0  0  0
    8.2656   -6.7055    0.0000 C   0  0  0  0  0  0  0  0  0  0  0  0
    8.1326   -8.1996    0.0000 C   0  0  0  0  0  0  0  0  0  0  0  0
    9.3601   -9.0618    0.0000 C   0  0  0  0  0  0  0  0  0  0  0  0
    9.2271  -10.5559    0.0000 N   0  0  0  0  0  0  0  0  0  0  0  0
   10.7205   -8.4299    0.0000 O   0  0  0  0  0  0  0  0  0  0  0  0
    8.3557   -5.1264    0.0000 C   0  0  0  0  0  0  0  0  0  0  0  0
    9.3399   -6.2583    0.0000 O   0  0  0  0  0  0  0  0  0  0  0  0
    9.5138   -4.1731    0.0000 N   0  0  0  0  0  0  0  0  0  0  0  0
   10.4705   -3.0178    0.0000 C   0  0  0  0  0  0  0  0  0  0  0  0
   11.9692   -3.0795    0.0000 C   0  0  0  0  0  0  0  0  0  0  0  0
   12.6652   -4.4083    0.0000 C   0  0  0  0  0  0  0  0  0  0  0  0
   14.1639   -4.4700    0.0000 C   0  0  0  0  0  0  0  0  0  0  0  0
   14.8598   -5.7988    0.0000 N   0  0  0  0  0  0  0  0  0  0  0  0
   16.3586   -5.8605    0.0000 C   0  0  0  0  0  0  0  0  0  0  0  0
   17.0545   -7.1892    0.0000 N   0  0  0  0  0  0  0  0  0  0  0  0
   17.1614   -4.5934    0.0000 N   0  0  0  0  0  0  0  0  0  0  0  0
   11.1913   -1.7023    0.0000 C   0  0  0  0  0  0  0  0  0  0  0  0
   12.6313   -2.1225    0.0000 O   0  0  0  0  0  0  0  0  0  0  0  0
   11.6502   -0.2742    0.0000 N   0  0  0  0  0  0  0  0  0  0  0  0
   11.8304    1.2149    0.0000 C   0  0  0  0  0  0  0  0  0  0  0  0
   13.1246    1.9733    0.0000 C   0  0  0  0  0  0  0  0  0  0  0  0
   14.4285    1.2317    0.0000 C   0  0  0  0  0  0  0  0  0  0  0  0
   15.7226    1.9900    0.0000 C   0  0  0  0  0  0  0  0  0  0  0  0
   17.0265    1.2484    0.0000 N   0  0  0  0  0  0  0  0  0  0  0  0
   18.3206    2.0068    0.0000 C   0  0  0  0  0  0  0  0  0  0  0  0
   19.6245    1.2652    0.0000 N   0  0  0  0  0  0  0  0  0  0  0  0
   18.3110    3.5068    0.0000 N   0  0  0  0  0  0  0  0  0  0  0  0
   11.7256    2.7112    0.0000 C   0  0  0  0  0  0  0  0  0  0  0  0
   13.1641    3.1363    0.0000 O   0  0  0  0  0  0  0  0  0  0  0  0
   11.3395    4.1607    0.0000 N   0  0  0  0  0  0  0  0  0  0  0  0
   10.6861    5.5109    0.0000 C   0  0  0  0  0  0  0  0  0  0  0  0
   11.3648    6.8485    0.0000 C   0  0  0  0  0  0  0  0  0  0  0  0
   12.8626    6.9296    0.0000 C   0  0  0  0  0  0  0  0  0  0  0  0
   13.5414    8.2673    0.0000 C   0  0  0  0  0  0  0  0  0  0  0  0
   15.0392    8.3483    0.0000 N   0  0  0  0  0  0  0  0  0  0  0  0
   15.7179    9.6860    0.0000 C   0  0  0  0  0  0  0  0  0  0  0  0
   17.2157    9.7670    0.0000 N   0  0  0  0  0  0  0  0  0  0  0  0
   14.8988   10.9426    0.0000 N   0  0  0  0  0  0  0  0  0  0  0  0
    9.7890    6.7130    0.0000 C   0  0  0  0  0  0  0  0  0  0  0  0
   10.7693    7.8483    0.0000 O   0  0  0  0  0  0  0  0  0  0  0  0
    8.6805    7.7236    0.0000 N   0  0  0  0  0  0  0  0  0  0  0  0
    7.4009    8.5062    0.0000 C   0  0  0  0  0  0  0  0  0  0  0  0
    5.9962    9.0325    0.0000 C   0  0  0  0  0  0  0  0  0  0  0  0
    4.5174    9.2834    0.0000 C   0  0  0  0  0  0  0  0  0  0  0  0
    3.0177    9.2499    0.0000 C   0  0  0  0  0  0  0  0  0  0  0  0
    1.5515    8.9333    0.0000 C   0  0  0  0  0  0  0  0  0  0  0  0
    0.1718    8.3448    0.0000 C   0  0  0  0  0  0  0  0  0  0  0  0
   -1.0717    7.5059    0.0000 C   0  0  0  0  0  0  0  0  0  0  0  0
   -2.1339    6.4468    0.0000 C   0  0  0  0  0  0  0  0  0  0  0  0
    8.6703    9.3053    0.0000 C   0  0  0  0  0  0  0  0  0  0  0  0
    7.2486    9.9985    0.0000 C   0  0  0  0  0  0  0  0  0  0  0  0
    8.3488   11.0181    0.0000 O   0  0  0  0  0  0  0  0  0  0  0  0
    6.0695   10.9257    0.0000 O   0  0  0  0  0  0  0  0  0  0  0  0
  -17.0361   -7.0278    0.0000 H   0  0  0  0  0  0  0  0  0  0  0  0
  -19.3530   -5.8522    0.0000 H   0  0  0  0  0  0  0  0  0  0  0  0
  -15.9770   -5.3342    0.0000 H   0  0  0  0  0  0  0  0  0  0  0  0
  -16.0812   -3.4086    0.0000 H   0  0  0  0  0  0  0  0  0  0  0  0
  -19.0909   -4.2017    0.0000 H   0  0  0  0  0  0  0  0  0  0  0  0
  -19.1950   -2.2762    0.0000 H   0  0  0  0  0  0  0  0  0  0  0  0
  -19.1048   -0.7551    0.0000 H   0  0  0  0  0  0  0  0  0  0  0  0
  -16.2577   -0.1456    0.0000 H   0  0  0  0  0  0  0  0  0  0  0  0
  -20.3902    1.1102    0.0000 H   0  0  0  0  0  0  0  0  0  0  0  0
  -19.1289    0.2359    0.0000 H   0  0  0  0  0  0  0  0  0  0  0  0
  -17.1676    3.5078    0.0000 H   0  0  0  0  0  0  0  0  0  0  0  0
  -17.3817    6.1629    0.0000 H   0  0  0  0  0  0  0  0  0  0  0  0
  -21.6873    7.4712    0.0000 H   0  0  0  0  0  0  0  0  0  0  0  0
  -22.4426    4.9854    0.0000 H   0  0  0  0  0  0  0  0  0  0  0  0
  -21.7628    2.0635    0.0000 H   0  0  0  0  0  0  0  0  0  0  0  0
  -14.5868   -0.1172    0.0000 H   0  0  0  0  0  0  0  0  0  0  0  0
  -15.0309    3.2694    0.0000 H   0  0  0  0  0  0  0  0  0  0  0  0
  -13.1527    3.7064    0.0000 H   0  0  0  0  0  0  0  0  0  0  0  0
  -11.5749    3.7060    0.0000 H   0  0  0  0  0  0  0  0  0  0  0  0
  -10.5445    1.1836    0.0000 H   0  0  0  0  0  0  0  0  0  0  0  0
   -8.8488    5.2554    0.0000 H   0  0  0  0  0  0  0  0  0  0  0  0
   -8.2503    3.5743    0.0000 H   0  0  0  0  0  0  0  0  0  0  0  0
  -12.3202    5.3472    0.0000 H   0  0  0  0  0  0  0  0  0  0  0  0
  -11.5422    4.3174    0.0000 H   0  0  0  0  0  0  0  0  0  0  0  0
  -10.0260    7.7379    0.0000 H   0  0  0  0  0  0  0  0  0  0  0  0
   -9.2270    6.1423    0.0000 H   0  0  0  0  0  0  0  0  0  0  0  0
  -13.2839    6.7125    0.0000 H   0  0  0  0  0  0  0  0  0  0  0  0
  -12.7431   11.1799    0.0000 H   0  0  0  0  0  0  0  0  0  0  0  0
  -14.3031    9.1023    0.0000 H   0  0  0  0  0  0  0  0  0  0  0  0
  -10.1639   10.8676    0.0000 H   0  0  0  0  0  0  0  0  0  0  0  0
   -9.1447    8.4778    0.0000 H   0  0  0  0  0  0  0  0  0  0  0  0
  -10.2877   -0.2844    0.0000 H   0  0  0  0  0  0  0  0  0  0  0  0
   -6.9683    0.5685    0.0000 H   0  0  0  0  0  0  0  0  0  0  0  0
   -9.2529   -3.2045    0.0000 H   0  0  0  0  0  0  0  0  0  0  0  0
   -7.5429   -2.6947    0.0000 H   0  0  0  0  0  0  0  0  0  0  0  0
  -11.2583   -0.3178    0.0000 H   0  0  0  0  0  0  0  0  0  0  0  0
  -10.0234    0.1341    0.0000 H   0  0  0  0  0  0  0  0  0  0  0  0
  -11.7834   -3.7932    0.0000 H   0  0  0  0  0  0  0  0  0  0  0  0
  -10.1921   -3.4230    0.0000 H   0  0  0  0  0  0  0  0  0  0  0  0
  -13.9075   -1.0460    0.0000 H   0  0  0  0  0  0  0  0  0  0  0  0
  -12.1974   -0.5363    0.0000 H   0  0  0  0  0  0  0  0  0  0  0  0
  -15.2385   -2.5354    0.0000 H   0  0  0  0  0  0  0  0  0  0  0  0
  -14.4820   -4.3092    0.0000 H   0  0  0  0  0  0  0  0  0  0  0  0
  -12.7226   -4.0117    0.0000 H   0  0  0  0  0  0  0  0  0  0  0  0
   -5.7999    1.1549    0.0000 H   0  0  0  0  0  0  0  0  0  0  0  0
   -5.3204    0.3054    0.0000 H   0  0  0  0  0  0  0  0  0  0  0  0
   -5.2547    1.5629    0.0000 H   0  0  0  0  0  0  0  0  0  0  0  0
   -5.3629    2.0786    0.0000 H   0  0  0  0  0  0  0  0  0  0  0  0
   -5.1660    3.1512    0.0000 H   0  0  0  0  0  0  0  0  0  0  0  0
   -5.0578    3.6449    0.0000 H   0  0  0  0  0  0  0  0  0  0  0  0
   -4.5406    4.9706    0.0000 H   0  0  0  0  0  0  0  0  0  0  0  0
   -4.2920    5.9266    0.0000 H   0  0  0  0  0  0  0  0  0  0  0  0
   -6.2093   -1.7281    0.0000 H   0  0  0  0  0  0  0  0  0  0  0  0
   -5.3020   -3.0869    0.0000 H   0  0  0  0  0  0  0  0  0  0  0  0
   -3.6916   -2.8107    0.0000 H   0  0  0  0  0  0  0  0  0  0  0  0
   -3.6830   -4.0487    0.0000 H   0  0  0  0  0  0  0  0  0  0  0  0
   -2.8553   -4.6462    0.0000 H   0  0  0  0  0  0  0  0  0  0  0  0
   -1.4009   -7.3705    0.0000 H   0  0  0  0  0  0  0  0  0  0  0  0
   -0.1955   -6.2675    0.0000 H   0  0  0  0  0  0  0  0  0  0  0  0
   -4.5617   -6.3765    0.0000 H   0  0  0  0  0  0  0  0  0  0  0  0
   -3.6590   -5.0146    0.0000 H   0  0  0  0  0  0  0  0  0  0  0  0
   -3.0895   -9.3449    0.0000 H   0  0  0  0  0  0  0  0  0  0  0  0
   -1.8491   -8.0621    0.0000 H   0  0  0  0  0  0  0  0  0  0  0  0
   -5.8903   -7.3901    0.0000 H   0  0  0  0  0  0  0  0  0  0  0  0
   -6.7134  -11.8142    0.0000 H   0  0  0  0  0  0  0  0  0  0  0  0
   -7.5790   -9.3645    0.0000 H   0  0  0  0  0  0  0  0  0  0  0  0
   -4.1592  -12.2894    0.0000 H   0  0  0  0  0  0  0  0  0  0  0  0
   -2.4705  -10.3149    0.0000 H   0  0  0  0  0  0  0  0  0  0  0  0
    0.4811   -7.3043    0.0000 H   0  0  0  0  0  0  0  0  0  0  0  0
    1.5004   -7.3595    0.0000 H   0  0  0  0  0  0  0  0  0  0  0  0
    4.1968   -8.8650    0.0000 H   0  0  0  0  0  0  0  0  0  0  0  0
    4.6145   -7.2854    0.0000 H   0  0  0  0  0  0  0  0  0  0  0  0
    1.0004   -9.7376    0.0000 H   0  0  0  0  0  0  0  0  0  0  0  0
    1.0235   -8.1040    0.0000 H   0  0  0  0  0  0  0  0  0  0  0  0
    3.8437  -11.4389    0.0000 H   0  0  0  0  0  0  0  0  0  0  0  0
    4.1937   -9.6892    0.0000 H   0  0  0  0  0  0  0  0  0  0  0  0
    0.4306  -11.3087    0.0000 H   0  0  0  0  0  0  0  0  0  0  0  0
    2.1301  -15.4754    0.0000 H   0  0  0  0  0  0  0  0  0  0  0  0
    0.0775  -13.8826    0.0000 H   0  0  0  0  0  0  0  0  0  0  0  0
    4.5358  -14.4943    0.0000 H   0  0  0  0  0  0  0  0  0  0  0  0
    4.8889  -11.9203    0.0000 H   0  0  0  0  0  0  0  0  0  0  0  0
    5.7443   -7.7918    0.0000 H   0  0  0  0  0  0  0  0  0  0  0  0
    6.6316   -7.2872    0.0000 H   0  0  0  0  0  0  0  0  0  0  0  0
    9.6555   -7.2695    0.0000 H   0  0  0  0  0  0  0  0  0  0  0  0
    9.2113   -5.5412    0.0000 H   0  0  0  0  0  0  0  0  0  0  0  0
    7.4967   -9.5581    0.0000 H   0  0  0  0  0  0  0  0  0  0  0  0
    6.6329   -8.1713    0.0000 H   0  0  0  0  0  0  0  0  0  0  0  0
   10.4546  -11.4181    0.0000 H   0  0  0  0  0  0  0  0  0  0  0  0
    7.8667  -11.1878    0.0000 H   0  0  0  0  0  0  0  0  0  0  0  0
   10.4355   -5.3565    0.0000 H   0  0  0  0  0  0  0  0  0  0  0  0
   10.9092   -4.4522    0.0000 H   0  0  0  0  0  0  0  0  0  0  0  0
   13.3987   -2.6249    0.0000 H   0  0  0  0  0  0  0  0  0  0  0  0
   12.1354   -1.5887    0.0000 H   0  0  0  0  0  0  0  0  0  0  0  0
   12.8647   -5.8950    0.0000 H   0  0  0  0  0  0  0  0  0  0  0  0
   11.3882   -5.1953    0.0000 H   0  0  0  0  0  0  0  0  0  0  0  0
   15.5934   -4.0154    0.0000 H   0  0  0  0  0  0  0  0  0  0  0  0
   14.1471   -2.9701    0.0000 H   0  0  0  0  0  0  0  0  0  0  0  0
   14.0570   -7.0659    0.0000 H   0  0  0  0  0  0  0  0  0  0  0  0
   18.5532   -7.2509    0.0000 H   0  0  0  0  0  0  0  0  0  0  0  0
   16.2517   -8.4563    0.0000 H   0  0  0  0  0  0  0  0  0  0  0  0
   18.6601   -4.6551    0.0000 H   0  0  0  0  0  0  0  0  0  0  0  0
   16.4654   -3.2646    0.0000 H   0  0  0  0  0  0  0  0  0  0  0  0
   13.0654   -0.7715    0.0000 H   0  0  0  0  0  0  0  0  0  0  0  0
   12.9750    0.2453    0.0000 H   0  0  0  0  0  0  0  0  0  0  0  0
   14.0813    3.1285    0.0000 H   0  0  0  0  0  0  0  0  0  0  0  0
   12.4584    3.3172    0.0000 H   0  0  0  0  0  0  0  0  0  0  0  0
   15.4000    0.0888    0.0000 H   0  0  0  0  0  0  0  0  0  0  0  0
   13.7797   -0.1208    0.0000 H   0  0  0  0  0  0  0  0  0  0  0  0
   16.6794    3.1453    0.0000 H   0  0  0  0  0  0  0  0  0  0  0  0
   14.8976    3.2428    0.0000 H   0  0  0  0  0  0  0  0  0  0  0  0
   17.0362   -0.2515    0.0000 H   0  0  0  0  0  0  0  0  0  0  0  0
   20.9187    2.0236    0.0000 H   0  0  0  0  0  0  0  0  0  0  0  0
   19.6342   -0.2347    0.0000 H   0  0  0  0  0  0  0  0  0  0  0  0
   19.6051    4.2652    0.0000 H   0  0  0  0  0  0  0  0  0  0  0  0
   17.0071    4.2484    0.0000 H   0  0  0  0  0  0  0  0  0  0  0  0
   12.7989    4.5075    0.0000 H   0  0  0  0  0  0  0  0  0  0  0  0
   12.1731    5.3140    0.0000 H   0  0  0  0  0  0  0  0  0  0  0  0
   11.5451    8.3377    0.0000 H   0  0  0  0  0  0  0  0  0  0  0  0
   10.0778    7.6190    0.0000 H   0  0  0  0  0  0  0  0  0  0  0  0
   14.2978    6.4935    0.0000 H   0  0  0  0  0  0  0  0  0  0  0  0
   13.0481    5.4411    0.0000 H   0  0  0  0  0  0  0  0  0  0  0  0
   13.7216    9.7564    0.0000 H   0  0  0  0  0  0  0  0  0  0  0  0
   12.1700    8.8751    0.0000 H   0  0  0  0  0  0  0  0  0  0  0  0
   15.8583    7.0917    0.0000 H   0  0  0  0  0  0  0  0  0  0  0  0
   17.8944   11.1047    0.0000 H   0  0  0  0  0  0  0  0  0  0  0  0
   18.0348    8.5104    0.0000 H   0  0  0  0  0  0  0  0  0  0  0  0
   15.5775   12.2802    0.0000 H   0  0  0  0  0  0  0  0  0  0  0  0
   13.4010   10.8615    0.0000 H   0  0  0  0  0  0  0  0  0  0  0  0
    9.7207    8.8044    0.0000 H   0  0  0  0  0  0  0  0  0  0  0  0
    5.5643   10.4690    0.0000 H   0  0  0  0  0  0  0  0  0  0  0  0
    6.8110   10.2919    0.0000 H   0  0  0  0  0  0  0  0  0  0  0  0
    3.9886   10.6871    0.0000 H   0  0  0  0  0  0  0  0  0  0  0  0
    5.0790   10.6743    0.0000 H   0  0  0  0  0  0  0  0  0  0  0  0
    2.2329   10.5282    0.0000 H   0  0  0  0  0  0  0  0  0  0  0  0
    3.4833   10.6759    0.0000 H   0  0  0  0  0  0  0  0  0  0  0  0
    0.5389   10.0399    0.0000 H   0  0  0  0  0  0  0  0  0  0  0  0
    1.7389   10.4215    0.0000 H   0  0  0  0  0  0  0  0  0  0  0  0
   -1.0320    9.2398    0.0000 H   0  0  0  0  0  0  0  0  0  0  0  0
    0.0741    9.8416    0.0000 H   0  0  0  0  0  0  0  0  0  0  0  0
   -2.4923    7.9873    0.0000 H   0  0  0  0  0  0  0  0  0  0  0  0
   -1.4509    8.9572    0.0000 H   0  0  0  0  0  0  0  0  0  0  0  0
   -3.2892    7.4035    0.0000 H   0  0  0  0  0  0  0  0  0  0  0  0
    8.7962   10.8000    0.0000 H   0  0  0  0  0  0  0  0  0  0  0  0
   10.0870    9.7983    0.0000 H   0  0  0  0  0  0  0  0  0  0  0  0
    9.5560    8.0947    0.0000 H   0  0  0  0  0  0  0  0  0  0  0  0
  1  2  1  0
  2  3  1  0
  3  4  1  0
  4  5  2  0
  4  6  1  0
  6  7  1  0
  7  8  1  0
  8  9  1  0
  9 10  2  0
 10 11  1  0
 11 12  2  0
 12 13  1  0
 12 14  1  0
 14 15  2  0
  7 16  1  0
 16 17  2  0
 16 18  1  0
 18 19  1  0
 19 20  1  0
 20 21  2  0
 20 22  1  0
 22 23  1  0
 23 24  1  0
 24 25  1  0
 25 26  1  0
 26 27  1  0
 27 28  1  0
 28 29  2  3
 28 30  1  0
 23 31  1  0
 31 32  2  0
 31 33  1  0
 33 34  1  0
 34 35  1  0
 35 36  1  0
 36 37  1  0
 37 38  1  0
 38 39  1  0
 34 40  1  0
 40 41  2  0
 40 42  1  0
 43 42  1  6
 43 44  1  0
 44 45  1  0
 45 46  1  0
 46 47  1  0
 43 48  1  0
 43 49  1  0
 49 50  2  0
 49 51  1  0
 51 52  1  0
 52 53  1  0
 53 54  1  0
 54 55  1  0
 55 56  1  0
 56 57  1  0
 57 58  2  3
 57 59  1  0
 52 60  1  0
 60 61  2  0
 60 62  1  0
 62 63  1  0
 63 64  1  0
 64 65  1  0
 65 66  1  0
 66 67  1  0
 67 68  1  0
 68 69  2  3
 68 70  1  0
 63 71  1  0
 71 72  2  0
 71 73  1  0
 73 74  1  0
 74 75  1  0
 75 76  1  0
 76 77  1  0
 77 78  1  0
 77 79  2  0
 74 80  1  0
 80 81  2  0
 80 82  1  0
 82 83  1  0
 83 84  1  0
 84 85  1  0
 85 86  1  0
 86 87  1  0
 87 88  1  0
 88 89  2  3
 88 90  1  0
 83 91  1  0
 91 92  2  0
 91 93  1  0
 93 94  1  0
 94 95  1  0
 95 96  1  0
 96 97  1  0
 97 98  1  0
 98 99  1  0
 99100  2  3
 99101  1  0
 94102  1  0
102103  2  0
102104  1  0
104105  1  0
105106  1  0
106107  1  0
107108  1  0
108109  1  0
109110  1  0
110111  2  3
110112  1  0
105113  1  0
113114  2  0
113115  1  0
115116  1  0
116117  1  0
117118  1  0
118119  1  0
119120  1  0
120121  1  0
121122  1  0
122123  1  0
116124  1  0
116125  1  1
125126  2  0
125127  1  0
 15  9  1  0
 47123  2  0
  1128  1  0
  1129  1  0
  2130  1  0
  2131  1  0
  3132  1  0
  3133  1  0
  6134  1  0
  7135  1  1
  8136  1  0
  8137  1  0
 10138  1  0
 11139  1  0
 13140  1  0
 14141  1  0
 15142  1  0
 18143  1  0
 19144  1  0
 19145  1  0
 22146  1  0
 23147  1  1
 24148  1  0
 24149  1  0
 25150  1  0
 25151  1  0
 26152  1  0
 26153  1  0
 27154  1  0
 29155  1  0
 29156  1  0
 30157  1  0
 30158  1  0
 33159  1  0
 34160  1  6
 35161  1  0
 35162  1  0
 36163  1  0
 36164  1  0
 37165  1  0
 37166  1  0
 38167  1  0
 38168  1  0
 39169  1  0
 39170  1  0
 39171  1  0
 42172  1  0
 44173  1  0
 44174  1  0
 45175  1  0
 45176  1  0
 46177  1  0
 46178  1  0
 47179  1  0
 48180  1  0
 48181  1  0
 48182  1  0
 51183  1  0
 52184  1  6
 53185  1  0
 53186  1  0
 54187  1  0
 54188  1  0
 55189  1  0
 55190  1  0
 56191  1  0
 58192  1  0
 58193  1  0
 59194  1  0
 59195  1  0
 62196  1  0
 63197  1  6
 64198  1  0
 64199  1  0
 65200  1  0
 65201  1  0
 66202  1  0
 66203  1  0
 67204  1  0
 69205  1  0
 69206  1  0
 70207  1  0
 70208  1  0
 73209  1  0
 74210  1  6
 75211  1  0
 75212  1  0
 76213  1  0
 76214  1  0
 78215  1  0
 78216  1  0
 82217  1  0
 83218  1  6
 84219  1  0
 84220  1  0
 85221  1  0
 85222  1  0
 86223  1  0
 86224  1  0
 87225  1  0
 89226  1  0
 89227  1  0
 90228  1  0
 90229  1  0
 93230  1  0
 94231  1  6
 95232  1  0
 95233  1  0
 96234  1  0
 96235  1  0
 97236  1  0
 97237  1  0
 98238  1  0
100239  1  0
100240  1  0
101241  1  0
101242  1  0
104243  1  0
105244  1  6
106245  1  0
106246  1  0
107247  1  0
107248  1  0
108249  1  0
108250  1  0
109251  1  0
111252  1  0
111253  1  0
112254  1  0
112255  1  0
115256  1  0
117257  1  0
117258  1  0
118259  1  0
118260  1  0
119261  1  0
119262  1  0
120263  1  0
120264  1  0
121265  1  0
121266  1  0
122267  1  0
122268  1  0
123269  1  0
124270  1  0
124271  1  0
124272  1  0
M  CHG  8  29   1  39   1  58   1  69   1  89   1 100   1 111   1 127  -1
M  END
