
     RDKit          2D

306314  0  0  0  0  0  0  0  0999 V2000
   24.9458   -0.7368    0.0000 C   0  0  0  0  0  0  0  0  0  0  0  0
   26.2551   -0.0049    0.0000 N   0  0  0  0  0  0  0  0  0  0  0  0
   27.5436   -0.7728    0.0000 C   0  0  0  0  0  0  0  0  0  0  0  0
   27.5229   -2.2727    0.0000 C   0  0  0  0  0  0  0  0  0  0  0  0
   28.8114   -3.0406    0.0000 C   0  0  0  0  0  0  0  0  0  0  0  0
   30.1207   -2.3087    0.0000 C   0  0  0  0  0  0  0  0  0  0  0  0
   30.1415   -0.8088    0.0000 C   0  0  0  0  0  0  0  0  0  0  0  0
   28.8529   -0.0409    0.0000 C   0  0  0  0  0  0  0  0  0  0  0  0
   31.5743   -0.3651    0.0000 C   0  0  0  0  0  0  0  0  0  0  0  0
   32.4391   -1.5907    0.0000 O   0  0  0  0  0  0  0  0  0  0  0  0
   31.5407   -2.7919    0.0000 C   0  0  0  0  0  0  0  0  0  0  0  0
   31.9844   -4.2248    0.0000 O   0  0  0  0  0  0  0  0  0  0  0  0
   33.0457   -0.0736    0.0000 C   0  0  0  0  0  0  0  0  0  0  0  0
   33.5290    1.3464    0.0000 C   0  0  0  0  0  0  0  0  0  0  0  0
   35.0004    1.6379    0.0000 C   0  0  0  0  0  0  0  0  0  0  0  0
   35.9885    0.5094    0.0000 C   0  0  0  0  0  0  0  0  0  0  0  0
   35.5053   -0.9106    0.0000 C   0  0  0  0  0  0  0  0  0  0  0  0
   34.0339   -1.2021    0.0000 C   0  0  0  0  0  0  0  0  0  0  0  0
   37.4600    0.8009    0.0000 O   0  0  0  0  0  0  0  0  0  0  0  0
   32.5408    2.4749    0.0000 O   0  0  0  0  0  0  0  0  0  0  0  0
   31.0694    2.1834    0.0000 C   0  0  0  0  0  0  0  0  0  0  0  0
   30.5862    0.7634    0.0000 C   0  0  0  0  0  0  0  0  0  0  0  0
   29.3403    1.1346    0.0000 C   0  0  0  0  0  0  0  0  0  0  0  0
   28.8133    1.7365    0.0000 C   0  0  0  0  0  0  0  0  0  0  0  0
   29.0710    2.4938    0.0000 C   0  0  0  0  0  0  0  0  0  0  0  0
   29.8558    2.6493    0.0000 C   0  0  0  0  0  0  0  0  0  0  0  0
   27.6217    4.1490    0.0000 O   0  0  0  0  0  0  0  0  0  0  0  0
   24.9250   -2.2367    0.0000 S   0  0  0  0  0  0  0  0  0  0  0  0
   23.6573    0.0311    0.0000 N   0  0  0  0  0  0  0  0  0  0  0  0
   22.3480   -0.7008    0.0000 C   0  0  0  0  0  0  0  0  0  0  0  0
   21.0595    0.0671    0.0000 C   0  0  0  0  0  0  0  0  0  0  0  0
   19.7502   -0.6648    0.0000 C   0  0  0  0  0  0  0  0  0  0  0  0
   19.7294   -2.1647    0.0000 O   0  0  0  0  0  0  0  0  0  0  0  0
   18.4616    0.1031    0.0000 N   0  0  0  0  0  0  0  0  0  0  0  0
   17.1523   -0.6288    0.0000 C   0  0  0  0  0  0  0  0  0  0  0  0
   16.1723   -1.7644    0.0000 C   0  0  0  0  0  0  0  0  0  0  0  0
   14.6989   -1.4835    0.0000 C   0  0  0  0  0  0  0  0  0  0  0  0
   13.7189   -2.6191    0.0000 C   0  0  0  0  0  0  0  0  0  0  0  0
   12.2454   -2.3381    0.0000 C   0  0  0  0  0  0  0  0  0  0  0  0
   11.2654   -3.4737    0.0000 N   0  0  0  0  0  0  0  0  0  0  0  0
   15.8638    0.1391    0.0000 C   0  0  0  0  0  0  0  0  0  0  0  0
   15.8846    1.6390    0.0000 O   0  0  0  0  0  0  0  0  0  0  0  0
   14.5545   -0.5928    0.0000 N   0  0  0  0  0  0  0  0  0  0  0  0
   13.2660    0.1751    0.0000 C   0  0  0  0  0  0  0  0  0  0  0  0
   12.3178    1.3375    0.0000 C   0  0  0  0  0  0  0  0  0  0  0  0
   12.8503    2.7398    0.0000 C   0  0  0  0  0  0  0  0  0  0  0  0
   11.9022    3.9021    0.0000 C   0  0  0  0  0  0  0  0  0  0  0  0
   12.4347    5.3044    0.0000 N   0  0  0  0  0  0  0  0  0  0  0  0
   10.4215    3.6621    0.0000 O   0  0  0  0  0  0  0  0  0  0  0  0
   11.9567   -0.5568    0.0000 C   0  0  0  0  0  0  0  0  0  0  0  0
   11.6464   -1.7315    0.0000 O   0  0  0  0  0  0  0  0  0  0  0  0
   10.6682    0.2111    0.0000 N   0  0  0  0  0  0  0  0  0  0  0  0
    9.3589   -0.5208    0.0000 C   0  0  0  0  0  0  0  0  0  0  0  0
    8.3788   -1.6564    0.0000 C   0  0  0  0  0  0  0  0  0  0  0  0
    6.9054   -1.3755    0.0000 C   0  0  0  0  0  0  0  0  0  0  0  0
    5.9254   -2.5111    0.0000 C   0  0  0  0  0  0  0  0  0  0  0  0
    4.4519   -2.2301    0.0000 C   0  0  0  0  0  0  0  0  0  0  0  0
    3.4719   -3.3657    0.0000 N   0  0  0  0  0  0  0  0  0  0  0  0
    8.0703    0.2471    0.0000 C   0  0  0  0  0  0  0  0  0  0  0  0
    8.0911    1.7470    0.0000 O   0  0  0  0  0  0  0  0  0  0  0  0
    6.7610   -0.4848    0.0000 N   0  0  0  0  0  0  0  0  0  0  0  0
    5.4725    0.2832    0.0000 C   0  0  0  0  0  0  0  0  0  0  0  0
    4.5243    1.4455    0.0000 C   0  0  0  0  0  0  0  0  0  0  0  0
    5.0569    2.8478    0.0000 C   0  0  0  0  0  0  0  0  0  0  0  0
    4.1087    4.0101    0.0000 C   0  0  0  0  0  0  0  0  0  0  0  0
    4.6412    5.4124    0.0000 N   0  0  0  0  0  0  0  0  0  0  0  0
    3.6930    6.5747    0.0000 C   0  0  0  0  0  0  0  0  0  0  0  0
    4.2256    7.9770    0.0000 N   0  0  0  0  0  0  0  0  0  0  0  0
    2.2124    6.3347    0.0000 N   0  0  0  0  0  0  0  0  0  0  0  0
    4.1632   -0.4488    0.0000 C   0  0  0  0  0  0  0  0  0  0  0  0
    3.8529   -1.6235    0.0000 O   0  0  0  0  0  0  0  0  0  0  0  0
    2.8747    0.3192    0.0000 N   0  0  0  0  0  0  0  0  0  0  0  0
    1.5654   -0.4128    0.0000 C   0  0  0  0  0  0  0  0  0  0  0  0
    0.5854   -1.5484    0.0000 C   0  0  0  0  0  0  0  0  0  0  0  0
   -0.8881   -1.2674    0.0000 C   0  0  0  0  0  0  0  0  0  0  0  0
   -1.8681   -2.4030    0.0000 C   0  0  0  0  0  0  0  0  0  0  0  0
   -3.3416   -2.1221    0.0000 C   0  0  0  0  0  0  0  0  0  0  0  0
   -4.3216   -3.2577    0.0000 N   0  0  0  0  0  0  0  0  0  0  0  0
    0.2769    0.3552    0.0000 C   0  0  0  0  0  0  0  0  0  0  0  0
    0.4803    1.8413    0.0000 O   0  0  0  0  0  0  0  0  0  0  0  0
   -1.0325   -0.3768    0.0000 N   0  0  0  0  0  0  0  0  0  0  0  0
   -2.3210    0.3912    0.0000 C   0  0  0  0  0  0  0  0  0  0  0  0
   -3.2691    1.5535    0.0000 C   0  0  0  0  0  0  0  0  0  0  0  0
   -2.7366    2.9558    0.0000 C   0  0  0  0  0  0  0  0  0  0  0  0
   -1.2559    3.1958    0.0000 C   0  0  0  0  0  0  0  0  0  0  0  0
   -0.7234    4.5980    0.0000 C   0  0  0  0  0  0  0  0  0  0  0  0
   -1.6716    5.7604    0.0000 C   0  0  0  0  0  0  0  0  0  0  0  0
   -3.1523    5.5204    0.0000 C   0  0  0  0  0  0  0  0  0  0  0  0
   -3.6848    4.1181    0.0000 C   0  0  0  0  0  0  0  0  0  0  0  0
   -3.6303   -0.3408    0.0000 C   0  0  0  0  0  0  0  0  0  0  0  0
   -3.9406   -1.5155    0.0000 O   0  0  0  0  0  0  0  0  0  0  0  0
   -4.9188    0.4272    0.0000 N   0  0  0  0  0  0  0  0  0  0  0  0
   -6.2281   -0.3048    0.0000 C   0  0  0  0  0  0  0  0  0  0  0  0
   -7.2081   -1.4403    0.0000 C   0  0  0  0  0  0  0  0  0  0  0  0
   -8.6409   -1.8842    0.0000 O   0  0  0  0  0  0  0  0  0  0  0  0
   -7.5166    0.4632    0.0000 C   0  0  0  0  0  0  0  0  0  0  0  0
   -7.3132    1.9493    0.0000 O   0  0  0  0  0  0  0  0  0  0  0  0
   -8.8259   -0.2688    0.0000 N   0  0  0  0  0  0  0  0  0  0  0  0
  -10.1145    0.4992    0.0000 C   0  0  0  0  0  0  0  0  0  0  0  0
  -10.3913    1.9734    0.0000 C   0  0  0  0  0  0  0  0  0  0  0  0
  -11.0903    3.3006    0.0000 C   0  0  0  0  0  0  0  0  0  0  0  0
  -12.1495    4.3627    0.0000 C   0  0  0  0  0  0  0  0  0  0  0  0
  -13.4747    5.0654    0.0000 C   0  0  0  0  0  0  0  0  0  0  0  0
   -8.7890    1.2015    0.0000 C   0  0  0  0  0  0  0  0  0  0  0  0
  -10.2845   -0.9912    0.0000 C   0  0  0  0  0  0  0  0  0  0  0  0
   -9.5104   -1.4217    0.0000 O   0  0  0  0  0  0  0  0  0  0  0  0
  -10.8862   -2.3652    0.0000 N   0  0  0  0  0  0  0  0  0  0  0  0
  -11.8662   -3.5008    0.0000 C   0  0  0  0  0  0  0  0  0  0  0  0
  -11.6632   -4.9870    0.0000 C   0  0  0  0  0  0  0  0  0  0  0  0
  -10.2747   -5.5543    0.0000 C   0  0  0  0  0  0  0  0  0  0  0  0
  -10.0717   -7.0405    0.0000 C   0  0  0  0  0  0  0  0  0  0  0  0
   -8.6831   -7.6078    0.0000 C   0  0  0  0  0  0  0  0  0  0  0  0
   -7.4975   -6.6889    0.0000 C   0  0  0  0  0  0  0  0  0  0  0  0
   -7.7005   -5.2027    0.0000 C   0  0  0  0  0  0  0  0  0  0  0  0
   -9.0891   -4.6354    0.0000 C   0  0  0  0  0  0  0  0  0  0  0  0
  -13.1374   -4.2970    0.0000 C   0  0  0  0  0  0  0  0  0  0  0  0
  -12.5395   -5.6727    0.0000 O   0  0  0  0  0  0  0  0  0  0  0  0
  -14.5869   -4.6832    0.0000 N   0  0  0  0  0  0  0  0  0  0  0  0
  -16.0857   -4.6251    0.0000 C   0  0  0  0  0  0  0  0  0  0  0  0
  -17.1211   -5.7104    0.0000 C   0  0  0  0  0  0  0  0  0  0  0  0
  -16.6989   -7.1498    0.0000 C   0  0  0  0  0  0  0  0  0  0  0  0
  -17.7343   -8.2351    0.0000 C   0  0  0  0  0  0  0  0  0  0  0  0
  -17.3121   -9.6744    0.0000 C   0  0  0  0  0  0  0  0  0  0  0  0
  -15.8545  -10.0285    0.0000 C   0  0  0  0  0  0  0  0  0  0  0  0
  -14.8191   -8.9431    0.0000 C   0  0  0  0  0  0  0  0  0  0  0  0
  -15.2413   -7.5038    0.0000 C   0  0  0  0  0  0  0  0  0  0  0  0
  -17.5009   -4.1277    0.0000 C   0  0  0  0  0  0  0  0  0  0  0  0
  -18.2036   -5.4529    0.0000 O   0  0  0  0  0  0  0  0  0  0  0  0
  -18.7065   -3.2353    0.0000 N   0  0  0  0  0  0  0  0  0  0  0  0
  -19.5956   -2.0271    0.0000 C   0  0  0  0  0  0  0  0  0  0  0  0
  -21.0897   -1.8943    0.0000 C   0  0  0  0  0  0  0  0  0  0  0  0
  -21.9518   -3.1219    0.0000 C   0  0  0  0  0  0  0  0  0  0  0  0
  -23.4459   -2.9890    0.0000 C   0  0  0  0  0  0  0  0  0  0  0  0
  -24.3079   -4.2166    0.0000 C   0  0  0  0  0  0  0  0  0  0  0  0
  -25.8020   -4.0838    0.0000 N   0  0  0  0  0  0  0  0  0  0  0  0
  -20.0890   -0.6106    0.0000 C   0  0  0  0  0  0  0  0  0  0  0  0
  -21.5633   -0.8874    0.0000 O   0  0  0  0  0  0  0  0  0  0  0  0
  -20.1430    0.8884    0.0000 N   0  0  0  0  0  0  0  0  0  0  0  0
  -19.7528    2.3367    0.0000 C   0  0  0  0  0  0  0  0  0  0  0  0
  -18.9530    3.6057    0.0000 C   0  0  0  0  0  0  0  0  0  0  0  0
  -17.8146    4.5826    0.0000 C   0  0  0  0  0  0  0  0  0  0  0  0
  -16.4390    5.1805    0.0000 C   0  0  0  0  0  0  0  0  0  0  0  0
  -14.9482    5.3464    0.0000 C   0  0  0  0  0  0  0  0  0  0  0  0
  -21.2335    2.0968    0.0000 C   0  0  0  0  0  0  0  0  0  0  0  0
  -20.5805    3.5877    0.0000 C   0  0  0  0  0  0  0  0  0  0  0  0
  -20.2557    5.0521    0.0000 O   0  0  0  0  0  0  0  0  0  0  0  0
  -22.0777    3.4963    0.0000 N   0  0  0  0  0  0  0  0  0  0  0  0
  -22.9054    4.7473    0.0000 C   0  0  0  0  0  0  0  0  0  0  0  0
  -23.2554    6.2059    0.0000 C   0  0  0  0  0  0  0  0  0  0  0  0
  -22.1672    7.2383    0.0000 C   0  0  0  0  0  0  0  0  0  0  0  0
  -22.5171    8.6969    0.0000 C   0  0  0  0  0  0  0  0  0  0  0  0
  -20.7915    7.8362    0.0000 C   0  0  0  0  0  0  0  0  0  0  0  0
  -24.4027    4.6559    0.0000 C   0  0  0  0  0  0  0  0  0  0  0  0
  -25.3767    5.7967    0.0000 O   0  0  0  0  0  0  0  0  0  0  0  0
  -25.0721    3.3136    0.0000 O   0  0  0  0  0  0  0  0  0  0  0  0
   26.0929    1.4863    0.0000 H   0  0  0  0  0  0  0  0  0  0  0  0
   26.2135   -3.0046    0.0000 H   0  0  0  0  0  0  0  0  0  0  0  0
   28.7906   -4.5405    0.0000 H   0  0  0  0  0  0  0  0  0  0  0  0
   28.6031    1.0237    0.0000 H   0  0  0  0  0  0  0  0  0  0  0  0
   35.4836    3.0580    0.0000 H   0  0  0  0  0  0  0  0  0  0  0  0
   36.4934   -2.0391    0.0000 H   0  0  0  0  0  0  0  0  0  0  0  0
   33.5506   -2.6221    0.0000 H   0  0  0  0  0  0  0  0  0  0  0  0
   38.4481   -0.3276    0.0000 H   0  0  0  0  0  0  0  0  0  0  0  0
   28.6315   -0.9481    0.0000 H   0  0  0  0  0  0  0  0  0  0  0  0
   26.6307    1.4905    0.0000 H   0  0  0  0  0  0  0  0  0  0  0  0
   30.5645    4.7320    0.0000 H   0  0  0  0  0  0  0  0  0  0  0  0
   28.1050    5.5690    0.0000 H   0  0  0  0  0  0  0  0  0  0  0  0
   23.6781    1.5310    0.0000 H   0  0  0  0  0  0  0  0  0  0  0  0
   21.3680   -1.8364    0.0000 H   0  0  0  0  0  0  0  0  0  0  0  0
   23.2962   -1.8631    0.0000 H   0  0  0  0  0  0  0  0  0  0  0  0
   20.1113    1.2294    0.0000 H   0  0  0  0  0  0  0  0  0  0  0  0
   22.0395    1.2027    0.0000 H   0  0  0  0  0  0  0  0  0  0  0  0
   18.4824    1.6030    0.0000 H   0  0  0  0  0  0  0  0  0  0  0  0
   18.1005   -1.7911    0.0000 H   0  0  0  0  0  0  0  0  0  0  0  0
   15.8147   -3.2211    0.0000 H   0  0  0  0  0  0  0  0  0  0  0  0
   17.4608   -2.5323    0.0000 H   0  0  0  0  0  0  0  0  0  0  0  0
   13.5136   -0.5642    0.0000 H   0  0  0  0  0  0  0  0  0  0  0  0
   14.5105    0.0047    0.0000 H   0  0  0  0  0  0  0  0  0  0  0  0
   13.1863   -4.0214    0.0000 H   0  0  0  0  0  0  0  0  0  0  0  0
   14.9042   -3.5383    0.0000 H   0  0  0  0  0  0  0  0  0  0  0  0
   10.8729   -1.7330    0.0000 H   0  0  0  0  0  0  0  0  0  0  0  0
   12.6030   -0.8814    0.0000 H   0  0  0  0  0  0  0  0  0  0  0  0
    9.8371   -3.0153    0.0000 H   0  0  0  0  0  0  0  0  0  0  0  0
   11.7588   -4.8903    0.0000 H   0  0  0  0  0  0  0  0  0  0  0  0
   14.1714   -2.0430    0.0000 H   0  0  0  0  0  0  0  0  0  0  0  0
   14.3771    1.1828    0.0000 H   0  0  0  0  0  0  0  0  0  0  0  0
   11.1325    2.2567    0.0000 H   0  0  0  0  0  0  0  0  0  0  0  0
   11.0922    0.4727    0.0000 H   0  0  0  0  0  0  0  0  0  0  0  0
   13.8304    3.8753    0.0000 H   0  0  0  0  0  0  0  0  0  0  0  0
   14.2229    2.1346    0.0000 H   0  0  0  0  0  0  0  0  0  0  0  0
   11.4865    6.4667    0.0000 H   0  0  0  0  0  0  0  0  0  0  0  0
   13.9154    5.5443    0.0000 H   0  0  0  0  0  0  0  0  0  0  0  0
   10.5060    1.7023    0.0000 H   0  0  0  0  0  0  0  0  0  0  0  0
   10.1583   -1.7900    0.0000 H   0  0  0  0  0  0  0  0  0  0  0  0
    8.0212   -3.1131    0.0000 H   0  0  0  0  0  0  0  0  0  0  0  0
    9.7514   -2.2615    0.0000 H   0  0  0  0  0  0  0  0  0  0  0  0
    5.7201   -0.4562    0.0000 H   0  0  0  0  0  0  0  0  0  0  0  0
    6.7171    0.1127    0.0000 H   0  0  0  0  0  0  0  0  0  0  0  0
    5.3929   -3.9133    0.0000 H   0  0  0  0  0  0  0  0  0  0  0  0
    7.1107   -3.4303    0.0000 H   0  0  0  0  0  0  0  0  0  0  0  0
    3.0794   -1.6250    0.0000 H   0  0  0  0  0  0  0  0  0  0  0  0
    4.8095   -0.7734    0.0000 H   0  0  0  0  0  0  0  0  0  0  0  0
    2.0437   -2.9073    0.0000 H   0  0  0  0  0  0  0  0  0  0  0  0
    3.9653   -4.7822    0.0000 H   0  0  0  0  0  0  0  0  0  0  0  0
    6.3779   -1.9350    0.0000 H   0  0  0  0  0  0  0  0  0  0  0  0
    6.5836    1.2908    0.0000 H   0  0  0  0  0  0  0  0  0  0  0  0
    3.2358    2.2134    0.0000 H   0  0  0  0  0  0  0  0  0  0  0  0
    3.2987    0.5808    0.0000 H   0  0  0  0  0  0  0  0  0  0  0  0
    6.0369    3.9834    0.0000 H   0  0  0  0  0  0  0  0  0  0  0  0
    6.4294    2.2426    0.0000 H   0  0  0  0  0  0  0  0  0  0  0  0
    2.8202    4.7780    0.0000 H   0  0  0  0  0  0  0  0  0  0  0  0
    2.9976    3.0024    0.0000 H   0  0  0  0  0  0  0  0  0  0  0  0
    6.1219    5.6524    0.0000 H   0  0  0  0  0  0  0  0  0  0  0  0
    3.2774    9.1393    0.0000 H   0  0  0  0  0  0  0  0  0  0  0  0
    1.2642    7.4970    0.0000 H   0  0  0  0  0  0  0  0  0  0  0  0
    1.6798    4.9324    0.0000 H   0  0  0  0  0  0  0  0  0  0  0  0
    2.7125    1.8104    0.0000 H   0  0  0  0  0  0  0  0  0  0  0  0
    2.3648   -1.6820    0.0000 H   0  0  0  0  0  0  0  0  0  0  0  0
    0.2278   -3.0051    0.0000 H   0  0  0  0  0  0  0  0  0  0  0  0
    1.9579   -2.1535    0.0000 H   0  0  0  0  0  0  0  0  0  0  0  0
   -2.0734   -0.3482    0.0000 H   0  0  0  0  0  0  0  0  0  0  0  0
   -1.0764    0.2207    0.0000 H   0  0  0  0  0  0  0  0  0  0  0  0
   -2.4006   -3.8053    0.0000 H   0  0  0  0  0  0  0  0  0  0  0  0
   -0.6828   -3.3223    0.0000 H   0  0  0  0  0  0  0  0  0  0  0  0
   -4.7141   -1.5170    0.0000 H   0  0  0  0  0  0  0  0  0  0  0  0
   -2.9840   -0.6654    0.0000 H   0  0  0  0  0  0  0  0  0  0  0  0
   -5.7498   -2.7993    0.0000 H   0  0  0  0  0  0  0  0  0  0  0  0
   -3.8281   -4.6742    0.0000 H   0  0  0  0  0  0  0  0  0  0  0  0
   -1.4155   -1.8270    0.0000 H   0  0  0  0  0  0  0  0  0  0  0  0
   -1.3410    1.5268    0.0000 H   0  0  0  0  0  0  0  0  0  0  0  0
   -4.4544    2.4728    0.0000 H   0  0  0  0  0  0  0  0  0  0  0  0
   -4.4948    0.6888    0.0000 H   0  0  0  0  0  0  0  0  0  0  0  0
   -0.1732    2.1577    0.0000 H   0  0  0  0  0  0  0  0  0  0  0  0
    0.7573    4.8380    0.0000 H   0  0  0  0  0  0  0  0  0  0  0  0
   -1.1391    7.1627    0.0000 H   0  0  0  0  0  0  0  0  0  0  0  0
   -4.1004    6.6827    0.0000 H   0  0  0  0  0  0  0  0  0  0  0  0
   -5.1655    3.8781    0.0000 H   0  0  0  0  0  0  0  0  0  0  0  0
   -5.0810    1.9184    0.0000 H   0  0  0  0  0  0  0  0  0  0  0  0
   -5.4287   -1.5740    0.0000 H   0  0  0  0  0  0  0  0  0  0  0  0
   -7.7406   -2.8426    0.0000 H   0  0  0  0  0  0  0  0  0  0  0  0
   -5.8356   -2.0455    0.0000 H   0  0  0  0  0  0  0  0  0  0  0  0
   -9.6039   -2.4164    0.0000 H   0  0  0  0  0  0  0  0  0  0  0  0
   -8.8467   -1.7686    0.0000 H   0  0  0  0  0  0  0  0  0  0  0  0
   -8.9014    1.7997    0.0000 H   0  0  0  0  0  0  0  0  0  0  0  0
   -9.4691    3.1564    0.0000 H   0  0  0  0  0  0  0  0  0  0  0  0
   -9.6597    3.7515    0.0000 H   0  0  0  0  0  0  0  0  0  0  0  0
  -10.3908    4.6275    0.0000 H   0  0  0  0  0  0  0  0  0  0  0  0
  -10.8206    5.0585    0.0000 H   0  0  0  0  0  0  0  0  0  0  0  0
  -12.0540    5.8597    0.0000 H   0  0  0  0  0  0  0  0  0  0  0  0
  -12.9773    6.4806    0.0000 H   0  0  0  0  0  0  0  0  0  0  0  0
   -8.6071    2.8575    0.0000 H   0  0  0  0  0  0  0  0  0  0  0  0
   -7.5113    1.9050    0.0000 H   0  0  0  0  0  0  0  0  0  0  0  0
   -7.9771    0.1631    0.0000 H   0  0  0  0  0  0  0  0  0  0  0  0
   -9.6172   -3.1650    0.0000 H   0  0  0  0  0  0  0  0  0  0  0  0
  -10.4281   -3.9270    0.0000 H   0  0  0  0  0  0  0  0  0  0  0  0
  -11.9808   -6.4530    0.0000 H   0  0  0  0  0  0  0  0  0  0  0  0
  -13.1317   -5.2932    0.0000 H   0  0  0  0  0  0  0  0  0  0  0  0
  -11.2573   -7.9594    0.0000 H   0  0  0  0  0  0  0  0  0  0  0  0
   -8.4801   -9.0940    0.0000 H   0  0  0  0  0  0  0  0  0  0  0  0
   -6.1089   -7.2562    0.0000 H   0  0  0  0  0  0  0  0  0  0  0  0
   -6.5149   -4.2838    0.0000 H   0  0  0  0  0  0  0  0  0  0  0  0
   -9.1094   -3.1355    0.0000 H   0  0  0  0  0  0  0  0  0  0  0  0
  -14.2405   -6.1427    0.0000 H   0  0  0  0  0  0  0  0  0  0  0  0
  -15.5223   -6.0152    0.0000 H   0  0  0  0  0  0  0  0  0  0  0  0
  -18.4653   -6.3762    0.0000 H   0  0  0  0  0  0  0  0  0  0  0  0
  -18.2761   -4.7533    0.0000 H   0  0  0  0  0  0  0  0  0  0  0  0
  -19.1919   -7.8811    0.0000 H   0  0  0  0  0  0  0  0  0  0  0  0
  -18.3475  -10.7598    0.0000 H   0  0  0  0  0  0  0  0  0  0  0  0
  -15.4322  -11.4678    0.0000 H   0  0  0  0  0  0  0  0  0  0  0  0
  -13.3614   -9.2971    0.0000 H   0  0  0  0  0  0  0  0  0  0  0  0
  -14.0813   -6.5527    0.0000 H   0  0  0  0  0  0  0  0  0  0  0  0
  -19.7687   -4.2945    0.0000 H   0  0  0  0  0  0  0  0  0  0  0  0
  -20.1663   -3.4143    0.0000 H   0  0  0  0  0  0  0  0  0  0  0  0
  -22.3606   -1.0976    0.0000 H   0  0  0  0  0  0  0  0  0  0  0  0
  -21.0615   -0.3946    0.0000 H   0  0  0  0  0  0  0  0  0  0  0  0
  -22.1625   -4.6070    0.0000 H   0  0  0  0  0  0  0  0  0  0  0  0
  -20.6808   -3.9185    0.0000 H   0  0  0  0  0  0  0  0  0  0  0  0
  -24.8044   -2.3532    0.0000 H   0  0  0  0  0  0  0  0  0  0  0  0
  -23.2351   -1.5039    0.0000 H   0  0  0  0  0  0  0  0  0  0  0  0
  -24.6982   -5.6649    0.0000 H   0  0  0  0  0  0  0  0  0  0  0  0
  -23.0370   -5.0133    0.0000 H   0  0  0  0  0  0  0  0  0  0  0  0
  -26.6641   -5.3113    0.0000 H   0  0  0  0  0  0  0  0  0  0  0  0
  -26.4341   -2.7234    0.0000 H   0  0  0  0  0  0  0  0  0  0  0  0
  -21.6334    1.0584    0.0000 H   0  0  0  0  0  0  0  0  0  0  0  0
  -19.3752    5.0451    0.0000 H   0  0  0  0  0  0  0  0  0  0  0  0
  -20.3443    4.1662    0.0000 H   0  0  0  0  0  0  0  0  0  0  0  0
  -17.9768    6.0738    0.0000 H   0  0  0  0  0  0  0  0  0  0  0  0
  -18.9790    5.5282    0.0000 H   0  0  0  0  0  0  0  0  0  0  0  0
  -15.9770    6.6076    0.0000 H   0  0  0  0  0  0  0  0  0  0  0  0
  -17.4186    6.3164    0.0000 H   0  0  0  0  0  0  0  0  0  0  0  0
  -14.8900    6.8452    0.0000 H   0  0  0  0  0  0  0  0  0  0  0  0
  -22.4347    2.9951    0.0000 H   0  0  0  0  0  0  0  0  0  0  0  0
  -22.4438    1.2107    0.0000 H   0  0  0  0  0  0  0  0  0  0  0  0
  -21.0974    0.6030    0.0000 H   0  0  0  0  0  0  0  0  0  0  0  0
  -22.9058    2.2457    0.0000 H   0  0  0  0  0  0  0  0  0  0  0  0
  -21.4671    5.1731    0.0000 H   0  0  0  0  0  0  0  0  0  0  0  0
  -24.2294    7.3466    0.0000 H   0  0  0  0  0  0  0  0  0  0  0  0
  -24.6937    5.7801    0.0000 H   0  0  0  0  0  0  0  0  0  0  0  0
  -21.1931    6.0975    0.0000 H   0  0  0  0  0  0  0  0  0  0  0  0
  -21.5629    9.8542    0.0000 H   0  0  0  0  0  0  0  0  0  0  0  0
  -23.3449    9.9478    0.0000 H   0  0  0  0  0  0  0  0  0  0  0  0
  -23.9554    8.2711    0.0000 H   0  0  0  0  0  0  0  0  0  0  0  0
  -20.4411    9.2947    0.0000 H   0  0  0  0  0  0  0  0  0  0  0  0
  -19.2943    7.9275    0.0000 H   0  0  0  0  0  0  0  0  0  0  0  0
  -20.4415    6.3776    0.0000 H   0  0  0  0  0  0  0  0  0  0  0  0
  -26.5694    3.2223    0.0000 H   0  0  0  0  0  0  0  0  0  0  0  0
  1  2  1  0
  2  3  1  0
  3  4  2  0
  4  5  1  0
  5  6  2  0
  6  7  1  0
  7  8  2  0
  7  9  1  0
  9 10  1  0
 10 11  1  0
 11 12  2  0
  9 13  1  0
 13 14  1  0
 14 15  2  0
 15 16  1  0
 16 17  2  0
 17 18  1  0
 16 19  1  0
 14 20  1  0
 20 21  1  0
 21 22  2  0
 22 23  1  0
 23 24  2  0
 24 25  1  0
 25 26  2  0
 25 27  1  0
  1 28  2  0
  1 29  1  0
 29 30  1  0
 30 31  1  0
 31 32  1  0
 32 33  2  0
 32 34  1  0
 34 35  1  0
 35 36  1  0
 36 37  1  0
 37 38  1  0
 38 39  1  0
 39 40  1  0
 35 41  1  0
 41 42  2  0
 41 43  1  0
 43 44  1  0
 44 45  1  0
 45 46  1  0
 46 47  1  0
 47 48  1  0
 47 49  2  0
 44 50  1  0
 50 51  2  0
 50 52  1  0
 52 53  1  0
 53 54  1  0
 54 55  1  0
 55 56  1  0
 56 57  1  0
 57 58  1  0
 53 59  1  0
 59 60  2  0
 59 61  1  0
 61 62  1  0
 62 63  1  0
 63 64  1  0
 64 65  1  0
 65 66  1  0
 66 67  1  0
 67 68  2  3
 67 69  1  0
 62 70  1  0
 70 71  2  0
 70 72  1  0
 72 73  1  0
 73 74  1  0
 74 75  1  0
 75 76  1  0
 76 77  1  0
 77 78  1  0
 73 79  1  0
 79 80  2  0
 79 81  1  0
 81 82  1  0
 82 83  1  0
 83 84  1  0
 84 85  2  0
 85 86  1  0
 86 87  2  0
 87 88  1  0
 88 89  2  0
 82 90  1  0
 90 91  2  0
 90 92  1  0
 92 93  1  0
 93 94  1  0
 94 95  1  0
 93 96  1  0
 96 97  2  0
 96 98  1  0
 99 98  1  6
 99100  1  0
100101  1  0
101102  1  0
102103  1  0
 99104  1  0
 99105  1  0
105106  2  0
105107  1  0
107108  1  0
108109  1  0
109110  1  0
110111  2  0
111112  1  0
112113  2  0
113114  1  0
114115  2  0
108116  1  0
116117  2  0
116118  1  0
118119  1  0
119120  1  0
120121  1  0
121122  2  0
122123  1  0
123124  2  0
124125  1  0
125126  2  0
119127  1  0
127128  2  0
127129  1  0
129130  1  0
130131  1  0
131132  1  0
132133  1  0
133134  1  0
134135  1  0
130136  1  0
136137  2  0
136138  1  0
138139  1  0
139140  1  0
140141  1  0
141142  1  0
142143  1  0
139144  1  0
139145  1  6
145146  2  0
145147  1  0
147148  1  0
148149  1  0
149150  1  0
150151  1  0
150152  1  0
148153  1  0
153154  2  0
153155  1  0
  8  3  1  0
 89 84  1  0
115110  1  0
126121  1  0
 11  6  1  0
103143  2  0
 18 13  2  0
 22  9  1  0
 26 21  1  0
  2156  1  0
  4157  1  0
  5158  1  0
  8159  1  0
 15160  1  0
 17161  1  0
 18162  1  0
 19163  1  0
 23164  1  0
 24165  1  0
 26166  1  0
 27167  1  0
 29168  1  0
 30169  1  0
 30170  1  0
 31171  1  0
 31172  1  0
 34173  1  0
 35174  1  1
 36175  1  0
 36176  1  0
 37177  1  0
 37178  1  0
 38179  1  0
 38180  1  0
 39181  1  0
 39182  1  0
 40183  1  0
 40184  1  0
 43185  1  0
 44186  1  6
 45187  1  0
 45188  1  0
 46189  1  0
 46190  1  0
 48191  1  0
 48192  1  0
 52193  1  0
 53194  1  1
 54195  1  0
 54196  1  0
 55197  1  0
 55198  1  0
 56199  1  0
 56200  1  0
 57201  1  0
 57202  1  0
 58203  1  0
 58204  1  0
 61205  1  0
 62206  1  6
 63207  1  0
 63208  1  0
 64209  1  0
 64210  1  0
 65211  1  0
 65212  1  0
 66213  1  0
 68214  1  0
 69215  1  0
 69216  1  0
 72217  1  0
 73218  1  1
 74219  1  0
 74220  1  0
 75221  1  0
 75222  1  0
 76223  1  0
 76224  1  0
 77225  1  0
 77226  1  0
 78227  1  0
 78228  1  0
 81229  1  0
 82230  1  6
 83231  1  0
 83232  1  0
 85233  1  0
 86234  1  0
 87235  1  0
 88236  1  0
 89237  1  0
 92238  1  0
 93239  1  1
 94240  1  0
 94241  1  0
 95242  1  0
 98243  1  0
100244  1  0
100245  1  0
101246  1  0
101247  1  0
102248  1  0
102249  1  0
103250  1  0
104251  1  0
104252  1  0
104253  1  0
107254  1  0
108255  1  1
109256  1  0
109257  1  0
111258  1  0
112259  1  0
113260  1  0
114261  1  0
115262  1  0
118263  1  0
119264  1  1
120265  1  0
120266  1  0
122267  1  0
123268  1  0
124269  1  0
125270  1  0
126271  1  0
129272  1  0
130273  1  1
131274  1  0
131275  1  0
132276  1  0
132277  1  0
133278  1  0
133279  1  0
134280  1  0
134281  1  0
135282  1  0
135283  1  0
138284  1  0
140285  1  0
140286  1  0
141287  1  0
141288  1  0
142289  1  0
142290  1  0
143291  1  0
144292  1  0
144293  1  0
144294  1  0
147295  1  0
148296  1  6
149297  1  0
149298  1  0
150299  1  0
151300  1  0
151301  1  0
151302  1  0
152303  1  0
152304  1  0
152305  1  0
155306  1  0
M  END
