
     RDKit          2D

301310  0  0  0  0  0  0  0  0999 V2000
   22.3852   -2.4154    0.0000 C   0  0  0  0  0  0  0  0  0  0  0  0
   23.7078   -1.7078    0.0000 N   0  0  0  0  0  0  0  0  0  0  0  0
   24.9819   -2.4993    0.0000 C   0  0  0  0  0  0  0  0  0  0  0  0
   24.9335   -3.9986    0.0000 C   0  0  0  0  0  0  0  0  0  0  0  0
   26.2076   -4.7901    0.0000 C   0  0  0  0  0  0  0  0  0  0  0  0
   27.5302   -4.0825    0.0000 C   0  0  0  0  0  0  0  0  0  0  0  0
   27.5786   -2.5832    0.0000 C   0  0  0  0  0  0  0  0  0  0  0  0
   26.3045   -1.7917    0.0000 C   0  0  0  0  0  0  0  0  0  0  0  0
   29.0194   -2.1660    0.0000 C   0  0  0  0  0  0  0  0  0  0  0  0
   29.8615   -3.4074    0.0000 O   0  0  0  0  0  0  0  0  0  0  0  0
   28.9411   -4.5918    0.0000 C   0  0  0  0  0  0  0  0  0  0  0  0
   29.3583   -6.0326    0.0000 O   0  0  0  0  0  0  0  0  0  0  0  0
   30.4960   -1.9017    0.0000 C   0  0  0  0  0  0  0  0  0  0  0  0
   31.0053   -0.4908    0.0000 C   0  0  0  0  0  0  0  0  0  0  0  0
   32.4819   -0.2265    0.0000 C   0  0  0  0  0  0  0  0  0  0  0  0
   33.4490   -1.3731    0.0000 C   0  0  0  0  0  0  0  0  0  0  0  0
   32.9397   -2.7839    0.0000 C   0  0  0  0  0  0  0  0  0  0  0  0
   31.4631   -3.0482    0.0000 C   0  0  0  0  0  0  0  0  0  0  0  0
   34.9256   -1.1087    0.0000 O   0  0  0  0  0  0  0  0  0  0  0  0
   30.0381    0.6557    0.0000 O   0  0  0  0  0  0  0  0  0  0  0  0
   28.5616    0.3914    0.0000 C   0  0  0  0  0  0  0  0  0  0  0  0
   28.0523   -1.0195    0.0000 C   0  0  0  0  0  0  0  0  0  0  0  0
   26.8134   -0.6254    0.0000 C   0  0  0  0  0  0  0  0  0  0  0  0
   26.2976   -0.0139    0.0000 C   0  0  0  0  0  0  0  0  0  0  0  0
   26.5693    0.7386    0.0000 C   0  0  0  0  0  0  0  0  0  0  0  0
   27.3567    0.8795    0.0000 C   0  0  0  0  0  0  0  0  0  0  0  0
   25.1507    2.4202    0.0000 O   0  0  0  0  0  0  0  0  0  0  0  0
   22.3368   -3.9147    0.0000 S   0  0  0  0  0  0  0  0  0  0  0  0
   21.1111   -1.6239    0.0000 N   0  0  0  0  0  0  0  0  0  0  0  0
   19.7885   -2.3315    0.0000 C   0  0  0  0  0  0  0  0  0  0  0  0
   18.5143   -1.5400    0.0000 C   0  0  0  0  0  0  0  0  0  0  0  0
   17.1918   -2.2476    0.0000 C   0  0  0  0  0  0  0  0  0  0  0  0
   17.3596   -3.0269    0.0000 O   0  0  0  0  0  0  0  0  0  0  0  0
   15.9176   -1.4561    0.0000 N   0  0  0  0  0  0  0  0  0  0  0  0
   14.5950   -2.1637    0.0000 C   0  0  0  0  0  0  0  0  0  0  0  0
   15.5216   -3.3433    0.0000 C   0  0  0  0  0  0  0  0  0  0  0  0
   17.0065   -3.1307    0.0000 C   0  0  0  0  0  0  0  0  0  0  0  0
   17.9330   -4.3103    0.0000 N   0  0  0  0  0  0  0  0  0  0  0  0
   17.8850   -1.9149    0.0000 O   0  0  0  0  0  0  0  0  0  0  0  0
   13.1102   -2.3764    0.0000 C   0  0  0  0  0  0  0  0  0  0  0  0
   12.9054   -3.8623    0.0000 O   0  0  0  0  0  0  0  0  0  0  0  0
   12.1836   -1.1968    0.0000 N   0  0  0  0  0  0  0  0  0  0  0  0
   10.6988   -1.4094    0.0000 C   0  0  0  0  0  0  0  0  0  0  0  0
   11.1660   -2.8348    0.0000 C   0  0  0  0  0  0  0  0  0  0  0  0
   12.5855   -3.3195    0.0000 C   0  0  0  0  0  0  0  0  0  0  0  0
   11.1176   -4.3340    0.0000 C   0  0  0  0  0  0  0  0  0  0  0  0
    9.7950   -5.0416    0.0000 C   0  0  0  0  0  0  0  0  0  0  0  0
    9.2307   -1.1014    0.0000 C   0  0  0  0  0  0  0  0  0  0  0  0
    8.3736   -2.3324    0.0000 O   0  0  0  0  0  0  0  0  0  0  0  0
    8.7635    0.3240    0.0000 N   0  0  0  0  0  0  0  0  0  0  0  0
    7.2954    0.6321    0.0000 C   0  0  0  0  0  0  0  0  0  0  0  0
    7.2470   -0.8672    0.0000 C   0  0  0  0  0  0  0  0  0  0  0  0
    6.0213    1.4236    0.0000 C   0  0  0  0  0  0  0  0  0  0  0  0
    5.0403    0.2889    0.0000 O   0  0  0  0  0  0  0  0  0  0  0  0
    6.0697    2.9228    0.0000 N   0  0  0  0  0  0  0  0  0  0  0  0
    4.7956    3.7144    0.0000 C   0  0  0  0  0  0  0  0  0  0  0  0
    4.5981    2.2274    0.0000 C   0  0  0  0  0  0  0  0  0  0  0  0
    3.9711    0.8648    0.0000 C   0  0  0  0  0  0  0  0  0  0  0  0
    2.9704   -0.2526    0.0000 C   0  0  0  0  0  0  0  0  0  0  0  0
    1.6847   -1.0253    0.0000 C   0  0  0  0  0  0  0  0  0  0  0  0
    6.0412    4.5502    0.0000 C   0  0  0  0  0  0  0  0  0  0  0  0
    4.5460    5.1935    0.0000 C   0  0  0  0  0  0  0  0  0  0  0  0
    5.9714    5.6607    0.0000 O   0  0  0  0  0  0  0  0  0  0  0  0
    3.8716    6.5333    0.0000 N   0  0  0  0  0  0  0  0  0  0  0  0
    2.8321    7.6148    0.0000 C   0  0  0  0  0  0  0  0  0  0  0  0
    2.9552    9.1097    0.0000 C   0  0  0  0  0  0  0  0  0  0  0  0
    4.3115    9.7506    0.0000 C   0  0  0  0  0  0  0  0  0  0  0  0
    4.5902   11.2244    0.0000 C   0  0  0  0  0  0  0  0  0  0  0  0
    6.0780   11.4148    0.0000 N   0  0  0  0  0  0  0  0  0  0  0  0
    6.7189   10.0586    0.0000 C   0  0  0  0  0  0  0  0  0  0  0  0
    5.6271    9.0301    0.0000 N   0  0  0  0  0  0  0  0  0  0  0  0
    1.5201    8.3418    0.0000 C   0  0  0  0  0  0  0  0  0  0  0  0
    2.0435    9.7476    0.0000 O   0  0  0  0  0  0  0  0  0  0  0  0
    0.0521    8.6499    0.0000 N   0  0  0  0  0  0  0  0  0  0  0  0
   -1.4415    8.5115    0.0000 C   0  0  0  0  0  0  0  0  0  0  0  0
   -2.5335    9.5399    0.0000 C   0  0  0  0  0  0  0  0  0  0  0  0
   -2.1890   10.9997    0.0000 C   0  0  0  0  0  0  0  0  0  0  0  0
   -3.2810   12.0281    0.0000 C   0  0  0  0  0  0  0  0  0  0  0  0
   -1.3659   12.2538    0.0000 C   0  0  0  0  0  0  0  0  0  0  0  0
   -2.8280    7.9391    0.0000 C   0  0  0  0  0  0  0  0  0  0  0  0
   -3.6007    9.2247    0.0000 O   0  0  0  0  0  0  0  0  0  0  0  0
   -3.9841    6.9834    0.0000 N   0  0  0  0  0  0  0  0  0  0  0  0
   -4.8072    5.7294    0.0000 C   0  0  0  0  0  0  0  0  0  0  0  0
   -6.2920    5.5167    0.0000 C   0  0  0  0  0  0  0  0  0  0  0  0
   -5.2241    4.2885    0.0000 C   0  0  0  0  0  0  0  0  0  0  0  0
   -6.5414    5.0058    0.0000 O   0  0  0  0  0  0  0  0  0  0  0  0
   -5.1977    2.7887    0.0000 N   0  0  0  0  0  0  0  0  0  0  0  0
   -4.7305    1.3633    0.0000 C   0  0  0  0  0  0  0  0  0  0  0  0
   -3.8639    0.1390    0.0000 C   0  0  0  0  0  0  0  0  0  0  0  0
   -2.6749   -0.7755    0.0000 C   0  0  0  0  0  0  0  0  0  0  0  0
   -1.2691   -1.2989    0.0000 C   0  0  0  0  0  0  0  0  0  0  0  0
    0.2284   -1.3847    0.0000 C   0  0  0  0  0  0  0  0  0  0  0  0
   -4.1864   -0.0345    0.0000 C   0  0  0  0  0  0  0  0  0  0  0  0
   -3.9168   -1.5101    0.0000 C   0  0  0  0  0  0  0  0  0  0  0  0
   -3.9312   -3.0100    0.0000 C   0  0  0  0  0  0  0  0  0  0  0  0
   -4.2293   -4.4801    0.0000 C   0  0  0  0  0  0  0  0  0  0  0  0
   -5.5293    2.6330    0.0000 C   0  0  0  0  0  0  0  0  0  0  0  0
   -4.3413    3.5488    0.0000 O   0  0  0  0  0  0  0  0  0  0  0  0
   -6.5539    3.7285    0.0000 N   0  0  0  0  0  0  0  0  0  0  0  0
   -7.7673    4.6103    0.0000 C   0  0  0  0  0  0  0  0  0  0  0  0
   -7.8004    6.1099    0.0000 C   0  0  0  0  0  0  0  0  0  0  0  0
   -9.0180    6.9860    0.0000 C   0  0  0  0  0  0  0  0  0  0  0  0
   -9.1257    5.2465    0.0000 C   0  0  0  0  0  0  0  0  0  0  0  0
   -8.7974    6.7102    0.0000 O   0  0  0  0  0  0  0  0  0  0  0  0
  -10.5799    5.6142    0.0000 N   0  0  0  0  0  0  0  0  0  0  0  0
  -12.0775    5.7000    0.0000 C   0  0  0  0  0  0  0  0  0  0  0  0
  -13.5642    5.5008    0.0000 C   0  0  0  0  0  0  0  0  0  0  0  0
  -13.9038    6.9619    0.0000 O   0  0  0  0  0  0  0  0  0  0  0  0
  -14.9863    5.0239    0.0000 N   0  0  0  0  0  0  0  0  0  0  0  0
  -16.2925    4.2864    0.0000 C   0  0  0  0  0  0  0  0  0  0  0  0
  -17.6704    4.8793    0.0000 C   0  0  0  0  0  0  0  0  0  0  0  0
  -17.8460    6.3690    0.0000 C   0  0  0  0  0  0  0  0  0  0  0  0
  -19.2239    6.9618    0.0000 O   0  0  0  0  0  0  0  0  0  0  0  0
  -16.6436    7.2658    0.0000 O   0  0  0  0  0  0  0  0  0  0  0  0
  -17.4356    3.3151    0.0000 C   0  0  0  0  0  0  0  0  0  0  0  0
  -18.6306    4.2217    0.0000 O   0  0  0  0  0  0  0  0  0  0  0  0
  -18.3741    2.1450    0.0000 N   0  0  0  0  0  0  0  0  0  0  0  0
  -19.0743    0.8185    0.0000 C   0  0  0  0  0  0  0  0  0  0  0  0
  -20.5539    0.5722    0.0000 C   0  0  0  0  0  0  0  0  0  0  0  0
  -21.5070    1.7305    0.0000 C   0  0  0  0  0  0  0  0  0  0  0  0
  -21.1301    3.1824    0.0000 C   0  0  0  0  0  0  0  0  0  0  0  0
  -22.3945    3.9895    0.0000 N   0  0  0  0  0  0  0  0  0  0  0  0
  -23.5528    3.0364    0.0000 C   0  0  0  0  0  0  0  0  0  0  0  0
  -25.0361    3.2595    0.0000 C   0  0  0  0  0  0  0  0  0  0  0  0
  -25.9709    2.0864    0.0000 C   0  0  0  0  0  0  0  0  0  0  0  0
  -25.4224    0.6903    0.0000 C   0  0  0  0  0  0  0  0  0  0  0  0
  -23.9391    0.4672    0.0000 C   0  0  0  0  0  0  0  0  0  0  0  0
  -23.0043    1.6403    0.0000 C   0  0  0  0  0  0  0  0  0  0  0  0
  -19.5107   -0.6166    0.0000 C   0  0  0  0  0  0  0  0  0  0  0  0
  -21.0062   -0.5000    0.0000 O   0  0  0  0  0  0  0  0  0  0  0  0
  -19.6677   -2.1084    0.0000 N   0  0  0  0  0  0  0  0  0  0  0  0
  -19.5395   -3.6029    0.0000 C   0  0  0  0  0  0  0  0  0  0  0  0
  -20.6511   -4.6100    0.0000 C   0  0  0  0  0  0  0  0  0  0  0  0
  -22.0791   -4.1509    0.0000 C   0  0  0  0  0  0  0  0  0  0  0  0
  -23.1908   -5.1580    0.0000 N   0  0  0  0  0  0  0  0  0  0  0  0
  -22.3955   -2.6846    0.0000 O   0  0  0  0  0  0  0  0  0  0  0  0
  -19.1308   -5.0462    0.0000 C   0  0  0  0  0  0  0  0  0  0  0  0
  -20.4519   -5.7566    0.0000 O   0  0  0  0  0  0  0  0  0  0  0  0
  -18.4563   -6.3860    0.0000 N   0  0  0  0  0  0  0  0  0  0  0  0
  -17.5405   -7.5739    0.0000 C   0  0  0  0  0  0  0  0  0  0  0  0
  -17.9312   -9.0222    0.0000 C   0  0  0  0  0  0  0  0  0  0  0  0
  -19.3807   -9.4079    0.0000 C   0  0  0  0  0  0  0  0  0  0  0  0
  -19.7714  -10.8562    0.0000 O   0  0  0  0  0  0  0  0  0  0  0  0
  -20.4396   -8.3455    0.0000 O   0  0  0  0  0  0  0  0  0  0  0  0
  -16.4164   -8.5671    0.0000 C   0  0  0  0  0  0  0  0  0  0  0  0
  -17.1437   -9.8790    0.0000 O   0  0  0  0  0  0  0  0  0  0  0  0
  -15.1246   -9.3296    0.0000 N   0  0  0  0  0  0  0  0  0  0  0  0
  -13.7119   -9.8338    0.0000 C   0  0  0  0  0  0  0  0  0  0  0  0
  -12.2293  -10.0616    0.0000 C   0  0  0  0  0  0  0  0  0  0  0  0
  -10.7304  -10.0046    0.0000 C   0  0  0  0  0  0  0  0  0  0  0  0
   -9.2693   -9.6651    0.0000 C   0  0  0  0  0  0  0  0  0  0  0  0
   -7.8989   -9.0551    0.0000 C   0  0  0  0  0  0  0  0  0  0  0  0
   -6.6687   -8.1968    0.0000 C   0  0  0  0  0  0  0  0  0  0  0  0
   -5.6232   -7.1212    0.0000 C   0  0  0  0  0  0  0  0  0  0  0  0
   -4.8001   -5.8672    0.0000 C   0  0  0  0  0  0  0  0  0  0  0  0
  -14.7910  -10.8757    0.0000 C   0  0  0  0  0  0  0  0  0  0  0  0
  -13.2576  -11.2634    0.0000 C   0  0  0  0  0  0  0  0  0  0  0  0
  -14.1258  -12.4865    0.0000 O   0  0  0  0  0  0  0  0  0  0  0  0
  -11.9137  -11.9297    0.0000 O   0  0  0  0  0  0  0  0  0  0  0  0
   23.5731   -0.2138    0.0000 H   0  0  0  0  0  0  0  0  0  0  0  0
   23.6109   -4.7062    0.0000 H   0  0  0  0  0  0  0  0  0  0  0  0
   26.1592   -6.2893    0.0000 H   0  0  0  0  0  0  0  0  0  0  0  0
   25.9887   -0.3253    0.0000 H   0  0  0  0  0  0  0  0  0  0  0  0
   32.9912    1.1844    0.0000 H   0  0  0  0  0  0  0  0  0  0  0  0
   33.9068   -3.9305    0.0000 H   0  0  0  0  0  0  0  0  0  0  0  0
   30.9538   -4.4591    0.0000 H   0  0  0  0  0  0  0  0  0  0  0  0
   35.8927   -2.2553    0.0000 H   0  0  0  0  0  0  0  0  0  0  0  0
   26.0664   -2.6947    0.0000 H   0  0  0  0  0  0  0  0  0  0  0  0
   24.1108   -0.2196    0.0000 H   0  0  0  0  0  0  0  0  0  0  0  0
   28.1038    2.9488    0.0000 H   0  0  0  0  0  0  0  0  0  0  0  0
   25.6601    3.8310    0.0000 H   0  0  0  0  0  0  0  0  0  0  0  0
   21.1595   -0.1247    0.0000 H   0  0  0  0  0  0  0  0  0  0  0  0
   20.7150   -3.5111    0.0000 H   0  0  0  0  0  0  0  0  0  0  0  0
   18.9313   -3.5625    0.0000 H   0  0  0  0  0  0  0  0  0  0  0  0
   19.5151   -0.4226    0.0000 H   0  0  0  0  0  0  0  0  0  0  0  0
   17.5878   -0.3604    0.0000 H   0  0  0  0  0  0  0  0  0  0  0  0
   15.9660    0.0431    0.0000 H   0  0  0  0  0  0  0  0  0  0  0  0
   14.1278   -0.7384    0.0000 H   0  0  0  0  0  0  0  0  0  0  0  0
   15.9888   -4.7687    0.0000 H   0  0  0  0  0  0  0  0  0  0  0  0
   14.1990   -4.0510    0.0000 H   0  0  0  0  0  0  0  0  0  0  0  0
   19.4327   -4.2803    0.0000 H   0  0  0  0  0  0  0  0  0  0  0  0
   17.3747   -5.7026    0.0000 H   0  0  0  0  0  0  0  0  0  0  0  0
   12.7419    0.1955    0.0000 H   0  0  0  0  0  0  0  0  0  0  0  0
   10.7472    0.0898    0.0000 H   0  0  0  0  0  0  0  0  0  0  0  0
    9.6663   -2.8648    0.0000 H   0  0  0  0  0  0  0  0  0  0  0  0
   13.2496   -4.4960    0.0000 H   0  0  0  0  0  0  0  0  0  0  0  0
   14.1189   -2.9302    0.0000 H   0  0  0  0  0  0  0  0  0  0  0  0
   13.0851   -1.7169    0.0000 H   0  0  0  0  0  0  0  0  0  0  0  0
   11.5848   -5.7594    0.0000 H   0  0  0  0  0  0  0  0  0  0  0  0
   12.6097   -4.4870    0.0000 H   0  0  0  0  0  0  0  0  0  0  0  0
    9.7465   -6.5409    0.0000 H   0  0  0  0  0  0  0  0  0  0  0  0
    8.3101   -5.2543    0.0000 H   0  0  0  0  0  0  0  0  0  0  0  0
    9.1575   -3.6839    0.0000 H   0  0  0  0  0  0  0  0  0  0  0  0
    9.7643    1.4413    0.0000 H   0  0  0  0  0  0  0  0  0  0  0  0
    7.8537    2.0243    0.0000 H   0  0  0  0  0  0  0  0  0  0  0  0
    8.4152   -1.8081    0.0000 H   0  0  0  0  0  0  0  0  0  0  0  0
    6.6887   -2.2594    0.0000 H   0  0  0  0  0  0  0  0  0  0  0  0
    5.7790   -0.5591    0.0000 H   0  0  0  0  0  0  0  0  0  0  0  0
    7.4687    3.4640    0.0000 H   0  0  0  0  0  0  0  0  0  0  0  0
    6.0964    2.2986    0.0000 H   0  0  0  0  0  0  0  0  0  0  0  0
    5.4370    0.9840    0.0000 H   0  0  0  0  0  0  0  0  0  0  0  0
    5.2903    0.1507    0.0000 H   0  0  0  0  0  0  0  0  0  0  0  0
    4.7407   -0.4228    0.0000 H   0  0  0  0  0  0  0  0  0  0  0  0
    4.3346   -0.8762    0.0000 H   0  0  0  0  0  0  0  0  0  0  0  0
    3.1459   -1.7423    0.0000 H   0  0  0  0  0  0  0  0  0  0  0  0
    2.2572   -2.4117    0.0000 H   0  0  0  0  0  0  0  0  0  0  0  0
    7.4583    4.0585    0.0000 H   0  0  0  0  0  0  0  0  0  0  0  0
    6.9257    5.7616    0.0000 H   0  0  0  0  0  0  0  0  0  0  0  0
    5.2943    5.8511    0.0000 H   0  0  0  0  0  0  0  0  0  0  0  0
    5.0959    7.3999    0.0000 H   0  0  0  0  0  0  0  0  0  0  0  0
    4.2454    8.1174    0.0000 H   0  0  0  0  0  0  0  0  0  0  0  0
    2.5596   10.5566    0.0000 H   0  0  0  0  0  0  0  0  0  0  0  0
    1.4725    9.3369    0.0000 H   0  0  0  0  0  0  0  0  0  0  0  0
    3.5616   12.3162    0.0000 H   0  0  0  0  0  0  0  0  0  0  0  0
    6.7985   12.7305    0.0000 H   0  0  0  0  0  0  0  0  0  0  0  0
    8.1928    9.7799    0.0000 H   0  0  0  0  0  0  0  0  0  0  0  0
    0.1379   10.1474    0.0000 H   0  0  0  0  0  0  0  0  0  0  0  0
   -0.7841    9.8598    0.0000 H   0  0  0  0  0  0  0  0  0  0  0  0
   -3.9734    9.9603    0.0000 H   0  0  0  0  0  0  0  0  0  0  0  0
   -3.6356    8.5223    0.0000 H   0  0  0  0  0  0  0  0  0  0  0  0
   -0.7491   10.5793    0.0000 H   0  0  0  0  0  0  0  0  0  0  0  0
   -3.1170   13.5191    0.0000 H   0  0  0  0  0  0  0  0  0  0  0  0
   -4.6589   12.6209    0.0000 H   0  0  0  0  0  0  0  0  0  0  0  0
   -4.2508   10.8837    0.0000 H   0  0  0  0  0  0  0  0  0  0  0  0
   -1.8720   13.6658    0.0000 H   0  0  0  0  0  0  0  0  0  0  0  0
   -0.1636   13.1506    0.0000 H   0  0  0  0  0  0  0  0  0  0  0  0
   -0.2739   11.2254    0.0000 H   0  0  0  0  0  0  0  0  0  0  0  0
   -5.1014    7.9842    0.0000 H   0  0  0  0  0  0  0  0  0  0  0  0
   -5.6117    6.9954    0.0000 H   0  0  0  0  0  0  0  0  0  0  0  0
   -7.0903    6.8000    0.0000 H   0  0  0  0  0  0  0  0  0  0  0  0
   -7.7466    5.1501    0.0000 H   0  0  0  0  0  0  0  0  0  0  0  0
   -6.3668    4.0186    0.0000 H   0  0  0  0  0  0  0  0  0  0  0  0
   -6.6768    2.5391    0.0000 H   0  0  0  0  0  0  0  0  0  0  0  0
   -4.0279   -1.3520    0.0000 H   0  0  0  0  0  0  0  0  0  0  0  0
   -5.3363   -0.1474    0.0000 H   0  0  0  0  0  0  0  0  0  0  0  0
   -2.3921   -2.2486    0.0000 H   0  0  0  0  0  0  0  0  0  0  0  0
   -3.6559   -1.9102    0.0000 H   0  0  0  0  0  0  0  0  0  0  0  0
   -0.7314   -2.6992    0.0000 H   0  0  0  0  0  0  0  0  0  0  0  0
   -1.8721   -2.6724    0.0000 H   0  0  0  0  0  0  0  0  0  0  0  0
    0.3668   -2.8783    0.0000 H   0  0  0  0  0  0  0  0  0  0  0  0
   -3.1756    1.0737    0.0000 H   0  0  0  0  0  0  0  0  0  0  0  0
   -2.8058   -0.6208    0.0000 H   0  0  0  0  0  0  0  0  0  0  0  0
   -2.4728   -1.1038    0.0000 H   0  0  0  0  0  0  0  0  0  0  0  0
   -2.6720   -2.3471    0.0000 H   0  0  0  0  0  0  0  0  0  0  0  0
   -2.4365   -2.8843    0.0000 H   0  0  0  0  0  0  0  0  0  0  0  0
   -2.7464   -3.9299    0.0000 H   0  0  0  0  0  0  0  0  0  0  0  0
   -2.7941   -4.9166    0.0000 H   0  0  0  0  0  0  0  0  0  0  0  0
   -5.7051    4.9653    0.0000 H   0  0  0  0  0  0  0  0  0  0  0  0
   -6.5331    5.4627    0.0000 H   0  0  0  0  0  0  0  0  0  0  0  0
   -7.4954    7.5786    0.0000 H   0  0  0  0  0  0  0  0  0  0  0  0
   -6.3178    5.8822    0.0000 H   0  0  0  0  0  0  0  0  0  0  0  0
   -9.1489    8.3307    0.0000 H   0  0  0  0  0  0  0  0  0  0  0  0
  -10.5338    7.4390    0.0000 H   0  0  0  0  0  0  0  0  0  0  0  0
   -9.9615    5.5975    0.0000 H   0  0  0  0  0  0  0  0  0  0  0  0
  -10.5346    7.1135    0.0000 H   0  0  0  0  0  0  0  0  0  0  0  0
  -12.9161    6.9436    0.0000 H   0  0  0  0  0  0  0  0  0  0  0  0
  -11.5000    7.0844    0.0000 H   0  0  0  0  0  0  0  0  0  0  0  0
  -15.5963    6.3943    0.0000 H   0  0  0  0  0  0  0  0  0  0  0  0
  -16.3733    5.7843    0.0000 H   0  0  0  0  0  0  0  0  0  0  0  0
  -19.1463    5.1470    0.0000 H   0  0  0  0  0  0  0  0  0  0  0  0
  -18.3580    3.5461    0.0000 H   0  0  0  0  0  0  0  0  0  0  0  0
  -16.8192    8.7555    0.0000 H   0  0  0  0  0  0  0  0  0  0  0  0
  -19.5185    3.1148    0.0000 H   0  0  0  0  0  0  0  0  0  0  0  0
  -19.9520    2.0349    0.0000 H   0  0  0  0  0  0  0  0  0  0  0  0
  -21.9403   -0.0005    0.0000 H   0  0  0  0  0  0  0  0  0  0  0  0
  -20.4116   -0.9210    0.0000 H   0  0  0  0  0  0  0  0  0  0  0  0
  -19.8113    3.8970    0.0000 H   0  0  0  0  0  0  0  0  0  0  0  0
  -22.4847    5.4868    0.0000 H   0  0  0  0  0  0  0  0  0  0  0  0
  -25.5846    4.6556    0.0000 H   0  0  0  0  0  0  0  0  0  0  0  0
  -27.4543    2.3095    0.0000 H   0  0  0  0  0  0  0  0  0  0  0  0
  -26.3573   -0.4828    0.0000 H   0  0  0  0  0  0  0  0  0  0  0  0
  -23.3906   -0.9289    0.0000 H   0  0  0  0  0  0  0  0  0  0  0  0
  -21.1676   -2.0940    0.0000 H   0  0  0  0  0  0  0  0  0  0  0  0
  -20.9355   -3.0541    0.0000 H   0  0  0  0  0  0  0  0  0  0  0  0
  -21.5078   -5.8414    0.0000 H   0  0  0  0  0  0  0  0  0  0  0  0
  -19.7241   -5.7893    0.0000 H   0  0  0  0  0  0  0  0  0  0  0  0
  -24.6188   -4.6988    0.0000 H   0  0  0  0  0  0  0  0  0  0  0  0
  -22.8744   -6.6242    0.0000 H   0  0  0  0  0  0  0  0  0  0  0  0
  -19.7259   -7.1847    0.0000 H   0  0  0  0  0  0  0  0  0  0  0  0
  -19.0116   -7.8670    0.0000 H   0  0  0  0  0  0  0  0  0  0  0  0
  -17.9861  -10.5212    0.0000 H   0  0  0  0  0  0  0  0  0  0  0  0
  -16.5137   -9.5130    0.0000 H   0  0  0  0  0  0  0  0  0  0  0  0
  -21.8891   -8.7312    0.0000 H   0  0  0  0  0  0  0  0  0  0  0  0
  -15.9217  -10.6003    0.0000 H   0  0  0  0  0  0  0  0  0  0  0  0
  -11.5126  -11.3793    0.0000 H   0  0  0  0  0  0  0  0  0  0  0  0
  -12.7691  -11.4611    0.0000 H   0  0  0  0  0  0  0  0  0  0  0  0
   -9.9256  -11.2705    0.0000 H   0  0  0  0  0  0  0  0  0  0  0  0
  -10.9956  -11.4810    0.0000 H   0  0  0  0  0  0  0  0  0  0  0  0
   -8.2395  -10.7557    0.0000 H   0  0  0  0  0  0  0  0  0  0  0  0
   -9.4333  -11.1561    0.0000 H   0  0  0  0  0  0  0  0  0  0  0  0
   -6.6813   -9.9312    0.0000 H   0  0  0  0  0  0  0  0  0  0  0  0
   -7.7778  -10.5502    0.0000 H   0  0  0  0  0  0  0  0  0  0  0  0
   -5.3074   -8.8266    0.0000 H   0  0  0  0  0  0  0  0  0  0  0  0
   -6.2669   -9.6420    0.0000 H   0  0  0  0  0  0  0  0  0  0  0  0
   -4.1341   -7.3019    0.0000 H   0  0  0  0  0  0  0  0  0  0  0  0
   -4.9551   -8.4642    0.0000 H   0  0  0  0  0  0  0  0  0  0  0  0
   -3.4736   -6.5674    0.0000 H   0  0  0  0  0  0  0  0  0  0  0  0
  -14.6084  -12.3645    0.0000 H   0  0  0  0  0  0  0  0  0  0  0  0
  -16.0768  -11.6481    0.0000 H   0  0  0  0  0  0  0  0  0  0  0  0
  -15.9057   -9.8719    0.0000 H   0  0  0  0  0  0  0  0  0  0  0  0
  -11.3381  -13.0142    0.0000 H   0  0  0  0  0  0  0  0  0  0  0  0
  1  2  1  0
  2  3  1  0
  3  4  2  0
  4  5  1  0
  5  6  2  0
  6  7  1  0
  7  8  2  0
  7  9  1  0
  9 10  1  0
 10 11  1  0
 11 12  2  0
  9 13  1  0
 13 14  1  0
 14 15  2  0
 15 16  1  0
 16 17  2  0
 17 18  1  0
 16 19  1  0
 14 20  1  0
 20 21  1  0
 21 22  2  0
 22 23  1  0
 23 24  2  0
 24 25  1  0
 25 26  2  0
 25 27  1  0
  1 28  2  0
  1 29  1  0
 29 30  1  0
 30 31  1  0
 31 32  1  0
 32 33  2  0
 32 34  1  0
 34 35  1  0
 35 36  1  0
 36 37  1  0
 37 38  1  0
 37 39  2  0
 35 40  1  0
 40 41  2  0
 40 42  1  0
 42 43  1  0
 43 44  1  0
 44 45  1  0
 44 46  1  0
 46 47  1  0
 43 48  1  0
 48 49  2  0
 48 50  1  0
 50 51  1  0
 51 52  1  0
 51 53  1  0
 53 54  2  0
 53 55  1  0
 56 55  1  1
 56 57  1  0
 57 58  1  0
 58 59  1  0
 59 60  1  0
 56 61  1  0
 56 62  1  0
 62 63  2  0
 62 64  1  0
 64 65  1  0
 65 66  1  0
 66 67  1  0
 67 68  2  0
 68 69  1  0
 69 70  1  0
 70 71  2  0
 65 72  1  0
 72 73  2  0
 72 74  1  0
 74 75  1  0
 75 76  1  0
 76 77  1  0
 77 78  1  0
 77 79  1  0
 75 80  1  0
 80 81  2  0
 80 82  1  0
 82 83  1  0
 83 84  1  0
 83 85  1  0
 85 86  2  0
 85 87  1  0
 87 88  1  0
 88 89  1  0
 89 90  1  0
 90 91  1  0
 91 92  1  0
 88 93  1  0
 93 94  1  0
 94 95  1  0
 95 96  1  0
 88 97  1  0
 97 98  2  0
 97 99  1  0
 99100  1  0
100101  1  0
101102  1  0
100103  1  0
103104  2  0
103105  1  0
105106  1  0
106107  1  0
107108  2  0
107109  1  0
109110  1  0
110111  1  0
111112  1  0
112113  2  0
112114  1  0
110115  1  0
115116  2  0
115117  1  0
117118  1  0
118119  1  0
119120  1  0
120121  2  0
121122  1  0
122123  1  0
123124  2  0
124125  1  0
125126  2  0
126127  1  0
127128  2  0
118129  1  0
129130  2  0
129131  1  0
131132  1  0
132133  1  0
133134  1  0
134135  1  0
134136  2  0
132137  1  0
137138  2  0
137139  1  0
139140  1  0
140141  1  0
141142  1  0
142143  2  0
142144  1  0
140145  1  0
145146  2  0
145147  1  0
147148  1  0
148149  1  0
149150  1  0
150151  1  0
151152  1  0
152153  1  0
153154  1  0
154155  1  0
148156  1  0
148157  1  1
157158  2  0
157159  1  0
  8  3  1  0
 71 67  1  0
128120  1  0
 11  6  1  0
 60 92  2  0
128123  1  0
 18 13  2  0
 96155  2  0
 22  9  1  0
 26 21  1  0
  2160  1  0
  4161  1  0
  5162  1  0
  8163  1  0
 15164  1  0
 17165  1  0
 18166  1  0
 19167  1  0
 23168  1  0
 24169  1  0
 26170  1  0
 27171  1  0
 29172  1  0
 30173  1  0
 30174  1  0
 31175  1  0
 31176  1  0
 34177  1  0
 35178  1  1
 36179  1  0
 36180  1  0
 38181  1  0
 38182  1  0
 42183  1  0
 43184  1  1
 44185  1  6
 45186  1  0
 45187  1  0
 45188  1  0
 46189  1  0
 46190  1  0
 47191  1  0
 47192  1  0
 47193  1  0
 50194  1  0
 51195  1  1
 52196  1  0
 52197  1  0
 52198  1  0
 55199  1  0
 57200  1  0
 57201  1  0
 58202  1  0
 58203  1  0
 59204  1  0
 59205  1  0
 60206  1  0
 61207  1  0
 61208  1  0
 61209  1  0
 64210  1  0
 65211  1  6
 66212  1  0
 66213  1  0
 68214  1  0
 69215  1  0
 70216  1  0
 74217  1  0
 75218  1  6
 76219  1  0
 76220  1  0
 77221  1  0
 78222  1  0
 78223  1  0
 78224  1  0
 79225  1  0
 79226  1  0
 79227  1  0
 82228  1  0
 83229  1  6
 84230  1  0
 84231  1  0
 84232  1  0
 87233  1  0
 89234  1  0
 89235  1  0
 90236  1  0
 90237  1  0
 91238  1  0
 91239  1  0
 92240  1  0
 93241  1  0
 93242  1  0
 94243  1  0
 94244  1  0
 95245  1  0
 95246  1  0
 96247  1  0
 99248  1  0
100249  1  6
101250  1  0
101251  1  0
102252  1  0
102253  1  0
102254  1  0
105255  1  0
106256  1  0
106257  1  0
109258  1  0
110259  1  6
111260  1  0
111261  1  0
114262  1  0
117263  1  0
118264  1  6
119265  1  0
119266  1  0
121267  1  0
122268  1  0
124269  1  0
125270  1  0
126271  1  0
127272  1  0
131273  1  0
132274  1  1
133275  1  0
133276  1  0
135277  1  0
135278  1  0
139279  1  0
140280  1  6
141281  1  0
141282  1  0
144283  1  0
147284  1  0
149285  1  0
149286  1  0
150287  1  0
150288  1  0
151289  1  0
151290  1  0
152291  1  0
152292  1  0
153293  1  0
153294  1  0
154295  1  0
154296  1  0
155297  1  0
156298  1  0
156299  1  0
156300  1  0
159301  1  0
M  END
