
     RDKit          2D

418419  0  0  0  0  0  0  0  0999 V2000
  -44.2832   -4.3298    0.0000 N   0  0  0  0  0  0  0  0  0  0  0  0
  -42.8201   -4.6606    0.0000 C   0  0  0  0  0  0  0  0  0  0  0  0
  -41.8021   -3.5589    0.0000 C   0  0  0  0  0  0  0  0  0  0  0  0
  -40.3390   -3.8896    0.0000 C   0  0  0  0  0  0  0  0  0  0  0  0
  -39.3210   -2.7879    0.0000 O   0  0  0  0  0  0  0  0  0  0  0  0
  -39.8939   -5.3220    0.0000 N   0  0  0  0  0  0  0  0  0  0  0  0
  -38.4308   -5.6528    0.0000 C   0  0  0  0  0  0  0  0  0  0  0  0
  -39.0106   -7.0362    0.0000 C   0  0  0  0  0  0  0  0  0  0  0  0
  -40.4644   -7.4058    0.0000 O   0  0  0  0  0  0  0  0  0  0  0  0
  -36.9429   -5.4632    0.0000 C   0  0  0  0  0  0  0  0  0  0  0  0
  -36.1870   -6.7588    0.0000 O   0  0  0  0  0  0  0  0  0  0  0  0
  -36.3631   -4.0798    0.0000 N   0  0  0  0  0  0  0  0  0  0  0  0
  -34.8751   -3.8901    0.0000 C   0  0  0  0  0  0  0  0  0  0  0  0
  -33.7484   -4.8803    0.0000 C   0  0  0  0  0  0  0  0  0  0  0  0
  -32.3798   -5.4944    0.0000 C   0  0  0  0  0  0  0  0  0  0  0  0
  -30.8911   -5.6778    0.0000 C   0  0  0  0  0  0  0  0  0  0  0  0
  -29.4144   -5.4143    0.0000 C   0  0  0  0  0  0  0  0  0  0  0  0
  -35.4858   -5.2602    0.0000 C   0  0  0  0  0  0  0  0  0  0  0  0
  -35.6599   -2.6118    0.0000 C   0  0  0  0  0  0  0  0  0  0  0  0
  -36.5115   -2.8556    0.0000 O   0  0  0  0  0  0  0  0  0  0  0  0
  -36.0331   -1.1590    0.0000 N   0  0  0  0  0  0  0  0  0  0  0  0
  -35.9614    0.3393    0.0000 C   0  0  0  0  0  0  0  0  0  0  0  0
  -37.3566   -0.2116    0.0000 C   0  0  0  0  0  0  0  0  0  0  0  0
  -38.5313    0.7212    0.0000 C   0  0  0  0  0  0  0  0  0  0  0  0
  -39.9265    0.1703    0.0000 C   0  0  0  0  0  0  0  0  0  0  0  0
  -41.1011    1.1031    0.0000 O   0  0  0  0  0  0  0  0  0  0  0  0
  -40.1469   -1.3134    0.0000 O   0  0  0  0  0  0  0  0  0  0  0  0
  -35.4513    1.7499    0.0000 C   0  0  0  0  0  0  0  0  0  0  0  0
  -36.7701    2.4645    0.0000 O   0  0  0  0  0  0  0  0  0  0  0  0
  -34.5481    2.9475    0.0000 N   0  0  0  0  0  0  0  0  0  0  0  0
  -33.3320    3.8256    0.0000 C   0  0  0  0  0  0  0  0  0  0  0  0
  -34.6326    4.5729    0.0000 C   0  0  0  0  0  0  0  0  0  0  0  0
  -34.6357    6.0729    0.0000 C   0  0  0  0  0  0  0  0  0  0  0  0
  -35.9363    6.8202    0.0000 C   0  0  0  0  0  0  0  0  0  0  0  0
  -34.1256    7.4835    0.0000 C   0  0  0  0  0  0  0  0  0  0  0  0
  -31.9111    4.3063    0.0000 C   0  0  0  0  0  0  0  0  0  0  0  0
  -32.1747    5.7830    0.0000 O   0  0  0  0  0  0  0  0  0  0  0  0
  -30.4117    4.3468    0.0000 N   0  0  0  0  0  0  0  0  0  0  0  0
  -28.9669    3.9436    0.0000 C   0  0  0  0  0  0  0  0  0  0  0  0
  -29.1935    5.4263    0.0000 C   0  0  0  0  0  0  0  0  0  0  0  0
  -28.0227    6.3640    0.0000 C   0  0  0  0  0  0  0  0  0  0  0  0
  -27.7052    3.1324    0.0000 C   0  0  0  0  0  0  0  0  0  0  0  0
  -26.7150    4.2591    0.0000 O   0  0  0  0  0  0  0  0  0  0  0  0
  -26.7386    1.9853    0.0000 N   0  0  0  0  0  0  0  0  0  0  0  0
  -26.1531    0.6043    0.0000 C   0  0  0  0  0  0  0  0  0  0  0  0
  -26.0006   -0.8879    0.0000 C   0  0  0  0  0  0  0  0  0  0  0  0
  -26.2948   -2.3588    0.0000 C   0  0  0  0  0  0  0  0  0  0  0  0
  -27.0094   -3.6776    0.0000 C   0  0  0  0  0  0  0  0  0  0  0  0
  -28.0810   -4.7272    0.0000 C   0  0  0  0  0  0  0  0  0  0  0  0
  -24.6829    0.3065    0.0000 C   0  0  0  0  0  0  0  0  0  0  0  0
  -25.1351    1.7060    0.0000 C   0  0  0  0  0  0  0  0  0  0  0  0
  -25.4023    3.1820    0.0000 O   0  0  0  0  0  0  0  0  0  0  0  0
  -23.6720    1.3753    0.0000 N   0  0  0  0  0  0  0  0  0  0  0  0
  -22.6541    2.4770    0.0000 C   0  0  0  0  0  0  0  0  0  0  0  0
  -22.0743    3.8604    0.0000 C   0  0  0  0  0  0  0  0  0  0  0  0
  -20.5863    4.0500    0.0000 C   0  0  0  0  0  0  0  0  0  0  0  0
  -20.0065    5.4334    0.0000 C   0  0  0  0  0  0  0  0  0  0  0  0
  -18.5186    5.6230    0.0000 O   0  0  0  0  0  0  0  0  0  0  0  0
  -20.9147    6.6272    0.0000 O   0  0  0  0  0  0  0  0  0  0  0  0
  -21.1910    2.1462    0.0000 C   0  0  0  0  0  0  0  0  0  0  0  0
  -20.0463    3.1156    0.0000 O   0  0  0  0  0  0  0  0  0  0  0  0
  -20.7459    0.7138    0.0000 N   0  0  0  0  0  0  0  0  0  0  0  0
  -19.2828    0.3830    0.0000 C   0  0  0  0  0  0  0  0  0  0  0  0
  -17.7948    0.5727    0.0000 C   0  0  0  0  0  0  0  0  0  0  0  0
  -18.8377   -1.0494    0.0000 C   0  0  0  0  0  0  0  0  0  0  0  0
  -19.8556   -2.1511    0.0000 O   0  0  0  0  0  0  0  0  0  0  0  0
  -17.3746   -1.3801    0.0000 N   0  0  0  0  0  0  0  0  0  0  0  0
  -16.9295   -2.8126    0.0000 C   0  0  0  0  0  0  0  0  0  0  0  0
  -17.0011   -4.3109    0.0000 C   0  0  0  0  0  0  0  0  0  0  0  0
  -18.3345   -4.9979    0.0000 C   0  0  0  0  0  0  0  0  0  0  0  0
  -18.5624   -6.4805    0.0000 C   0  0  0  0  0  0  0  0  0  0  0  0
  -20.0428   -6.7220    0.0000 N   0  0  0  0  0  0  0  0  0  0  0  0
  -20.7299   -5.3886    0.0000 C   0  0  0  0  0  0  0  0  0  0  0  0
  -19.6741   -4.3231    0.0000 N   0  0  0  0  0  0  0  0  0  0  0  0
  -15.4664   -3.1433    0.0000 C   0  0  0  0  0  0  0  0  0  0  0  0
  -14.8500   -4.5108    0.0000 O   0  0  0  0  0  0  0  0  0  0  0  0
  -14.4484   -2.0416    0.0000 N   0  0  0  0  0  0  0  0  0  0  0  0
  -12.9853   -2.3724    0.0000 C   0  0  0  0  0  0  0  0  0  0  0  0
  -11.7236   -3.1836    0.0000 C   0  0  0  0  0  0  0  0  0  0  0  0
  -11.7953   -4.6818    0.0000 C   0  0  0  0  0  0  0  0  0  0  0  0
  -10.5335   -5.4930    0.0000 N   0  0  0  0  0  0  0  0  0  0  0  0
  -13.1286   -5.3689    0.0000 O   0  0  0  0  0  0  0  0  0  0  0  0
  -11.9674   -1.2707    0.0000 C   0  0  0  0  0  0  0  0  0  0  0  0
  -12.4125    0.1618    0.0000 O   0  0  0  0  0  0  0  0  0  0  0  0
  -10.5043   -1.6014    0.0000 N   0  0  0  0  0  0  0  0  0  0  0  0
   -9.4863   -0.4997    0.0000 C   0  0  0  0  0  0  0  0  0  0  0  0
   -8.9065    0.8837    0.0000 C   0  0  0  0  0  0  0  0  0  0  0  0
   -7.4186    1.0733    0.0000 C   0  0  0  0  0  0  0  0  0  0  0  0
   -6.8388    2.4568    0.0000 C   0  0  0  0  0  0  0  0  0  0  0  0
   -5.9555    0.7426    0.0000 C   0  0  0  0  0  0  0  0  0  0  0  0
   -8.0232   -0.8304    0.0000 C   0  0  0  0  0  0  0  0  0  0  0  0
   -7.5781   -2.2629    0.0000 O   0  0  0  0  0  0  0  0  0  0  0  0
   -7.0053    0.2713    0.0000 N   0  0  0  0  0  0  0  0  0  0  0  0
   -5.5422   -0.0595    0.0000 C   0  0  0  0  0  0  0  0  0  0  0  0
   -4.2804   -0.8707    0.0000 C   0  0  0  0  0  0  0  0  0  0  0  0
   -4.3521   -2.3690    0.0000 S   0  0  0  0  0  0  0  0  0  0  0  0
   -4.5242    1.0422    0.0000 C   0  0  0  0  0  0  0  0  0  0  0  0
   -4.7914    2.5182    0.0000 O   0  0  0  0  0  0  0  0  0  0  0  0
   -3.0611    0.7115    0.0000 N   0  0  0  0  0  0  0  0  0  0  0  0
   -2.0431    1.8132    0.0000 C   0  0  0  0  0  0  0  0  0  0  0  0
   -1.4634    3.1966    0.0000 C   0  0  0  0  0  0  0  0  0  0  0  0
   -1.3917    4.6949    0.0000 O   0  0  0  0  0  0  0  0  0  0  0  0
   -0.0096    3.5662    0.0000 C   0  0  0  0  0  0  0  0  0  0  0  0
   -0.5801    1.4824    0.0000 C   0  0  0  0  0  0  0  0  0  0  0  0
   -0.1350    0.0500    0.0000 O   0  0  0  0  0  0  0  0  0  0  0  0
    0.4379    2.5841    0.0000 N   0  0  0  0  0  0  0  0  0  0  0  0
    1.9010    2.2534    0.0000 C   0  0  0  0  0  0  0  0  0  0  0  0
    3.1627    1.4422    0.0000 C   0  0  0  0  0  0  0  0  0  0  0  0
    3.0911   -0.0561    0.0000 C   0  0  0  0  0  0  0  0  0  0  0  0
    4.3528   -0.8673    0.0000 C   0  0  0  0  0  0  0  0  0  0  0  0
    2.5113   -1.4395    0.0000 C   0  0  0  0  0  0  0  0  0  0  0  0
    2.9190    3.3551    0.0000 C   0  0  0  0  0  0  0  0  0  0  0  0
    2.4738    4.7875    0.0000 O   0  0  0  0  0  0  0  0  0  0  0  0
    4.3820    3.0243    0.0000 N   0  0  0  0  0  0  0  0  0  0  0  0
    5.4000    4.1260    0.0000 C   0  0  0  0  0  0  0  0  0  0  0  0
    5.9798    5.5095    0.0000 C   0  0  0  0  0  0  0  0  0  0  0  0
    7.4678    5.6991    0.0000 C   0  0  0  0  0  0  0  0  0  0  0  0
    8.0475    7.0825    0.0000 C   0  0  0  0  0  0  0  0  0  0  0  0
    8.9308    5.3683    0.0000 C   0  0  0  0  0  0  0  0  0  0  0  0
    6.8631    3.7953    0.0000 C   0  0  0  0  0  0  0  0  0  0  0  0
    7.3082    2.3629    0.0000 O   0  0  0  0  0  0  0  0  0  0  0  0
    7.8811    4.8970    0.0000 N   0  0  0  0  0  0  0  0  0  0  0  0
    9.3441    4.5662    0.0000 C   0  0  0  0  0  0  0  0  0  0  0  0
   10.6059    3.7551    0.0000 C   0  0  0  0  0  0  0  0  0  0  0  0
   10.5342    2.2568    0.0000 C   0  0  0  0  0  0  0  0  0  0  0  0
   11.7960    1.4456    0.0000 C   0  0  0  0  0  0  0  0  0  0  0  0
   11.7243   -0.0527    0.0000 O   0  0  0  0  0  0  0  0  0  0  0  0
   13.1293    2.1327    0.0000 O   0  0  0  0  0  0  0  0  0  0  0  0
   10.3621    5.6679    0.0000 C   0  0  0  0  0  0  0  0  0  0  0  0
   10.0949    7.1440    0.0000 O   0  0  0  0  0  0  0  0  0  0  0  0
   11.8252    5.3372    0.0000 N   0  0  0  0  0  0  0  0  0  0  0  0
   12.8432    6.4389    0.0000 C   0  0  0  0  0  0  0  0  0  0  0  0
   13.4229    7.8223    0.0000 C   0  0  0  0  0  0  0  0  0  0  0  0
   12.5148    9.0161    0.0000 C   0  0  0  0  0  0  0  0  0  0  0  0
   13.0945   10.3996    0.0000 N   0  0  0  0  0  0  0  0  0  0  0  0
   11.0268    8.8265    0.0000 O   0  0  0  0  0  0  0  0  0  0  0  0
   14.3063    6.1082    0.0000 C   0  0  0  0  0  0  0  0  0  0  0  0
   15.4509    7.0776    0.0000 O   0  0  0  0  0  0  0  0  0  0  0  0
   14.7514    4.6757    0.0000 N   0  0  0  0  0  0  0  0  0  0  0  0
   16.2144    4.3450    0.0000 C   0  0  0  0  0  0  0  0  0  0  0  0
   17.7024    4.5346    0.0000 C   0  0  0  0  0  0  0  0  0  0  0  0
   16.6596    2.9125    0.0000 C   0  0  0  0  0  0  0  0  0  0  0  0
   15.6416    1.8109    0.0000 O   0  0  0  0  0  0  0  0  0  0  0  0
   18.1226    2.5818    0.0000 N   0  0  0  0  0  0  0  0  0  0  0  0
   18.5678    1.1494    0.0000 C   0  0  0  0  0  0  0  0  0  0  0  0
   18.4961   -0.3489    0.0000 C   0  0  0  0  0  0  0  0  0  0  0  0
   19.6495   -1.3079    0.0000 C   0  0  0  0  0  0  0  0  0  0  0  0
   17.9163   -1.7323    0.0000 C   0  0  0  0  0  0  0  0  0  0  0  0
   16.4284   -1.9219    0.0000 C   0  0  0  0  0  0  0  0  0  0  0  0
   20.0308    0.8186    0.0000 C   0  0  0  0  0  0  0  0  0  0  0  0
   21.0488    1.9203    0.0000 O   0  0  0  0  0  0  0  0  0  0  0  0
   20.4759   -0.6138    0.0000 N   0  0  0  0  0  0  0  0  0  0  0  0
   21.9390   -0.9445    0.0000 C   0  0  0  0  0  0  0  0  0  0  0  0
   23.4270   -0.7549    0.0000 C   0  0  0  0  0  0  0  0  0  0  0  0
   24.0068    0.6285    0.0000 C   0  0  0  0  0  0  0  0  0  0  0  0
   25.4947    0.8181    0.0000 C   0  0  0  0  0  0  0  0  0  0  0  0
   26.0745    2.2015    0.0000 N   0  0  0  0  0  0  0  0  0  0  0  0
   26.4029   -0.3757    0.0000 O   0  0  0  0  0  0  0  0  0  0  0  0
   22.3841   -2.3770    0.0000 C   0  0  0  0  0  0  0  0  0  0  0  0
   21.3662   -3.4787    0.0000 O   0  0  0  0  0  0  0  0  0  0  0  0
   23.8472   -2.7077    0.0000 N   0  0  0  0  0  0  0  0  0  0  0  0
   24.2923   -4.1402    0.0000 C   0  0  0  0  0  0  0  0  0  0  0  0
   24.2207   -5.6384    0.0000 C   0  0  0  0  0  0  0  0  0  0  0  0
   22.8873   -6.3255    0.0000 C   0  0  0  0  0  0  0  0  0  0  0  0
   22.8156   -7.8238    0.0000 O   0  0  0  0  0  0  0  0  0  0  0  0
   21.6256   -5.5143    0.0000 O   0  0  0  0  0  0  0  0  0  0  0  0
   25.7554   -4.4709    0.0000 C   0  0  0  0  0  0  0  0  0  0  0  0
   26.3718   -5.8384    0.0000 O   0  0  0  0  0  0  0  0  0  0  0  0
   26.7734   -3.3692    0.0000 N   0  0  0  0  0  0  0  0  0  0  0  0
   28.2365   -3.6999    0.0000 C   0  0  0  0  0  0  0  0  0  0  0  0
   29.4982   -4.5111    0.0000 C   0  0  0  0  0  0  0  0  0  0  0  0
   30.4064   -5.7050    0.0000 O   0  0  0  0  0  0  0  0  0  0  0  0
   30.9054   -3.9917    0.0000 C   0  0  0  0  0  0  0  0  0  0  0  0
   29.2544   -2.5982    0.0000 C   0  0  0  0  0  0  0  0  0  0  0  0
   28.8093   -1.1658    0.0000 O   0  0  0  0  0  0  0  0  0  0  0  0
   30.7175   -2.9290    0.0000 N   0  0  0  0  0  0  0  0  0  0  0  0
   31.7355   -1.8273    0.0000 C   0  0  0  0  0  0  0  0  0  0  0  0
   32.3153   -0.4439    0.0000 C   0  0  0  0  0  0  0  0  0  0  0  0
   33.7690   -0.0743    0.0000 C   0  0  0  0  0  0  0  0  0  0  0  0
   33.1986   -2.1580    0.0000 C   0  0  0  0  0  0  0  0  0  0  0  0
   33.6437   -3.5905    0.0000 O   0  0  0  0  0  0  0  0  0  0  0  0
   34.2166   -1.0563    0.0000 N   0  0  0  0  0  0  0  0  0  0  0  0
   35.6796   -1.3871    0.0000 C   0  0  0  0  0  0  0  0  0  0  0  0
   36.9414   -2.1983    0.0000 C   0  0  0  0  0  0  0  0  0  0  0  0
   36.8697   -3.6966    0.0000 C   0  0  0  0  0  0  0  0  0  0  0  0
   38.1314   -4.5078    0.0000 C   0  0  0  0  0  0  0  0  0  0  0  0
   38.0598   -6.0060    0.0000 N   0  0  0  0  0  0  0  0  0  0  0  0
   39.3215   -6.8172    0.0000 C   0  0  0  0  0  0  0  0  0  0  0  0
   39.2499   -8.3155    0.0000 N   0  0  0  0  0  0  0  0  0  0  0  0
   40.6549   -6.1302    0.0000 N   0  0  0  0  0  0  0  0  0  0  0  0
   36.6976   -0.2854    0.0000 C   0  0  0  0  0  0  0  0  0  0  0  0
   36.2525    1.1471    0.0000 O   0  0  0  0  0  0  0  0  0  0  0  0
   38.1607   -0.6161    0.0000 N   0  0  0  0  0  0  0  0  0  0  0  0
   39.1787    0.4856    0.0000 C   0  0  0  0  0  0  0  0  0  0  0  0
   39.7584    1.8690    0.0000 C   0  0  0  0  0  0  0  0  0  0  0  0
   41.2464    2.0586    0.0000 C   0  0  0  0  0  0  0  0  0  0  0  0
   41.8262    3.4420    0.0000 C   0  0  0  0  0  0  0  0  0  0  0  0
   43.3142    3.6316    0.0000 O   0  0  0  0  0  0  0  0  0  0  0  0
   40.9180    4.6358    0.0000 O   0  0  0  0  0  0  0  0  0  0  0  0
   40.6417    0.1548    0.0000 C   0  0  0  0  0  0  0  0  0  0  0  0
   41.7864    1.1242    0.0000 O   0  0  0  0  0  0  0  0  0  0  0  0
   41.0869   -1.2776    0.0000 N   0  0  0  0  0  0  0  0  0  0  0  0
   42.5499   -1.6083    0.0000 C   0  0  0  0  0  0  0  0  0  0  0  0
   44.0379   -1.4187    0.0000 C   0  0  0  0  0  0  0  0  0  0  0  0
   44.6177   -0.0353    0.0000 C   0  0  0  0  0  0  0  0  0  0  0  0
   46.1056    0.1543    0.0000 C   0  0  0  0  0  0  0  0  0  0  0  0
   46.6854    1.5377    0.0000 N   0  0  0  0  0  0  0  0  0  0  0  0
   47.0138   -1.0395    0.0000 O   0  0  0  0  0  0  0  0  0  0  0  0
   42.9950   -3.0408    0.0000 C   0  0  0  0  0  0  0  0  0  0  0  0
   44.4069   -3.5474    0.0000 O   0  0  0  0  0  0  0  0  0  0  0  0
   41.9771   -4.1425    0.0000 O   0  0  0  0  0  0  0  0  0  0  0  0
  -45.3011   -5.4315    0.0000 H   0  0  0  0  0  0  0  0  0  0  0  0
  -44.7283   -2.8974    0.0000 H   0  0  0  0  0  0  0  0  0  0  0  0
  -43.3998   -6.0440    0.0000 H   0  0  0  0  0  0  0  0  0  0  0  0
  -41.5583   -5.4718    0.0000 H   0  0  0  0  0  0  0  0  0  0  0  0
  -43.0638   -2.7477    0.0000 H   0  0  0  0  0  0  0  0  0  0  0  0
  -41.2223   -2.1754    0.0000 H   0  0  0  0  0  0  0  0  0  0  0  0
  -41.0386   -6.2914    0.0000 H   0  0  0  0  0  0  0  0  0  0  0  0
  -38.3592   -4.1545    0.0000 H   0  0  0  0  0  0  0  0  0  0  0  0
  -39.0823   -8.5345    0.0000 H   0  0  0  0  0  0  0  0  0  0  0  0
  -37.5475   -7.3669    0.0000 H   0  0  0  0  0  0  0  0  0  0  0  0
  -41.0783   -8.6092    0.0000 H   0  0  0  0  0  0  0  0  0  0  0  0
  -36.9195   -3.5089    0.0000 H   0  0  0  0  0  0  0  0  0  0  0  0
  -33.7453   -6.3803    0.0000 H   0  0  0  0  0  0  0  0  0  0  0  0
  -35.0286   -5.6620    0.0000 H   0  0  0  0  0  0  0  0  0  0  0  0
  -32.1127   -6.9704    0.0000 H   0  0  0  0  0  0  0  0  0  0  0  0
  -33.3728   -6.6187    0.0000 H   0  0  0  0  0  0  0  0  0  0  0  0
  -30.0435   -6.9154    0.0000 H   0  0  0  0  0  0  0  0  0  0  0  0
  -31.5086   -7.0449    0.0000 H   0  0  0  0  0  0  0  0  0  0  0  0
  -28.9337   -6.8352    0.0000 H   0  0  0  0  0  0  0  0  0  0  0  0
  -36.6406   -5.9615    0.0000 H   0  0  0  0  0  0  0  0  0  0  0  0
  -35.0478   -6.7803    0.0000 H   0  0  0  0  0  0  0  0  0  0  0  0
  -34.0246   -6.0865    0.0000 H   0  0  0  0  0  0  0  0  0  0  0  0
  -37.5253   -1.3114    0.0000 H   0  0  0  0  0  0  0  0  0  0  0  0
  -36.9020    1.5078    0.0000 H   0  0  0  0  0  0  0  0  0  0  0  0
  -38.4792   -1.2065    0.0000 H   0  0  0  0  0  0  0  0  0  0  0  0
  -36.9044   -1.6418    0.0000 H   0  0  0  0  0  0  0  0  0  0  0  0
  -39.3161    1.9995    0.0000 H   0  0  0  0  0  0  0  0  0  0  0  0
  -37.5383    1.8455    0.0000 H   0  0  0  0  0  0  0  0  0  0  0  0
  -35.5977    4.0191    0.0000 H   0  0  0  0  0  0  0  0  0  0  0  0
  -33.0049    5.2895    0.0000 H   0  0  0  0  0  0  0  0  0  0  0  0
  -36.1307    4.6483    0.0000 H   0  0  0  0  0  0  0  0  0  0  0  0
  -35.4689    3.3277    0.0000 H   0  0  0  0  0  0  0  0  0  0  0  0
  -33.1376    5.9976    0.0000 H   0  0  0  0  0  0  0  0  0  0  0  0
  -36.1223    8.3086    0.0000 H   0  0  0  0  0  0  0  0  0  0  0  0
  -37.4141    7.0776    0.0000 H   0  0  0  0  0  0  0  0  0  0  0  0
  -36.6146    5.4823    0.0000 H   0  0  0  0  0  0  0  0  0  0  0  0
  -34.9452    8.7398    0.0000 H   0  0  0  0  0  0  0  0  0  0  0  0
  -33.1638    8.6346    0.0000 H   0  0  0  0  0  0  0  0  0  0  0  0
  -32.8250    6.7362    0.0000 H   0  0  0  0  0  0  0  0  0  0  0  0
  -30.2283    5.8356    0.0000 H   0  0  0  0  0  0  0  0  0  0  0  0
  -27.6184    4.6005    0.0000 H   0  0  0  0  0  0  0  0  0  0  0  0
  -29.9137    6.7422    0.0000 H   0  0  0  0  0  0  0  0  0  0  0  0
  -30.6885    5.3038    0.0000 H   0  0  0  0  0  0  0  0  0  0  0  0
  -28.2494    7.8468    0.0000 H   0  0  0  0  0  0  0  0  0  0  0  0
  -26.6019    6.8447    0.0000 H   0  0  0  0  0  0  0  0  0  0  0  0
  -27.1476    5.1458    0.0000 H   0  0  0  0  0  0  0  0  0  0  0  0
  -25.5655    2.9201    0.0000 H   0  0  0  0  0  0  0  0  0  0  0  0
  -24.6211   -0.2990    0.0000 H   0  0  0  0  0  0  0  0  0  0  0  0
  -24.7809   -1.7610    0.0000 H   0  0  0  0  0  0  0  0  0  0  0  0
  -24.8029   -2.2027    0.0000 H   0  0  0  0  0  0  0  0  0  0  0  0
  -25.2478   -3.4330    0.0000 H   0  0  0  0  0  0  0  0  0  0  0  0
  -25.5378   -3.9682    0.0000 H   0  0  0  0  0  0  0  0  0  0  0  0
  -26.4935   -5.0861    0.0000 H   0  0  0  0  0  0  0  0  0  0  0  0
  -27.2029   -5.9433    0.0000 H   0  0  0  0  0  0  0  0  0  0  0  0
  -23.4416    0.8399    0.0000 H   0  0  0  0  0  0  0  0  0  0  0  0
  -23.6992   -0.9324    0.0000 H   0  0  0  0  0  0  0  0  0  0  0  0
  -24.8580   -1.3630    0.0000 H   0  0  0  0  0  0  0  0  0  0  0  0
  -23.0556    0.0078    0.0000 H   0  0  0  0  0  0  0  0  0  0  0  0
  -23.9158    3.2882    0.0000 H   0  0  0  0  0  0  0  0  0  0  0  0
  -22.0026    5.3587    0.0000 H   0  0  0  0  0  0  0  0  0  0  0  0
  -23.5374    4.1911    0.0000 H   0  0  0  0  0  0  0  0  0  0  0  0
  -19.1232    3.7193    0.0000 H   0  0  0  0  0  0  0  0  0  0  0  0
  -20.1161    2.6256    0.0000 H   0  0  0  0  0  0  0  0  0  0  0  0
  -21.7638   -0.3879    0.0000 H   0  0  0  0  0  0  0  0  0  0  0  0
  -19.2111    1.8813    0.0000 H   0  0  0  0  0  0  0  0  0  0  0  0
  -17.2150    1.9561    0.0000 H   0  0  0  0  0  0  0  0  0  0  0  0
  -16.3023    0.4227    0.0000 H   0  0  0  0  0  0  0  0  0  0  0  0
  -17.5018   -0.8984    0.0000 H   0  0  0  0  0  0  0  0  0  0  0  0
  -16.2299   -0.4107    0.0000 H   0  0  0  0  0  0  0  0  0  0  0  0
  -18.4174   -3.0022    0.0000 H   0  0  0  0  0  0  0  0  0  0  0  0
  -16.5560   -5.7433    0.0000 H   0  0  0  0  0  0  0  0  0  0  0  0
  -15.5011   -4.3040    0.0000 H   0  0  0  0  0  0  0  0  0  0  0  0
  -17.4969   -7.5363    0.0000 H   0  0  0  0  0  0  0  0  0  0  0  0
  -20.7177   -8.0616    0.0000 H   0  0  0  0  0  0  0  0  0  0  0  0
  -22.2125   -5.1607    0.0000 H   0  0  0  0  0  0  0  0  0  0  0  0
  -14.8935   -0.6092    0.0000 H   0  0  0  0  0  0  0  0  0  0  0  0
  -13.5651   -3.7558    0.0000 H   0  0  0  0  0  0  0  0  0  0  0  0
  -10.3117   -3.6902    0.0000 H   0  0  0  0  0  0  0  0  0  0  0  0
  -10.8263   -1.9815    0.0000 H   0  0  0  0  0  0  0  0  0  0  0  0
  -10.6052   -6.9913    0.0000 H   0  0  0  0  0  0  0  0  0  0  0  0
   -9.2001   -4.8060    0.0000 H   0  0  0  0  0  0  0  0  0  0  0  0
   -9.8879   -2.9689    0.0000 H   0  0  0  0  0  0  0  0  0  0  0  0
  -10.7480    0.3115    0.0000 H   0  0  0  0  0  0  0  0  0  0  0  0
   -9.0180    2.3796    0.0000 H   0  0  0  0  0  0  0  0  0  0  0  0
  -10.3696    1.2145    0.0000 H   0  0  0  0  0  0  0  0  0  0  0  0
   -6.7783   -0.2832    0.0000 H   0  0  0  0  0  0  0  0  0  0  0  0
   -5.4409    3.0008    0.0000 H   0  0  0  0  0  0  0  0  0  0  0  0
   -6.7671    3.9550    0.0000 H   0  0  0  0  0  0  0  0  0  0  0  0
   -8.2506    2.9634    0.0000 H   0  0  0  0  0  0  0  0  0  0  0  0
   -5.1770   -0.5396    0.0000 H   0  0  0  0  0  0  0  0  0  0  0  0
   -4.6344    1.4530    0.0000 H   0  0  0  0  0  0  0  0  0  0  0  0
   -5.7017    2.2210    0.0000 H   0  0  0  0  0  0  0  0  0  0  0  0
   -7.0905    1.7688    0.0000 H   0  0  0  0  0  0  0  0  0  0  0  0
   -6.1220   -1.4429    0.0000 H   0  0  0  0  0  0  0  0  0  0  0  0
   -2.8686   -1.3773    0.0000 H   0  0  0  0  0  0  0  0  0  0  0  0
   -3.2433    0.2130    0.0000 H   0  0  0  0  0  0  0  0  0  0  0  0
   -3.0904   -3.1802    0.0000 H   0  0  0  0  0  0  0  0  0  0  0  0
   -2.4447   -0.6560    0.0000 H   0  0  0  0  0  0  0  0  0  0  0  0
   -3.3049    2.6244    0.0000 H   0  0  0  0  0  0  0  0  0  0  0  0
   -2.9265    3.5273    0.0000 H   0  0  0  0  0  0  0  0  0  0  0  0
   -2.6534    5.5061    0.0000 H   0  0  0  0  0  0  0  0  0  0  0  0
    0.6044    4.7696    0.0000 H   0  0  0  0  0  0  0  0  0  0  0  0
    1.4877    3.0555    0.0000 H   0  0  0  0  0  0  0  0  0  0  0  0
    0.6649    2.0297    0.0000 H   0  0  0  0  0  0  0  0  0  0  0  0
    0.1707    4.0601    0.0000 H   0  0  0  0  0  0  0  0  0  0  0  0
    1.1569    0.9509    0.0000 H   0  0  0  0  0  0  0  0  0  0  0  0
    4.6258    1.1114    0.0000 H   0  0  0  0  0  0  0  0  0  0  0  0
    4.0600    2.6442    0.0000 H   0  0  0  0  0  0  0  0  0  0  0  0
    1.5986    0.0938    0.0000 H   0  0  0  0  0  0  0  0  0  0  0  0
    4.4643   -2.3632    0.0000 H   0  0  0  0  0  0  0  0  0  0  0  0
    5.8159   -1.1980    0.0000 H   0  0  0  0  0  0  0  0  0  0  0  0
    5.0969    0.4351    0.0000 H   0  0  0  0  0  0  0  0  0  0  0  0
    3.2672   -2.7351    0.0000 H   0  0  0  0  0  0  0  0  0  0  0  0
    1.4933   -2.5412    0.0000 H   0  0  0  0  0  0  0  0  0  0  0  0
    1.2496   -0.6283    0.0000 H   0  0  0  0  0  0  0  0  0  0  0  0
    4.9984    1.6568    0.0000 H   0  0  0  0  0  0  0  0  0  0  0  0
    4.1383    4.9372    0.0000 H   0  0  0  0  0  0  0  0  0  0  0  0
    5.8683    7.0053    0.0000 H   0  0  0  0  0  0  0  0  0  0  0  0
    4.5167    5.8402    0.0000 H   0  0  0  0  0  0  0  0  0  0  0  0
    8.1080    4.3426    0.0000 H   0  0  0  0  0  0  0  0  0  0  0  0
    9.4454    7.6265    0.0000 H   0  0  0  0  0  0  0  0  0  0  0  0
    8.1192    8.5808    0.0000 H   0  0  0  0  0  0  0  0  0  0  0  0
    6.6357    7.5891    0.0000 H   0  0  0  0  0  0  0  0  0  0  0  0
    9.7093    4.0862    0.0000 H   0  0  0  0  0  0  0  0  0  0  0  0
   10.2520    6.0787    0.0000 H   0  0  0  0  0  0  0  0  0  0  0  0
    9.1846    6.8467    0.0000 H   0  0  0  0  0  0  0  0  0  0  0  0
    7.7958    6.3946    0.0000 H   0  0  0  0  0  0  0  0  0  0  0  0
    8.6001    3.2638    0.0000 H   0  0  0  0  0  0  0  0  0  0  0  0
   12.0177    3.2484    0.0000 H   0  0  0  0  0  0  0  0  0  0  0  0
   11.6430    4.8387    0.0000 H   0  0  0  0  0  0  0  0  0  0  0  0
    9.9544    0.8733    0.0000 H   0  0  0  0  0  0  0  0  0  0  0  0
    9.0417    2.4067    0.0000 H   0  0  0  0  0  0  0  0  0  0  0  0
   12.4416    3.9697    0.0000 H   0  0  0  0  0  0  0  0  0  0  0  0
   11.5814    7.2501    0.0000 H   0  0  0  0  0  0  0  0  0  0  0  0
   14.4409    8.9240    0.0000 H   0  0  0  0  0  0  0  0  0  0  0  0
   14.7742    7.1710    0.0000 H   0  0  0  0  0  0  0  0  0  0  0  0
   12.1863   11.5934    0.0000 H   0  0  0  0  0  0  0  0  0  0  0  0
   14.5825   10.5892    0.0000 H   0  0  0  0  0  0  0  0  0  0  0  0
   13.7334    3.5740    0.0000 H   0  0  0  0  0  0  0  0  0  0  0  0
   16.2861    5.8433    0.0000 H   0  0  0  0  0  0  0  0  0  0  0  0
   18.9782    3.7456    0.0000 H   0  0  0  0  0  0  0  0  0  0  0  0
   19.0358    5.2217    0.0000 H   0  0  0  0  0  0  0  0  0  0  0  0
   17.2573    5.9670    0.0000 H   0  0  0  0  0  0  0  0  0  0  0  0
   19.2673    3.5512    0.0000 H   0  0  0  0  0  0  0  0  0  0  0  0
   17.0798    0.9598    0.0000 H   0  0  0  0  0  0  0  0  0  0  0  0
   17.0842    0.1577    0.0000 H   0  0  0  0  0  0  0  0  0  0  0  0
   19.8693   -2.6560    0.0000 H   0  0  0  0  0  0  0  0  0  0  0  0
   21.2209   -1.4909    0.0000 H   0  0  0  0  0  0  0  0  0  0  0  0
   20.9193   -0.2109    0.0000 H   0  0  0  0  0  0  0  0  0  0  0  0
   17.8447   -3.2306    0.0000 H   0  0  0  0  0  0  0  0  0  0  0  0
   19.2559   -2.4073    0.0000 H   0  0  0  0  0  0  0  0  0  0  0  0
   15.8486   -3.3054    0.0000 H   0  0  0  0  0  0  0  0  0  0  0  0
   14.9653   -1.5912    0.0000 H   0  0  0  0  0  0  0  0  0  0  0  0
   16.3168   -0.4261    0.0000 H   0  0  0  0  0  0  0  0  0  0  0  0
   19.7548   -1.9291    0.0000 H   0  0  0  0  0  0  0  0  0  0  0  0
   21.8275    0.5513    0.0000 H   0  0  0  0  0  0  0  0  0  0  0  0
   24.9195   -0.9049    0.0000 H   0  0  0  0  0  0  0  0  0  0  0  0
   23.7200   -2.2260    0.0000 H   0  0  0  0  0  0  0  0  0  0  0  0
   24.0784    2.1268    0.0000 H   0  0  0  0  0  0  0  0  0  0  0  0
   22.5949    1.1351    0.0000 H   0  0  0  0  0  0  0  0  0  0  0  0
   27.5625    2.3911    0.0000 H   0  0  0  0  0  0  0  0  0  0  0  0
   25.1663    3.3953    0.0000 H   0  0  0  0  0  0  0  0  0  0  0  0
   24.9919   -1.7383    0.0000 H   0  0  0  0  0  0  0  0  0  0  0  0
   22.8044   -4.3298    0.0000 H   0  0  0  0  0  0  0  0  0  0  0  0
   24.6658   -7.0709    0.0000 H   0  0  0  0  0  0  0  0  0  0  0  0
   25.7207   -5.6316    0.0000 H   0  0  0  0  0  0  0  0  0  0  0  0
   26.3283   -1.9368    0.0000 H   0  0  0  0  0  0  0  0  0  0  0  0
   27.6567   -5.0834    0.0000 H   0  0  0  0  0  0  0  0  0  0  0  0
   28.4802   -5.6128    0.0000 H   0  0  0  0  0  0  0  0  0  0  0  0
   29.8266   -7.0884    0.0000 H   0  0  0  0  0  0  0  0  0  0  0  0
   32.0933   -4.6353    0.0000 H   0  0  0  0  0  0  0  0  0  0  0  0
   31.8496   -2.7224    0.0000 H   0  0  0  0  0  0  0  0  0  0  0  0
   30.5903   -2.3436    0.0000 H   0  0  0  0  0  0  0  0  0  0  0  0
   31.3339   -4.2965    0.0000 H   0  0  0  0  0  0  0  0  0  0  0  0
   30.4738   -1.0161    0.0000 H   0  0  0  0  0  0  0  0  0  0  0  0
   32.3869    1.0544    0.0000 H   0  0  0  0  0  0  0  0  0  0  0  0
   30.8522   -0.1131    0.0000 H   0  0  0  0  0  0  0  0  0  0  0  0
   34.3830    1.1292    0.0000 H   0  0  0  0  0  0  0  0  0  0  0  0
   35.2663   -0.5850    0.0000 H   0  0  0  0  0  0  0  0  0  0  0  0
   34.4435   -1.6107    0.0000 H   0  0  0  0  0  0  0  0  0  0  0  0
   33.9494    0.4197    0.0000 H   0  0  0  0  0  0  0  0  0  0  0  0
   34.9355   -2.6895    0.0000 H   0  0  0  0  0  0  0  0  0  0  0  0
   38.4044   -2.5290    0.0000 H   0  0  0  0  0  0  0  0  0  0  0  0
   37.8387   -0.9963    0.0000 H   0  0  0  0  0  0  0  0  0  0  0  0
   36.2899   -5.0800    0.0000 H   0  0  0  0  0  0  0  0  0  0  0  0
   35.3772   -3.5466    0.0000 H   0  0  0  0  0  0  0  0  0  0  0  0
   39.5945   -4.8385    0.0000 H   0  0  0  0  0  0  0  0  0  0  0  0
   38.8755   -3.2053    0.0000 H   0  0  0  0  0  0  0  0  0  0  0  0
   36.7264   -6.6931    0.0000 H   0  0  0  0  0  0  0  0  0  0  0  0
   40.5116   -9.1267    0.0000 H   0  0  0  0  0  0  0  0  0  0  0  0
   37.9165   -9.0026    0.0000 H   0  0  0  0  0  0  0  0  0  0  0  0
   41.9166   -6.9414    0.0000 H   0  0  0  0  0  0  0  0  0  0  0  0
   40.7265   -4.6319    0.0000 H   0  0  0  0  0  0  0  0  0  0  0  0
   38.7771   -1.9836    0.0000 H   0  0  0  0  0  0  0  0  0  0  0  0
   37.9169    1.2968    0.0000 H   0  0  0  0  0  0  0  0  0  0  0  0
   39.8301    3.3673    0.0000 H   0  0  0  0  0  0  0  0  0  0  0  0
   38.2954    2.1997    0.0000 H   0  0  0  0  0  0  0  0  0  0  0  0
   42.7095    1.7279    0.0000 H   0  0  0  0  0  0  0  0  0  0  0  0
   41.7166    0.6342    0.0000 H   0  0  0  0  0  0  0  0  0  0  0  0
   40.0689   -2.3793    0.0000 H   0  0  0  0  0  0  0  0  0  0  0  0
   42.4384   -0.1125    0.0000 H   0  0  0  0  0  0  0  0  0  0  0  0
   45.5010   -1.7495    0.0000 H   0  0  0  0  0  0  0  0  0  0  0  0
   44.1494   -2.9146    0.0000 H   0  0  0  0  0  0  0  0  0  0  0  0
   44.6893    1.4630    0.0000 H   0  0  0  0  0  0  0  0  0  0  0  0
   43.2058    0.4713    0.0000 H   0  0  0  0  0  0  0  0  0  0  0  0
   48.1734    1.7273    0.0000 H   0  0  0  0  0  0  0  0  0  0  0  0
   45.7772    2.7315    0.0000 H   0  0  0  0  0  0  0  0  0  0  0  0
  1  2  1  0
  2  3  1  0
  3  4  1  0
  4  5  2  0
  4  6  1  0
  6  7  1  0
  7  8  1  0
  8  9  1  0
  7 10  1  0
 10 11  2  0
 10 12  1  0
 13 12  1  6
 13 14  1  0
 14 15  1  0
 15 16  1  0
 16 17  1  0
 13 18  1  0
 13 19  1  0
 19 20  2  0
 19 21  1  0
 21 22  1  0
 22 23  1  0
 23 24  1  0
 24 25  1  0
 25 26  2  0
 25 27  1  0
 22 28  1  0
 28 29  2  0
 28 30  1  0
 30 31  1  0
 31 32  1  0
 32 33  1  0
 33 34  1  0
 33 35  1  0
 31 36  1  0
 36 37  2  0
 36 38  1  0
 38 39  1  0
 39 40  1  0
 40 41  1  0
 39 42  1  0
 42 43  2  0
 42 44  1  0
 44 45  1  0
 45 46  1  0
 46 47  1  0
 47 48  1  0
 48 49  1  0
 45 50  1  0
 45 51  1  6
 51 52  2  0
 51 53  1  0
 53 54  1  0
 54 55  1  0
 55 56  1  0
 56 57  1  0
 57 58  2  0
 57 59  1  0
 54 60  1  0
 60 61  2  0
 60 62  1  0
 62 63  1  0
 63 64  1  0
 63 65  1  0
 65 66  2  0
 65 67  1  0
 67 68  1  0
 68 69  1  0
 69 70  1  0
 70 71  2  0
 71 72  1  0
 72 73  1  0
 73 74  2  0
 68 75  1  0
 75 76  2  0
 75 77  1  0
 77 78  1  0
 78 79  1  0
 79 80  1  0
 80 81  1  0
 80 82  2  0
 78 83  1  0
 83 84  2  0
 83 85  1  0
 85 86  1  0
 86 87  1  0
 87 88  1  0
 88 89  1  0
 88 90  1  0
 86 91  1  0
 91 92  2  0
 91 93  1  0
 93 94  1  0
 94 95  1  0
 95 96  1  0
 94 97  1  0
 97 98  2  0
 97 99  1  0
 99100  1  0
100101  1  0
101102  1  0
101103  1  0
100104  1  0
104105  2  0
104106  1  0
106107  1  0
107108  1  0
108109  1  0
109110  1  0
109111  1  0
107112  1  0
112113  2  0
112114  1  0
114115  1  0
115116  1  0
116117  1  0
117118  1  0
117119  1  0
115120  1  0
120121  2  0
120122  1  0
122123  1  0
123124  1  0
124125  1  0
125126  1  0
126127  2  0
126128  1  0
123129  1  0
129130  2  0
129131  1  0
131132  1  0
132133  1  0
133134  1  0
134135  1  0
134136  2  0
132137  1  0
137138  2  0
137139  1  0
139140  1  0
140141  1  0
140142  1  0
142143  2  0
142144  1  0
144145  1  0
145146  1  0
146147  1  0
146148  1  0
148149  1  0
145150  1  0
150151  2  0
150152  1  0
152153  1  0
153154  1  0
154155  1  0
155156  1  0
156157  1  0
156158  2  0
153159  1  0
159160  2  0
159161  1  0
161162  1  0
162163  1  0
163164  1  0
164165  2  0
164166  1  0
162167  1  0
167168  2  0
167169  1  0
169170  1  0
170171  1  0
171172  1  0
171173  1  0
170174  1  0
174175  2  0
174176  1  0
176177  1  0
177178  1  0
178179  1  0
177180  1  0
180181  2  0
180182  1  0
182183  1  0
183184  1  0
184185  1  0
185186  1  0
186187  1  0
187188  1  0
188189  2  3
188190  1  0
183191  1  0
191192  2  0
191193  1  0
193194  1  0
194195  1  0
195196  1  0
196197  1  0
197198  2  0
197199  1  0
194200  1  0
200201  2  0
200202  1  0
202203  1  0
203204  1  0
204205  1  0
205206  1  0
206207  1  0
206208  2  0
203209  1  0
209210  2  0
209211  1  0
 74 70  1  0
 17 49  2  0
  1212  1  0
  1213  1  0
  2214  1  0
  2215  1  0
  3216  1  0
  3217  1  0
  6218  1  0
  7219  1  6
  8220  1  0
  8221  1  0
  9222  1  0
 12223  1  0
 14224  1  0
 14225  1  0
 15226  1  0
 15227  1  0
 16228  1  0
 16229  1  0
 17230  1  0
 18231  1  0
 18232  1  0
 18233  1  0
 21234  1  0
 22235  1  1
 23236  1  0
 23237  1  0
 24238  1  0
 24239  1  0
 30240  1  0
 31241  1  1
 32242  1  0
 32243  1  0
 33244  1  0
 34245  1  0
 34246  1  0
 34247  1  0
 35248  1  0
 35249  1  0
 35250  1  0
 38251  1  0
 39252  1  1
 40253  1  0
 40254  1  0
 41255  1  0
 41256  1  0
 41257  1  0
 44258  1  0
 46259  1  0
 46260  1  0
 47261  1  0
 47262  1  0
 48263  1  0
 48264  1  0
 49265  1  0
 50266  1  0
 50267  1  0
 50268  1  0
 53269  1  0
 54270  1  1
 55271  1  0
 55272  1  0
 56273  1  0
 56274  1  0
 62275  1  0
 63276  1  1
 64277  1  0
 64278  1  0
 64279  1  0
 67280  1  0
 68281  1  6
 69282  1  0
 69283  1  0
 71284  1  0
 72285  1  0
 73286  1  0
 77287  1  0
 78288  1  6
 79289  1  0
 79290  1  0
 81291  1  0
 81292  1  0
 85293  1  0
 86294  1  1
 87295  1  0
 87296  1  0
 88297  1  0
 89298  1  0
 89299  1  0
 89300  1  0
 90301  1  0
 90302  1  0
 90303  1  0
 93304  1  0
 94305  1  6
 95306  1  0
 95307  1  0
 96308  1  0
 99309  1  0
100310  1  1
101311  1  1
102312  1  0
103313  1  0
103314  1  0
103315  1  0
106316  1  0
107317  1  6
108318  1  0
108319  1  0
109320  1  0
110321  1  0
110322  1  0
110323  1  0
111324  1  0
111325  1  0
111326  1  0
114327  1  0
115328  1  1
116329  1  0
116330  1  0
117331  1  0
118332  1  0
118333  1  0
118334  1  0
119335  1  0
119336  1  0
119337  1  0
122338  1  0
123339  1  6
124340  1  0
124341  1  0
125342  1  0
125343  1  0
131344  1  0
132345  1  1
133346  1  0
133347  1  0
135348  1  0
135349  1  0
139350  1  0
140351  1  1
141352  1  0
141353  1  0
141354  1  0
144355  1  0
145356  1  6
146357  1  6
147358  1  0
147359  1  0
147360  1  0
148361  1  0
148362  1  0
149363  1  0
149364  1  0
149365  1  0
152366  1  0
153367  1  1
154368  1  0
154369  1  0
155370  1  0
155371  1  0
157372  1  0
157373  1  0
161374  1  0
162375  1  6
163376  1  0
163377  1  0
169378  1  0
170379  1  6
171380  1  6
172381  1  0
173382  1  0
173383  1  0
173384  1  0
176385  1  0
177386  1  1
178387  1  0
178388  1  0
179389  1  0
179390  1  0
179391  1  0
182392  1  0
183393  1  6
184394  1  0
184395  1  0
185396  1  0
185397  1  0
186398  1  0
186399  1  0
187400  1  0
189401  1  0
189402  1  0
190403  1  0
190404  1  0
193405  1  0
194406  1  1
195407  1  0
195408  1  0
196409  1  0
196410  1  0
202411  1  0
203412  1  1
204413  1  0
204414  1  0
205415  1  0
205416  1  0
207417  1  0
207418  1  0
M  CHG  7  27  -1  59  -1 128  -1 166  -1 189   1 199  -1 211  -1
M  END
