
     RDKit          2D

285292  0  0  0  0  0  0  0  0999 V2000
  -19.2705   -6.2117    0.0000 C   0  0  0  0  0  0  0  0  0  0  0  0
  -19.0567   -7.6964    0.0000 N   0  0  0  0  0  0  0  0  0  0  0  0
  -20.2357   -8.6239    0.0000 C   0  0  0  0  0  0  0  0  0  0  0  0
  -21.6283   -8.0666    0.0000 C   0  0  0  0  0  0  0  0  0  0  0  0
  -22.8072   -8.9940    0.0000 C   0  0  0  0  0  0  0  0  0  0  0  0
  -22.5935  -10.4787    0.0000 C   0  0  0  0  0  0  0  0  0  0  0  0
  -21.2009  -11.0360    0.0000 C   0  0  0  0  0  0  0  0  0  0  0  0
  -20.0219  -10.1086    0.0000 C   0  0  0  0  0  0  0  0  0  0  0  0
  -21.3005  -12.5327    0.0000 C   0  0  0  0  0  0  0  0  0  0  0  0
  -22.7547  -12.9004    0.0000 O   0  0  0  0  0  0  0  0  0  0  0  0
  -23.5538  -11.6310    0.0000 C   0  0  0  0  0  0  0  0  0  0  0  0
  -25.0505  -11.5314    0.0000 O   0  0  0  0  0  0  0  0  0  0  0  0
  -21.5560  -14.0108    0.0000 C   0  0  0  0  0  0  0  0  0  0  0  0
  -20.4037  -14.9711    0.0000 C   0  0  0  0  0  0  0  0  0  0  0  0
  -20.6593  -16.4492    0.0000 C   0  0  0  0  0  0  0  0  0  0  0  0
  -22.0671  -16.9669    0.0000 C   0  0  0  0  0  0  0  0  0  0  0  0
  -23.2194  -16.0066    0.0000 C   0  0  0  0  0  0  0  0  0  0  0  0
  -22.9638  -14.5285    0.0000 C   0  0  0  0  0  0  0  0  0  0  0  0
  -22.3226  -18.4450    0.0000 O   0  0  0  0  0  0  0  0  0  0  0  0
  -18.9959  -14.4533    0.0000 O   0  0  0  0  0  0  0  0  0  0  0  0
  -18.7404  -12.9753    0.0000 C   0  0  0  0  0  0  0  0  0  0  0  0
  -19.8927  -12.0149    0.0000 C   0  0  0  0  0  0  0  0  0  0  0  0
  -19.0994  -10.9850    0.0000 C   0  0  0  0  0  0  0  0  0  0  0  0
  -18.3486  -10.7089    0.0000 C   0  0  0  0  0  0  0  0  0  0  0  0
  -17.7340  -11.2211    0.0000 C   0  0  0  0  0  0  0  0  0  0  0  0
  -17.8703  -12.0094    0.0000 C   0  0  0  0  0  0  0  0  0  0  0  0
  -15.6692  -10.4617    0.0000 O   0  0  0  0  0  0  0  0  0  0  0  0
  -20.6631   -5.6545    0.0000 S   0  0  0  0  0  0  0  0  0  0  0  0
  -18.0916   -5.2843    0.0000 N   0  0  0  0  0  0  0  0  0  0  0  0
  -18.3053   -3.7996    0.0000 C   0  0  0  0  0  0  0  0  0  0  0  0
  -17.1264   -2.8721    0.0000 C   0  0  0  0  0  0  0  0  0  0  0  0
  -17.3401   -1.3875    0.0000 C   0  0  0  0  0  0  0  0  0  0  0  0
  -18.7327   -0.8302    0.0000 O   0  0  0  0  0  0  0  0  0  0  0  0
  -16.1612   -0.4600    0.0000 N   0  0  0  0  0  0  0  0  0  0  0  0
  -16.3749    1.0247    0.0000 C   0  0  0  0  0  0  0  0  0  0  0  0
  -17.0835    2.3467    0.0000 C   0  0  0  0  0  0  0  0  0  0  0  0
  -16.2929    3.6215    0.0000 C   0  0  0  0  0  0  0  0  0  0  0  0
  -17.0015    4.9435    0.0000 N   0  0  0  0  0  0  0  0  0  0  0  0
  -15.5137    3.7899    0.0000 O   0  0  0  0  0  0  0  0  0  0  0  0
  -15.1960    1.9521    0.0000 C   0  0  0  0  0  0  0  0  0  0  0  0
  -13.8033    1.3949    0.0000 O   0  0  0  0  0  0  0  0  0  0  0  0
  -15.4097    3.4368    0.0000 N   0  0  0  0  0  0  0  0  0  0  0  0
  -16.7365    4.1366    0.0000 C   0  0  0  0  0  0  0  0  0  0  0  0
  -16.4809    5.6147    0.0000 C   0  0  0  0  0  0  0  0  0  0  0  0
  -14.9962    5.8284    0.0000 C   0  0  0  0  0  0  0  0  0  0  0  0
  -14.3342    4.4824    0.0000 C   0  0  0  0  0  0  0  0  0  0  0  0
  -13.0648    5.2815    0.0000 C   0  0  0  0  0  0  0  0  0  0  0  0
  -12.9390    6.7763    0.0000 O   0  0  0  0  0  0  0  0  0  0  0  0
  -11.7380    4.5818    0.0000 N   0  0  0  0  0  0  0  0  0  0  0  0
  -10.4686    5.3809    0.0000 C   0  0  0  0  0  0  0  0  0  0  0  0
   -9.5491    6.5660    0.0000 C   0  0  0  0  0  0  0  0  0  0  0  0
   -8.0630    6.3622    0.0000 C   0  0  0  0  0  0  0  0  0  0  0  0
   -7.1434    7.5473    0.0000 C   0  0  0  0  0  0  0  0  0  0  0  0
   -5.6522    7.7092    0.0000 O   0  0  0  0  0  0  0  0  0  0  0  0
   -8.0292    8.7578    0.0000 O   0  0  0  0  0  0  0  0  0  0  0  0
   -9.1418    4.6811    0.0000 C   0  0  0  0  0  0  0  0  0  0  0  0
   -9.2676    3.1864    0.0000 O   0  0  0  0  0  0  0  0  0  0  0  0
   -7.8724    5.4803    0.0000 N   0  0  0  0  0  0  0  0  0  0  0  0
   -6.5456    4.7805    0.0000 C   0  0  0  0  0  0  0  0  0  0  0  0
   -6.1924    3.3227    0.0000 C   0  0  0  0  0  0  0  0  0  0  0  0
   -5.4252    2.0337    0.0000 C   0  0  0  0  0  0  0  0  0  0  0  0
   -4.3121    1.0282    0.0000 C   0  0  0  0  0  0  0  0  0  0  0  0
   -2.9521    0.3954    0.0000 C   0  0  0  0  0  0  0  0  0  0  0  0
   -7.8327    4.0101    0.0000 C   0  0  0  0  0  0  0  0  0  0  0  0
   -6.4535    6.2776    0.0000 C   0  0  0  0  0  0  0  0  0  0  0  0
   -7.7101    7.0968    0.0000 O   0  0  0  0  0  0  0  0  0  0  0  0
   -5.9241    7.6811    0.0000 N   0  0  0  0  0  0  0  0  0  0  0  0
   -5.0046    8.8662    0.0000 C   0  0  0  0  0  0  0  0  0  0  0  0
   -5.2847   10.3398    0.0000 C   0  0  0  0  0  0  0  0  0  0  0  0
   -6.7506   10.6577    0.0000 C   0  0  0  0  0  0  0  0  0  0  0  0
   -5.0439   11.8204    0.0000 C   0  0  0  0  0  0  0  0  0  0  0  0
   -6.2057   12.7692    0.0000 C   0  0  0  0  0  0  0  0  0  0  0  0
   -3.7766    9.7276    0.0000 C   0  0  0  0  0  0  0  0  0  0  0  0
   -4.2767   11.1418    0.0000 O   0  0  0  0  0  0  0  0  0  0  0  0
   -2.3492   10.1888    0.0000 N   0  0  0  0  0  0  0  0  0  0  0  0
   -0.8494   10.2088    0.0000 C   0  0  0  0  0  0  0  0  0  0  0  0
    0.1281   11.3466    0.0000 C   0  0  0  0  0  0  0  0  0  0  0  0
   -0.3685   12.7620    0.0000 C   0  0  0  0  0  0  0  0  0  0  0  0
    0.6089   13.8998    0.0000 C   0  0  0  0  0  0  0  0  0  0  0  0
   -1.3193   13.9222    0.0000 C   0  0  0  0  0  0  0  0  0  0  0  0
    0.5897    9.7858    0.0000 C   0  0  0  0  0  0  0  0  0  0  0  0
    1.2225   11.1458    0.0000 O   0  0  0  0  0  0  0  0  0  0  0  0
    1.8402    8.9574    0.0000 N   0  0  0  0  0  0  0  0  0  0  0  0
    2.7910    7.7972    0.0000 C   0  0  0  0  0  0  0  0  0  0  0  0
    4.2900    7.7424    0.0000 C   0  0  0  0  0  0  0  0  0  0  0  0
    5.0870    9.0132    0.0000 C   0  0  0  0  0  0  0  0  0  0  0  0
    6.5860    8.9583    0.0000 O   0  0  0  0  0  0  0  0  0  0  0  0
    4.3849   10.3387    0.0000 O   0  0  0  0  0  0  0  0  0  0  0  0
    3.3576    6.4083    0.0000 C   0  0  0  0  0  0  0  0  0  0  0  0
    4.8154    6.7615    0.0000 O   0  0  0  0  0  0  0  0  0  0  0  0
    3.4896    4.9141    0.0000 N   0  0  0  0  0  0  0  0  0  0  0  0
    3.1753    3.4474    0.0000 C   0  0  0  0  0  0  0  0  0  0  0  0
    2.4427    2.1385    0.0000 C   0  0  0  0  0  0  0  0  0  0  0  0
    1.3568    1.1037    0.0000 C   0  0  0  0  0  0  0  0  0  0  0  0
    0.0141    0.4349    0.0000 C   0  0  0  0  0  0  0  0  0  0  0  0
   -1.4660    0.1916    0.0000 C   0  0  0  0  0  0  0  0  0  0  0  0
    4.6415    3.7642    0.0000 C   0  0  0  0  0  0  0  0  0  0  0  0
    4.0671    2.2413    0.0000 C   0  0  0  0  0  0  0  0  0  0  0  0
    3.8190    0.7619    0.0000 O   0  0  0  0  0  0  0  0  0  0  0  0
    5.5575    2.4105    0.0000 N   0  0  0  0  0  0  0  0  0  0  0  0
    6.4492    1.2044    0.0000 C   0  0  0  0  0  0  0  0  0  0  0  0
    6.8747   -0.2340    0.0000 C   0  0  0  0  0  0  0  0  0  0  0  0
    5.8417   -1.3217    0.0000 C   0  0  0  0  0  0  0  0  0  0  0  0
    6.1145   -2.7967    0.0000 C   0  0  0  0  0  0  0  0  0  0  0  0
    4.7960   -3.5119    0.0000 N   0  0  0  0  0  0  0  0  0  0  0  0
    3.7083   -2.4789    0.0000 C   0  0  0  0  0  0  0  0  0  0  0  0
    4.3546   -1.1253    0.0000 N   0  0  0  0  0  0  0  0  0  0  0  0
    7.9397    1.3736    0.0000 C   0  0  0  0  0  0  0  0  0  0  0  0
    8.5383    2.7489    0.0000 O   0  0  0  0  0  0  0  0  0  0  0  0
    8.8314    0.1674    0.0000 N   0  0  0  0  0  0  0  0  0  0  0  0
   10.3218    0.3367    0.0000 C   0  0  0  0  0  0  0  0  0  0  0  0
   11.6645    1.0054    0.0000 C   0  0  0  0  0  0  0  0  0  0  0  0
   13.0067    0.3356    0.0000 C   0  0  0  0  0  0  0  0  0  0  0  0
   11.2136   -0.8695    0.0000 C   0  0  0  0  0  0  0  0  0  0  0  0
   10.6149   -2.2448    0.0000 O   0  0  0  0  0  0  0  0  0  0  0  0
   12.7040   -0.7003    0.0000 N   0  0  0  0  0  0  0  0  0  0  0  0
   13.5958   -1.9064    0.0000 C   0  0  0  0  0  0  0  0  0  0  0  0
   14.0212   -3.3448    0.0000 C   0  0  0  0  0  0  0  0  0  0  0  0
   12.9883   -4.4325    0.0000 C   0  0  0  0  0  0  0  0  0  0  0  0
   13.4137   -5.8708    0.0000 C   0  0  0  0  0  0  0  0  0  0  0  0
   12.3808   -6.9585    0.0000 N   0  0  0  0  0  0  0  0  0  0  0  0
   14.8722   -6.2216    0.0000 O   0  0  0  0  0  0  0  0  0  0  0  0
   15.0862   -1.7372    0.0000 C   0  0  0  0  0  0  0  0  0  0  0  0
   15.6849   -0.3618    0.0000 O   0  0  0  0  0  0  0  0  0  0  0  0
   15.9780   -2.9433    0.0000 N   0  0  0  0  0  0  0  0  0  0  0  0
   17.4684   -2.7741    0.0000 C   0  0  0  0  0  0  0  0  0  0  0  0
   18.8111   -2.1053    0.0000 C   0  0  0  0  0  0  0  0  0  0  0  0
   20.0616   -2.9337    0.0000 C   0  0  0  0  0  0  0  0  0  0  0  0
   21.4042   -2.2650    0.0000 C   0  0  0  0  0  0  0  0  0  0  0  0
   22.6547   -3.0934    0.0000 N   0  0  0  0  0  0  0  0  0  0  0  0
   23.9974   -2.4246    0.0000 C   0  0  0  0  0  0  0  0  0  0  0  0
   25.1376   -3.3993    0.0000 N   0  0  0  0  0  0  0  0  0  0  0  0
   24.0896   -0.9274    0.0000 N   0  0  0  0  0  0  0  0  0  0  0  0
   18.3602   -3.9802    0.0000 C   0  0  0  0  0  0  0  0  0  0  0  0
   17.7615   -5.3556    0.0000 O   0  0  0  0  0  0  0  0  0  0  0  0
   19.8506   -3.8110    0.0000 N   0  0  0  0  0  0  0  0  0  0  0  0
   20.7423   -5.0172    0.0000 C   0  0  0  0  0  0  0  0  0  0  0  0
   21.1678   -6.4556    0.0000 C   0  0  0  0  0  0  0  0  0  0  0  0
   20.1348   -7.5432    0.0000 C   0  0  0  0  0  0  0  0  0  0  0  0
   22.2328   -4.8480    0.0000 C   0  0  0  0  0  0  0  0  0  0  0  0
   23.1464   -3.6583    0.0000 O   0  0  0  0  0  0  0  0  0  0  0  0
   23.1245   -6.0541    0.0000 N   0  0  0  0  0  0  0  0  0  0  0  0
   24.6149   -5.8849    0.0000 C   0  0  0  0  0  0  0  0  0  0  0  0
   25.9576   -5.2161    0.0000 C   0  0  0  0  0  0  0  0  0  0  0  0
   27.2081   -6.0445    0.0000 C   0  0  0  0  0  0  0  0  0  0  0  0
   28.5508   -5.3757    0.0000 S   0  0  0  0  0  0  0  0  0  0  0  0
   29.8013   -6.2041    0.0000 C   0  0  0  0  0  0  0  0  0  0  0  0
   25.5067   -7.0910    0.0000 C   0  0  0  0  0  0  0  0  0  0  0  0
   27.0066   -7.1047    0.0000 O   0  0  0  0  0  0  0  0  0  0  0  0
   24.9080   -8.4664    0.0000 O   0  0  0  0  0  0  0  0  0  0  0  0
  -17.6066   -8.0798    0.0000 H   0  0  0  0  0  0  0  0  0  0  0  0
  -21.8420   -6.5819    0.0000 H   0  0  0  0  0  0  0  0  0  0  0  0
  -24.1999   -8.4368    0.0000 H   0  0  0  0  0  0  0  0  0  0  0  0
  -18.5358  -10.3123    0.0000 H   0  0  0  0  0  0  0  0  0  0  0  0
  -19.5070  -17.4095    0.0000 H   0  0  0  0  0  0  0  0  0  0  0  0
  -24.6272  -16.5243    0.0000 H   0  0  0  0  0  0  0  0  0  0  0  0
  -24.1161  -13.5682    0.0000 H   0  0  0  0  0  0  0  0  0  0  0  0
  -23.7304  -18.9627    0.0000 H   0  0  0  0  0  0  0  0  0  0  0  0
  -20.7894   -9.5765    0.0000 H   0  0  0  0  0  0  0  0  0  0  0  0
  -17.7955   -8.5832    0.0000 H   0  0  0  0  0  0  0  0  0  0  0  0
  -16.1803  -13.4179    0.0000 H   0  0  0  0  0  0  0  0  0  0  0  0
  -14.5169  -11.4220    0.0000 H   0  0  0  0  0  0  0  0  0  0  0  0
  -16.6989   -5.8415    0.0000 H   0  0  0  0  0  0  0  0  0  0  0  0
  -19.0139   -2.4775    0.0000 H   0  0  0  0  0  0  0  0  0  0  0  0
  -19.7303   -4.2679    0.0000 H   0  0  0  0  0  0  0  0  0  0  0  0
  -15.7013   -2.4039    0.0000 H   0  0  0  0  0  0  0  0  0  0  0  0
  -16.4177   -4.1942    0.0000 H   0  0  0  0  0  0  0  0  0  0  0  0
  -14.7685   -1.0173    0.0000 H   0  0  0  0  0  0  0  0  0  0  0  0
  -17.7999    0.5564    0.0000 H   0  0  0  0  0  0  0  0  0  0  0  0
  -18.2016    3.3467    0.0000 H   0  0  0  0  0  0  0  0  0  0  0  0
  -18.2624    1.4193    0.0000 H   0  0  0  0  0  0  0  0  0  0  0  0
  -16.5429    6.3717    0.0000 H   0  0  0  0  0  0  0  0  0  0  0  0
  -18.5008    4.9909    0.0000 H   0  0  0  0  0  0  0  0  0  0  0  0
  -17.6141    2.9202    0.0000 H   0  0  0  0  0  0  0  0  0  0  0  0
  -18.2188    4.3662    0.0000 H   0  0  0  0  0  0  0  0  0  0  0  0
  -17.9543    5.8960    0.0000 H   0  0  0  0  0  0  0  0  0  0  0  0
  -16.5383    7.1136    0.0000 H   0  0  0  0  0  0  0  0  0  0  0  0
  -15.3640    7.2826    0.0000 H   0  0  0  0  0  0  0  0  0  0  0  0
  -13.6620    6.5139    0.0000 H   0  0  0  0  0  0  0  0  0  0  0  0
  -13.4067    3.3035    0.0000 H   0  0  0  0  0  0  0  0  0  0  0  0
  -11.6806    3.0829    0.0000 H   0  0  0  0  0  0  0  0  0  0  0  0
  -11.4760    6.4922    0.0000 H   0  0  0  0  0  0  0  0  0  0  0  0
   -9.0903    7.9941    0.0000 H   0  0  0  0  0  0  0  0  0  0  0  0
  -10.8758    7.2658    0.0000 H   0  0  0  0  0  0  0  0  0  0  0  0
   -6.6063    6.0043    0.0000 H   0  0  0  0  0  0  0  0  0  0  0  0
   -7.9793    4.8645    0.0000 H   0  0  0  0  0  0  0  0  0  0  0  0
   -7.7466    6.9750    0.0000 H   0  0  0  0  0  0  0  0  0  0  0  0
   -7.6894    3.4185    0.0000 H   0  0  0  0  0  0  0  0  0  0  0  0
   -7.0517    2.0932    0.0000 H   0  0  0  0  0  0  0  0  0  0  0  0
   -6.8304    1.5089    0.0000 H   0  0  0  0  0  0  0  0  0  0  0  0
   -6.0546    0.6722    0.0000 H   0  0  0  0  0  0  0  0  0  0  0  0
   -5.6029    0.2641    0.0000 H   0  0  0  0  0  0  0  0  0  0  0  0
   -4.3295   -0.4717    0.0000 H   0  0  0  0  0  0  0  0  0  0  0  0
   -3.3751   -1.0437    0.0000 H   0  0  0  0  0  0  0  0  0  0  0  0
   -7.9282    2.3469    0.0000 H   0  0  0  0  0  0  0  0  0  0  0  0
   -9.0720    3.2409    0.0000 H   0  0  0  0  0  0  0  0  0  0  0  0
   -8.8124    4.8919    0.0000 H   0  0  0  0  0  0  0  0  0  0  0  0
   -7.1340    8.5678    0.0000 H   0  0  0  0  0  0  0  0  0  0  0  0
   -6.4949    9.0366    0.0000 H   0  0  0  0  0  0  0  0  0  0  0  0
   -3.8342   10.7221    0.0000 H   0  0  0  0  0  0  0  0  0  0  0  0
   -7.1805   12.2673    0.0000 H   0  0  0  0  0  0  0  0  0  0  0  0
   -8.2008   10.8141    0.0000 H   0  0  0  0  0  0  0  0  0  0  0  0
   -7.2928    9.4558    0.0000 H   0  0  0  0  0  0  0  0  0  0  0  0
   -4.3113   13.1293    0.0000 H   0  0  0  0  0  0  0  0  0  0  0  0
   -3.5780   11.5025    0.0000 H   0  0  0  0  0  0  0  0  0  0  0  0
   -5.9650   14.2497    0.0000 H   0  0  0  0  0  0  0  0  0  0  0  0
   -7.6220   13.2634    0.0000 H   0  0  0  0  0  0  0  0  0  0  0  0
   -7.2333   11.6764    0.0000 H   0  0  0  0  0  0  0  0  0  0  0  0
   -2.5925   11.6690    0.0000 H   0  0  0  0  0  0  0  0  0  0  0  0
   -1.6454   11.4802    0.0000 H   0  0  0  0  0  0  0  0  0  0  0  0
    1.5156   11.9166    0.0000 H   0  0  0  0  0  0  0  0  0  0  0  0
    1.3313   10.4509    0.0000 H   0  0  0  0  0  0  0  0  0  0  0  0
   -1.7560   12.1920    0.0000 H   0  0  0  0  0  0  0  0  0  0  0  0
    0.2885   15.3652    0.0000 H   0  0  0  0  0  0  0  0  0  0  0  0
    1.9166   14.6346    0.0000 H   0  0  0  0  0  0  0  0  0  0  0  0
    1.6940   12.8641    0.0000 H   0  0  0  0  0  0  0  0  0  0  0  0
   -0.9650   15.3797    0.0000 H   0  0  0  0  0  0  0  0  0  0  0  0
   -2.6095   14.6872    0.0000 H   0  0  0  0  0  0  0  0  0  0  0  0
   -2.2968   12.7844    0.0000 H   0  0  0  0  0  0  0  0  0  0  0  0
    2.8458   10.0705    0.0000 H   0  0  0  0  0  0  0  0  0  0  0  0
    3.4575    9.1410    0.0000 H   0  0  0  0  0  0  0  0  0  0  0  0
    5.6799    7.1782    0.0000 H   0  0  0  0  0  0  0  0  0  0  0  0
    4.3400    6.2432    0.0000 H   0  0  0  0  0  0  0  0  0  0  0  0
    4.9867    4.8220    0.0000 H   0  0  0  0  0  0  0  0  0  0  0  0
    2.9393    0.7231    0.0000 H   0  0  0  0  0  0  0  0  0  0  0  0
    3.8613    1.6513    0.0000 H   0  0  0  0  0  0  0  0  0  0  0  0
    1.5964   -0.3770    0.0000 H   0  0  0  0  0  0  0  0  0  0  0  0
    2.5688    0.2200    0.0000 H   0  0  0  0  0  0  0  0  0  0  0  0
   -0.3729   -1.0143    0.0000 H   0  0  0  0  0  0  0  0  0  0  0  0
    1.0516   -0.6484    0.0000 H   0  0  0  0  0  0  0  0  0  0  0  0
   -1.4461   -1.3082    0.0000 H   0  0  0  0  0  0  0  0  0  0  0  0
    5.8879    2.9296    0.0000 H   0  0  0  0  0  0  0  0  0  0  0  0
    5.8040    4.7121    0.0000 H   0  0  0  0  0  0  0  0  0  0  0  0
    4.4278    5.2489    0.0000 H   0  0  0  0  0  0  0  0  0  0  0  0
    6.3193    3.7026    0.0000 H   0  0  0  0  0  0  0  0  0  0  0  0
    5.1066    0.5356    0.0000 H   0  0  0  0  0  0  0  0  0  0  0  0
    7.6128   -1.5399    0.0000 H   0  0  0  0  0  0  0  0  0  0  0  0
    8.3393    0.0900    0.0000 H   0  0  0  0  0  0  0  0  0  0  0  0
    7.4681   -3.4430    0.0000 H   0  0  0  0  0  0  0  0  0  0  0  0
    4.5996   -4.9990    0.0000 H   0  0  0  0  0  0  0  0  0  0  0  0
    2.2334   -2.7517    0.0000 H   0  0  0  0  0  0  0  0  0  0  0  0
    8.4049   -1.2706    0.0000 H   0  0  0  0  0  0  0  0  0  0  0  0
    9.8964    1.7751    0.0000 H   0  0  0  0  0  0  0  0  0  0  0  0
   12.6975    2.0931    0.0000 H   0  0  0  0  0  0  0  0  0  0  0  0
   10.7728    2.2116    0.0000 H   0  0  0  0  0  0  0  0  0  0  0  0
   14.2577    0.8458    0.0000 H   0  0  0  0  0  0  0  0  0  0  0  0
   13.8068   -1.0291    0.0000 H   0  0  0  0  0  0  0  0  0  0  0  0
   12.5137   -1.2683    0.0000 H   0  0  0  0  0  0  0  0  0  0  0  0
   13.4659    0.5919    0.0000 H   0  0  0  0  0  0  0  0  0  0  0  0
   12.1816   -2.4065    0.0000 H   0  0  0  0  0  0  0  0  0  0  0  0
   14.7593   -4.6506    0.0000 H   0  0  0  0  0  0  0  0  0  0  0  0
   15.4858   -3.0208    0.0000 H   0  0  0  0  0  0  0  0  0  0  0  0
   11.6456   -5.1012    0.0000 H   0  0  0  0  0  0  0  0  0  0  0  0
   11.9561   -3.3440    0.0000 H   0  0  0  0  0  0  0  0  0  0  0  0
   12.8062   -8.3969    0.0000 H   0  0  0  0  0  0  0  0  0  0  0  0
   10.9224   -6.6078    0.0000 H   0  0  0  0  0  0  0  0  0  0  0  0
   15.5514   -4.3814    0.0000 H   0  0  0  0  0  0  0  0  0  0  0  0
   17.0429   -1.3357    0.0000 H   0  0  0  0  0  0  0  0  0  0  0  0
   19.7037   -0.8999    0.0000 H   0  0  0  0  0  0  0  0  0  0  0  0
   17.9193   -0.8992    0.0000 H   0  0  0  0  0  0  0  0  0  0  0  0
   20.9533   -4.1399    0.0000 H   0  0  0  0  0  0  0  0  0  0  0  0
   19.6603   -4.3791    0.0000 H   0  0  0  0  0  0  0  0  0  0  0  0
   22.4372   -1.1773    0.0000 H   0  0  0  0  0  0  0  0  0  0  0  0
   20.6661   -0.9591    0.0000 H   0  0  0  0  0  0  0  0  0  0  0  0
   22.9276   -4.5684    0.0000 H   0  0  0  0  0  0  0  0  0  0  0  0
   26.5906   -2.5842    0.0000 H   0  0  0  0  0  0  0  0  0  0  0  0
   24.9909   -4.7423    0.0000 H   0  0  0  0  0  0  0  0  0  0  0  0
   25.4322   -0.2587    0.0000 H   0  0  0  0  0  0  0  0  0  0  0  0
   22.8391   -0.0990    0.0000 H   0  0  0  0  0  0  0  0  0  0  0  0
   20.7643   -2.6214    0.0000 H   0  0  0  0  0  0  0  0  0  0  0  0
   19.3282   -5.5173    0.0000 H   0  0  0  0  0  0  0  0  0  0  0  0
   21.9059   -7.7614    0.0000 H   0  0  0  0  0  0  0  0  0  0  0  0
   22.6324   -6.1316    0.0000 H   0  0  0  0  0  0  0  0  0  0  0  0
   20.5603   -8.9816    0.0000 H   0  0  0  0  0  0  0  0  0  0  0  0
   18.7922   -8.2120    0.0000 H   0  0  0  0  0  0  0  0  0  0  0  0
   19.1027   -6.4548    0.0000 H   0  0  0  0  0  0  0  0  0  0  0  0
   22.6980   -7.4922    0.0000 H   0  0  0  0  0  0  0  0  0  0  0  0
   24.1895   -4.4465    0.0000 H   0  0  0  0  0  0  0  0  0  0  0  0
   26.9906   -4.1285    0.0000 H   0  0  0  0  0  0  0  0  0  0  0  0
   24.8005   -4.2616    0.0000 H   0  0  0  0  0  0  0  0  0  0  0  0
   27.9462   -7.3504    0.0000 H   0  0  0  0  0  0  0  0  0  0  0  0
   26.6336   -7.4301    0.0000 H   0  0  0  0  0  0  0  0  0  0  0  0
   31.1439   -5.5354    0.0000 H   0  0  0  0  0  0  0  0  0  0  0  0
   30.6930   -7.4103    0.0000 H   0  0  0  0  0  0  0  0  0  0  0  0
   28.9086   -7.4096    0.0000 H   0  0  0  0  0  0  0  0  0  0  0  0
  1  2  1  0
  2  3  1  0
  3  4  2  0
  4  5  1  0
  5  6  2  0
  6  7  1  0
  7  8  2  0
  7  9  1  0
  9 10  1  0
 10 11  1  0
 11 12  2  0
  9 13  1  0
 13 14  1  0
 14 15  2  0
 15 16  1  0
 16 17  2  0
 17 18  1  0
 16 19  1  0
 14 20  1  0
 20 21  1  0
 21 22  2  0
 22 23  1  0
 23 24  2  0
 24 25  1  0
 25 26  2  0
 25 27  1  0
  1 28  2  0
  1 29  1  0
 29 30  1  0
 30 31  1  0
 31 32  1  0
 32 33  2  0
 32 34  1  0
 34 35  1  0
 35 36  1  0
 36 37  1  0
 37 38  1  0
 37 39  2  0
 35 40  1  0
 40 41  2  0
 40 42  1  0
 42 43  1  0
 43 44  1  0
 44 45  1  0
 45 46  1  0
 46 47  1  0
 47 48  2  0
 47 49  1  0
 49 50  1  0
 50 51  1  0
 51 52  1  0
 52 53  1  0
 53 54  2  0
 53 55  1  0
 50 56  1  0
 56 57  2  0
 56 58  1  0
 59 58  1  6
 59 60  1  0
 60 61  1  0
 61 62  1  0
 62 63  1  0
 59 64  1  0
 59 65  1  0
 65 66  2  0
 65 67  1  0
 67 68  1  0
 68 69  1  0
 69 70  1  0
 69 71  1  0
 71 72  1  0
 68 73  1  0
 73 74  2  0
 73 75  1  0
 75 76  1  0
 76 77  1  0
 77 78  1  0
 78 79  1  0
 78 80  1  0
 76 81  1  0
 81 82  2  0
 81 83  1  0
 83 84  1  0
 84 85  1  0
 85 86  1  0
 86 87  2  0
 86 88  1  0
 84 89  1  0
 89 90  2  0
 89 91  1  0
 91 92  1  0
 92 93  1  0
 93 94  1  0
 94 95  1  0
 95 96  1  0
 92 97  1  0
 92 98  1  6
 98 99  2  0
 98100  1  0
100101  1  0
101102  1  0
102103  1  0
103104  2  0
104105  1  0
105106  1  0
106107  2  0
101108  1  0
108109  2  0
108110  1  0
110111  1  0
111112  1  0
112113  1  0
111114  1  0
114115  2  0
114116  1  0
116117  1  0
117118  1  0
118119  1  0
119120  1  0
120121  1  0
120122  2  0
117123  1  0
123124  2  0
123125  1  0
125126  1  0
126127  1  0
127128  1  0
128129  1  0
129130  1  0
130131  1  0
131132  2  3
131133  1  0
126134  1  0
134135  2  0
134136  1  0
136137  1  0
137138  1  0
138139  1  0
137140  1  0
140141  2  0
140142  1  0
142143  1  0
143144  1  0
144145  1  0
145146  1  0
146147  1  0
143148  1  0
148149  2  0
148150  1  0
  8  3  1  0
 46 42  1  0
107103  1  0
 11  6  1  0
 63 96  2  0
 18 13  2  0
 22  9  1  0
 26 21  1  0
  2151  1  0
  4152  1  0
  5153  1  0
  8154  1  0
 15155  1  0
 17156  1  0
 18157  1  0
 19158  1  0
 23159  1  0
 24160  1  0
 26161  1  0
 27162  1  0
 29163  1  0
 30164  1  0
 30165  1  0
 31166  1  0
 31167  1  0
 34168  1  0
 35169  1  1
 36170  1  0
 36171  1  0
 38172  1  0
 38173  1  0
 43174  1  0
 43175  1  0
 44176  1  0
 44177  1  0
 45178  1  0
 45179  1  0
 46180  1  0
 49181  1  0
 50182  1  1
 51183  1  0
 51184  1  0
 52185  1  0
 52186  1  0
 58187  1  0
 60188  1  0
 60189  1  0
 61190  1  0
 61191  1  0
 62192  1  0
 62193  1  0
 63194  1  0
 64195  1  0
 64196  1  0
 64197  1  0
 67198  1  0
 68199  1  1
 69200  1  6
 70201  1  0
 70202  1  0
 70203  1  0
 71204  1  0
 71205  1  0
 72206  1  0
 72207  1  0
 72208  1  0
 75209  1  0
 76210  1  1
 77211  1  0
 77212  1  0
 78213  1  0
 79214  1  0
 79215  1  0
 79216  1  0
 80217  1  0
 80218  1  0
 80219  1  0
 83220  1  0
 84221  1  1
 85222  1  0
 85223  1  0
 91224  1  0
 93225  1  0
 93226  1  0
 94227  1  0
 94228  1  0
 95229  1  0
 95230  1  0
 96231  1  0
 97232  1  0
 97233  1  0
 97234  1  0
100235  1  0
101236  1  6
102237  1  0
102238  1  0
104239  1  0
105240  1  0
106241  1  0
110242  1  0
111243  1  1
112244  1  0
112245  1  0
113246  1  0
113247  1  0
113248  1  0
116249  1  0
117250  1  6
118251  1  0
118252  1  0
119253  1  0
119254  1  0
121255  1  0
121256  1  0
125257  1  0
126258  1  1
127259  1  0
127260  1  0
128261  1  0
128262  1  0
129263  1  0
129264  1  0
130265  1  0
132266  1  0
132267  1  0
133268  1  0
133269  1  0
136270  1  0
137271  1  6
138272  1  0
138273  1  0
139274  1  0
139275  1  0
139276  1  0
142277  1  0
143278  1  1
144279  1  0
144280  1  0
145281  1  0
145282  1  0
147283  1  0
147284  1  0
147285  1  0
M  CHG  4  55  -1  88  -1 132   1 150  -1
M  END
