
     RDKit          2D

290298  0  0  0  0  0  0  0  0999 V2000
  -27.5581    0.4742    0.0000 C   0  0  0  0  0  0  0  0  0  0  0  0
  -28.8188   -0.3386    0.0000 N   0  0  0  0  0  0  0  0  0  0  0  0
  -30.1531    0.3469    0.0000 C   0  0  0  0  0  0  0  0  0  0  0  0
  -30.2265    1.8451    0.0000 C   0  0  0  0  0  0  0  0  0  0  0  0
  -31.5608    2.5306    0.0000 C   0  0  0  0  0  0  0  0  0  0  0  0
  -32.8215    1.7178    0.0000 C   0  0  0  0  0  0  0  0  0  0  0  0
  -32.7480    0.2196    0.0000 C   0  0  0  0  0  0  0  0  0  0  0  0
  -31.4138   -0.4658    0.0000 C   0  0  0  0  0  0  0  0  0  0  0  0
  -34.1502   -0.3132    0.0000 C   0  0  0  0  0  0  0  0  0  0  0  0
  -35.0902    0.8556    0.0000 O   0  0  0  0  0  0  0  0  0  0  0  0
  -34.2691    2.1109    0.0000 C   0  0  0  0  0  0  0  0  0  0  0  0
  -34.8019    3.5131    0.0000 O   0  0  0  0  0  0  0  0  0  0  0  0
  -35.6004   -0.6966    0.0000 C   0  0  0  0  0  0  0  0  0  0  0  0
  -35.9934   -2.1442    0.0000 C   0  0  0  0  0  0  0  0  0  0  0  0
  -37.4436   -2.5276    0.0000 C   0  0  0  0  0  0  0  0  0  0  0  0
  -38.5007   -1.4634    0.0000 C   0  0  0  0  0  0  0  0  0  0  0  0
  -38.1076   -0.0158    0.0000 C   0  0  0  0  0  0  0  0  0  0  0  0
  -36.6575    0.3676    0.0000 C   0  0  0  0  0  0  0  0  0  0  0  0
  -39.9509   -1.8467    0.0000 O   0  0  0  0  0  0  0  0  0  0  0  0
  -34.9363   -3.2084    0.0000 O   0  0  0  0  0  0  0  0  0  0  0  0
  -33.4862   -2.8250    0.0000 C   0  0  0  0  0  0  0  0  0  0  0  0
  -33.0931   -1.3775    0.0000 C   0  0  0  0  0  0  0  0  0  0  0  0
  -31.8263   -1.6696    0.0000 C   0  0  0  0  0  0  0  0  0  0  0  0
  -31.2625   -2.2372    0.0000 C   0  0  0  0  0  0  0  0  0  0  0  0
  -31.4722   -3.0092    0.0000 C   0  0  0  0  0  0  0  0  0  0  0  0
  -32.2456   -3.2137    0.0000 C   0  0  0  0  0  0  0  0  0  0  0  0
  -29.9218   -4.5701    0.0000 O   0  0  0  0  0  0  0  0  0  0  0  0
  -27.6316    1.9724    0.0000 S   0  0  0  0  0  0  0  0  0  0  0  0
  -26.2239   -0.2113    0.0000 N   0  0  0  0  0  0  0  0  0  0  0  0
  -24.9631    0.6015    0.0000 C   0  0  0  0  0  0  0  0  0  0  0  0
  -23.6289   -0.0840    0.0000 C   0  0  0  0  0  0  0  0  0  0  0  0
  -22.3682    0.7288    0.0000 C   0  0  0  0  0  0  0  0  0  0  0  0
  -22.4417    2.2270    0.0000 O   0  0  0  0  0  0  0  0  0  0  0  0
  -21.0340    0.0433    0.0000 N   0  0  0  0  0  0  0  0  0  0  0  0
  -19.7732    0.8560    0.0000 C   0  0  0  0  0  0  0  0  0  0  0  0
  -18.8665    2.0510    0.0000 C   0  0  0  0  0  0  0  0  0  0  0  0
  -17.4099    2.4091    0.0000 O   0  0  0  0  0  0  0  0  0  0  0  0
  -18.4390    0.1706    0.0000 C   0  0  0  0  0  0  0  0  0  0  0  0
  -18.3655   -1.3276    0.0000 O   0  0  0  0  0  0  0  0  0  0  0  0
  -17.1783    0.9833    0.0000 N   0  0  0  0  0  0  0  0  0  0  0  0
  -15.8441    0.2979    0.0000 C   0  0  0  0  0  0  0  0  0  0  0  0
  -14.8247   -0.8026    0.0000 C   0  0  0  0  0  0  0  0  0  0  0  0
  -15.2681   -2.2356    0.0000 O   0  0  0  0  0  0  0  0  0  0  0  0
  -14.5833    1.1106    0.0000 C   0  0  0  0  0  0  0  0  0  0  0  0
  -14.6568    2.6088    0.0000 O   0  0  0  0  0  0  0  0  0  0  0  0
  -13.2491    0.4251    0.0000 N   0  0  0  0  0  0  0  0  0  0  0  0
  -11.9884    1.2379    0.0000 C   0  0  0  0  0  0  0  0  0  0  0  0
  -11.0816    2.4328    0.0000 C   0  0  0  0  0  0  0  0  0  0  0  0
   -9.5934    2.2450    0.0000 C   0  0  0  0  0  0  0  0  0  0  0  0
   -8.6867    3.4400    0.0000 C   0  0  0  0  0  0  0  0  0  0  0  0
   -8.2592    1.5596    0.0000 C   0  0  0  0  0  0  0  0  0  0  0  0
  -10.6541    0.5524    0.0000 C   0  0  0  0  0  0  0  0  0  0  0  0
  -10.7638   -0.9435    0.0000 O   0  0  0  0  0  0  0  0  0  0  0  0
   -9.3934    1.3652    0.0000 N   0  0  0  0  0  0  0  0  0  0  0  0
   -8.0592    0.6797    0.0000 C   0  0  0  0  0  0  0  0  0  0  0  0
   -7.0399   -0.4207    0.0000 C   0  0  0  0  0  0  0  0  0  0  0  0
   -7.4832   -1.8537    0.0000 C   0  0  0  0  0  0  0  0  0  0  0  0
   -8.9459   -2.1862    0.0000 C   0  0  0  0  0  0  0  0  0  0  0  0
   -9.3893   -3.6192    0.0000 C   0  0  0  0  0  0  0  0  0  0  0  0
   -8.3699   -4.7197    0.0000 C   0  0  0  0  0  0  0  0  0  0  0  0
   -6.9073   -4.3871    0.0000 C   0  0  0  0  0  0  0  0  0  0  0  0
   -6.4639   -2.9542    0.0000 C   0  0  0  0  0  0  0  0  0  0  0  0
   -6.7984    1.4925    0.0000 C   0  0  0  0  0  0  0  0  0  0  0  0
   -6.6888    2.9884    0.0000 O   0  0  0  0  0  0  0  0  0  0  0  0
   -5.4642    0.8070    0.0000 N   0  0  0  0  0  0  0  0  0  0  0  0
   -4.2035    1.6197    0.0000 C   0  0  0  0  0  0  0  0  0  0  0  0
   -3.2968    2.8147    0.0000 C   0  0  0  0  0  0  0  0  0  0  0  0
   -1.8086    2.6269    0.0000 C   0  0  0  0  0  0  0  0  0  0  0  0
   -0.9018    3.8218    0.0000 C   0  0  0  0  0  0  0  0  0  0  0  0
    0.3132    3.8178    0.0000 O   0  0  0  0  0  0  0  0  0  0  0  0
   -1.4833    5.2045    0.0000 O   0  0  0  0  0  0  0  0  0  0  0  0
   -2.8693    0.9343    0.0000 C   0  0  0  0  0  0  0  0  0  0  0  0
   -2.7958   -0.5639    0.0000 O   0  0  0  0  0  0  0  0  0  0  0  0
   -1.6085    1.7470    0.0000 N   0  0  0  0  0  0  0  0  0  0  0  0
   -0.2743    1.0616    0.0000 C   0  0  0  0  0  0  0  0  0  0  0  0
    0.7450   -0.0389    0.0000 C   0  0  0  0  0  0  0  0  0  0  0  0
    0.3016   -1.4719    0.0000 C   0  0  0  0  0  0  0  0  0  0  0  0
    1.3210   -2.5723    0.0000 C   0  0  0  0  0  0  0  0  0  0  0  0
    0.8776   -4.0053    0.0000 N   0  0  0  0  0  0  0  0  0  0  0  0
    1.8969   -5.1057    0.0000 C   0  0  0  0  0  0  0  0  0  0  0  0
    1.4536   -6.5387    0.0000 N   0  0  0  0  0  0  0  0  0  0  0  0
    3.3596   -4.7732    0.0000 N   0  0  0  0  0  0  0  0  0  0  0  0
    0.9864    1.8743    0.0000 C   0  0  0  0  0  0  0  0  0  0  0  0
    1.0753    3.0861    0.0000 O   0  0  0  0  0  0  0  0  0  0  0  0
    2.3206    1.1889    0.0000 N   0  0  0  0  0  0  0  0  0  0  0  0
    3.5814    2.0016    0.0000 C   0  0  0  0  0  0  0  0  0  0  0  0
    4.4881    3.1965    0.0000 C   0  0  0  0  0  0  0  0  0  0  0  0
    5.9763    3.0087    0.0000 C   0  0  0  0  0  0  0  0  0  0  0  0
    6.5578    1.6260    0.0000 C   0  0  0  0  0  0  0  0  0  0  0  0
    8.0460    1.4382    0.0000 C   0  0  0  0  0  0  0  0  0  0  0  0
    8.9527    2.6332    0.0000 C   0  0  0  0  0  0  0  0  0  0  0  0
    8.3712    4.0159    0.0000 C   0  0  0  0  0  0  0  0  0  0  0  0
    6.8830    4.2037    0.0000 C   0  0  0  0  0  0  0  0  0  0  0  0
    4.9156    1.3161    0.0000 C   0  0  0  0  0  0  0  0  0  0  0  0
    4.6244   -0.1553    0.0000 O   0  0  0  0  0  0  0  0  0  0  0  0
    6.1763    2.1289    0.0000 N   0  0  0  0  0  0  0  0  0  0  0  0
    7.5106    1.4434    0.0000 C   0  0  0  0  0  0  0  0  0  0  0  0
    8.5299    0.3430    0.0000 C   0  0  0  0  0  0  0  0  0  0  0  0
    8.0865   -1.0900    0.0000 C   0  0  0  0  0  0  0  0  0  0  0  0
    6.6238   -1.4225    0.0000 C   0  0  0  0  0  0  0  0  0  0  0  0
    6.1805   -2.8555    0.0000 C   0  0  0  0  0  0  0  0  0  0  0  0
    7.1998   -3.9560    0.0000 C   0  0  0  0  0  0  0  0  0  0  0  0
    6.7564   -5.3889    0.0000 O   0  0  0  0  0  0  0  0  0  0  0  0
    8.6625   -3.6234    0.0000 C   0  0  0  0  0  0  0  0  0  0  0  0
    9.1058   -2.1905    0.0000 C   0  0  0  0  0  0  0  0  0  0  0  0
    8.7713    2.2562    0.0000 C   0  0  0  0  0  0  0  0  0  0  0  0
    9.0625    3.7276    0.0000 O   0  0  0  0  0  0  0  0  0  0  0  0
   10.1055    1.5707    0.0000 N   0  0  0  0  0  0  0  0  0  0  0  0
   11.3662    2.3835    0.0000 C   0  0  0  0  0  0  0  0  0  0  0  0
   12.2730    3.5784    0.0000 C   0  0  0  0  0  0  0  0  0  0  0  0
   13.7612    3.3906    0.0000 C   0  0  0  0  0  0  0  0  0  0  0  0
   14.6679    4.5855    0.0000 N   0  0  0  0  0  0  0  0  0  0  0  0
   14.6599    2.1897    0.0000 O   0  0  0  0  0  0  0  0  0  0  0  0
   12.7005    1.6980    0.0000 C   0  0  0  0  0  0  0  0  0  0  0  0
   12.7740    0.1998    0.0000 O   0  0  0  0  0  0  0  0  0  0  0  0
   13.9612    2.5107    0.0000 N   0  0  0  0  0  0  0  0  0  0  0  0
   15.2954    1.8253    0.0000 C   0  0  0  0  0  0  0  0  0  0  0  0
   16.3147    0.7248    0.0000 C   0  0  0  0  0  0  0  0  0  0  0  0
   17.7774    1.0574    0.0000 C   0  0  0  0  0  0  0  0  0  0  0  0
   18.7967   -0.0431    0.0000 C   0  0  0  0  0  0  0  0  0  0  0  0
   19.0382    1.8701    0.0000 C   0  0  0  0  0  0  0  0  0  0  0  0
   16.5562    2.6380    0.0000 C   0  0  0  0  0  0  0  0  0  0  0  0
   16.6658    4.1340    0.0000 O   0  0  0  0  0  0  0  0  0  0  0  0
   17.8904    1.9526    0.0000 N   0  0  0  0  0  0  0  0  0  0  0  0
   19.1511    2.7653    0.0000 C   0  0  0  0  0  0  0  0  0  0  0  0
   20.0578    3.9602    0.0000 C   0  0  0  0  0  0  0  0  0  0  0  0
   21.5578    3.9553    0.0000 C   0  0  0  0  0  0  0  0  0  0  0  0
   20.4853    2.0799    0.0000 C   0  0  0  0  0  0  0  0  0  0  0  0
   20.9192    0.6440    0.0000 O   0  0  0  0  0  0  0  0  0  0  0  0
   21.7461    2.8926    0.0000 N   0  0  0  0  0  0  0  0  0  0  0  0
   23.0803    2.2071    0.0000 C   0  0  0  0  0  0  0  0  0  0  0  0
   24.0996    1.1067    0.0000 C   0  0  0  0  0  0  0  0  0  0  0  0
   25.2283    0.1188    0.0000 O   0  0  0  0  0  0  0  0  0  0  0  0
   23.4849   -0.2616    0.0000 C   0  0  0  0  0  0  0  0  0  0  0  0
   24.3410    3.0199    0.0000 C   0  0  0  0  0  0  0  0  0  0  0  0
   24.2675    4.5181    0.0000 O   0  0  0  0  0  0  0  0  0  0  0  0
   25.6752    2.3344    0.0000 N   0  0  0  0  0  0  0  0  0  0  0  0
   27.0140    3.0109    0.0000 C   0  0  0  0  0  0  0  0  0  0  0  0
   28.0711    1.9467    0.0000 C   0  0  0  0  0  0  0  0  0  0  0  0
   27.3857    0.6125    0.0000 C   0  0  0  0  0  0  0  0  0  0  0  0
   25.9049    0.8521    0.0000 C   0  0  0  0  0  0  0  0  0  0  0  0
   25.8214   -0.6456    0.0000 C   0  0  0  0  0  0  0  0  0  0  0  0
   26.9672   -1.6136    0.0000 O   0  0  0  0  0  0  0  0  0  0  0  0
   24.4826   -1.3221    0.0000 N   0  0  0  0  0  0  0  0  0  0  0  0
   24.3991   -2.8197    0.0000 C   0  0  0  0  0  0  0  0  0  0  0  0
   24.8329   -4.2557    0.0000 C   0  0  0  0  0  0  0  0  0  0  0  0
   23.0603   -3.4962    0.0000 C   0  0  0  0  0  0  0  0  0  0  0  0
   21.8051   -2.6751    0.0000 O   0  0  0  0  0  0  0  0  0  0  0  0
   22.9768   -4.9939    0.0000 N   0  0  0  0  0  0  0  0  0  0  0  0
   21.6380   -5.6704    0.0000 C   0  0  0  0  0  0  0  0  0  0  0  0
   21.5545   -7.1681    0.0000 C   0  0  0  0  0  0  0  0  0  0  0  0
   22.8098   -7.9893    0.0000 O   0  0  0  0  0  0  0  0  0  0  0  0
   20.2157   -7.8446    0.0000 N   0  0  0  0  0  0  0  0  0  0  0  0
   20.1322   -9.3423    0.0000 C   0  0  0  0  0  0  0  0  0  0  0  0
   18.7934  -10.0188    0.0000 C   0  0  0  0  0  0  0  0  0  0  0  0
   18.7099  -11.5165    0.0000 O   0  0  0  0  0  0  0  0  0  0  0  0
   17.5382   -9.1976    0.0000 O   0  0  0  0  0  0  0  0  0  0  0  0
  -28.5633   -1.8166    0.0000 H   0  0  0  0  0  0  0  0  0  0  0  0
  -28.9658    2.6578    0.0000 H   0  0  0  0  0  0  0  0  0  0  0  0
  -31.6343    4.0288    0.0000 H   0  0  0  0  0  0  0  0  0  0  0  0
  -30.9800   -1.9017    0.0000 H   0  0  0  0  0  0  0  0  0  0  0  0
  -37.8367   -3.9752    0.0000 H   0  0  0  0  0  0  0  0  0  0  0  0
  -39.1647    1.0484    0.0000 H   0  0  0  0  0  0  0  0  0  0  0  0
  -36.2644    1.8152    0.0000 H   0  0  0  0  0  0  0  0  0  0  0  0
  -41.0080   -0.7825    0.0000 H   0  0  0  0  0  0  0  0  0  0  0  0
  -31.2498    0.4535    0.0000 H   0  0  0  0  0  0  0  0  0  0  0  0
  -29.0997   -1.8545    0.0000 H   0  0  0  0  0  0  0  0  0  0  0  0
  -32.8221   -5.3368    0.0000 H   0  0  0  0  0  0  0  0  0  0  0  0
  -30.3148   -6.0177    0.0000 H   0  0  0  0  0  0  0  0  0  0  0  0
  -26.1504   -1.7095    0.0000 H   0  0  0  0  0  0  0  0  0  0  0  0
  -24.0564    1.7964    0.0000 H   0  0  0  0  0  0  0  0  0  0  0  0
  -25.9825    1.7019    0.0000 H   0  0  0  0  0  0  0  0  0  0  0  0
  -22.6096   -1.1844    0.0000 H   0  0  0  0  0  0  0  0  0  0  0  0
  -24.5357   -1.2789    0.0000 H   0  0  0  0  0  0  0  0  0  0  0  0
  -20.9605   -1.4549    0.0000 H   0  0  0  0  0  0  0  0  0  0  0  0
  -20.7925    1.9565    0.0000 H   0  0  0  0  0  0  0  0  0  0  0  0
  -18.4231    3.4839    0.0000 H   0  0  0  0  0  0  0  0  0  0  0  0
  -20.2007    2.7364    0.0000 H   0  0  0  0  0  0  0  0  0  0  0  0
  -16.4716    3.0581    0.0000 H   0  0  0  0  0  0  0  0  0  0  0  0
  -17.0686    2.4793    0.0000 H   0  0  0  0  0  0  0  0  0  0  0  0
  -16.7508   -0.8971    0.0000 H   0  0  0  0  0  0  0  0  0  0  0  0
  -13.5840   -1.6456    0.0000 H   0  0  0  0  0  0  0  0  0  0  0  0
  -13.6558    0.1374    0.0000 H   0  0  0  0  0  0  0  0  0  0  0  0
  -14.2488   -3.3360    0.0000 H   0  0  0  0  0  0  0  0  0  0  0  0
  -12.9935   -1.0529    0.0000 H   0  0  0  0  0  0  0  0  0  0  0  0
  -13.0077    2.3383    0.0000 H   0  0  0  0  0  0  0  0  0  0  0  0
  -10.8163    3.9092    0.0000 H   0  0  0  0  0  0  0  0  0  0  0  0
  -12.4159    3.1183    0.0000 H   0  0  0  0  0  0  0  0  0  0  0  0
   -9.3120    0.7717    0.0000 H   0  0  0  0  0  0  0  0  0  0  0  0
   -7.1973    3.6178    0.0000 H   0  0  0  0  0  0  0  0  0  0  0  0
   -8.2433    4.8729    0.0000 H   0  0  0  0  0  0  0  0  0  0  0  0
   -9.9274    4.2829    0.0000 H   0  0  0  0  0  0  0  0  0  0  0  0
   -7.8254    0.1237    0.0000 H   0  0  0  0  0  0  0  0  0  0  0  0
   -6.8026    1.9177    0.0000 H   0  0  0  0  0  0  0  0  0  0  0  0
   -7.6445    2.9278    0.0000 H   0  0  0  0  0  0  0  0  0  0  0  0
   -9.1022    2.8366    0.0000 H   0  0  0  0  0  0  0  0  0  0  0  0
   -8.9659   -0.5152    0.0000 H   0  0  0  0  0  0  0  0  0  0  0  0
   -5.7991   -1.2637    0.0000 H   0  0  0  0  0  0  0  0  0  0  0  0
   -5.7651    0.3698    0.0000 H   0  0  0  0  0  0  0  0  0  0  0  0
  -10.0918   -1.2182    0.0000 H   0  0  0  0  0  0  0  0  0  0  0  0
  -10.8519   -3.9518    0.0000 H   0  0  0  0  0  0  0  0  0  0  0  0
   -8.8133   -6.1527    0.0000 H   0  0  0  0  0  0  0  0  0  0  0  0
   -5.8879   -5.4876    0.0000 H   0  0  0  0  0  0  0  0  0  0  0  0
   -5.0012   -2.6216    0.0000 H   0  0  0  0  0  0  0  0  0  0  0  0
   -5.2087   -0.6711    0.0000 H   0  0  0  0  0  0  0  0  0  0  0  0
   -5.2228    2.7202    0.0000 H   0  0  0  0  0  0  0  0  0  0  0  0
   -2.8534    4.2477    0.0000 H   0  0  0  0  0  0  0  0  0  0  0  0
   -4.6310    3.5001    0.0000 H   0  0  0  0  0  0  0  0  0  0  0  0
   -0.4743    1.9414    0.0000 H   0  0  0  0  0  0  0  0  0  0  0  0
   -1.5271    1.1535    0.0000 H   0  0  0  0  0  0  0  0  0  0  0  0
   -1.3173    3.2185    0.0000 H   0  0  0  0  0  0  0  0  0  0  0  0
   -1.3199   -0.0139    0.0000 H   0  0  0  0  0  0  0  0  0  0  0  0
    2.0792   -0.7243    0.0000 H   0  0  0  0  0  0  0  0  0  0  0  0
    1.9139    0.9011    0.0000 H   0  0  0  0  0  0  0  0  0  0  0  0
   -0.6051   -2.6668    0.0000 H   0  0  0  0  0  0  0  0  0  0  0  0
   -1.1062   -0.9541    0.0000 H   0  0  0  0  0  0  0  0  0  0  0  0
    2.6552   -3.2578    0.0000 H   0  0  0  0  0  0  0  0  0  0  0  0
    2.3666   -1.4968    0.0000 H   0  0  0  0  0  0  0  0  0  0  0  0
   -0.5851   -4.3378    0.0000 H   0  0  0  0  0  0  0  0  0  0  0  0
    2.4729   -7.6392    0.0000 H   0  0  0  0  0  0  0  0  0  0  0  0
   -0.0091   -6.8712    0.0000 H   0  0  0  0  0  0  0  0  0  0  0  0
    4.3789   -5.8737    0.0000 H   0  0  0  0  0  0  0  0  0  0  0  0
    3.8030   -3.3402    0.0000 H   0  0  0  0  0  0  0  0  0  0  0  0
    2.5762   -0.2892    0.0000 H   0  0  0  0  0  0  0  0  0  0  0  0
    2.5621    3.1021    0.0000 H   0  0  0  0  0  0  0  0  0  0  0  0
    4.9315    4.6295    0.0000 H   0  0  0  0  0  0  0  0  0  0  0  0
    3.1539    3.8820    0.0000 H   0  0  0  0  0  0  0  0  0  0  0  0
    5.6510    0.4311    0.0000 H   0  0  0  0  0  0  0  0  0  0  0  0
    8.9447    0.2373    0.0000 H   0  0  0  0  0  0  0  0  0  0  0  0
   10.4409    2.4454    0.0000 H   0  0  0  0  0  0  0  0  0  0  0  0
    9.2780    5.2108    0.0000 H   0  0  0  0  0  0  0  0  0  0  0  0
    6.3016    5.5864    0.0000 H   0  0  0  0  0  0  0  0  0  0  0  0
    6.4676    3.6003    0.0000 H   0  0  0  0  0  0  0  0  0  0  0  0
    6.6038    0.2485    0.0000 H   0  0  0  0  0  0  0  0  0  0  0  0
    9.7706   -0.5000    0.0000 H   0  0  0  0  0  0  0  0  0  0  0  0
    9.6988    1.2830    0.0000 H   0  0  0  0  0  0  0  0  0  0  0  0
    5.3685   -0.6014    0.0000 H   0  0  0  0  0  0  0  0  0  0  0  0
    4.7178   -3.1880    0.0000 H   0  0  0  0  0  0  0  0  0  0  0  0
    7.7758   -6.4894    0.0000 H   0  0  0  0  0  0  0  0  0  0  0  0
    9.6818   -4.7239    0.0000 H   0  0  0  0  0  0  0  0  0  0  0  0
   10.5685   -1.8579    0.0000 H   0  0  0  0  0  0  0  0  0  0  0  0
   10.3611    0.0926    0.0000 H   0  0  0  0  0  0  0  0  0  0  0  0
   10.3469    3.4839    0.0000 H   0  0  0  0  0  0  0  0  0  0  0  0
   12.7163    5.0114    0.0000 H   0  0  0  0  0  0  0  0  0  0  0  0
   10.9388    4.2638    0.0000 H   0  0  0  0  0  0  0  0  0  0  0  0
   16.1679    4.5805    0.0000 H   0  0  0  0  0  0  0  0  0  0  0  0
   14.0864    5.9682    0.0000 H   0  0  0  0  0  0  0  0  0  0  0  0
   14.2524    3.9822    0.0000 H   0  0  0  0  0  0  0  0  0  0  0  0
   14.3887    0.6304    0.0000 H   0  0  0  0  0  0  0  0  0  0  0  0
   16.7233   -0.7184    0.0000 H   0  0  0  0  0  0  0  0  0  0  0  0
   15.0540   -0.0879    0.0000 H   0  0  0  0  0  0  0  0  0  0  0  0
   17.9133    2.5512    0.0000 H   0  0  0  0  0  0  0  0  0  0  0  0
   20.2964   -0.0744    0.0000 H   0  0  0  0  0  0  0  0  0  0  0  0
   19.3782   -1.4258    0.0000 H   0  0  0  0  0  0  0  0  0  0  0  0
   17.6445   -1.0034    0.0000 H   0  0  0  0  0  0  0  0  0  0  0  0
   20.3724    1.1847    0.0000 H   0  0  0  0  0  0  0  0  0  0  0  0
   19.9449    3.0650    0.0000 H   0  0  0  0  0  0  0  0  0  0  0  0
   17.8923    2.8381    0.0000 H   0  0  0  0  0  0  0  0  0  0  0  0
   18.3242    0.5167    0.0000 H   0  0  0  0  0  0  0  0  0  0  0  0
   18.2735    3.9818    0.0000 H   0  0  0  0  0  0  0  0  0  0  0  0
   20.5012    5.3932    0.0000 H   0  0  0  0  0  0  0  0  0  0  0  0
   18.7236    4.6457    0.0000 H   0  0  0  0  0  0  0  0  0  0  0  0
   22.4528    4.9674    0.0000 H   0  0  0  0  0  0  0  0  0  0  0  0
   22.8803    3.0870    0.0000 H   0  0  0  0  0  0  0  0  0  0  0  0
   21.8275    2.2991    0.0000 H   0  0  0  0  0  0  0  0  0  0  0  0
   21.8558    4.3886    0.0000 H   0  0  0  0  0  0  0  0  0  0  0  0
   22.0347    1.1317    0.0000 H   0  0  0  0  0  0  0  0  0  0  0  0
   25.2685    2.0467    0.0000 H   0  0  0  0  0  0  0  0  0  0  0  0
   25.3595   -1.1021    0.0000 H   0  0  0  0  0  0  0  0  0  0  0  0
   24.2134   -1.7190    0.0000 H   0  0  0  0  0  0  0  0  0  0  0  0
   22.7495   -1.5212    0.0000 H   0  0  0  0  0  0  0  0  0  0  0  0
   22.2484    0.1914    0.0000 H   0  0  0  0  0  0  0  0  0  0  0  0
   26.2013    4.2717    0.0000 H   0  0  0  0  0  0  0  0  0  0  0  0
   28.1829    3.9510    0.0000 H   0  0  0  0  0  0  0  0  0  0  0  0
   29.0190    3.1093    0.0000 H   0  0  0  0  0  0  0  0  0  0  0  0
   29.3264    1.1256    0.0000 H   0  0  0  0  0  0  0  0  0  0  0  0
   28.7842    0.0703    0.0000 H   0  0  0  0  0  0  0  0  0  0  0  0
   27.1720   -0.8722    0.0000 H   0  0  0  0  0  0  0  0  0  0  0  0
   24.4690    0.4183    0.0000 H   0  0  0  0  0  0  0  0  0  0  0  0
   23.1366   -0.6600    0.0000 H   0  0  0  0  0  0  0  0  0  0  0  0
   25.8885   -2.6419    0.0000 H   0  0  0  0  0  0  0  0  0  0  0  0
   24.2664   -5.6446    0.0000 H   0  0  0  0  0  0  0  0  0  0  0  0
   25.7316   -5.4566    0.0000 H   0  0  0  0  0  0  0  0  0  0  0  0
   26.1717   -3.5791    0.0000 H   0  0  0  0  0  0  0  0  0  0  0  0
   24.1226   -5.9620    0.0000 H   0  0  0  0  0  0  0  0  0  0  0  0
   20.1486   -5.8482    0.0000 H   0  0  0  0  0  0  0  0  0  0  0  0
   21.2043   -4.2345    0.0000 H   0  0  0  0  0  0  0  0  0  0  0  0
   18.9605   -7.0234    0.0000 H   0  0  0  0  0  0  0  0  0  0  0  0
   20.5660  -10.7782    0.0000 H   0  0  0  0  0  0  0  0  0  0  0  0
   21.6216   -9.1645    0.0000 H   0  0  0  0  0  0  0  0  0  0  0  0
  1  2  1  0
  2  3  1  0
  3  4  2  0
  4  5  1  0
  5  6  2  0
  6  7  1  0
  7  8  2  0
  7  9  1  0
  9 10  1  0
 10 11  1  0
 11 12  2  0
  9 13  1  0
 13 14  1  0
 14 15  2  0
 15 16  1  0
 16 17  2  0
 17 18  1  0
 16 19  1  0
 14 20  1  0
 20 21  1  0
 21 22  2  0
 22 23  1  0
 23 24  2  0
 24 25  1  0
 25 26  2  0
 25 27  1  0
  1 28  2  0
  1 29  1  0
 29 30  1  0
 30 31  1  0
 31 32  1  0
 32 33  2  0
 32 34  1  0
 34 35  1  0
 35 36  1  0
 36 37  1  0
 35 38  1  0
 38 39  2  0
 38 40  1  0
 40 41  1  0
 41 42  1  0
 42 43  1  0
 41 44  1  0
 44 45  2  0
 44 46  1  0
 46 47  1  0
 47 48  1  0
 48 49  1  0
 49 50  1  0
 49 51  1  0
 47 52  1  0
 52 53  2  0
 52 54  1  0
 54 55  1  0
 55 56  1  0
 56 57  1  0
 57 58  2  0
 58 59  1  0
 59 60  2  0
 60 61  1  0
 61 62  2  0
 55 63  1  0
 63 64  2  0
 63 65  1  0
 65 66  1  0
 66 67  1  0
 67 68  1  0
 68 69  1  0
 69 70  2  0
 69 71  1  0
 66 72  1  0
 72 73  2  0
 72 74  1  0
 74 75  1  0
 75 76  1  0
 76 77  1  0
 77 78  1  0
 78 79  1  0
 79 80  1  0
 80 81  2  3
 80 82  1  0
 75 83  1  0
 83 84  2  0
 83 85  1  0
 85 86  1  0
 86 87  1  0
 87 88  1  0
 88 89  2  0
 89 90  1  0
 90 91  2  0
 91 92  1  0
 92 93  2  0
 86 94  1  0
 94 95  2  0
 94 96  1  0
 96 97  1  0
 97 98  1  0
 98 99  1  0
 99100  2  0
100101  1  0
101102  2  0
102103  1  0
102104  1  0
104105  2  0
 97106  1  0
106107  2  0
106108  1  0
108109  1  0
109110  1  0
110111  1  0
111112  1  0
111113  2  0
109114  1  0
114115  2  0
114116  1  0
116117  1  0
117118  1  0
118119  1  0
119120  1  0
119121  1  0
117122  1  0
122123  2  0
122124  1  0
124125  1  0
125126  1  0
126127  1  0
125128  1  0
128129  2  0
128130  1  0
130131  1  0
131132  1  0
132133  1  0
132134  1  0
131135  1  0
135136  2  0
135137  1  0
137138  1  0
138139  1  0
139140  1  0
140141  1  0
141142  1  0
142143  2  0
142144  1  0
144145  1  0
145146  1  0
145147  1  0
147148  2  0
147149  1  0
149150  1  0
150151  1  0
151152  2  0
151153  1  0
153154  1  0
154155  1  0
155156  2  0
155157  1  0
  8  3  1  0
 62 57  1  0
 93 88  1  0
105 99  1  0
141137  1  0
 11  6  1  0
 18 13  2  0
 22  9  1  0
 26 21  1  0
  2158  1  0
  4159  1  0
  5160  1  0
  8161  1  0
 15162  1  0
 17163  1  0
 18164  1  0
 19165  1  0
 23166  1  0
 24167  1  0
 26168  1  0
 27169  1  0
 29170  1  0
 30171  1  0
 30172  1  0
 31173  1  0
 31174  1  0
 34175  1  0
 35176  1  1
 36177  1  0
 36178  1  0
 37179  1  0
 40180  1  0
 41181  1  6
 42182  1  0
 42183  1  0
 43184  1  0
 46185  1  0
 47186  1  1
 48187  1  0
 48188  1  0
 49189  1  0
 50190  1  0
 50191  1  0
 50192  1  0
 51193  1  0
 51194  1  0
 51195  1  0
 54196  1  0
 55197  1  6
 56198  1  0
 56199  1  0
 58200  1  0
 59201  1  0
 60202  1  0
 61203  1  0
 62204  1  0
 65205  1  0
 66206  1  1
 67207  1  0
 67208  1  0
 68209  1  0
 68210  1  0
 74211  1  0
 75212  1  6
 76213  1  0
 76214  1  0
 77215  1  0
 77216  1  0
 78217  1  0
 78218  1  0
 79219  1  0
 81220  1  0
 81221  1  0
 82222  1  0
 82223  1  0
 85224  1  0
 86225  1  1
 87226  1  0
 87227  1  0
 89228  1  0
 90229  1  0
 91230  1  0
 92231  1  0
 93232  1  0
 96233  1  0
 97234  1  6
 98235  1  0
 98236  1  0
100237  1  0
101238  1  0
103239  1  0
104240  1  0
105241  1  0
108242  1  0
109243  1  1
110244  1  0
110245  1  0
112246  1  0
112247  1  0
116248  1  0
117249  1  6
118250  1  0
118251  1  0
119252  1  0
120253  1  0
120254  1  0
120255  1  0
121256  1  0
121257  1  0
121258  1  0
124259  1  0
125260  1  1
126261  1  0
126262  1  0
127263  1  0
127264  1  0
127265  1  0
130266  1  0
131267  1  6
132268  1  1
133269  1  0
134270  1  0
134271  1  0
134272  1  0
138273  1  0
138274  1  0
139275  1  0
139276  1  0
140277  1  0
140278  1  0
141279  1  0
144280  1  0
145281  1  1
146282  1  0
146283  1  0
146284  1  0
149285  1  0
150286  1  0
150287  1  0
153288  1  0
154289  1  0
154290  1  0
M  CHG  3  71  -1  81   1 157  -1
M  END
