
     RDKit          2D

290293  0  0  0  0  0  0  0  0999 V2000
   22.0185   -2.4405    0.0000 N   0  0  0  0  0  0  0  0  0  0  0  0
   20.5421   -2.7053    0.0000 C   0  0  0  0  0  0  0  0  0  0  0  0
   20.0333   -4.1164    0.0000 C   0  0  0  0  0  0  0  0  0  0  0  0
   18.5569   -4.3813    0.0000 C   0  0  0  0  0  0  0  0  0  0  0  0
   17.5892   -3.2351    0.0000 O   0  0  0  0  0  0  0  0  0  0  0  0
   18.0480   -5.7924    0.0000 N   0  0  0  0  0  0  0  0  0  0  0  0
   16.5716   -6.0572    0.0000 C   0  0  0  0  0  0  0  0  0  0  0  0
   17.0889   -7.4652    0.0000 C   0  0  0  0  0  0  0  0  0  0  0  0
   18.5668   -7.7213    0.0000 C   0  0  0  0  0  0  0  0  0  0  0  0
   19.6427   -6.6761    0.0000 C   0  0  0  0  0  0  0  0  0  0  0  0
   20.9692   -7.3763    0.0000 N   0  0  0  0  0  0  0  0  0  0  0  0
   20.7132   -8.8543    0.0000 C   0  0  0  0  0  0  0  0  0  0  0  0
   21.6402  -10.0336    0.0000 C   0  0  0  0  0  0  0  0  0  0  0  0
   21.0825  -11.4260    0.0000 C   0  0  0  0  0  0  0  0  0  0  0  0
   19.5977  -11.6392    0.0000 C   0  0  0  0  0  0  0  0  0  0  0  0
   18.6707  -10.4600    0.0000 C   0  0  0  0  0  0  0  0  0  0  0  0
   19.2284   -9.0675    0.0000 C   0  0  0  0  0  0  0  0  0  0  0  0
   15.0936   -5.8012    0.0000 C   0  0  0  0  0  0  0  0  0  0  0  0
   14.2805   -7.0617    0.0000 O   0  0  0  0  0  0  0  0  0  0  0  0
   14.5764   -4.3932    0.0000 N   0  0  0  0  0  0  0  0  0  0  0  0
   13.0984   -4.1371    0.0000 C   0  0  0  0  0  0  0  0  0  0  0  0
   13.1029   -5.6371    0.0000 C   0  0  0  0  0  0  0  0  0  0  0  0
   11.8061   -6.3910    0.0000 C   0  0  0  0  0  0  0  0  0  0  0  0
   11.8106   -7.8910    0.0000 N   0  0  0  0  0  0  0  0  0  0  0  0
   10.5048   -5.6449    0.0000 O   0  0  0  0  0  0  0  0  0  0  0  0
   11.7971   -3.3910    0.0000 C   0  0  0  0  0  0  0  0  0  0  0  0
   10.6019   -4.2973    0.0000 O   0  0  0  0  0  0  0  0  0  0  0  0
   11.7926   -1.8910    0.0000 N   0  0  0  0  0  0  0  0  0  0  0  0
   10.4914   -1.1449    0.0000 C   0  0  0  0  0  0  0  0  0  0  0  0
    9.9826   -2.5560    0.0000 C   0  0  0  0  0  0  0  0  0  0  0  0
    8.5061   -2.8209    0.0000 C   0  0  0  0  0  0  0  0  0  0  0  0
    7.9973   -4.2319    0.0000 C   0  0  0  0  0  0  0  0  0  0  0  0
    6.5209   -4.4968    0.0000 O   0  0  0  0  0  0  0  0  0  0  0  0
    8.9649   -5.3781    0.0000 O   0  0  0  0  0  0  0  0  0  0  0  0
    9.5238    0.0013    0.0000 C   0  0  0  0  0  0  0  0  0  0  0  0
    8.0473   -0.2636    0.0000 O   0  0  0  0  0  0  0  0  0  0  0  0
   10.0326    1.4123    0.0000 N   0  0  0  0  0  0  0  0  0  0  0  0
    9.0650    2.5585    0.0000 C   0  0  0  0  0  0  0  0  0  0  0  0
   10.3618    3.3124    0.0000 C   0  0  0  0  0  0  0  0  0  0  0  0
   11.6630    2.5663    0.0000 C   0  0  0  0  0  0  0  0  0  0  0  0
   12.9598    3.3202    0.0000 C   0  0  0  0  0  0  0  0  0  0  0  0
   12.6306    1.4201    0.0000 C   0  0  0  0  0  0  0  0  0  0  0  0
    7.7637    3.3046    0.0000 C   0  0  0  0  0  0  0  0  0  0  0  0
    7.9421    4.7940    0.0000 O   0  0  0  0  0  0  0  0  0  0  0  0
    6.4669    2.5508    0.0000 N   0  0  0  0  0  0  0  0  0  0  0  0
    5.1656    3.2969    0.0000 C   0  0  0  0  0  0  0  0  0  0  0  0
    5.0750    1.7996    0.0000 C   0  0  0  0  0  0  0  0  0  0  0  0
    4.7026    0.3466    0.0000 C   0  0  0  0  0  0  0  0  0  0  0  0
    4.0619   -1.0097    0.0000 C   0  0  0  0  0  0  0  0  0  0  0  0
    3.1762   -2.2203    0.0000 C   0  0  0  0  0  0  0  0  0  0  0  0
    2.0774   -3.2414    0.0000 C   0  0  0  0  0  0  0  0  0  0  0  0
    0.8051   -4.0360    0.0000 C   0  0  0  0  0  0  0  0  0  0  0  0
   -0.5945   -4.5755    0.0000 C   0  0  0  0  0  0  0  0  0  0  0  0
    6.4120    4.1315    0.0000 C   0  0  0  0  0  0  0  0  0  0  0  0
    4.9713    4.7842    0.0000 C   0  0  0  0  0  0  0  0  0  0  0  0
    6.3817    5.2948    0.0000 O   0  0  0  0  0  0  0  0  0  0  0  0
    4.4990    6.2079    0.0000 N   0  0  0  0  0  0  0  0  0  0  0  0
    3.7658    7.5165    0.0000 C   0  0  0  0  0  0  0  0  0  0  0  0
    4.3631    8.8925    0.0000 C   0  0  0  0  0  0  0  0  0  0  0  0
    5.8533    9.0632    0.0000 C   0  0  0  0  0  0  0  0  0  0  0  0
    6.4506   10.4391    0.0000 C   0  0  0  0  0  0  0  0  0  0  0  0
    7.9409   10.6098    0.0000 N   0  0  0  0  0  0  0  0  0  0  0  0
    8.5381   11.9858    0.0000 C   0  0  0  0  0  0  0  0  0  0  0  0
   10.0284   12.1565    0.0000 N   0  0  0  0  0  0  0  0  0  0  0  0
    7.6452   13.1910    0.0000 N   0  0  0  0  0  0  0  0  0  0  0  0
    2.7982    8.6627    0.0000 C   0  0  0  0  0  0  0  0  0  0  0  0
    3.7087    9.8547    0.0000 O   0  0  0  0  0  0  0  0  0  0  0  0
    1.6311    9.6050    0.0000 N   0  0  0  0  0  0  0  0  0  0  0  0
    0.3068   10.3095    0.0000 C   0  0  0  0  0  0  0  0  0  0  0  0
    0.0654   11.7899    0.0000 C   0  0  0  0  0  0  0  0  0  0  0  0
    1.2268   12.7392    0.0000 O   0  0  0  0  0  0  0  0  0  0  0  0
   -1.1268   10.7506    0.0000 C   0  0  0  0  0  0  0  0  0  0  0  0
   -1.0054   12.2457    0.0000 O   0  0  0  0  0  0  0  0  0  0  0  0
   -2.6181   10.9124    0.0000 N   0  0  0  0  0  0  0  0  0  0  0  0
   -4.1130   10.7890    0.0000 C   0  0  0  0  0  0  0  0  0  0  0  0
   -5.1165   11.9039    0.0000 C   0  0  0  0  0  0  0  0  0  0  0  0
   -4.6527   13.3304    0.0000 C   0  0  0  0  0  0  0  0  0  0  0  0
   -3.1854   13.6420    0.0000 C   0  0  0  0  0  0  0  0  0  0  0  0
   -2.7216   15.0685    0.0000 C   0  0  0  0  0  0  0  0  0  0  0  0
   -3.7251   16.1834    0.0000 C   0  0  0  0  0  0  0  0  0  0  0  0
   -5.1924   15.8718    0.0000 C   0  0  0  0  0  0  0  0  0  0  0  0
   -5.6562   14.4454    0.0000 C   0  0  0  0  0  0  0  0  0  0  0  0
   -5.5576   10.3850    0.0000 C   0  0  0  0  0  0  0  0  0  0  0  0
   -6.2637   11.7084    0.0000 O   0  0  0  0  0  0  0  0  0  0  0  0
   -6.8996    9.7149    0.0000 N   0  0  0  0  0  0  0  0  0  0  0  0
   -8.0905    8.8029    0.0000 C   0  0  0  0  0  0  0  0  0  0  0  0
   -9.5374    9.1983    0.0000 C   0  0  0  0  0  0  0  0  0  0  0  0
   -9.9185   10.6491    0.0000 C   0  0  0  0  0  0  0  0  0  0  0  0
  -11.3655   11.0445    0.0000 C   0  0  0  0  0  0  0  0  0  0  0  0
  -11.7465   12.4953    0.0000 N   0  0  0  0  0  0  0  0  0  0  0  0
  -13.1935   12.8907    0.0000 C   0  0  0  0  0  0  0  0  0  0  0  0
  -13.5745   14.3415    0.0000 N   0  0  0  0  0  0  0  0  0  0  0  0
  -14.2594   11.8353    0.0000 N   0  0  0  0  0  0  0  0  0  0  0  0
   -9.0873    7.6820    0.0000 C   0  0  0  0  0  0  0  0  0  0  0  0
  -10.3968    8.4136    0.0000 O   0  0  0  0  0  0  0  0  0  0  0  0
   -9.8540    6.3928    0.0000 N   0  0  0  0  0  0  0  0  0  0  0  0
  -10.3628    4.9817    0.0000 C   0  0  0  0  0  0  0  0  0  0  0  0
  -11.7938    4.5320    0.0000 C   0  0  0  0  0  0  0  0  0  0  0  0
  -12.8987    5.5465    0.0000 O   0  0  0  0  0  0  0  0  0  0  0  0
  -10.5954    3.4998    0.0000 C   0  0  0  0  0  0  0  0  0  0  0  0
  -12.0925    3.4073    0.0000 O   0  0  0  0  0  0  0  0  0  0  0  0
  -10.5433    2.0007    0.0000 N   0  0  0  0  0  0  0  0  0  0  0  0
  -10.2084    0.5386    0.0000 C   0  0  0  0  0  0  0  0  0  0  0  0
  -11.1692   -0.6133    0.0000 C   0  0  0  0  0  0  0  0  0  0  0  0
  -12.6472   -0.3573    0.0000 C   0  0  0  0  0  0  0  0  0  0  0  0
  -13.6079   -1.5092    0.0000 C   0  0  0  0  0  0  0  0  0  0  0  0
  -13.9484    0.3888    0.0000 C   0  0  0  0  0  0  0  0  0  0  0  0
   -9.6029   -0.8338    0.0000 C   0  0  0  0  0  0  0  0  0  0  0  0
  -10.8124   -1.7210    0.0000 O   0  0  0  0  0  0  0  0  0  0  0  0
   -8.7487   -2.0667    0.0000 N   0  0  0  0  0  0  0  0  0  0  0  0
   -7.6765   -3.1157    0.0000 C   0  0  0  0  0  0  0  0  0  0  0  0
   -6.4252   -3.9429    0.0000 C   0  0  0  0  0  0  0  0  0  0  0  0
   -5.0399   -4.5183    0.0000 C   0  0  0  0  0  0  0  0  0  0  0  0
   -3.5708   -4.8211    0.0000 C   0  0  0  0  0  0  0  0  0  0  0  0
   -2.0709   -4.8404    0.0000 C   0  0  0  0  0  0  0  0  0  0  0  0
   -9.0925   -3.6106    0.0000 C   0  0  0  0  0  0  0  0  0  0  0  0
   -7.8619   -4.6042    0.0000 C   0  0  0  0  0  0  0  0  0  0  0  0
   -6.9201   -5.7717    0.0000 O   0  0  0  0  0  0  0  0  0  0  0  0
   -9.2437   -5.1879    0.0000 N   0  0  0  0  0  0  0  0  0  0  0  0
   -9.4292   -6.6764    0.0000 C   0  0  0  0  0  0  0  0  0  0  0  0
   -9.0943   -8.1385    0.0000 C   0  0  0  0  0  0  0  0  0  0  0  0
   -7.6606   -8.5796    0.0000 C   0  0  0  0  0  0  0  0  0  0  0  0
   -7.3258  -10.0418    0.0000 O   0  0  0  0  0  0  0  0  0  0  0  0
   -6.5618   -7.5586    0.0000 O   0  0  0  0  0  0  0  0  0  0  0  0
  -10.8110   -7.2600    0.0000 C   0  0  0  0  0  0  0  0  0  0  0  0
  -12.0073   -6.3552    0.0000 O   0  0  0  0  0  0  0  0  0  0  0  0
  -10.9964   -8.7485    0.0000 N   0  0  0  0  0  0  0  0  0  0  0  0
  -12.3782   -9.3322    0.0000 C   0  0  0  0  0  0  0  0  0  0  0  0
  -13.8763   -9.4080    0.0000 C   0  0  0  0  0  0  0  0  0  0  0  0
  -14.5596  -10.7433    0.0000 C   0  0  0  0  0  0  0  0  0  0  0  0
  -16.0577  -10.8192    0.0000 C   0  0  0  0  0  0  0  0  0  0  0  0
  -16.7411  -12.1545    0.0000 N   0  0  0  0  0  0  0  0  0  0  0  0
  -16.8724   -9.5597    0.0000 O   0  0  0  0  0  0  0  0  0  0  0  0
  -12.5636  -10.8207    0.0000 C   0  0  0  0  0  0  0  0  0  0  0  0
  -11.3673  -11.7255    0.0000 O   0  0  0  0  0  0  0  0  0  0  0  0
  -13.9454  -11.4043    0.0000 N   0  0  0  0  0  0  0  0  0  0  0  0
  -14.1309  -12.8928    0.0000 C   0  0  0  0  0  0  0  0  0  0  0  0
  -14.8142  -14.2281    0.0000 C   0  0  0  0  0  0  0  0  0  0  0  0
  -13.9995  -15.4876    0.0000 C   0  0  0  0  0  0  0  0  0  0  0  0
  -15.9131  -15.2492    0.0000 C   0  0  0  0  0  0  0  0  0  0  0  0
  -17.3467  -14.8081    0.0000 C   0  0  0  0  0  0  0  0  0  0  0  0
  -12.9345  -13.7976    0.0000 C   0  0  0  0  0  0  0  0  0  0  0  0
  -11.5527  -13.2140    0.0000 O   0  0  0  0  0  0  0  0  0  0  0  0
  -12.9371  -15.2976    0.0000 O   0  0  0  0  0  0  0  0  0  0  0  0
   22.5273   -1.0294    0.0000 H   0  0  0  0  0  0  0  0  0  0  0  0
   22.9861   -3.5866    0.0000 H   0  0  0  0  0  0  0  0  0  0  0  0
   20.5376   -1.2053    0.0000 H   0  0  0  0  0  0  0  0  0  0  0  0
   19.0641   -2.4493    0.0000 H   0  0  0  0  0  0  0  0  0  0  0  0
   21.5113   -4.3725    0.0000 H   0  0  0  0  0  0  0  0  0  0  0  0
   19.9279   -4.9959    0.0000 H   0  0  0  0  0  0  0  0  0  0  0  0
   18.6944   -6.2590    0.0000 H   0  0  0  0  0  0  0  0  0  0  0  0
   16.5671   -4.5572    0.0000 H   0  0  0  0  0  0  0  0  0  0  0  0
   17.0933   -8.9652    0.0000 H   0  0  0  0  0  0  0  0  0  0  0  0
   15.6124   -7.7301    0.0000 H   0  0  0  0  0  0  0  0  0  0  0  0
   19.4341   -5.9067    0.0000 H   0  0  0  0  0  0  0  0  0  0  0  0
   22.3155   -6.7148    0.0000 H   0  0  0  0  0  0  0  0  0  0  0  0
   23.1250   -9.8204    0.0000 H   0  0  0  0  0  0  0  0  0  0  0  0
   22.0095  -12.6053    0.0000 H   0  0  0  0  0  0  0  0  0  0  0  0
   19.0399  -13.0317    0.0000 H   0  0  0  0  0  0  0  0  0  0  0  0
   17.1859  -10.6732    0.0000 H   0  0  0  0  0  0  0  0  0  0  0  0
   15.5371   -3.2412    0.0000 H   0  0  0  0  0  0  0  0  0  0  0  0
   13.6072   -2.7261    0.0000 H   0  0  0  0  0  0  0  0  0  0  0  0
   13.4446   -7.0977    0.0000 H   0  0  0  0  0  0  0  0  0  0  0  0
   14.5995   -5.7374    0.0000 H   0  0  0  0  0  0  0  0  0  0  0  0
   10.5138   -8.6449    0.0000 H   0  0  0  0  0  0  0  0  0  0  0  0
   13.1119   -8.6371    0.0000 H   0  0  0  0  0  0  0  0  0  0  0  0
   13.0894   -1.1371    0.0000 H   0  0  0  0  0  0  0  0  0  0  0  0
   11.3045    0.1156    0.0000 H   0  0  0  0  0  0  0  0  0  0  0  0
    9.8042   -4.0453    0.0000 H   0  0  0  0  0  0  0  0  0  0  0  0
   11.3547   -3.1621    0.0000 H   0  0  0  0  0  0  0  0  0  0  0  0
    7.0281   -2.5648    0.0000 H   0  0  0  0  0  0  0  0  0  0  0  0
    8.5016   -1.3209    0.0000 H   0  0  0  0  0  0  0  0  0  0  0  0
   11.5303    1.4953    0.0000 H   0  0  0  0  0  0  0  0  0  0  0  0
    8.1042    1.4066    0.0000 H   0  0  0  0  0  0  0  0  0  0  0  0
   11.1749    4.5729    0.0000 H   0  0  0  0  0  0  0  0  0  0  0  0
    9.3941    4.4586    0.0000 H   0  0  0  0  0  0  0  0  0  0  0  0
   11.1790    1.1465    0.0000 H   0  0  0  0  0  0  0  0  0  0  0  0
   14.3423    2.7382    0.0000 H   0  0  0  0  0  0  0  0  0  0  0  0
   13.9206    4.4721    0.0000 H   0  0  0  0  0  0  0  0  0  0  0  0
   12.1391    4.5757    0.0000 H   0  0  0  0  0  0  0  0  0  0  0  0
   14.1283    1.5030    0.0000 H   0  0  0  0  0  0  0  0  0  0  0  0
   13.1479    0.0121    0.0000 H   0  0  0  0  0  0  0  0  0  0  0  0
   11.2516    0.8299    0.0000 H   0  0  0  0  0  0  0  0  0  0  0  0
    6.8342    1.0964    0.0000 H   0  0  0  0  0  0  0  0  0  0  0  0
    6.5569    2.0316    0.0000 H   0  0  0  0  0  0  0  0  0  0  0  0
    6.2115    0.8207    0.0000 H   0  0  0  0  0  0  0  0  0  0  0  0
    6.2017    0.2939    0.0000 H   0  0  0  0  0  0  0  0  0  0  0  0
    5.7698   -0.7075    0.0000 H   0  0  0  0  0  0  0  0  0  0  0  0
    5.5539   -1.1645    0.0000 H   0  0  0  0  0  0  0  0  0  0  0  0
    4.9104   -2.2467    0.0000 H   0  0  0  0  0  0  0  0  0  0  0  0
    4.6119   -2.6546    0.0000 H   0  0  0  0  0  0  0  0  0  0  0  0
    3.7752   -3.5955    0.0000 H   0  0  0  0  0  0  0  0  0  0  0  0
    3.4050   -3.9395    0.0000 H   0  0  0  0  0  0  0  0  0  0  0  0
    2.4053   -4.7051    0.0000 H   0  0  0  0  0  0  0  0  0  0  0  0
    1.9766   -4.9728    0.0000 H   0  0  0  0  0  0  0  0  0  0  0  0
    0.6670   -5.5296    0.0000 H   0  0  0  0  0  0  0  0  0  0  0  0
   -0.1905   -6.0201    0.0000 H   0  0  0  0  0  0  0  0  0  0  0  0
    7.8782    3.8148    0.0000 H   0  0  0  0  0  0  0  0  0  0  0  0
    7.2977    5.3420    0.0000 H   0  0  0  0  0  0  0  0  0  0  0  0
    5.6664    5.4331    0.0000 H   0  0  0  0  0  0  0  0  0  0  0  0
    5.9349    6.6416    0.0000 H   0  0  0  0  0  0  0  0  0  0  0  0
    5.2619    7.4092    0.0000 H   0  0  0  0  0  0  0  0  0  0  0  0
    4.4537   10.3897    0.0000 H   0  0  0  0  0  0  0  0  0  0  0  0
    3.0322    9.5844    0.0000 H   0  0  0  0  0  0  0  0  0  0  0  0
    7.3121    8.7139    0.0000 H   0  0  0  0  0  0  0  0  0  0  0  0
    6.1276    7.5885    0.0000 H   0  0  0  0  0  0  0  0  0  0  0  0
    6.5413   11.9364    0.0000 H   0  0  0  0  0  0  0  0  0  0  0  0
    5.0453   10.9636    0.0000 H   0  0  0  0  0  0  0  0  0  0  0  0
    8.8338    9.4046    0.0000 H   0  0  0  0  0  0  0  0  0  0  0  0
   10.6257   13.5325    0.0000 H   0  0  0  0  0  0  0  0  0  0  0  0
   10.9214   10.9513    0.0000 H   0  0  0  0  0  0  0  0  0  0  0  0
    8.2425   14.5670    0.0000 H   0  0  0  0  0  0  0  0  0  0  0  0
    6.1549   13.0203    0.0000 H   0  0  0  0  0  0  0  0  0  0  0  0
    2.4583   10.8564    0.0000 H   0  0  0  0  0  0  0  0  0  0  0  0
    1.5261   11.1832    0.0000 H   0  0  0  0  0  0  0  0  0  0  0  0
   -0.5028   13.1781    0.0000 H   0  0  0  0  0  0  0  0  0  0  0  0
   -1.4283   11.6524    0.0000 H   0  0  0  0  0  0  0  0  0  0  0  0
    0.9854   14.2197    0.0000 H   0  0  0  0  0  0  0  0  0  0  0  0
   -2.4161   12.3987    0.0000 H   0  0  0  0  0  0  0  0  0  0  0  0
   -3.5597   12.1833    0.0000 H   0  0  0  0  0  0  0  0  0  0  0  0
   -6.3451   12.7646    0.0000 H   0  0  0  0  0  0  0  0  0  0  0  0
   -6.2987   10.9807    0.0000 H   0  0  0  0  0  0  0  0  0  0  0  0
   -2.0535   12.6578    0.0000 H   0  0  0  0  0  0  0  0  0  0  0  0
   -1.2544   15.3801    0.0000 H   0  0  0  0  0  0  0  0  0  0  0  0
   -3.2614   17.6099    0.0000 H   0  0  0  0  0  0  0  0  0  0  0  0
   -6.1959   16.9868    0.0000 H   0  0  0  0  0  0  0  0  0  0  0  0
   -7.1235   14.1338    0.0000 H   0  0  0  0  0  0  0  0  0  0  0  0
   -7.5332   11.0745    0.0000 H   0  0  0  0  0  0  0  0  0  0  0  0
   -8.1972   10.2991    0.0000 H   0  0  0  0  0  0  0  0  0  0  0  0
  -11.0324    9.0750    0.0000 H   0  0  0  0  0  0  0  0  0  0  0  0
  -10.0329    7.7825    0.0000 H   0  0  0  0  0  0  0  0  0  0  0  0
   -9.7804   12.1427    0.0000 H   0  0  0  0  0  0  0  0  0  0  0  0
   -8.4979   11.1305    0.0000 H   0  0  0  0  0  0  0  0  0  0  0  0
  -12.8604   10.9211    0.0000 H   0  0  0  0  0  0  0  0  0  0  0  0
  -11.6846    9.5788    0.0000 H   0  0  0  0  0  0  0  0  0  0  0  0
  -10.6806   13.5507    0.0000 H   0  0  0  0  0  0  0  0  0  0  0  0
  -15.0215   14.7368    0.0000 H   0  0  0  0  0  0  0  0  0  0  0  0
  -12.5086   15.3969    0.0000 H   0  0  0  0  0  0  0  0  0  0  0  0
  -15.7063   12.2307    0.0000 H   0  0  0  0  0  0  0  0  0  0  0  0
  -13.8783   10.3845    0.0000 H   0  0  0  0  0  0  0  0  0  0  0  0
  -11.2103    7.0334    0.0000 H   0  0  0  0  0  0  0  0  0  0  0  0
  -11.4011    6.0642    0.0000 H   0  0  0  0  0  0  0  0  0  0  0  0
  -13.0870    3.7720    0.0000 H   0  0  0  0  0  0  0  0  0  0  0  0
  -11.4451    3.0731    0.0000 H   0  0  0  0  0  0  0  0  0  0  0  0
  -14.3297    5.0969    0.0000 H   0  0  0  0  0  0  0  0  0  0  0  0
  -12.0432    1.9892    0.0000 H   0  0  0  0  0  0  0  0  0  0  0  0
  -11.6138    1.0631    0.0000 H   0  0  0  0  0  0  0  0  0  0  0  0
  -11.6780   -2.0244    0.0000 H   0  0  0  0  0  0  0  0  0  0  0  0
  -10.0871   -1.6522    0.0000 H   0  0  0  0  0  0  0  0  0  0  0  0
  -12.4949    1.1350    0.0000 H   0  0  0  0  0  0  0  0  0  0  0  0
  -15.1061   -1.4352    0.0000 H   0  0  0  0  0  0  0  0  0  0  0  0
  -14.1167   -2.9203    0.0000 H   0  0  0  0  0  0  0  0  0  0  0  0
  -12.4073   -2.4084    0.0000 H   0  0  0  0  0  0  0  0  0  0  0  0
  -15.3275   -0.2014    0.0000 H   0  0  0  0  0  0  0  0  0  0  0  0
  -14.9161    1.5350    0.0000 H   0  0  0  0  0  0  0  0  0  0  0  0
  -12.9877    1.5408    0.0000 H   0  0  0  0  0  0  0  0  0  0  0  0
  -10.0043   -2.8874    0.0000 H   0  0  0  0  0  0  0  0  0  0  0  0
   -6.3255   -5.4396    0.0000 H   0  0  0  0  0  0  0  0  0  0  0  0
   -7.5010   -4.9881    0.0000 H   0  0  0  0  0  0  0  0  0  0  0  0
   -4.8385   -6.0047    0.0000 H   0  0  0  0  0  0  0  0  0  0  0  0
   -5.8985   -5.7482    0.0000 H   0  0  0  0  0  0  0  0  0  0  0  0
   -2.9220   -6.1735    0.0000 H   0  0  0  0  0  0  0  0  0  0  0  0
   -4.3435   -6.1067    0.0000 H   0  0  0  0  0  0  0  0  0  0  0  0
   -1.9476   -6.3353    0.0000 H   0  0  0  0  0  0  0  0  0  0  0  0
   -9.7203   -4.9729    0.0000 H   0  0  0  0  0  0  0  0  0  0  0  0
  -10.5924   -3.5913    0.0000 H   0  0  0  0  0  0  0  0  0  0  0  0
   -9.6850   -2.2325    0.0000 H   0  0  0  0  0  0  0  0  0  0  0  0
  -10.5415   -4.4356    0.0000 H   0  0  0  0  0  0  0  0  0  0  0  0
   -7.9311   -6.6005    0.0000 H   0  0  0  0  0  0  0  0  0  0  0  0
   -9.0969   -9.6385    0.0000 H   0  0  0  0  0  0  0  0  0  0  0  0
  -10.5295   -8.5746    0.0000 H   0  0  0  0  0  0  0  0  0  0  0  0
   -9.9193   -9.7924    0.0000 H   0  0  0  0  0  0  0  0  0  0  0  0
  -12.7130   -7.8700    0.0000 H   0  0  0  0  0  0  0  0  0  0  0  0
  -15.3100   -8.9669    0.0000 H   0  0  0  0  0  0  0  0  0  0  0  0
  -13.6908   -7.9195    0.0000 H   0  0  0  0  0  0  0  0  0  0  0  0
  -14.9251  -12.1981    0.0000 H   0  0  0  0  0  0  0  0  0  0  0  0
  -13.5010  -11.8060    0.0000 H   0  0  0  0  0  0  0  0  0  0  0  0
  -18.2391  -12.2303    0.0000 H   0  0  0  0  0  0  0  0  0  0  0  0
  -15.9263  -13.4139    0.0000 H   0  0  0  0  0  0  0  0  0  0  0  0
  -15.3252  -10.8158    0.0000 H   0  0  0  0  0  0  0  0  0  0  0  0
  -15.6076  -12.6298    0.0000 H   0  0  0  0  0  0  0  0  0  0  0  0
  -16.0106  -13.3233    0.0000 H   0  0  0  0  0  0  0  0  0  0  0  0
  -14.5150  -16.8962    0.0000 H   0  0  0  0  0  0  0  0  0  0  0  0
  -12.8031  -16.3924    0.0000 H   0  0  0  0  0  0  0  0  0  0  0  0
  -12.6077  -14.9282    0.0000 H   0  0  0  0  0  0  0  0  0  0  0  0
  -16.5964  -16.5845    0.0000 H   0  0  0  0  0  0  0  0  0  0  0  0
  -14.8359  -16.2931    0.0000 H   0  0  0  0  0  0  0  0  0  0  0  0
  -18.4456  -15.8291    0.0000 H   0  0  0  0  0  0  0  0  0  0  0  0
  -18.5431  -13.9032    0.0000 H   0  0  0  0  0  0  0  0  0  0  0  0
  -16.6634  -13.4728    0.0000 H   0  0  0  0  0  0  0  0  0  0  0  0
  1  2  1  0
  2  3  1  0
  3  4  1  0
  4  5  2  0
  4  6  1  0
  6  7  1  0
  7  8  1  0
  8  9  1  0
  9 10  2  0
 10 11  1  0
 11 12  1  0
 12 13  2  0
 13 14  1  0
 14 15  2  0
 15 16  1  0
 16 17  2  0
  7 18  1  0
 18 19  2  0
 18 20  1  0
 20 21  1  0
 21 22  1  0
 22 23  1  0
 23 24  1  0
 23 25  2  0
 21 26  1  0
 26 27  2  0
 26 28  1  0
 28 29  1  0
 29 30  1  0
 30 31  1  0
 31 32  1  0
 32 33  2  0
 32 34  1  0
 29 35  1  0
 35 36  2  0
 35 37  1  0
 37 38  1  0
 38 39  1  0
 39 40  1  0
 40 41  1  0
 40 42  1  0
 38 43  1  0
 43 44  2  0
 43 45  1  0
 46 45  1  6
 46 47  1  0
 47 48  1  0
 48 49  1  0
 49 50  1  0
 50 51  1  0
 51 52  1  0
 52 53  1  0
 46 54  1  0
 46 55  1  0
 55 56  2  0
 55 57  1  0
 57 58  1  0
 58 59  1  0
 59 60  1  0
 60 61  1  0
 61 62  1  0
 62 63  1  0
 63 64  2  3
 63 65  1  0
 58 66  1  0
 66 67  2  0
 66 68  1  0
 68 69  1  0
 69 70  1  0
 70 71  1  0
 69 72  1  0
 72 73  2  0
 72 74  1  0
 74 75  1  0
 75 76  1  0
 76 77  1  0
 77 78  2  0
 78 79  1  0
 79 80  2  0
 80 81  1  0
 81 82  2  0
 75 83  1  0
 83 84  2  0
 83 85  1  0
 85 86  1  0
 86 87  1  0
 87 88  1  0
 88 89  1  0
 89 90  1  0
 90 91  1  0
 91 92  2  3
 91 93  1  0
 86 94  1  0
 94 95  2  0
 94 96  1  0
 96 97  1  0
 97 98  1  0
 98 99  1  0
 97100  1  0
100101  2  0
100102  1  0
102103  1  0
103104  1  0
104105  1  0
105106  1  0
105107  1  0
103108  1  0
108109  2  0
108110  1  0
110111  1  0
111112  1  0
112113  1  0
113114  1  0
114115  1  0
111116  1  0
111117  1  1
117118  2  0
117119  1  0
119120  1  0
120121  1  0
121122  1  0
122123  2  0
122124  1  0
120125  1  0
125126  2  0
125127  1  0
127128  1  0
128129  1  0
129130  1  0
130131  1  0
131132  1  0
131133  2  0
128134  1  0
134135  2  0
134136  1  0
136137  1  0
137138  1  0
138139  1  0
138140  1  0
140141  1  0
137142  1  0
142143  2  0
142144  1  0
 17  9  1  0
 82 77  1  0
 17 12  1  0
 53115  2  0
  1145  1  0
  1146  1  0
  2147  1  0
  2148  1  0
  3149  1  0
  3150  1  0
  6151  1  0
  7152  1  1
  8153  1  0
  8154  1  0
 10155  1  0
 11156  1  0
 13157  1  0
 14158  1  0
 15159  1  0
 16160  1  0
 20161  1  0
 21162  1  1
 22163  1  0
 22164  1  0
 24165  1  0
 24166  1  0
 28167  1  0
 29168  1  1
 30169  1  0
 30170  1  0
 31171  1  0
 31172  1  0
 37173  1  0
 38174  1  6
 39175  1  0
 39176  1  0
 40177  1  0
 41178  1  0
 41179  1  0
 41180  1  0
 42181  1  0
 42182  1  0
 42183  1  0
 45184  1  0
 47185  1  0
 47186  1  0
 48187  1  0
 48188  1  0
 49189  1  0
 49190  1  0
 50191  1  0
 50192  1  0
 51193  1  0
 51194  1  0
 52195  1  0
 52196  1  0
 53197  1  0
 54198  1  0
 54199  1  0
 54200  1  0
 57201  1  0
 58202  1  6
 59203  1  0
 59204  1  0
 60205  1  0
 60206  1  0
 61207  1  0
 61208  1  0
 62209  1  0
 64210  1  0
 64211  1  0
 65212  1  0
 65213  1  0
 68214  1  0
 69215  1  6
 70216  1  0
 70217  1  0
 71218  1  0
 74219  1  0
 75220  1  6
 76221  1  0
 76222  1  0
 78223  1  0
 79224  1  0
 80225  1  0
 81226  1  0
 82227  1  0
 85228  1  0
 86229  1  6
 87230  1  0
 87231  1  0
 88232  1  0
 88233  1  0
 89234  1  0
 89235  1  0
 90236  1  0
 92237  1  0
 92238  1  0
 93239  1  0
 93240  1  0
 96241  1  0
 97242  1  6
 98243  1  0
 98244  1  0
 99245  1  0
102246  1  0
103247  1  6
104248  1  0
104249  1  0
105250  1  0
106251  1  0
106252  1  0
106253  1  0
107254  1  0
107255  1  0
107256  1  0
110257  1  0
112258  1  0
112259  1  0
113260  1  0
113261  1  0
114262  1  0
114263  1  0
115264  1  0
116265  1  0
116266  1  0
116267  1  0
119268  1  0
120269  1  1
121270  1  0
121271  1  0
127272  1  0
128273  1  6
129274  1  0
129275  1  0
130276  1  0
130277  1  0
132278  1  0
132279  1  0
136280  1  0
137281  1  6
138282  1  6
139283  1  0
139284  1  0
139285  1  0
140286  1  0
140287  1  0
141288  1  0
141289  1  0
141290  1  0
M  CHG  5  34  -1  64   1  92   1 124  -1 144  -1
M  END
