
     RDKit          2D

313320  0  0  0  0  0  0  0  0999 V2000
  -22.2389   -8.3194    0.0000 C   0  0  0  0  0  0  0  0  0  0  0  0
  -21.9405   -9.7895    0.0000 N   0  0  0  0  0  0  0  0  0  0  0  0
  -23.0644  -10.7829    0.0000 C   0  0  0  0  0  0  0  0  0  0  0  0
  -24.4866  -10.3063    0.0000 C   0  0  0  0  0  0  0  0  0  0  0  0
  -25.6105  -11.2998    0.0000 C   0  0  0  0  0  0  0  0  0  0  0  0
  -25.3121  -12.7698    0.0000 C   0  0  0  0  0  0  0  0  0  0  0  0
  -23.8898  -13.2464    0.0000 C   0  0  0  0  0  0  0  0  0  0  0  0
  -22.7659  -12.2529    0.0000 C   0  0  0  0  0  0  0  0  0  0  0  0
  -23.9036  -14.7463    0.0000 C   0  0  0  0  0  0  0  0  0  0  0  0
  -25.3343  -15.1967    0.0000 O   0  0  0  0  0  0  0  0  0  0  0  0
  -26.2049  -13.9752    0.0000 C   0  0  0  0  0  0  0  0  0  0  0  0
  -27.7048  -13.9614    0.0000 O   0  0  0  0  0  0  0  0  0  0  0  0
  -24.0740  -16.2366    0.0000 C   0  0  0  0  0  0  0  0  0  0  0  0
  -22.8686  -17.1293    0.0000 C   0  0  0  0  0  0  0  0  0  0  0  0
  -23.0391  -18.6196    0.0000 C   0  0  0  0  0  0  0  0  0  0  0  0
  -24.4149  -19.2171    0.0000 C   0  0  0  0  0  0  0  0  0  0  0  0
  -25.6203  -18.3244    0.0000 C   0  0  0  0  0  0  0  0  0  0  0  0
  -25.4499  -16.8341    0.0000 C   0  0  0  0  0  0  0  0  0  0  0  0
  -24.5854  -20.7074    0.0000 O   0  0  0  0  0  0  0  0  0  0  0  0
  -21.4928  -16.5318    0.0000 O   0  0  0  0  0  0  0  0  0  0  0  0
  -21.3223  -15.0415    0.0000 C   0  0  0  0  0  0  0  0  0  0  0  0
  -22.5277  -14.1488    0.0000 C   0  0  0  0  0  0  0  0  0  0  0  0
  -21.7947  -13.0751    0.0000 C   0  0  0  0  0  0  0  0  0  0  0  0
  -21.0609  -12.7564    0.0000 C   0  0  0  0  0  0  0  0  0  0  0  0
  -20.4181  -13.2326    0.0000 C   0  0  0  0  0  0  0  0  0  0  0  0
  -20.5090  -14.0274    0.0000 C   0  0  0  0  0  0  0  0  0  0  0  0
  -18.4002  -12.3562    0.0000 O   0  0  0  0  0  0  0  0  0  0  0  0
  -23.6612   -7.8429    0.0000 S   0  0  0  0  0  0  0  0  0  0  0  0
  -21.1150   -7.3260    0.0000 N   0  0  0  0  0  0  0  0  0  0  0  0
  -21.4135   -5.8560    0.0000 C   0  0  0  0  0  0  0  0  0  0  0  0
  -20.2896   -4.8625    0.0000 C   0  0  0  0  0  0  0  0  0  0  0  0
  -20.5880   -3.3925    0.0000 O   0  0  0  0  0  0  0  0  0  0  0  0
  -19.4641   -2.3991    0.0000 C   0  0  0  0  0  0  0  0  0  0  0  0
  -19.7626   -0.9291    0.0000 C   0  0  0  0  0  0  0  0  0  0  0  0
  -18.6387    0.0644    0.0000 O   0  0  0  0  0  0  0  0  0  0  0  0
  -18.9371    1.5344    0.0000 C   0  0  0  0  0  0  0  0  0  0  0  0
  -17.8132    2.5278    0.0000 C   0  0  0  0  0  0  0  0  0  0  0  0
  -16.3910    2.0513    0.0000 O   0  0  0  0  0  0  0  0  0  0  0  0
  -18.1116    3.9979    0.0000 N   0  0  0  0  0  0  0  0  0  0  0  0
  -19.4763    4.6205    0.0000 C   0  0  0  0  0  0  0  0  0  0  0  0
  -19.3059    6.1108    0.0000 C   0  0  0  0  0  0  0  0  0  0  0  0
  -17.8359    6.4092    0.0000 C   0  0  0  0  0  0  0  0  0  0  0  0
  -17.0978    5.1033    0.0000 C   0  0  0  0  0  0  0  0  0  0  0  0
  -15.8762    5.9739    0.0000 C   0  0  0  0  0  0  0  0  0  0  0  0
  -15.8363    7.4733    0.0000 O   0  0  0  0  0  0  0  0  0  0  0  0
  -14.5116    5.3512    0.0000 N   0  0  0  0  0  0  0  0  0  0  0  0
  -13.2900    6.2217    0.0000 C   0  0  0  0  0  0  0  0  0  0  0  0
  -12.4399    7.4576    0.0000 C   0  0  0  0  0  0  0  0  0  0  0  0
  -10.9445    7.3392    0.0000 C   0  0  0  0  0  0  0  0  0  0  0  0
  -10.0944    8.5750    0.0000 C   0  0  0  0  0  0  0  0  0  0  0  0
   -8.6149    8.8221    0.0000 O   0  0  0  0  0  0  0  0  0  0  0  0
  -11.0481    9.7328    0.0000 O   0  0  0  0  0  0  0  0  0  0  0  0
  -11.9253    5.5991    0.0000 C   0  0  0  0  0  0  0  0  0  0  0  0
  -11.9653    4.0996    0.0000 O   0  0  0  0  0  0  0  0  0  0  0  0
  -10.7038    6.4696    0.0000 N   0  0  0  0  0  0  0  0  0  0  0  0
   -9.3391    5.8470    0.0000 C   0  0  0  0  0  0  0  0  0  0  0  0
   -8.9030    4.4118    0.0000 C   0  0  0  0  0  0  0  0  0  0  0  0
   -8.0632    3.1689    0.0000 C   0  0  0  0  0  0  0  0  0  0  0  0
   -6.8943    2.2288    0.0000 C   0  0  0  0  0  0  0  0  0  0  0  0
   -5.5003    1.6750    0.0000 C   0  0  0  0  0  0  0  0  0  0  0  0
  -10.5799    5.0041    0.0000 C   0  0  0  0  0  0  0  0  0  0  0  0
   -9.3329    7.3470    0.0000 C   0  0  0  0  0  0  0  0  0  0  0  0
  -10.0245    7.7433    0.0000 O   0  0  0  0  0  0  0  0  0  0  0  0
   -8.8847    8.7785    0.0000 N   0  0  0  0  0  0  0  0  0  0  0  0
   -8.0346   10.0143    0.0000 C   0  0  0  0  0  0  0  0  0  0  0  0
   -8.3987   11.4695    0.0000 C   0  0  0  0  0  0  0  0  0  0  0  0
   -9.8804   11.7029    0.0000 C   0  0  0  0  0  0  0  0  0  0  0  0
   -8.2431   12.9614    0.0000 C   0  0  0  0  0  0  0  0  0  0  0  0
   -9.4573   13.8421    0.0000 C   0  0  0  0  0  0  0  0  0  0  0  0
   -6.8580   10.9446    0.0000 C   0  0  0  0  0  0  0  0  0  0  0  0
   -7.4382   12.3279    0.0000 O   0  0  0  0  0  0  0  0  0  0  0  0
   -5.4594   11.4868    0.0000 N   0  0  0  0  0  0  0  0  0  0  0  0
   -3.9631   11.5927    0.0000 C   0  0  0  0  0  0  0  0  0  0  0  0
   -3.0524   12.7846    0.0000 C   0  0  0  0  0  0  0  0  0  0  0  0
   -3.6293   14.1692    0.0000 C   0  0  0  0  0  0  0  0  0  0  0  0
   -2.7186   15.3611    0.0000 C   0  0  0  0  0  0  0  0  0  0  0  0
   -4.6450   15.2730    0.0000 C   0  0  0  0  0  0  0  0  0  0  0  0
   -2.5021   11.2528    0.0000 C   0  0  0  0  0  0  0  0  0  0  0  0
   -1.9483   12.6468    0.0000 O   0  0  0  0  0  0  0  0  0  0  0  0
   -1.2062   10.4974    0.0000 N   0  0  0  0  0  0  0  0  0  0  0  0
   -0.1906    9.3935    0.0000 C   0  0  0  0  0  0  0  0  0  0  0  0
    1.3091    9.4247    0.0000 C   0  0  0  0  0  0  0  0  0  0  0  0
    2.0320   10.7390    0.0000 C   0  0  0  0  0  0  0  0  0  0  0  0
    3.5317   10.7701    0.0000 O   0  0  0  0  0  0  0  0  0  0  0  0
    1.2552   12.0222    0.0000 O   0  0  0  0  0  0  0  0  0  0  0  0
    0.4546    8.0394    0.0000 C   0  0  0  0  0  0  0  0  0  0  0  0
    1.8898    8.4755    0.0000 O   0  0  0  0  0  0  0  0  0  0  0  0
    0.6720    6.5552    0.0000 N   0  0  0  0  0  0  0  0  0  0  0  0
    0.4422    5.0729    0.0000 C   0  0  0  0  0  0  0  0  0  0  0  0
   -0.2142    3.7242    0.0000 C   0  0  0  0  0  0  0  0  0  0  0  0
   -1.2391    2.6289    0.0000 C   0  0  0  0  0  0  0  0  0  0  0  0
   -2.5412    1.8843    0.0000 C   0  0  0  0  0  0  0  0  0  0  0  0
   -4.0050    1.5566    0.0000 C   0  0  0  0  0  0  0  0  0  0  0  0
    1.8879    5.4732    0.0000 C   0  0  0  0  0  0  0  0  0  0  0  0
    1.4016    3.9198    0.0000 C   0  0  0  0  0  0  0  0  0  0  0  0
    1.2387    2.4287    0.0000 O   0  0  0  0  0  0  0  0  0  0  0  0
    2.8799    4.1741    0.0000 N   0  0  0  0  0  0  0  0  0  0  0  0
    3.8393    3.0211    0.0000 C   0  0  0  0  0  0  0  0  0  0  0  0
    4.3464    1.6094    0.0000 C   0  0  0  0  0  0  0  0  0  0  0  0
    3.3774    0.4644    0.0000 C   0  0  0  0  0  0  0  0  0  0  0  0
    3.7342   -0.9926    0.0000 C   0  0  0  0  0  0  0  0  0  0  0  0
    2.4589   -1.7821    0.0000 N   0  0  0  0  0  0  0  0  0  0  0  0
    1.3138   -0.8132    0.0000 C   0  0  0  0  0  0  0  0  0  0  0  0
    1.8815    0.5752    0.0000 N   0  0  0  0  0  0  0  0  0  0  0  0
    5.3176    3.2754    0.0000 C   0  0  0  0  0  0  0  0  0  0  0  0
    5.8365    4.6827    0.0000 O   0  0  0  0  0  0  0  0  0  0  0  0
    6.2769    2.1223    0.0000 N   0  0  0  0  0  0  0  0  0  0  0  0
    7.7552    2.3766    0.0000 C   0  0  0  0  0  0  0  0  0  0  0  0
    9.0574    3.1212    0.0000 C   0  0  0  0  0  0  0  0  0  0  0  0
   10.4357    2.5293    0.0000 C   0  0  0  0  0  0  0  0  0  0  0  0
    8.7146    1.2235    0.0000 C   0  0  0  0  0  0  0  0  0  0  0  0
    8.1957   -0.1839    0.0000 O   0  0  0  0  0  0  0  0  0  0  0  0
   10.1929    1.4778    0.0000 N   0  0  0  0  0  0  0  0  0  0  0  0
   11.1523    0.3247    0.0000 C   0  0  0  0  0  0  0  0  0  0  0  0
   11.6594   -1.0869    0.0000 C   0  0  0  0  0  0  0  0  0  0  0  0
   10.6904   -2.2320    0.0000 C   0  0  0  0  0  0  0  0  0  0  0  0
   11.1976   -3.6436    0.0000 C   0  0  0  0  0  0  0  0  0  0  0  0
   10.2286   -4.7887    0.0000 N   0  0  0  0  0  0  0  0  0  0  0  0
   10.7357   -6.2003    0.0000 C   0  0  0  0  0  0  0  0  0  0  0  0
    9.7668   -7.3454    0.0000 N   0  0  0  0  0  0  0  0  0  0  0  0
   12.2119   -6.4670    0.0000 N   0  0  0  0  0  0  0  0  0  0  0  0
   12.6305    0.5790    0.0000 C   0  0  0  0  0  0  0  0  0  0  0  0
   13.1495    1.9864    0.0000 O   0  0  0  0  0  0  0  0  0  0  0  0
   13.5899   -0.5741    0.0000 N   0  0  0  0  0  0  0  0  0  0  0  0
   15.0682   -0.3197    0.0000 C   0  0  0  0  0  0  0  0  0  0  0  0
   16.3704    0.4248    0.0000 C   0  0  0  0  0  0  0  0  0  0  0  0
   17.6663   -0.3306    0.0000 C   0  0  0  0  0  0  0  0  0  0  0  0
   18.9684    0.4140    0.0000 C   0  0  0  0  0  0  0  0  0  0  0  0
   20.2643   -0.3414    0.0000 N   0  0  0  0  0  0  0  0  0  0  0  0
   21.5665    0.4031    0.0000 C   0  0  0  0  0  0  0  0  0  0  0  0
   22.7606   -0.5046    0.0000 N   0  0  0  0  0  0  0  0  0  0  0  0
   21.5727    1.9031    0.0000 N   0  0  0  0  0  0  0  0  0  0  0  0
   16.0276   -1.4728    0.0000 C   0  0  0  0  0  0  0  0  0  0  0  0
   15.5087   -2.8802    0.0000 O   0  0  0  0  0  0  0  0  0  0  0  0
   17.5059   -1.2185    0.0000 N   0  0  0  0  0  0  0  0  0  0  0  0
   18.4652   -2.3716    0.0000 C   0  0  0  0  0  0  0  0  0  0  0  0
   18.9724   -3.7833    0.0000 C   0  0  0  0  0  0  0  0  0  0  0  0
   18.0034   -4.9283    0.0000 C   0  0  0  0  0  0  0  0  0  0  0  0
   19.9435   -2.1173    0.0000 C   0  0  0  0  0  0  0  0  0  0  0  0
   20.7876   -0.8773    0.0000 O   0  0  0  0  0  0  0  0  0  0  0  0
   20.9029   -3.2704    0.0000 N   0  0  0  0  0  0  0  0  0  0  0  0
   22.3812   -3.0161    0.0000 C   0  0  0  0  0  0  0  0  0  0  0  0
   23.6834   -2.2715    0.0000 C   0  0  0  0  0  0  0  0  0  0  0  0
   24.9792   -3.0269    0.0000 C   0  0  0  0  0  0  0  0  0  0  0  0
   26.2814   -2.2824    0.0000 S   0  0  0  0  0  0  0  0  0  0  0  0
   27.6597   -2.8742    0.0000 C   0  0  0  0  0  0  0  0  0  0  0  0
   23.3406   -4.1692    0.0000 C   0  0  0  0  0  0  0  0  0  0  0  0
   22.8217   -5.5766    0.0000 O   0  0  0  0  0  0  0  0  0  0  0  0
   24.8189   -3.9149    0.0000 N   0  0  0  0  0  0  0  0  0  0  0  0
   25.7782   -5.0679    0.0000 C   0  0  0  0  0  0  0  0  0  0  0  0
   26.2854   -6.4796    0.0000 C   0  0  0  0  0  0  0  0  0  0  0  0
   25.3164   -7.6246    0.0000 C   0  0  0  0  0  0  0  0  0  0  0  0
   25.8235   -9.0363    0.0000 C   0  0  0  0  0  0  0  0  0  0  0  0
   24.8546  -10.1813    0.0000 N   0  0  0  0  0  0  0  0  0  0  0  0
   25.3617  -11.5930    0.0000 C   0  0  0  0  0  0  0  0  0  0  0  0
   24.3927  -12.7380    0.0000 N   0  0  0  0  0  0  0  0  0  0  0  0
   26.8378  -11.8596    0.0000 N   0  0  0  0  0  0  0  0  0  0  0  0
   27.2565   -4.8136    0.0000 C   0  0  0  0  0  0  0  0  0  0  0  0
   28.3493   -5.8412    0.0000 O   0  0  0  0  0  0  0  0  0  0  0  0
   27.9431   -3.4800    0.0000 O   0  0  0  0  0  0  0  0  0  0  0  0
  -20.4707  -10.0891    0.0000 H   0  0  0  0  0  0  0  0  0  0  0  0
  -24.7851   -8.8363    0.0000 H   0  0  0  0  0  0  0  0  0  0  0  0
  -27.0328  -10.8232    0.0000 H   0  0  0  0  0  0  0  0  0  0  0  0
  -21.2706  -12.3712    0.0000 H   0  0  0  0  0  0  0  0  0  0  0  0
  -21.8337  -19.5124    0.0000 H   0  0  0  0  0  0  0  0  0  0  0  0
  -26.9962  -18.9219    0.0000 H   0  0  0  0  0  0  0  0  0  0  0  0
  -26.6553  -15.9413    0.0000 H   0  0  0  0  0  0  0  0  0  0  0  0
  -25.9612  -21.3050    0.0000 H   0  0  0  0  0  0  0  0  0  0  0  0
  -23.5627  -11.7657    0.0000 H   0  0  0  0  0  0  0  0  0  0  0  0
  -20.6306  -10.6026    0.0000 H   0  0  0  0  0  0  0  0  0  0  0  0
  -18.7411  -15.3368    0.0000 H   0  0  0  0  0  0  0  0  0  0  0  0
  -17.1948  -13.2489    0.0000 H   0  0  0  0  0  0  0  0  0  0  0  0
  -19.6928   -7.8026    0.0000 H   0  0  0  0  0  0  0  0  0  0  0  0
  -22.1966   -4.5767    0.0000 H   0  0  0  0  0  0  0  0  0  0  0  0
  -22.8093   -6.4051    0.0000 H   0  0  0  0  0  0  0  0  0  0  0  0
  -18.8372   -4.4876    0.0000 H   0  0  0  0  0  0  0  0  0  0  0  0
  -19.5064   -6.1418    0.0000 H   0  0  0  0  0  0  0  0  0  0  0  0
  -18.0683   -1.8499    0.0000 H   0  0  0  0  0  0  0  0  0  0  0  0
  -18.5308   -3.5734    0.0000 H   0  0  0  0  0  0  0  0  0  0  0  0
  -20.6958    0.2452    0.0000 H   0  0  0  0  0  0  0  0  0  0  0  0
  -21.1584   -1.4782    0.0000 H   0  0  0  0  0  0  0  0  0  0  0  0
  -19.8704    2.7087    0.0000 H   0  0  0  0  0  0  0  0  0  0  0  0
  -20.3895    1.1595    0.0000 H   0  0  0  0  0  0  0  0  0  0  0  0
  -20.1227    3.2669    0.0000 H   0  0  0  0  0  0  0  0  0  0  0  0
  -20.9406    4.9458    0.0000 H   0  0  0  0  0  0  0  0  0  0  0  0
  -20.8058    6.1245    0.0000 H   0  0  0  0  0  0  0  0  0  0  0  0
  -19.4490    7.6039    0.0000 H   0  0  0  0  0  0  0  0  0  0  0  0
  -18.2863    7.8400    0.0000 H   0  0  0  0  0  0  0  0  0  0  0  0
  -16.5431    7.1700    0.0000 H   0  0  0  0  0  0  0  0  0  0  0  0
  -16.1043    3.9795    0.0000 H   0  0  0  0  0  0  0  0  0  0  0  0
  -14.3684    3.8581    0.0000 H   0  0  0  0  0  0  0  0  0  0  0  0
  -14.3594    7.2736    0.0000 H   0  0  0  0  0  0  0  0  0  0  0  0
  -12.0637    8.9096    0.0000 H   0  0  0  0  0  0  0  0  0  0  0  0
  -13.8045    8.0802    0.0000 H   0  0  0  0  0  0  0  0  0  0  0  0
   -9.4698    7.0653    0.0000 H   0  0  0  0  0  0  0  0  0  0  0  0
  -10.7753    5.8488    0.0000 H   0  0  0  0  0  0  0  0  0  0  0  0
  -10.6638    7.9691    0.0000 H   0  0  0  0  0  0  0  0  0  0  0  0
  -10.4029    4.4218    0.0000 H   0  0  0  0  0  0  0  0  0  0  0  0
   -9.6905    3.1352    0.0000 H   0  0  0  0  0  0  0  0  0  0  0  0
   -9.4360    2.5645    0.0000 H   0  0  0  0  0  0  0  0  0  0  0  0
   -8.6136    1.7736    0.0000 H   0  0  0  0  0  0  0  0  0  0  0  0
   -8.1393    1.3921    0.0000 H   0  0  0  0  0  0  0  0  0  0  0  0
   -6.8258    0.7304    0.0000 H   0  0  0  0  0  0  0  0  0  0  0  0
   -5.8402    0.2140    0.0000 H   0  0  0  0  0  0  0  0  0  0  0  0
  -10.5800    3.3382    0.0000 H   0  0  0  0  0  0  0  0  0  0  0  0
  -11.7732    4.1653    0.0000 H   0  0  0  0  0  0  0  0  0  0  0  0
  -11.6085    5.8284    0.0000 H   0  0  0  0  0  0  0  0  0  0  0  0
  -10.1434    9.5945    0.0000 H   0  0  0  0  0  0  0  0  0  0  0  0
   -9.5322   10.0990    0.0000 H   0  0  0  0  0  0  0  0  0  0  0  0
   -6.9725   11.9342    0.0000 H   0  0  0  0  0  0  0  0  0  0  0  0
  -10.4017   13.2851    0.0000 H   0  0  0  0  0  0  0  0  0  0  0  0
  -11.3371   11.7759    0.0000 H   0  0  0  0  0  0  0  0  0  0  0  0
  -10.3528   10.4718    0.0000 H   0  0  0  0  0  0  0  0  0  0  0  0
   -7.5866   14.3101    0.0000 H   0  0  0  0  0  0  0  0  0  0  0  0
   -6.7613   12.7280    0.0000 H   0  0  0  0  0  0  0  0  0  0  0  0
   -9.3017   15.3340    0.0000 H   0  0  0  0  0  0  0  0  0  0  0  0
  -10.8995   14.2543    0.0000 H   0  0  0  0  0  0  0  0  0  0  0  0
  -10.4206   12.6923    0.0000 H   0  0  0  0  0  0  0  0  0  0  0  0
   -5.7870   12.9506    0.0000 H   0  0  0  0  0  0  0  0  0  0  0  0
   -4.8306   12.8164    0.0000 H   0  0  0  0  0  0  0  0  0  0  0  0
   -1.6999   13.4331    0.0000 H   0  0  0  0  0  0  0  0  0  0  0  0
   -1.7998   11.9593    0.0000 H   0  0  0  0  0  0  0  0  0  0  0  0
   -4.9819   13.5207    0.0000 H   0  0  0  0  0  0  0  0  0  0  0  0
   -3.1224   16.8058    0.0000 H   0  0  0  0  0  0  0  0  0  0  0  0
   -1.4552   16.1697    0.0000 H   0  0  0  0  0  0  0  0  0  0  0  0
   -1.5760   14.3893    0.0000 H   0  0  0  0  0  0  0  0  0  0  0  0
   -4.3747   16.7485    0.0000 H   0  0  0  0  0  0  0  0  0  0  0  0
   -5.9769   15.9629    0.0000 H   0  0  0  0  0  0  0  0  0  0  0  0
   -5.5556   14.0811    0.0000 H   0  0  0  0  0  0  0  0  0  0  0  0
   -0.2661   11.6662    0.0000 H   0  0  0  0  0  0  0  0  0  0  0  0
    0.3979   10.7733    0.0000 H   0  0  0  0  0  0  0  0  0  0  0  0
    2.7290    8.9410    0.0000 H   0  0  0  0  0  0  0  0  0  0  0  0
    1.4449    7.9308    0.0000 H   0  0  0  0  0  0  0  0  0  0  0  0
    2.1720    6.5490    0.0000 H   0  0  0  0  0  0  0  0  0  0  0  0
    0.3626    2.3396    0.0000 H   0  0  0  0  0  0  0  0  0  0  0  0
    1.2300    3.3190    0.0000 H   0  0  0  0  0  0  0  0  0  0  0  0
   -0.9150    1.1643    0.0000 H   0  0  0  0  0  0  0  0  0  0  0  0
    0.0216    1.8160    0.0000 H   0  0  0  0  0  0  0  0  0  0  0  0
   -2.8446    0.4153    0.0000 H   0  0  0  0  0  0  0  0  0  0  0  0
   -1.4434    0.8622    0.0000 H   0  0  0  0  0  0  0  0  0  0  0  0
   -3.8992    0.0604    0.0000 H   0  0  0  0  0  0  0  0  0  0  0  0
    3.1800    4.7114    0.0000 H   0  0  0  0  0  0  0  0  0  0  0  0
    2.9942    6.4861    0.0000 H   0  0  0  0  0  0  0  0  0  0  0  0
    1.5895    6.9432    0.0000 H   0  0  0  0  0  0  0  0  0  0  0  0
    3.5665    5.5078    0.0000 H   0  0  0  0  0  0  0  0  0  0  0  0
    2.5371    2.2765    0.0000 H   0  0  0  0  0  0  0  0  0  0  0  0
    5.1581    0.3480    0.0000 H   0  0  0  0  0  0  0  0  0  0  0  0
    5.7900    2.0167    0.0000 H   0  0  0  0  0  0  0  0  0  0  0  0
    5.1227   -1.5603    0.0000 H   0  0  0  0  0  0  0  0  0  0  0  0
    2.3480   -3.2780    0.0000 H   0  0  0  0  0  0  0  0  0  0  0  0
   -0.1431   -1.1700    0.0000 H   0  0  0  0  0  0  0  0  0  0  0  0
    5.9334    0.6621    0.0000 H   0  0  0  0  0  0  0  0  0  0  0  0
    7.2481    3.7883    0.0000 H   0  0  0  0  0  0  0  0  0  0  0  0
   10.0263    4.2662    0.0000 H   0  0  0  0  0  0  0  0  0  0  0  0
    8.0980    4.2742    0.0000 H   0  0  0  0  0  0  0  0  0  0  0  0
   11.6554    3.1103    0.0000 H   0  0  0  0  0  0  0  0  0  0  0  0
   11.3126    1.2127    0.0000 H   0  0  0  0  0  0  0  0  0  0  0  0
   10.0354    0.8998    0.0000 H   0  0  0  0  0  0  0  0  0  0  0  0
   10.8795    2.8114    0.0000 H   0  0  0  0  0  0  0  0  0  0  0  0
    9.7690   -0.2556    0.0000 H   0  0  0  0  0  0  0  0  0  0  0  0
   12.6188   -2.2400    0.0000 H   0  0  0  0  0  0  0  0  0  0  0  0
   13.1030   -0.6796    0.0000 H   0  0  0  0  0  0  0  0  0  0  0  0
    9.3883   -2.9765    0.0000 H   0  0  0  0  0  0  0  0  0  0  0  0
    9.5977   -1.2044    0.0000 H   0  0  0  0  0  0  0  0  0  0  0  0
   12.1569   -4.7967    0.0000 H   0  0  0  0  0  0  0  0  0  0  0  0
   12.5808   -3.0634    0.0000 H   0  0  0  0  0  0  0  0  0  0  0  0
    8.7525   -4.5220    0.0000 H   0  0  0  0  0  0  0  0  0  0  0  0
   10.2739   -8.7570    0.0000 H   0  0  0  0  0  0  0  0  0  0  0  0
    8.2907   -7.0787    0.0000 H   0  0  0  0  0  0  0  0  0  0  0  0
   12.7190   -7.8786    0.0000 H   0  0  0  0  0  0  0  0  0  0  0  0
   13.1808   -5.3219    0.0000 H   0  0  0  0  0  0  0  0  0  0  0  0
   13.2464   -2.0342    0.0000 H   0  0  0  0  0  0  0  0  0  0  0  0
   14.5611    1.0919    0.0000 H   0  0  0  0  0  0  0  0  0  0  0  0
   17.1925    1.6794    0.0000 H   0  0  0  0  0  0  0  0  0  0  0  0
   15.4110    1.5779    0.0000 H   0  0  0  0  0  0  0  0  0  0  0  0
   18.6256   -1.4837    0.0000 H   0  0  0  0  0  0  0  0  0  0  0  0
   17.3484   -1.7965    0.0000 H   0  0  0  0  0  0  0  0  0  0  0  0
   19.9374    1.5590    0.0000 H   0  0  0  0  0  0  0  0  0  0  0  0
   18.1568    1.6754    0.0000 H   0  0  0  0  0  0  0  0  0  0  0  0
   20.6212   -1.7984    0.0000 H   0  0  0  0  0  0  0  0  0  0  0  0
   24.1645    0.3923    0.0000 H   0  0  0  0  0  0  0  0  0  0  0  0
   22.6911   -1.8539    0.0000 H   0  0  0  0  0  0  0  0  0  0  0  0
   22.8749    2.6477    0.0000 H   0  0  0  0  0  0  0  0  0  0  0  0
   20.2768    2.6585    0.0000 H   0  0  0  0  0  0  0  0  0  0  0  0
   18.3499    0.0215    0.0000 H   0  0  0  0  0  0  0  0  0  0  0  0
   17.0820   -2.9519    0.0000 H   0  0  0  0  0  0  0  0  0  0  0  0
   19.7841   -5.0447    0.0000 H   0  0  0  0  0  0  0  0  0  0  0  0
   20.4160   -3.3759    0.0000 H   0  0  0  0  0  0  0  0  0  0  0  0
   18.5106   -6.3400    0.0000 H   0  0  0  0  0  0  0  0  0  0  0  0
   16.7013   -5.6729    0.0000 H   0  0  0  0  0  0  0  0  0  0  0  0
   16.9106   -3.9008    0.0000 H   0  0  0  0  0  0  0  0  0  0  0  0
   20.5594   -4.7305    0.0000 H   0  0  0  0  0  0  0  0  0  0  0  0
   21.8741   -1.6044    0.0000 H   0  0  0  0  0  0  0  0  0  0  0  0
   24.6523   -1.1265    0.0000 H   0  0  0  0  0  0  0  0  0  0  0  0
   22.4735   -1.3848    0.0000 H   0  0  0  0  0  0  0  0  0  0  0  0
   25.7909   -4.2884    0.0000 H   0  0  0  0  0  0  0  0  0  0  0  0
   24.6614   -4.4929    0.0000 H   0  0  0  0  0  0  0  0  0  0  0  0
   28.8795   -2.2932    0.0000 H   0  0  0  0  0  0  0  0  0  0  0  0
   28.5367   -4.1909    0.0000 H   0  0  0  0  0  0  0  0  0  0  0  0
   26.7757   -4.3012    0.0000 H   0  0  0  0  0  0  0  0  0  0  0  0
   25.6629   -2.6749    0.0000 H   0  0  0  0  0  0  0  0  0  0  0  0
   24.3950   -5.6482    0.0000 H   0  0  0  0  0  0  0  0  0  0  0  0
   27.3782   -7.5072    0.0000 H   0  0  0  0  0  0  0  0  0  0  0  0
   27.6686   -5.8993    0.0000 H   0  0  0  0  0  0  0  0  0  0  0  0
   24.0142   -8.3692    0.0000 H   0  0  0  0  0  0  0  0  0  0  0  0
   24.2236   -6.5971    0.0000 H   0  0  0  0  0  0  0  0  0  0  0  0
   26.7829  -10.1894    0.0000 H   0  0  0  0  0  0  0  0  0  0  0  0
   27.2068   -8.4560    0.0000 H   0  0  0  0  0  0  0  0  0  0  0  0
   23.3785   -9.9147    0.0000 H   0  0  0  0  0  0  0  0  0  0  0  0
   24.8999  -14.1497    0.0000 H   0  0  0  0  0  0  0  0  0  0  0  0
   22.9166  -12.4714    0.0000 H   0  0  0  0  0  0  0  0  0  0  0  0
   27.3450  -13.2713    0.0000 H   0  0  0  0  0  0  0  0  0  0  0  0
   27.8068  -10.7146    0.0000 H   0  0  0  0  0  0  0  0  0  0  0  0
  1  2  1  0
  2  3  1  0
  3  4  2  0
  4  5  1  0
  5  6  2  0
  6  7  1  0
  7  8  2  0
  7  9  1  0
  9 10  1  0
 10 11  1  0
 11 12  2  0
  9 13  1  0
 13 14  1  0
 14 15  2  0
 15 16  1  0
 16 17  2  0
 17 18  1  0
 16 19  1  0
 14 20  1  0
 20 21  1  0
 21 22  2  0
 22 23  1  0
 23 24  2  0
 24 25  1  0
 25 26  2  0
 25 27  1  0
  1 28  2  0
  1 29  1  0
 29 30  1  0
 30 31  1  0
 31 32  1  0
 32 33  1  0
 33 34  1  0
 34 35  1  0
 35 36  1  0
 36 37  1  0
 37 38  2  0
 37 39  1  0
 39 40  1  0
 40 41  1  0
 41 42  1  0
 42 43  1  0
 43 44  1  0
 44 45  2  0
 44 46  1  0
 46 47  1  0
 47 48  1  0
 48 49  1  0
 49 50  1  0
 50 51  2  0
 50 52  1  0
 47 53  1  0
 53 54  2  0
 53 55  1  0
 56 55  1  6
 56 57  1  0
 57 58  1  0
 58 59  1  0
 59 60  1  0
 56 61  1  0
 56 62  1  0
 62 63  2  0
 62 64  1  0
 64 65  1  0
 65 66  1  0
 66 67  1  0
 66 68  1  0
 68 69  1  0
 65 70  1  0
 70 71  2  0
 70 72  1  0
 72 73  1  0
 73 74  1  0
 74 75  1  0
 75 76  1  0
 75 77  1  0
 73 78  1  0
 78 79  2  0
 78 80  1  0
 80 81  1  0
 81 82  1  0
 82 83  1  0
 83 84  2  0
 83 85  1  0
 81 86  1  0
 86 87  2  0
 86 88  1  0
 88 89  1  0
 89 90  1  0
 90 91  1  0
 91 92  1  0
 92 93  1  0
 89 94  1  0
 89 95  1  6
 95 96  2  0
 95 97  1  0
 97 98  1  0
 98 99  1  0
 99100  1  0
100101  2  0
101102  1  0
102103  1  0
103104  2  0
 98105  1  0
105106  2  0
105107  1  0
107108  1  0
108109  1  0
109110  1  0
108111  1  0
111112  2  0
111113  1  0
113114  1  0
114115  1  0
115116  1  0
116117  1  0
117118  1  0
118119  1  0
119120  2  3
119121  1  0
114122  1  0
122123  2  0
122124  1  0
124125  1  0
125126  1  0
126127  1  0
127128  1  0
128129  1  0
129130  1  0
130131  2  3
130132  1  0
125133  1  0
133134  2  0
133135  1  0
135136  1  0
136137  1  0
137138  1  0
136139  1  0
139140  2  0
139141  1  0
141142  1  0
142143  1  0
143144  1  0
144145  1  0
145146  1  0
142147  1  0
147148  2  0
147149  1  0
149150  1  0
150151  1  0
151152  1  0
152153  1  0
153154  1  0
154155  1  0
155156  2  3
155157  1  0
150158  1  0
158159  2  0
158160  1  0
  8  3  1  0
 43 39  1  0
104100  1  0
 11  6  1  0
 60 93  2  0
 18 13  2  0
 22  9  1  0
 26 21  1  0
  2161  1  0
  4162  1  0
  5163  1  0
  8164  1  0
 15165  1  0
 17166  1  0
 18167  1  0
 19168  1  0
 23169  1  0
 24170  1  0
 26171  1  0
 27172  1  0
 29173  1  0
 30174  1  0
 30175  1  0
 31176  1  0
 31177  1  0
 33178  1  0
 33179  1  0
 34180  1  0
 34181  1  0
 36182  1  0
 36183  1  0
 40184  1  0
 40185  1  0
 41186  1  0
 41187  1  0
 42188  1  0
 42189  1  0
 43190  1  0
 46191  1  0
 47192  1  1
 48193  1  0
 48194  1  0
 49195  1  0
 49196  1  0
 55197  1  0
 57198  1  0
 57199  1  0
 58200  1  0
 58201  1  0
 59202  1  0
 59203  1  0
 60204  1  0
 61205  1  0
 61206  1  0
 61207  1  0
 64208  1  0
 65209  1  1
 66210  1  6
 67211  1  0
 67212  1  0
 67213  1  0
 68214  1  0
 68215  1  0
 69216  1  0
 69217  1  0
 69218  1  0
 72219  1  0
 73220  1  1
 74221  1  0
 74222  1  0
 75223  1  0
 76224  1  0
 76225  1  0
 76226  1  0
 77227  1  0
 77228  1  0
 77229  1  0
 80230  1  0
 81231  1  1
 82232  1  0
 82233  1  0
 88234  1  0
 90235  1  0
 90236  1  0
 91237  1  0
 91238  1  0
 92239  1  0
 92240  1  0
 93241  1  0
 94242  1  0
 94243  1  0
 94244  1  0
 97245  1  0
 98246  1  6
 99247  1  0
 99248  1  0
101249  1  0
102250  1  0
103251  1  0
107252  1  0
108253  1  1
109254  1  0
109255  1  0
110256  1  0
110257  1  0
110258  1  0
113259  1  0
114260  1  6
115261  1  0
115262  1  0
116263  1  0
116264  1  0
117265  1  0
117266  1  0
118267  1  0
120268  1  0
120269  1  0
121270  1  0
121271  1  0
124272  1  0
125273  1  1
126274  1  0
126275  1  0
127276  1  0
127277  1  0
128278  1  0
128279  1  0
129280  1  0
131281  1  0
131282  1  0
132283  1  0
132284  1  0
135285  1  0
136286  1  6
137287  1  0
137288  1  0
138289  1  0
138290  1  0
138291  1  0
141292  1  0
142293  1  1
143294  1  0
143295  1  0
144296  1  0
144297  1  0
146298  1  0
146299  1  0
146300  1  0
149301  1  0
150302  1  6
151303  1  0
151304  1  0
152305  1  0
152306  1  0
153307  1  0
153308  1  0
154309  1  0
156310  1  0
156311  1  0
157312  1  0
157313  1  0
M  CHG  6  52  -1  85  -1 120   1 131   1 156   1 160  -1
M  END
