
     RDKit          2D

343344  0  0  0  0  0  0  0  0999 V2000
  -29.5003    6.8397    0.0000 N   0  0  0  0  0  0  0  0  0  0  0  0
  -28.1469    6.1929    0.0000 C   0  0  0  0  0  0  0  0  0  0  0  0
  -28.0303    4.6975    0.0000 C   0  0  0  0  0  0  0  0  0  0  0  0
  -26.6769    4.0507    0.0000 C   0  0  0  0  0  0  0  0  0  0  0  0
  -25.5528    5.0438    0.0000 O   0  0  0  0  0  0  0  0  0  0  0  0
  -26.5604    2.5552    0.0000 N   0  0  0  0  0  0  0  0  0  0  0  0
  -25.2070    1.9084    0.0000 C   0  0  0  0  0  0  0  0  0  0  0  0
  -24.8050    3.3536    0.0000 C   0  0  0  0  0  0  0  0  0  0  0  0
  -23.3525    3.7280    0.0000 C   0  0  0  0  0  0  0  0  0  0  0  0
  -22.9506    5.1732    0.0000 C   0  0  0  0  0  0  0  0  0  0  0  0
  -21.4981    5.5476    0.0000 N   0  0  0  0  0  0  0  0  0  0  0  0
  -21.0961    6.9928    0.0000 C   0  0  0  0  0  0  0  0  0  0  0  0
  -19.6436    7.3673    0.0000 N   0  0  0  0  0  0  0  0  0  0  0  0
  -22.1467    8.0635    0.0000 N   0  0  0  0  0  0  0  0  0  0  0  0
  -24.1564    0.8377    0.0000 C   0  0  0  0  0  0  0  0  0  0  0  0
  -22.7039    1.2122    0.0000 O   0  0  0  0  0  0  0  0  0  0  0  0
  -24.5584   -0.6074    0.0000 N   0  0  0  0  0  0  0  0  0  0  0  0
  -23.5078   -1.6781    0.0000 C   0  0  0  0  0  0  0  0  0  0  0  0
  -24.7446   -2.5267    0.0000 C   0  0  0  0  0  0  0  0  0  0  0  0
  -26.0980   -1.8800    0.0000 C   0  0  0  0  0  0  0  0  0  0  0  0
  -27.3349   -2.7286    0.0000 C   0  0  0  0  0  0  0  0  0  0  0  0
  -28.6883   -2.0818    0.0000 N   0  0  0  0  0  0  0  0  0  0  0  0
  -29.9251   -2.9305    0.0000 C   0  0  0  0  0  0  0  0  0  0  0  0
  -31.2785   -2.2837    0.0000 N   0  0  0  0  0  0  0  0  0  0  0  0
  -29.8085   -4.4260    0.0000 N   0  0  0  0  0  0  0  0  0  0  0  0
  -22.1544   -2.3249    0.0000 C   0  0  0  0  0  0  0  0  0  0  0  0
  -22.0379   -3.8203    0.0000 O   0  0  0  0  0  0  0  0  0  0  0  0
  -20.9176   -1.4762    0.0000 N   0  0  0  0  0  0  0  0  0  0  0  0
  -19.5642   -2.1230    0.0000 C   0  0  0  0  0  0  0  0  0  0  0  0
  -18.3274   -1.2743    0.0000 C   0  0  0  0  0  0  0  0  0  0  0  0
  -18.4857   -0.4930    0.0000 O   0  0  0  0  0  0  0  0  0  0  0  0
  -16.9740   -1.9211    0.0000 N   0  0  0  0  0  0  0  0  0  0  0  0
  -15.7372   -1.0724    0.0000 C   0  0  0  0  0  0  0  0  0  0  0  0
  -16.7877   -0.0017    0.0000 C   0  0  0  0  0  0  0  0  0  0  0  0
  -18.2750   -0.1964    0.0000 O   0  0  0  0  0  0  0  0  0  0  0  0
  -14.2846   -0.6979    0.0000 C   0  0  0  0  0  0  0  0  0  0  0  0
  -13.8827    0.7472    0.0000 O   0  0  0  0  0  0  0  0  0  0  0  0
  -13.2341   -1.7686    0.0000 N   0  0  0  0  0  0  0  0  0  0  0  0
  -11.7816   -1.3941    0.0000 C   0  0  0  0  0  0  0  0  0  0  0  0
  -11.6650   -2.8896    0.0000 C   0  0  0  0  0  0  0  0  0  0  0  0
  -12.9019   -3.7383    0.0000 C   0  0  0  0  0  0  0  0  0  0  0  0
  -12.7853   -5.2337    0.0000 C   0  0  0  0  0  0  0  0  0  0  0  0
  -14.0221   -6.0824    0.0000 N   0  0  0  0  0  0  0  0  0  0  0  0
  -13.9056   -7.5779    0.0000 C   0  0  0  0  0  0  0  0  0  0  0  0
  -15.1424   -8.4266    0.0000 N   0  0  0  0  0  0  0  0  0  0  0  0
  -12.5522   -8.2247    0.0000 N   0  0  0  0  0  0  0  0  0  0  0  0
  -10.5448   -0.5455    0.0000 C   0  0  0  0  0  0  0  0  0  0  0  0
   -9.3881   -1.5005    0.0000 O   0  0  0  0  0  0  0  0  0  0  0  0
  -10.6613    0.9500    0.0000 N   0  0  0  0  0  0  0  0  0  0  0  0
  -11.9397    1.7347    0.0000 C   0  0  0  0  0  0  0  0  0  0  0  0
  -11.5884    3.1930    0.0000 C   0  0  0  0  0  0  0  0  0  0  0  0
  -10.0929    3.3096    0.0000 C   0  0  0  0  0  0  0  0  0  0  0  0
   -9.5200    1.9233    0.0000 C   0  0  0  0  0  0  0  0  0  0  0  0
   -8.6713    0.6865    0.0000 C   0  0  0  0  0  0  0  0  0  0  0  0
   -7.1758    0.8030    0.0000 O   0  0  0  0  0  0  0  0  0  0  0  0
   -9.3181   -0.6669    0.0000 N   0  0  0  0  0  0  0  0  0  0  0  0
   -8.4694   -1.9037    0.0000 C   0  0  0  0  0  0  0  0  0  0  0  0
   -9.8348   -2.5247    0.0000 C   0  0  0  0  0  0  0  0  0  0  0  0
  -11.2868   -2.1482    0.0000 O   0  0  0  0  0  0  0  0  0  0  0  0
   -7.2489   -2.7757    0.0000 C   0  0  0  0  0  0  0  0  0  0  0  0
   -7.3938   -4.2687    0.0000 O   0  0  0  0  0  0  0  0  0  0  0  0
   -5.8835   -2.1547    0.0000 N   0  0  0  0  0  0  0  0  0  0  0  0
   -4.6630   -3.0267    0.0000 C   0  0  0  0  0  0  0  0  0  0  0  0
   -3.2976   -2.4057    0.0000 C   0  0  0  0  0  0  0  0  0  0  0  0
   -3.3357   -0.9062    0.0000 O   0  0  0  0  0  0  0  0  0  0  0  0
   -2.0770   -3.2777    0.0000 N   0  0  0  0  0  0  0  0  0  0  0  0
   -0.7116   -2.6566    0.0000 C   0  0  0  0  0  0  0  0  0  0  0  0
   -1.5603   -1.4198    0.0000 C   0  0  0  0  0  0  0  0  0  0  0  0
    0.7838   -2.5401    0.0000 C   0  0  0  0  0  0  0  0  0  0  0  0
    1.0839   -1.0704    0.0000 O   0  0  0  0  0  0  0  0  0  0  0  0
    1.6325   -3.7769    0.0000 N   0  0  0  0  0  0  0  0  0  0  0  0
    3.1280   -3.6604    0.0000 C   0  0  0  0  0  0  0  0  0  0  0  0
    2.3595   -2.3722    0.0000 C   0  0  0  0  0  0  0  0  0  0  0  0
    1.8486   -0.9619    0.0000 C   0  0  0  0  0  0  0  0  0  0  0  0
    1.6139    0.5197    0.0000 C   0  0  0  0  0  0  0  0  0  0  0  0
    1.6638    2.0188    0.0000 C   0  0  0  0  0  0  0  0  0  0  0  0
    1.9965    3.4815    0.0000 C   0  0  0  0  0  0  0  0  0  0  0  0
    2.6001    4.8547    0.0000 C   0  0  0  0  0  0  0  0  0  0  0  0
    3.4526    6.0889    0.0000 C   0  0  0  0  0  0  0  0  0  0  0  0
    2.5683   -5.0520    0.0000 C   0  0  0  0  0  0  0  0  0  0  0  0
    4.1264   -4.7798    0.0000 C   0  0  0  0  0  0  0  0  0  0  0  0
    3.2487   -5.9962    0.0000 O   0  0  0  0  0  0  0  0  0  0  0  0
    5.3186   -5.6901    0.0000 N   0  0  0  0  0  0  0  0  0  0  0  0
    6.6616   -6.3582    0.0000 C   0  0  0  0  0  0  0  0  0  0  0  0
    6.9432   -7.8316    0.0000 C   0  0  0  0  0  0  0  0  0  0  0  0
    5.8080   -8.8121    0.0000 C   0  0  0  0  0  0  0  0  0  0  0  0
    6.0896  -10.2854    0.0000 C   0  0  0  0  0  0  0  0  0  0  0  0
    4.9545  -11.2660    0.0000 N   0  0  0  0  0  0  0  0  0  0  0  0
    5.2361  -12.7393    0.0000 C   0  0  0  0  0  0  0  0  0  0  0  0
    4.1009  -13.7198    0.0000 N   0  0  0  0  0  0  0  0  0  0  0  0
    6.6528  -13.2321    0.0000 N   0  0  0  0  0  0  0  0  0  0  0  0
    8.1067   -6.7602    0.0000 C   0  0  0  0  0  0  0  0  0  0  0  0
    8.0259   -8.2580    0.0000 O   0  0  0  0  0  0  0  0  0  0  0  0
    9.6018   -6.8814    0.0000 N   0  0  0  0  0  0  0  0  0  0  0  0
   11.0928   -6.7174    0.0000 C   0  0  0  0  0  0  0  0  0  0  0  0
   12.1263   -7.8046    0.0000 C   0  0  0  0  0  0  0  0  0  0  0  0
   11.7014   -9.2432    0.0000 C   0  0  0  0  0  0  0  0  0  0  0  0
   12.7349  -10.3304    0.0000 C   0  0  0  0  0  0  0  0  0  0  0  0
   12.3101  -11.7690    0.0000 N   0  0  0  0  0  0  0  0  0  0  0  0
   13.3435  -12.8562    0.0000 C   0  0  0  0  0  0  0  0  0  0  0  0
   12.9187  -14.2948    0.0000 N   0  0  0  0  0  0  0  0  0  0  0  0
   14.8018  -12.5048    0.0000 N   0  0  0  0  0  0  0  0  0  0  0  0
   12.5259   -6.2743    0.0000 C   0  0  0  0  0  0  0  0  0  0  0  0
   13.2677   -7.5780    0.0000 O   0  0  0  0  0  0  0  0  0  0  0  0
   13.8492   -5.5679    0.0000 N   0  0  0  0  0  0  0  0  0  0  0  0
   15.0148   -4.6239    0.0000 C   0  0  0  0  0  0  0  0  0  0  0  0
   16.4720   -4.9798    0.0000 C   0  0  0  0  0  0  0  0  0  0  0  0
   16.8924   -6.4197    0.0000 C   0  0  0  0  0  0  0  0  0  0  0  0
   18.3495   -6.7756    0.0000 C   0  0  0  0  0  0  0  0  0  0  0  0
   18.7699   -8.2155    0.0000 N   0  0  0  0  0  0  0  0  0  0  0  0
   20.2271   -8.5714    0.0000 C   0  0  0  0  0  0  0  0  0  0  0  0
   20.6475  -10.0113    0.0000 N   0  0  0  0  0  0  0  0  0  0  0  0
   21.2639   -7.4874    0.0000 N   0  0  0  0  0  0  0  0  0  0  0  0
   15.9808   -3.4763    0.0000 C   0  0  0  0  0  0  0  0  0  0  0  0
   17.3097   -4.1720    0.0000 O   0  0  0  0  0  0  0  0  0  0  0  0
   16.7121   -2.1667    0.0000 N   0  0  0  0  0  0  0  0  0  0  0  0
   17.1824   -0.7423    0.0000 C   0  0  0  0  0  0  0  0  0  0  0  0
   18.6006   -0.2539    0.0000 C   0  0  0  0  0  0  0  0  0  0  0  0
   19.7327   -1.2379    0.0000 C   0  0  0  0  0  0  0  0  0  0  0  0
   21.1510   -0.7495    0.0000 C   0  0  0  0  0  0  0  0  0  0  0  0
   22.2831   -1.7336    0.0000 N   0  0  0  0  0  0  0  0  0  0  0  0
   23.7014   -1.2452    0.0000 C   0  0  0  0  0  0  0  0  0  0  0  0
   24.8335   -2.2292    0.0000 N   0  0  0  0  0  0  0  0  0  0  0  0
   23.9875    0.2273    0.0000 N   0  0  0  0  0  0  0  0  0  0  0  0
   17.3746    0.7453    0.0000 C   0  0  0  0  0  0  0  0  0  0  0  0
   18.8686    0.8785    0.0000 O   0  0  0  0  0  0  0  0  0  0  0  0
   17.2818    2.2425    0.0000 N   0  0  0  0  0  0  0  0  0  0  0  0
   16.9073    3.6950    0.0000 C   0  0  0  0  0  0  0  0  0  0  0  0
   17.8363    4.8726    0.0000 C   0  0  0  0  0  0  0  0  0  0  0  0
   19.3207    4.6568    0.0000 C   0  0  0  0  0  0  0  0  0  0  0  0
   20.2498    5.8345    0.0000 C   0  0  0  0  0  0  0  0  0  0  0  0
   21.7342    5.6187    0.0000 N   0  0  0  0  0  0  0  0  0  0  0  0
   22.6633    6.7963    0.0000 C   0  0  0  0  0  0  0  0  0  0  0  0
   24.1477    6.5806    0.0000 N   0  0  0  0  0  0  0  0  0  0  0  0
   22.1079    8.1898    0.0000 N   0  0  0  0  0  0  0  0  0  0  0  0
   16.2647    5.0504    0.0000 C   0  0  0  0  0  0  0  0  0  0  0  0
   17.4496    5.9702    0.0000 O   0  0  0  0  0  0  0  0  0  0  0  0
   15.3772    6.2596    0.0000 N   0  0  0  0  0  0  0  0  0  0  0  0
   14.2769    7.2791    0.0000 C   0  0  0  0  0  0  0  0  0  0  0  0
   14.4218    8.7721    0.0000 C   0  0  0  0  0  0  0  0  0  0  0  0
   13.0035    8.0719    0.0000 C   0  0  0  0  0  0  0  0  0  0  0  0
   13.5030    9.4863    0.0000 O   0  0  0  0  0  0  0  0  0  0  0  0
   11.6031    8.6094    0.0000 N   0  0  0  0  0  0  0  0  0  0  0  0
   10.1263    8.8722    0.0000 C   0  0  0  0  0  0  0  0  0  0  0  0
    8.6265    8.8507    0.0000 C   0  0  0  0  0  0  0  0  0  0  0  0
    7.1578    8.5458    0.0000 C   0  0  0  0  0  0  0  0  0  0  0  0
    5.7734    7.9684    0.0000 C   0  0  0  0  0  0  0  0  0  0  0  0
    4.5232    7.1394    0.0000 C   0  0  0  0  0  0  0  0  0  0  0  0
   11.0176   10.0787    0.0000 C   0  0  0  0  0  0  0  0  0  0  0  0
    9.4411   10.2065    0.0000 C   0  0  0  0  0  0  0  0  0  0  0  0
    8.0052   10.6405    0.0000 O   0  0  0  0  0  0  0  0  0  0  0  0
   10.2540   11.4671    0.0000 N   0  0  0  0  0  0  0  0  0  0  0  0
    9.5687   12.8014    0.0000 C   0  0  0  0  0  0  0  0  0  0  0  0
    8.4684   13.8209    0.0000 C   0  0  0  0  0  0  0  0  0  0  0  0
   10.3816   14.0621    0.0000 C   0  0  0  0  0  0  0  0  0  0  0  0
   11.8798   13.9884    0.0000 O   0  0  0  0  0  0  0  0  0  0  0  0
    9.6963   15.3964    0.0000 N   0  0  0  0  0  0  0  0  0  0  0  0
   10.5093   16.6570    0.0000 C   0  0  0  0  0  0  0  0  0  0  0  0
   11.7043   17.5636    0.0000 C   0  0  0  0  0  0  0  0  0  0  0  0
    9.8240   17.9913    0.0000 C   0  0  0  0  0  0  0  0  0  0  0  0
   10.4772   19.3416    0.0000 O   0  0  0  0  0  0  0  0  0  0  0  0
    8.3258   18.0650    0.0000 O   0  0  0  0  0  0  0  0  0  0  0  0
  -29.6168    8.3352    0.0000 H   0  0  0  0  0  0  0  0  0  0  0  0
  -30.7371    5.9910    0.0000 H   0  0  0  0  0  0  0  0  0  0  0  0
  -27.7449    7.6381    0.0000 H   0  0  0  0  0  0  0  0  0  0  0  0
  -26.6539    6.0480    0.0000 H   0  0  0  0  0  0  0  0  0  0  0  0
  -29.5233    4.8424    0.0000 H   0  0  0  0  0  0  0  0  0  0  0  0
  -28.4323    3.2523    0.0000 H   0  0  0  0  0  0  0  0  0  0  0  0
  -27.7972    1.7065    0.0000 H   0  0  0  0  0  0  0  0  0  0  0  0
  -26.0789    0.6879    0.0000 H   0  0  0  0  0  0  0  0  0  0  0  0
  -24.9216    4.8490    0.0000 H   0  0  0  0  0  0  0  0  0  0  0  0
  -26.2186    3.8554    0.0000 H   0  0  0  0  0  0  0  0  0  0  0  0
  -21.8595    3.5831    0.0000 H   0  0  0  0  0  0  0  0  0  0  0  0
  -23.2360    2.2326    0.0000 H   0  0  0  0  0  0  0  0  0  0  0  0
  -23.0671    6.6686    0.0000 H   0  0  0  0  0  0  0  0  0  0  0  0
  -24.4148    5.4990    0.0000 H   0  0  0  0  0  0  0  0  0  0  0  0
  -20.4475    4.4770    0.0000 H   0  0  0  0  0  0  0  0  0  0  0  0
  -19.2417    8.8124    0.0000 H   0  0  0  0  0  0  0  0  0  0  0  0
  -18.5931    6.2966    0.0000 H   0  0  0  0  0  0  0  0  0  0  0  0
  -21.7447    9.5086    0.0000 H   0  0  0  0  0  0  0  0  0  0  0  0
  -23.5992    7.6890    0.0000 H   0  0  0  0  0  0  0  0  0  0  0  0
  -26.0457   -0.8020    0.0000 H   0  0  0  0  0  0  0  0  0  0  0  0
  -22.6358   -0.4576    0.0000 H   0  0  0  0  0  0  0  0  0  0  0  0
  -25.4613   -3.8445    0.0000 H   0  0  0  0  0  0  0  0  0  0  0  0
  -23.6941   -3.5974    0.0000 H   0  0  0  0  0  0  0  0  0  0  0  0
  -27.1486   -0.8093    0.0000 H   0  0  0  0  0  0  0  0  0  0  0  0
  -25.7215   -0.4280    0.0000 H   0  0  0  0  0  0  0  0  0  0  0  0
  -28.2068   -3.9491    0.0000 H   0  0  0  0  0  0  0  0  0  0  0  0
  -26.4227   -3.9194    0.0000 H   0  0  0  0  0  0  0  0  0  0  0  0
  -28.8048   -0.5864    0.0000 H   0  0  0  0  0  0  0  0  0  0  0  0
  -32.5153   -3.1324    0.0000 H   0  0  0  0  0  0  0  0  0  0  0  0
  -31.3950   -0.7883    0.0000 H   0  0  0  0  0  0  0  0  0  0  0  0
  -31.0454   -5.2747    0.0000 H   0  0  0  0  0  0  0  0  0  0  0  0
  -28.4551   -5.0728    0.0000 H   0  0  0  0  0  0  0  0  0  0  0  0
  -21.0341    0.0193    0.0000 H   0  0  0  0  0  0  0  0  0  0  0  0
  -20.4362   -3.3435    0.0000 H   0  0  0  0  0  0  0  0  0  0  0  0
  -18.5136   -3.1936    0.0000 H   0  0  0  0  0  0  0  0  0  0  0  0
  -16.8574   -3.4166    0.0000 H   0  0  0  0  0  0  0  0  0  0  0  0
  -15.1161   -2.4378    0.0000 H   0  0  0  0  0  0  0  0  0  0  0  0
  -17.4087    1.3637    0.0000 H   0  0  0  0  0  0  0  0  0  0  0  0
  -15.5509    0.8469    0.0000 H   0  0  0  0  0  0  0  0  0  0  0  0
  -19.2908    0.6945    0.0000 H   0  0  0  0  0  0  0  0  0  0  0  0
  -13.8092   -3.1540    0.0000 H   0  0  0  0  0  0  0  0  0  0  0  0
  -12.5644   -0.1146    0.0000 H   0  0  0  0  0  0  0  0  0  0  0  0
  -11.0440   -4.2550    0.0000 H   0  0  0  0  0  0  0  0  0  0  0  0
  -10.1651   -2.8777    0.0000 H   0  0  0  0  0  0  0  0  0  0  0  0
  -14.3544   -4.1128    0.0000 H   0  0  0  0  0  0  0  0  0  0  0  0
  -13.9710   -2.6862    0.0000 H   0  0  0  0  0  0  0  0  0  0  0  0
  -12.1643   -6.5992    0.0000 H   0  0  0  0  0  0  0  0  0  0  0  0
  -11.2980   -5.0391    0.0000 H   0  0  0  0  0  0  0  0  0  0  0  0
  -15.3755   -5.4356    0.0000 H   0  0  0  0  0  0  0  0  0  0  0  0
  -15.0258   -9.9220    0.0000 H   0  0  0  0  0  0  0  0  0  0  0  0
  -16.4958   -7.7798    0.0000 H   0  0  0  0  0  0  0  0  0  0  0  0
  -12.4356   -9.7201    0.0000 H   0  0  0  0  0  0  0  0  0  0  0  0
  -11.3154   -7.3760    0.0000 H   0  0  0  0  0  0  0  0  0  0  0  0
  -13.3533    2.2365    0.0000 H   0  0  0  0  0  0  0  0  0  0  0  0
  -12.7466    0.4703    0.0000 H   0  0  0  0  0  0  0  0  0  0  0  0
  -11.5480    4.6925    0.0000 H   0  0  0  0  0  0  0  0  0  0  0  0
  -13.0754    3.3899    0.0000 H   0  0  0  0  0  0  0  0  0  0  0  0
   -8.6544    3.7345    0.0000 H   0  0  0  0  0  0  0  0  0  0  0  0
  -10.3652    4.7847    0.0000 H   0  0  0  0  0  0  0  0  0  0  0  0
   -8.2012    2.6381    0.0000 H   0  0  0  0  0  0  0  0  0  0  0  0
  -10.7882   -0.9649    0.0000 H   0  0  0  0  0  0  0  0  0  0  0  0
   -7.3987   -0.8532    0.0000 H   0  0  0  0  0  0  0  0  0  0  0  0
  -10.7694   -3.6980    0.0000 H   0  0  0  0  0  0  0  0  0  0  0  0
   -8.9861   -3.7616    0.0000 H   0  0  0  0  0  0  0  0  0  0  0  0
  -12.4207   -2.2738    0.0000 H   0  0  0  0  0  0  0  0  0  0  0  0
   -5.7386   -0.6617    0.0000 H   0  0  0  0  0  0  0  0  0  0  0  0
   -5.7336   -4.0772    0.0000 H   0  0  0  0  0  0  0  0  0  0  0  0
   -3.8143   -4.2635    0.0000 H   0  0  0  0  0  0  0  0  0  0  0  0
   -2.2219   -4.7706    0.0000 H   0  0  0  0  0  0  0  0  0  0  0  0
   -0.3372   -4.1092    0.0000 H   0  0  0  0  0  0  0  0  0  0  0  0
   -3.0588   -1.3532    0.0000 H   0  0  0  0  0  0  0  0  0  0  0  0
   -1.9348    0.0327    0.0000 H   0  0  0  0  0  0  0  0  0  0  0  0
   -0.1949   -0.7988    0.0000 H   0  0  0  0  0  0  0  0  0  0  0  0
    0.8256   -5.0414    0.0000 H   0  0  0  0  0  0  0  0  0  0  0  0
    1.2657   -3.3986    0.0000 H   0  0  0  0  0  0  0  0  0  0  0  0
    0.9006   -2.0232    0.0000 H   0  0  0  0  0  0  0  0  0  0  0  0
    0.4922   -1.6022    0.0000 H   0  0  0  0  0  0  0  0  0  0  0  0
    0.4169   -0.5143    0.0000 H   0  0  0  0  0  0  0  0  0  0  0  0
    0.3907   -0.3485    0.0000 H   0  0  0  0  0  0  0  0  0  0  0  0
    0.2161    1.0638    0.0000 H   0  0  0  0  0  0  0  0  0  0  0  0
    0.2329    1.5689    0.0000 H   0  0  0  0  0  0  0  0  0  0  0  0
    0.3942    2.8177    0.0000 H   0  0  0  0  0  0  0  0  0  0  0  0
    0.5063    3.3105    0.0000 H   0  0  0  0  0  0  0  0  0  0  0  0
    0.9011    4.5061    0.0000 H   0  0  0  0  0  0  0  0  0  0  0  0
    1.1044    4.9688    0.0000 H   0  0  0  0  0  0  0  0  0  0  0  0
    1.8728    6.1666    0.0000 H   0  0  0  0  0  0  0  0  0  0  0  0
    2.3050    7.0548    0.0000 H   0  0  0  0  0  0  0  0  0  0  0  0
    1.1201   -5.4427    0.0000 H   0  0  0  0  0  0  0  0  0  0  0  0
    2.3360   -6.5340    0.0000 H   0  0  0  0  0  0  0  0  0  0  0  0
    3.9175   -5.7075    0.0000 H   0  0  0  0  0  0  0  0  0  0  0  0
    4.3765   -6.8573    0.0000 H   0  0  0  0  0  0  0  0  0  0  0  0
    5.3649   -7.1124    0.0000 H   0  0  0  0  0  0  0  0  0  0  0  0
    7.7117   -9.1197    0.0000 H   0  0  0  0  0  0  0  0  0  0  0  0
    8.4326   -7.6535    0.0000 H   0  0  0  0  0  0  0  0  0  0  0  0
    4.4060   -9.3453    0.0000 H   0  0  0  0  0  0  0  0  0  0  0  0
    4.7507   -7.7482    0.0000 H   0  0  0  0  0  0  0  0  0  0  0  0
    6.8582  -11.5736    0.0000 H   0  0  0  0  0  0  0  0  0  0  0  0
    7.5462   -9.9272    0.0000 H   0  0  0  0  0  0  0  0  0  0  0  0
    3.5377  -10.7732    0.0000 H   0  0  0  0  0  0  0  0  0  0  0  0
    4.3825  -15.1932    0.0000 H   0  0  0  0  0  0  0  0  0  0  0  0
    2.6842  -13.2270    0.0000 H   0  0  0  0  0  0  0  0  0  0  0  0
    6.9344  -14.7054    0.0000 H   0  0  0  0  0  0  0  0  0  0  0  0
    7.7880  -12.2516    0.0000 H   0  0  0  0  0  0  0  0  0  0  0  0
    9.4403   -8.3727    0.0000 H   0  0  0  0  0  0  0  0  0  0  0  0
   10.4097   -8.0529    0.0000 H   0  0  0  0  0  0  0  0  0  0  0  0
   13.4692   -8.4728    0.0000 H   0  0  0  0  0  0  0  0  0  0  0  0
   13.2830   -6.8496    0.0000 H   0  0  0  0  0  0  0  0  0  0  0  0
   10.8102  -10.4498    0.0000 H   0  0  0  0  0  0  0  0  0  0  0  0
   10.2367   -8.9199    0.0000 H   0  0  0  0  0  0  0  0  0  0  0  0
   14.0778  -10.9986    0.0000 H   0  0  0  0  0  0  0  0  0  0  0  0
   13.7665   -9.2415    0.0000 H   0  0  0  0  0  0  0  0  0  0  0  0
   10.8518  -12.1204    0.0000 H   0  0  0  0  0  0  0  0  0  0  0  0
   13.9521  -15.3820    0.0000 H   0  0  0  0  0  0  0  0  0  0  0  0
   11.4604  -14.6462    0.0000 H   0  0  0  0  0  0  0  0  0  0  0  0
   15.8352  -13.5920    0.0000 H   0  0  0  0  0  0  0  0  0  0  0  0
   15.2266  -11.0663    0.0000 H   0  0  0  0  0  0  0  0  0  0  0  0
   14.5195   -6.9098    0.0000 H   0  0  0  0  0  0  0  0  0  0  0  0
   15.1622   -6.1166    0.0000 H   0  0  0  0  0  0  0  0  0  0  0  0
   17.9630   -4.8158    0.0000 H   0  0  0  0  0  0  0  0  0  0  0  0
   16.9288   -3.5510    0.0000 H   0  0  0  0  0  0  0  0  0  0  0  0
   16.7949   -7.9165    0.0000 H   0  0  0  0  0  0  0  0  0  0  0  0
   15.4853   -6.9395    0.0000 H   0  0  0  0  0  0  0  0  0  0  0  0
   19.8406   -6.6116    0.0000 H   0  0  0  0  0  0  0  0  0  0  0  0
   18.6287   -5.3018    0.0000 H   0  0  0  0  0  0  0  0  0  0  0  0
   17.7331   -9.2995    0.0000 H   0  0  0  0  0  0  0  0  0  0  0  0
   22.1046  -10.3672    0.0000 H   0  0  0  0  0  0  0  0  0  0  0  0
   19.6107  -11.0953    0.0000 H   0  0  0  0  0  0  0  0  0  0  0  0
   22.7210   -7.8433    0.0000 H   0  0  0  0  0  0  0  0  0  0  0  0
   20.8435   -6.0475    0.0000 H   0  0  0  0  0  0  0  0  0  0  0  0
   18.0015   -2.9331    0.0000 H   0  0  0  0  0  0  0  0  0  0  0  0
   18.1134   -1.9184    0.0000 H   0  0  0  0  0  0  0  0  0  0  0  0
   19.7663    0.6901    0.0000 H   0  0  0  0  0  0  0  0  0  0  0  0
   18.2124    1.1950    0.0000 H   0  0  0  0  0  0  0  0  0  0  0  0
   20.4600   -2.5498    0.0000 H   0  0  0  0  0  0  0  0  0  0  0  0
   18.8301   -2.4360    0.0000 H   0  0  0  0  0  0  0  0  0  0  0  0
   22.3167    0.1945    0.0000 H   0  0  0  0  0  0  0  0  0  0  0  0
   20.5891    0.6412    0.0000 H   0  0  0  0  0  0  0  0  0  0  0  0
   21.9969   -3.2060    0.0000 H   0  0  0  0  0  0  0  0  0  0  0  0
   26.2517   -1.7408    0.0000 H   0  0  0  0  0  0  0  0  0  0  0  0
   24.5473   -3.7017    0.0000 H   0  0  0  0  0  0  0  0  0  0  0  0
   25.4058    0.7157    0.0000 H   0  0  0  0  0  0  0  0  0  0  0  0
   22.8554    1.2113    0.0000 H   0  0  0  0  0  0  0  0  0  0  0  0
   18.7808    2.2948    0.0000 H   0  0  0  0  0  0  0  0  0  0  0  0
   18.3263    3.2089    0.0000 H   0  0  0  0  0  0  0  0  0  0  0  0
   18.3066    6.2970    0.0000 H   0  0  0  0  0  0  0  0  0  0  0  0
   16.7264    5.8816    0.0000 H   0  0  0  0  0  0  0  0  0  0  0  0
   20.6418    3.9464    0.0000 H   0  0  0  0  0  0  0  0  0  0  0  0
   19.2091    3.1610    0.0000 H   0  0  0  0  0  0  0  0  0  0  0  0
   20.7201    7.2589    0.0000 H   0  0  0  0  0  0  0  0  0  0  0  0
   19.0252    6.7007    0.0000 H   0  0  0  0  0  0  0  0  0  0  0  0
   22.2895    4.2253    0.0000 H   0  0  0  0  0  0  0  0  0  0  0  0
   25.0767    7.7582    0.0000 H   0  0  0  0  0  0  0  0  0  0  0  0
   24.7030    5.1872    0.0000 H   0  0  0  0  0  0  0  0  0  0  0  0
   23.0370    9.3674    0.0000 H   0  0  0  0  0  0  0  0  0  0  0  0
   20.6235    8.4055    0.0000 H   0  0  0  0  0  0  0  0  0  0  0  0
   16.4966    7.2581    0.0000 H   0  0  0  0  0  0  0  0  0  0  0  0
   15.6789    7.8123    0.0000 H   0  0  0  0  0  0  0  0  0  0  0  0
   15.7872    9.3931    0.0000 H   0  0  0  0  0  0  0  0  0  0  0  0
   14.2272   10.2594    0.0000 H   0  0  0  0  0  0  0  0  0  0  0  0
   12.9426    9.0209    0.0000 H   0  0  0  0  0  0  0  0  0  0  0  0
   12.1782    9.9948    0.0000 H   0  0  0  0  0  0  0  0  0  0  0  0
    7.7011   10.0312    0.0000 H   0  0  0  0  0  0  0  0  0  0  0  0
    8.9266   10.3204    0.0000 H   0  0  0  0  0  0  0  0  0  0  0  0
    6.1541    9.6605    0.0000 H   0  0  0  0  0  0  0  0  0  0  0  0
    7.1743   10.0457    0.0000 H   0  0  0  0  0  0  0  0  0  0  0  0
    4.4755    8.7204    0.0000 H   0  0  0  0  0  0  0  0  0  0  0  0
    5.6877    9.4659    0.0000 H   0  0  0  0  0  0  0  0  0  0  0  0
    3.5792    8.3051    0.0000 H   0  0  0  0  0  0  0  0  0  0  0  0
   10.7688   11.5579    0.0000 H   0  0  0  0  0  0  0  0  0  0  0  0
   12.2677   10.9076    0.0000 H   0  0  0  0  0  0  0  0  0  0  0  0
   12.2834    9.2739    0.0000 H   0  0  0  0  0  0  0  0  0  0  0  0
   11.7500   11.5766    0.0000 H   0  0  0  0  0  0  0  0  0  0  0  0
    8.3737   11.8949    0.0000 H   0  0  0  0  0  0  0  0  0  0  0  0
    8.2547   15.3056    0.0000 H   0  0  0  0  0  0  0  0  0  0  0  0
    7.0858   14.4026    0.0000 H   0  0  0  0  0  0  0  0  0  0  0  0
    7.6555   12.5603    0.0000 H   0  0  0  0  0  0  0  0  0  0  0  0
    8.2183   15.6521    0.0000 H   0  0  0  0  0  0  0  0  0  0  0  0
   11.6096   15.6375    0.0000 H   0  0  0  0  0  0  0  0  0  0  0  0
   13.0869   16.9819    0.0000 H   0  0  0  0  0  0  0  0  0  0  0  0
   12.5172   18.8242    0.0000 H   0  0  0  0  0  0  0  0  0  0  0  0
   10.7365   18.7095    0.0000 H   0  0  0  0  0  0  0  0  0  0  0  0
  1  2  1  0
  2  3  1  0
  3  4  1  0
  4  5  2  0
  4  6  1  0
  6  7  1  0
  7  8  1  0
  8  9  1  0
  9 10  1  0
 10 11  1  0
 11 12  1  0
 12 13  2  3
 12 14  1  0
  7 15  1  0
 15 16  2  0
 15 17  1  0
 17 18  1  0
 18 19  1  0
 19 20  1  0
 20 21  1  0
 21 22  1  0
 22 23  1  0
 23 24  2  3
 23 25  1  0
 18 26  1  0
 26 27  2  0
 26 28  1  0
 28 29  1  0
 29 30  1  0
 30 31  2  0
 30 32  1  0
 32 33  1  0
 33 34  1  0
 34 35  1  0
 33 36  1  0
 36 37  2  0
 36 38  1  0
 38 39  1  0
 39 40  1  0
 40 41  1  0
 41 42  1  0
 42 43  1  0
 43 44  1  0
 44 45  2  3
 44 46  1  0
 39 47  1  0
 47 48  2  0
 47 49  1  0
 49 50  1  0
 50 51  1  0
 51 52  1  0
 52 53  1  0
 53 54  1  0
 54 55  2  0
 54 56  1  0
 56 57  1  0
 57 58  1  0
 58 59  1  0
 57 60  1  0
 60 61  2  0
 60 62  1  0
 62 63  1  0
 63 64  1  0
 64 65  2  0
 64 66  1  0
 66 67  1  0
 67 68  1  0
 67 69  1  0
 69 70  2  0
 69 71  1  0
 72 71  1  6
 72 73  1  0
 73 74  1  0
 74 75  1  0
 75 76  1  0
 76 77  1  0
 77 78  1  0
 78 79  1  0
 72 80  1  0
 72 81  1  0
 81 82  2  0
 81 83  1  0
 83 84  1  0
 84 85  1  0
 85 86  1  0
 86 87  1  0
 87 88  1  0
 88 89  1  0
 89 90  2  3
 89 91  1  0
 84 92  1  0
 92 93  2  0
 92 94  1  0
 94 95  1  0
 95 96  1  0
 96 97  1  0
 97 98  1  0
 98 99  1  0
 99100  1  0
100101  2  3
100102  1  0
 95103  1  0
103104  2  0
103105  1  0
105106  1  0
106107  1  0
107108  1  0
108109  1  0
109110  1  0
110111  1  0
111112  2  3
111113  1  0
106114  1  0
114115  2  0
114116  1  0
116117  1  0
117118  1  0
118119  1  0
119120  1  0
120121  1  0
121122  1  0
122123  2  3
122124  1  0
117125  1  0
125126  2  0
125127  1  0
127128  1  0
128129  1  0
129130  1  0
130131  1  0
131132  1  0
132133  1  0
133134  2  3
133135  1  0
128136  1  0
136137  2  0
136138  1  0
138139  1  0
139140  1  0
139141  1  0
141142  2  0
141143  1  0
143144  1  0
144145  1  0
145146  1  0
146147  1  0
147148  1  0
144149  1  0
144150  1  1
150151  2  0
150152  1  0
152153  1  0
153154  1  0
153155  1  0
155156  2  0
155157  1  0
157158  1  0
158159  1  0
158160  1  0
160161  2  0
160162  1  0
 53 49  1  0
 79148  2  0
  1163  1  0
  1164  1  0
  2165  1  0
  2166  1  0
  3167  1  0
  3168  1  0
  6169  1  0
  7170  1  1
  8171  1  0
  8172  1  0
  9173  1  0
  9174  1  0
 10175  1  0
 10176  1  0
 11177  1  0
 13178  1  0
 13179  1  0
 14180  1  0
 14181  1  0
 17182  1  0
 18183  1  6
 19184  1  0
 19185  1  0
 20186  1  0
 20187  1  0
 21188  1  0
 21189  1  0
 22190  1  0
 24191  1  0
 24192  1  0
 25193  1  0
 25194  1  0
 28195  1  0
 29196  1  0
 29197  1  0
 32198  1  0
 33199  1  1
 34200  1  0
 34201  1  0
 35202  1  0
 38203  1  0
 39204  1  6
 40205  1  0
 40206  1  0
 41207  1  0
 41208  1  0
 42209  1  0
 42210  1  0
 43211  1  0
 45212  1  0
 45213  1  0
 46214  1  0
 46215  1  0
 50216  1  0
 50217  1  0
 51218  1  0
 51219  1  0
 52220  1  0
 52221  1  0
 53222  1  0
 56223  1  0
 57224  1  6
 58225  1  0
 58226  1  0
 59227  1  0
 62228  1  0
 63229  1  0
 63230  1  0
 66231  1  0
 67232  1  1
 68233  1  0
 68234  1  0
 68235  1  0
 71236  1  0
 73237  1  0
 73238  1  0
 74239  1  0
 74240  1  0
 75241  1  0
 75242  1  0
 76243  1  0
 76244  1  0
 77245  1  0
 77246  1  0
 78247  1  0
 78248  1  0
 79249  1  0
 80250  1  0
 80251  1  0
 80252  1  0
 83253  1  0
 84254  1  6
 85255  1  0
 85256  1  0
 86257  1  0
 86258  1  0
 87259  1  0
 87260  1  0
 88261  1  0
 90262  1  0
 90263  1  0
 91264  1  0
 91265  1  0
 94266  1  0
 95267  1  6
 96268  1  0
 96269  1  0
 97270  1  0
 97271  1  0
 98272  1  0
 98273  1  0
 99274  1  0
101275  1  0
101276  1  0
102277  1  0
102278  1  0
105279  1  0
106280  1  6
107281  1  0
107282  1  0
108283  1  0
108284  1  0
109285  1  0
109286  1  0
110287  1  0
112288  1  0
112289  1  0
113290  1  0
113291  1  0
116292  1  0
117293  1  6
118294  1  0
118295  1  0
119296  1  0
119297  1  0
120298  1  0
120299  1  0
121300  1  0
123301  1  0
123302  1  0
124303  1  0
124304  1  0
127305  1  0
128306  1  6
129307  1  0
129308  1  0
130309  1  0
130310  1  0
131311  1  0
131312  1  0
132313  1  0
134314  1  0
134315  1  0
135316  1  0
135317  1  0
138318  1  0
139319  1  6
140320  1  0
140321  1  0
140322  1  0
143323  1  0
145324  1  0
145325  1  0
146326  1  0
146327  1  0
147328  1  0
147329  1  0
148330  1  0
149331  1  0
149332  1  0
149333  1  0
152334  1  0
153335  1  1
154336  1  0
154337  1  0
154338  1  0
157339  1  0
158340  1  6
159341  1  0
159342  1  0
159343  1  0
M  CHG  8  13   1  24   1  45   1  90   1 101   1 112   1 123   1 134   1
M  CHG  1 162  -1
M  END
