
     RDKit          2D

421422  0  0  0  0  0  0  0  0999 V2000
   15.3743    7.7918    0.0000 N   0  0  0  0  0  0  0  0  0  0  0  0
   16.8606    7.5894    0.0000 C   0  0  0  0  0  0  0  0  0  0  0  0
   17.7790    8.7754    0.0000 C   0  0  0  0  0  0  0  0  0  0  0  0
   19.2653    8.5730    0.0000 C   0  0  0  0  0  0  0  0  0  0  0  0
   19.8332    7.1847    0.0000 O   0  0  0  0  0  0  0  0  0  0  0  0
   20.1837    9.7590    0.0000 N   0  0  0  0  0  0  0  0  0  0  0  0
   21.6700    9.5567    0.0000 C   0  0  0  0  0  0  0  0  0  0  0  0
   21.6112   11.0555    0.0000 C   0  0  0  0  0  0  0  0  0  0  0  0
   20.3788   11.9106    0.0000 O   0  0  0  0  0  0  0  0  0  0  0  0
   22.9974    8.8582    0.0000 C   0  0  0  0  0  0  0  0  0  0  0  0
   24.0429    9.7123    0.0000 O   0  0  0  0  0  0  0  0  0  0  0  0
   23.0562    7.3593    0.0000 N   0  0  0  0  0  0  0  0  0  0  0  0
   24.3837    6.6608    0.0000 C   0  0  0  0  0  0  0  0  0  0  0  0
   24.8410    8.0894    0.0000 C   0  0  0  0  0  0  0  0  0  0  0  0
   26.3069    8.4076    0.0000 C   0  0  0  0  0  0  0  0  0  0  0  0
   26.7643    9.8362    0.0000 C   0  0  0  0  0  0  0  0  0  0  0  0
   28.2301   10.1543    0.0000 O   0  0  0  0  0  0  0  0  0  0  0  0
   25.7558   10.9465    0.0000 O   0  0  0  0  0  0  0  0  0  0  0  0
   25.3922    5.5504    0.0000 C   0  0  0  0  0  0  0  0  0  0  0  0
   26.6667    5.9955    0.0000 O   0  0  0  0  0  0  0  0  0  0  0  0
   24.9348    4.1219    0.0000 N   0  0  0  0  0  0  0  0  0  0  0  0
   25.9433    3.0115    0.0000 C   0  0  0  0  0  0  0  0  0  0  0  0
   26.8617    4.1975    0.0000 C   0  0  0  0  0  0  0  0  0  0  0  0
   28.3480    3.9951    0.0000 C   0  0  0  0  0  0  0  0  0  0  0  0
   29.2663    5.1811    0.0000 C   0  0  0  0  0  0  0  0  0  0  0  0
   30.7526    4.9788    0.0000 O   0  0  0  0  0  0  0  0  0  0  0  0
   28.6984    6.5694    0.0000 O   0  0  0  0  0  0  0  0  0  0  0  0
   26.5112    1.6232    0.0000 C   0  0  0  0  0  0  0  0  0  0  0  0
   27.7261    1.6072    0.0000 O   0  0  0  0  0  0  0  0  0  0  0  0
   25.5928    0.4372    0.0000 N   0  0  0  0  0  0  0  0  0  0  0  0
   26.1607   -0.9512    0.0000 C   0  0  0  0  0  0  0  0  0  0  0  0
   27.4293   -0.1508    0.0000 C   0  0  0  0  0  0  0  0  0  0  0  0
   28.7568   -0.8493    0.0000 C   0  0  0  0  0  0  0  0  0  0  0  0
   30.0254   -0.0490    0.0000 C   0  0  0  0  0  0  0  0  0  0  0  0
   29.7653   -1.9597    0.0000 C   0  0  0  0  0  0  0  0  0  0  0  0
   26.2195   -2.4500    0.0000 C   0  0  0  0  0  0  0  0  0  0  0  0
   27.4819   -2.9283    0.0000 O   0  0  0  0  0  0  0  0  0  0  0  0
   24.9509   -3.2504    0.0000 N   0  0  0  0  0  0  0  0  0  0  0  0
   25.0097   -4.7492    0.0000 C   0  0  0  0  0  0  0  0  0  0  0  0
   26.4755   -4.4310    0.0000 C   0  0  0  0  0  0  0  0  0  0  0  0
   27.4840   -5.5414    0.0000 C   0  0  0  0  0  0  0  0  0  0  0  0
   24.5523   -6.1778    0.0000 C   0  0  0  0  0  0  0  0  0  0  0  0
   25.6886   -7.1570    0.0000 O   0  0  0  0  0  0  0  0  0  0  0  0
   23.0864   -6.4960    0.0000 N   0  0  0  0  0  0  0  0  0  0  0  0
   22.6291   -7.9245    0.0000 C   0  0  0  0  0  0  0  0  0  0  0  0
   24.1153   -8.1269    0.0000 C   0  0  0  0  0  0  0  0  0  0  0  0
   21.7107   -9.1105    0.0000 C   0  0  0  0  0  0  0  0  0  0  0  0
   22.4436  -10.4193    0.0000 O   0  0  0  0  0  0  0  0  0  0  0  0
   20.2244   -8.9082    0.0000 N   0  0  0  0  0  0  0  0  0  0  0  0
   19.3060  -10.0942    0.0000 C   0  0  0  0  0  0  0  0  0  0  0  0
   20.6334  -10.7927    0.0000 C   0  0  0  0  0  0  0  0  0  0  0  0
   20.6922  -12.2915    0.0000 C   0  0  0  0  0  0  0  0  0  0  0  0
   22.0197  -12.9900    0.0000 C   0  0  0  0  0  0  0  0  0  0  0  0
   22.0785  -14.4888    0.0000 O   0  0  0  0  0  0  0  0  0  0  0  0
   23.2883  -12.1896    0.0000 O   0  0  0  0  0  0  0  0  0  0  0  0
   18.0374  -10.8945    0.0000 C   0  0  0  0  0  0  0  0  0  0  0  0
   18.2784  -12.3750    0.0000 O   0  0  0  0  0  0  0  0  0  0  0  0
   16.7099  -10.1960    0.0000 N   0  0  0  0  0  0  0  0  0  0  0  0
   15.4413  -10.9964    0.0000 C   0  0  0  0  0  0  0  0  0  0  0  0
   16.4498  -12.1068    0.0000 C   0  0  0  0  0  0  0  0  0  0  0  0
   13.9754  -11.3146    0.0000 C   0  0  0  0  0  0  0  0  0  0  0  0
   13.6956  -12.7882    0.0000 O   0  0  0  0  0  0  0  0  0  0  0  0
   12.9669  -10.2042    0.0000 N   0  0  0  0  0  0  0  0  0  0  0  0
   11.5011  -10.5224    0.0000 C   0  0  0  0  0  0  0  0  0  0  0  0
   12.0690  -11.9107    0.0000 C   0  0  0  0  0  0  0  0  0  0  0  0
   11.1506  -13.0967    0.0000 C   0  0  0  0  0  0  0  0  0  0  0  0
    9.6513  -13.0508    0.0000 C   0  0  0  0  0  0  0  0  0  0  0  0
    9.1443  -14.4625    0.0000 N   0  0  0  0  0  0  0  0  0  0  0  0
   10.3303  -15.3809    0.0000 C   0  0  0  0  0  0  0  0  0  0  0  0
   11.5702  -14.5368    0.0000 N   0  0  0  0  0  0  0  0  0  0  0  0
   10.0148  -10.3200    0.0000 C   0  0  0  0  0  0  0  0  0  0  0  0
    9.0964  -11.5060    0.0000 O   0  0  0  0  0  0  0  0  0  0  0  0
    9.4469   -8.9317    0.0000 N   0  0  0  0  0  0  0  0  0  0  0  0
    7.9606   -8.7293    0.0000 C   0  0  0  0  0  0  0  0  0  0  0  0
    8.0194  -10.2282    0.0000 C   0  0  0  0  0  0  0  0  0  0  0  0
    6.7508  -11.0285    0.0000 C   0  0  0  0  0  0  0  0  0  0  0  0
    6.8096  -12.5274    0.0000 N   0  0  0  0  0  0  0  0  0  0  0  0
    5.4233  -10.3300    0.0000 O   0  0  0  0  0  0  0  0  0  0  0  0
    6.6331   -8.0308    0.0000 C   0  0  0  0  0  0  0  0  0  0  0  0
    5.4715   -8.9799    0.0000 O   0  0  0  0  0  0  0  0  0  0  0  0
    6.5743   -6.5320    0.0000 N   0  0  0  0  0  0  0  0  0  0  0  0
    5.2469   -5.8335    0.0000 C   0  0  0  0  0  0  0  0  0  0  0  0
    4.7895   -7.2621    0.0000 C   0  0  0  0  0  0  0  0  0  0  0  0
    3.3237   -7.5802    0.0000 C   0  0  0  0  0  0  0  0  0  0  0  0
    2.8663   -9.0088    0.0000 C   0  0  0  0  0  0  0  0  0  0  0  0
    1.8374   -7.3779    0.0000 C   0  0  0  0  0  0  0  0  0  0  0  0
    4.2384   -4.7231    0.0000 C   0  0  0  0  0  0  0  0  0  0  0  0
    2.8223   -5.2176    0.0000 O   0  0  0  0  0  0  0  0  0  0  0  0
    4.6958   -3.2945    0.0000 N   0  0  0  0  0  0  0  0  0  0  0  0
    3.6873   -2.1842    0.0000 C   0  0  0  0  0  0  0  0  0  0  0  0
    2.7689   -3.3701    0.0000 C   0  0  0  0  0  0  0  0  0  0  0  0
    1.2826   -3.1678    0.0000 S   0  0  0  0  0  0  0  0  0  0  0  0
    3.1194   -0.7958    0.0000 C   0  0  0  0  0  0  0  0  0  0  0  0
    1.6331   -0.5935    0.0000 O   0  0  0  0  0  0  0  0  0  0  0  0
    4.0378    0.3902    0.0000 N   0  0  0  0  0  0  0  0  0  0  0  0
    3.4699    1.7785    0.0000 C   0  0  0  0  0  0  0  0  0  0  0  0
    4.9357    2.0967    0.0000 C   0  0  0  0  0  0  0  0  0  0  0  0
    6.2044    2.8971    0.0000 O   0  0  0  0  0  0  0  0  0  0  0  0
    5.9442    0.9863    0.0000 C   0  0  0  0  0  0  0  0  0  0  0  0
    2.4614    2.8889    0.0000 C   0  0  0  0  0  0  0  0  0  0  0  0
    3.0895    4.2511    0.0000 O   0  0  0  0  0  0  0  0  0  0  0  0
    0.9955    2.5707    0.0000 N   0  0  0  0  0  0  0  0  0  0  0  0
   -0.0130    3.6811    0.0000 C   0  0  0  0  0  0  0  0  0  0  0  0
   -0.5600    2.2844    0.0000 C   0  0  0  0  0  0  0  0  0  0  0  0
   -1.3615    1.0165    0.0000 C   0  0  0  0  0  0  0  0  0  0  0  0
   -2.3885   -0.0768    0.0000 C   0  0  0  0  0  0  0  0  0  0  0  0
   -3.6038   -0.9560    0.0000 C   0  0  0  0  0  0  0  0  0  0  0  0
   -4.9636   -1.5893    0.0000 C   0  0  0  0  0  0  0  0  0  0  0  0
   -6.4186   -1.9539    0.0000 C   0  0  0  0  0  0  0  0  0  0  0  0
   -7.9163   -2.0365    0.0000 C   0  0  0  0  0  0  0  0  0  0  0  0
    1.4298    4.0916    0.0000 C   0  0  0  0  0  0  0  0  0  0  0  0
    0.2599    5.1561    0.0000 C   0  0  0  0  0  0  0  0  0  0  0  0
    1.7590    5.2078    0.0000 O   0  0  0  0  0  0  0  0  0  0  0  0
    0.2487    6.6560    0.0000 N   0  0  0  0  0  0  0  0  0  0  0  0
   -0.0462    8.1268    0.0000 C   0  0  0  0  0  0  0  0  0  0  0  0
    0.9455    9.2521    0.0000 C   0  0  0  0  0  0  0  0  0  0  0  0
    2.4160    8.9559    0.0000 C   0  0  0  0  0  0  0  0  0  0  0  0
    3.4077   10.0812    0.0000 C   0  0  0  0  0  0  0  0  0  0  0  0
    3.6965    8.1746    0.0000 C   0  0  0  0  0  0  0  0  0  0  0  0
   -0.6141    9.5151    0.0000 C   0  0  0  0  0  0  0  0  0  0  0  0
    0.6190   10.3691    0.0000 O   0  0  0  0  0  0  0  0  0  0  0  0
   -1.4345   10.7709    0.0000 N   0  0  0  0  0  0  0  0  0  0  0  0
   -2.4777   11.8487    0.0000 C   0  0  0  0  0  0  0  0  0  0  0  0
   -2.2518   13.3316    0.0000 C   0  0  0  0  0  0  0  0  0  0  0  0
   -0.8546   13.8774    0.0000 C   0  0  0  0  0  0  0  0  0  0  0  0
   -0.6287   15.3603    0.0000 C   0  0  0  0  0  0  0  0  0  0  0  0
    0.7684   15.9061    0.0000 O   0  0  0  0  0  0  0  0  0  0  0  0
   -1.8000   16.2974    0.0000 O   0  0  0  0  0  0  0  0  0  0  0  0
   -3.7061   12.7096    0.0000 C   0  0  0  0  0  0  0  0  0  0  0  0
   -3.1304   14.0947    0.0000 O   0  0  0  0  0  0  0  0  0  0  0  0
   -5.0751   13.3225    0.0000 N   0  0  0  0  0  0  0  0  0  0  0  0
   -6.5355   13.6652    0.0000 C   0  0  0  0  0  0  0  0  0  0  0  0
   -7.1471   15.0349    0.0000 C   0  0  0  0  0  0  0  0  0  0  0  0
   -6.2668   16.2494    0.0000 C   0  0  0  0  0  0  0  0  0  0  0  0
   -6.8785   17.6190    0.0000 N   0  0  0  0  0  0  0  0  0  0  0  0
   -4.7749   16.0943    0.0000 O   0  0  0  0  0  0  0  0  0  0  0  0
   -8.0343   13.7254    0.0000 C   0  0  0  0  0  0  0  0  0  0  0  0
   -8.2988   15.2019    0.0000 O   0  0  0  0  0  0  0  0  0  0  0  0
   -9.5174   13.5008    0.0000 N   0  0  0  0  0  0  0  0  0  0  0  0
  -10.9311   12.9996    0.0000 C   0  0  0  0  0  0  0  0  0  0  0  0
  -12.1862   13.8211    0.0000 C   0  0  0  0  0  0  0  0  0  0  0  0
  -12.2245   12.2399    0.0000 C   0  0  0  0  0  0  0  0  0  0  0  0
  -13.2453   13.3390    0.0000 O   0  0  0  0  0  0  0  0  0  0  0  0
  -13.3508   11.2492    0.0000 N   0  0  0  0  0  0  0  0  0  0  0  0
  -14.2692   10.0632    0.0000 C   0  0  0  0  0  0  0  0  0  0  0  0
  -15.7691   10.0758    0.0000 C   0  0  0  0  0  0  0  0  0  0  0  0
  -16.3436   11.4614    0.0000 C   0  0  0  0  0  0  0  0  0  0  0  0
  -17.1829    9.5746    0.0000 C   0  0  0  0  0  0  0  0  0  0  0  0
  -18.3238   10.5483    0.0000 C   0  0  0  0  0  0  0  0  0  0  0  0
  -14.9465    8.7248    0.0000 C   0  0  0  0  0  0  0  0  0  0  0  0
  -16.3432    9.2719    0.0000 O   0  0  0  0  0  0  0  0  0  0  0  0
  -15.3583    7.2825    0.0000 N   0  0  0  0  0  0  0  0  0  0  0  0
  -15.4897    5.7882    0.0000 C   0  0  0  0  0  0  0  0  0  0  0  0
  -16.7584    4.9879    0.0000 C   0  0  0  0  0  0  0  0  0  0  0  0
  -18.0858    5.6864    0.0000 C   0  0  0  0  0  0  0  0  0  0  0  0
  -19.3544    4.8860    0.0000 C   0  0  0  0  0  0  0  0  0  0  0  0
  -20.6819    5.5845    0.0000 N   0  0  0  0  0  0  0  0  0  0  0  0
  -19.2956    3.3872    0.0000 O   0  0  0  0  0  0  0  0  0  0  0  0
  -15.3360    4.2961    0.0000 C   0  0  0  0  0  0  0  0  0  0  0  0
  -16.7598    3.8242    0.0000 O   0  0  0  0  0  0  0  0  0  0  0  0
  -14.9026    2.8601    0.0000 N   0  0  0  0  0  0  0  0  0  0  0  0
  -14.2053    1.5320    0.0000 C   0  0  0  0  0  0  0  0  0  0  0  0
  -13.2693    0.3599    0.0000 C   0  0  0  0  0  0  0  0  0  0  0  0
  -12.1283   -0.6139    0.0000 C   0  0  0  0  0  0  0  0  0  0  0  0
  -10.8237   -1.3541    0.0000 C   0  0  0  0  0  0  0  0  0  0  0  0
   -9.4026   -1.8341    0.0000 C   0  0  0  0  0  0  0  0  0  0  0  0
  -15.7049    1.4970    0.0000 C   0  0  0  0  0  0  0  0  0  0  0  0
  -14.8399    0.1728    0.0000 C   0  0  0  0  0  0  0  0  0  0  0  0
  -14.3030   -1.2278    0.0000 O   0  0  0  0  0  0  0  0  0  0  0  0
  -16.3342    0.0428    0.0000 N   0  0  0  0  0  0  0  0  0  0  0  0
  -16.9688   -1.3164    0.0000 C   0  0  0  0  0  0  0  0  0  0  0  0
  -17.1002   -2.8106    0.0000 C   0  0  0  0  0  0  0  0  0  0  0  0
  -16.7126   -4.2597    0.0000 O   0  0  0  0  0  0  0  0  0  0  0  0
  -18.3726   -3.6050    0.0000 C   0  0  0  0  0  0  0  0  0  0  0  0
  -18.4631   -1.4465    0.0000 C   0  0  0  0  0  0  0  0  0  0  0  0
  -19.3229   -0.2173    0.0000 O   0  0  0  0  0  0  0  0  0  0  0  0
  -19.0976   -2.8056    0.0000 N   0  0  0  0  0  0  0  0  0  0  0  0
  -20.5920   -2.9357    0.0000 C   0  0  0  0  0  0  0  0  0  0  0  0
  -22.0407   -2.5468    0.0000 C   0  0  0  0  0  0  0  0  0  0  0  0
  -22.4283   -1.0977    0.0000 C   0  0  0  0  0  0  0  0  0  0  0  0
  -21.2265   -4.2949    0.0000 C   0  0  0  0  0  0  0  0  0  0  0  0
  -20.3667   -5.5240    0.0000 O   0  0  0  0  0  0  0  0  0  0  0  0
  -22.7209   -4.4249    0.0000 N   0  0  0  0  0  0  0  0  0  0  0  0
  -23.3554   -5.7841    0.0000 C   0  0  0  0  0  0  0  0  0  0  0  0
  -23.4868   -7.2783    0.0000 C   0  0  0  0  0  0  0  0  0  0  0  0
  -24.8466   -7.9117    0.0000 C   0  0  0  0  0  0  0  0  0  0  0  0
  -24.9780   -9.4059    0.0000 C   0  0  0  0  0  0  0  0  0  0  0  0
  -26.3377  -10.0392    0.0000 N   0  0  0  0  0  0  0  0  0  0  0  0
  -26.4691  -11.5334    0.0000 C   0  0  0  0  0  0  0  0  0  0  0  0
  -27.8289  -12.1667    0.0000 N   0  0  0  0  0  0  0  0  0  0  0  0
  -25.2408  -12.3943    0.0000 N   0  0  0  0  0  0  0  0  0  0  0  0
  -24.8498   -5.9142    0.0000 C   0  0  0  0  0  0  0  0  0  0  0  0
  -25.7096   -4.6850    0.0000 O   0  0  0  0  0  0  0  0  0  0  0  0
  -25.4843   -7.2733    0.0000 N   0  0  0  0  0  0  0  0  0  0  0  0
  -26.9787   -7.4034    0.0000 C   0  0  0  0  0  0  0  0  0  0  0  0
  -28.3384   -8.0367    0.0000 C   0  0  0  0  0  0  0  0  0  0  0  0
  -28.4698   -9.5309    0.0000 C   0  0  0  0  0  0  0  0  0  0  0  0
  -29.8296  -10.1643    0.0000 C   0  0  0  0  0  0  0  0  0  0  0  0
  -29.9610  -11.6585    0.0000 O   0  0  0  0  0  0  0  0  0  0  0  0
  -31.0579   -9.3033    0.0000 O   0  0  0  0  0  0  0  0  0  0  0  0
  -27.8385   -6.1743    0.0000 C   0  0  0  0  0  0  0  0  0  0  0  0
  -27.2039   -4.8151    0.0000 O   0  0  0  0  0  0  0  0  0  0  0  0
  -29.3328   -6.3043    0.0000 N   0  0  0  0  0  0  0  0  0  0  0  0
  -30.1926   -5.0752    0.0000 C   0  0  0  0  0  0  0  0  0  0  0  0
  -30.5802   -3.6262    0.0000 C   0  0  0  0  0  0  0  0  0  0  0  0
  -32.0289   -3.2373    0.0000 C   0  0  0  0  0  0  0  0  0  0  0  0
  -32.4165   -1.7882    0.0000 C   0  0  0  0  0  0  0  0  0  0  0  0
  -33.8652   -1.3993    0.0000 N   0  0  0  0  0  0  0  0  0  0  0  0
  -31.3554   -0.7280    0.0000 O   0  0  0  0  0  0  0  0  0  0  0  0
  -31.6870   -5.2053    0.0000 C   0  0  0  0  0  0  0  0  0  0  0  0
  -32.6902   -4.0901    0.0000 O   0  0  0  0  0  0  0  0  0  0  0  0
  -32.3215   -6.5645    0.0000 O   0  0  0  0  0  0  0  0  0  0  0  0
   14.4559    6.6058    0.0000 H   0  0  0  0  0  0  0  0  0  0  0  0
   14.8064    9.1801    0.0000 H   0  0  0  0  0  0  0  0  0  0  0  0
   16.4032    6.1608    0.0000 H   0  0  0  0  0  0  0  0  0  0  0  0
   18.1881    6.8909    0.0000 H   0  0  0  0  0  0  0  0  0  0  0  0
   16.4516    9.4739    0.0000 H   0  0  0  0  0  0  0  0  0  0  0  0
   18.2364   10.2040    0.0000 H   0  0  0  0  0  0  0  0  0  0  0  0
   19.4508   11.0678    0.0000 H   0  0  0  0  0  0  0  0  0  0  0  0
   21.2126    8.1281    0.0000 H   0  0  0  0  0  0  0  0  0  0  0  0
   22.0685   12.4841    0.0000 H   0  0  0  0  0  0  0  0  0  0  0  0
   23.0975   10.8531    0.0000 H   0  0  0  0  0  0  0  0  0  0  0  0
   20.2249   13.2528    0.0000 H   0  0  0  0  0  0  0  0  0  0  0  0
   21.7876    6.5590    0.0000 H   0  0  0  0  0  0  0  0  0  0  0  0
   23.4653    5.4748    0.0000 H   0  0  0  0  0  0  0  0  0  0  0  0
   24.9529    9.4347    0.0000 H   0  0  0  0  0  0  0  0  0  0  0  0
   23.8254    8.4947    0.0000 H   0  0  0  0  0  0  0  0  0  0  0  0
   27.7932    8.2052    0.0000 H   0  0  0  0  0  0  0  0  0  0  0  0
   26.3657    6.9087    0.0000 H   0  0  0  0  0  0  0  0  0  0  0  0
   23.4689    3.8037    0.0000 H   0  0  0  0  0  0  0  0  0  0  0  0
   24.6746    2.2111    0.0000 H   0  0  0  0  0  0  0  0  0  0  0  0
   27.4270    5.4234    0.0000 H   0  0  0  0  0  0  0  0  0  0  0  0
   26.0459    4.9257    0.0000 H   0  0  0  0  0  0  0  0  0  0  0  0
   29.6754    3.2966    0.0000 H   0  0  0  0  0  0  0  0  0  0  0  0
   27.8906    2.5666    0.0000 H   0  0  0  0  0  0  0  0  0  0  0  0
   24.1065    0.6395    0.0000 H   0  0  0  0  0  0  0  0  0  0  0  0
   24.6948   -1.2694    0.0000 H   0  0  0  0  0  0  0  0  0  0  0  0
   28.1732    0.8098    0.0000 H   0  0  0  0  0  0  0  0  0  0  0  0
   26.9118    0.8125    0.0000 H   0  0  0  0  0  0  0  0  0  0  0  0
   27.8384   -2.0353    0.0000 H   0  0  0  0  0  0  0  0  0  0  0  0
   31.4281   -0.5804    0.0000 H   0  0  0  0  0  0  0  0  0  0  0  0
   30.9438    1.1370    0.0000 H   0  0  0  0  0  0  0  0  0  0  0  0
   29.1598    1.1761    0.0000 H   0  0  0  0  0  0  0  0  0  0  0  0
   31.2590   -1.8226    0.0000 H   0  0  0  0  0  0  0  0  0  0  0  0
   30.3332   -3.3480    0.0000 H   0  0  0  0  0  0  0  0  0  0  0  0
   28.6235   -2.6800    0.0000 H   0  0  0  0  0  0  0  0  0  0  0  0
   23.6234   -2.5519    0.0000 H   0  0  0  0  0  0  0  0  0  0  0  0
   23.5234   -4.5469    0.0000 H   0  0  0  0  0  0  0  0  0  0  0  0
   27.8323   -3.7913    0.0000 H   0  0  0  0  0  0  0  0  0  0  0  0
   26.2820   -3.0950    0.0000 H   0  0  0  0  0  0  0  0  0  0  0  0
   28.9499   -5.2232    0.0000 H   0  0  0  0  0  0  0  0  0  0  0  0
   28.0519   -6.9298    0.0000 H   0  0  0  0  0  0  0  0  0  0  0  0
   26.2154   -6.3418    0.0000 H   0  0  0  0  0  0  0  0  0  0  0  0
   22.0779   -5.3856    0.0000 H   0  0  0  0  0  0  0  0  0  0  0  0
   21.3016   -7.2261    0.0000 H   0  0  0  0  0  0  0  0  0  0  0  0
   25.1715   -7.0617    0.0000 H   0  0  0  0  0  0  0  0  0  0  0  0
   25.4428   -8.8254    0.0000 H   0  0  0  0  0  0  0  0  0  0  0  0
   23.6580   -9.5555    0.0000 H   0  0  0  0  0  0  0  0  0  0  0  0
   19.6565   -7.5198    0.0000 H   0  0  0  0  0  0  0  0  0  0  0  0
   18.2975   -8.9838    0.0000 H   0  0  0  0  0  0  0  0  0  0  0  0
   22.0840  -11.1747    0.0000 H   0  0  0  0  0  0  0  0  0  0  0  0
   21.4229   -9.5172    0.0000 H   0  0  0  0  0  0  0  0  0  0  0  0
   20.2349  -13.7201    0.0000 H   0  0  0  0  0  0  0  0  0  0  0  0
   19.2060  -12.0891    0.0000 H   0  0  0  0  0  0  0  0  0  0  0  0
   16.6511   -8.6972    0.0000 H   0  0  0  0  0  0  0  0  0  0  0  0
   14.8734   -9.6080    0.0000 H   0  0  0  0  0  0  0  0  0  0  0  0
   17.9435  -11.9696    0.0000 H   0  0  0  0  0  0  0  0  0  0  0  0
   17.0177  -13.4951    0.0000 H   0  0  0  0  0  0  0  0  0  0  0  0
   15.1811  -12.9071    0.0000 H   0  0  0  0  0  0  0  0  0  0  0  0
   13.4243   -8.7756    0.0000 H   0  0  0  0  0  0  0  0  0  0  0  0
   11.4423   -9.0235    0.0000 H   0  0  0  0  0  0  0  0  0  0  0  0
   12.9346  -13.1357    0.0000 H   0  0  0  0  0  0  0  0  0  0  0  0
   13.4936  -11.4411    0.0000 H   0  0  0  0  0  0  0  0  0  0  0  0
    8.5322  -12.0520    0.0000 H   0  0  0  0  0  0  0  0  0  0  0  0
    7.7042  -14.8822    0.0000 H   0  0  0  0  0  0  0  0  0  0  0  0
   10.2844  -16.8802    0.0000 H   0  0  0  0  0  0  0  0  0  0  0  0
   10.3653   -7.7457    0.0000 H   0  0  0  0  0  0  0  0  0  0  0  0
    8.4180   -7.3007    0.0000 H   0  0  0  0  0  0  0  0  0  0  0  0
    8.2345  -11.7127    0.0000 H   0  0  0  0  0  0  0  0  0  0  0  0
    9.5187  -10.2741    0.0000 H   0  0  0  0  0  0  0  0  0  0  0  0
    5.5409  -13.3277    0.0000 H   0  0  0  0  0  0  0  0  0  0  0  0
    8.1370  -13.2259    0.0000 H   0  0  0  0  0  0  0  0  0  0  0  0
    7.8430   -5.7316    0.0000 H   0  0  0  0  0  0  0  0  0  0  0  0
    6.1653   -4.6475    0.0000 H   0  0  0  0  0  0  0  0  0  0  0  0
    4.8483   -8.7609    0.0000 H   0  0  0  0  0  0  0  0  0  0  0  0
    6.1827   -7.8180    0.0000 H   0  0  0  0  0  0  0  0  0  0  0  0
    3.2648   -6.0814    0.0000 H   0  0  0  0  0  0  0  0  0  0  0  0
    1.4501   -9.5033    0.0000 H   0  0  0  0  0  0  0  0  0  0  0  0
    2.9251  -10.5077    0.0000 H   0  0  0  0  0  0  0  0  0  0  0  0
    4.3168   -9.3908    0.0000 H   0  0  0  0  0  0  0  0  0  0  0  0
    0.7813   -8.4431    0.0000 H   0  0  0  0  0  0  0  0  0  0  0  0
    0.5099   -6.6794    0.0000 H   0  0  0  0  0  0  0  0  0  0  0  0
    2.2947   -5.9493    0.0000 H   0  0  0  0  0  0  0  0  0  0  0  0
    6.1616   -2.9763    0.0000 H   0  0  0  0  0  0  0  0  0  0  0  0
    4.9559   -1.3838    0.0000 H   0  0  0  0  0  0  0  0  0  0  0  0
    2.1408   -4.7323    0.0000 H   0  0  0  0  0  0  0  0  0  0  0  0
    3.8879   -4.3691    0.0000 H   0  0  0  0  0  0  0  0  0  0  0  0
    0.3642   -4.3538    0.0000 H   0  0  0  0  0  0  0  0  0  0  0  0
    5.4883    0.0082    0.0000 H   0  0  0  0  0  0  0  0  0  0  0  0
    2.2012    0.9782    0.0000 H   0  0  0  0  0  0  0  0  0  0  0  0
    4.3678    3.4850    0.0000 H   0  0  0  0  0  0  0  0  0  0  0  0
    7.6071    2.3656    0.0000 H   0  0  0  0  0  0  0  0  0  0  0  0
    7.4379    1.1235    0.0000 H   0  0  0  0  0  0  0  0  0  0  0  0
    6.5121   -0.4020    0.0000 H   0  0  0  0  0  0  0  0  0  0  0  0
    5.0468   -0.2156    0.0000 H   0  0  0  0  0  0  0  0  0  0  0  0
    0.8974    1.0739    0.0000 H   0  0  0  0  0  0  0  0  0  0  0  0
    0.9214    2.0490    0.0000 H   0  0  0  0  0  0  0  0  0  0  0  0
    0.2201    1.0032    0.0000 H   0  0  0  0  0  0  0  0  0  0  0  0
    0.0486    0.5050    0.0000 H   0  0  0  0  0  0  0  0  0  0  0  0
   -0.6705   -0.3149    0.0000 H   0  0  0  0  0  0  0  0  0  0  0  0
   -1.0165   -0.6832    0.0000 H   0  0  0  0  0  0  0  0  0  0  0  0
   -1.9619   -1.5149    0.0000 H   0  0  0  0  0  0  0  0  0  0  0  0
   -2.3714   -1.8111    0.0000 H   0  0  0  0  0  0  0  0  0  0  0  0
   -3.4571   -2.4488    0.0000 H   0  0  0  0  0  0  0  0  0  0  0  0
   -3.9153   -2.6622    0.0000 H   0  0  0  0  0  0  0  0  0  0  0  0
   -5.1020   -3.0829    0.0000 H   0  0  0  0  0  0  0  0  0  0  0  0
   -5.5923   -3.2058    0.0000 H   0  0  0  0  0  0  0  0  0  0  0  0
   -7.0097   -3.3325    0.0000 H   0  0  0  0  0  0  0  0  0  0  0  0
   -7.9765   -3.5353    0.0000 H   0  0  0  0  0  0  0  0  0  0  0  0
    2.7273    3.3390    0.0000 H   0  0  0  0  0  0  0  0  0  0  0  0
    2.6451    4.9708    0.0000 H   0  0  0  0  0  0  0  0  0  0  0  0
    1.1210    5.5595    0.0000 H   0  0  0  0  0  0  0  0  0  0  0  0
    1.7484    6.6267    0.0000 H   0  0  0  0  0  0  0  0  0  0  0  0
    1.3443    7.5642    0.0000 H   0  0  0  0  0  0  0  0  0  0  0  0
    1.4926   10.6488    0.0000 H   0  0  0  0  0  0  0  0  0  0  0  0
   -0.1078   10.3200    0.0000 H   0  0  0  0  0  0  0  0  0  0  0  0
    2.2231    7.4683    0.0000 H   0  0  0  0  0  0  0  0  0  0  0  0
    4.9033    9.9665    0.0000 H   0  0  0  0  0  0  0  0  0  0  0  0
    3.9548   11.4779    0.0000 H   0  0  0  0  0  0  0  0  0  0  0  0
    2.2321   11.0128    0.0000 H   0  0  0  0  0  0  0  0  0  0  0  0
    5.0910    8.7270    0.0000 H   0  0  0  0  0  0  0  0  0  0  0  0
    4.6325    7.0025    0.0000 H   0  0  0  0  0  0  0  0  0  0  0  0
    2.7047    7.0493    0.0000 H   0  0  0  0  0  0  0  0  0  0  0  0
   -0.1571   11.5570    0.0000 H   0  0  0  0  0  0  0  0  0  0  0  0
   -1.0038   12.1272    0.0000 H   0  0  0  0  0  0  0  0  0  0  0  0
   -2.3652   14.8273    0.0000 H   0  0  0  0  0  0  0  0  0  0  0  0
   -3.7153   13.6605    0.0000 H   0  0  0  0  0  0  0  0  0  0  0  0
    0.6449   13.9124    0.0000 H   0  0  0  0  0  0  0  0  0  0  0  0
   -0.2126   12.5217    0.0000 H   0  0  0  0  0  0  0  0  0  0  0  0
   -4.5952   14.7436    0.0000 H   0  0  0  0  0  0  0  0  0  0  0  0
   -5.5799   14.8215    0.0000 H   0  0  0  0  0  0  0  0  0  0  0  0
   -8.0512   16.2318    0.0000 H   0  0  0  0  0  0  0  0  0  0  0  0
   -8.5561   14.5203    0.0000 H   0  0  0  0  0  0  0  0  0  0  0  0
   -5.9982   18.8335    0.0000 H   0  0  0  0  0  0  0  0  0  0  0  0
   -8.3705   17.7741    0.0000 H   0  0  0  0  0  0  0  0  0  0  0  0
   -9.8819   14.9558    0.0000 H   0  0  0  0  0  0  0  0  0  0  0  0
  -10.7524   14.4889    0.0000 H   0  0  0  0  0  0  0  0  0  0  0  0
  -12.1022   15.3188    0.0000 H   0  0  0  0  0  0  0  0  0  0  0  0
  -13.5938   14.3393    0.0000 H   0  0  0  0  0  0  0  0  0  0  0  0
  -13.0933   12.6265    0.0000 H   0  0  0  0  0  0  0  0  0  0  0  0
  -14.3108   12.4017    0.0000 H   0  0  0  0  0  0  0  0  0  0  0  0
  -14.7546   11.4825    0.0000 H   0  0  0  0  0  0  0  0  0  0  0  0
  -15.8864    8.5803    0.0000 H   0  0  0  0  0  0  0  0  0  0  0  0
  -18.0040   11.5970    0.0000 H   0  0  0  0  0  0  0  0  0  0  0  0
  -16.7563   12.8604    0.0000 H   0  0  0  0  0  0  0  0  0  0  0  0
  -15.2577   12.2094    0.0000 H   0  0  0  0  0  0  0  0  0  0  0  0
  -18.3400    8.6200    0.0000 H   0  0  0  0  0  0  0  0  0  0  0  0
  -16.6084    8.1889    0.0000 H   0  0  0  0  0  0  0  0  0  0  0  0
  -19.7376   10.0471    0.0000 H   0  0  0  0  0  0  0  0  0  0  0  0
  -19.0629   11.8536    0.0000 H   0  0  0  0  0  0  0  0  0  0  0  0
  -17.4321   11.7545    0.0000 H   0  0  0  0  0  0  0  0  0  0  0  0
  -16.8333    7.5553    0.0000 H   0  0  0  0  0  0  0  0  0  0  0  0
  -16.6654    6.7198    0.0000 H   0  0  0  0  0  0  0  0  0  0  0  0
  -17.8145    3.9227    0.0000 H   0  0  0  0  0  0  0  0  0  0  0  0
  -16.0485    3.6665    0.0000 H   0  0  0  0  0  0  0  0  0  0  0  0
  -19.0943    6.7968    0.0000 H   0  0  0  0  0  0  0  0  0  0  0  0
  -17.4817    7.0593    0.0000 H   0  0  0  0  0  0  0  0  0  0  0  0
  -21.9505    4.7842    0.0000 H   0  0  0  0  0  0  0  0  0  0  0  0
  -20.7407    7.0834    0.0000 H   0  0  0  0  0  0  0  0  0  0  0  0
  -16.3498    2.4657    0.0000 H   0  0  0  0  0  0  0  0  0  0  0  0
  -13.6351   -1.0948    0.0000 H   0  0  0  0  0  0  0  0  0  0  0  0
  -14.6146   -0.3035    0.0000 H   0  0  0  0  0  0  0  0  0  0  0  0
  -12.3942   -2.0901    0.0000 H   0  0  0  0  0  0  0  0  0  0  0  0
  -13.3238   -1.5199    0.0000 H   0  0  0  0  0  0  0  0  0  0  0  0
  -10.6227   -2.8406    0.0000 H   0  0  0  0  0  0  0  0  0  0  0  0
  -11.9547   -2.3395    0.0000 H   0  0  0  0  0  0  0  0  0  0  0  0
   -9.7453   -3.2944    0.0000 H   0  0  0  0  0  0  0  0  0  0  0  0
  -16.7215    0.3940    0.0000 H   0  0  0  0  0  0  0  0  0  0  0  0
  -17.1260    1.9770    0.0000 H   0  0  0  0  0  0  0  0  0  0  0  0
  -15.8445    2.9905    0.0000 H   0  0  0  0  0  0  0  0  0  0  0  0
  -17.3374    1.1579    0.0000 H   0  0  0  0  0  0  0  0  0  0  0  0
  -15.5200   -1.7053    0.0000 H   0  0  0  0  0  0  0  0  0  0  0  0
  -15.6058   -2.6806    0.0000 H   0  0  0  0  0  0  0  0  0  0  0  0
  -15.2639   -4.6486    0.0000 H   0  0  0  0  0  0  0  0  0  0  0  0
  -18.5913   -4.9382    0.0000 H   0  0  0  0  0  0  0  0  0  0  0  0
  -19.9543   -3.5740    0.0000 H   0  0  0  0  0  0  0  0  0  0  0  0
  -19.4825   -2.3466    0.0000 H   0  0  0  0  0  0  0  0  0  0  0  0
  -18.3941   -4.1304    0.0000 H   0  0  0  0  0  0  0  0  0  0  0  0
  -20.2794   -1.4686    0.0000 H   0  0  0  0  0  0  0  0  0  0  0  0
  -23.5398   -2.4937    0.0000 H   0  0  0  0  0  0  0  0  0  0  0  0
  -22.5298   -3.9648    0.0000 H   0  0  0  0  0  0  0  0  0  0  0  0
  -23.8770   -0.7089    0.0000 H   0  0  0  0  0  0  0  0  0  0  0  0
  -22.2969    0.3965    0.0000 H   0  0  0  0  0  0  0  0  0  0  0  0
  -20.9609   -0.7865    0.0000 H   0  0  0  0  0  0  0  0  0  0  0  0
  -23.7241   -3.3098    0.0000 H   0  0  0  0  0  0  0  0  0  0  0  0
  -21.9067   -6.1730    0.0000 H   0  0  0  0  0  0  0  0  0  0  0  0
  -22.9255   -8.6693    0.0000 H   0  0  0  0  0  0  0  0  0  0  0  0
  -21.9925   -7.1483    0.0000 H   0  0  0  0  0  0  0  0  0  0  0  0
  -26.3139   -8.2229    0.0000 H   0  0  0  0  0  0  0  0  0  0  0  0
  -25.8692   -6.8143    0.0000 H   0  0  0  0  0  0  0  0  0  0  0  0
  -24.5904  -10.8549    0.0000 H   0  0  0  0  0  0  0  0  0  0  0  0
  -23.4789   -9.4589    0.0000 H   0  0  0  0  0  0  0  0  0  0  0  0
  -27.4520   -9.0350    0.0000 H   0  0  0  0  0  0  0  0  0  0  0  0
  -27.9603  -13.6610    0.0000 H   0  0  0  0  0  0  0  0  0  0  0  0
  -29.0572  -11.3058    0.0000 H   0  0  0  0  0  0  0  0  0  0  0  0
  -25.3722  -13.8886    0.0000 H   0  0  0  0  0  0  0  0  0  0  0  0
  -23.8811  -11.7610    0.0000 H   0  0  0  0  0  0  0  0  0  0  0  0
  -24.9475   -8.6740    0.0000 H   0  0  0  0  0  0  0  0  0  0  0  0
  -26.5911   -8.8525    0.0000 H   0  0  0  0  0  0  0  0  0  0  0  0
  -29.8058   -8.3480    0.0000 H   0  0  0  0  0  0  0  0  0  0  0  0
  -29.0651   -6.7245    0.0000 H   0  0  0  0  0  0  0  0  0  0  0  0
  -28.0822  -10.9800    0.0000 H   0  0  0  0  0  0  0  0  0  0  0  0
  -27.0513   -9.0432    0.0000 H   0  0  0  0  0  0  0  0  0  0  0  0
  -30.1283   -7.5760    0.0000 H   0  0  0  0  0  0  0  0  0  0  0  0
  -28.8329   -4.4419    0.0000 H   0  0  0  0  0  0  0  0  0  0  0  0
  -30.4488   -2.1319    0.0000 H   0  0  0  0  0  0  0  0  0  0  0  0
  -29.0859   -3.4961    0.0000 H   0  0  0  0  0  0  0  0  0  0  0  0
  -33.5233   -3.3673    0.0000 H   0  0  0  0  0  0  0  0  0  0  0  0
  -32.6872   -4.5851    0.0000 H   0  0  0  0  0  0  0  0  0  0  0  0
  -34.2528    0.0497    0.0000 H   0  0  0  0  0  0  0  0  0  0  0  0
  -34.9264   -2.4595    0.0000 H   0  0  0  0  0  0  0  0  0  0  0  0
  1  2  1  0
  2  3  1  0
  3  4  1  0
  4  5  2  0
  4  6  1  0
  6  7  1  0
  7  8  1  0
  8  9  1  0
  7 10  1  0
 10 11  2  0
 10 12  1  0
 12 13  1  0
 13 14  1  0
 14 15  1  0
 15 16  1  0
 16 17  2  0
 16 18  1  0
 13 19  1  0
 19 20  2  0
 19 21  1  0
 21 22  1  0
 22 23  1  0
 23 24  1  0
 24 25  1  0
 25 26  2  0
 25 27  1  0
 22 28  1  0
 28 29  2  0
 28 30  1  0
 30 31  1  0
 31 32  1  0
 32 33  1  0
 33 34  1  0
 33 35  1  0
 31 36  1  0
 36 37  2  0
 36 38  1  0
 38 39  1  0
 39 40  1  0
 40 41  1  0
 39 42  1  0
 42 43  2  0
 42 44  1  0
 44 45  1  0
 45 46  1  0
 45 47  1  0
 47 48  2  0
 47 49  1  0
 49 50  1  0
 50 51  1  0
 51 52  1  0
 52 53  1  0
 53 54  2  0
 53 55  1  0
 50 56  1  0
 56 57  2  0
 56 58  1  0
 58 59  1  0
 59 60  1  0
 59 61  1  0
 61 62  2  0
 61 63  1  0
 63 64  1  0
 64 65  1  0
 65 66  1  0
 66 67  2  0
 67 68  1  0
 68 69  1  0
 69 70  2  0
 64 71  1  0
 71 72  2  0
 71 73  1  0
 73 74  1  0
 74 75  1  0
 75 76  1  0
 76 77  1  0
 76 78  2  0
 74 79  1  0
 79 80  2  0
 79 81  1  0
 81 82  1  0
 82 83  1  0
 83 84  1  0
 84 85  1  0
 84 86  1  0
 82 87  1  0
 87 88  2  0
 87 89  1  0
 89 90  1  0
 90 91  1  0
 91 92  1  0
 90 93  1  0
 93 94  2  0
 93 95  1  0
 95 96  1  0
 96 97  1  0
 97 98  1  0
 97 99  1  0
 96100  1  0
100101  2  0
100102  1  0
103102  1  6
103104  1  0
104105  1  0
105106  1  0
106107  1  0
107108  1  0
108109  1  0
109110  1  0
103111  1  0
103112  1  0
112113  2  0
112114  1  0
114115  1  0
115116  1  0
116117  1  0
117118  1  0
117119  1  0
115120  1  0
120121  2  0
120122  1  0
122123  1  0
123124  1  0
124125  1  0
125126  1  0
126127  2  0
126128  1  0
123129  1  0
129130  2  0
129131  1  0
131132  1  0
132133  1  0
133134  1  0
134135  1  0
134136  2  0
132137  1  0
137138  2  0
137139  1  0
139140  1  0
140141  1  0
140142  1  0
142143  2  0
142144  1  0
144145  1  0
145146  1  0
146147  1  0
146148  1  0
148149  1  0
145150  1  0
150151  2  0
150152  1  0
152153  1  0
153154  1  0
154155  1  0
155156  1  0
156157  1  0
156158  2  0
153159  1  0
159160  2  0
159161  1  0
161162  1  0
162163  1  0
163164  1  0
164165  1  0
165166  1  0
162167  1  0
162168  1  1
168169  2  0
168170  1  0
170171  1  0
171172  1  0
172173  1  0
172174  1  0
171175  1  0
175176  2  0
175177  1  0
177178  1  0
178179  1  0
179180  1  0
178181  1  0
181182  2  0
181183  1  0
183184  1  0
184185  1  0
185186  1  0
186187  1  0
187188  1  0
188189  1  0
189190  2  3
189191  1  0
184192  1  0
192193  2  0
192194  1  0
194195  1  0
195196  1  0
196197  1  0
197198  1  0
198199  2  0
198200  1  0
195201  1  0
201202  2  0
201203  1  0
203204  1  0
204205  1  0
205206  1  0
206207  1  0
207208  1  0
207209  2  0
204210  1  0
210211  2  0
210212  1  0
 70 66  1  0
110166  2  0
  1213  1  0
  1214  1  0
  2215  1  0
  2216  1  0
  3217  1  0
  3218  1  0
  6219  1  0
  7220  1  1
  8221  1  0
  8222  1  0
  9223  1  0
 12224  1  0
 13225  1  1
 14226  1  0
 14227  1  0
 15228  1  0
 15229  1  0
 21230  1  0
 22231  1  1
 23232  1  0
 23233  1  0
 24234  1  0
 24235  1  0
 30236  1  0
 31237  1  1
 32238  1  0
 32239  1  0
 33240  1  0
 34241  1  0
 34242  1  0
 34243  1  0
 35244  1  0
 35245  1  0
 35246  1  0
 38247  1  0
 39248  1  1
 40249  1  0
 40250  1  0
 41251  1  0
 41252  1  0
 41253  1  0
 44254  1  0
 45255  1  1
 46256  1  0
 46257  1  0
 46258  1  0
 49259  1  0
 50260  1  1
 51261  1  0
 51262  1  0
 52263  1  0
 52264  1  0
 58265  1  0
 59266  1  1
 60267  1  0
 60268  1  0
 60269  1  0
 63270  1  0
 64271  1  1
 65272  1  0
 65273  1  0
 67274  1  0
 68275  1  0
 69276  1  0
 73277  1  0
 74278  1  1
 75279  1  0
 75280  1  0
 77281  1  0
 77282  1  0
 81283  1  0
 82284  1  1
 83285  1  0
 83286  1  0
 84287  1  0
 85288  1  0
 85289  1  0
 85290  1  0
 86291  1  0
 86292  1  0
 86293  1  0
 89294  1  0
 90295  1  1
 91296  1  0
 91297  1  0
 92298  1  0
 95299  1  0
 96300  1  6
 97301  1  1
 98302  1  0
 99303  1  0
 99304  1  0
 99305  1  0
102306  1  0
104307  1  0
104308  1  0
105309  1  0
105310  1  0
106311  1  0
106312  1  0
107313  1  0
107314  1  0
108315  1  0
108316  1  0
109317  1  0
109318  1  0
110319  1  0
111320  1  0
111321  1  0
111322  1  0
114323  1  0
115324  1  6
116325  1  0
116326  1  0
117327  1  0
118328  1  0
118329  1  0
118330  1  0
119331  1  0
119332  1  0
119333  1  0
122334  1  0
123335  1  6
124336  1  0
124337  1  0
125338  1  0
125339  1  0
131340  1  0
132341  1  6
133342  1  0
133343  1  0
135344  1  0
135345  1  0
139346  1  0
140347  1  6
141348  1  0
141349  1  0
141350  1  0
144351  1  0
145352  1  6
146353  1  1
147354  1  0
147355  1  0
147356  1  0
148357  1  0
148358  1  0
149359  1  0
149360  1  0
149361  1  0
152362  1  0
153363  1  6
154364  1  0
154365  1  0
155366  1  0
155367  1  0
157368  1  0
157369  1  0
161370  1  0
163371  1  0
163372  1  0
164373  1  0
164374  1  0
165375  1  0
165376  1  0
166377  1  0
167378  1  0
167379  1  0
167380  1  0
170381  1  0
171382  1  1
172383  1  1
173384  1  0
174385  1  0
174386  1  0
174387  1  0
177388  1  0
178389  1  6
179390  1  0
179391  1  0
180392  1  0
180393  1  0
180394  1  0
183395  1  0
184396  1  1
185397  1  0
185398  1  0
186399  1  0
186400  1  0
187401  1  0
187402  1  0
188403  1  0
190404  1  0
190405  1  0
191406  1  0
191407  1  0
194408  1  0
195409  1  1
196410  1  0
196411  1  0
197412  1  0
197413  1  0
203414  1  0
204415  1  6
205416  1  0
205417  1  0
206418  1  0
206419  1  0
208420  1  0
208421  1  0
M  CHG  7  18  -1  27  -1  55  -1 128  -1 190   1 200  -1 212  -1
M  END
