
     RDKit          2D

441447  0  0  0  0  0  0  0  0999 V2000
  -50.9026    0.3771    0.0000 C   0  0  0  0  0  0  0  0  0  0  0  0
  -52.1960   -0.3825    0.0000 N   0  0  0  0  0  0  0  0  0  0  0  0
  -53.5006    0.3578    0.0000 C   0  0  0  0  0  0  0  0  0  0  0  0
  -53.5117    1.8578    0.0000 C   0  0  0  0  0  0  0  0  0  0  0  0
  -54.8163    2.5981    0.0000 C   0  0  0  0  0  0  0  0  0  0  0  0
  -56.1097    1.8385    0.0000 C   0  0  0  0  0  0  0  0  0  0  0  0
  -56.0986    0.3386    0.0000 C   0  0  0  0  0  0  0  0  0  0  0  0
  -54.7940   -0.4018    0.0000 C   0  0  0  0  0  0  0  0  0  0  0  0
  -57.5217   -0.1355    0.0000 C   0  0  0  0  0  0  0  0  0  0  0  0
  -58.4123    1.0714    0.0000 O   0  0  0  0  0  0  0  0  0  0  0  0
  -57.5397    2.2915    0.0000 C   0  0  0  0  0  0  0  0  0  0  0  0
  -58.0138    3.7146    0.0000 O   0  0  0  0  0  0  0  0  0  0  0  0
  -58.9866   -0.4583    0.0000 C   0  0  0  0  0  0  0  0  0  0  0  0
  -59.4395   -1.8882    0.0000 C   0  0  0  0  0  0  0  0  0  0  0  0
  -60.9044   -2.2110    0.0000 C   0  0  0  0  0  0  0  0  0  0  0  0
  -61.9163   -1.1037    0.0000 C   0  0  0  0  0  0  0  0  0  0  0  0
  -61.4634    0.3263    0.0000 C   0  0  0  0  0  0  0  0  0  0  0  0
  -59.9985    0.6490    0.0000 C   0  0  0  0  0  0  0  0  0  0  0  0
  -63.3812   -1.4265    0.0000 O   0  0  0  0  0  0  0  0  0  0  0  0
  -58.4276   -2.9955    0.0000 O   0  0  0  0  0  0  0  0  0  0  0  0
  -56.9627   -2.6727    0.0000 C   0  0  0  0  0  0  0  0  0  0  0  0
  -56.5098   -1.2428    0.0000 C   0  0  0  0  0  0  0  0  0  0  0  0
  -55.2563   -1.5874    0.0000 C   0  0  0  0  0  0  0  0  0  0  0  0
  -54.7166   -2.1779    0.0000 C   0  0  0  0  0  0  0  0  0  0  0  0
  -54.9581   -2.9405    0.0000 C   0  0  0  0  0  0  0  0  0  0  0  0
  -55.7394   -3.1127    0.0000 C   0  0  0  0  0  0  0  0  0  0  0  0
  -53.4740   -4.5645    0.0000 O   0  0  0  0  0  0  0  0  0  0  0  0
  -50.9137    1.8771    0.0000 S   0  0  0  0  0  0  0  0  0  0  0  0
  -49.5980   -0.3633    0.0000 N   0  0  0  0  0  0  0  0  0  0  0  0
  -48.3046    0.3964    0.0000 C   0  0  0  0  0  0  0  0  0  0  0  0
  -47.0000   -0.3440    0.0000 C   0  0  0  0  0  0  0  0  0  0  0  0
  -45.7066    0.4156    0.0000 C   0  0  0  0  0  0  0  0  0  0  0  0
  -45.7177    1.9156    0.0000 O   0  0  0  0  0  0  0  0  0  0  0  0
  -44.4020   -0.3247    0.0000 N   0  0  0  0  0  0  0  0  0  0  0  0
  -43.1086    0.4349    0.0000 C   0  0  0  0  0  0  0  0  0  0  0  0
  -42.1529    1.5911    0.0000 C   0  0  0  0  0  0  0  0  0  0  0  0
  -40.6827    1.8883    0.0000 O   0  0  0  0  0  0  0  0  0  0  0  0
  -41.8040   -0.3055    0.0000 C   0  0  0  0  0  0  0  0  0  0  0  0
  -41.7929   -1.8054    0.0000 O   0  0  0  0  0  0  0  0  0  0  0  0
  -40.5105    0.4541    0.0000 N   0  0  0  0  0  0  0  0  0  0  0  0
  -39.2060   -0.2862    0.0000 C   0  0  0  0  0  0  0  0  0  0  0  0
  -38.2333   -1.4281    0.0000 C   0  0  0  0  0  0  0  0  0  0  0  0
  -38.7359   -2.8414    0.0000 C   0  0  0  0  0  0  0  0  0  0  0  0
  -37.7632   -3.9833    0.0000 C   0  0  0  0  0  0  0  0  0  0  0  0
  -38.2658   -5.3966    0.0000 O   0  0  0  0  0  0  0  0  0  0  0  0
  -36.2880   -3.7119    0.0000 O   0  0  0  0  0  0  0  0  0  0  0  0
  -37.9125    0.4734    0.0000 C   0  0  0  0  0  0  0  0  0  0  0  0
  -37.9237    1.9734    0.0000 O   0  0  0  0  0  0  0  0  0  0  0  0
  -36.6080   -0.2669    0.0000 N   0  0  0  0  0  0  0  0  0  0  0  0
  -35.3145    0.4927    0.0000 C   0  0  0  0  0  0  0  0  0  0  0  0
  -34.3589    1.6488    0.0000 C   0  0  0  0  0  0  0  0  0  0  0  0
  -32.8798    1.3993    0.0000 C   0  0  0  0  0  0  0  0  0  0  0  0
  -31.9242    2.5555    0.0000 C   0  0  0  0  0  0  0  0  0  0  0  0
  -30.7104    2.5010    0.0000 O   0  0  0  0  0  0  0  0  0  0  0  0
  -32.4476    3.9612    0.0000 O   0  0  0  0  0  0  0  0  0  0  0  0
  -34.0100   -0.2477    0.0000 C   0  0  0  0  0  0  0  0  0  0  0  0
  -33.9989   -1.7476    0.0000 O   0  0  0  0  0  0  0  0  0  0  0  0
  -32.7165    0.5119    0.0000 N   0  0  0  0  0  0  0  0  0  0  0  0
  -31.4120   -0.2284    0.0000 C   0  0  0  0  0  0  0  0  0  0  0  0
  -30.4393   -1.3703    0.0000 C   0  0  0  0  0  0  0  0  0  0  0  0
  -30.9419   -2.7836    0.0000 C   0  0  0  0  0  0  0  0  0  0  0  0
  -29.9692   -3.9255    0.0000 C   0  0  0  0  0  0  0  0  0  0  0  0
  -31.8975   -3.9398    0.0000 C   0  0  0  0  0  0  0  0  0  0  0  0
  -30.1185    0.5312    0.0000 C   0  0  0  0  0  0  0  0  0  0  0  0
  -29.9794    1.7382    0.0000 O   0  0  0  0  0  0  0  0  0  0  0  0
  -28.8140   -0.2092    0.0000 N   0  0  0  0  0  0  0  0  0  0  0  0
  -27.5205    0.5504    0.0000 C   0  0  0  0  0  0  0  0  0  0  0  0
  -26.5649    1.7066    0.0000 C   0  0  0  0  0  0  0  0  0  0  0  0
  -25.0664    1.6393    0.0000 C   0  0  0  0  0  0  0  0  0  0  0  0
  -26.2160   -0.1899    0.0000 C   0  0  0  0  0  0  0  0  0  0  0  0
  -26.2048   -1.6899    0.0000 O   0  0  0  0  0  0  0  0  0  0  0  0
  -24.9225    0.5697    0.0000 N   0  0  0  0  0  0  0  0  0  0  0  0
  -23.6180   -0.1706    0.0000 C   0  0  0  0  0  0  0  0  0  0  0  0
  -22.6453   -1.3125    0.0000 C   0  0  0  0  0  0  0  0  0  0  0  0
  -22.3245    0.5890    0.0000 C   0  0  0  0  0  0  0  0  0  0  0  0
  -22.3356    2.0889    0.0000 O   0  0  0  0  0  0  0  0  0  0  0  0
  -21.0200   -0.1514    0.0000 N   0  0  0  0  0  0  0  0  0  0  0  0
  -19.7265    0.6082    0.0000 C   0  0  0  0  0  0  0  0  0  0  0  0
  -18.7709    1.7644    0.0000 C   0  0  0  0  0  0  0  0  0  0  0  0
  -17.2918    1.5149    0.0000 C   0  0  0  0  0  0  0  0  0  0  0  0
  -16.3361    2.6711    0.0000 C   0  0  0  0  0  0  0  0  0  0  0  0
  -15.1224    2.6165    0.0000 O   0  0  0  0  0  0  0  0  0  0  0  0
  -16.8596    4.0768    0.0000 O   0  0  0  0  0  0  0  0  0  0  0  0
  -18.4219   -0.1321    0.0000 C   0  0  0  0  0  0  0  0  0  0  0  0
  -18.4108   -1.6321    0.0000 O   0  0  0  0  0  0  0  0  0  0  0  0
  -17.1285    0.6275    0.0000 N   0  0  0  0  0  0  0  0  0  0  0  0
  -15.8239   -0.1129    0.0000 C   0  0  0  0  0  0  0  0  0  0  0  0
  -14.8513   -1.2547    0.0000 C   0  0  0  0  0  0  0  0  0  0  0  0
  -14.5305    0.6468    0.0000 C   0  0  0  0  0  0  0  0  0  0  0  0
  -14.3913    1.8538    0.0000 O   0  0  0  0  0  0  0  0  0  0  0  0
  -13.2259   -0.0936    0.0000 N   0  0  0  0  0  0  0  0  0  0  0  0
  -11.9325    0.6660    0.0000 C   0  0  0  0  0  0  0  0  0  0  0  0
  -10.9769    1.8222    0.0000 C   0  0  0  0  0  0  0  0  0  0  0  0
   -9.4978    1.5727    0.0000 C   0  0  0  0  0  0  0  0  0  0  0  0
   -8.4265    2.6226    0.0000 C   0  0  0  0  0  0  0  0  0  0  0  0
   -7.0969    1.9283    0.0000 N   0  0  0  0  0  0  0  0  0  0  0  0
   -7.3464    0.4492    0.0000 C   0  0  0  0  0  0  0  0  0  0  0  0
   -8.8302    0.2294    0.0000 N   0  0  0  0  0  0  0  0  0  0  0  0
  -10.6279   -0.0743    0.0000 C   0  0  0  0  0  0  0  0  0  0  0  0
  -10.6168   -1.5743    0.0000 O   0  0  0  0  0  0  0  0  0  0  0  0
   -9.3345    0.6853    0.0000 N   0  0  0  0  0  0  0  0  0  0  0  0
   -8.0299   -0.0551    0.0000 C   0  0  0  0  0  0  0  0  0  0  0  0
   -7.0573   -1.1970    0.0000 C   0  0  0  0  0  0  0  0  0  0  0  0
   -7.5598   -2.6103    0.0000 C   0  0  0  0  0  0  0  0  0  0  0  0
   -6.5871   -3.7521    0.0000 N   0  0  0  0  0  0  0  0  0  0  0  0
   -9.0351   -2.8817    0.0000 O   0  0  0  0  0  0  0  0  0  0  0  0
   -6.7365    0.7045    0.0000 C   0  0  0  0  0  0  0  0  0  0  0  0
   -6.3843    2.1626    0.0000 O   0  0  0  0  0  0  0  0  0  0  0  0
   -5.4319   -0.0358    0.0000 N   0  0  0  0  0  0  0  0  0  0  0  0
   -4.1385    0.7238    0.0000 C   0  0  0  0  0  0  0  0  0  0  0  0
   -3.1828    1.8800    0.0000 C   0  0  0  0  0  0  0  0  0  0  0  0
   -1.7037    1.6305    0.0000 C   0  0  0  0  0  0  0  0  0  0  0  0
   -0.7481    2.7867    0.0000 C   0  0  0  0  0  0  0  0  0  0  0  0
   -0.3992    0.8901    0.0000 C   0  0  0  0  0  0  0  0  0  0  0  0
   -2.8339   -0.0165    0.0000 C   0  0  0  0  0  0  0  0  0  0  0  0
   -2.8228   -1.5165    0.0000 O   0  0  0  0  0  0  0  0  0  0  0  0
   -1.5405    0.7431    0.0000 N   0  0  0  0  0  0  0  0  0  0  0  0
   -0.2359    0.0027    0.0000 C   0  0  0  0  0  0  0  0  0  0  0  0
    0.7368   -1.1392    0.0000 C   0  0  0  0  0  0  0  0  0  0  0  0
    0.2342   -2.5525    0.0000 S   0  0  0  0  0  0  0  0  0  0  0  0
    1.0575    0.7623    0.0000 C   0  0  0  0  0  0  0  0  0  0  0  0
    1.2293    2.2525    0.0000 O   0  0  0  0  0  0  0  0  0  0  0  0
    2.3621    0.0220    0.0000 N   0  0  0  0  0  0  0  0  0  0  0  0
    3.6555    0.7816    0.0000 C   0  0  0  0  0  0  0  0  0  0  0  0
    4.6112    1.9378    0.0000 C   0  0  0  0  0  0  0  0  0  0  0  0
    5.1137    3.3511    0.0000 O   0  0  0  0  0  0  0  0  0  0  0  0
    6.1097    1.8704    0.0000 C   0  0  0  0  0  0  0  0  0  0  0  0
    4.9601    0.0412    0.0000 C   0  0  0  0  0  0  0  0  0  0  0  0
    4.9712   -1.4587    0.0000 O   0  0  0  0  0  0  0  0  0  0  0  0
    6.2535    0.8008    0.0000 N   0  0  0  0  0  0  0  0  0  0  0  0
    7.5581    0.0605    0.0000 C   0  0  0  0  0  0  0  0  0  0  0  0
    8.5308   -1.0814    0.0000 C   0  0  0  0  0  0  0  0  0  0  0  0
    8.0282   -2.4947    0.0000 C   0  0  0  0  0  0  0  0  0  0  0  0
    9.0009   -3.6366    0.0000 C   0  0  0  0  0  0  0  0  0  0  0  0
    7.0726   -3.6509    0.0000 C   0  0  0  0  0  0  0  0  0  0  0  0
    8.8515    0.8201    0.0000 C   0  0  0  0  0  0  0  0  0  0  0  0
    8.8404    2.3201    0.0000 O   0  0  0  0  0  0  0  0  0  0  0  0
   10.1561    0.0798    0.0000 N   0  0  0  0  0  0  0  0  0  0  0  0
   11.4495    0.8394    0.0000 C   0  0  0  0  0  0  0  0  0  0  0  0
   12.4052    1.9956    0.0000 C   0  0  0  0  0  0  0  0  0  0  0  0
   13.8843    1.7460    0.0000 C   0  0  0  0  0  0  0  0  0  0  0  0
   14.8399    2.9022    0.0000 C   0  0  0  0  0  0  0  0  0  0  0  0
   15.1888    1.0057    0.0000 C   0  0  0  0  0  0  0  0  0  0  0  0
   12.7541    0.0990    0.0000 C   0  0  0  0  0  0  0  0  0  0  0  0
   12.7652   -1.4009    0.0000 O   0  0  0  0  0  0  0  0  0  0  0  0
   14.0476    0.8586    0.0000 N   0  0  0  0  0  0  0  0  0  0  0  0
   15.3521    0.1183    0.0000 C   0  0  0  0  0  0  0  0  0  0  0  0
   16.3248   -1.0236    0.0000 C   0  0  0  0  0  0  0  0  0  0  0  0
   15.8222   -2.4369    0.0000 C   0  0  0  0  0  0  0  0  0  0  0  0
   16.7949   -3.5788    0.0000 C   0  0  0  0  0  0  0  0  0  0  0  0
   16.2923   -4.9921    0.0000 O   0  0  0  0  0  0  0  0  0  0  0  0
   18.2701   -3.3074    0.0000 O   0  0  0  0  0  0  0  0  0  0  0  0
   16.6456    0.8779    0.0000 C   0  0  0  0  0  0  0  0  0  0  0  0
   16.8174    2.3680    0.0000 O   0  0  0  0  0  0  0  0  0  0  0  0
   17.9501    0.1375    0.0000 N   0  0  0  0  0  0  0  0  0  0  0  0
   19.2436    0.8972    0.0000 C   0  0  0  0  0  0  0  0  0  0  0  0
   20.1992    2.0533    0.0000 C   0  0  0  0  0  0  0  0  0  0  0  0
   21.6783    1.8038    0.0000 C   0  0  0  0  0  0  0  0  0  0  0  0
   22.6339    2.9600    0.0000 N   0  0  0  0  0  0  0  0  0  0  0  0
   22.5264    0.5666    0.0000 O   0  0  0  0  0  0  0  0  0  0  0  0
   20.5481    0.1568    0.0000 C   0  0  0  0  0  0  0  0  0  0  0  0
   20.5592   -1.3432    0.0000 O   0  0  0  0  0  0  0  0  0  0  0  0
   21.8416    0.9164    0.0000 N   0  0  0  0  0  0  0  0  0  0  0  0
   23.1461    0.1761    0.0000 C   0  0  0  0  0  0  0  0  0  0  0  0
   24.1188   -0.9658    0.0000 C   0  0  0  0  0  0  0  0  0  0  0  0
   24.4396    0.9357    0.0000 C   0  0  0  0  0  0  0  0  0  0  0  0
   24.6114    2.4258    0.0000 O   0  0  0  0  0  0  0  0  0  0  0  0
   25.7441    0.1953    0.0000 N   0  0  0  0  0  0  0  0  0  0  0  0
   27.0376    0.9549    0.0000 C   0  0  0  0  0  0  0  0  0  0  0  0
   27.9932    2.1111    0.0000 C   0  0  0  0  0  0  0  0  0  0  0  0
   29.4887    2.2269    0.0000 C   0  0  0  0  0  0  0  0  0  0  0  0
   28.4958    3.5244    0.0000 C   0  0  0  0  0  0  0  0  0  0  0  0
   27.5231    4.6663    0.0000 C   0  0  0  0  0  0  0  0  0  0  0  0
   28.3421    0.2146    0.0000 C   0  0  0  0  0  0  0  0  0  0  0  0
   28.1703   -1.2755    0.0000 O   0  0  0  0  0  0  0  0  0  0  0  0
   29.6356    0.9742    0.0000 N   0  0  0  0  0  0  0  0  0  0  0  0
   30.9401    0.2339    0.0000 C   0  0  0  0  0  0  0  0  0  0  0  0
   31.2483   -1.2342    0.0000 C   0  0  0  0  0  0  0  0  0  0  0  0
   31.9754   -2.5461    0.0000 C   0  0  0  0  0  0  0  0  0  0  0  0
   33.0569   -3.5855    0.0000 C   0  0  0  0  0  0  0  0  0  0  0  0
   34.3968   -4.2599    0.0000 C   0  0  0  0  0  0  0  0  0  0  0  0
   29.6300   -0.4965    0.0000 C   0  0  0  0  0  0  0  0  0  0  0  0
   31.0784    1.7275    0.0000 C   0  0  0  0  0  0  0  0  0  0  0  0
   29.8477    2.5849    0.0000 O   0  0  0  0  0  0  0  0  0  0  0  0
   31.6508    3.1140    0.0000 N   0  0  0  0  0  0  0  0  0  0  0  0
   32.6065    4.2701    0.0000 C   0  0  0  0  0  0  0  0  0  0  0  0
   32.3719    5.7517    0.0000 C   0  0  0  0  0  0  0  0  0  0  0  0
   33.5377    6.6956    0.0000 C   0  0  0  0  0  0  0  0  0  0  0  0
   33.3031    8.1771    0.0000 O   0  0  0  0  0  0  0  0  0  0  0  0
   35.0377    6.6956    0.0000 O   0  0  0  0  0  0  0  0  0  0  0  0
   33.8604    5.0933    0.0000 C   0  0  0  0  0  0  0  0  0  0  0  0
   33.5817    6.5672    0.0000 O   0  0  0  0  0  0  0  0  0  0  0  0
   35.3013    5.5102    0.0000 N   0  0  0  0  0  0  0  0  0  0  0  0
   36.8011    5.4840    0.0000 C   0  0  0  0  0  0  0  0  0  0  0  0
   37.8132    6.5911    0.0000 C   0  0  0  0  0  0  0  0  0  0  0  0
   39.1429    7.2853    0.0000 O   0  0  0  0  0  0  0  0  0  0  0  0
   37.3604    8.0211    0.0000 C   0  0  0  0  0  0  0  0  0  0  0  0
   38.2265    5.0168    0.0000 C   0  0  0  0  0  0  0  0  0  0  0  0
   38.9009    6.3566    0.0000 O   0  0  0  0  0  0  0  0  0  0  0  0
   39.4508    4.1502    0.0000 N   0  0  0  0  0  0  0  0  0  0  0  0
   40.3654    2.9613    0.0000 C   0  0  0  0  0  0  0  0  0  0  0  0
   41.8620    2.8603    0.0000 C   0  0  0  0  0  0  0  0  0  0  0  0
   42.6977    4.1059    0.0000 C   0  0  0  0  0  0  0  0  0  0  0  0
   40.8888    1.5556    0.0000 C   0  0  0  0  0  0  0  0  0  0  0  0
   42.3569    1.8637    0.0000 O   0  0  0  0  0  0  0  0  0  0  0  0
   40.9747    0.0580    0.0000 N   0  0  0  0  0  0  0  0  0  0  0  0
   40.6154   -1.3983    0.0000 C   0  0  0  0  0  0  0  0  0  0  0  0
   39.8427   -2.6840    0.0000 C   0  0  0  0  0  0  0  0  0  0  0  0
   38.7254   -3.6848    0.0000 C   0  0  0  0  0  0  0  0  0  0  0  0
   37.3628   -4.3119    0.0000 C   0  0  0  0  0  0  0  0  0  0  0  0
   35.8759   -4.5094    0.0000 C   0  0  0  0  0  0  0  0  0  0  0  0
   42.0906   -1.1269    0.0000 C   0  0  0  0  0  0  0  0  0  0  0  0
   41.4695   -2.6313    0.0000 C   0  0  0  0  0  0  0  0  0  0  0  0
   41.1759   -4.1023    0.0000 O   0  0  0  0  0  0  0  0  0  0  0  0
   42.9645   -2.5082    0.0000 N   0  0  0  0  0  0  0  0  0  0  0  0
   43.8186   -3.7412    0.0000 C   0  0  0  0  0  0  0  0  0  0  0  0
   44.1995   -5.1921    0.0000 C   0  0  0  0  0  0  0  0  0  0  0  0
   43.1335   -6.2473    0.0000 C   0  0  0  0  0  0  0  0  0  0  0  0
   43.5144   -7.6982    0.0000 C   0  0  0  0  0  0  0  0  0  0  0  0
   42.4484   -8.7535    0.0000 O   0  0  0  0  0  0  0  0  0  0  0  0
   44.9613   -8.0937    0.0000 O   0  0  0  0  0  0  0  0  0  0  0  0
   45.3135   -3.6180    0.0000 C   0  0  0  0  0  0  0  0  0  0  0  0
   45.9543   -2.2618    0.0000 O   0  0  0  0  0  0  0  0  0  0  0  0
   46.1677   -4.8511    0.0000 N   0  0  0  0  0  0  0  0  0  0  0  0
   47.6626   -4.7279    0.0000 C   0  0  0  0  0  0  0  0  0  0  0  0
   49.0253   -4.1009    0.0000 C   0  0  0  0  0  0  0  0  0  0  0  0
   50.2496   -4.9674    0.0000 C   0  0  0  0  0  0  0  0  0  0  0  0
   51.6123   -4.3404    0.0000 C   0  0  0  0  0  0  0  0  0  0  0  0
   52.8366   -5.2069    0.0000 N   0  0  0  0  0  0  0  0  0  0  0  0
   51.7506   -2.8468    0.0000 O   0  0  0  0  0  0  0  0  0  0  0  0
   48.5168   -5.9610    0.0000 C   0  0  0  0  0  0  0  0  0  0  0  0
   50.0156   -6.0209    0.0000 O   0  0  0  0  0  0  0  0  0  0  0  0
   47.8760   -7.3172    0.0000 O   0  0  0  0  0  0  0  0  0  0  0  0
  -52.0021   -1.8699    0.0000 H   0  0  0  0  0  0  0  0  0  0  0  0
  -52.2183    2.6174    0.0000 H   0  0  0  0  0  0  0  0  0  0  0  0
  -54.8274    4.0981    0.0000 H   0  0  0  0  0  0  0  0  0  0  0  0
  -54.4203   -1.8545    0.0000 H   0  0  0  0  0  0  0  0  0  0  0  0
  -61.3573   -3.6410    0.0000 H   0  0  0  0  0  0  0  0  0  0  0  0
  -62.4753    1.4335    0.0000 H   0  0  0  0  0  0  0  0  0  0  0  0
  -59.5456    2.0790    0.0000 H   0  0  0  0  0  0  0  0  0  0  0  0
  -64.3931   -0.3192    0.0000 H   0  0  0  0  0  0  0  0  0  0  0  0
  -54.5919    0.5100    0.0000 H   0  0  0  0  0  0  0  0  0  0  0  0
  -52.5397   -1.8855    0.0000 H   0  0  0  0  0  0  0  0  0  0  0  0
  -56.4037   -5.2100    0.0000 H   0  0  0  0  0  0  0  0  0  0  0  0
  -53.9269   -5.9945    0.0000 H   0  0  0  0  0  0  0  0  0  0  0  0
  -49.5869   -1.8632    0.0000 H   0  0  0  0  0  0  0  0  0  0  0  0
  -47.3489    1.5525    0.0000 H   0  0  0  0  0  0  0  0  0  0  0  0
  -49.2772    1.5382    0.0000 H   0  0  0  0  0  0  0  0  0  0  0  0
  -46.0273   -1.4859    0.0000 H   0  0  0  0  0  0  0  0  0  0  0  0
  -47.9556   -1.5002    0.0000 H   0  0  0  0  0  0  0  0  0  0  0  0
  -44.3909   -1.8247    0.0000 H   0  0  0  0  0  0  0  0  0  0  0  0
  -44.0812    1.5768    0.0000 H   0  0  0  0  0  0  0  0  0  0  0  0
  -41.6504    3.0044    0.0000 H   0  0  0  0  0  0  0  0  0  0  0  0
  -43.4575    2.3314    0.0000 H   0  0  0  0  0  0  0  0  0  0  0  0
  -39.7182    2.4977    0.0000 H   0  0  0  0  0  0  0  0  0  0  0  0
  -40.3387    1.9443    0.0000 H   0  0  0  0  0  0  0  0  0  0  0  0
  -40.2954   -1.3173    0.0000 H   0  0  0  0  0  0  0  0  0  0  0  0
  -37.0287   -2.3219    0.0000 H   0  0  0  0  0  0  0  0  0  0  0  0
  -37.0263   -0.5375    0.0000 H   0  0  0  0  0  0  0  0  0  0  0  0
  -39.6915   -3.9976    0.0000 H   0  0  0  0  0  0  0  0  0  0  0  0
  -40.1210   -2.2656    0.0000 H   0  0  0  0  0  0  0  0  0  0  0  0
  -36.4141   -1.7544    0.0000 H   0  0  0  0  0  0  0  0  0  0  0  0
  -36.2872    1.6345    0.0000 H   0  0  0  0  0  0  0  0  0  0  0  0
  -33.8563    3.0621    0.0000 H   0  0  0  0  0  0  0  0  0  0  0  0
  -35.6635    2.3892    0.0000 H   0  0  0  0  0  0  0  0  0  0  0  0
  -31.5752    0.6590    0.0000 H   0  0  0  0  0  0  0  0  0  0  0  0
  -32.6599   -0.0845    0.0000 H   0  0  0  0  0  0  0  0  0  0  0  0
  -32.3644    1.9700    0.0000 H   0  0  0  0  0  0  0  0  0  0  0  0
  -32.5014   -1.2595    0.0000 H   0  0  0  0  0  0  0  0  0  0  0  0
  -29.1347   -2.1107    0.0000 H   0  0  0  0  0  0  0  0  0  0  0  0
  -29.2323   -0.4797    0.0000 H   0  0  0  0  0  0  0  0  0  0  0  0
  -32.3269   -2.2078    0.0000 H   0  0  0  0  0  0  0  0  0  0  0  0
  -30.2957   -5.3895    0.0000 H   0  0  0  0  0  0  0  0  0  0  0  0
  -28.6646   -4.6659    0.0000 H   0  0  0  0  0  0  0  0  0  0  0  0
  -28.8797   -2.8944    0.0000 H   0  0  0  0  0  0  0  0  0  0  0  0
  -31.5493   -5.3988    0.0000 H   0  0  0  0  0  0  0  0  0  0  0  0
  -33.1909   -4.6994    0.0000 H   0  0  0  0  0  0  0  0  0  0  0  0
  -32.8702   -2.7979    0.0000 H   0  0  0  0  0  0  0  0  0  0  0  0
  -28.6201   -1.6966    0.0000 H   0  0  0  0  0  0  0  0  0  0  0  0
  -28.4932    1.6923    0.0000 H   0  0  0  0  0  0  0  0  0  0  0  0
  -26.0623    3.1199    0.0000 H   0  0  0  0  0  0  0  0  0  0  0  0
  -27.8695    2.4470    0.0000 H   0  0  0  0  0  0  0  0  0  0  0  0
  -24.1301    2.6133    0.0000 H   0  0  0  0  0  0  0  0  0  0  0  0
  -23.7812    0.7168    0.0000 H   0  0  0  0  0  0  0  0  0  0  0  0
  -24.8659   -0.0267    0.0000 H   0  0  0  0  0  0  0  0  0  0  0  0
  -24.7507    2.0598    0.0000 H   0  0  0  0  0  0  0  0  0  0  0  0
  -24.5736   -1.3268    0.0000 H   0  0  0  0  0  0  0  0  0  0  0  0
  -23.1478   -2.7258    0.0000 H   0  0  0  0  0  0  0  0  0  0  0  0
  -21.4407   -2.2064    0.0000 H   0  0  0  0  0  0  0  0  0  0  0  0
  -21.4383   -0.4219    0.0000 H   0  0  0  0  0  0  0  0  0  0  0  0
  -20.8261   -1.6388    0.0000 H   0  0  0  0  0  0  0  0  0  0  0  0
  -20.6992    1.7501    0.0000 H   0  0  0  0  0  0  0  0  0  0  0  0
  -18.2683    3.1777    0.0000 H   0  0  0  0  0  0  0  0  0  0  0  0
  -20.0754    2.5048    0.0000 H   0  0  0  0  0  0  0  0  0  0  0  0
  -15.9872    0.7746    0.0000 H   0  0  0  0  0  0  0  0  0  0  0  0
  -17.0718    0.0311    0.0000 H   0  0  0  0  0  0  0  0  0  0  0  0
  -16.7763    2.0856    0.0000 H   0  0  0  0  0  0  0  0  0  0  0  0
  -16.7796   -1.2690    0.0000 H   0  0  0  0  0  0  0  0  0  0  0  0
  -15.3538   -2.6680    0.0000 H   0  0  0  0  0  0  0  0  0  0  0  0
  -13.6467   -2.1486    0.0000 H   0  0  0  0  0  0  0  0  0  0  0  0
  -13.6443   -0.3642    0.0000 H   0  0  0  0  0  0  0  0  0  0  0  0
  -13.0321   -1.5810    0.0000 H   0  0  0  0  0  0  0  0  0  0  0  0
  -12.9052    1.8079    0.0000 H   0  0  0  0  0  0  0  0  0  0  0  0
  -10.4743    3.2355    0.0000 H   0  0  0  0  0  0  0  0  0  0  0  0
  -12.2814    2.5625    0.0000 H   0  0  0  0  0  0  0  0  0  0  0  0
   -8.6463    4.1065    0.0000 H   0  0  0  0  0  0  0  0  0  0  0  0
   -5.7536    2.5958    0.0000 H   0  0  0  0  0  0  0  0  0  0  0  0
   -6.1737   -0.4861    0.0000 H   0  0  0  0  0  0  0  0  0  0  0  0
   -8.9823    2.1434    0.0000 H   0  0  0  0  0  0  0  0  0  0  0  0
   -8.9856   -1.2113    0.0000 H   0  0  0  0  0  0  0  0  0  0  0  0
   -5.8527   -2.0908    0.0000 H   0  0  0  0  0  0  0  0  0  0  0  0
   -5.7507   -0.4601    0.0000 H   0  0  0  0  0  0  0  0  0  0  0  0
   -7.0897   -5.1655    0.0000 H   0  0  0  0  0  0  0  0  0  0  0  0
   -5.1119   -3.4807    0.0000 H   0  0  0  0  0  0  0  0  0  0  0  0
   -5.2380   -1.5232    0.0000 H   0  0  0  0  0  0  0  0  0  0  0  0
   -5.1112    1.8657    0.0000 H   0  0  0  0  0  0  0  0  0  0  0  0
   -2.8563    3.3440    0.0000 H   0  0  0  0  0  0  0  0  0  0  0  0
   -4.4874    2.6203    0.0000 H   0  0  0  0  0  0  0  0  0  0  0  0
   -1.4838    0.1467    0.0000 H   0  0  0  0  0  0  0  0  0  0  0  0
    0.7474    2.9025    0.0000 H   0  0  0  0  0  0  0  0  0  0  0  0
   -0.2455    4.2000    0.0000 H   0  0  0  0  0  0  0  0  0  0  0  0
   -1.9527    3.6805    0.0000 H   0  0  0  0  0  0  0  0  0  0  0  0
   -0.0254   -0.5626    0.0000 H   0  0  0  0  0  0  0  0  0  0  0  0
    1.0711    1.1874    0.0000 H   0  0  0  0  0  0  0  0  0  0  0  0
    0.2719    2.2316    0.0000 H   0  0  0  0  0  0  0  0  0  0  0  0
   -1.1883    2.2011    0.0000 H   0  0  0  0  0  0  0  0  0  0  0  0
   -1.1915   -1.1535    0.0000 H   0  0  0  0  0  0  0  0  0  0  0  0
    1.9413   -2.0330    0.0000 H   0  0  0  0  0  0  0  0  0  0  0  0
    2.0433   -0.4024    0.0000 H   0  0  0  0  0  0  0  0  0  0  0  0
    1.2069   -3.6944    0.0000 H   0  0  0  0  0  0  0  0  0  0  0  0
    2.5560   -1.4654    0.0000 H   0  0  0  0  0  0  0  0  0  0  0  0
    2.6829    1.9235    0.0000 H   0  0  0  0  0  0  0  0  0  0  0  0
    3.3066    2.6781    0.0000 H   0  0  0  0  0  0  0  0  0  0  0  0
    4.1411    4.4930    0.0000 H   0  0  0  0  0  0  0  0  0  0  0  0
    7.0459    2.8444    0.0000 H   0  0  0  0  0  0  0  0  0  0  0  0
    7.3948    0.9479    0.0000 H   0  0  0  0  0  0  0  0  0  0  0  0
    6.3102    0.2045    0.0000 H   0  0  0  0  0  0  0  0  0  0  0  0
    6.4253    2.2910    0.0000 H   0  0  0  0  0  0  0  0  0  0  0  0
    6.4687   -0.9706    0.0000 H   0  0  0  0  0  0  0  0  0  0  0  0
    9.8353   -1.8217    0.0000 H   0  0  0  0  0  0  0  0  0  0  0  0
    9.7378   -0.1908    0.0000 H   0  0  0  0  0  0  0  0  0  0  0  0
    6.6431   -1.9189    0.0000 H   0  0  0  0  0  0  0  0  0  0  0  0
    8.6743   -5.1006    0.0000 H   0  0  0  0  0  0  0  0  0  0  0  0
   10.3054   -4.3769    0.0000 H   0  0  0  0  0  0  0  0  0  0  0  0
   10.0903   -2.6055    0.0000 H   0  0  0  0  0  0  0  0  0  0  0  0
    7.4208   -5.1099    0.0000 H   0  0  0  0  0  0  0  0  0  0  0  0
    5.7791   -4.4105    0.0000 H   0  0  0  0  0  0  0  0  0  0  0  0
    6.0999   -2.5090    0.0000 H   0  0  0  0  0  0  0  0  0  0  0  0
   10.3500   -1.4077    0.0000 H   0  0  0  0  0  0  0  0  0  0  0  0
   10.4769    1.9813    0.0000 H   0  0  0  0  0  0  0  0  0  0  0  0
   12.7317    3.4596    0.0000 H   0  0  0  0  0  0  0  0  0  0  0  0
   11.1006    2.7359    0.0000 H   0  0  0  0  0  0  0  0  0  0  0  0
   14.1042    0.2622    0.0000 H   0  0  0  0  0  0  0  0  0  0  0  0
   16.3354    3.0180    0.0000 H   0  0  0  0  0  0  0  0  0  0  0  0
   15.3425    4.3155    0.0000 H   0  0  0  0  0  0  0  0  0  0  0  0
   13.6353    3.7961    0.0000 H   0  0  0  0  0  0  0  0  0  0  0  0
   15.5626   -0.4470    0.0000 H   0  0  0  0  0  0  0  0  0  0  0  0
   16.6591    1.3029    0.0000 H   0  0  0  0  0  0  0  0  0  0  0  0
   15.8599    2.3472    0.0000 H   0  0  0  0  0  0  0  0  0  0  0  0
   14.3997    2.3167    0.0000 H   0  0  0  0  0  0  0  0  0  0  0  0
   14.2627   -0.9128    0.0000 H   0  0  0  0  0  0  0  0  0  0  0  0
   17.5294   -1.9175    0.0000 H   0  0  0  0  0  0  0  0  0  0  0  0
   17.6314   -0.2868    0.0000 H   0  0  0  0  0  0  0  0  0  0  0  0
   14.8666   -3.5931    0.0000 H   0  0  0  0  0  0  0  0  0  0  0  0
   14.4371   -1.8611    0.0000 H   0  0  0  0  0  0  0  0  0  0  0  0
   18.1440   -1.3499    0.0000 H   0  0  0  0  0  0  0  0  0  0  0  0
   18.2709    2.0390    0.0000 H   0  0  0  0  0  0  0  0  0  0  0  0
   20.7018    3.4666    0.0000 H   0  0  0  0  0  0  0  0  0  0  0  0
   18.8946    2.7937    0.0000 H   0  0  0  0  0  0  0  0  0  0  0  0
   24.1324    2.8927    0.0000 H   0  0  0  0  0  0  0  0  0  0  0  0
   22.1105    4.3657    0.0000 H   0  0  0  0  0  0  0  0  0  0  0  0
   22.1937    2.3745    0.0000 H   0  0  0  0  0  0  0  0  0  0  0  0
   22.1905   -0.9801    0.0000 H   0  0  0  0  0  0  0  0  0  0  0  0
   25.5933   -1.2412    0.0000 H   0  0  0  0  0  0  0  0  0  0  0  0
   24.6423   -2.3715    0.0000 H   0  0  0  0  0  0  0  0  0  0  0  0
   22.8254   -1.7254    0.0000 H   0  0  0  0  0  0  0  0  0  0  0  0
   25.9380   -1.2921    0.0000 H   0  0  0  0  0  0  0  0  0  0  0  0
   26.0649    2.0968    0.0000 H   0  0  0  0  0  0  0  0  0  0  0  0
   26.6081    2.6869    0.0000 H   0  0  0  0  0  0  0  0  0  0  0  0
   30.4503    3.0195    0.0000 H   0  0  0  0  0  0  0  0  0  0  0  0
   30.9619    1.4597    0.0000 H   0  0  0  0  0  0  0  0  0  0  0  0
   29.5540    0.3682    0.0000 H   0  0  0  0  0  0  0  0  0  0  0  0
   29.4514    4.6806    0.0000 H   0  0  0  0  0  0  0  0  0  0  0  0
   29.9790    3.3009    0.0000 H   0  0  0  0  0  0  0  0  0  0  0  0
   28.0257    6.0796    0.0000 H   0  0  0  0  0  0  0  0  0  0  0  0
   26.2185    5.4067    0.0000 H   0  0  0  0  0  0  0  0  0  0  0  0
   26.4337    3.6352    0.0000 H   0  0  0  0  0  0  0  0  0  0  0  0
   29.8074    2.4643    0.0000 H   0  0  0  0  0  0  0  0  0  0  0  0
   29.7550   -1.0922    0.0000 H   0  0  0  0  0  0  0  0  0  0  0  0
   30.3514   -2.4365    0.0000 H   0  0  0  0  0  0  0  0  0  0  0  0
   30.5547   -3.0274    0.0000 H   0  0  0  0  0  0  0  0  0  0  0  0
   31.3043   -3.8876    0.0000 H   0  0  0  0  0  0  0  0  0  0  0  0
   31.7432   -4.3094    0.0000 H   0  0  0  0  0  0  0  0  0  0  0  0
   32.9933   -5.0842    0.0000 H   0  0  0  0  0  0  0  0  0  0  0  0
   33.9296   -5.6853    0.0000 H   0  0  0  0  0  0  0  0  0  0  0  0
   29.4833   -2.1560    0.0000 H   0  0  0  0  0  0  0  0  0  0  0  0
   28.3675   -1.2271    0.0000 H   0  0  0  0  0  0  0  0  0  0  0  0
   28.6779    0.4151    0.0000 H   0  0  0  0  0  0  0  0  0  0  0  0
   30.4689    4.0376    0.0000 H   0  0  0  0  0  0  0  0  0  0  0  0
   31.1221    4.4864    0.0000 H   0  0  0  0  0  0  0  0  0  0  0  0
   31.6448    7.0637    0.0000 H   0  0  0  0  0  0  0  0  0  0  0  0
   30.9046    5.4400    0.0000 H   0  0  0  0  0  0  0  0  0  0  0  0
   35.2865    7.0102    0.0000 H   0  0  0  0  0  0  0  0  0  0  0  0
   36.0447    6.7793    0.0000 H   0  0  0  0  0  0  0  0  0  0  0  0
   38.9882    5.6587    0.0000 H   0  0  0  0  0  0  0  0  0  0  0  0
   39.3887    8.7650    0.0000 H   0  0  0  0  0  0  0  0  0  0  0  0
   38.2300    9.2433    0.0000 H   0  0  0  0  0  0  0  0  0  0  0  0
   36.4459    9.2101    0.0000 H   0  0  0  0  0  0  0  0  0  0  0  0
   35.9560    7.4942    0.0000 H   0  0  0  0  0  0  0  0  0  0  0  0
   40.4902    5.2318    0.0000 H   0  0  0  0  0  0  0  0  0  0  0  0
   40.9065    4.3603    0.0000 H   0  0  0  0  0  0  0  0  0  0  0  0
   43.2338    2.2535    0.0000 H   0  0  0  0  0  0  0  0  0  0  0  0
   41.8657    1.3603    0.0000 H   0  0  0  0  0  0  0  0  0  0  0  0
   44.1943    4.0049    0.0000 H   0  0  0  0  0  0  0  0  0  0  0  0
   43.0571    5.5622    0.0000 H   0  0  0  0  0  0  0  0  0  0  0  0
   41.4101    4.8753    0.0000 H   0  0  0  0  0  0  0  0  0  0  0  0
   42.4683   -0.0802    0.0000 H   0  0  0  0  0  0  0  0  0  0  0  0
   40.2955   -4.1140    0.0000 H   0  0  0  0  0  0  0  0  0  0  0  0
   41.2457   -3.2147    0.0000 H   0  0  0  0  0  0  0  0  0  0  0  0
   38.9193   -5.1722    0.0000 H   0  0  0  0  0  0  0  0  0  0  0  0
   39.9097   -4.6055    0.0000 H   0  0  0  0  0  0  0  0  0  0  0  0
   36.9313   -5.7485    0.0000 H   0  0  0  0  0  0  0  0  0  0  0  0
   38.3664   -5.4267    0.0000 H   0  0  0  0  0  0  0  0  0  0  0  0
   35.8496   -6.0092    0.0000 H   0  0  0  0  0  0  0  0  0  0  0  0
   43.3107   -1.9995    0.0000 H   0  0  0  0  0  0  0  0  0  0  0  0
   43.2818   -0.2153    0.0000 H   0  0  0  0  0  0  0  0  0  0  0  0
   41.9228    0.3637    0.0000 H   0  0  0  0  0  0  0  0  0  0  0  0
   43.7658   -1.2401    0.0000 H   0  0  0  0  0  0  0  0  0  0  0  0
   42.3897   -4.1975    0.0000 H   0  0  0  0  0  0  0  0  0  0  0  0
   44.8970   -6.5200    0.0000 H   0  0  0  0  0  0  0  0  0  0  0  0
   45.6734   -4.9134    0.0000 H   0  0  0  0  0  0  0  0  0  0  0  0
   41.7708   -6.8744    0.0000 H   0  0  0  0  0  0  0  0  0  0  0  0
   42.1354   -5.1276    0.0000 H   0  0  0  0  0  0  0  0  0  0  0  0
   45.6970   -6.2753    0.0000 H   0  0  0  0  0  0  0  0  0  0  0  0
   47.2817   -3.2771    0.0000 H   0  0  0  0  0  0  0  0  0  0  0  0
   50.0913   -3.0456    0.0000 H   0  0  0  0  0  0  0  0  0  0  0  0
   48.1711   -2.8678    0.0000 H   0  0  0  0  0  0  0  0  0  0  0  0
   51.1038   -6.2005    0.0000 H   0  0  0  0  0  0  0  0  0  0  0  0
   49.6327   -6.3347    0.0000 H   0  0  0  0  0  0  0  0  0  0  0  0
   54.1993   -4.5799    0.0000 H   0  0  0  0  0  0  0  0  0  0  0  0
   52.6984   -6.7006    0.0000 H   0  0  0  0  0  0  0  0  0  0  0  0
  1  2  1  0
  2  3  1  0
  3  4  2  0
  4  5  1  0
  5  6  2  0
  6  7  1  0
  7  8  2  0
  7  9  1  0
  9 10  1  0
 10 11  1  0
 11 12  2  0
  9 13  1  0
 13 14  1  0
 14 15  2  0
 15 16  1  0
 16 17  2  0
 17 18  1  0
 16 19  1  0
 14 20  1  0
 20 21  1  0
 21 22  2  0
 22 23  1  0
 23 24  2  0
 24 25  1  0
 25 26  2  0
 25 27  1  0
  1 28  2  0
  1 29  1  0
 29 30  1  0
 30 31  1  0
 31 32  1  0
 32 33  2  0
 32 34  1  0
 34 35  1  0
 35 36  1  0
 36 37  1  0
 35 38  1  0
 38 39  2  0
 38 40  1  0
 40 41  1  0
 41 42  1  0
 42 43  1  0
 43 44  1  0
 44 45  2  0
 44 46  1  0
 41 47  1  0
 47 48  2  0
 47 49  1  0
 49 50  1  0
 50 51  1  0
 51 52  1  0
 52 53  1  0
 53 54  2  0
 53 55  1  0
 50 56  1  0
 56 57  2  0
 56 58  1  0
 58 59  1  0
 59 60  1  0
 60 61  1  0
 61 62  1  0
 61 63  1  0
 59 64  1  0
 64 65  2  0
 64 66  1  0
 66 67  1  0
 67 68  1  0
 68 69  1  0
 67 70  1  0
 70 71  2  0
 70 72  1  0
 72 73  1  0
 73 74  1  0
 73 75  1  0
 75 76  2  0
 75 77  1  0
 77 78  1  0
 78 79  1  0
 79 80  1  0
 80 81  1  0
 81 82  2  0
 81 83  1  0
 78 84  1  0
 84 85  2  0
 84 86  1  0
 86 87  1  0
 87 88  1  0
 87 89  1  0
 89 90  2  0
 89 91  1  0
 91 92  1  0
 92 93  1  0
 93 94  1  0
 94 95  2  0
 95 96  1  0
 96 97  1  0
 97 98  2  0
 92 99  1  0
 99100  2  0
 99101  1  0
101102  1  0
102103  1  0
103104  1  0
104105  1  0
104106  2  0
102107  1  0
107108  2  0
107109  1  0
109110  1  0
110111  1  0
111112  1  0
112113  1  0
112114  1  0
110115  1  0
115116  2  0
115117  1  0
117118  1  0
118119  1  0
119120  1  0
118121  1  0
121122  2  0
121123  1  0
123124  1  0
124125  1  0
125126  1  0
125127  1  0
124128  1  0
128129  2  0
128130  1  0
130131  1  0
131132  1  0
132133  1  0
133134  1  0
133135  1  0
131136  1  0
136137  2  0
136138  1  0
138139  1  0
139140  1  0
140141  1  0
141142  1  0
141143  1  0
139144  1  0
144145  2  0
144146  1  0
146147  1  0
147148  1  0
148149  1  0
149150  1  0
150151  2  0
150152  1  0
147153  1  0
153154  2  0
153155  1  0
155156  1  0
156157  1  0
157158  1  0
158159  1  0
158160  2  0
156161  1  0
161162  2  0
161163  1  0
163164  1  0
164165  1  0
164166  1  0
166167  2  0
166168  1  0
168169  1  0
169170  1  0
170171  1  0
170172  1  0
172173  1  0
169174  1  0
174175  2  0
174176  1  0
177176  1  6
177178  1  0
178179  1  0
179180  1  0
180181  1  0
177182  1  0
177183  1  0
183184  2  0
183185  1  0
185186  1  0
186187  1  0
187188  1  0
188189  2  0
188190  1  0
186191  1  0
191192  2  0
191193  1  0
193194  1  0
194195  1  0
195196  1  0
195197  1  0
194198  1  0
198199  2  0
198200  1  0
200201  1  0
201202  1  0
202203  1  0
201204  1  0
204205  2  0
204206  1  0
206207  1  0
207208  1  0
208209  1  0
209210  1  0
210211  1  0
207212  1  0
207213  1  6
213214  2  0
213215  1  0
215216  1  0
216217  1  0
217218  1  0
218219  1  0
219220  2  0
219221  1  0
216222  1  0
222223  2  0
222224  1  0
224225  1  0
225226  1  0
226227  1  0
227228  1  0
228229  1  0
228230  2  0
225231  1  0
231232  2  0
231233  1  0
  8  3  1  0
 98 94  1  0
 11  6  1  0
 18 13  2  0
181211  2  0
 22  9  1  0
 26 21  1  0
  2234  1  0
  4235  1  0
  5236  1  0
  8237  1  0
 15238  1  0
 17239  1  0
 18240  1  0
 19241  1  0
 23242  1  0
 24243  1  0
 26244  1  0
 27245  1  0
 29246  1  0
 30247  1  0
 30248  1  0
 31249  1  0
 31250  1  0
 34251  1  0
 35252  1  1
 36253  1  0
 36254  1  0
 37255  1  0
 40256  1  0
 41257  1  6
 42258  1  0
 42259  1  0
 43260  1  0
 43261  1  0
 49262  1  0
 50263  1  1
 51264  1  0
 51265  1  0
 52266  1  0
 52267  1  0
 58268  1  0
 59269  1  6
 60270  1  0
 60271  1  0
 61272  1  0
 62273  1  0
 62274  1  0
 62275  1  0
 63276  1  0
 63277  1  0
 63278  1  0
 66279  1  0
 67280  1  1
 68281  1  0
 68282  1  0
 69283  1  0
 69284  1  0
 69285  1  0
 72286  1  0
 73287  1  6
 74288  1  0
 74289  1  0
 74290  1  0
 77291  1  0
 78292  1  1
 79293  1  0
 79294  1  0
 80295  1  0
 80296  1  0
 86297  1  0
 87298  1  6
 88299  1  0
 88300  1  0
 88301  1  0
 91302  1  0
 92303  1  1
 93304  1  0
 93305  1  0
 95306  1  0
 96307  1  0
 97308  1  0
101309  1  0
102310  1  6
103311  1  0
103312  1  0
105313  1  0
105314  1  0
109315  1  0
110316  1  1
111317  1  0
111318  1  0
112319  1  0
113320  1  0
113321  1  0
113322  1  0
114323  1  0
114324  1  0
114325  1  0
117326  1  0
118327  1  6
119328  1  0
119329  1  0
120330  1  0
123331  1  0
124332  1  1
125333  1  1
126334  1  0
127335  1  0
127336  1  0
127337  1  0
130338  1  0
131339  1  6
132340  1  0
132341  1  0
133342  1  0
134343  1  0
134344  1  0
134345  1  0
135346  1  0
135347  1  0
135348  1  0
138349  1  0
139350  1  1
140351  1  0
140352  1  0
141353  1  0
142354  1  0
142355  1  0
142356  1  0
143357  1  0
143358  1  0
143359  1  0
146360  1  0
147361  1  6
148362  1  0
148363  1  0
149364  1  0
149365  1  0
155366  1  0
156367  1  1
157368  1  0
157369  1  0
159370  1  0
159371  1  0
163372  1  0
164373  1  6
165374  1  0
165375  1  0
165376  1  0
168377  1  0
169378  1  1
170379  1  1
171380  1  0
171381  1  0
171382  1  0
172383  1  0
172384  1  0
173385  1  0
173386  1  0
173387  1  0
176388  1  0
178389  1  0
178390  1  0
179391  1  0
179392  1  0
180393  1  0
180394  1  0
181395  1  0
182396  1  0
182397  1  0
182398  1  0
185399  1  0
186400  1  1
187401  1  0
187402  1  0
193403  1  0
194404  1  1
195405  1  6
196406  1  0
197407  1  0
197408  1  0
197409  1  0
200410  1  0
201411  1  1
202412  1  0
202413  1  0
203414  1  0
203415  1  0
203416  1  0
206417  1  0
208418  1  0
208419  1  0
209420  1  0
209421  1  0
210422  1  0
210423  1  0
211424  1  0
212425  1  0
212426  1  0
212427  1  0
215428  1  0
216429  1  6
217430  1  0
217431  1  0
218432  1  0
218433  1  0
224434  1  0
225435  1  1
226436  1  0
226437  1  0
227438  1  0
227439  1  0
229440  1  0
229441  1  0
M  CHG  7  46  -1  55  -1  83  -1 152  -1 190  -1 221  -1 233  -1
M  END
