
     RDKit          2D

270273  0  0  0  0  0  0  0  0999 V2000
   28.6690   -3.4229    0.0000 N   0  0  0  0  0  0  0  0  0  0  0  0
   27.2229   -3.0245    0.0000 C   0  0  0  0  0  0  0  0  0  0  0  0
   26.1548   -4.0776    0.0000 C   0  0  0  0  0  0  0  0  0  0  0  0
   24.7086   -3.6792    0.0000 C   0  0  0  0  0  0  0  0  0  0  0  0
   24.3306   -2.2276    0.0000 O   0  0  0  0  0  0  0  0  0  0  0  0
   23.6405   -4.7324    0.0000 N   0  0  0  0  0  0  0  0  0  0  0  0
   22.1944   -4.3339    0.0000 C   0  0  0  0  0  0  0  0  0  0  0  0
   22.0532   -5.8273    0.0000 C   0  0  0  0  0  0  0  0  0  0  0  0
   21.7567   -7.2977    0.0000 O   0  0  0  0  0  0  0  0  0  0  0  0
   23.2758   -6.6963    0.0000 C   0  0  0  0  0  0  0  0  0  0  0  0
   20.9718   -3.4649    0.0000 C   0  0  0  0  0  0  0  0  0  0  0  0
   21.1130   -1.9716    0.0000 O   0  0  0  0  0  0  0  0  0  0  0  0
   19.6079   -4.0893    0.0000 N   0  0  0  0  0  0  0  0  0  0  0  0
   18.3852   -3.2203    0.0000 C   0  0  0  0  0  0  0  0  0  0  0  0
   17.7418   -4.5752    0.0000 C   0  0  0  0  0  0  0  0  0  0  0  0
   18.5934   -5.8100    0.0000 C   0  0  0  0  0  0  0  0  0  0  0  0
   20.0886   -5.6898    0.0000 C   0  0  0  0  0  0  0  0  0  0  0  0
   20.9403   -6.9246    0.0000 C   0  0  0  0  0  0  0  0  0  0  0  0
   20.2968   -8.2795    0.0000 C   0  0  0  0  0  0  0  0  0  0  0  0
   21.1485   -9.5143    0.0000 O   0  0  0  0  0  0  0  0  0  0  0  0
   18.8016   -8.3997    0.0000 C   0  0  0  0  0  0  0  0  0  0  0  0
   17.9500   -7.1650    0.0000 C   0  0  0  0  0  0  0  0  0  0  0  0
   17.5336   -1.9855    0.0000 C   0  0  0  0  0  0  0  0  0  0  0  0
   16.1808   -2.6337    0.0000 O   0  0  0  0  0  0  0  0  0  0  0  0
   18.1770   -0.6306    0.0000 N   0  0  0  0  0  0  0  0  0  0  0  0
   17.3254    0.6042    0.0000 C   0  0  0  0  0  0  0  0  0  0  0  0
   16.5502   -0.6800    0.0000 C   0  0  0  0  0  0  0  0  0  0  0  0
   15.4309   -1.6786    0.0000 C   0  0  0  0  0  0  0  0  0  0  0  0
   14.0670   -2.3029    0.0000 C   0  0  0  0  0  0  0  0  0  0  0  0
   12.5797   -2.4975    0.0000 C   0  0  0  0  0  0  0  0  0  0  0  0
   18.8011    0.8727    0.0000 C   0  0  0  0  0  0  0  0  0  0  0  0
   17.6876    2.0598    0.0000 C   0  0  0  0  0  0  0  0  0  0  0  0
   19.1809    1.9185    0.0000 O   0  0  0  0  0  0  0  0  0  0  0  0
   17.6047    3.5575    0.0000 N   0  0  0  0  0  0  0  0  0  0  0  0
   17.0841    4.9643    0.0000 C   0  0  0  0  0  0  0  0  0  0  0  0
   16.1719    6.1550    0.0000 C   0  0  0  0  0  0  0  0  0  0  0  0
   17.2134    7.2345    0.0000 O   0  0  0  0  0  0  0  0  0  0  0  0
   14.9492    7.0240    0.0000 N   0  0  0  0  0  0  0  0  0  0  0  0
   13.5248    7.4940    0.0000 C   0  0  0  0  0  0  0  0  0  0  0  0
   12.9346    8.8731    0.0000 C   0  0  0  0  0  0  0  0  0  0  0  0
   12.0251    7.5233    0.0000 C   0  0  0  0  0  0  0  0  0  0  0  0
   11.8305    9.0106    0.0000 O   0  0  0  0  0  0  0  0  0  0  0  0
   10.5834    7.1092    0.0000 N   0  0  0  0  0  0  0  0  0  0  0  0
    9.3277    6.2886    0.0000 C   0  0  0  0  0  0  0  0  0  0  0  0
    7.8816    6.6870    0.0000 C   0  0  0  0  0  0  0  0  0  0  0  0
    7.5036    8.1386    0.0000 C   0  0  0  0  0  0  0  0  0  0  0  0
    8.5717    9.1918    0.0000 C   0  0  0  0  0  0  0  0  0  0  0  0
    8.1937   10.6433    0.0000 C   0  0  0  0  0  0  0  0  0  0  0  0
    6.7476   11.0418    0.0000 C   0  0  0  0  0  0  0  0  0  0  0  0
    5.6795    9.9886    0.0000 C   0  0  0  0  0  0  0  0  0  0  0  0
    6.0575    8.5370    0.0000 C   0  0  0  0  0  0  0  0  0  0  0  0
    8.3698    5.1343    0.0000 C   0  0  0  0  0  0  0  0  0  0  0  0
    7.0857    5.9095    0.0000 O   0  0  0  0  0  0  0  0  0  0  0  0
    7.7947    3.7489    0.0000 N   0  0  0  0  0  0  0  0  0  0  0  0
    7.6534    2.2556    0.0000 C   0  0  0  0  0  0  0  0  0  0  0  0
    7.9586    0.7870    0.0000 C   0  0  0  0  0  0  0  0  0  0  0  0
    8.6831   -0.5264    0.0000 C   0  0  0  0  0  0  0  0  0  0  0  0
    9.7626   -1.5680    0.0000 C   0  0  0  0  0  0  0  0  0  0  0  0
   11.1011   -2.2450    0.0000 C   0  0  0  0  0  0  0  0  0  0  0  0
    6.3503    2.9986    0.0000 C   0  0  0  0  0  0  0  0  0  0  0  0
    6.4403    1.3734    0.0000 C   0  0  0  0  0  0  0  0  0  0  0  0
    6.2321   -0.1121    0.0000 O   0  0  0  0  0  0  0  0  0  0  0  0
    5.0697    1.9829    0.0000 N   0  0  0  0  0  0  0  0  0  0  0  0
    3.8565    1.1007    0.0000 C   0  0  0  0  0  0  0  0  0  0  0  0
    3.0183   -0.1432    0.0000 C   0  0  0  0  0  0  0  0  0  0  0  0
    1.5219   -0.0392    0.0000 C   0  0  0  0  0  0  0  0  0  0  0  0
    0.6836   -1.2831    0.0000 N   0  0  0  0  0  0  0  0  0  0  0  0
    1.0092    0.5712    0.0000 O   0  0  0  0  0  0  0  0  0  0  0  0
    2.4860    1.7102    0.0000 C   0  0  0  0  0  0  0  0  0  0  0  0
    2.3285    3.2019    0.0000 O   0  0  0  0  0  0  0  0  0  0  0  0
    1.2728    0.8280    0.0000 N   0  0  0  0  0  0  0  0  0  0  0  0
   -0.0978    1.4375    0.0000 C   0  0  0  0  0  0  0  0  0  0  0  0
   -1.1772    2.4790    0.0000 C   0  0  0  0  0  0  0  0  0  0  0  0
   -2.6189    2.0650    0.0000 C   0  0  0  0  0  0  0  0  0  0  0  0
   -3.6984    3.1065    0.0000 C   0  0  0  0  0  0  0  0  0  0  0  0
   -3.8321    1.1828    0.0000 C   0  0  0  0  0  0  0  0  0  0  0  0
   -1.3109    0.5553    0.0000 C   0  0  0  0  0  0  0  0  0  0  0  0
   -1.3365   -0.9445    0.0000 O   0  0  0  0  0  0  0  0  0  0  0  0
   -2.6815    1.1648    0.0000 N   0  0  0  0  0  0  0  0  0  0  0  0
   -3.8946    0.2826    0.0000 C   0  0  0  0  0  0  0  0  0  0  0  0
   -4.7329   -0.9613    0.0000 C   0  0  0  0  0  0  0  0  0  0  0  0
   -6.2293   -0.8573    0.0000 C   0  0  0  0  0  0  0  0  0  0  0  0
   -6.8874    0.4906    0.0000 C   0  0  0  0  0  0  0  0  0  0  0  0
   -8.3838    0.5946    0.0000 C   0  0  0  0  0  0  0  0  0  0  0  0
   -9.2221   -0.6493    0.0000 C   0  0  0  0  0  0  0  0  0  0  0  0
   -8.5639   -1.9973    0.0000 C   0  0  0  0  0  0  0  0  0  0  0  0
   -7.0675   -2.1012    0.0000 C   0  0  0  0  0  0  0  0  0  0  0  0
   -5.2652    0.8921    0.0000 C   0  0  0  0  0  0  0  0  0  0  0  0
   -5.6033    2.3535    0.0000 O   0  0  0  0  0  0  0  0  0  0  0  0
   -6.4784    0.0099    0.0000 N   0  0  0  0  0  0  0  0  0  0  0  0
   -7.8490    0.6194    0.0000 C   0  0  0  0  0  0  0  0  0  0  0  0
   -8.9284    1.6610    0.0000 C   0  0  0  0  0  0  0  0  0  0  0  0
   -8.5662    3.1166    0.0000 C   0  0  0  0  0  0  0  0  0  0  0  0
   -9.6456    4.1581    0.0000 C   0  0  0  0  0  0  0  0  0  0  0  0
   -9.2834    5.6137    0.0000 N   0  0  0  0  0  0  0  0  0  0  0  0
  -11.0873    3.7440    0.0000 O   0  0  0  0  0  0  0  0  0  0  0  0
   -9.0621   -0.2628    0.0000 C   0  0  0  0  0  0  0  0  0  0  0  0
   -9.2703   -1.7483    0.0000 O   0  0  0  0  0  0  0  0  0  0  0  0
  -10.4327    0.3467    0.0000 N   0  0  0  0  0  0  0  0  0  0  0  0
  -11.6458   -0.5355    0.0000 C   0  0  0  0  0  0  0  0  0  0  0  0
  -12.4841   -1.7794    0.0000 C   0  0  0  0  0  0  0  0  0  0  0  0
  -13.9183   -2.2187    0.0000 O   0  0  0  0  0  0  0  0  0  0  0  0
  -13.0164    0.0740    0.0000 C   0  0  0  0  0  0  0  0  0  0  0  0
  -13.1738    1.5658    0.0000 O   0  0  0  0  0  0  0  0  0  0  0  0
  -14.2295   -0.8082    0.0000 N   0  0  0  0  0  0  0  0  0  0  0  0
  -15.6001   -0.1987    0.0000 C   0  0  0  0  0  0  0  0  0  0  0  0
  -16.6796    0.8429    0.0000 C   0  0  0  0  0  0  0  0  0  0  0  0
  -16.3173    2.2985    0.0000 C   0  0  0  0  0  0  0  0  0  0  0  0
  -16.8133   -1.0809    0.0000 C   0  0  0  0  0  0  0  0  0  0  0  0
  -16.6558   -2.5726    0.0000 O   0  0  0  0  0  0  0  0  0  0  0  0
  -18.1839   -0.4714    0.0000 N   0  0  0  0  0  0  0  0  0  0  0  0
  -19.3970   -1.3536    0.0000 C   0  0  0  0  0  0  0  0  0  0  0  0
  -20.2352   -2.5975    0.0000 C   0  0  0  0  0  0  0  0  0  0  0  0
  -21.7316   -2.4935    0.0000 C   0  0  0  0  0  0  0  0  0  0  0  0
  -22.5699   -3.7374    0.0000 C   0  0  0  0  0  0  0  0  0  0  0  0
  -24.0663   -3.6334    0.0000 N   0  0  0  0  0  0  0  0  0  0  0  0
  -24.9045   -4.8774    0.0000 C   0  0  0  0  0  0  0  0  0  0  0  0
  -26.3771   -4.5917    0.0000 N   0  0  0  0  0  0  0  0  0  0  0  0
  -24.2464   -6.2253    0.0000 N   0  0  0  0  0  0  0  0  0  0  0  0
  -20.7676   -0.7440    0.0000 C   0  0  0  0  0  0  0  0  0  0  0  0
  -20.9250    0.7477    0.0000 O   0  0  0  0  0  0  0  0  0  0  0  0
  -21.9807   -1.6263    0.0000 N   0  0  0  0  0  0  0  0  0  0  0  0
  -23.3513   -1.0167    0.0000 C   0  0  0  0  0  0  0  0  0  0  0  0
  -24.4308    0.0248    0.0000 C   0  0  0  0  0  0  0  0  0  0  0  0
  -24.0685    1.4804    0.0000 C   0  0  0  0  0  0  0  0  0  0  0  0
  -25.1480    2.5219    0.0000 C   0  0  0  0  0  0  0  0  0  0  0  0
  -24.7857    3.9775    0.0000 O   0  0  0  0  0  0  0  0  0  0  0  0
  -26.5897    2.1078    0.0000 O   0  0  0  0  0  0  0  0  0  0  0  0
  -24.5644   -1.8989    0.0000 C   0  0  0  0  0  0  0  0  0  0  0  0
  -24.7726   -3.3844    0.0000 O   0  0  0  0  0  0  0  0  0  0  0  0
  -25.9350   -1.2894    0.0000 N   0  0  0  0  0  0  0  0  0  0  0  0
  -27.1482   -2.1716    0.0000 C   0  0  0  0  0  0  0  0  0  0  0  0
  -27.9864   -3.4156    0.0000 C   0  0  0  0  0  0  0  0  0  0  0  0
  -29.4828   -3.3116    0.0000 C   0  0  0  0  0  0  0  0  0  0  0  0
  -28.5188   -1.5621    0.0000 C   0  0  0  0  0  0  0  0  0  0  0  0
  -29.8304   -2.2899    0.0000 O   0  0  0  0  0  0  0  0  0  0  0  0
  -28.6762   -0.0704    0.0000 O   0  0  0  0  0  0  0  0  0  0  0  0
   29.7371   -2.3697    0.0000 H   0  0  0  0  0  0  0  0  0  0  0  0
   29.0470   -4.8745    0.0000 H   0  0  0  0  0  0  0  0  0  0  0  0
   27.8663   -1.6695    0.0000 H   0  0  0  0  0  0  0  0  0  0  0  0
   26.0002   -2.1555    0.0000 H   0  0  0  0  0  0  0  0  0  0  0  0
   27.3774   -4.9466    0.0000 H   0  0  0  0  0  0  0  0  0  0  0  0
   25.5113   -5.4326    0.0000 H   0  0  0  0  0  0  0  0  0  0  0  0
   24.1927   -6.1271    0.0000 H   0  0  0  0  0  0  0  0  0  0  0  0
   22.8379   -2.9790    0.0000 H   0  0  0  0  0  0  0  0  0  0  0  0
   20.7464   -5.0908    0.0000 H   0  0  0  0  0  0  0  0  0  0  0  0
   22.1211   -8.4702    0.0000 H   0  0  0  0  0  0  0  0  0  0  0  0
   23.3176   -8.1957    0.0000 H   0  0  0  0  0  0  0  0  0  0  0  0
   24.7219   -7.0947    0.0000 H   0  0  0  0  0  0  0  0  0  0  0  0
   24.3622   -5.6620    0.0000 H   0  0  0  0  0  0  0  0  0  0  0  0
   19.8322   -5.5724    0.0000 H   0  0  0  0  0  0  0  0  0  0  0  0
   19.4533   -2.1671    0.0000 H   0  0  0  0  0  0  0  0  0  0  0  0
   16.6736   -5.6284    0.0000 H   0  0  0  0  0  0  0  0  0  0  0  0
   16.5191   -3.7062    0.0000 H   0  0  0  0  0  0  0  0  0  0  0  0
   20.7321   -4.3348    0.0000 H   0  0  0  0  0  0  0  0  0  0  0  0
   22.4355   -6.8043    0.0000 H   0  0  0  0  0  0  0  0  0  0  0  0
   20.5050  -10.8692    0.0000 H   0  0  0  0  0  0  0  0  0  0  0  0
   18.1581   -9.7547    0.0000 H   0  0  0  0  0  0  0  0  0  0  0  0
   16.4548   -7.2852    0.0000 H   0  0  0  0  0  0  0  0  0  0  0  0
   19.6757   -0.6935    0.0000 H   0  0  0  0  0  0  0  0  0  0  0  0
   17.9521   -1.2135    0.0000 H   0  0  0  0  0  0  0  0  0  0  0  0
   16.8223   -2.1551    0.0000 H   0  0  0  0  0  0  0  0  0  0  0  0
   16.3548   -2.8603    0.0000 H   0  0  0  0  0  0  0  0  0  0  0  0
   15.6218   -3.1664    0.0000 H   0  0  0  0  0  0  0  0  0  0  0  0
   15.0684   -3.4197    0.0000 H   0  0  0  0  0  0  0  0  0  0  0  0
   13.6326   -3.7386    0.0000 H   0  0  0  0  0  0  0  0  0  0  0  0
   12.5504   -3.9972    0.0000 H   0  0  0  0  0  0  0  0  0  0  0  0
   19.9037   -0.1443    0.0000 H   0  0  0  0  0  0  0  0  0  0  0  0
   20.0961    1.6297    0.0000 H   0  0  0  0  0  0  0  0  0  0  0  0
   18.6363    2.3636    0.0000 H   0  0  0  0  0  0  0  0  0  0  0  0
   19.0733    3.8627    0.0000 H   0  0  0  0  0  0  0  0  0  0  0  0
   17.7943    6.2855    0.0000 H   0  0  0  0  0  0  0  0  0  0  0  0
   18.5804    4.8603    0.0000 H   0  0  0  0  0  0  0  0  0  0  0  0
   15.6263    8.3625    0.0000 H   0  0  0  0  0  0  0  0  0  0  0  0
   14.5391    8.5991    0.0000 H   0  0  0  0  0  0  0  0  0  0  0  0
   13.8339   10.0737    0.0000 H   0  0  0  0  0  0  0  0  0  0  0  0
   11.9084    9.9671    0.0000 H   0  0  0  0  0  0  0  0  0  0  0  0
   11.5178    8.3806    0.0000 H   0  0  0  0  0  0  0  0  0  0  0  0
   10.1299    8.5390    0.0000 H   0  0  0  0  0  0  0  0  0  0  0  0
    9.0961    7.7706    0.0000 H   0  0  0  0  0  0  0  0  0  0  0  0
    6.3865    6.5668    0.0000 H   0  0  0  0  0  0  0  0  0  0  0  0
    7.3832    5.2722    0.0000 H   0  0  0  0  0  0  0  0  0  0  0  0
   10.0556    8.9726    0.0000 H   0  0  0  0  0  0  0  0  0  0  0  0
    9.2618   11.6965    0.0000 H   0  0  0  0  0  0  0  0  0  0  0  0
    6.3696   12.4934    0.0000 H   0  0  0  0  0  0  0  0  0  0  0  0
    4.2334   10.3870    0.0000 H   0  0  0  0  0  0  0  0  0  0  0  0
    4.9894    7.4839    0.0000 H   0  0  0  0  0  0  0  0  0  0  0  0
    6.3391    4.1112    0.0000 H   0  0  0  0  0  0  0  0  0  0  0  0
    7.0594   -0.4136    0.0000 H   0  0  0  0  0  0  0  0  0  0  0  0
    6.4591    0.7489    0.0000 H   0  0  0  0  0  0  0  0  0  0  0  0
    8.0093   -1.8666    0.0000 H   0  0  0  0  0  0  0  0  0  0  0  0
    7.2614   -1.0049    0.0000 H   0  0  0  0  0  0  0  0  0  0  0  0
    9.6959   -3.0665    0.0000 H   0  0  0  0  0  0  0  0  0  0  0  0
    8.4474   -2.2892    0.0000 H   0  0  0  0  0  0  0  0  0  0  0  0
   10.6310   -3.6695    0.0000 H   0  0  0  0  0  0  0  0  0  0  0  0
    4.9107    2.5774    0.0000 H   0  0  0  0  0  0  0  0  0  0  0  0
    5.5266    4.2521    0.0000 H   0  0  0  0  0  0  0  0  0  0  0  0
    7.0005    4.3503    0.0000 H   0  0  0  0  0  0  0  0  0  0  0  0
    4.7316    3.4443    0.0000 H   0  0  0  0  0  0  0  0  0  0  0  0
    4.9360    0.0592    0.0000 H   0  0  0  0  0  0  0  0  0  0  0  0
    2.6560   -1.5988    0.0000 H   0  0  0  0  0  0  0  0  0  0  0  0
    4.3889   -0.7527    0.0000 H   0  0  0  0  0  0  0  0  0  0  0  0
   -0.8143   -1.3623    0.0000 H   0  0  0  0  0  0  0  0  0  0  0  0
    1.3418   -2.6310    0.0000 H   0  0  0  0  0  0  0  0  0  0  0  0
    1.0646   -0.6575    0.0000 H   0  0  0  0  0  0  0  0  0  0  0  0
    0.7405    2.6814    0.0000 H   0  0  0  0  0  0  0  0  0  0  0  0
   -1.6662    3.8971    0.0000 H   0  0  0  0  0  0  0  0  0  0  0  0
    0.0359    3.3612    0.0000 H   0  0  0  0  0  0  0  0  0  0  0  0
   -2.6708    0.5659    0.0000 H   0  0  0  0  0  0  0  0  0  0  0  0
   -5.1975    3.0536    0.0000 H   0  0  0  0  0  0  0  0  0  0  0  0
   -4.3566    4.4544    0.0000 H   0  0  0  0  0  0  0  0  0  0  0  0
   -2.6019    4.1300    0.0000 H   0  0  0  0  0  0  0  0  0  0  0  0
   -5.1182    1.9548    0.0000 H   0  0  0  0  0  0  0  0  0  0  0  0
   -4.6703   -0.0612    0.0000 H   0  0  0  0  0  0  0  0  0  0  0  0
   -2.6337    0.2806    0.0000 H   0  0  0  0  0  0  0  0  0  0  0  0
   -3.1952    2.5741    0.0000 H   0  0  0  0  0  0  0  0  0  0  0  0
   -2.9502   -0.8827    0.0000 H   0  0  0  0  0  0  0  0  0  0  0  0
   -5.0951   -2.4169    0.0000 H   0  0  0  0  0  0  0  0  0  0  0  0
   -3.3623   -1.5708    0.0000 H   0  0  0  0  0  0  0  0  0  0  0  0
   -6.3751    1.9004    0.0000 H   0  0  0  0  0  0  0  0  0  0  0  0
   -9.3486    1.7432    0.0000 H   0  0  0  0  0  0  0  0  0  0  0  0
  -10.7185   -0.5454    0.0000 H   0  0  0  0  0  0  0  0  0  0  0  0
   -9.4022   -3.2412    0.0000 H   0  0  0  0  0  0  0  0  0  0  0  0
   -6.4094   -3.4491    0.0000 H   0  0  0  0  0  0  0  0  0  0  0  0
   -6.6866   -1.4756    0.0000 H   0  0  0  0  0  0  0  0  0  0  0  0
   -6.8653    1.7519    0.0000 H   0  0  0  0  0  0  0  0  0  0  0  0
  -10.2145    2.4330    0.0000 H   0  0  0  0  0  0  0  0  0  0  0  0
  -10.0427    0.6568    0.0000 H   0  0  0  0  0  0  0  0  0  0  0  0
   -7.7279    4.3605    0.0000 H   0  0  0  0  0  0  0  0  0  0  0  0
   -7.1315    2.6787    0.0000 H   0  0  0  0  0  0  0  0  0  0  0  0
  -10.3628    6.6552    0.0000 H   0  0  0  0  0  0  0  0  0  0  0  0
   -7.8417    6.0278    0.0000 H   0  0  0  0  0  0  0  0  0  0  0  0
  -10.7708    1.8081    0.0000 H   0  0  0  0  0  0  0  0  0  0  0  0
  -10.5664   -1.5770    0.0000 H   0  0  0  0  0  0  0  0  0  0  0  0
  -12.8463   -3.2350    0.0000 H   0  0  0  0  0  0  0  0  0  0  0  0
  -11.1135   -2.3889    0.0000 H   0  0  0  0  0  0  0  0  0  0  0  0
  -14.8187   -2.9193    0.0000 H   0  0  0  0  0  0  0  0  0  0  0  0
  -14.2551   -2.3079    0.0000 H   0  0  0  0  0  0  0  0  0  0  0  0
  -14.6165    0.9338    0.0000 H   0  0  0  0  0  0  0  0  0  0  0  0
  -17.9657    1.6149    0.0000 H   0  0  0  0  0  0  0  0  0  0  0  0
  -17.7939   -0.1613    0.0000 H   0  0  0  0  0  0  0  0  0  0  0  0
  -17.3968    3.3400    0.0000 H   0  0  0  0  0  0  0  0  0  0  0  0
  -15.4791    3.5424    0.0000 H   0  0  0  0  0  0  0  0  0  0  0  0
  -14.8827    1.8606    0.0000 H   0  0  0  0  0  0  0  0  0  0  0  0
  -18.5220    0.9900    0.0000 H   0  0  0  0  0  0  0  0  0  0  0  0
  -18.3175   -2.3951    0.0000 H   0  0  0  0  0  0  0  0  0  0  0  0
  -20.4174   -4.0864    0.0000 H   0  0  0  0  0  0  0  0  0  0  0  0
  -18.8647   -3.2070    0.0000 H   0  0  0  0  0  0  0  0  0  0  0  0
  -23.1022   -1.8840    0.0000 H   0  0  0  0  0  0  0  0  0  0  0  0
  -22.0953   -1.0382    0.0000 H   0  0  0  0  0  0  0  0  0  0  0  0
  -22.9321   -5.1930    0.0000 H   0  0  0  0  0  0  0  0  0  0  0  0
  -21.2838   -4.5094    0.0000 H   0  0  0  0  0  0  0  0  0  0  0  0
  -25.0310   -2.4848    0.0000 H   0  0  0  0  0  0  0  0  0  0  0  0
  -27.2392   -6.0173    0.0000 H   0  0  0  0  0  0  0  0  0  0  0  0
  -26.9118   -3.3510    0.0000 H   0  0  0  0  0  0  0  0  0  0  0  0
  -25.0846   -7.4692    0.0000 H   0  0  0  0  0  0  0  0  0  0  0  0
  -22.7500   -6.3292    0.0000 H   0  0  0  0  0  0  0  0  0  0  0  0
  -22.1889   -3.1117    0.0000 H   0  0  0  0  0  0  0  0  0  0  0  0
  -22.3677    0.1157    0.0000 H   0  0  0  0  0  0  0  0  0  0  0  0
  -25.7168    0.7968    0.0000 H   0  0  0  0  0  0  0  0  0  0  0  0
  -25.5451   -0.9793    0.0000 H   0  0  0  0  0  0  0  0  0  0  0  0
  -23.2303    2.7243    0.0000 H   0  0  0  0  0  0  0  0  0  0  0  0
  -22.6339    1.0425    0.0000 H   0  0  0  0  0  0  0  0  0  0  0  0
  -26.2731    0.1720    0.0000 H   0  0  0  0  0  0  0  0  0  0  0  0
  -26.0687   -3.2132    0.0000 H   0  0  0  0  0  0  0  0  0  0  0  0
  -28.3487   -4.8712    0.0000 H   0  0  0  0  0  0  0  0  0  0  0  0
  -26.5091   -3.6753    0.0000 H   0  0  0  0  0  0  0  0  0  0  0  0
  -30.3211   -4.5555    0.0000 H   0  0  0  0  0  0  0  0  0  0  0  0
  -30.8534   -2.7021    0.0000 H   0  0  0  0  0  0  0  0  0  0  0  0
  -29.6664   -1.8229    0.0000 H   0  0  0  0  0  0  0  0  0  0  0  0
  1  2  1  0
  2  3  1  0
  3  4  1  0
  4  5  2  0
  4  6  1  0
  6  7  1  0
  7  8  1  0
  8  9  1  0
  8 10  1  0
  7 11  1  0
 11 12  2  0
 11 13  1  0
 13 14  1  0
 14 15  1  0
 15 16  1  0
 16 17  2  0
 17 18  1  0
 18 19  2  0
 19 20  1  0
 19 21  1  0
 21 22  2  0
 14 23  1  0
 23 24  2  0
 23 25  1  0
 26 25  1  1
 26 27  1  0
 27 28  1  0
 28 29  1  0
 29 30  1  0
 26 31  1  0
 26 32  1  0
 32 33  2  0
 32 34  1  0
 34 35  1  0
 35 36  1  0
 36 37  2  0
 36 38  1  0
 38 39  1  0
 39 40  1  0
 39 41  1  0
 41 42  2  0
 41 43  1  0
 43 44  1  0
 44 45  1  0
 45 46  1  0
 46 47  2  0
 47 48  1  0
 48 49  2  0
 49 50  1  0
 50 51  2  0
 44 52  1  0
 52 53  2  0
 52 54  1  0
 54 55  1  0
 55 56  1  0
 56 57  1  0
 57 58  1  0
 58 59  1  0
 55 60  1  0
 55 61  1  1
 61 62  2  0
 61 63  1  0
 63 64  1  0
 64 65  1  0
 65 66  1  0
 66 67  1  0
 66 68  2  0
 64 69  1  0
 69 70  2  0
 69 71  1  0
 71 72  1  0
 72 73  1  0
 73 74  1  0
 74 75  1  0
 74 76  1  0
 72 77  1  0
 77 78  2  0
 77 79  1  0
 79 80  1  0
 80 81  1  0
 81 82  1  0
 82 83  2  0
 83 84  1  0
 84 85  2  0
 85 86  1  0
 86 87  2  0
 80 88  1  0
 88 89  2  0
 88 90  1  0
 90 91  1  0
 91 92  1  0
 92 93  1  0
 93 94  1  0
 94 95  1  0
 94 96  2  0
 91 97  1  0
 97 98  2  0
 97 99  1  0
 99100  1  0
100101  1  0
101102  1  0
100103  1  0
103104  2  0
103105  1  0
105106  1  0
106107  1  0
107108  1  0
106109  1  0
109110  2  0
109111  1  0
111112  1  0
112113  1  0
113114  1  0
114115  1  0
115116  1  0
116117  1  0
117118  2  3
117119  1  0
112120  1  0
120121  2  0
120122  1  0
122123  1  0
123124  1  0
124125  1  0
125126  1  0
126127  2  0
126128  1  0
123129  1  0
129130  2  0
129131  1  0
131132  1  0
132133  1  0
133134  1  0
132135  1  0
135136  2  0
135137  1  0
 22 16  1  0
 51 46  1  0
 87 82  1  0
 30 59  2  0
  1138  1  0
  1139  1  0
  2140  1  0
  2141  1  0
  3142  1  0
  3143  1  0
  6144  1  0
  7145  1  1
  8146  1  6
  9147  1  0
 10148  1  0
 10149  1  0
 10150  1  0
 13151  1  0
 14152  1  1
 15153  1  0
 15154  1  0
 17155  1  0
 18156  1  0
 20157  1  0
 21158  1  0
 22159  1  0
 25160  1  0
 27161  1  0
 27162  1  0
 28163  1  0
 28164  1  0
 29165  1  0
 29166  1  0
 30167  1  0
 31168  1  0
 31169  1  0
 31170  1  0
 34171  1  0
 35172  1  0
 35173  1  0
 38174  1  0
 39175  1  6
 40176  1  0
 40177  1  0
 40178  1  0
 43179  1  0
 44180  1  6
 45181  1  0
 45182  1  0
 47183  1  0
 48184  1  0
 49185  1  0
 50186  1  0
 51187  1  0
 54188  1  0
 56189  1  0
 56190  1  0
 57191  1  0
 57192  1  0
 58193  1  0
 58194  1  0
 59195  1  0
 60196  1  0
 60197  1  0
 60198  1  0
 63199  1  0
 64200  1  1
 65201  1  0
 65202  1  0
 67203  1  0
 67204  1  0
 71205  1  0
 72206  1  6
 73207  1  0
 73208  1  0
 74209  1  0
 75210  1  0
 75211  1  0
 75212  1  0
 76213  1  0
 76214  1  0
 76215  1  0
 79216  1  0
 80217  1  1
 81218  1  0
 81219  1  0
 83220  1  0
 84221  1  0
 85222  1  0
 86223  1  0
 87224  1  0
 90225  1  0
 91226  1  6
 92227  1  0
 92228  1  0
 93229  1  0
 93230  1  0
 95231  1  0
 95232  1  0
 99233  1  0
100234  1  1
101235  1  0
101236  1  0
102237  1  0
105238  1  0
106239  1  6
107240  1  0
107241  1  0
108242  1  0
108243  1  0
108244  1  0
111245  1  0
112246  1  1
113247  1  0
113248  1  0
114249  1  0
114250  1  0
115251  1  0
115252  1  0
116253  1  0
118254  1  0
118255  1  0
119256  1  0
119257  1  0
122258  1  0
123259  1  6
124260  1  0
124261  1  0
125262  1  0
125263  1  0
131264  1  0
132265  1  1
133266  1  0
133267  1  0
134268  1  0
134269  1  0
134270  1  0
M  CHG  3 118   1 128  -1 137  -1
M  END
