
     RDKit          2D

287294  0  0  0  0  0  0  0  0999 V2000
  -19.2519   -6.3232    0.0000 C   0  0  0  0  0  0  0  0  0  0  0  0
  -19.0341   -7.8074    0.0000 N   0  0  0  0  0  0  0  0  0  0  0  0
  -20.2105   -8.7380    0.0000 C   0  0  0  0  0  0  0  0  0  0  0  0
  -21.6047   -8.1845    0.0000 C   0  0  0  0  0  0  0  0  0  0  0  0
  -22.7811   -9.1151    0.0000 C   0  0  0  0  0  0  0  0  0  0  0  0
  -22.5633  -10.5993    0.0000 C   0  0  0  0  0  0  0  0  0  0  0  0
  -21.1692  -11.1527    0.0000 C   0  0  0  0  0  0  0  0  0  0  0  0
  -19.9928  -10.2221    0.0000 C   0  0  0  0  0  0  0  0  0  0  0  0
  -21.2648  -12.6497    0.0000 C   0  0  0  0  0  0  0  0  0  0  0  0
  -22.7180  -13.0214    0.0000 O   0  0  0  0  0  0  0  0  0  0  0  0
  -23.5205  -11.7541    0.0000 C   0  0  0  0  0  0  0  0  0  0  0  0
  -25.0175  -11.6586    0.0000 O   0  0  0  0  0  0  0  0  0  0  0  0
  -21.5163  -14.1284    0.0000 C   0  0  0  0  0  0  0  0  0  0  0  0
  -20.3614  -15.0857    0.0000 C   0  0  0  0  0  0  0  0  0  0  0  0
  -20.6129  -16.5644    0.0000 C   0  0  0  0  0  0  0  0  0  0  0  0
  -22.0193  -17.0860    0.0000 C   0  0  0  0  0  0  0  0  0  0  0  0
  -23.1742  -16.1288    0.0000 C   0  0  0  0  0  0  0  0  0  0  0  0
  -22.9227  -14.6500    0.0000 C   0  0  0  0  0  0  0  0  0  0  0  0
  -22.2708  -18.5647    0.0000 O   0  0  0  0  0  0  0  0  0  0  0  0
  -18.9550  -14.5641    0.0000 O   0  0  0  0  0  0  0  0  0  0  0  0
  -18.7035  -13.0853    0.0000 C   0  0  0  0  0  0  0  0  0  0  0  0
  -19.8583  -12.1281    0.0000 C   0  0  0  0  0  0  0  0  0  0  0  0
  -19.0679  -11.0961    0.0000 C   0  0  0  0  0  0  0  0  0  0  0  0
  -18.3178  -10.8179    0.0000 C   0  0  0  0  0  0  0  0  0  0  0  0
  -17.7019  -11.3284    0.0000 C   0  0  0  0  0  0  0  0  0  0  0  0
  -17.8360  -12.1171    0.0000 C   0  0  0  0  0  0  0  0  0  0  0  0
  -15.6391  -10.5635    0.0000 O   0  0  0  0  0  0  0  0  0  0  0  0
  -20.6460   -5.7698    0.0000 S   0  0  0  0  0  0  0  0  0  0  0  0
  -18.0755   -5.3926    0.0000 N   0  0  0  0  0  0  0  0  0  0  0  0
  -18.2932   -3.9085    0.0000 C   0  0  0  0  0  0  0  0  0  0  0  0
  -17.1168   -2.9779    0.0000 C   0  0  0  0  0  0  0  0  0  0  0  0
  -17.3346   -1.4938    0.0000 C   0  0  0  0  0  0  0  0  0  0  0  0
  -18.7287   -0.9403    0.0000 O   0  0  0  0  0  0  0  0  0  0  0  0
  -16.1582   -0.5631    0.0000 N   0  0  0  0  0  0  0  0  0  0  0  0
  -16.3759    0.9210    0.0000 C   0  0  0  0  0  0  0  0  0  0  0  0
  -17.0882    2.2411    0.0000 C   0  0  0  0  0  0  0  0  0  0  0  0
  -16.3010    3.5180    0.0000 C   0  0  0  0  0  0  0  0  0  0  0  0
  -17.0132    4.8381    0.0000 N   0  0  0  0  0  0  0  0  0  0  0  0
  -15.5223    3.6885    0.0000 O   0  0  0  0  0  0  0  0  0  0  0  0
  -15.1995    1.8516    0.0000 C   0  0  0  0  0  0  0  0  0  0  0  0
  -13.8054    1.2981    0.0000 O   0  0  0  0  0  0  0  0  0  0  0  0
  -15.4173    3.3357    0.0000 N   0  0  0  0  0  0  0  0  0  0  0  0
  -16.7460    4.0319    0.0000 C   0  0  0  0  0  0  0  0  0  0  0  0
  -16.4944    5.5107    0.0000 C   0  0  0  0  0  0  0  0  0  0  0  0
  -15.0103    5.7284    0.0000 C   0  0  0  0  0  0  0  0  0  0  0  0
  -14.3446    4.3842    0.0000 C   0  0  0  0  0  0  0  0  0  0  0  0
  -13.0774    5.1868    0.0000 C   0  0  0  0  0  0  0  0  0  0  0  0
  -12.9557    6.6819    0.0000 O   0  0  0  0  0  0  0  0  0  0  0  0
  -11.7487    4.4906    0.0000 N   0  0  0  0  0  0  0  0  0  0  0  0
  -10.4815    5.2932    0.0000 C   0  0  0  0  0  0  0  0  0  0  0  0
   -9.5652    6.4808    0.0000 C   0  0  0  0  0  0  0  0  0  0  0  0
   -8.0785    6.2810    0.0000 C   0  0  0  0  0  0  0  0  0  0  0  0
   -7.1622    7.4686    0.0000 C   0  0  0  0  0  0  0  0  0  0  0  0
   -5.6714    7.6345    0.0000 O   0  0  0  0  0  0  0  0  0  0  0  0
   -8.0513    8.6767    0.0000 O   0  0  0  0  0  0  0  0  0  0  0  0
   -9.1528    4.5970    0.0000 C   0  0  0  0  0  0  0  0  0  0  0  0
   -9.2745    3.1020    0.0000 O   0  0  0  0  0  0  0  0  0  0  0  0
   -7.8856    5.3996    0.0000 N   0  0  0  0  0  0  0  0  0  0  0  0
   -6.5569    4.7034    0.0000 C   0  0  0  0  0  0  0  0  0  0  0  0
   -6.1997    3.2466    0.0000 C   0  0  0  0  0  0  0  0  0  0  0  0
   -5.4290    1.9597    0.0000 C   0  0  0  0  0  0  0  0  0  0  0  0
   -4.3132    0.9572    0.0000 C   0  0  0  0  0  0  0  0  0  0  0  0
   -2.9515    0.3281    0.0000 C   0  0  0  0  0  0  0  0  0  0  0  0
   -7.8419    3.9295    0.0000 C   0  0  0  0  0  0  0  0  0  0  0  0
   -6.4688    6.2008    0.0000 C   0  0  0  0  0  0  0  0  0  0  0  0
   -7.7276    7.0166    0.0000 O   0  0  0  0  0  0  0  0  0  0  0  0
   -5.9433    7.6058    0.0000 N   0  0  0  0  0  0  0  0  0  0  0  0
   -5.0269    8.7933    0.0000 C   0  0  0  0  0  0  0  0  0  0  0  0
   -5.3111   10.2662    0.0000 C   0  0  0  0  0  0  0  0  0  0  0  0
   -6.7286   10.7566    0.0000 C   0  0  0  0  0  0  0  0  0  0  0  0
   -5.0743   11.7474    0.0000 C   0  0  0  0  0  0  0  0  0  0  0  0
   -6.2387   12.6930    0.0000 C   0  0  0  0  0  0  0  0  0  0  0  0
   -3.8013    9.6581    0.0000 C   0  0  0  0  0  0  0  0  0  0  0  0
   -4.3052   11.0709    0.0000 O   0  0  0  0  0  0  0  0  0  0  0  0
   -2.3752   10.1231    0.0000 N   0  0  0  0  0  0  0  0  0  0  0  0
   -0.8754   10.1472    0.0000 C   0  0  0  0  0  0  0  0  0  0  0  0
    0.0990   11.2876    0.0000 C   0  0  0  0  0  0  0  0  0  0  0  0
   -0.4015   12.7017    0.0000 C   0  0  0  0  0  0  0  0  0  0  0  0
    0.5729   13.8421    0.0000 C   0  0  0  0  0  0  0  0  0  0  0  0
   -1.3554   13.8593    0.0000 C   0  0  0  0  0  0  0  0  0  0  0  0
    0.5649    9.7281    0.0000 C   0  0  0  0  0  0  0  0  0  0  0  0
    1.1939   11.0898    0.0000 O   0  0  0  0  0  0  0  0  0  0  0  0
    1.8176    8.9031    0.0000 N   0  0  0  0  0  0  0  0  0  0  0  0
    2.7715    7.7455    0.0000 C   0  0  0  0  0  0  0  0  0  0  0  0
    4.2707    7.6947    0.0000 C   0  0  0  0  0  0  0  0  0  0  0  0
    5.0642    8.9676    0.0000 C   0  0  0  0  0  0  0  0  0  0  0  0
    6.5633    8.9169    0.0000 O   0  0  0  0  0  0  0  0  0  0  0  0
    4.3586   10.2913    0.0000 O   0  0  0  0  0  0  0  0  0  0  0  0
    3.3418    6.3581    0.0000 C   0  0  0  0  0  0  0  0  0  0  0  0
    4.7987    6.7153    0.0000 O   0  0  0  0  0  0  0  0  0  0  0  0
    3.4779    4.8643    0.0000 N   0  0  0  0  0  0  0  0  0  0  0  0
    3.1676    3.3967    0.0000 C   0  0  0  0  0  0  0  0  0  0  0  0
    2.4385    2.0859    0.0000 C   0  0  0  0  0  0  0  0  0  0  0  0
    1.3554    1.0481    0.0000 C   0  0  0  0  0  0  0  0  0  0  0  0
    0.0146    0.3757    0.0000 C   0  0  0  0  0  0  0  0  0  0  0  0
   -1.4649    0.1284    0.0000 C   0  0  0  0  0  0  0  0  0  0  0  0
    4.6329    3.7175    0.0000 C   0  0  0  0  0  0  0  0  0  0  0  0
    4.0626    2.1930    0.0000 C   0  0  0  0  0  0  0  0  0  0  0  0
    3.8186    0.7130    0.0000 O   0  0  0  0  0  0  0  0  0  0  0  0
    5.5526    2.3663    0.0000 N   0  0  0  0  0  0  0  0  0  0  0  0
    6.4476    1.1626    0.0000 C   0  0  0  0  0  0  0  0  0  0  0  0
    6.8770   -0.2747    0.0000 C   0  0  0  0  0  0  0  0  0  0  0  0
    5.8470   -1.3651    0.0000 C   0  0  0  0  0  0  0  0  0  0  0  0
    6.1237   -2.8394    0.0000 C   0  0  0  0  0  0  0  0  0  0  0  0
    4.8072   -3.5581    0.0000 N   0  0  0  0  0  0  0  0  0  0  0  0
    3.7167   -2.5281    0.0000 C   0  0  0  0  0  0  0  0  0  0  0  0
    4.3593   -1.1728    0.0000 N   0  0  0  0  0  0  0  0  0  0  0  0
    7.9376    1.3358    0.0000 C   0  0  0  0  0  0  0  0  0  0  0  0
    8.5325    2.7128    0.0000 O   0  0  0  0  0  0  0  0  0  0  0  0
    8.8326    0.1321    0.0000 N   0  0  0  0  0  0  0  0  0  0  0  0
   10.3226    0.3054    0.0000 C   0  0  0  0  0  0  0  0  0  0  0  0
   11.6634    0.9778    0.0000 C   0  0  0  0  0  0  0  0  0  0  0  0
   13.0074    0.3116    0.0000 C   0  0  0  0  0  0  0  0  0  0  0  0
   11.2176   -0.8983    0.0000 C   0  0  0  0  0  0  0  0  0  0  0  0
   10.6227   -2.2753    0.0000 O   0  0  0  0  0  0  0  0  0  0  0  0
   12.7075   -0.7251    0.0000 N   0  0  0  0  0  0  0  0  0  0  0  0
   13.6026   -1.9288    0.0000 C   0  0  0  0  0  0  0  0  0  0  0  0
   14.0319   -3.3660    0.0000 C   0  0  0  0  0  0  0  0  0  0  0  0
   13.0019   -4.4565    0.0000 C   0  0  0  0  0  0  0  0  0  0  0  0
   13.4313   -5.8937    0.0000 C   0  0  0  0  0  0  0  0  0  0  0  0
   12.4013   -6.9842    0.0000 N   0  0  0  0  0  0  0  0  0  0  0  0
   14.8906   -6.2405    0.0000 O   0  0  0  0  0  0  0  0  0  0  0  0
   15.0925   -1.7555    0.0000 C   0  0  0  0  0  0  0  0  0  0  0  0
   15.6875   -0.3786    0.0000 O   0  0  0  0  0  0  0  0  0  0  0  0
   15.9876   -2.9593    0.0000 N   0  0  0  0  0  0  0  0  0  0  0  0
   17.4775   -2.7860    0.0000 C   0  0  0  0  0  0  0  0  0  0  0  0
   18.8184   -2.1136    0.0000 C   0  0  0  0  0  0  0  0  0  0  0  0
   20.0711   -2.9386    0.0000 C   0  0  0  0  0  0  0  0  0  0  0  0
   21.4120   -2.2662    0.0000 C   0  0  0  0  0  0  0  0  0  0  0  0
   22.6647   -3.0912    0.0000 N   0  0  0  0  0  0  0  0  0  0  0  0
   24.0055   -2.4188    0.0000 C   0  0  0  0  0  0  0  0  0  0  0  0
   25.1484   -3.3903    0.0000 N   0  0  0  0  0  0  0  0  0  0  0  0
   24.0937   -0.9214    0.0000 N   0  0  0  0  0  0  0  0  0  0  0  0
   18.3725   -3.9897    0.0000 C   0  0  0  0  0  0  0  0  0  0  0  0
   17.7776   -5.3667    0.0000 O   0  0  0  0  0  0  0  0  0  0  0  0
   19.8625   -3.8165    0.0000 N   0  0  0  0  0  0  0  0  0  0  0  0
   20.7575   -5.0202    0.0000 C   0  0  0  0  0  0  0  0  0  0  0  0
   21.1869   -6.4574    0.0000 C   0  0  0  0  0  0  0  0  0  0  0  0
   20.1569   -7.5479    0.0000 C   0  0  0  0  0  0  0  0  0  0  0  0
   22.2475   -4.8469    0.0000 C   0  0  0  0  0  0  0  0  0  0  0  0
   23.1579   -3.6548    0.0000 O   0  0  0  0  0  0  0  0  0  0  0  0
   23.1425   -6.0506    0.0000 N   0  0  0  0  0  0  0  0  0  0  0  0
   24.6325   -5.8774    0.0000 C   0  0  0  0  0  0  0  0  0  0  0  0
   25.9733   -5.2050    0.0000 C   0  0  0  0  0  0  0  0  0  0  0  0
   27.2261   -6.0300    0.0000 C   0  0  0  0  0  0  0  0  0  0  0  0
   28.5669   -5.3576    0.0000 S   0  0  0  0  0  0  0  0  0  0  0  0
   29.8197   -6.1826    0.0000 C   0  0  0  0  0  0  0  0  0  0  0  0
   25.5275   -7.0811    0.0000 C   0  0  0  0  0  0  0  0  0  0  0  0
   27.0275   -7.0907    0.0000 O   0  0  0  0  0  0  0  0  0  0  0  0
   24.9326   -8.4581    0.0000 O   0  0  0  0  0  0  0  0  0  0  0  0
  -17.5829   -8.1868    0.0000 H   0  0  0  0  0  0  0  0  0  0  0  0
  -21.8224   -6.7004    0.0000 H   0  0  0  0  0  0  0  0  0  0  0  0
  -24.1752   -8.5617    0.0000 H   0  0  0  0  0  0  0  0  0  0  0  0
  -18.5061  -10.4218    0.0000 H   0  0  0  0  0  0  0  0  0  0  0  0
  -19.4580  -17.5216    0.0000 H   0  0  0  0  0  0  0  0  0  0  0  0
  -24.5806  -16.6503    0.0000 H   0  0  0  0  0  0  0  0  0  0  0  0
  -24.0776  -13.6928    0.0000 H   0  0  0  0  0  0  0  0  0  0  0  0
  -23.6772  -19.0863    0.0000 H   0  0  0  0  0  0  0  0  0  0  0  0
  -20.7617   -9.6922    0.0000 H   0  0  0  0  0  0  0  0  0  0  0  0
  -17.7705   -8.6907    0.0000 H   0  0  0  0  0  0  0  0  0  0  0  0
  -16.1422  -13.5210    0.0000 H   0  0  0  0  0  0  0  0  0  0  0  0
  -14.4842  -11.5207    0.0000 H   0  0  0  0  0  0  0  0  0  0  0  0
  -16.6813   -5.9461    0.0000 H   0  0  0  0  0  0  0  0  0  0  0  0
  -19.0055   -2.5884    0.0000 H   0  0  0  0  0  0  0  0  0  0  0  0
  -19.7170   -4.3807    0.0000 H   0  0  0  0  0  0  0  0  0  0  0  0
  -15.6931   -2.5057    0.0000 H   0  0  0  0  0  0  0  0  0  0  0  0
  -16.4046   -4.2980    0.0000 H   0  0  0  0  0  0  0  0  0  0  0  0
  -14.7640   -1.1166    0.0000 H   0  0  0  0  0  0  0  0  0  0  0  0
  -17.7997    0.4488    0.0000 H   0  0  0  0  0  0  0  0  0  0  0  0
  -18.2089    3.2380    0.0000 H   0  0  0  0  0  0  0  0  0  0  0  0
  -18.2646    1.3105    0.0000 H   0  0  0  0  0  0  0  0  0  0  0  0
  -16.5584    6.2675    0.0000 H   0  0  0  0  0  0  0  0  0  0  0  0
  -18.5126    4.8814    0.0000 H   0  0  0  0  0  0  0  0  0  0  0  0
  -17.6203    2.8131    0.0000 H   0  0  0  0  0  0  0  0  0  0  0  0
  -18.2289    4.2575    0.0000 H   0  0  0  0  0  0  0  0  0  0  0  0
  -17.9686    5.7880    0.0000 H   0  0  0  0  0  0  0  0  0  0  0  0
  -16.5559    7.0094    0.0000 H   0  0  0  0  0  0  0  0  0  0  0  0
  -15.3820    7.1816    0.0000 H   0  0  0  0  0  0  0  0  0  0  0  0
  -13.6780    6.4175    0.0000 H   0  0  0  0  0  0  0  0  0  0  0  0
  -13.4140    3.2078    0.0000 H   0  0  0  0  0  0  0  0  0  0  0  0
  -11.6873    2.9919    0.0000 H   0  0  0  0  0  0  0  0  0  0  0  0
  -11.4919    6.4018    0.0000 H   0  0  0  0  0  0  0  0  0  0  0  0
   -9.1103    7.9102    0.0000 H   0  0  0  0  0  0  0  0  0  0  0  0
  -10.8938    7.1770    0.0000 H   0  0  0  0  0  0  0  0  0  0  0  0
   -6.6209    5.9271    0.0000 H   0  0  0  0  0  0  0  0  0  0  0  0
   -7.9908    4.7836    0.0000 H   0  0  0  0  0  0  0  0  0  0  0  0
   -6.7968   10.0034    0.0000 H   0  0  0  0  0  0  0  0  0  0  0  0
   -7.7639    6.8947    0.0000 H   0  0  0  0  0  0  0  0  0  0  0  0
   -7.6969    3.3384    0.0000 H   0  0  0  0  0  0  0  0  0  0  0  0
   -7.0557    2.0148    0.0000 H   0  0  0  0  0  0  0  0  0  0  0  0
   -6.8328    1.4311    0.0000 H   0  0  0  0  0  0  0  0  0  0  0  0
   -6.0547    0.5965    0.0000 H   0  0  0  0  0  0  0  0  0  0  0  0
   -5.6020    0.1897    0.0000 H   0  0  0  0  0  0  0  0  0  0  0  0
   -4.3266   -0.5427    0.0000 H   0  0  0  0  0  0  0  0  0  0  0  0
   -3.3706   -1.1121    0.0000 H   0  0  0  0  0  0  0  0  0  0  0  0
   -7.9328    2.2661    0.0000 H   0  0  0  0  0  0  0  0  0  0  0  0
   -9.0791    3.1570    0.0000 H   0  0  0  0  0  0  0  0  0  0  0  0
   -8.8240    4.8087    0.0000 H   0  0  0  0  0  0  0  0  0  0  0  0
   -7.1555    8.4892    0.0000 H   0  0  0  0  0  0  0  0  0  0  0  0
   -6.5177    8.9597    0.0000 H   0  0  0  0  0  0  0  0  0  0  0  0
   -3.8616   10.6524    0.0000 H   0  0  0  0  0  0  0  0  0  0  0  0
   -7.1902   12.1838    0.0000 H   0  0  0  0  0  0  0  0  0  0  0  0
   -8.2285   10.7325    0.0000 H   0  0  0  0  0  0  0  0  0  0  0  0
   -7.1643    9.3251    0.0000 H   0  0  0  0  0  0  0  0  0  0  0  0
   -4.3452   13.0583    0.0000 H   0  0  0  0  0  0  0  0  0  0  0  0
   -3.6075   11.4335    0.0000 H   0  0  0  0  0  0  0  0  0  0  0  0
   -6.0019   14.1742    0.0000 H   0  0  0  0  0  0  0  0  0  0  0  0
   -7.6563   13.1834    0.0000 H   0  0  0  0  0  0  0  0  0  0  0  0
   -7.2633   11.5975    0.0000 H   0  0  0  0  0  0  0  0  0  0  0  0
   -2.6225   11.6026    0.0000 H   0  0  0  0  0  0  0  0  0  0  0  0
   -1.6748   11.4164    0.0000 H   0  0  0  0  0  0  0  0  0  0  0  0
    1.4849   11.8614    0.0000 H   0  0  0  0  0  0  0  0  0  0  0  0
    1.3046   10.3952    0.0000 H   0  0  0  0  0  0  0  0  0  0  0  0
   -1.7874   12.1279    0.0000 H   0  0  0  0  0  0  0  0  0  0  0  0
    0.2485   15.3066    0.0000 H   0  0  0  0  0  0  0  0  0  0  0  0
    1.8786   14.5805    0.0000 H   0  0  0  0  0  0  0  0  0  0  0  0
    1.6608   12.8094    0.0000 H   0  0  0  0  0  0  0  0  0  0  0  0
   -1.0050   15.3178    0.0000 H   0  0  0  0  0  0  0  0  0  0  0  0
   -2.6477   14.6208    0.0000 H   0  0  0  0  0  0  0  0  0  0  0  0
   -2.3298   12.7188    0.0000 H   0  0  0  0  0  0  0  0  0  0  0  0
    2.8201   10.0189    0.0000 H   0  0  0  0  0  0  0  0  0  0  0  0
    3.4344    9.0911    0.0000 H   0  0  0  0  0  0  0  0  0  0  0  0
    5.6620    7.1343    0.0000 H   0  0  0  0  0  0  0  0  0  0  0  0
    4.3247    6.1957    0.0000 H   0  0  0  0  0  0  0  0  0  0  0  0
    5.1521   11.5642    0.0000 H   0  0  0  0  0  0  0  0  0  0  0  0
    4.9753    4.7762    0.0000 H   0  0  0  0  0  0  0  0  0  0  0  0
    2.9390    0.6718    0.0000 H   0  0  0  0  0  0  0  0  0  0  0  0
    3.8585    1.6025    0.0000 H   0  0  0  0  0  0  0  0  0  0  0  0
    1.5991   -0.4320    0.0000 H   0  0  0  0  0  0  0  0  0  0  0  0
    2.5699    0.1677    0.0000 H   0  0  0  0  0  0  0  0  0  0  0  0
   -0.3685   -1.0746    0.0000 H   0  0  0  0  0  0  0  0  0  0  0  0
    1.0550   -0.7048    0.0000 H   0  0  0  0  0  0  0  0  0  0  0  0
   -1.4408   -1.3714    0.0000 H   0  0  0  0  0  0  0  0  0  0  0  0
    5.8816    2.8863    0.0000 H   0  0  0  0  0  0  0  0  0  0  0  0
    5.7929    4.6686    0.0000 H   0  0  0  0  0  0  0  0  0  0  0  0
    4.4152    5.2016    0.0000 H   0  0  0  0  0  0  0  0  0  0  0  0
    6.3109    3.6605    0.0000 H   0  0  0  0  0  0  0  0  0  0  0  0
    5.1068    0.4902    0.0000 H   0  0  0  0  0  0  0  0  0  0  0  0
    7.6186   -1.5785    0.0000 H   0  0  0  0  0  0  0  0  0  0  0  0
    8.3407    0.0533    0.0000 H   0  0  0  0  0  0  0  0  0  0  0  0
    7.4791   -3.4820    0.0000 H   0  0  0  0  0  0  0  0  0  0  0  0
    4.6148   -5.0458    0.0000 H   0  0  0  0  0  0  0  0  0  0  0  0
    2.2425   -2.8049    0.0000 H   0  0  0  0  0  0  0  0  0  0  0  0
    8.4100   -1.3071    0.0000 H   0  0  0  0  0  0  0  0  0  0  0  0
    9.8932    1.7426    0.0000 H   0  0  0  0  0  0  0  0  0  0  0  0
   12.6934    2.0682    0.0000 H   0  0  0  0  0  0  0  0  0  0  0  0
   10.7684    2.1815    0.0000 H   0  0  0  0  0  0  0  0  0  0  0  0
   14.2570    0.8252    0.0000 H   0  0  0  0  0  0  0  0  0  0  0  0
   13.8112   -1.0509    0.0000 H   0  0  0  0  0  0  0  0  0  0  0  0
   12.5188   -1.2936    0.0000 H   0  0  0  0  0  0  0  0  0  0  0  0
   13.4659    0.5691    0.0000 H   0  0  0  0  0  0  0  0  0  0  0  0
   12.1898   -2.4327    0.0000 H   0  0  0  0  0  0  0  0  0  0  0  0
   14.7735   -4.6699    0.0000 H   0  0  0  0  0  0  0  0  0  0  0  0
   15.4956   -3.0381    0.0000 H   0  0  0  0  0  0  0  0  0  0  0  0
   11.6611   -5.1289    0.0000 H   0  0  0  0  0  0  0  0  0  0  0  0
   11.9668   -3.3708    0.0000 H   0  0  0  0  0  0  0  0  0  0  0  0
   12.8306   -8.4214    0.0000 H   0  0  0  0  0  0  0  0  0  0  0  0
   10.9419   -6.6374    0.0000 H   0  0  0  0  0  0  0  0  0  0  0  0
   15.5649   -4.3985    0.0000 H   0  0  0  0  0  0  0  0  0  0  0  0
   17.0482   -1.3488    0.0000 H   0  0  0  0  0  0  0  0  0  0  0  0
   19.7078   -0.9057    0.0000 H   0  0  0  0  0  0  0  0  0  0  0  0
   17.9233   -0.9099    0.0000 H   0  0  0  0  0  0  0  0  0  0  0  0
   20.9661   -4.1423    0.0000 H   0  0  0  0  0  0  0  0  0  0  0  0
   19.6738   -4.3850    0.0000 H   0  0  0  0  0  0  0  0  0  0  0  0
   22.4420   -1.1757    0.0000 H   0  0  0  0  0  0  0  0  0  0  0  0
   20.6703   -0.9624    0.0000 H   0  0  0  0  0  0  0  0  0  0  0  0
   22.9415   -4.5654    0.0000 H   0  0  0  0  0  0  0  0  0  0  0  0
   26.5991   -2.5714    0.0000 H   0  0  0  0  0  0  0  0  0  0  0  0
   25.4345   -0.2490    0.0000 H   0  0  0  0  0  0  0  0  0  0  0  0
   22.8409   -0.0964    0.0000 H   0  0  0  0  0  0  0  0  0  0  0  0
   20.7730   -2.6244    0.0000 H   0  0  0  0  0  0  0  0  0  0  0  0
   19.3447   -5.5241    0.0000 H   0  0  0  0  0  0  0  0  0  0  0  0
   21.9285   -7.7612    0.0000 H   0  0  0  0  0  0  0  0  0  0  0  0
   22.6506   -6.1294    0.0000 H   0  0  0  0  0  0  0  0  0  0  0  0
   20.5862   -8.9851    0.0000 H   0  0  0  0  0  0  0  0  0  0  0  0
   18.8160   -8.2203    0.0000 H   0  0  0  0  0  0  0  0  0  0  0  0
   19.1218   -6.4622    0.0000 H   0  0  0  0  0  0  0  0  0  0  0  0
   22.7199   -7.4898    0.0000 H   0  0  0  0  0  0  0  0  0  0  0  0
   24.2031   -4.4401    0.0000 H   0  0  0  0  0  0  0  0  0  0  0  0
   27.0033   -4.1145    0.0000 H   0  0  0  0  0  0  0  0  0  0  0  0
   24.9382   -4.1193    0.0000 H   0  0  0  0  0  0  0  0  0  0  0  0
   27.9677   -7.3338    0.0000 H   0  0  0  0  0  0  0  0  0  0  0  0
   26.6554   -7.4172    0.0000 H   0  0  0  0  0  0  0  0  0  0  0  0
   31.1605   -5.5102    0.0000 H   0  0  0  0  0  0  0  0  0  0  0  0
   30.7147   -7.3863    0.0000 H   0  0  0  0  0  0  0  0  0  0  0  0
   28.9303   -7.3904    0.0000 H   0  0  0  0  0  0  0  0  0  0  0  0
   25.8276   -9.6618    0.0000 H   0  0  0  0  0  0  0  0  0  0  0  0
  1  2  1  0
  2  3  1  0
  3  4  2  0
  4  5  1  0
  5  6  2  0
  6  7  1  0
  7  8  2  0
  7  9  1  0
  9 10  1  0
 10 11  1  0
 11 12  2  0
  9 13  1  0
 13 14  1  0
 14 15  2  0
 15 16  1  0
 16 17  2  0
 17 18  1  0
 16 19  1  0
 14 20  1  0
 20 21  1  0
 21 22  2  0
 22 23  1  0
 23 24  2  0
 24 25  1  0
 25 26  2  0
 25 27  1  0
  1 28  2  0
  1 29  1  0
 29 30  1  0
 30 31  1  0
 31 32  1  0
 32 33  2  0
 32 34  1  0
 34 35  1  0
 35 36  1  0
 36 37  1  0
 37 38  1  0
 37 39  2  0
 35 40  1  0
 40 41  2  0
 40 42  1  0
 42 43  1  0
 43 44  1  0
 44 45  1  0
 45 46  1  0
 46 47  1  0
 47 48  2  0
 47 49  1  0
 49 50  1  0
 50 51  1  0
 51 52  1  0
 52 53  1  0
 53 54  2  0
 53 55  1  0
 50 56  1  0
 56 57  2  0
 56 58  1  0
 59 58  1  6
 59 60  1  0
 60 61  1  0
 61 62  1  0
 62 63  1  0
 59 64  1  0
 59 65  1  0
 65 66  2  0
 65 67  1  0
 67 68  1  0
 68 69  1  0
 69 70  1  0
 69 71  1  0
 71 72  1  0
 68 73  1  0
 73 74  2  0
 73 75  1  0
 75 76  1  0
 76 77  1  0
 77 78  1  0
 78 79  1  0
 78 80  1  0
 76 81  1  0
 81 82  2  0
 81 83  1  0
 83 84  1  0
 84 85  1  0
 85 86  1  0
 86 87  2  0
 86 88  1  0
 84 89  1  0
 89 90  2  0
 89 91  1  0
 91 92  1  0
 92 93  1  0
 93 94  1  0
 94 95  1  0
 95 96  1  0
 92 97  1  0
 92 98  1  6
 98 99  2  0
 98100  1  0
100101  1  0
101102  1  0
102103  1  0
103104  2  0
104105  1  0
105106  1  0
106107  2  0
101108  1  0
108109  2  0
108110  1  0
110111  1  0
111112  1  0
112113  1  0
111114  1  0
114115  2  0
114116  1  0
116117  1  0
117118  1  0
118119  1  0
119120  1  0
120121  1  0
120122  2  0
117123  1  0
123124  2  0
123125  1  0
125126  1  0
126127  1  0
127128  1  0
128129  1  0
129130  1  0
130131  1  0
131132  2  3
131133  1  0
126134  1  0
134135  2  0
134136  1  0
136137  1  0
137138  1  0
138139  1  0
137140  1  0
140141  2  0
140142  1  0
142143  1  0
143144  1  0
144145  1  0
145146  1  0
146147  1  0
143148  1  0
148149  2  0
148150  1  0
  8  3  1  0
 46 42  1  0
107103  1  0
 11  6  1  0
 63 96  2  0
 18 13  2  0
 22  9  1  0
 26 21  1  0
  2151  1  0
  4152  1  0
  5153  1  0
  8154  1  0
 15155  1  0
 17156  1  0
 18157  1  0
 19158  1  0
 23159  1  0
 24160  1  0
 26161  1  0
 27162  1  0
 29163  1  0
 30164  1  0
 30165  1  0
 31166  1  0
 31167  1  0
 34168  1  0
 35169  1  1
 36170  1  0
 36171  1  0
 38172  1  0
 38173  1  0
 43174  1  0
 43175  1  0
 44176  1  0
 44177  1  0
 45178  1  0
 45179  1  0
 46180  1  0
 49181  1  0
 50182  1  1
 51183  1  0
 51184  1  0
 52185  1  0
 52186  1  0
 55187  1  0
 58188  1  0
 60189  1  0
 60190  1  0
 61191  1  0
 61192  1  0
 62193  1  0
 62194  1  0
 63195  1  0
 64196  1  0
 64197  1  0
 64198  1  0
 67199  1  0
 68200  1  1
 69201  1  6
 70202  1  0
 70203  1  0
 70204  1  0
 71205  1  0
 71206  1  0
 72207  1  0
 72208  1  0
 72209  1  0
 75210  1  0
 76211  1  1
 77212  1  0
 77213  1  0
 78214  1  0
 79215  1  0
 79216  1  0
 79217  1  0
 80218  1  0
 80219  1  0
 80220  1  0
 83221  1  0
 84222  1  1
 85223  1  0
 85224  1  0
 88225  1  0
 91226  1  0
 93227  1  0
 93228  1  0
 94229  1  0
 94230  1  0
 95231  1  0
 95232  1  0
 96233  1  0
 97234  1  0
 97235  1  0
 97236  1  0
100237  1  0
101238  1  6
102239  1  0
102240  1  0
104241  1  0
105242  1  0
106243  1  0
110244  1  0
111245  1  1
112246  1  0
112247  1  0
113248  1  0
113249  1  0
113250  1  0
116251  1  0
117252  1  6
118253  1  0
118254  1  0
119255  1  0
119256  1  0
121257  1  0
121258  1  0
125259  1  0
126260  1  1
127261  1  0
127262  1  0
128263  1  0
128264  1  0
129265  1  0
129266  1  0
130267  1  0
132268  1  0
133269  1  0
133270  1  0
136271  1  0
137272  1  6
138273  1  0
138274  1  0
139275  1  0
139276  1  0
139277  1  0
142278  1  0
143279  1  1
144280  1  0
144281  1  0
145282  1  0
145283  1  0
147284  1  0
147285  1  0
147286  1  0
150287  1  0
M  END
