
     RDKit          2D

306312  0  0  0  0  0  0  0  0999 V2000
   20.3827   -3.2876    0.0000 C   0  0  0  0  0  0  0  0  0  0  0  0
   21.7121   -2.5928    0.0000 N   0  0  0  0  0  0  0  0  0  0  0  0
   22.9785   -3.3966    0.0000 C   0  0  0  0  0  0  0  0  0  0  0  0
   22.9156   -4.8953    0.0000 C   0  0  0  0  0  0  0  0  0  0  0  0
   24.1820   -5.6991    0.0000 C   0  0  0  0  0  0  0  0  0  0  0  0
   25.5114   -5.0043    0.0000 C   0  0  0  0  0  0  0  0  0  0  0  0
   25.5743   -3.5056    0.0000 C   0  0  0  0  0  0  0  0  0  0  0  0
   24.3079   -2.7018    0.0000 C   0  0  0  0  0  0  0  0  0  0  0  0
   27.0191   -3.1023    0.0000 C   0  0  0  0  0  0  0  0  0  0  0  0
   27.8491   -4.3517    0.0000 O   0  0  0  0  0  0  0  0  0  0  0  0
   26.9173   -5.5272    0.0000 C   0  0  0  0  0  0  0  0  0  0  0  0
   27.3206   -6.9720    0.0000 O   0  0  0  0  0  0  0  0  0  0  0  0
   28.4981   -2.8522    0.0000 C   0  0  0  0  0  0  0  0  0  0  0  0
   29.0210   -1.4464    0.0000 C   0  0  0  0  0  0  0  0  0  0  0  0
   30.5001   -1.1963    0.0000 C   0  0  0  0  0  0  0  0  0  0  0  0
   31.4561   -2.3521    0.0000 C   0  0  0  0  0  0  0  0  0  0  0  0
   30.9332   -3.7580    0.0000 C   0  0  0  0  0  0  0  0  0  0  0  0
   29.4541   -4.0081    0.0000 C   0  0  0  0  0  0  0  0  0  0  0  0
   32.9351   -2.1021    0.0000 O   0  0  0  0  0  0  0  0  0  0  0  0
   28.0650   -0.2905    0.0000 O   0  0  0  0  0  0  0  0  0  0  0  0
   26.5860   -0.5406    0.0000 C   0  0  0  0  0  0  0  0  0  0  0  0
   26.0630   -1.9465    0.0000 C   0  0  0  0  0  0  0  0  0  0  0  0
   24.8281   -1.5404    0.0000 C   0  0  0  0  0  0  0  0  0  0  0  0
   24.3182   -0.9240    0.0000 C   0  0  0  0  0  0  0  0  0  0  0  0
   24.5971   -0.1742    0.0000 C   0  0  0  0  0  0  0  0  0  0  0  0
   25.3859   -0.0408    0.0000 C   0  0  0  0  0  0  0  0  0  0  0  0
   23.1948    1.5210    0.0000 O   0  0  0  0  0  0  0  0  0  0  0  0
   20.3198   -4.7863    0.0000 S   0  0  0  0  0  0  0  0  0  0  0  0
   19.1163   -2.4838    0.0000 N   0  0  0  0  0  0  0  0  0  0  0  0
   17.7869   -3.1787    0.0000 C   0  0  0  0  0  0  0  0  0  0  0  0
   16.5205   -2.3748    0.0000 C   0  0  0  0  0  0  0  0  0  0  0  0
   15.1911   -3.0697    0.0000 C   0  0  0  0  0  0  0  0  0  0  0  0
   15.3514   -3.8506    0.0000 O   0  0  0  0  0  0  0  0  0  0  0  0
   13.9247   -2.2659    0.0000 N   0  0  0  0  0  0  0  0  0  0  0  0
   12.5954   -2.9607    0.0000 C   0  0  0  0  0  0  0  0  0  0  0  0
   13.5105   -4.1492    0.0000 C   0  0  0  0  0  0  0  0  0  0  0  0
   14.9973   -3.9509    0.0000 C   0  0  0  0  0  0  0  0  0  0  0  0
   15.9125   -5.1394    0.0000 N   0  0  0  0  0  0  0  0  0  0  0  0
   15.8876   -2.7437    0.0000 O   0  0  0  0  0  0  0  0  0  0  0  0
   11.1085   -3.1590    0.0000 C   0  0  0  0  0  0  0  0  0  0  0  0
   10.8894   -4.6429    0.0000 O   0  0  0  0  0  0  0  0  0  0  0  0
   10.1934   -1.9705    0.0000 N   0  0  0  0  0  0  0  0  0  0  0  0
    8.7065   -2.1688    0.0000 C   0  0  0  0  0  0  0  0  0  0  0  0
    9.1600   -3.5986    0.0000 C   0  0  0  0  0  0  0  0  0  0  0  0
   10.6250   -3.9208    0.0000 C   0  0  0  0  0  0  0  0  0  0  0  0
   11.0785   -5.3506    0.0000 C   0  0  0  0  0  0  0  0  0  0  0  0
   12.4932   -5.8490    0.0000 N   0  0  0  0  0  0  0  0  0  0  0  0
   10.0669   -6.4583    0.0000 O   0  0  0  0  0  0  0  0  0  0  0  0
    7.2416   -1.8466    0.0000 C   0  0  0  0  0  0  0  0  0  0  0  0
    6.5281   -3.1661    0.0000 O   0  0  0  0  0  0  0  0  0  0  0  0
    6.7881   -0.4168    0.0000 N   0  0  0  0  0  0  0  0  0  0  0  0
    5.3231   -0.0946    0.0000 C   0  0  0  0  0  0  0  0  0  0  0  0
    5.2602   -1.5933    0.0000 C   0  0  0  0  0  0  0  0  0  0  0  0
    6.5266   -2.3971    0.0000 C   0  0  0  0  0  0  0  0  0  0  0  0
    6.4637   -3.8958    0.0000 C   0  0  0  0  0  0  0  0  0  0  0  0
    7.9916   -2.7193    0.0000 C   0  0  0  0  0  0  0  0  0  0  0  0
    4.0567    0.7092    0.0000 C   0  0  0  0  0  0  0  0  0  0  0  0
    2.9350   -0.2867    0.0000 O   0  0  0  0  0  0  0  0  0  0  0  0
    4.1196    2.2079    0.0000 N   0  0  0  0  0  0  0  0  0  0  0  0
    2.8531    3.0117    0.0000 C   0  0  0  0  0  0  0  0  0  0  0  0
    2.6953    1.5201    0.0000 C   0  0  0  0  0  0  0  0  0  0  0  0
    2.2580    0.0852    0.0000 C   0  0  0  0  0  0  0  0  0  0  0  0
    1.5571   -1.2409    0.0000 C   0  0  0  0  0  0  0  0  0  0  0  0
    0.6179   -2.4105    0.0000 C   0  0  0  0  0  0  0  0  0  0  0  0
   -0.5258   -3.3811    0.0000 C   0  0  0  0  0  0  0  0  0  0  0  0
   -1.8324   -4.1178    0.0000 C   0  0  0  0  0  0  0  0  0  0  0  0
   -3.2548   -4.5939    0.0000 C   0  0  0  0  0  0  0  0  0  0  0  0
    4.1358    3.7895    0.0000 C   0  0  0  0  0  0  0  0  0  0  0  0
    2.7258    4.5063    0.0000 C   0  0  0  0  0  0  0  0  0  0  0  0
    4.1578    4.9530    0.0000 O   0  0  0  0  0  0  0  0  0  0  0  0
    2.3180    5.9498    0.0000 N   0  0  0  0  0  0  0  0  0  0  0  0
    1.6443    7.2900    0.0000 C   0  0  0  0  0  0  0  0  0  0  0  0
    2.3028    8.6377    0.0000 C   0  0  0  0  0  0  0  0  0  0  0  0
    3.7992    8.7413    0.0000 C   0  0  0  0  0  0  0  0  0  0  0  0
    4.4577   10.0891    0.0000 C   0  0  0  0  0  0  0  0  0  0  0  0
    5.9541   10.1926    0.0000 N   0  0  0  0  0  0  0  0  0  0  0  0
    6.6126   11.5404    0.0000 C   0  0  0  0  0  0  0  0  0  0  0  0
    8.1090   11.6440    0.0000 N   0  0  0  0  0  0  0  0  0  0  0  0
    5.7747   12.7845    0.0000 N   0  0  0  0  0  0  0  0  0  0  0  0
    0.7291    8.4785    0.0000 C   0  0  0  0  0  0  0  0  0  0  0  0
    1.6923    9.6284    0.0000 O   0  0  0  0  0  0  0  0  0  0  0  0
   -0.3944    9.4723    0.0000 N   0  0  0  0  0  0  0  0  0  0  0  0
   -1.6857   10.2356    0.0000 C   0  0  0  0  0  0  0  0  0  0  0  0
   -1.8604   11.7254    0.0000 C   0  0  0  0  0  0  0  0  0  0  0  0
   -0.6575   12.6215    0.0000 O   0  0  0  0  0  0  0  0  0  0  0  0
   -3.0981   10.7406    0.0000 C   0  0  0  0  0  0  0  0  0  0  0  0
   -2.9096   12.2287    0.0000 O   0  0  0  0  0  0  0  0  0  0  0  0
   -4.5806   10.9693    0.0000 N   0  0  0  0  0  0  0  0  0  0  0  0
   -6.0795   10.9132    0.0000 C   0  0  0  0  0  0  0  0  0  0  0  0
   -7.0319   12.0721    0.0000 C   0  0  0  0  0  0  0  0  0  0  0  0
   -6.5045   13.4763    0.0000 C   0  0  0  0  0  0  0  0  0  0  0  0
   -5.0247   13.7217    0.0000 C   0  0  0  0  0  0  0  0  0  0  0  0
   -4.4973   15.1259    0.0000 C   0  0  0  0  0  0  0  0  0  0  0  0
   -5.4497   16.2847    0.0000 C   0  0  0  0  0  0  0  0  0  0  0  0
   -6.9295   16.0394    0.0000 C   0  0  0  0  0  0  0  0  0  0  0  0
   -7.4569   14.6352    0.0000 C   0  0  0  0  0  0  0  0  0  0  0  0
   -7.5408   10.5745    0.0000 C   0  0  0  0  0  0  0  0  0  0  0  0
   -8.1867   11.9283    0.0000 O   0  0  0  0  0  0  0  0  0  0  0  0
   -8.9115    9.9653    0.0000 N   0  0  0  0  0  0  0  0  0  0  0  0
  -10.1422    9.1078    0.0000 C   0  0  0  0  0  0  0  0  0  0  0  0
  -11.5699    9.5678    0.0000 C   0  0  0  0  0  0  0  0  0  0  0  0
  -11.8854   11.0342    0.0000 C   0  0  0  0  0  0  0  0  0  0  0  0
  -13.3132   11.4942    0.0000 C   0  0  0  0  0  0  0  0  0  0  0  0
  -13.6287   12.9607    0.0000 N   0  0  0  0  0  0  0  0  0  0  0  0
  -15.0564   13.4207    0.0000 C   0  0  0  0  0  0  0  0  0  0  0  0
  -15.3719   14.8871    0.0000 N   0  0  0  0  0  0  0  0  0  0  0  0
  -16.1686   12.4142    0.0000 N   0  0  0  0  0  0  0  0  0  0  0  0
  -11.1884    8.0328    0.0000 C   0  0  0  0  0  0  0  0  0  0  0  0
  -12.4637    8.8225    0.0000 O   0  0  0  0  0  0  0  0  0  0  0  0
  -12.0122    6.7793    0.0000 N   0  0  0  0  0  0  0  0  0  0  0  0
  -12.5839    5.3925    0.0000 C   0  0  0  0  0  0  0  0  0  0  0  0
  -14.0337    5.0076    0.0000 C   0  0  0  0  0  0  0  0  0  0  0  0
  -12.8828    3.9226    0.0000 C   0  0  0  0  0  0  0  0  0  0  0  0
  -14.3826    3.8974    0.0000 O   0  0  0  0  0  0  0  0  0  0  0  0
  -12.8981    2.4227    0.0000 N   0  0  0  0  0  0  0  0  0  0  0  0
  -12.6293    0.9470    0.0000 C   0  0  0  0  0  0  0  0  0  0  0  0
  -13.6409   -0.1606    0.0000 C   0  0  0  0  0  0  0  0  0  0  0  0
  -15.1058    0.1616    0.0000 C   0  0  0  0  0  0  0  0  0  0  0  0
  -16.1174   -0.9461    0.0000 C   0  0  0  0  0  0  0  0  0  0  0  0
  -16.3723    0.9654    0.0000 C   0  0  0  0  0  0  0  0  0  0  0  0
  -12.0861   -0.4512    0.0000 C   0  0  0  0  0  0  0  0  0  0  0  0
  -13.3342   -1.2832    0.0000 O   0  0  0  0  0  0  0  0  0  0  0  0
  -11.2881   -1.7213    0.0000 N   0  0  0  0  0  0  0  0  0  0  0  0
  -10.2641   -2.8174    0.0000 C   0  0  0  0  0  0  0  0  0  0  0  0
   -9.0512   -3.7000    0.0000 C   0  0  0  0  0  0  0  0  0  0  0  0
   -7.6932   -4.3370    0.0000 C   0  0  0  0  0  0  0  0  0  0  0  0
   -6.2392   -4.7055    0.0000 C   0  0  0  0  0  0  0  0  0  0  0  0
   -4.7417   -4.7922    0.0000 C   0  0  0  0  0  0  0  0  0  0  0  0
  -11.7009   -3.2482    0.0000 C   0  0  0  0  0  0  0  0  0  0  0  0
  -10.5162   -4.2961    0.0000 C   0  0  0  0  0  0  0  0  0  0  0  0
   -9.6278   -5.5047    0.0000 O   0  0  0  0  0  0  0  0  0  0  0  0
  -11.9229   -4.8171    0.0000 N   0  0  0  0  0  0  0  0  0  0  0  0
  -12.1750   -6.2957    0.0000 C   0  0  0  0  0  0  0  0  0  0  0  0
  -11.9062   -7.7714    0.0000 C   0  0  0  0  0  0  0  0  0  0  0  0
  -13.0498   -8.7421    0.0000 C   0  0  0  0  0  0  0  0  0  0  0  0
  -12.7810  -10.2178    0.0000 O   0  0  0  0  0  0  0  0  0  0  0  0
  -14.5424   -8.5938    0.0000 O   0  0  0  0  0  0  0  0  0  0  0  0
  -13.5816   -6.8167    0.0000 C   0  0  0  0  0  0  0  0  0  0  0  0
  -14.7361   -5.8590    0.0000 O   0  0  0  0  0  0  0  0  0  0  0  0
  -13.8337   -8.2954    0.0000 N   0  0  0  0  0  0  0  0  0  0  0  0
  -15.2403   -8.8164    0.0000 C   0  0  0  0  0  0  0  0  0  0  0  0
  -16.7403   -8.8248    0.0000 C   0  0  0  0  0  0  0  0  0  0  0  0
  -17.4830  -10.1281    0.0000 C   0  0  0  0  0  0  0  0  0  0  0  0
  -18.9830  -10.1365    0.0000 C   0  0  0  0  0  0  0  0  0  0  0  0
  -19.8789  -11.3395    0.0000 N   0  0  0  0  0  0  0  0  0  0  0  0
  -19.7403   -8.8418    0.0000 O   0  0  0  0  0  0  0  0  0  0  0  0
  -15.4925  -10.2950    0.0000 C   0  0  0  0  0  0  0  0  0  0  0  0
  -14.3380  -11.2527    0.0000 O   0  0  0  0  0  0  0  0  0  0  0  0
  -16.8991  -10.8160    0.0000 N   0  0  0  0  0  0  0  0  0  0  0  0
  -17.1512  -12.2946    0.0000 C   0  0  0  0  0  0  0  0  0  0  0  0
  -16.8824  -13.7704    0.0000 C   0  0  0  0  0  0  0  0  0  0  0  0
  -18.0260  -14.7410    0.0000 C   0  0  0  0  0  0  0  0  0  0  0  0
  -16.1251  -15.0651    0.0000 C   0  0  0  0  0  0  0  0  0  0  0  0
  -14.6251  -15.0567    0.0000 C   0  0  0  0  0  0  0  0  0  0  0  0
  -18.5578  -12.8156    0.0000 C   0  0  0  0  0  0  0  0  0  0  0  0
  -18.9883  -14.2525    0.0000 O   0  0  0  0  0  0  0  0  0  0  0  0
  -19.8205  -12.0058    0.0000 O   0  0  0  0  0  0  0  0  0  0  0  0
   21.5918   -1.0976    0.0000 H   0  0  0  0  0  0  0  0  0  0  0  0
   21.5863   -5.5901    0.0000 H   0  0  0  0  0  0  0  0  0  0  0  0
   24.1191   -7.1978    0.0000 H   0  0  0  0  0  0  0  0  0  0  0  0
   24.0063   -1.2324    0.0000 H   0  0  0  0  0  0  0  0  0  0  0  0
   31.0230    0.2096    0.0000 H   0  0  0  0  0  0  0  0  0  0  0  0
   31.8892   -4.9138    0.0000 H   0  0  0  0  0  0  0  0  0  0  0  0
   28.9312   -5.4140    0.0000 H   0  0  0  0  0  0  0  0  0  0  0  0
   33.8912   -3.2579    0.0000 H   0  0  0  0  0  0  0  0  0  0  0  0
   24.0611   -3.6024    0.0000 H   0  0  0  0  0  0  0  0  0  0  0  0
   22.1295   -1.1086    0.0000 H   0  0  0  0  0  0  0  0  0  0  0  0
   26.1529    2.0211    0.0000 H   0  0  0  0  0  0  0  0  0  0  0  0
   23.7178    2.9269    0.0000 H   0  0  0  0  0  0  0  0  0  0  0  0
   19.1792   -0.9851    0.0000 H   0  0  0  0  0  0  0  0  0  0  0  0
   18.7021   -4.3672    0.0000 H   0  0  0  0  0  0  0  0  0  0  0  0
   16.9180   -4.4013    0.0000 H   0  0  0  0  0  0  0  0  0  0  0  0
   17.5320   -1.2672    0.0000 H   0  0  0  0  0  0  0  0  0  0  0  0
   15.6054   -1.1864    0.0000 H   0  0  0  0  0  0  0  0  0  0  0  0
   13.9876   -0.7672    0.0000 H   0  0  0  0  0  0  0  0  0  0  0  0
   12.1419   -1.5309    0.0000 H   0  0  0  0  0  0  0  0  0  0  0  0
   13.9640   -5.5790    0.0000 H   0  0  0  0  0  0  0  0  0  0  0  0
   12.2758   -5.0010    0.0000 H   0  0  0  0  0  0  0  0  0  0  0  0
   17.4124   -5.1239    0.0000 H   0  0  0  0  0  0  0  0  0  0  0  0
   15.3408   -6.5262    0.0000 H   0  0  0  0  0  0  0  0  0  0  0  0
   10.7651   -0.5837    0.0000 H   0  0  0  0  0  0  0  0  0  0  0  0
    8.9517   -0.6890    0.0000 H   0  0  0  0  0  0  0  0  0  0  0  0
    9.0971   -5.0973    0.0000 H   0  0  0  0  0  0  0  0  0  0  0  0
    7.7653   -4.1508    0.0000 H   0  0  0  0  0  0  0  0  0  0  0  0
   12.1118   -3.7225    0.0000 H   0  0  0  0  0  0  0  0  0  0  0  0
   11.0487   -2.4819    0.0000 H   0  0  0  0  0  0  0  0  0  0  0  0
   12.9969   -7.1027    0.0000 H   0  0  0  0  0  0  0  0  0  0  0  0
   13.8341   -4.8603    0.0000 H   0  0  0  0  0  0  0  0  0  0  0  0
    7.7996    0.6908    0.0000 H   0  0  0  0  0  0  0  0  0  0  0  0
    5.8948    1.2922    0.0000 H   0  0  0  0  0  0  0  0  0  0  0  0
    4.5237   -2.9000    0.0000 H   0  0  0  0  0  0  0  0  0  0  0  0
    3.7952   -1.2711    0.0000 H   0  0  0  0  0  0  0  0  0  0  0  0
    7.4169   -1.1899    0.0000 H   0  0  0  0  0  0  0  0  0  0  0  0
    7.4980   -4.9822    0.0000 H   0  0  0  0  0  0  0  0  0  0  0  0
    5.8920   -5.2826    0.0000 H   0  0  0  0  0  0  0  0  0  0  0  0
    4.9704   -3.7546    0.0000 H   0  0  0  0  0  0  0  0  0  0  0  0
    8.4451   -4.1491    0.0000 H   0  0  0  0  0  0  0  0  0  0  0  0
    9.4823   -2.8867    0.0000 H   0  0  0  0  0  0  0  0  0  0  0  0
    7.8714   -1.2241    0.0000 H   0  0  0  0  0  0  0  0  0  0  0  0
    5.5237    2.7355    0.0000 H   0  0  0  0  0  0  0  0  0  0  0  0
    4.1862    1.6852    0.0000 H   0  0  0  0  0  0  0  0  0  0  0  0
    3.6532    0.3657    0.0000 H   0  0  0  0  0  0  0  0  0  0  0  0
    3.7274   -0.2162    0.0000 H   0  0  0  0  0  0  0  0  0  0  0  0
    3.1350   -1.1317    0.0000 H   0  0  0  0  0  0  0  0  0  0  0  0
    3.0566   -1.2801    0.0000 H   0  0  0  0  0  0  0  0  0  0  0  0
    2.3491   -2.5148    0.0000 H   0  0  0  0  0  0  0  0  0  0  0  0
    2.0326   -2.9089    0.0000 H   0  0  0  0  0  0  0  0  0  0  0  0
    1.1545   -3.8112    0.0000 H   0  0  0  0  0  0  0  0  0  0  0  0
    0.7691   -4.1383    0.0000 H   0  0  0  0  0  0  0  0  0  0  0  0
   -0.2639   -4.8581    0.0000 H   0  0  0  0  0  0  0  0  0  0  0  0
   -0.7042   -5.1063    0.0000 H   0  0  0  0  0  0  0  0  0  0  0  0
   -2.0375   -5.6037    0.0000 H   0  0  0  0  0  0  0  0  0  0  0  0
   -2.9161   -6.0552    0.0000 H   0  0  0  0  0  0  0  0  0  0  0  0
    5.5288    3.2333    0.0000 H   0  0  0  0  0  0  0  0  0  0  0  0
    5.2106    4.8358    0.0000 H   0  0  0  0  0  0  0  0  0  0  0  0
    3.4494    5.1233    0.0000 H   0  0  0  0  0  0  0  0  0  0  0  0
    3.7719    6.3185    0.0000 H   0  0  0  0  0  0  0  0  0  0  0  0
    3.1341    7.1156    0.0000 H   0  0  0  0  0  0  0  0  0  0  0  0
    2.4606   10.1294    0.0000 H   0  0  0  0  0  0  0  0  0  0  0  0
    1.0043    9.3887    0.0000 H   0  0  0  0  0  0  0  0  0  0  0  0
    5.2408    8.3269    0.0000 H   0  0  0  0  0  0  0  0  0  0  0  0
    4.0070    7.2558    0.0000 H   0  0  0  0  0  0  0  0  0  0  0  0
    4.6155   11.5807    0.0000 H   0  0  0  0  0  0  0  0  0  0  0  0
    3.0774   10.6762    0.0000 H   0  0  0  0  0  0  0  0  0  0  0  0
    6.7920    8.9485    0.0000 H   0  0  0  0  0  0  0  0  0  0  0  0
    8.7676   12.9917    0.0000 H   0  0  0  0  0  0  0  0  0  0  0  0
    6.4332   14.1322    0.0000 H   0  0  0  0  0  0  0  0  0  0  0  0
    4.2783   12.6809    0.0000 H   0  0  0  0  0  0  0  0  0  0  0  0
    0.4882   10.6852    0.0000 H   0  0  0  0  0  0  0  0  0  0  0  0
   -0.4284   11.0536    0.0000 H   0  0  0  0  0  0  0  0  0  0  0  0
   -2.3656   13.1377    0.0000 H   0  0  0  0  0  0  0  0  0  0  0  0
   -3.3587   11.6551    0.0000 H   0  0  0  0  0  0  0  0  0  0  0  0
   -0.8322   14.1113    0.0000 H   0  0  0  0  0  0  0  0  0  0  0  0
   -4.3120   12.4450    0.0000 H   0  0  0  0  0  0  0  0  0  0  0  0
   -5.4641   12.2812    0.0000 H   0  0  0  0  0  0  0  0  0  0  0  0
   -8.2205   12.9870    0.0000 H   0  0  0  0  0  0  0  0  0  0  0  0
   -8.2544   11.2029    0.0000 H   0  0  0  0  0  0  0  0  0  0  0  0
   -3.9382   12.6875    0.0000 H   0  0  0  0  0  0  0  0  0  0  0  0
   -3.0175   15.3712    0.0000 H   0  0  0  0  0  0  0  0  0  0  0  0
   -4.9223   17.6890    0.0000 H   0  0  0  0  0  0  0  0  0  0  0  0
   -7.8819   17.1982    0.0000 H   0  0  0  0  0  0  0  0  0  0  0  0
   -8.9367   14.3898    0.0000 H   0  0  0  0  0  0  0  0  0  0  0  0
   -9.4834   11.3520    0.0000 H   0  0  0  0  0  0  0  0  0  0  0  0
  -10.1816   10.6073    0.0000 H   0  0  0  0  0  0  0  0  0  0  0  0
  -13.0689    9.5117    0.0000 H   0  0  0  0  0  0  0  0  0  0  0  0
  -12.1285    8.1757    0.0000 H   0  0  0  0  0  0  0  0  0  0  0  0
  -11.6803   12.5202    0.0000 H   0  0  0  0  0  0  0  0  0  0  0  0
  -10.4446   11.4513    0.0000 H   0  0  0  0  0  0  0  0  0  0  0  0
  -14.8121   11.4382    0.0000 H   0  0  0  0  0  0  0  0  0  0  0  0
  -13.6978   10.0444    0.0000 H   0  0  0  0  0  0  0  0  0  0  0  0
  -12.5164   13.9671    0.0000 H   0  0  0  0  0  0  0  0  0  0  0  0
  -16.7996   15.3471    0.0000 H   0  0  0  0  0  0  0  0  0  0  0  0
  -17.5963   12.8742    0.0000 H   0  0  0  0  0  0  0  0  0  0  0  0
  -15.8531   10.9478    0.0000 H   0  0  0  0  0  0  0  0  0  0  0  0
  -13.3383    7.4802    0.0000 H   0  0  0  0  0  0  0  0  0  0  0  0
  -13.5726    6.5206    0.0000 H   0  0  0  0  0  0  0  0  0  0  0  0
  -15.0919    6.0707    0.0000 H   0  0  0  0  0  0  0  0  0  0  0  0
  -15.3597    4.3065    0.0000 H   0  0  0  0  0  0  0  0  0  0  0  0
  -13.7509    3.5345    0.0000 H   0  0  0  0  0  0  0  0  0  0  0  0
  -14.3971    2.4785    0.0000 H   0  0  0  0  0  0  0  0  0  0  0  0
  -14.0097    1.5341    0.0000 H   0  0  0  0  0  0  0  0  0  0  0  0
  -14.2126   -1.5474    0.0000 H   0  0  0  0  0  0  0  0  0  0  0  0
  -12.6066   -1.2470    0.0000 H   0  0  0  0  0  0  0  0  0  0  0  0
  -14.8867    1.6455    0.0000 H   0  0  0  0  0  0  0  0  0  0  0  0
  -17.6107   -0.8048    0.0000 H   0  0  0  0  0  0  0  0  0  0  0  0
  -16.6891   -2.3328    0.0000 H   0  0  0  0  0  0  0  0  0  0  0  0
  -14.9584   -1.8983    0.0000 H   0  0  0  0  0  0  0  0  0  0  0  0
  -17.7764    0.4377    0.0000 H   0  0  0  0  0  0  0  0  0  0  0  0
  -17.2874    2.1539    0.0000 H   0  0  0  0  0  0  0  0  0  0  0  0
  -15.3608    2.0730    0.0000 H   0  0  0  0  0  0  0  0  0  0  0  0
  -12.5793   -2.4848    0.0000 H   0  0  0  0  0  0  0  0  0  0  0  0
   -9.0189   -5.1996    0.0000 H   0  0  0  0  0  0  0  0  0  0  0  0
  -10.1729   -4.6958    0.0000 H   0  0  0  0  0  0  0  0  0  0  0  0
   -7.5588   -5.8310    0.0000 H   0  0  0  0  0  0  0  0  0  0  0  0
   -8.6062   -5.5272    0.0000 H   0  0  0  0  0  0  0  0  0  0  0  0
   -5.6518   -6.0858    0.0000 H   0  0  0  0  0  0  0  0  0  0  0  0
   -7.0689   -5.9551    0.0000 H   0  0  0  0  0  0  0  0  0  0  0  0
   -4.6856   -6.2912    0.0000 H   0  0  0  0  0  0  0  0  0  0  0  0
  -12.3893   -4.5809    0.0000 H   0  0  0  0  0  0  0  0  0  0  0  0
  -13.1984   -3.1615    0.0000 H   0  0  0  0  0  0  0  0  0  0  0  0
  -12.2309   -1.8449    0.0000 H   0  0  0  0  0  0  0  0  0  0  0  0
  -13.1855   -4.0073    0.0000 H   0  0  0  0  0  0  0  0  0  0  0  0
  -10.6750   -6.2873    0.0000 H   0  0  0  0  0  0  0  0  0  0  0  0
  -11.1488   -9.0662    0.0000 H   0  0  0  0  0  0  0  0  0  0  0  0
  -10.4996   -7.2505    0.0000 H   0  0  0  0  0  0  0  0  0  0  0  0
  -15.7227   -8.9321    0.0000 H   0  0  0  0  0  0  0  0  0  0  0  0
  -12.9453   -9.5039    0.0000 H   0  0  0  0  0  0  0  0  0  0  0  0
  -15.5092   -7.3406    0.0000 H   0  0  0  0  0  0  0  0  0  0  0  0
  -18.1527   -8.3198    0.0000 H   0  0  0  0  0  0  0  0  0  0  0  0
  -16.4882   -7.3462    0.0000 H   0  0  0  0  0  0  0  0  0  0  0  0
  -17.7351  -11.6067    0.0000 H   0  0  0  0  0  0  0  0  0  0  0  0
  -16.4731  -11.2372    0.0000 H   0  0  0  0  0  0  0  0  0  0  0  0
  -21.2256  -11.4483    0.0000 H   0  0  0  0  0  0  0  0  0  0  0  0
  -19.5288  -12.9683    0.0000 H   0  0  0  0  0  0  0  0  0  0  0  0
  -18.2510  -10.1661    0.0000 H   0  0  0  0  0  0  0  0  0  0  0  0
  -15.6512  -12.2862    0.0000 H   0  0  0  0  0  0  0  0  0  0  0  0
  -15.5498  -13.0818    0.0000 H   0  0  0  0  0  0  0  0  0  0  0  0
  -17.9391  -16.2385    0.0000 H   0  0  0  0  0  0  0  0  0  0  0  0
  -19.4326  -15.2620    0.0000 H   0  0  0  0  0  0  0  0  0  0  0  0
  -19.3026  -13.9535    0.0000 H   0  0  0  0  0  0  0  0  0  0  0  0
  -15.8563  -16.5409    0.0000 H   0  0  0  0  0  0  0  0  0  0  0  0
  -17.4577  -15.7537    0.0000 H   0  0  0  0  0  0  0  0  0  0  0  0
  -13.8678  -16.3515    0.0000 H   0  0  0  0  0  0  0  0  0  0  0  0
  -13.2185  -14.5357    0.0000 H   0  0  0  0  0  0  0  0  0  0  0  0
  -14.7120  -13.5592    0.0000 H   0  0  0  0  0  0  0  0  0  0  0  0
  -21.1190  -12.3789    0.0000 H   0  0  0  0  0  0  0  0  0  0  0  0
  1  2  1  0
  2  3  1  0
  3  4  2  0
  4  5  1  0
  5  6  2  0
  6  7  1  0
  7  8  2  0
  7  9  1  0
  9 10  1  0
 10 11  1  0
 11 12  2  0
  9 13  1  0
 13 14  1  0
 14 15  2  0
 15 16  1  0
 16 17  2  0
 17 18  1  0
 16 19  1  0
 14 20  1  0
 20 21  1  0
 21 22  2  0
 22 23  1  0
 23 24  2  0
 24 25  1  0
 25 26  2  0
 25 27  1  0
  1 28  2  0
  1 29  1  0
 29 30  1  0
 30 31  1  0
 31 32  1  0
 32 33  2  0
 32 34  1  0
 34 35  1  0
 35 36  1  0
 36 37  1  0
 37 38  1  0
 37 39  2  0
 35 40  1  0
 40 41  2  0
 40 42  1  0
 42 43  1  0
 43 44  1  0
 44 45  1  0
 45 46  1  0
 46 47  1  0
 46 48  2  0
 43 49  1  0
 49 50  2  0
 49 51  1  0
 51 52  1  0
 52 53  1  0
 53 54  1  0
 54 55  1  0
 54 56  1  0
 52 57  1  0
 57 58  2  0
 57 59  1  0
 60 59  1  6
 60 61  1  0
 61 62  1  0
 62 63  1  0
 63 64  1  0
 64 65  1  0
 65 66  1  0
 66 67  1  0
 60 68  1  0
 60 69  1  0
 69 70  2  0
 69 71  1  0
 71 72  1  0
 72 73  1  0
 73 74  1  0
 74 75  1  0
 75 76  1  0
 76 77  1  0
 77 78  2  3
 77 79  1  0
 72 80  1  0
 80 81  2  0
 80 82  1  0
 82 83  1  0
 83 84  1  0
 84 85  1  0
 83 86  1  0
 86 87  2  0
 86 88  1  0
 88 89  1  0
 89 90  1  0
 90 91  1  0
 91 92  2  0
 92 93  1  0
 93 94  2  0
 94 95  1  0
 95 96  2  0
 89 97  1  0
 97 98  2  0
 97 99  1  0
 99100  1  0
100101  1  0
101102  1  0
102103  1  0
103104  1  0
104105  1  0
105106  2  3
105107  1  0
100108  1  0
108109  2  0
108110  1  0
110111  1  0
111112  1  0
111113  1  0
113114  2  0
113115  1  0
115116  1  0
116117  1  0
117118  1  0
118119  1  0
118120  1  0
116121  1  0
121122  2  0
121123  1  0
123124  1  0
124125  1  0
125126  1  0
126127  1  0
127128  1  0
124129  1  0
124130  1  1
130131  2  0
130132  1  0
132133  1  0
133134  1  0
134135  1  0
135136  2  0
135137  1  0
133138  1  0
138139  2  0
138140  1  0
140141  1  0
141142  1  0
142143  1  0
143144  1  0
144145  1  0
144146  2  0
141147  1  0
147148  2  0
147149  1  0
149150  1  0
150151  1  0
151152  1  0
151153  1  0
153154  1  0
150155  1  0
155156  2  0
155157  1  0
  8  3  1  0
 96 91  1  0
 11  6  1  0
 67128  2  0
 18 13  2  0
 22  9  1  0
 26 21  1  0
  2158  1  0
  4159  1  0
  5160  1  0
  8161  1  0
 15162  1  0
 17163  1  0
 18164  1  0
 19165  1  0
 23166  1  0
 24167  1  0
 26168  1  0
 27169  1  0
 29170  1  0
 30171  1  0
 30172  1  0
 31173  1  0
 31174  1  0
 34175  1  0
 35176  1  1
 36177  1  0
 36178  1  0
 38179  1  0
 38180  1  0
 42181  1  0
 43182  1  1
 44183  1  0
 44184  1  0
 45185  1  0
 45186  1  0
 47187  1  0
 47188  1  0
 51189  1  0
 52190  1  1
 53191  1  0
 53192  1  0
 54193  1  0
 55194  1  0
 55195  1  0
 55196  1  0
 56197  1  0
 56198  1  0
 56199  1  0
 59200  1  0
 61201  1  0
 61202  1  0
 62203  1  0
 62204  1  0
 63205  1  0
 63206  1  0
 64207  1  0
 64208  1  0
 65209  1  0
 65210  1  0
 66211  1  0
 66212  1  0
 67213  1  0
 68214  1  0
 68215  1  0
 68216  1  0
 71217  1  0
 72218  1  6
 73219  1  0
 73220  1  0
 74221  1  0
 74222  1  0
 75223  1  0
 75224  1  0
 76225  1  0
 78226  1  0
 79227  1  0
 79228  1  0
 82229  1  0
 83230  1  6
 84231  1  0
 84232  1  0
 85233  1  0
 88234  1  0
 89235  1  6
 90236  1  0
 90237  1  0
 92238  1  0
 93239  1  0
 94240  1  0
 95241  1  0
 96242  1  0
 99243  1  0
100244  1  6
101245  1  0
101246  1  0
102247  1  0
102248  1  0
103249  1  0
103250  1  0
104251  1  0
106252  1  0
107253  1  0
107254  1  0
110255  1  0
111256  1  6
112257  1  0
112258  1  0
112259  1  0
115260  1  0
116261  1  6
117262  1  0
117263  1  0
118264  1  0
119265  1  0
119266  1  0
119267  1  0
120268  1  0
120269  1  0
120270  1  0
123271  1  0
125272  1  0
125273  1  0
126274  1  0
126275  1  0
127276  1  0
127277  1  0
128278  1  0
129279  1  0
129280  1  0
129281  1  0
132282  1  0
133283  1  1
134284  1  0
134285  1  0
137286  1  0
140287  1  0
141288  1  6
142289  1  0
142290  1  0
143291  1  0
143292  1  0
145293  1  0
145294  1  0
149295  1  0
150296  1  1
151297  1  1
152298  1  0
152299  1  0
152300  1  0
153301  1  0
153302  1  0
154303  1  0
154304  1  0
154305  1  0
157306  1  0
M  END
