
     RDKit          2D

345352  0  0  0  0  0  0  0  0999 V2000
  -29.2231   -0.3895    0.0000 C   0  0  0  0  0  0  0  0  0  0  0  0
  -30.4701   -1.2232    0.0000 N   0  0  0  0  0  0  0  0  0  0  0  0
  -31.8156   -0.5602    0.0000 C   0  0  0  0  0  0  0  0  0  0  0  0
  -31.9141    0.9366    0.0000 C   0  0  0  0  0  0  0  0  0  0  0  0
  -33.2596    1.5996    0.0000 C   0  0  0  0  0  0  0  0  0  0  0  0
  -34.5066    0.7659    0.0000 C   0  0  0  0  0  0  0  0  0  0  0  0
  -34.4080   -0.7309    0.0000 C   0  0  0  0  0  0  0  0  0  0  0  0
  -33.0625   -1.3939    0.0000 C   0  0  0  0  0  0  0  0  0  0  0  0
  -35.8011   -1.2871    0.0000 C   0  0  0  0  0  0  0  0  0  0  0  0
  -36.7606   -0.1341    0.0000 O   0  0  0  0  0  0  0  0  0  0  0  0
  -35.9605    1.1347    0.0000 C   0  0  0  0  0  0  0  0  0  0  0  0
  -36.5168    2.5278    0.0000 O   0  0  0  0  0  0  0  0  0  0  0  0
  -37.2447   -1.6947    0.0000 C   0  0  0  0  0  0  0  0  0  0  0  0
  -37.6135   -3.1486    0.0000 C   0  0  0  0  0  0  0  0  0  0  0  0
  -39.0570   -3.5562    0.0000 C   0  0  0  0  0  0  0  0  0  0  0  0
  -40.1318   -2.5098    0.0000 C   0  0  0  0  0  0  0  0  0  0  0  0
  -39.7630   -1.0559    0.0000 C   0  0  0  0  0  0  0  0  0  0  0  0
  -38.3194   -0.6483    0.0000 C   0  0  0  0  0  0  0  0  0  0  0  0
  -41.5754   -2.9174    0.0000 O   0  0  0  0  0  0  0  0  0  0  0  0
  -36.5387   -4.1950    0.0000 O   0  0  0  0  0  0  0  0  0  0  0  0
  -35.0951   -3.7874    0.0000 C   0  0  0  0  0  0  0  0  0  0  0  0
  -34.7263   -2.3335    0.0000 C   0  0  0  0  0  0  0  0  0  0  0  0
  -33.4549   -2.6044    0.0000 C   0  0  0  0  0  0  0  0  0  0  0  0
  -32.8817   -3.1625    0.0000 C   0  0  0  0  0  0  0  0  0  0  0  0
  -33.0784   -3.9379    0.0000 C   0  0  0  0  0  0  0  0  0  0  0  0
  -33.8483   -4.1553    0.0000 C   0  0  0  0  0  0  0  0  0  0  0  0
  -31.5021   -5.4726    0.0000 O   0  0  0  0  0  0  0  0  0  0  0  0
  -29.3217    1.1073    0.0000 S   0  0  0  0  0  0  0  0  0  0  0  0
  -27.8776   -1.0525    0.0000 N   0  0  0  0  0  0  0  0  0  0  0  0
  -26.6307   -0.2188    0.0000 C   0  0  0  0  0  0  0  0  0  0  0  0
  -25.2851   -0.8819    0.0000 C   0  0  0  0  0  0  0  0  0  0  0  0
  -24.0382   -0.0481    0.0000 C   0  0  0  0  0  0  0  0  0  0  0  0
  -24.1367    1.4486    0.0000 O   0  0  0  0  0  0  0  0  0  0  0  0
  -22.6927   -0.7112    0.0000 N   0  0  0  0  0  0  0  0  0  0  0  0
  -21.4457    0.1225    0.0000 C   0  0  0  0  0  0  0  0  0  0  0  0
  -20.5591    1.3325    0.0000 C   0  0  0  0  0  0  0  0  0  0  0  0
  -19.0680    1.1696    0.0000 C   0  0  0  0  0  0  0  0  0  0  0  0
  -18.1814    2.3795    0.0000 C   0  0  0  0  0  0  0  0  0  0  0  0
  -16.9665    2.3958    0.0000 O   0  0  0  0  0  0  0  0  0  0  0  0
  -18.7859    3.7523    0.0000 O   0  0  0  0  0  0  0  0  0  0  0  0
  -20.1002   -0.5405    0.0000 C   0  0  0  0  0  0  0  0  0  0  0  0
  -20.0017   -2.0373    0.0000 O   0  0  0  0  0  0  0  0  0  0  0  0
  -18.8533    0.2932    0.0000 N   0  0  0  0  0  0  0  0  0  0  0  0
  -17.5078   -0.3698    0.0000 C   0  0  0  0  0  0  0  0  0  0  0  0
  -16.4702   -1.4531    0.0000 C   0  0  0  0  0  0  0  0  0  0  0  0
  -16.8895   -2.8933    0.0000 C   0  0  0  0  0  0  0  0  0  0  0  0
  -15.8519   -3.9765    0.0000 C   0  0  0  0  0  0  0  0  0  0  0  0
  -16.2712   -5.4167    0.0000 N   0  0  0  0  0  0  0  0  0  0  0  0
  -15.2336   -6.4999    0.0000 C   0  0  0  0  0  0  0  0  0  0  0  0
  -15.6530   -7.9401    0.0000 N   0  0  0  0  0  0  0  0  0  0  0  0
  -13.7767   -6.1430    0.0000 N   0  0  0  0  0  0  0  0  0  0  0  0
  -16.2608    0.4639    0.0000 C   0  0  0  0  0  0  0  0  0  0  0  0
  -16.1922    1.6770    0.0000 O   0  0  0  0  0  0  0  0  0  0  0  0
  -14.9153   -0.1991    0.0000 N   0  0  0  0  0  0  0  0  0  0  0  0
  -13.6683    0.6346    0.0000 C   0  0  0  0  0  0  0  0  0  0  0  0
  -12.7817    1.8445    0.0000 C   0  0  0  0  0  0  0  0  0  0  0  0
  -11.2906    1.6816    0.0000 C   0  0  0  0  0  0  0  0  0  0  0  0
  -10.4040    2.8916    0.0000 N   0  0  0  0  0  0  0  0  0  0  0  0
  -10.8023    1.0515    0.0000 O   0  0  0  0  0  0  0  0  0  0  0  0
  -12.3228   -0.0285    0.0000 C   0  0  0  0  0  0  0  0  0  0  0  0
  -12.2243   -1.5252    0.0000 O   0  0  0  0  0  0  0  0  0  0  0  0
  -11.0759    0.8053    0.0000 N   0  0  0  0  0  0  0  0  0  0  0  0
   -9.7304    0.1422    0.0000 C   0  0  0  0  0  0  0  0  0  0  0  0
   -8.6928   -0.9410    0.0000 C   0  0  0  0  0  0  0  0  0  0  0  0
   -7.2359   -0.5841    0.0000 C   0  0  0  0  0  0  0  0  0  0  0  0
   -6.1983   -1.6673    0.0000 C   0  0  0  0  0  0  0  0  0  0  0  0
   -4.7414   -1.3104    0.0000 N   0  0  0  0  0  0  0  0  0  0  0  0
   -3.7038   -2.3936    0.0000 C   0  0  0  0  0  0  0  0  0  0  0  0
   -2.3013   -1.8617    0.0000 N   0  0  0  0  0  0  0  0  0  0  0  0
   -4.1231   -3.8338    0.0000 N   0  0  0  0  0  0  0  0  0  0  0  0
   -8.4834    0.9759    0.0000 C   0  0  0  0  0  0  0  0  0  0  0  0
   -8.3988    2.4736    0.0000 O   0  0  0  0  0  0  0  0  0  0  0  0
   -7.1379    0.3129    0.0000 N   0  0  0  0  0  0  0  0  0  0  0  0
   -5.8909    1.1466    0.0000 C   0  0  0  0  0  0  0  0  0  0  0  0
   -5.0043    2.3565    0.0000 C   0  0  0  0  0  0  0  0  0  0  0  0
   -3.5132    2.1937    0.0000 C   0  0  0  0  0  0  0  0  0  0  0  0
   -2.6266    3.4036    0.0000 C   0  0  0  0  0  0  0  0  0  0  0  0
   -1.1355    3.2407    0.0000 N   0  0  0  0  0  0  0  0  0  0  0  0
   -0.2488    4.4507    0.0000 C   0  0  0  0  0  0  0  0  0  0  0  0
    1.2423    4.2878    0.0000 N   0  0  0  0  0  0  0  0  0  0  0  0
   -0.8534    5.8235    0.0000 N   0  0  0  0  0  0  0  0  0  0  0  0
   -4.5454    0.4836    0.0000 C   0  0  0  0  0  0  0  0  0  0  0  0
   -4.0876   -0.9449    0.0000 O   0  0  0  0  0  0  0  0  0  0  0  0
   -3.2985    1.3173    0.0000 N   0  0  0  0  0  0  0  0  0  0  0  0
   -1.9530    0.6543    0.0000 C   0  0  0  0  0  0  0  0  0  0  0  0
   -0.9154   -0.4290    0.0000 C   0  0  0  0  0  0  0  0  0  0  0  0
    0.5415   -0.0720    0.0000 C   0  0  0  0  0  0  0  0  0  0  0  0
    1.5791   -1.1553    0.0000 C   0  0  0  0  0  0  0  0  0  0  0  0
    3.0360   -0.7983    0.0000 N   0  0  0  0  0  0  0  0  0  0  0  0
    4.0736   -1.8816    0.0000 C   0  0  0  0  0  0  0  0  0  0  0  0
    5.5616   -2.0705    0.0000 N   0  0  0  0  0  0  0  0  0  0  0  0
    3.6543   -3.3218    0.0000 N   0  0  0  0  0  0  0  0  0  0  0  0
   -0.7060    1.4880    0.0000 C   0  0  0  0  0  0  0  0  0  0  0  0
   -0.4395    2.9641    0.0000 O   0  0  0  0  0  0  0  0  0  0  0  0
    0.6395    0.8249    0.0000 N   0  0  0  0  0  0  0  0  0  0  0  0
    1.8864    1.6587    0.0000 C   0  0  0  0  0  0  0  0  0  0  0  0
    2.7731    2.8686    0.0000 C   0  0  0  0  0  0  0  0  0  0  0  0
    4.2729    2.8887    0.0000 C   0  0  0  0  0  0  0  0  0  0  0  0
    3.1924    4.3088    0.0000 C   0  0  0  0  0  0  0  0  0  0  0  0
    4.5949    4.8407    0.0000 C   0  0  0  0  0  0  0  0  0  0  0  0
    3.2320    0.9956    0.0000 C   0  0  0  0  0  0  0  0  0  0  0  0
    3.5122   -0.4780    0.0000 O   0  0  0  0  0  0  0  0  0  0  0  0
    4.4789    1.8293    0.0000 N   0  0  0  0  0  0  0  0  0  0  0  0
    5.8244    1.1663    0.0000 C   0  0  0  0  0  0  0  0  0  0  0  0
    6.2176   -0.2813    0.0000 C   0  0  0  0  0  0  0  0  0  0  0  0
    7.0200   -1.5486    0.0000 C   0  0  0  0  0  0  0  0  0  0  0  0
    8.1602   -2.5232    0.0000 C   0  0  0  0  0  0  0  0  0  0  0  0
    9.5371   -3.1183    0.0000 C   0  0  0  0  0  0  0  0  0  0  0  0
    4.5590    0.3608    0.0000 C   0  0  0  0  0  0  0  0  0  0  0  0
    5.8754    2.6654    0.0000 C   0  0  0  0  0  0  0  0  0  0  0  0
    4.4450    3.1170    0.0000 O   0  0  0  0  0  0  0  0  0  0  0  0
    6.3660    4.0829    0.0000 N   0  0  0  0  0  0  0  0  0  0  0  0
    7.2526    5.2929    0.0000 C   0  0  0  0  0  0  0  0  0  0  0  0
    6.9321    6.7582    0.0000 C   0  0  0  0  0  0  0  0  0  0  0  0
    8.0408    7.7685    0.0000 C   0  0  0  0  0  0  0  0  0  0  0  0
    7.7203    9.2338    0.0000 C   0  0  0  0  0  0  0  0  0  0  0  0
    9.3484    8.5035    0.0000 C   0  0  0  0  0  0  0  0  0  0  0  0
    8.4564    6.1877    0.0000 C   0  0  0  0  0  0  0  0  0  0  0  0
    8.0923    7.6428    0.0000 O   0  0  0  0  0  0  0  0  0  0  0  0
    9.8706    6.6879    0.0000 N   0  0  0  0  0  0  0  0  0  0  0  0
   11.3693    6.7491    0.0000 C   0  0  0  0  0  0  0  0  0  0  0  0
   12.3151    7.9134    0.0000 C   0  0  0  0  0  0  0  0  0  0  0  0
   11.7798    9.3146    0.0000 S   0  0  0  0  0  0  0  0  0  0  0  0
   12.8195    6.3659    0.0000 C   0  0  0  0  0  0  0  0  0  0  0  0
   13.4147    7.7427    0.0000 O   0  0  0  0  0  0  0  0  0  0  0  0
   14.0923    5.5721    0.0000 N   0  0  0  0  0  0  0  0  0  0  0  0
   15.0746    4.4385    0.0000 C   0  0  0  0  0  0  0  0  0  0  0  0
   16.5746    4.4249    0.0000 C   0  0  0  0  0  0  0  0  0  0  0  0
   17.3363    5.7171    0.0000 C   0  0  0  0  0  0  0  0  0  0  0  0
   18.8362    5.7035    0.0000 C   0  0  0  0  0  0  0  0  0  0  0  0
   19.5980    6.9957    0.0000 N   0  0  0  0  0  0  0  0  0  0  0  0
   21.0979    6.9821    0.0000 C   0  0  0  0  0  0  0  0  0  0  0  0
   21.8597    8.2743    0.0000 N   0  0  0  0  0  0  0  0  0  0  0  0
   21.8361    5.6764    0.0000 N   0  0  0  0  0  0  0  0  0  0  0  0
   15.6792    3.0657    0.0000 C   0  0  0  0  0  0  0  0  0  0  0  0
   17.1267    3.4589    0.0000 O   0  0  0  0  0  0  0  0  0  0  0  0
   15.8522    1.5757    0.0000 N   0  0  0  0  0  0  0  0  0  0  0  0
   15.5783    0.1010    0.0000 C   0  0  0  0  0  0  0  0  0  0  0  0
   14.8820   -1.2276    0.0000 C   0  0  0  0  0  0  0  0  0  0  0  0
   13.8249   -2.2919    0.0000 C   0  0  0  0  0  0  0  0  0  0  0  0
   12.5011   -2.9973    0.0000 C   0  0  0  0  0  0  0  0  0  0  0  0
   11.0283   -3.2812    0.0000 C   0  0  0  0  0  0  0  0  0  0  0  0
   17.0352    0.4579    0.0000 C   0  0  0  0  0  0  0  0  0  0  0  0
   16.5029   -1.0802    0.0000 C   0  0  0  0  0  0  0  0  0  0  0  0
   16.2956   -2.5658    0.0000 O   0  0  0  0  0  0  0  0  0  0  0  0
   17.9881   -0.8701    0.0000 N   0  0  0  0  0  0  0  0  0  0  0  0
   18.9127   -2.0513    0.0000 C   0  0  0  0  0  0  0  0  0  0  0  0
   19.3775   -3.4774    0.0000 C   0  0  0  0  0  0  0  0  0  0  0  0
   18.3749   -4.5931    0.0000 C   0  0  0  0  0  0  0  0  0  0  0  0
   18.6881   -6.0600    0.0000 C   0  0  0  0  0  0  0  0  0  0  0  0
   17.3897   -6.8112    0.0000 N   0  0  0  0  0  0  0  0  0  0  0  0
   16.2741   -5.8085    0.0000 C   0  0  0  0  0  0  0  0  0  0  0  0
   16.8829   -4.4376    0.0000 N   0  0  0  0  0  0  0  0  0  0  0  0
   20.3979   -1.8411    0.0000 C   0  0  0  0  0  0  0  0  0  0  0  0
   20.9585   -0.4499    0.0000 O   0  0  0  0  0  0  0  0  0  0  0  0
   21.3225   -3.0223    0.0000 N   0  0  0  0  0  0  0  0  0  0  0  0
   22.8077   -2.8122    0.0000 C   0  0  0  0  0  0  0  0  0  0  0  0
   24.1315   -2.1068    0.0000 C   0  0  0  0  0  0  0  0  0  0  0  0
   25.4043   -2.9005    0.0000 C   0  0  0  0  0  0  0  0  0  0  0  0
   26.7945   -2.3373    0.0000 C   0  0  0  0  0  0  0  0  0  0  0  0
   27.7598   -3.4855    0.0000 N   0  0  0  0  0  0  0  0  0  0  0  0
   26.9660   -4.7583    0.0000 C   0  0  0  0  0  0  0  0  0  0  0  0
   25.5103   -4.3967    0.0000 N   0  0  0  0  0  0  0  0  0  0  0  0
   23.7323   -3.9934    0.0000 C   0  0  0  0  0  0  0  0  0  0  0  0
   23.1716   -5.3847    0.0000 O   0  0  0  0  0  0  0  0  0  0  0  0
   25.2175   -3.7833    0.0000 N   0  0  0  0  0  0  0  0  0  0  0  0
   26.1420   -4.9644    0.0000 C   0  0  0  0  0  0  0  0  0  0  0  0
   26.6069   -6.3906    0.0000 C   0  0  0  0  0  0  0  0  0  0  0  0
   25.6042   -7.5062    0.0000 O   0  0  0  0  0  0  0  0  0  0  0  0
   27.6273   -4.7543    0.0000 C   0  0  0  0  0  0  0  0  0  0  0  0
   28.5079   -3.5400    0.0000 O   0  0  0  0  0  0  0  0  0  0  0  0
   28.5518   -5.9355    0.0000 N   0  0  0  0  0  0  0  0  0  0  0  0
   30.0370   -5.7254    0.0000 C   0  0  0  0  0  0  0  0  0  0  0  0
   31.3608   -5.0199    0.0000 C   0  0  0  0  0  0  0  0  0  0  0  0
   32.3635   -3.9043    0.0000 O   0  0  0  0  0  0  0  0  0  0  0  0
   32.6336   -5.8136    0.0000 C   0  0  0  0  0  0  0  0  0  0  0  0
   30.9616   -6.9065    0.0000 C   0  0  0  0  0  0  0  0  0  0  0  0
   32.4614   -6.8790    0.0000 O   0  0  0  0  0  0  0  0  0  0  0  0
   30.4010   -8.2978    0.0000 O   0  0  0  0  0  0  0  0  0  0  0  0
  -30.1898   -2.6968    0.0000 H   0  0  0  0  0  0  0  0  0  0  0  0
  -30.6672    1.7703    0.0000 H   0  0  0  0  0  0  0  0  0  0  0  0
  -33.3582    3.0964    0.0000 H   0  0  0  0  0  0  0  0  0  0  0  0
  -32.6047   -2.8223    0.0000 H   0  0  0  0  0  0  0  0  0  0  0  0
  -39.4258   -5.0102    0.0000 H   0  0  0  0  0  0  0  0  0  0  0  0
  -40.8377   -0.0095    0.0000 H   0  0  0  0  0  0  0  0  0  0  0  0
  -37.9506    0.8056    0.0000 H   0  0  0  0  0  0  0  0  0  0  0  0
  -42.6501   -1.8711    0.0000 H   0  0  0  0  0  0  0  0  0  0  0  0
  -32.9140   -0.4719    0.0000 H   0  0  0  0  0  0  0  0  0  0  0  0
  -30.7255   -2.7437    0.0000 H   0  0  0  0  0  0  0  0  0  0  0  0
  -34.3892   -6.2877    0.0000 H   0  0  0  0  0  0  0  0  0  0  0  0
  -31.8709   -6.9265    0.0000 H   0  0  0  0  0  0  0  0  0  0  0  0
  -27.7791   -2.5493    0.0000 H   0  0  0  0  0  0  0  0  0  0  0  0
  -25.7440    0.9911    0.0000 H   0  0  0  0  0  0  0  0  0  0  0  0
  -27.6682    0.8644    0.0000 H   0  0  0  0  0  0  0  0  0  0  0  0
  -24.2476   -1.9651    0.0000 H   0  0  0  0  0  0  0  0  0  0  0  0
  -26.1718   -2.0918    0.0000 H   0  0  0  0  0  0  0  0  0  0  0  0
  -22.5941   -2.2079    0.0000 H   0  0  0  0  0  0  0  0  0  0  0  0
  -22.4833    1.2058    0.0000 H   0  0  0  0  0  0  0  0  0  0  0  0
  -20.1398    2.7727    0.0000 H   0  0  0  0  0  0  0  0  0  0  0  0
  -21.9046    1.9955    0.0000 H   0  0  0  0  0  0  0  0  0  0  0  0
  -17.7225    0.5066    0.0000 H   0  0  0  0  0  0  0  0  0  0  0  0
  -18.7619   -0.2988    0.0000 H   0  0  0  0  0  0  0  0  0  0  0  0
  -17.8993    4.9622    0.0000 H   0  0  0  0  0  0  0  0  0  0  0  0
  -18.5867    1.7693    0.0000 H   0  0  0  0  0  0  0  0  0  0  0  0
  -18.5352   -1.4626    0.0000 H   0  0  0  0  0  0  0  0  0  0  0  0
  -15.1247   -2.1161    0.0000 H   0  0  0  0  0  0  0  0  0  0  0  0
  -15.3171   -0.4936    0.0000 H   0  0  0  0  0  0  0  0  0  0  0  0
  -17.7761   -4.1032    0.0000 H   0  0  0  0  0  0  0  0  0  0  0  0
  -18.3058   -2.3992    0.0000 H   0  0  0  0  0  0  0  0  0  0  0  0
  -14.5064   -4.6395    0.0000 H   0  0  0  0  0  0  0  0  0  0  0  0
  -14.8244   -2.8837    0.0000 H   0  0  0  0  0  0  0  0  0  0  0  0
  -17.7281   -5.7737    0.0000 H   0  0  0  0  0  0  0  0  0  0  0  0
  -14.6154   -9.0234    0.0000 H   0  0  0  0  0  0  0  0  0  0  0  0
  -12.7392   -7.2262    0.0000 H   0  0  0  0  0  0  0  0  0  0  0  0
  -13.3574   -4.7028    0.0000 H   0  0  0  0  0  0  0  0  0  0  0  0
  -14.6350   -1.6727    0.0000 H   0  0  0  0  0  0  0  0  0  0  0  0
  -14.7059    1.7178    0.0000 H   0  0  0  0  0  0  0  0  0  0  0  0
  -12.3624    3.2847    0.0000 H   0  0  0  0  0  0  0  0  0  0  0  0
  -14.1272    2.5075    0.0000 H   0  0  0  0  0  0  0  0  0  0  0  0
   -8.9041    2.9117    0.0000 H   0  0  0  0  0  0  0  0  0  0  0  0
  -11.0085    4.2644    0.0000 H   0  0  0  0  0  0  0  0  0  0  0  0
  -10.8093    2.2814    0.0000 H   0  0  0  0  0  0  0  0  0  0  0  0
  -10.6170   -1.0677    0.0000 H   0  0  0  0  0  0  0  0  0  0  0  0
   -8.2601   -2.3773    0.0000 H   0  0  0  0  0  0  0  0  0  0  0  0
   -9.9397   -1.7747    0.0000 H   0  0  0  0  0  0  0  0  0  0  0  0
   -5.9889    0.2497    0.0000 H   0  0  0  0  0  0  0  0  0  0  0  0
   -7.1250    0.9118    0.0000 H   0  0  0  0  0  0  0  0  0  0  0  0
   -5.5938   -3.0401    0.0000 H   0  0  0  0  0  0  0  0  0  0  0  0
   -7.3343   -2.6468    0.0000 H   0  0  0  0  0  0  0  0  0  0  0  0
   -3.8337   -0.1162    0.0000 H   0  0  0  0  0  0  0  0  0  0  0  0
   -1.2093   -3.1199    0.0000 H   0  0  0  0  0  0  0  0  0  0  0  0
   -3.0855   -4.9170    0.0000 H   0  0  0  0  0  0  0  0  0  0  0  0
   -5.5800   -4.1908    0.0000 H   0  0  0  0  0  0  0  0  0  0  0  0
   -6.6801   -1.1155    0.0000 H   0  0  0  0  0  0  0  0  0  0  0  0
   -6.9285    2.2299    0.0000 H   0  0  0  0  0  0  0  0  0  0  0  0
   -4.7637    3.8371    0.0000 H   0  0  0  0  0  0  0  0  0  0  0  0
   -6.3498    3.0196    0.0000 H   0  0  0  0  0  0  0  0  0  0  0  0
   -2.1677    1.5306    0.0000 H   0  0  0  0  0  0  0  0  0  0  0  0
   -3.0304    0.7735    0.0000 H   0  0  0  0  0  0  0  0  0  0  0  0
   -2.2073    4.8438    0.0000 H   0  0  0  0  0  0  0  0  0  0  0  0
   -3.8812    4.2257    0.0000 H   0  0  0  0  0  0  0  0  0  0  0  0
   -0.0790    2.1759    0.0000 H   0  0  0  0  0  0  0  0  0  0  0  0
    2.1289    5.4977    0.0000 H   0  0  0  0  0  0  0  0  0  0  0  0
    0.0332    7.0334    0.0000 H   0  0  0  0  0  0  0  0  0  0  0  0
   -2.3445    5.9863    0.0000 H   0  0  0  0  0  0  0  0  0  0  0  0
   -3.0319    2.7934    0.0000 H   0  0  0  0  0  0  0  0  0  0  0  0
   -2.8396   -0.5557    0.0000 H   0  0  0  0  0  0  0  0  0  0  0  0
   -0.4827   -1.8652    0.0000 H   0  0  0  0  0  0  0  0  0  0  0  0
   -2.2547   -1.1045    0.0000 H   0  0  0  0  0  0  0  0  0  0  0  0
    1.7885    0.7617    0.0000 H   0  0  0  0  0  0  0  0  0  0  0  0
    0.8339    1.3992    0.0000 H   0  0  0  0  0  0  0  0  0  0  0  0
    2.1836   -2.5281    0.0000 H   0  0  0  0  0  0  0  0  0  0  0  0
    0.4431   -2.1348    0.0000 H   0  0  0  0  0  0  0  0  0  0  0  0
    3.9437    0.3959    0.0000 H   0  0  0  0  0  0  0  0  0  0  0  0
    6.3643   -2.8271    0.0000 H   0  0  0  0  0  0  0  0  0  0  0  0
    4.6919   -4.4050    0.0000 H   0  0  0  0  0  0  0  0  0  0  0  0
    2.1974   -3.6787    0.0000 H   0  0  0  0  0  0  0  0  0  0  0  0
    1.0973   -0.6035    0.0000 H   0  0  0  0  0  0  0  0  0  0  0  0
    0.8489    2.7419    0.0000 H   0  0  0  0  0  0  0  0  0  0  0  0
    1.3568    3.3627    0.0000 H   0  0  0  0  0  0  0  0  0  0  0  0
    5.1732    3.9159    0.0000 H   0  0  0  0  0  0  0  0  0  0  0  0
    5.7747    2.3913    0.0000 H   0  0  0  0  0  0  0  0  0  0  0  0
    4.6572    1.2546    0.0000 H   0  0  0  0  0  0  0  0  0  0  0  0
    3.0938    5.8055    0.0000 H   0  0  0  0  0  0  0  0  0  0  0  0
    1.7322    4.6522    0.0000 H   0  0  0  0  0  0  0  0  0  0  0  0
    4.7484    6.1830    0.0000 H   0  0  0  0  0  0  0  0  0  0  0  0
    6.1355    4.8685    0.0000 H   0  0  0  0  0  0  0  0  0  0  0  0
    4.7478    3.1690    0.0000 H   0  0  0  0  0  0  0  0  0  0  0  0
    4.1987    3.3029    0.0000 H   0  0  0  0  0  0  0  0  0  0  0  0
    4.7186   -0.2266    0.0000 H   0  0  0  0  0  0  0  0  0  0  0  0
    5.5512   -1.6251    0.0000 H   0  0  0  0  0  0  0  0  0  0  0  0
    5.7087   -2.2771    0.0000 H   0  0  0  0  0  0  0  0  0  0  0  0
    6.6006   -2.9888    0.0000 H   0  0  0  0  0  0  0  0  0  0  0  0
    6.9978   -3.4712    0.0000 H   0  0  0  0  0  0  0  0  0  0  0  0
    8.1841   -4.0230    0.0000 H   0  0  0  0  0  0  0  0  0  0  0  0
    9.1538   -4.5685    0.0000 H   0  0  0  0  0  0  0  0  0  0  0  0
    4.7127   -1.2980    0.0000 H   0  0  0  0  0  0  0  0  0  0  0  0
    3.1832   -0.1236    0.0000 H   0  0  0  0  0  0  0  0  0  0  0  0
    3.5554    1.2154    0.0000 H   0  0  0  0  0  0  0  0  0  0  0  0
    5.2454    5.0801    0.0000 H   0  0  0  0  0  0  0  0  0  0  0  0
    5.7851    5.6034    0.0000 H   0  0  0  0  0  0  0  0  0  0  0  0
    5.9812    7.9183    0.0000 H   0  0  0  0  0  0  0  0  0  0  0  0
    5.4479    6.5408    0.0000 H   0  0  0  0  0  0  0  0  0  0  0  0
    9.1260    6.7329    0.0000 H   0  0  0  0  0  0  0  0  0  0  0  0
    8.6977   10.3717    0.0000 H   0  0  0  0  0  0  0  0  0  0  0  0
    6.9180   10.5012    0.0000 H   0  0  0  0  0  0  0  0  0  0  0  0
    6.2737    8.8371    0.0000 H   0  0  0  0  0  0  0  0  0  0  0  0
    9.8080    9.7897    0.0000 H   0  0  0  0  0  0  0  0  0  0  0  0
   10.9279    8.5930    0.0000 H   0  0  0  0  0  0  0  0  0  0  0  0
   10.0939    6.9943    0.0000 H   0  0  0  0  0  0  0  0  0  0  0  0
    9.7683    8.1845    0.0000 H   0  0  0  0  0  0  0  0  0  0  0  0
   10.8656    8.1620    0.0000 H   0  0  0  0  0  0  0  0  0  0  0  0
   13.6021    8.6839    0.0000 H   0  0  0  0  0  0  0  0  0  0  0  0
   13.5426    7.0511    0.0000 H   0  0  0  0  0  0  0  0  0  0  0  0
   12.7256   10.4788    0.0000 H   0  0  0  0  0  0  0  0  0  0  0  0
   15.0669    6.7124    0.0000 H   0  0  0  0  0  0  0  0  0  0  0  0
   15.5333    5.8667    0.0000 H   0  0  0  0  0  0  0  0  0  0  0  0
   17.9048    3.7318    0.0000 H   0  0  0  0  0  0  0  0  0  0  0  0
   16.6657    2.9277    0.0000 H   0  0  0  0  0  0  0  0  0  0  0  0
   17.6101    7.1919    0.0000 H   0  0  0  0  0  0  0  0  0  0  0  0
   16.0060    6.4102    0.0000 H   0  0  0  0  0  0  0  0  0  0  0  0
   20.2411    5.1778    0.0000 H   0  0  0  0  0  0  0  0  0  0  0  0
   18.7442    4.2064    0.0000 H   0  0  0  0  0  0  0  0  0  0  0  0
   18.8598    8.3015    0.0000 H   0  0  0  0  0  0  0  0  0  0  0  0
   23.3596    8.2607    0.0000 H   0  0  0  0  0  0  0  0  0  0  0  0
   23.3361    5.6628    0.0000 H   0  0  0  0  0  0  0  0  0  0  0  0
   21.0744    4.3842    0.0000 H   0  0  0  0  0  0  0  0  0  0  0  0
   17.3513    1.5248    0.0000 H   0  0  0  0  0  0  0  0  0  0  0  0
   15.4173   -2.6288    0.0000 H   0  0  0  0  0  0  0  0  0  0  0  0
   16.3135   -1.6756    0.0000 H   0  0  0  0  0  0  0  0  0  0  0  0
   14.1052   -3.7655    0.0000 H   0  0  0  0  0  0  0  0  0  0  0  0
   15.0608   -3.1420    0.0000 H   0  0  0  0  0  0  0  0  0  0  0  0
   12.1541   -4.4566    0.0000 H   0  0  0  0  0  0  0  0  0  0  0  0
   13.5680   -4.0517    0.0000 H   0  0  0  0  0  0  0  0  0  0  0  0
   11.0894   -4.7799    0.0000 H   0  0  0  0  0  0  0  0  0  0  0  0
   18.3041   -0.3421    0.0000 H   0  0  0  0  0  0  0  0  0  0  0  0
   18.1713    1.4374    0.0000 H   0  0  0  0  0  0  0  0  0  0  0  0
   16.7809    1.9362    0.0000 H   0  0  0  0  0  0  0  0  0  0  0  0
   18.7142    0.4425    0.0000 H   0  0  0  0  0  0  0  0  0  0  0  0
   17.5889   -2.7567    0.0000 H   0  0  0  0  0  0  0  0  0  0  0  0
   20.1512   -4.7625    0.0000 H   0  0  0  0  0  0  0  0  0  0  0  0
   20.8327   -3.1133    0.0000 H   0  0  0  0  0  0  0  0  0  0  0  0
   20.0589   -6.6689    0.0000 H   0  0  0  0  0  0  0  0  0  0  0  0
   17.2343   -8.3031    0.0000 H   0  0  0  0  0  0  0  0  0  0  0  0
   14.8071   -6.1217    0.0000 H   0  0  0  0  0  0  0  0  0  0  0  0
   20.9356   -4.4716    0.0000 H   0  0  0  0  0  0  0  0  0  0  0  0
   22.3429   -1.3860    0.0000 H   0  0  0  0  0  0  0  0  0  0  0  0
   25.1341   -0.9911    0.0000 H   0  0  0  0  0  0  0  0  0  0  0  0
   23.2069   -0.9256    0.0000 H   0  0  0  0  0  0  0  0  0  0  0  0
   27.1561   -0.8815    0.0000 H   0  0  0  0  0  0  0  0  0  0  0  0
   29.2560   -3.3795    0.0000 H   0  0  0  0  0  0  0  0  0  0  0  0
   27.6945   -6.0695    0.0000 H   0  0  0  0  0  0  0  0  0  0  0  0
   26.0981   -2.5690    0.0000 H   0  0  0  0  0  0  0  0  0  0  0  0
   24.8183   -5.6698    0.0000 H   0  0  0  0  0  0  0  0  0  0  0  0
   27.3806   -7.6756    0.0000 H   0  0  0  0  0  0  0  0  0  0  0  0
   28.0955   -6.2065    0.0000 H   0  0  0  0  0  0  0  0  0  0  0  0
   26.0690   -8.9324    0.0000 H   0  0  0  0  0  0  0  0  0  0  0  0
   28.1650   -7.3847    0.0000 H   0  0  0  0  0  0  0  0  0  0  0  0
   29.5722   -4.2992    0.0000 H   0  0  0  0  0  0  0  0  0  0  0  0
   30.4362   -3.8388    0.0000 H   0  0  0  0  0  0  0  0  0  0  0  0
   33.8579   -4.0336    0.0000 H   0  0  0  0  0  0  0  0  0  0  0  0
   34.0335   -5.2749    0.0000 H   0  0  0  0  0  0  0  0  0  0  0  0
   33.5582   -6.9948    0.0000 H   0  0  0  0  0  0  0  0  0  0  0  0
   32.0975   -7.2146    0.0000 H   0  0  0  0  0  0  0  0  0  0  0  0
   31.3256   -9.4790    0.0000 H   0  0  0  0  0  0  0  0  0  0  0  0
  1  2  1  0
  2  3  1  0
  3  4  2  0
  4  5  1  0
  5  6  2  0
  6  7  1  0
  7  8  2  0
  7  9  1  0
  9 10  1  0
 10 11  1  0
 11 12  2  0
  9 13  1  0
 13 14  1  0
 14 15  2  0
 15 16  1  0
 16 17  2  0
 17 18  1  0
 16 19  1  0
 14 20  1  0
 20 21  1  0
 21 22  2  0
 22 23  1  0
 23 24  2  0
 24 25  1  0
 25 26  2  0
 25 27  1  0
  1 28  2  0
  1 29  1  0
 29 30  1  0
 30 31  1  0
 31 32  1  0
 32 33  2  0
 32 34  1  0
 34 35  1  0
 35 36  1  0
 36 37  1  0
 37 38  1  0
 38 39  2  0
 38 40  1  0
 35 41  1  0
 41 42  2  0
 41 43  1  0
 43 44  1  0
 44 45  1  0
 45 46  1  0
 46 47  1  0
 47 48  1  0
 48 49  1  0
 49 50  2  3
 49 51  1  0
 44 52  1  0
 52 53  2  0
 52 54  1  0
 54 55  1  0
 55 56  1  0
 56 57  1  0
 57 58  1  0
 57 59  2  0
 55 60  1  0
 60 61  2  0
 60 62  1  0
 62 63  1  0
 63 64  1  0
 64 65  1  0
 65 66  1  0
 66 67  1  0
 67 68  1  0
 68 69  2  3
 68 70  1  0
 63 71  1  0
 71 72  2  0
 71 73  1  0
 73 74  1  0
 74 75  1  0
 75 76  1  0
 76 77  1  0
 77 78  1  0
 78 79  1  0
 79 80  2  3
 79 81  1  0
 74 82  1  0
 82 83  2  0
 82 84  1  0
 84 85  1  0
 85 86  1  0
 86 87  1  0
 87 88  1  0
 88 89  1  0
 89 90  1  0
 90 91  2  3
 90 92  1  0
 85 93  1  0
 93 94  2  0
 93 95  1  0
 95 96  1  0
 96 97  1  0
 97 98  1  0
 97 99  1  0
 99100  1  0
 96101  1  0
101102  2  0
101103  1  0
104103  1  6
104105  1  0
105106  1  0
106107  1  0
107108  1  0
104109  1  0
104110  1  0
110111  2  0
110112  1  0
112113  1  0
113114  1  0
114115  1  0
115116  1  0
115117  1  0
113118  1  0
118119  2  0
118120  1  0
120121  1  0
121122  1  0
122123  1  0
121124  1  0
124125  2  0
124126  1  0
126127  1  0
127128  1  0
128129  1  0
129130  1  0
130131  1  0
131132  1  0
132133  2  3
132134  1  0
127135  1  0
135136  2  0
135137  1  0
137138  1  0
138139  1  0
139140  1  0
140141  1  0
141142  1  0
138143  1  0
138144  1  6
144145  2  0
144146  1  0
146147  1  0
147148  1  0
148149  1  0
149150  2  0
150151  1  0
151152  1  0
152153  2  0
147154  1  0
154155  2  0
154156  1  0
156157  1  0
157158  1  0
158159  1  0
159160  2  0
160161  1  0
161162  1  0
162163  2  0
157164  1  0
164165  2  0
164166  1  0
166167  1  0
167168  1  0
168169  1  0
167170  1  0
170171  2  0
170172  1  0
172173  1  0
173174  1  0
174175  1  0
174176  1  0
173177  1  0
177178  2  0
177179  1  0
  8  3  1  0
153149  1  0
163159  1  0
 11  6  1  0
108142  2  0
 18 13  2  0
 22  9  1  0
 26 21  1  0
  2180  1  0
  4181  1  0
  5182  1  0
  8183  1  0
 15184  1  0
 17185  1  0
 18186  1  0
 19187  1  0
 23188  1  0
 24189  1  0
 26190  1  0
 27191  1  0
 29192  1  0
 30193  1  0
 30194  1  0
 31195  1  0
 31196  1  0
 34197  1  0
 35198  1  1
 36199  1  0
 36200  1  0
 37201  1  0
 37202  1  0
 40203  1  0
 43204  1  0
 44205  1  6
 45206  1  0
 45207  1  0
 46208  1  0
 46209  1  0
 47210  1  0
 47211  1  0
 48212  1  0
 50213  1  0
 51214  1  0
 51215  1  0
 54216  1  0
 55217  1  6
 56218  1  0
 56219  1  0
 58220  1  0
 58221  1  0
 62222  1  0
 63223  1  6
 64224  1  0
 64225  1  0
 65226  1  0
 65227  1  0
 66228  1  0
 66229  1  0
 67230  1  0
 69231  1  0
 70232  1  0
 70233  1  0
 73234  1  0
 74235  1  1
 75236  1  0
 75237  1  0
 76238  1  0
 76239  1  0
 77240  1  0
 77241  1  0
 78242  1  0
 80243  1  0
 81244  1  0
 81245  1  0
 84246  1  0
 85247  1  6
 86248  1  0
 86249  1  0
 87250  1  0
 87251  1  0
 88252  1  0
 88253  1  0
 89254  1  0
 91255  1  0
 92256  1  0
 92257  1  0
 95258  1  0
 96259  1  1
 97260  1  1
 98261  1  0
 98262  1  0
 98263  1  0
 99264  1  0
 99265  1  0
100266  1  0
100267  1  0
100268  1  0
103269  1  0
105270  1  0
105271  1  0
106272  1  0
106273  1  0
107274  1  0
107275  1  0
108276  1  0
109277  1  0
109278  1  0
109279  1  0
112280  1  0
113281  1  1
114282  1  0
114283  1  0
115284  1  0
116285  1  0
116286  1  0
116287  1  0
117288  1  0
117289  1  0
117290  1  0
120291  1  0
121292  1  1
122293  1  0
122294  1  0
123295  1  0
126296  1  0
127297  1  1
128298  1  0
128299  1  0
129300  1  0
129301  1  0
130302  1  0
130303  1  0
131304  1  0
133305  1  0
134306  1  0
134307  1  0
137308  1  0
139309  1  0
139310  1  0
140311  1  0
140312  1  0
141313  1  0
141314  1  0
142315  1  0
143316  1  0
143317  1  0
143318  1  0
146319  1  0
147320  1  6
148321  1  0
148322  1  0
150323  1  0
151324  1  0
152325  1  0
156326  1  0
157327  1  1
158328  1  0
158329  1  0
160330  1  0
161331  1  0
162332  1  0
166333  1  0
167334  1  6
168335  1  0
168336  1  0
169337  1  0
172338  1  0
173339  1  1
174340  1  1
175341  1  0
176342  1  0
176343  1  0
176344  1  0
179345  1  0
M  END
