
     RDKit          2D

249252  0  0  0  0  0  0  0  0999 V2000
   24.0767   -3.4425    0.0000 N   0  0  0  0  0  0  0  0  0  0  0  0
   22.5779   -3.5015    0.0000 C   0  0  0  0  0  0  0  0  0  0  0  0
   21.7774   -2.2330    0.0000 C   0  0  0  0  0  0  0  0  0  0  0  0
   20.2785   -2.2920    0.0000 C   0  0  0  0  0  0  0  0  0  0  0  0
   20.0188   -3.3542    0.0000 O   0  0  0  0  0  0  0  0  0  0  0  0
   19.4780   -1.0235    0.0000 N   0  0  0  0  0  0  0  0  0  0  0  0
   17.9791   -1.0825    0.0000 C   0  0  0  0  0  0  0  0  0  0  0  0
   18.1813    0.4038    0.0000 C   0  0  0  0  0  0  0  0  0  0  0  0
   19.5695    0.9719    0.0000 C   0  0  0  0  0  0  0  0  0  0  0  0
   19.7717    2.4582    0.0000 O   0  0  0  0  0  0  0  0  0  0  0  0
   20.8587    0.2051    0.0000 O   0  0  0  0  0  0  0  0  0  0  0  0
   16.5909   -1.6506    0.0000 C   0  0  0  0  0  0  0  0  0  0  0  0
   15.4048   -0.7324    0.0000 O   0  0  0  0  0  0  0  0  0  0  0  0
   16.3887   -3.1370    0.0000 N   0  0  0  0  0  0  0  0  0  0  0  0
   15.0005   -3.7051    0.0000 C   0  0  0  0  0  0  0  0  0  0  0  0
   15.8010   -4.9736    0.0000 C   0  0  0  0  0  0  0  0  0  0  0  0
   17.2999   -4.9146    0.0000 C   0  0  0  0  0  0  0  0  0  0  0  0
   18.2286   -6.0924    0.0000 C   0  0  0  0  0  0  0  0  0  0  0  0
   19.6359   -5.5731    0.0000 N   0  0  0  0  0  0  0  0  0  0  0  0
   19.5768   -4.0743    0.0000 C   0  0  0  0  0  0  0  0  0  0  0  0
   18.1331   -3.6673    0.0000 N   0  0  0  0  0  0  0  0  0  0  0  0
   13.5017   -3.7641    0.0000 C   0  0  0  0  0  0  0  0  0  0  0  0
   13.3123   -4.5384    0.0000 O   0  0  0  0  0  0  0  0  0  0  0  0
   12.7011   -2.4956    0.0000 N   0  0  0  0  0  0  0  0  0  0  0  0
   11.2023   -2.5546    0.0000 C   0  0  0  0  0  0  0  0  0  0  0  0
   11.5207   -4.0204    0.0000 C   0  0  0  0  0  0  0  0  0  0  0  0
   12.9493   -4.4776    0.0000 C   0  0  0  0  0  0  0  0  0  0  0  0
   11.3185   -5.5067    0.0000 C   0  0  0  0  0  0  0  0  0  0  0  0
   12.5047   -6.4249    0.0000 C   0  0  0  0  0  0  0  0  0  0  0  0
    9.7736   -2.0974    0.0000 C   0  0  0  0  0  0  0  0  0  0  0  0
    8.9405   -3.3448    0.0000 O   0  0  0  0  0  0  0  0  0  0  0  0
    9.4552   -0.6316    0.0000 N   0  0  0  0  0  0  0  0  0  0  0  0
    8.0266   -0.1744    0.0000 C   0  0  0  0  0  0  0  0  0  0  0  0
    7.8245   -1.6608    0.0000 C   0  0  0  0  0  0  0  0  0  0  0  0
    9.0106   -2.5790    0.0000 C   0  0  0  0  0  0  0  0  0  0  0  0
    8.8084   -4.0653    0.0000 C   0  0  0  0  0  0  0  0  0  0  0  0
    9.9946   -4.9835    0.0000 C   0  0  0  0  0  0  0  0  0  0  0  0
    9.6128   -6.4341    0.0000 N   0  0  0  0  0  0  0  0  0  0  0  0
    6.8405    0.7438    0.0000 C   0  0  0  0  0  0  0  0  0  0  0  0
    5.7481   -0.2842    0.0000 O   0  0  0  0  0  0  0  0  0  0  0  0
    7.0426    2.2301    0.0000 N   0  0  0  0  0  0  0  0  0  0  0  0
    5.8565    3.1483    0.0000 C   0  0  0  0  0  0  0  0  0  0  0  0
    5.5074    1.6895    0.0000 C   0  0  0  0  0  0  0  0  0  0  0  0
    4.7438    0.3984    0.0000 C   0  0  0  0  0  0  0  0  0  0  0  0
    3.6335   -0.6102    0.0000 C   0  0  0  0  0  0  0  0  0  0  0  0
    2.2753   -1.2468    0.0000 C   0  0  0  0  0  0  0  0  0  0  0  0
    7.1813    3.8518    0.0000 C   0  0  0  0  0  0  0  0  0  0  0  0
    5.7601    4.6452    0.0000 C   0  0  0  0  0  0  0  0  0  0  0  0
    7.2259    4.9636    0.0000 O   0  0  0  0  0  0  0  0  0  0  0  0
    5.2268    6.0472    0.0000 N   0  0  0  0  0  0  0  0  0  0  0  0
    4.3040    7.2297    0.0000 C   0  0  0  0  0  0  0  0  0  0  0  0
    4.5799    8.7041    0.0000 C   0  0  0  0  0  0  0  0  0  0  0  0
    5.9948    9.2023    0.0000 O   0  0  0  0  0  0  0  0  0  0  0  0
    3.0735    8.0877    0.0000 C   0  0  0  0  0  0  0  0  0  0  0  0
    3.7385    9.4322    0.0000 O   0  0  0  0  0  0  0  0  0  0  0  0
    1.6449    8.5448    0.0000 N   0  0  0  0  0  0  0  0  0  0  0  0
    0.1450    8.5606    0.0000 C   0  0  0  0  0  0  0  0  0  0  0  0
   -0.8357    9.6956    0.0000 C   0  0  0  0  0  0  0  0  0  0  0  0
   -0.3430   11.1124    0.0000 C   0  0  0  0  0  0  0  0  0  0  0  0
    1.1303   11.3942    0.0000 C   0  0  0  0  0  0  0  0  0  0  0  0
    1.6229   12.8110    0.0000 C   0  0  0  0  0  0  0  0  0  0  0  0
    0.6422   13.9460    0.0000 C   0  0  0  0  0  0  0  0  0  0  0  0
   -0.8311   13.6642    0.0000 C   0  0  0  0  0  0  0  0  0  0  0  0
   -1.3237   12.2474    0.0000 C   0  0  0  0  0  0  0  0  0  0  0  0
   -1.2929    8.1335    0.0000 C   0  0  0  0  0  0  0  0  0  0  0  0
   -1.9295    9.4917    0.0000 O   0  0  0  0  0  0  0  0  0  0  0  0
   -2.5411    7.3016    0.0000 N   0  0  0  0  0  0  0  0  0  0  0  0
   -3.4886    6.1387    0.0000 C   0  0  0  0  0  0  0  0  0  0  0  0
   -4.9874    6.0797    0.0000 C   0  0  0  0  0  0  0  0  0  0  0  0
   -5.7880    7.3482    0.0000 C   0  0  0  0  0  0  0  0  0  0  0  0
   -7.2848    7.4462    0.0000 C   0  0  0  0  0  0  0  0  0  0  0  0
   -7.6541    8.9000    0.0000 N   0  0  0  0  0  0  0  0  0  0  0  0
   -6.3856    9.7006    0.0000 C   0  0  0  0  0  0  0  0  0  0  0  0
   -5.2323    8.7415    0.0000 N   0  0  0  0  0  0  0  0  0  0  0  0
   -4.0513    4.7483    0.0000 C   0  0  0  0  0  0  0  0  0  0  0  0
   -5.5101    5.0974    0.0000 O   0  0  0  0  0  0  0  0  0  0  0  0
   -4.1791    3.2537    0.0000 N   0  0  0  0  0  0  0  0  0  0  0  0
   -3.8607    1.7879    0.0000 C   0  0  0  0  0  0  0  0  0  0  0  0
   -3.1243    0.4811    0.0000 C   0  0  0  0  0  0  0  0  0  0  0  0
   -2.0355   -0.5507    0.0000 C   0  0  0  0  0  0  0  0  0  0  0  0
   -0.6910   -1.2157    0.0000 C   0  0  0  0  0  0  0  0  0  0  0  0
    0.7898   -1.4548    0.0000 C   0  0  0  0  0  0  0  0  0  0  0  0
   -5.3277    2.1006    0.0000 C   0  0  0  0  0  0  0  0  0  0  0  0
   -4.7490    0.5793    0.0000 C   0  0  0  0  0  0  0  0  0  0  0  0
   -4.4968   -0.8994    0.0000 O   0  0  0  0  0  0  0  0  0  0  0  0
   -6.2399    0.7443    0.0000 N   0  0  0  0  0  0  0  0  0  0  0  0
   -7.1283   -0.4644    0.0000 C   0  0  0  0  0  0  0  0  0  0  0  0
   -7.5497   -1.9039    0.0000 C   0  0  0  0  0  0  0  0  0  0  0  0
   -9.0071   -2.2588    0.0000 C   0  0  0  0  0  0  0  0  0  0  0  0
   -9.4285   -3.6984    0.0000 C   0  0  0  0  0  0  0  0  0  0  0  0
  -10.4980   -2.0938    0.0000 C   0  0  0  0  0  0  0  0  0  0  0  0
   -8.6192   -0.2993    0.0000 C   0  0  0  0  0  0  0  0  0  0  0  0
   -9.2217    1.0743    0.0000 O   0  0  0  0  0  0  0  0  0  0  0  0
   -9.5075   -1.5080    0.0000 N   0  0  0  0  0  0  0  0  0  0  0  0
  -10.9984   -1.3430    0.0000 C   0  0  0  0  0  0  0  0  0  0  0  0
  -12.3430   -0.6780    0.0000 C   0  0  0  0  0  0  0  0  0  0  0  0
  -12.4393    0.8189    0.0000 C   0  0  0  0  0  0  0  0  0  0  0  0
  -13.7839    1.4839    0.0000 C   0  0  0  0  0  0  0  0  0  0  0  0
  -13.8803    2.9808    0.0000 N   0  0  0  0  0  0  0  0  0  0  0  0
  -15.2248    3.6458    0.0000 C   0  0  0  0  0  0  0  0  0  0  0  0
  -15.3212    5.1427    0.0000 N   0  0  0  0  0  0  0  0  0  0  0  0
  -16.4730    2.8139    0.0000 N   0  0  0  0  0  0  0  0  0  0  0  0
  -11.8868   -2.5516    0.0000 C   0  0  0  0  0  0  0  0  0  0  0  0
  -11.4562   -3.9885    0.0000 O   0  0  0  0  0  0  0  0  0  0  0  0
  -13.3777   -2.3866    0.0000 N   0  0  0  0  0  0  0  0  0  0  0  0
  -14.2660   -3.5952    0.0000 C   0  0  0  0  0  0  0  0  0  0  0  0
  -14.6874   -5.0348    0.0000 C   0  0  0  0  0  0  0  0  0  0  0  0
  -16.1449   -5.3896    0.0000 C   0  0  0  0  0  0  0  0  0  0  0  0
  -16.5663   -6.8292    0.0000 O   0  0  0  0  0  0  0  0  0  0  0  0
  -17.4126   -4.5878    0.0000 O   0  0  0  0  0  0  0  0  0  0  0  0
  -15.7569   -3.4302    0.0000 C   0  0  0  0  0  0  0  0  0  0  0  0
  -16.3595   -2.0565    0.0000 O   0  0  0  0  0  0  0  0  0  0  0  0
  -16.6453   -4.6388    0.0000 N   0  0  0  0  0  0  0  0  0  0  0  0
  -18.1362   -4.4738    0.0000 C   0  0  0  0  0  0  0  0  0  0  0  0
  -19.4807   -3.8088    0.0000 C   0  0  0  0  0  0  0  0  0  0  0  0
  -20.9442   -4.1381    0.0000 O   0  0  0  0  0  0  0  0  0  0  0  0
  -19.0246   -5.6825    0.0000 C   0  0  0  0  0  0  0  0  0  0  0  0
  -18.4220   -7.0561    0.0000 O   0  0  0  0  0  0  0  0  0  0  0  0
  -20.5154   -5.5174    0.0000 N   0  0  0  0  0  0  0  0  0  0  0  0
  -21.4038   -6.7261    0.0000 C   0  0  0  0  0  0  0  0  0  0  0  0
  -21.8252   -8.1657    0.0000 C   0  0  0  0  0  0  0  0  0  0  0  0
  -23.2826   -8.5205    0.0000 C   0  0  0  0  0  0  0  0  0  0  0  0
  -22.8947   -6.5611    0.0000 C   0  0  0  0  0  0  0  0  0  0  0  0
  -23.9238   -7.6524    0.0000 O   0  0  0  0  0  0  0  0  0  0  0  0
  -23.4972   -5.1874    0.0000 O   0  0  0  0  0  0  0  0  0  0  0  0
   24.8773   -4.7110    0.0000 H   0  0  0  0  0  0  0  0  0  0  0  0
   24.7750   -2.1149    0.0000 H   0  0  0  0  0  0  0  0  0  0  0  0
   22.8963   -4.9673    0.0000 H   0  0  0  0  0  0  0  0  0  0  0  0
   21.1896   -4.0696    0.0000 H   0  0  0  0  0  0  0  0  0  0  0  0
   23.1656   -1.6649    0.0000 H   0  0  0  0  0  0  0  0  0  0  0  0
   21.4590   -0.7672    0.0000 H   0  0  0  0  0  0  0  0  0  0  0  0
   20.3329    0.2090    0.0000 H   0  0  0  0  0  0  0  0  0  0  0  0
   18.2975   -2.5484    0.0000 H   0  0  0  0  0  0  0  0  0  0  0  0
   17.8629    1.8696    0.0000 H   0  0  0  0  0  0  0  0  0  0  0  0
   16.6824    0.3447    0.0000 H   0  0  0  0  0  0  0  0  0  0  0  0
   17.7618   -3.7409    0.0000 H   0  0  0  0  0  0  0  0  0  0  0  0
   14.6821   -2.2392    0.0000 H   0  0  0  0  0  0  0  0  0  0  0  0
   16.1194   -6.4394    0.0000 H   0  0  0  0  0  0  0  0  0  0  0  0
   14.4128   -5.5417    0.0000 H   0  0  0  0  0  0  0  0  0  0  0  0
   17.8216   -7.5362    0.0000 H   0  0  0  0  0  0  0  0  0  0  0  0
   20.8831   -6.4064    0.0000 H   0  0  0  0  0  0  0  0  0  0  0  0
   20.7547   -3.1455    0.0000 H   0  0  0  0  0  0  0  0  0  0  0  0
   13.3994   -1.1680    0.0000 H   0  0  0  0  0  0  0  0  0  0  0  0
   11.4044   -1.0683    0.0000 H   0  0  0  0  0  0  0  0  0  0  0  0
   10.0258   -3.8963    0.0000 H   0  0  0  0  0  0  0  0  0  0  0  0
   13.4440   -5.8937    0.0000 H   0  0  0  0  0  0  0  0  0  0  0  0
   14.4482   -4.4186    0.0000 H   0  0  0  0  0  0  0  0  0  0  0  0
   13.5444   -3.1055    0.0000 H   0  0  0  0  0  0  0  0  0  0  0  0
   10.9622   -6.9638    0.0000 H   0  0  0  0  0  0  0  0  0  0  0  0
    9.8217   -5.4088    0.0000 H   0  0  0  0  0  0  0  0  0  0  0  0
   12.3025   -7.9113    0.0000 H   0  0  0  0  0  0  0  0  0  0  0  0
   13.9333   -6.8821    0.0000 H   0  0  0  0  0  0  0  0  0  0  0  0
   13.6324   -5.4359    0.0000 H   0  0  0  0  0  0  0  0  0  0  0  0
   10.5655    0.3770    0.0000 H   0  0  0  0  0  0  0  0  0  0  0  0
    8.7249    1.1531    0.0000 H   0  0  0  0  0  0  0  0  0  0  0  0
    6.9695   -2.8933    0.0000 H   0  0  0  0  0  0  0  0  0  0  0  0
    6.3958   -1.2036    0.0000 H   0  0  0  0  0  0  0  0  0  0  0  0
   10.4843   -2.8586    0.0000 H   0  0  0  0  0  0  0  0  0  0  0  0
   10.0094   -1.4599    0.0000 H   0  0  0  0  0  0  0  0  0  0  0  0
    7.9535   -5.2978    0.0000 H   0  0  0  0  0  0  0  0  0  0  0  0
    7.3347   -3.7857    0.0000 H   0  0  0  0  0  0  0  0  0  0  0  0
   11.2701   -5.7728    0.0000 H   0  0  0  0  0  0  0  0  0  0  0  0
   10.6929   -3.6560    0.0000 H   0  0  0  0  0  0  0  0  0  0  0  0
   10.8521   -7.5474    0.0000 H   0  0  0  0  0  0  0  0  0  0  0  0
    9.0941   -7.7974    0.0000 H   0  0  0  0  0  0  0  0  0  0  0  0
    8.3217   -6.1681    0.0000 H   0  0  0  0  0  0  0  0  0  0  0  0
    8.4898    2.6247    0.0000 H   0  0  0  0  0  0  0  0  0  0  0  0
    7.0051    1.6064    0.0000 H   0  0  0  0  0  0  0  0  0  0  0  0
    6.2141    0.3664    0.0000 H   0  0  0  0  0  0  0  0  0  0  0  0
    5.9826   -0.4474    0.0000 H   0  0  0  0  0  0  0  0  0  0  0  0
    5.3770   -0.9614    0.0000 H   0  0  0  0  0  0  0  0  0  0  0  0
    4.9265   -1.3707    0.0000 H   0  0  0  0  0  0  0  0  0  0  0  0
    3.6552   -2.1101    0.0000 H   0  0  0  0  0  0  0  0  0  0  0  0
    2.7024   -2.6848    0.0000 H   0  0  0  0  0  0  0  0  0  0  0  0
    8.5404    3.2172    0.0000 H   0  0  0  0  0  0  0  0  0  0  0  0
    8.1856    4.9660    0.0000 H   0  0  0  0  0  0  0  0  0  0  0  0
    6.5720    5.2225    0.0000 H   0  0  0  0  0  0  0  0  0  0  0  0
    6.5337    6.7835    0.0000 H   0  0  0  0  0  0  0  0  0  0  0  0
    5.7614    7.5845    0.0000 H   0  0  0  0  0  0  0  0  0  0  0  0
    4.3350   10.1840    0.0000 H   0  0  0  0  0  0  0  0  0  0  0  0
    3.1284    9.0823    0.0000 H   0  0  0  0  0  0  0  0  0  0  0  0
    6.2708   10.6767    0.0000 H   0  0  0  0  0  0  0  0  0  0  0  0
    2.0628    9.9854    0.0000 H   0  0  0  0  0  0  0  0  0  0  0  0
    0.7762    9.9213    0.0000 H   0  0  0  0  0  0  0  0  0  0  0  0
   -2.1454   10.4268    0.0000 H   0  0  0  0  0  0  0  0  0  0  0  0
   -2.0364    8.7966    0.0000 H   0  0  0  0  0  0  0  0  0  0  0  0
    2.2420   10.3871    0.0000 H   0  0  0  0  0  0  0  0  0  0  0  0
    3.0962   13.0927    0.0000 H   0  0  0  0  0  0  0  0  0  0  0  0
    1.1349   15.3628    0.0000 H   0  0  0  0  0  0  0  0  0  0  0  0
   -1.8117   14.7993    0.0000 H   0  0  0  0  0  0  0  0  0  0  0  0
   -2.7970   11.9657    0.0000 H   0  0  0  0  0  0  0  0  0  0  0  0
   -3.5498    8.4118    0.0000 H   0  0  0  0  0  0  0  0  0  0  0  0
   -4.1589    7.4807    0.0000 H   0  0  0  0  0  0  0  0  0  0  0  0
   -6.3757    5.5116    0.0000 H   0  0  0  0  0  0  0  0  0  0  0  0
   -5.0332    4.5804    0.0000 H   0  0  0  0  0  0  0  0  0  0  0  0
   -8.2438    6.2929    0.0000 H   0  0  0  0  0  0  0  0  0  0  0  0
   -9.0474    9.4557    0.0000 H   0  0  0  0  0  0  0  0  0  0  0  0
   -6.2877   11.1974    0.0000 H   0  0  0  0  0  0  0  0  0  0  0  0
   -5.6760    3.1573    0.0000 H   0  0  0  0  0  0  0  0  0  0  0  0
   -3.6170   -0.9357    0.0000 H   0  0  0  0  0  0  0  0  0  0  0  0
   -4.5416   -0.0101    0.0000 H   0  0  0  0  0  0  0  0  0  0  0  0
   -2.2710   -2.0321    0.0000 H   0  0  0  0  0  0  0  0  0  0  0  0
   -3.2451   -1.4378    0.0000 H   0  0  0  0  0  0  0  0  0  0  0  0
   -0.2999   -2.6638    0.0000 H   0  0  0  0  0  0  0  0  0  0  0  0
   -1.7254   -2.3019    0.0000 H   0  0  0  0  0  0  0  0  0  0  0  0
    0.7741   -2.9547    0.0000 H   0  0  0  0  0  0  0  0  0  0  0  0
   -6.5718    1.2625    0.0000 H   0  0  0  0  0  0  0  0  0  0  0  0
   -6.4929    3.0452    0.0000 H   0  0  0  0  0  0  0  0  0  0  0  0
   -5.1182    3.5859    0.0000 H   0  0  0  0  0  0  0  0  0  0  0  0
   -7.0054    2.0343    0.0000 H   0  0  0  0  0  0  0  0  0  0  0  0
   -5.7837   -1.1293    0.0000 H   0  0  0  0  0  0  0  0  0  0  0  0
   -7.2716   -3.3779    0.0000 H   0  0  0  0  0  0  0  0  0  0  0  0
   -6.0588   -2.0690    0.0000 H   0  0  0  0  0  0  0  0  0  0  0  0
   -9.7951   -0.9824    0.0000 H   0  0  0  0  0  0  0  0  0  0  0  0
  -10.7568   -4.3953    0.0000 H   0  0  0  0  0  0  0  0  0  0  0  0
   -9.3321   -5.1953    0.0000 H   0  0  0  0  0  0  0  0  0  0  0  0
   -7.9688   -4.0439    0.0000 H   0  0  0  0  0  0  0  0  0  0  0  0
  -11.4150   -0.9067    0.0000 H   0  0  0  0  0  0  0  0  0  0  0  0
  -11.7314   -2.9474    0.0000 H   0  0  0  0  0  0  0  0  0  0  0  0
  -10.5848   -3.5913    0.0000 H   0  0  0  0  0  0  0  0  0  0  0  0
   -9.2553   -2.9866    0.0000 H   0  0  0  0  0  0  0  0  0  0  0  0
  -10.4047    0.0345    0.0000 H   0  0  0  0  0  0  0  0  0  0  0  0
  -13.8339   -0.5129    0.0000 H   0  0  0  0  0  0  0  0  0  0  0  0
  -13.2524   -1.8708    0.0000 H   0  0  0  0  0  0  0  0  0  0  0  0
  -12.0179    2.2585    0.0000 H   0  0  0  0  0  0  0  0  0  0  0  0
  -10.9394    0.8369    0.0000 H   0  0  0  0  0  0  0  0  0  0  0  0
  -15.2748    1.6489    0.0000 H   0  0  0  0  0  0  0  0  0  0  0  0
  -14.3776    0.1064    0.0000 H   0  0  0  0  0  0  0  0  0  0  0  0
  -12.6321    3.8127    0.0000 H   0  0  0  0  0  0  0  0  0  0  0  0
  -16.6657    5.8077    0.0000 H   0  0  0  0  0  0  0  0  0  0  0  0
  -14.0730    5.9746    0.0000 H   0  0  0  0  0  0  0  0  0  0  0  0
  -17.8175    3.4789    0.0000 H   0  0  0  0  0  0  0  0  0  0  0  0
  -16.3766    1.3170    0.0000 H   0  0  0  0  0  0  0  0  0  0  0  0
  -14.1432   -1.0966    0.0000 H   0  0  0  0  0  0  0  0  0  0  0  0
  -12.9215   -4.2602    0.0000 H   0  0  0  0  0  0  0  0  0  0  0  0
  -14.5911   -6.5317    0.0000 H   0  0  0  0  0  0  0  0  0  0  0  0
  -13.1966   -5.1998    0.0000 H   0  0  0  0  0  0  0  0  0  0  0  0
  -16.3931   -6.1175    0.0000 H   0  0  0  0  0  0  0  0  0  0  0  0
  -17.7148   -3.0342    0.0000 H   0  0  0  0  0  0  0  0  0  0  0  0
  -20.5168   -2.7241    0.0000 H   0  0  0  0  0  0  0  0  0  0  0  0
  -18.5924   -2.6002    0.0000 H   0  0  0  0  0  0  0  0  0  0  0  0
  -22.0734   -3.9758    0.0000 H   0  0  0  0  0  0  0  0  0  0  0  0
  -21.2809   -4.2275    0.0000 H   0  0  0  0  0  0  0  0  0  0  0  0
  -20.0593   -7.3911    0.0000 H   0  0  0  0  0  0  0  0  0  0  0  0
  -21.7288   -9.6626    0.0000 H   0  0  0  0  0  0  0  0  0  0  0  0
  -20.3343   -8.3307    0.0000 H   0  0  0  0  0  0  0  0  0  0  0  0
  -23.7040   -9.9601    0.0000 H   0  0  0  0  0  0  0  0  0  0  0  0
  -24.7735   -8.3555    0.0000 H   0  0  0  0  0  0  0  0  0  0  0  0
  -23.9092   -7.1576    0.0000 H   0  0  0  0  0  0  0  0  0  0  0  0
  1  2  1  0
  2  3  1  0
  3  4  1  0
  4  5  2  0
  4  6  1  0
  6  7  1  0
  7  8  1  0
  8  9  1  0
  9 10  2  0
  9 11  1  0
  7 12  1  0
 12 13  2  0
 12 14  1  0
 14 15  1  0
 15 16  1  0
 16 17  1  0
 17 18  2  0
 18 19  1  0
 19 20  1  0
 20 21  2  0
 15 22  1  0
 22 23  2  0
 22 24  1  0
 24 25  1  0
 25 26  1  0
 26 27  1  0
 26 28  1  0
 28 29  1  0
 25 30  1  0
 30 31  2  0
 30 32  1  0
 32 33  1  0
 33 34  1  0
 34 35  1  0
 35 36  1  0
 36 37  1  0
 37 38  1  0
 33 39  1  0
 39 40  2  0
 39 41  1  0
 42 41  1  1
 42 43  1  0
 43 44  1  0
 44 45  1  0
 45 46  1  0
 42 47  1  0
 42 48  1  0
 48 49  2  0
 48 50  1  0
 50 51  1  0
 51 52  1  0
 52 53  1  0
 51 54  1  0
 54 55  2  0
 54 56  1  0
 56 57  1  0
 57 58  1  0
 58 59  1  0
 59 60  2  0
 60 61  1  0
 61 62  2  0
 62 63  1  0
 63 64  2  0
 57 65  1  0
 65 66  2  0
 65 67  1  0
 67 68  1  0
 68 69  1  0
 69 70  1  0
 70 71  2  0
 71 72  1  0
 72 73  1  0
 73 74  2  0
 68 75  1  0
 75 76  2  0
 75 77  1  0
 77 78  1  0
 78 79  1  0
 79 80  1  0
 80 81  1  0
 81 82  1  0
 78 83  1  0
 78 84  1  1
 84 85  2  0
 84 86  1  0
 86 87  1  0
 87 88  1  0
 88 89  1  0
 89 90  1  0
 89 91  1  0
 87 92  1  0
 92 93  2  0
 92 94  1  0
 94 95  1  0
 95 96  1  0
 96 97  1  0
 97 98  1  0
 98 99  1  0
 99100  1  0
100101  2  3
100102  1  0
 95103  1  0
103104  2  0
103105  1  0
105106  1  0
106107  1  0
107108  1  0
108109  2  0
108110  1  0
106111  1  0
111112  2  0
111113  1  0
113114  1  0
114115  1  0
115116  1  0
114117  1  0
117118  2  0
117119  1  0
119120  1  0
120121  1  0
121122  1  0
120123  1  0
123124  2  0
123125  1  0
 21 17  1  0
 64 59  1  0
 74 70  1  0
 46 82  2  0
  1126  1  0
  1127  1  0
  2128  1  0
  2129  1  0
  3130  1  0
  3131  1  0
  6132  1  0
  7133  1  6
  8134  1  0
  8135  1  0
 14136  1  0
 15137  1  1
 16138  1  0
 16139  1  0
 18140  1  0
 19141  1  0
 20142  1  0
 24143  1  0
 25144  1  1
 26145  1  6
 27146  1  0
 27147  1  0
 27148  1  0
 28149  1  0
 28150  1  0
 29151  1  0
 29152  1  0
 29153  1  0
 32154  1  0
 33155  1  1
 34156  1  0
 34157  1  0
 35158  1  0
 35159  1  0
 36160  1  0
 36161  1  0
 37162  1  0
 37163  1  0
 38164  1  0
 38165  1  0
 38166  1  0
 41167  1  0
 43168  1  0
 43169  1  0
 44170  1  0
 44171  1  0
 45172  1  0
 45173  1  0
 46174  1  0
 47175  1  0
 47176  1  0
 47177  1  0
 50178  1  0
 51179  1  6
 52180  1  0
 52181  1  0
 53182  1  0
 56183  1  0
 57184  1  6
 58185  1  0
 58186  1  0
 60187  1  0
 61188  1  0
 62189  1  0
 63190  1  0
 64191  1  0
 67192  1  0
 68193  1  6
 69194  1  0
 69195  1  0
 71196  1  0
 72197  1  0
 73198  1  0
 77199  1  0
 79200  1  0
 79201  1  0
 80202  1  0
 80203  1  0
 81204  1  0
 81205  1  0
 82206  1  0
 83207  1  0
 83208  1  0
 83209  1  0
 86210  1  0
 87211  1  1
 88212  1  0
 88213  1  0
 89214  1  0
 90215  1  0
 90216  1  0
 90217  1  0
 91218  1  0
 91219  1  0
 91220  1  0
 94221  1  0
 95222  1  6
 96223  1  0
 96224  1  0
 97225  1  0
 97226  1  0
 98227  1  0
 98228  1  0
 99229  1  0
101230  1  0
101231  1  0
102232  1  0
102233  1  0
105234  1  0
106235  1  1
107236  1  0
107237  1  0
113238  1  0
114239  1  6
115240  1  0
115241  1  0
116242  1  0
119243  1  0
120244  1  1
121245  1  0
121246  1  0
122247  1  0
122248  1  0
122249  1  0
M  CHG  5  11  -1  38   1 101   1 110  -1 125  -1
M  END
