
     RDKit          2D

198201  0  0  0  0  0  0  0  0999 V2000
  -18.2374    6.3298    0.0000 N   0  0  0  0  0  0  0  0  0  0  0  0
  -17.2341    5.2147    0.0000 C   0  0  0  0  0  0  0  0  0  0  0  0
  -15.7668    5.5260    0.0000 C   0  0  0  0  0  0  0  0  0  0  0  0
  -14.7635    4.4109    0.0000 C   0  0  0  0  0  0  0  0  0  0  0  0
  -15.2276    2.9845    0.0000 O   0  0  0  0  0  0  0  0  0  0  0  0
  -13.2962    4.7222    0.0000 N   0  0  0  0  0  0  0  0  0  0  0  0
  -12.2929    3.6071    0.0000 C   0  0  0  0  0  0  0  0  0  0  0  0
  -11.3689    4.7888    0.0000 C   0  0  0  0  0  0  0  0  0  0  0  0
   -9.8836    4.5795    0.0000 C   0  0  0  0  0  0  0  0  0  0  0  0
   -8.9597    5.7611    0.0000 C   0  0  0  0  0  0  0  0  0  0  0  0
   -7.4744    5.5518    0.0000 N   0  0  0  0  0  0  0  0  0  0  0  0
   -9.5211    7.1521    0.0000 O   0  0  0  0  0  0  0  0  0  0  0  0
  -11.7315    2.2161    0.0000 C   0  0  0  0  0  0  0  0  0  0  0  0
  -10.2462    2.0068    0.0000 O   0  0  0  0  0  0  0  0  0  0  0  0
  -12.6554    1.0345    0.0000 N   0  0  0  0  0  0  0  0  0  0  0  0
  -12.0941   -0.3565    0.0000 C   0  0  0  0  0  0  0  0  0  0  0  0
  -13.5614   -0.6678    0.0000 C   0  0  0  0  0  0  0  0  0  0  0  0
  -14.8338   -1.4622    0.0000 O   0  0  0  0  0  0  0  0  0  0  0  0
  -14.5647    0.4473    0.0000 C   0  0  0  0  0  0  0  0  0  0  0  0
  -11.0908   -1.4716    0.0000 C   0  0  0  0  0  0  0  0  0  0  0  0
  -11.7253   -2.8308    0.0000 O   0  0  0  0  0  0  0  0  0  0  0  0
   -9.6235   -1.1603    0.0000 N   0  0  0  0  0  0  0  0  0  0  0  0
   -8.6202   -2.2754    0.0000 C   0  0  0  0  0  0  0  0  0  0  0  0
   -9.8926   -3.0698    0.0000 C   0  0  0  0  0  0  0  0  0  0  0  0
   -9.8408   -4.5689    0.0000 C   0  0  0  0  0  0  0  0  0  0  0  0
  -11.1132   -5.3633    0.0000 C   0  0  0  0  0  0  0  0  0  0  0  0
  -11.0614   -6.8624    0.0000 C   0  0  0  0  0  0  0  0  0  0  0  0
   -9.7372   -7.5671    0.0000 C   0  0  0  0  0  0  0  0  0  0  0  0
   -8.4648   -6.7727    0.0000 C   0  0  0  0  0  0  0  0  0  0  0  0
   -8.5166   -5.2736    0.0000 C   0  0  0  0  0  0  0  0  0  0  0  0
   -7.2960   -2.9801    0.0000 C   0  0  0  0  0  0  0  0  0  0  0  0
   -7.2442   -4.4792    0.0000 O   0  0  0  0  0  0  0  0  0  0  0  0
   -6.0237   -2.1857    0.0000 N   0  0  0  0  0  0  0  0  0  0  0  0
   -4.6995   -2.8904    0.0000 C   0  0  0  0  0  0  0  0  0  0  0  0
   -5.6234   -4.0721    0.0000 C   0  0  0  0  0  0  0  0  0  0  0  0
   -5.0621   -5.4631    0.0000 O   0  0  0  0  0  0  0  0  0  0  0  0
   -3.2142   -3.0998    0.0000 C   0  0  0  0  0  0  0  0  0  0  0  0
   -2.8265   -4.5488    0.0000 O   0  0  0  0  0  0  0  0  0  0  0  0
   -2.2902   -1.9181    0.0000 N   0  0  0  0  0  0  0  0  0  0  0  0
   -0.8049   -2.1274    0.0000 C   0  0  0  0  0  0  0  0  0  0  0  0
   -1.2250   -0.6875    0.0000 C   0  0  0  0  0  0  0  0  0  0  0  0
   -1.2020    0.8124    0.0000 C   0  0  0  0  0  0  0  0  0  0  0  0
   -0.7379    2.2388    0.0000 C   0  0  0  0  0  0  0  0  0  0  0  0
    0.1260    3.4650    0.0000 C   0  0  0  0  0  0  0  0  0  0  0  0
   -1.6066   -3.3952    0.0000 C   0  0  0  0  0  0  0  0  0  0  0  0
    0.0210   -3.3796    0.0000 C   0  0  0  0  0  0  0  0  0  0  0  0
   -1.0941   -4.3829    0.0000 O   0  0  0  0  0  0  0  0  0  0  0  0
    1.1792   -4.3327    0.0000 N   0  0  0  0  0  0  0  0  0  0  0  0
    2.5670   -4.9021    0.0000 C   0  0  0  0  0  0  0  0  0  0  0  0
    3.0583   -6.3193    0.0000 C   0  0  0  0  0  0  0  0  0  0  0  0
    2.0766   -7.4535    0.0000 C   0  0  0  0  0  0  0  0  0  0  0  0
    2.5680   -8.8707    0.0000 C   0  0  0  0  0  0  0  0  0  0  0  0
    0.7662   -8.1835    0.0000 C   0  0  0  0  0  0  0  0  0  0  0  0
    4.0609   -5.0371    0.0000 C   0  0  0  0  0  0  0  0  0  0  0  0
    4.1500   -6.5345    0.0000 O   0  0  0  0  0  0  0  0  0  0  0  0
    5.5282   -4.7258    0.0000 N   0  0  0  0  0  0  0  0  0  0  0  0
    6.8386   -3.9958    0.0000 C   0  0  0  0  0  0  0  0  0  0  0  0
    8.2530   -4.4953    0.0000 C   0  0  0  0  0  0  0  0  0  0  0  0
    8.5276   -5.9700    0.0000 C   0  0  0  0  0  0  0  0  0  0  0  0
    7.4960   -7.0589    0.0000 C   0  0  0  0  0  0  0  0  0  0  0  0
    8.2129   -8.3765    0.0000 N   0  0  0  0  0  0  0  0  0  0  0  0
    9.6876   -8.1019    0.0000 C   0  0  0  0  0  0  0  0  0  0  0  0
   10.8784   -9.0140    0.0000 C   0  0  0  0  0  0  0  0  0  0  0  0
   12.2637   -8.4388    0.0000 C   0  0  0  0  0  0  0  0  0  0  0  0
   12.4582   -6.9514    0.0000 C   0  0  0  0  0  0  0  0  0  0  0  0
   11.2674   -6.0393    0.0000 C   0  0  0  0  0  0  0  0  0  0  0  0
    9.8821   -6.6146    0.0000 C   0  0  0  0  0  0  0  0  0  0  0  0
    7.8756   -2.9120    0.0000 C   0  0  0  0  0  0  0  0  0  0  0  0
    9.1019   -3.7759    0.0000 O   0  0  0  0  0  0  0  0  0  0  0  0
    8.5471   -1.5707    0.0000 N   0  0  0  0  0  0  0  0  0  0  0  0
    8.7934   -0.0911    0.0000 C   0  0  0  0  0  0  0  0  0  0  0  0
   10.0658    0.7033    0.0000 C   0  0  0  0  0  0  0  0  0  0  0  0
   11.3899   -0.0014    0.0000 C   0  0  0  0  0  0  0  0  0  0  0  0
   12.6623    0.7930    0.0000 C   0  0  0  0  0  0  0  0  0  0  0  0
   13.9864    0.0883    0.0000 C   0  0  0  0  0  0  0  0  0  0  0  0
   15.2588    0.8827    0.0000 N   0  0  0  0  0  0  0  0  0  0  0  0
    8.5926    1.3954    0.0000 C   0  0  0  0  0  0  0  0  0  0  0  0
   10.0326    1.8155    0.0000 O   0  0  0  0  0  0  0  0  0  0  0  0
    7.9626    2.7567    0.0000 N   0  0  0  0  0  0  0  0  0  0  0  0
    6.9593    3.8718    0.0000 C   0  0  0  0  0  0  0  0  0  0  0  0
    5.6719    4.6416    0.0000 C   0  0  0  0  0  0  0  0  0  0  0  0
    4.2148    4.9978    0.0000 C   0  0  0  0  0  0  0  0  0  0  0  0
    2.7175    4.9087    0.0000 C   0  0  0  0  0  0  0  0  0  0  0  0
    1.3129    4.3822    0.0000 C   0  0  0  0  0  0  0  0  0  0  0  0
    8.3884    4.3277    0.0000 C   0  0  0  0  0  0  0  0  0  0  0  0
    7.1315    5.3619    0.0000 C   0  0  0  0  0  0  0  0  0  0  0  0
    6.1794    6.5209    0.0000 O   0  0  0  0  0  0  0  0  0  0  0  0
    8.5081    5.9578    0.0000 N   0  0  0  0  0  0  0  0  0  0  0  0
    8.6803    7.4478    0.0000 C   0  0  0  0  0  0  0  0  0  0  0  0
    8.3325    8.9070    0.0000 C   0  0  0  0  0  0  0  0  0  0  0  0
    9.4223    9.9377    0.0000 C   0  0  0  0  0  0  0  0  0  0  0  0
    9.0745   11.3969    0.0000 C   0  0  0  0  0  0  0  0  0  0  0  0
   10.7988   10.5336    0.0000 C   0  0  0  0  0  0  0  0  0  0  0  0
   10.0569    8.0437    0.0000 C   0  0  0  0  0  0  0  0  0  0  0  0
   10.4095    9.5017    0.0000 O   0  0  0  0  0  0  0  0  0  0  0  0
   11.2612    7.1495    0.0000 O   0  0  0  0  0  0  0  0  0  0  0  0
  -19.7047    6.0185    0.0000 H   0  0  0  0  0  0  0  0  0  0  0  0
  -17.7733    7.7562    0.0000 H   0  0  0  0  0  0  0  0  0  0  0  0
  -18.5065    4.4203    0.0000 H   0  0  0  0  0  0  0  0  0  0  0  0
  -16.6727    3.8237    0.0000 H   0  0  0  0  0  0  0  0  0  0  0  0
  -16.3281    6.9170    0.0000 H   0  0  0  0  0  0  0  0  0  0  0  0
  -14.4944    6.3204    0.0000 H   0  0  0  0  0  0  0  0  0  0  0  0
  -13.1080    5.6882    0.0000 H   0  0  0  0  0  0  0  0  0  0  0  0
  -13.5653    2.8127    0.0000 H   0  0  0  0  0  0  0  0  0  0  0  0
  -10.9049    6.2152    0.0000 H   0  0  0  0  0  0  0  0  0  0  0  0
  -12.1749    5.3536    0.0000 H   0  0  0  0  0  0  0  0  0  0  0  0
   -8.5595    3.8747    0.0000 H   0  0  0  0  0  0  0  0  0  0  0  0
  -10.3477    3.1530    0.0000 H   0  0  0  0  0  0  0  0  0  0  0  0
   -6.5504    6.7335    0.0000 H   0  0  0  0  0  0  0  0  0  0  0  0
   -6.9130    4.1608    0.0000 H   0  0  0  0  0  0  0  0  0  0  0  0
  -13.4254    1.2411    0.0000 H   0  0  0  0  0  0  0  0  0  0  0  0
  -10.8217    0.4379    0.0000 H   0  0  0  0  0  0  0  0  0  0  0  0
  -13.0000   -2.0588    0.0000 H   0  0  0  0  0  0  0  0  0  0  0  0
  -16.2340   -0.9242    0.0000 H   0  0  0  0  0  0  0  0  0  0  0  0
  -16.0590    0.3171    0.0000 H   0  0  0  0  0  0  0  0  0  0  0  0
  -15.1261    1.8382    0.0000 H   0  0  0  0  0  0  0  0  0  0  0  0
  -14.0314    1.1545    0.0000 H   0  0  0  0  0  0  0  0  0  0  0  0
   -9.1594    0.2661    0.0000 H   0  0  0  0  0  0  0  0  0  0  0  0
   -7.6962   -1.0938    0.0000 H   0  0  0  0  0  0  0  0  0  0  0  0
  -11.3110   -3.5577    0.0000 H   0  0  0  0  0  0  0  0  0  0  0  0
  -10.7738   -1.8560    0.0000 H   0  0  0  0  0  0  0  0  0  0  0  0
  -12.4373   -4.6586    0.0000 H   0  0  0  0  0  0  0  0  0  0  0  0
  -12.3337   -7.6568    0.0000 H   0  0  0  0  0  0  0  0  0  0  0  0
   -9.6854   -9.0662    0.0000 H   0  0  0  0  0  0  0  0  0  0  0  0
   -7.1407   -7.4775    0.0000 H   0  0  0  0  0  0  0  0  0  0  0  0
   -7.0898   -4.8107    0.0000 H   0  0  0  0  0  0  0  0  0  0  0  0
   -6.0754   -0.6866    0.0000 H   0  0  0  0  0  0  0  0  0  0  0  0
   -4.2354   -1.4640    0.0000 H   0  0  0  0  0  0  0  0  0  0  0  0
   -6.6658   -5.1508    0.0000 H   0  0  0  0  0  0  0  0  0  0  0  0
   -6.8667   -3.2329    0.0000 H   0  0  0  0  0  0  0  0  0  0  0  0
   -5.9860   -6.6448    0.0000 H   0  0  0  0  0  0  0  0  0  0  0  0
   -3.1715   -0.7043    0.0000 H   0  0  0  0  0  0  0  0  0  0  0  0
   -2.5669   -1.3578    0.0000 H   0  0  0  0  0  0  0  0  0  0  0  0
   -2.5826   -0.0496    0.0000 H   0  0  0  0  0  0  0  0  0  0  0  0
   -2.6818    0.5673    0.0000 H   0  0  0  0  0  0  0  0  0  0  0  0
   -2.4261    1.6793    0.0000 H   0  0  0  0  0  0  0  0  0  0  0  0
   -2.2378    2.2581    0.0000 H   0  0  0  0  0  0  0  0  0  0  0  0
   -1.5004    3.5306    0.0000 H   0  0  0  0  0  0  0  0  0  0  0  0
   -0.9578    4.5020    0.0000 H   0  0  0  0  0  0  0  0  0  0  0  0
   -3.0755   -3.6993    0.0000 H   0  0  0  0  0  0  0  0  0  0  0  0
   -1.7453   -4.8888    0.0000 H   0  0  0  0  0  0  0  0  0  0  0  0
   -0.3979   -4.2835    0.0000 H   0  0  0  0  0  0  0  0  0  0  0  0
    0.4094   -5.6201    0.0000 H   0  0  0  0  0  0  0  0  0  0  0  0
    1.3597   -5.7923    0.0000 H   0  0  0  0  0  0  0  0  0  0  0  0
    4.1395   -7.3590    0.0000 H   0  0  0  0  0  0  0  0  0  0  0  0
    4.5064   -5.9281    0.0000 H   0  0  0  0  0  0  0  0  0  0  0  0
    0.9954   -6.4138    0.0000 H   0  0  0  0  0  0  0  0  0  0  0  0
    1.7318  -10.1161    0.0000 H   0  0  0  0  0  0  0  0  0  0  0  0
    3.5144  -10.0344    0.0000 H   0  0  0  0  0  0  0  0  0  0  0  0
    3.9576   -8.3059    0.0000 H   0  0  0  0  0  0  0  0  0  0  0  0
    0.5606   -9.6693    0.0000 H   0  0  0  0  0  0  0  0  0  0  0  0
   -0.7148   -8.4212    0.0000 H   0  0  0  0  0  0  0  0  0  0  0  0
    0.2749   -6.7662    0.0000 H   0  0  0  0  0  0  0  0  0  0  0  0
    5.8796   -6.1841    0.0000 H   0  0  0  0  0  0  0  0  0  0  0  0
    6.9650   -5.4905    0.0000 H   0  0  0  0  0  0  0  0  0  0  0  0
    9.7529   -4.4809    0.0000 H   0  0  0  0  0  0  0  0  0  0  0  0
    8.8500   -3.1192    0.0000 H   0  0  0  0  0  0  0  0  0  0  0  0
    5.9961   -7.0472    0.0000 H   0  0  0  0  0  0  0  0  0  0  0  0
    7.5683   -9.7310    0.0000 H   0  0  0  0  0  0  0  0  0  0  0  0
   10.6839  -10.5013    0.0000 H   0  0  0  0  0  0  0  0  0  0  0  0
   13.4545   -9.3509    0.0000 H   0  0  0  0  0  0  0  0  0  0  0  0
   13.8435   -6.3762    0.0000 H   0  0  0  0  0  0  0  0  0  0  0  0
   11.4619   -4.5520    0.0000 H   0  0  0  0  0  0  0  0  0  0  0  0
    9.9735   -2.0348    0.0000 H   0  0  0  0  0  0  0  0  0  0  0  0
    9.9299   -1.0700    0.0000 H   0  0  0  0  0  0  0  0  0  0  0  0
   10.8388    1.9888    0.0000 H   0  0  0  0  0  0  0  0  0  0  0  0
    9.3621    2.0280    0.0000 H   0  0  0  0  0  0  0  0  0  0  0  0
   12.2498   -1.2305    0.0000 H   0  0  0  0  0  0  0  0  0  0  0  0
   10.6169   -1.2869    0.0000 H   0  0  0  0  0  0  0  0  0  0  0  0
   13.4353    2.0785    0.0000 H   0  0  0  0  0  0  0  0  0  0  0  0
   11.8024    2.0221    0.0000 H   0  0  0  0  0  0  0  0  0  0  0  0
   14.9897   -1.0268    0.0000 H   0  0  0  0  0  0  0  0  0  0  0  0
   13.2134   -1.1972    0.0000 H   0  0  0  0  0  0  0  0  0  0  0  0
   16.5830    0.1780    0.0000 H   0  0  0  0  0  0  0  0  0  0  0  0
   16.1827    2.0643    0.0000 H   0  0  0  0  0  0  0  0  0  0  0  0
   14.3989    2.1118    0.0000 H   0  0  0  0  0  0  0  0  0  0  0  0
    9.2147    3.5826    0.0000 H   0  0  0  0  0  0  0  0  0  0  0  0
    5.3973    6.1163    0.0000 H   0  0  0  0  0  0  0  0  0  0  0  0
    6.6592    5.7709    0.0000 H   0  0  0  0  0  0  0  0  0  0  0  0
    3.6848    6.4011    0.0000 H   0  0  0  0  0  0  0  0  0  0  0  0
    4.8254    6.3679    0.0000 H   0  0  0  0  0  0  0  0  0  0  0  0
    1.6599    5.9724    0.0000 H   0  0  0  0  0  0  0  0  0  0  0  0
    3.0772    6.3649    0.0000 H   0  0  0  0  0  0  0  0  0  0  0  0
    0.5829    5.6925    0.0000 H   0  0  0  0  0  0  0  0  0  0  0  0
    9.0532    5.6723    0.0000 H   0  0  0  0  0  0  0  0  0  0  0  0
    9.8686    4.0850    0.0000 H   0  0  0  0  0  0  0  0  0  0  0  0
    8.9429    2.9339    0.0000 H   0  0  0  0  0  0  0  0  0  0  0  0
    9.8124    5.2170    0.0000 H   0  0  0  0  0  0  0  0  0  0  0  0
    7.1830    7.3587    0.0000 H   0  0  0  0  0  0  0  0  0  0  0  0
    7.3602   10.0491    0.0000 H   0  0  0  0  0  0  0  0  0  0  0  0
    6.9560    8.3111    0.0000 H   0  0  0  0  0  0  0  0  0  0  0  0
   10.6421    9.0648    0.0000 H   0  0  0  0  0  0  0  0  0  0  0  0
   10.0304   12.5528    0.0000 H   0  0  0  0  0  0  0  0  0  0  0  0
    8.2486   12.6490    0.0000 H   0  0  0  0  0  0  0  0  0  0  0  0
    7.6355   10.9732    0.0000 H   0  0  0  0  0  0  0  0  0  0  0  0
   11.1514   11.9916    0.0000 H   0  0  0  0  0  0  0  0  0  0  0  0
   12.2962   10.6227    0.0000 H   0  0  0  0  0  0  0  0  0  0  0  0
   11.1466    9.0745    0.0000 H   0  0  0  0  0  0  0  0  0  0  0  0
  1  2  1  0
  2  3  1  0
  3  4  1  0
  4  5  2  0
  4  6  1  0
  6  7  1  0
  7  8  1  0
  8  9  1  0
  9 10  1  0
 10 11  1  0
 10 12  2  0
  7 13  1  0
 13 14  2  0
 13 15  1  0
 15 16  1  0
 16 17  1  0
 17 18  1  0
 17 19  1  0
 16 20  1  0
 20 21  2  0
 20 22  1  0
 22 23  1  0
 23 24  1  0
 24 25  1  0
 25 26  2  0
 26 27  1  0
 27 28  2  0
 28 29  1  0
 29 30  2  0
 23 31  1  0
 31 32  2  0
 31 33  1  0
 33 34  1  0
 34 35  1  0
 35 36  1  0
 34 37  1  0
 37 38  2  0
 37 39  1  0
 40 39  1  1
 40 41  1  0
 41 42  1  0
 42 43  1  0
 43 44  1  0
 40 45  1  0
 40 46  1  0
 46 47  2  0
 46 48  1  0
 48 49  1  0
 49 50  1  0
 50 51  1  0
 51 52  1  0
 51 53  1  0
 49 54  1  0
 54 55  2  0
 54 56  1  0
 56 57  1  0
 57 58  1  0
 58 59  1  0
 59 60  2  0
 60 61  1  0
 61 62  1  0
 62 63  2  0
 63 64  1  0
 64 65  2  0
 65 66  1  0
 66 67  2  0
 57 68  1  0
 68 69  2  0
 68 70  1  0
 70 71  1  0
 71 72  1  0
 72 73  1  0
 73 74  1  0
 74 75  1  0
 75 76  1  0
 71 77  1  0
 77 78  2  0
 77 79  1  0
 79 80  1  0
 80 81  1  0
 81 82  1  0
 82 83  1  0
 83 84  1  0
 80 85  1  0
 80 86  1  1
 86 87  2  0
 86 88  1  0
 88 89  1  0
 89 90  1  0
 90 91  1  0
 91 92  1  0
 91 93  1  0
 89 94  1  0
 94 95  2  0
 94 96  1  0
 30 25  1  0
 67 59  1  0
 67 62  1  0
 44 84  2  0
  1 97  1  0
  1 98  1  0
  2 99  1  0
  2100  1  0
  3101  1  0
  3102  1  0
  6103  1  0
  7104  1  1
  8105  1  0
  8106  1  0
  9107  1  0
  9108  1  0
 11109  1  0
 11110  1  0
 15111  1  0
 16112  1  6
 17113  1  1
 18114  1  0
 19115  1  0
 19116  1  0
 19117  1  0
 22118  1  0
 23119  1  6
 24120  1  0
 24121  1  0
 26122  1  0
 27123  1  0
 28124  1  0
 29125  1  0
 30126  1  0
 33127  1  0
 34128  1  6
 35129  1  0
 35130  1  0
 36131  1  0
 39132  1  0
 41133  1  0
 41134  1  0
 42135  1  0
 42136  1  0
 43137  1  0
 43138  1  0
 44139  1  0
 45140  1  0
 45141  1  0
 45142  1  0
 48143  1  0
 49144  1  6
 50145  1  0
 50146  1  0
 51147  1  0
 52148  1  0
 52149  1  0
 52150  1  0
 53151  1  0
 53152  1  0
 53153  1  0
 56154  1  0
 57155  1  6
 58156  1  0
 58157  1  0
 60158  1  0
 61159  1  0
 63160  1  0
 64161  1  0
 65162  1  0
 66163  1  0
 70164  1  0
 71165  1  6
 72166  1  0
 72167  1  0
 73168  1  0
 73169  1  0
 74170  1  0
 74171  1  0
 75172  1  0
 75173  1  0
 76174  1  0
 76175  1  0
 76176  1  0
 79177  1  0
 81178  1  0
 81179  1  0
 82180  1  0
 82181  1  0
 83182  1  0
 83183  1  0
 84184  1  0
 85185  1  0
 85186  1  0
 85187  1  0
 88188  1  0
 89189  1  1
 90190  1  0
 90191  1  0
 91192  1  0
 92193  1  0
 92194  1  0
 92195  1  0
 93196  1  0
 93197  1  0
 93198  1  0
M  CHG  2  76   1  96  -1
M  END
