
     RDKit          2D

460466  0  0  0  0  0  0  0  0999 V2000
   49.2306   -4.7899    0.0000 C   0  0  0  0  0  0  0  0  0  0  0  0
   50.6302   -4.2504    0.0000 N   0  0  0  0  0  0  0  0  0  0  0  0
   51.7972   -5.1929    0.0000 C   0  0  0  0  0  0  0  0  0  0  0  0
   51.5645   -6.6747    0.0000 C   0  0  0  0  0  0  0  0  0  0  0  0
   52.7315   -7.6171    0.0000 C   0  0  0  0  0  0  0  0  0  0  0  0
   54.1311   -7.0777    0.0000 C   0  0  0  0  0  0  0  0  0  0  0  0
   54.3638   -5.5959    0.0000 C   0  0  0  0  0  0  0  0  0  0  0  0
   53.1968   -4.6534    0.0000 C   0  0  0  0  0  0  0  0  0  0  0  0
   55.8450   -5.3592    0.0000 C   0  0  0  0  0  0  0  0  0  0  0  0
   56.5278   -6.6948    0.0000 O   0  0  0  0  0  0  0  0  0  0  0  0
   55.4686   -7.7569    0.0000 C   0  0  0  0  0  0  0  0  0  0  0  0
   55.7052   -9.2381    0.0000 O   0  0  0  0  0  0  0  0  0  0  0  0
   57.3429   -5.2787    0.0000 C   0  0  0  0  0  0  0  0  0  0  0  0
   58.0221   -3.9413    0.0000 C   0  0  0  0  0  0  0  0  0  0  0  0
   59.5199   -3.8608    0.0000 C   0  0  0  0  0  0  0  0  0  0  0  0
   60.3386   -5.1177    0.0000 C   0  0  0  0  0  0  0  0  0  0  0  0
   59.6594   -6.4551    0.0000 C   0  0  0  0  0  0  0  0  0  0  0  0
   58.1615   -6.5357    0.0000 C   0  0  0  0  0  0  0  0  0  0  0  0
   61.8364   -5.0372    0.0000 O   0  0  0  0  0  0  0  0  0  0  0  0
   57.2034   -2.6844    0.0000 O   0  0  0  0  0  0  0  0  0  0  0  0
   55.7056   -2.7649    0.0000 C   0  0  0  0  0  0  0  0  0  0  0  0
   55.0264   -4.1023    0.0000 C   0  0  0  0  0  0  0  0  0  0  0  0
   53.8455   -3.5587    0.0000 C   0  0  0  0  0  0  0  0  0  0  0  0
   53.4089   -2.8883    0.0000 C   0  0  0  0  0  0  0  0  0  0  0  0
   53.7712   -2.1751    0.0000 C   0  0  0  0  0  0  0  0  0  0  0  0
   54.5700   -2.1321    0.0000 C   0  0  0  0  0  0  0  0  0  0  0  0
   52.5705   -0.3316    0.0000 O   0  0  0  0  0  0  0  0  0  0  0  0
   48.9979   -6.2717    0.0000 S   0  0  0  0  0  0  0  0  0  0  0  0
   48.0636   -3.8474    0.0000 N   0  0  0  0  0  0  0  0  0  0  0  0
   46.6639   -4.3868    0.0000 C   0  0  0  0  0  0  0  0  0  0  0  0
   45.4970   -3.4444    0.0000 C   0  0  0  0  0  0  0  0  0  0  0  0
   44.0973   -3.9838    0.0000 C   0  0  0  0  0  0  0  0  0  0  0  0
   43.8646   -5.4657    0.0000 O   0  0  0  0  0  0  0  0  0  0  0  0
   42.9303   -3.0414    0.0000 N   0  0  0  0  0  0  0  0  0  0  0  0
   41.5307   -3.5808    0.0000 C   0  0  0  0  0  0  0  0  0  0  0  0
   40.3999   -4.5664    0.0000 C   0  0  0  0  0  0  0  0  0  0  0  0
   38.9009   -4.6209    0.0000 O   0  0  0  0  0  0  0  0  0  0  0  0
   40.3637   -2.6384    0.0000 C   0  0  0  0  0  0  0  0  0  0  0  0
   40.5964   -1.1566    0.0000 O   0  0  0  0  0  0  0  0  0  0  0  0
   38.9640   -3.1778    0.0000 N   0  0  0  0  0  0  0  0  0  0  0  0
   37.7971   -2.2354    0.0000 C   0  0  0  0  0  0  0  0  0  0  0  0
   37.0228   -0.9507    0.0000 C   0  0  0  0  0  0  0  0  0  0  0  0
   37.7483    0.3622    0.0000 C   0  0  0  0  0  0  0  0  0  0  0  0
   36.9740    1.6469    0.0000 C   0  0  0  0  0  0  0  0  0  0  0  0
   37.6995    2.9598    0.0000 O   0  0  0  0  0  0  0  0  0  0  0  0
   35.4743    1.6188    0.0000 O   0  0  0  0  0  0  0  0  0  0  0  0
   36.3974   -2.7748    0.0000 C   0  0  0  0  0  0  0  0  0  0  0  0
   36.1647   -4.2567    0.0000 O   0  0  0  0  0  0  0  0  0  0  0  0
   35.2304   -1.8324    0.0000 N   0  0  0  0  0  0  0  0  0  0  0  0
   33.8308   -2.3718    0.0000 C   0  0  0  0  0  0  0  0  0  0  0  0
   32.7000   -3.3574    0.0000 C   0  0  0  0  0  0  0  0  0  0  0  0
   31.2811   -2.8710    0.0000 C   0  0  0  0  0  0  0  0  0  0  0  0
   30.1504   -3.8565    0.0000 C   0  0  0  0  0  0  0  0  0  0  0  0
   28.9616   -3.6056    0.0000 O   0  0  0  0  0  0  0  0  0  0  0  0
   30.4385   -5.3286    0.0000 O   0  0  0  0  0  0  0  0  0  0  0  0
   32.6638   -1.4294    0.0000 C   0  0  0  0  0  0  0  0  0  0  0  0
   32.8965    0.0525    0.0000 O   0  0  0  0  0  0  0  0  0  0  0  0
   31.2642   -1.9688    0.0000 N   0  0  0  0  0  0  0  0  0  0  0  0
   30.0972   -1.0264    0.0000 C   0  0  0  0  0  0  0  0  0  0  0  0
   29.3229    0.2583    0.0000 C   0  0  0  0  0  0  0  0  0  0  0  0
   30.0484    1.5712    0.0000 C   0  0  0  0  0  0  0  0  0  0  0  0
   29.2741    2.8560    0.0000 C   0  0  0  0  0  0  0  0  0  0  0  0
   31.1791    2.5568    0.0000 C   0  0  0  0  0  0  0  0  0  0  0  0
   28.6975   -1.5658    0.0000 C   0  0  0  0  0  0  0  0  0  0  0  0
   28.3642   -2.7342    0.0000 O   0  0  0  0  0  0  0  0  0  0  0  0
   27.5306   -0.6234    0.0000 N   0  0  0  0  0  0  0  0  0  0  0  0
   26.1309   -1.1628    0.0000 C   0  0  0  0  0  0  0  0  0  0  0  0
   25.0001   -2.1484    0.0000 C   0  0  0  0  0  0  0  0  0  0  0  0
   23.5325   -1.8385    0.0000 C   0  0  0  0  0  0  0  0  0  0  0  0
   24.9639   -0.2204    0.0000 C   0  0  0  0  0  0  0  0  0  0  0  0
   25.1966    1.2615    0.0000 O   0  0  0  0  0  0  0  0  0  0  0  0
   23.5643   -0.7598    0.0000 N   0  0  0  0  0  0  0  0  0  0  0  0
   22.3973    0.1826    0.0000 C   0  0  0  0  0  0  0  0  0  0  0  0
   21.6230    1.4674    0.0000 C   0  0  0  0  0  0  0  0  0  0  0  0
   20.9976   -0.3568    0.0000 C   0  0  0  0  0  0  0  0  0  0  0  0
   20.7650   -1.8386    0.0000 O   0  0  0  0  0  0  0  0  0  0  0  0
   19.8307    0.5856    0.0000 N   0  0  0  0  0  0  0  0  0  0  0  0
   18.4310    0.0462    0.0000 C   0  0  0  0  0  0  0  0  0  0  0  0
   17.3003   -0.9394    0.0000 C   0  0  0  0  0  0  0  0  0  0  0  0
   15.8813   -0.4529    0.0000 C   0  0  0  0  0  0  0  0  0  0  0  0
   14.7506   -1.4385    0.0000 C   0  0  0  0  0  0  0  0  0  0  0  0
   13.5618   -1.1875    0.0000 O   0  0  0  0  0  0  0  0  0  0  0  0
   15.0388   -2.9106    0.0000 O   0  0  0  0  0  0  0  0  0  0  0  0
   17.2640    0.9886    0.0000 C   0  0  0  0  0  0  0  0  0  0  0  0
   17.4967    2.4705    0.0000 O   0  0  0  0  0  0  0  0  0  0  0  0
   15.8644    0.4492    0.0000 N   0  0  0  0  0  0  0  0  0  0  0  0
   14.6974    1.3917    0.0000 C   0  0  0  0  0  0  0  0  0  0  0  0
   13.9231    2.6764    0.0000 C   0  0  0  0  0  0  0  0  0  0  0  0
   13.2978    0.8522    0.0000 C   0  0  0  0  0  0  0  0  0  0  0  0
   12.9644   -0.3161    0.0000 O   0  0  0  0  0  0  0  0  0  0  0  0
   12.1308    1.7947    0.0000 N   0  0  0  0  0  0  0  0  0  0  0  0
   10.7311    1.2552    0.0000 C   0  0  0  0  0  0  0  0  0  0  0  0
    9.6004    0.2696    0.0000 C   0  0  0  0  0  0  0  0  0  0  0  0
    8.1814    0.7561    0.0000 C   0  0  0  0  0  0  0  0  0  0  0  0
    6.9539   -0.1059    0.0000 C   0  0  0  0  0  0  0  0  0  0  0  0
    5.7547    0.7952    0.0000 N   0  0  0  0  0  0  0  0  0  0  0  0
    6.2412    2.2142    0.0000 C   0  0  0  0  0  0  0  0  0  0  0  0
    7.7410    2.1900    0.0000 N   0  0  0  0  0  0  0  0  0  0  0  0
    9.5641    2.1977    0.0000 C   0  0  0  0  0  0  0  0  0  0  0  0
    9.7968    3.6795    0.0000 O   0  0  0  0  0  0  0  0  0  0  0  0
    8.1645    1.6582    0.0000 N   0  0  0  0  0  0  0  0  0  0  0  0
    6.9975    2.6007    0.0000 C   0  0  0  0  0  0  0  0  0  0  0  0
    6.2232    3.8854    0.0000 C   0  0  0  0  0  0  0  0  0  0  0  0
    6.9487    5.1983    0.0000 C   0  0  0  0  0  0  0  0  0  0  0  0
    6.1744    6.4830    0.0000 N   0  0  0  0  0  0  0  0  0  0  0  0
    8.4484    5.2265    0.0000 O   0  0  0  0  0  0  0  0  0  0  0  0
    5.5979    2.0613    0.0000 C   0  0  0  0  0  0  0  0  0  0  0  0
    5.0135    0.6797    0.0000 O   0  0  0  0  0  0  0  0  0  0  0  0
    4.4309    3.0037    0.0000 N   0  0  0  0  0  0  0  0  0  0  0  0
    3.0312    2.4643    0.0000 C   0  0  0  0  0  0  0  0  0  0  0  0
    1.9005    1.4787    0.0000 C   0  0  0  0  0  0  0  0  0  0  0  0
    0.4816    1.9651    0.0000 C   0  0  0  0  0  0  0  0  0  0  0  0
   -0.6492    0.9795    0.0000 C   0  0  0  0  0  0  0  0  0  0  0  0
   -0.6854    2.9075    0.0000 C   0  0  0  0  0  0  0  0  0  0  0  0
    1.8643    3.4067    0.0000 C   0  0  0  0  0  0  0  0  0  0  0  0
    2.0969    4.8885    0.0000 O   0  0  0  0  0  0  0  0  0  0  0  0
    0.4646    2.8673    0.0000 N   0  0  0  0  0  0  0  0  0  0  0  0
   -0.7024    3.8097    0.0000 C   0  0  0  0  0  0  0  0  0  0  0  0
   -1.4766    5.0944    0.0000 C   0  0  0  0  0  0  0  0  0  0  0  0
   -0.7512    6.4073    0.0000 S   0  0  0  0  0  0  0  0  0  0  0  0
   -2.1020    3.2703    0.0000 C   0  0  0  0  0  0  0  0  0  0  0  0
   -2.3347    1.7884    0.0000 O   0  0  0  0  0  0  0  0  0  0  0  0
   -3.2690    4.2127    0.0000 N   0  0  0  0  0  0  0  0  0  0  0  0
   -4.6687    3.6733    0.0000 C   0  0  0  0  0  0  0  0  0  0  0  0
   -5.1903    2.2669    0.0000 C   0  0  0  0  0  0  0  0  0  0  0  0
   -6.1034    1.0768    0.0000 C   0  0  0  0  0  0  0  0  0  0  0  0
   -7.3266    0.2087    0.0000 C   0  0  0  0  0  0  0  0  0  0  0  0
   -8.7514   -0.2603    0.0000 C   0  0  0  0  0  0  0  0  0  0  0  0
   -3.4808    2.7573    0.0000 C   0  0  0  0  0  0  0  0  0  0  0  0
   -4.5847    5.1709    0.0000 C   0  0  0  0  0  0  0  0  0  0  0  0
   -3.1695    5.6683    0.0000 O   0  0  0  0  0  0  0  0  0  0  0  0
   -4.9459    6.6268    0.0000 N   0  0  0  0  0  0  0  0  0  0  0  0
   -5.7201    7.9115    0.0000 C   0  0  0  0  0  0  0  0  0  0  0  0
   -5.2692    9.3421    0.0000 C   0  0  0  0  0  0  0  0  0  0  0  0
   -3.8048    9.6669    0.0000 C   0  0  0  0  0  0  0  0  0  0  0  0
   -3.3539   11.0975    0.0000 C   0  0  0  0  0  0  0  0  0  0  0  0
   -2.3176    9.4713    0.0000 C   0  0  0  0  0  0  0  0  0  0  0  0
   -6.8387    8.9109    0.0000 C   0  0  0  0  0  0  0  0  0  0  0  0
   -6.0171   10.1659    0.0000 O   0  0  0  0  0  0  0  0  0  0  0  0
   -8.2021    9.5363    0.0000 N   0  0  0  0  0  0  0  0  0  0  0  0
   -9.6893    9.7319    0.0000 C   0  0  0  0  0  0  0  0  0  0  0  0
  -10.5267   10.9764    0.0000 C   0  0  0  0  0  0  0  0  0  0  0  0
   -9.8675   12.3239    0.0000 C   0  0  0  0  0  0  0  0  0  0  0  0
  -10.7049   13.5684    0.0000 C   0  0  0  0  0  0  0  0  0  0  0  0
   -8.7873   13.3646    0.0000 C   0  0  0  0  0  0  0  0  0  0  0  0
  -11.1681    9.4805    0.0000 C   0  0  0  0  0  0  0  0  0  0  0  0
  -11.6371   10.9053    0.0000 O   0  0  0  0  0  0  0  0  0  0  0  0
  -12.5071    8.8044    0.0000 N   0  0  0  0  0  0  0  0  0  0  0  0
  -13.5873    7.7637    0.0000 C   0  0  0  0  0  0  0  0  0  0  0  0
  -15.0824    7.8850    0.0000 C   0  0  0  0  0  0  0  0  0  0  0  0
  -15.7249    9.2404    0.0000 C   0  0  0  0  0  0  0  0  0  0  0  0
  -17.2200    9.3617    0.0000 C   0  0  0  0  0  0  0  0  0  0  0  0
  -17.8625   10.7171    0.0000 O   0  0  0  0  0  0  0  0  0  0  0  0
  -18.0726    8.1276    0.0000 O   0  0  0  0  0  0  0  0  0  0  0  0
  -14.3128    6.4508    0.0000 C   0  0  0  0  0  0  0  0  0  0  0  0
  -15.7191    6.9725    0.0000 O   0  0  0  0  0  0  0  0  0  0  0  0
  -14.6190    4.9824    0.0000 N   0  0  0  0  0  0  0  0  0  0  0  0
  -14.4788    3.4890    0.0000 C   0  0  0  0  0  0  0  0  0  0  0  0
  -13.9047    2.1032    0.0000 C   0  0  0  0  0  0  0  0  0  0  0  0
  -12.9476    0.9482    0.0000 C   0  0  0  0  0  0  0  0  0  0  0  0
  -11.6926    0.1267    0.0000 C   0  0  0  0  0  0  0  0  0  0  0  0
  -10.2512   -0.2885    0.0000 C   0  0  0  0  0  0  0  0  0  0  0  0
  -15.8978    3.9754    0.0000 C   0  0  0  0  0  0  0  0  0  0  0  0
  -15.5058    2.3957    0.0000 C   0  0  0  0  0  0  0  0  0  0  0  0
  -15.4329    0.8974    0.0000 O   0  0  0  0  0  0  0  0  0  0  0  0
  -16.9662    2.7384    0.0000 N   0  0  0  0  0  0  0  0  0  0  0  0
  -17.9932    1.6451    0.0000 C   0  0  0  0  0  0  0  0  0  0  0  0
  -18.5843    0.2665    0.0000 C   0  0  0  0  0  0  0  0  0  0  0  0
  -19.4535    1.9879    0.0000 C   0  0  0  0  0  0  0  0  0  0  0  0
  -19.8868    3.4240    0.0000 O   0  0  0  0  0  0  0  0  0  0  0  0
  -20.4805    0.8946    0.0000 N   0  0  0  0  0  0  0  0  0  0  0  0
  -21.9408    1.2374    0.0000 C   0  0  0  0  0  0  0  0  0  0  0  0
  -23.1958    2.0589    0.0000 C   0  0  0  0  0  0  0  0  0  0  0  0
  -22.9299    3.5352    0.0000 C   0  0  0  0  0  0  0  0  0  0  0  0
  -24.6561    2.4017    0.0000 C   0  0  0  0  0  0  0  0  0  0  0  0
  -25.0894    3.8377    0.0000 C   0  0  0  0  0  0  0  0  0  0  0  0
  -22.9678    0.1441    0.0000 C   0  0  0  0  0  0  0  0  0  0  0  0
  -22.5345   -1.2919    0.0000 O   0  0  0  0  0  0  0  0  0  0  0  0
  -24.4281    0.4869    0.0000 N   0  0  0  0  0  0  0  0  0  0  0  0
  -25.4551   -0.6064    0.0000 C   0  0  0  0  0  0  0  0  0  0  0  0
  -26.0462   -1.9850    0.0000 C   0  0  0  0  0  0  0  0  0  0  0  0
  -27.5357   -2.1624    0.0000 C   0  0  0  0  0  0  0  0  0  0  0  0
  -28.1268   -3.5410    0.0000 C   0  0  0  0  0  0  0  0  0  0  0  0
  -29.5836   -3.8986    0.0000 N   0  0  0  0  0  0  0  0  0  0  0  0
  -27.2285   -4.7422    0.0000 O   0  0  0  0  0  0  0  0  0  0  0  0
  -26.9154   -0.2637    0.0000 C   0  0  0  0  0  0  0  0  0  0  0  0
  -27.3487    1.1724    0.0000 O   0  0  0  0  0  0  0  0  0  0  0  0
  -27.9424   -1.3569    0.0000 N   0  0  0  0  0  0  0  0  0  0  0  0
  -29.4027   -1.0142    0.0000 C   0  0  0  0  0  0  0  0  0  0  0  0
  -30.6577   -0.1926    0.0000 C   0  0  0  0  0  0  0  0  0  0  0  0
  -30.5738    1.3050    0.0000 C   0  0  0  0  0  0  0  0  0  0  0  0
  -31.8288    2.1266    0.0000 O   0  0  0  0  0  0  0  0  0  0  0  0
  -29.2348    1.9811    0.0000 O   0  0  0  0  0  0  0  0  0  0  0  0
  -30.4297   -2.1075    0.0000 C   0  0  0  0  0  0  0  0  0  0  0  0
  -30.1747   -3.5856    0.0000 O   0  0  0  0  0  0  0  0  0  0  0  0
  -31.8900   -1.7647    0.0000 N   0  0  0  0  0  0  0  0  0  0  0  0
  -32.9170   -2.8580    0.0000 C   0  0  0  0  0  0  0  0  0  0  0  0
  -33.5082   -4.2366    0.0000 C   0  0  0  0  0  0  0  0  0  0  0  0
  -33.5921   -5.7342    0.0000 O   0  0  0  0  0  0  0  0  0  0  0  0
  -34.9649   -4.5942    0.0000 C   0  0  0  0  0  0  0  0  0  0  0  0
  -34.3773   -2.5152    0.0000 C   0  0  0  0  0  0  0  0  0  0  0  0
  -34.8106   -1.0792    0.0000 O   0  0  0  0  0  0  0  0  0  0  0  0
  -35.4043   -3.6085    0.0000 N   0  0  0  0  0  0  0  0  0  0  0  0
  -36.8646   -3.2657    0.0000 C   0  0  0  0  0  0  0  0  0  0  0  0
  -38.1197   -2.4442    0.0000 C   0  0  0  0  0  0  0  0  0  0  0  0
  -38.0357   -0.9466    0.0000 C   0  0  0  0  0  0  0  0  0  0  0  0
  -37.8916   -4.3590    0.0000 C   0  0  0  0  0  0  0  0  0  0  0  0
  -37.4583   -5.7951    0.0000 O   0  0  0  0  0  0  0  0  0  0  0  0
  -39.3520   -4.0163    0.0000 N   0  0  0  0  0  0  0  0  0  0  0  0
  -40.3790   -5.1096    0.0000 C   0  0  0  0  0  0  0  0  0  0  0  0
  -40.9701   -6.4882    0.0000 C   0  0  0  0  0  0  0  0  0  0  0  0
  -42.4596   -6.6655    0.0000 C   0  0  0  0  0  0  0  0  0  0  0  0
  -43.0507   -8.0441    0.0000 C   0  0  0  0  0  0  0  0  0  0  0  0
  -44.5402   -8.2215    0.0000 N   0  0  0  0  0  0  0  0  0  0  0  0
  -45.1313   -9.6001    0.0000 C   0  0  0  0  0  0  0  0  0  0  0  0
  -46.6313   -9.5946    0.0000 N   0  0  0  0  0  0  0  0  0  0  0  0
  -44.2330  -10.8013    0.0000 N   0  0  0  0  0  0  0  0  0  0  0  0
  -41.8393   -4.7668    0.0000 C   0  0  0  0  0  0  0  0  0  0  0  0
  -42.2726   -3.3307    0.0000 O   0  0  0  0  0  0  0  0  0  0  0  0
  -42.8663   -5.8601    0.0000 N   0  0  0  0  0  0  0  0  0  0  0  0
  -44.3266   -5.5173    0.0000 C   0  0  0  0  0  0  0  0  0  0  0  0
  -45.5816   -4.6958    0.0000 C   0  0  0  0  0  0  0  0  0  0  0  0
  -45.4976   -3.1981    0.0000 C   0  0  0  0  0  0  0  0  0  0  0  0
  -46.7526   -2.3766    0.0000 C   0  0  0  0  0  0  0  0  0  0  0  0
  -46.6687   -0.8789    0.0000 O   0  0  0  0  0  0  0  0  0  0  0  0
  -48.0916   -3.0527    0.0000 O   0  0  0  0  0  0  0  0  0  0  0  0
  -45.3536   -6.6106    0.0000 C   0  0  0  0  0  0  0  0  0  0  0  0
  -45.2806   -8.1088    0.0000 O   0  0  0  0  0  0  0  0  0  0  0  0
  -46.8139   -6.2678    0.0000 N   0  0  0  0  0  0  0  0  0  0  0  0
  -47.8409   -7.3611    0.0000 C   0  0  0  0  0  0  0  0  0  0  0  0
  -48.4320   -8.7397    0.0000 C   0  0  0  0  0  0  0  0  0  0  0  0
  -49.9215   -8.9171    0.0000 C   0  0  0  0  0  0  0  0  0  0  0  0
  -50.5126  -10.2957    0.0000 C   0  0  0  0  0  0  0  0  0  0  0  0
  -52.0021  -10.4731    0.0000 N   0  0  0  0  0  0  0  0  0  0  0  0
  -49.6143  -11.4969    0.0000 O   0  0  0  0  0  0  0  0  0  0  0  0
  -49.3012   -7.0184    0.0000 C   0  0  0  0  0  0  0  0  0  0  0  0
  -50.4538   -7.9783    0.0000 O   0  0  0  0  0  0  0  0  0  0  0  0
  -49.7345   -5.5823    0.0000 O   0  0  0  0  0  0  0  0  0  0  0  0
   50.6805   -2.7513    0.0000 H   0  0  0  0  0  0  0  0  0  0  0  0
   50.1649   -7.2141    0.0000 H   0  0  0  0  0  0  0  0  0  0  0  0
   52.4988   -9.0990    0.0000 H   0  0  0  0  0  0  0  0  0  0  0  0
   53.0640   -3.1593    0.0000 H   0  0  0  0  0  0  0  0  0  0  0  0
   60.1991   -2.5234    0.0000 H   0  0  0  0  0  0  0  0  0  0  0  0
   60.4780   -7.7121    0.0000 H   0  0  0  0  0  0  0  0  0  0  0  0
   57.4823   -7.8731    0.0000 H   0  0  0  0  0  0  0  0  0  0  0  0
   62.6550   -6.2941    0.0000 H   0  0  0  0  0  0  0  0  0  0  0  0
   52.8494   -5.5202    0.0000 H   0  0  0  0  0  0  0  0  0  0  0  0
   51.2134   -2.8232    0.0000 H   0  0  0  0  0  0  0  0  0  0  0  0
   55.5662   -0.1706    0.0000 H   0  0  0  0  0  0  0  0  0  0  0  0
   53.2497    1.0058    0.0000 H   0  0  0  0  0  0  0  0  0  0  0  0
   48.2963   -2.3656    0.0000 H   0  0  0  0  0  0  0  0  0  0  0  0
   45.5332   -5.3724    0.0000 H   0  0  0  0  0  0  0  0  0  0  0  0
   47.4382   -5.6716    0.0000 H   0  0  0  0  0  0  0  0  0  0  0  0
   44.7227   -2.1597    0.0000 H   0  0  0  0  0  0  0  0  0  0  0  0
   46.6277   -2.4588    0.0000 H   0  0  0  0  0  0  0  0  0  0  0  0
   43.1630   -1.5596    0.0000 H   0  0  0  0  0  0  0  0  0  0  0  0
   42.3049   -4.8656    0.0000 H   0  0  0  0  0  0  0  0  0  0  0  0
   39.6745   -5.8793    0.0000 H   0  0  0  0  0  0  0  0  0  0  0  0
   41.5669   -5.5089    0.0000 H   0  0  0  0  0  0  0  0  0  0  0  0
   37.8502   -5.0656    0.0000 H   0  0  0  0  0  0  0  0  0  0  0  0
   38.5525   -4.6203    0.0000 H   0  0  0  0  0  0  0  0  0  0  0  0
   39.0395   -1.3950    0.0000 H   0  0  0  0  0  0  0  0  0  0  0  0
   35.9794    0.1270    0.0000 H   0  0  0  0  0  0  0  0  0  0  0  0
   35.6872   -1.6334    0.0000 H   0  0  0  0  0  0  0  0  0  0  0  0
   38.8790    1.3478    0.0000 H   0  0  0  0  0  0  0  0  0  0  0  0
   39.0214   -0.4309    0.0000 H   0  0  0  0  0  0  0  0  0  0  0  0
   34.7000    2.9035    0.0000 H   0  0  0  0  0  0  0  0  0  0  0  0
   35.2807   -0.3332    0.0000 H   0  0  0  0  0  0  0  0  0  0  0  0
   34.6051   -3.6565    0.0000 H   0  0  0  0  0  0  0  0  0  0  0  0
   31.9746   -4.6703    0.0000 H   0  0  0  0  0  0  0  0  0  0  0  0
   33.8670   -4.2998    0.0000 H   0  0  0  0  0  0  0  0  0  0  0  0
   30.1141   -1.9285    0.0000 H   0  0  0  0  0  0  0  0  0  0  0  0
   31.3051   -1.3711    0.0000 H   0  0  0  0  0  0  0  0  0  0  0  0
   29.3078   -6.3142    0.0000 H   0  0  0  0  0  0  0  0  0  0  0  0
   30.6798   -3.3503    0.0000 H   0  0  0  0  0  0  0  0  0  0  0  0
   31.3396   -0.1860    0.0000 H   0  0  0  0  0  0  0  0  0  0  0  0
   28.1559    1.2008    0.0000 H   0  0  0  0  0  0  0  0  0  0  0  0
   27.9873   -0.4244    0.0000 H   0  0  0  0  0  0  0  0  0  0  0  0
   31.3215    0.7781    0.0000 H   0  0  0  0  0  0  0  0  0  0  0  0
   29.8341    4.2475    0.0000 H   0  0  0  0  0  0  0  0  0  0  0  0
   28.1071    3.7984    0.0000 H   0  0  0  0  0  0  0  0  0  0  0  0
   28.0316    2.0155    0.0000 H   0  0  0  0  0  0  0  0  0  0  0  0
   31.0725    4.0530    0.0000 H   0  0  0  0  0  0  0  0  0  0  0  0
   32.5788    3.0963    0.0000 H   0  0  0  0  0  0  0  0  0  0  0  0
   31.9534    1.2721    0.0000 H   0  0  0  0  0  0  0  0  0  0  0  0
   27.5809    0.8758    0.0000 H   0  0  0  0  0  0  0  0  0  0  0  0
   26.9052   -2.4475    0.0000 H   0  0  0  0  0  0  0  0  0  0  0  0
   24.2747   -3.4613    0.0000 H   0  0  0  0  0  0  0  0  0  0  0  0
   26.1671   -3.0908    0.0000 H   0  0  0  0  0  0  0  0  0  0  0  0
   22.4505   -2.6475    0.0000 H   0  0  0  0  0  0  0  0  0  0  0  0
   22.4142   -0.7195    0.0000 H   0  0  0  0  0  0  0  0  0  0  0  0
   23.6052   -0.1621    0.0000 H   0  0  0  0  0  0  0  0  0  0  0  0
   23.1527   -2.2022    0.0000 H   0  0  0  0  0  0  0  0  0  0  0  0
   23.5280    1.1682    0.0000 H   0  0  0  0  0  0  0  0  0  0  0  0
   22.3485    2.7803    0.0000 H   0  0  0  0  0  0  0  0  0  0  0  0
   20.5796    2.5450    0.0000 H   0  0  0  0  0  0  0  0  0  0  0  0
   20.2874    0.7847    0.0000 H   0  0  0  0  0  0  0  0  0  0  0  0
   19.8810    2.0848    0.0000 H   0  0  0  0  0  0  0  0  0  0  0  0
   19.2053   -1.2385    0.0000 H   0  0  0  0  0  0  0  0  0  0  0  0
   16.5748   -2.2523    0.0000 H   0  0  0  0  0  0  0  0  0  0  0  0
   18.4672   -1.8818    0.0000 H   0  0  0  0  0  0  0  0  0  0  0  0
   14.7144    0.4895    0.0000 H   0  0  0  0  0  0  0  0  0  0  0  0
   15.9053    1.0469    0.0000 H   0  0  0  0  0  0  0  0  0  0  0  0
   13.9080   -3.8962    0.0000 H   0  0  0  0  0  0  0  0  0  0  0  0
   15.2801   -0.9323    0.0000 H   0  0  0  0  0  0  0  0  0  0  0  0
   15.8282    2.3773    0.0000 H   0  0  0  0  0  0  0  0  0  0  0  0
   14.6486    3.9893    0.0000 H   0  0  0  0  0  0  0  0  0  0  0  0
   12.8797    3.7540    0.0000 H   0  0  0  0  0  0  0  0  0  0  0  0
   12.5875    1.9937    0.0000 H   0  0  0  0  0  0  0  0  0  0  0  0
   12.1811    3.2938    0.0000 H   0  0  0  0  0  0  0  0  0  0  0  0
   11.5054   -0.0295    0.0000 H   0  0  0  0  0  0  0  0  0  0  0  0
    8.8749   -1.0433    0.0000 H   0  0  0  0  0  0  0  0  0  0  0  0
   10.7673   -0.6728    0.0000 H   0  0  0  0  0  0  0  0  0  0  0  0
    6.9297   -1.6057    0.0000 H   0  0  0  0  0  0  0  0  0  0  0  0
    4.3208    0.3548    0.0000 H   0  0  0  0  0  0  0  0  0  0  0  0
    5.2360    3.3275    0.0000 H   0  0  0  0  0  0  0  0  0  0  0  0
    7.5802    0.2767    0.0000 H   0  0  0  0  0  0  0  0  0  0  0  0
    8.1283    3.5863    0.0000 H   0  0  0  0  0  0  0  0  0  0  0  0
    5.1799    4.9630    0.0000 H   0  0  0  0  0  0  0  0  0  0  0  0
    4.8144    3.3706    0.0000 H   0  0  0  0  0  0  0  0  0  0  0  0
    6.8999    7.7959    0.0000 H   0  0  0  0  0  0  0  0  0  0  0  0
    4.6747    6.4548    0.0000 H   0  0  0  0  0  0  0  0  0  0  0  0
    4.4812    4.5028    0.0000 H   0  0  0  0  0  0  0  0  0  0  0  0
    3.8055    1.1795    0.0000 H   0  0  0  0  0  0  0  0  0  0  0  0
    1.3405    0.0871    0.0000 H   0  0  0  0  0  0  0  0  0  0  0  0
    3.0675    0.5362    0.0000 H   0  0  0  0  0  0  0  0  0  0  0  0
    0.5056    3.4649    0.0000 H   0  0  0  0  0  0  0  0  0  0  0  0
   -2.1482    0.9251    0.0000 H   0  0  0  0  0  0  0  0  0  0  0  0
   -1.3747   -0.3334    0.0000 H   0  0  0  0  0  0  0  0  0  0  0  0
    0.3942   -0.0981    0.0000 H   0  0  0  0  0  0  0  0  0  0  0  0
   -0.8182    4.4017    0.0000 H   0  0  0  0  0  0  0  0  0  0  0  0
   -2.1799    3.0362    0.0000 H   0  0  0  0  0  0  0  0  0  0  0  0
   -1.5655    1.6929    0.0000 H   0  0  0  0  0  0  0  0  0  0  0  0
   -0.1197    1.4858    0.0000 H   0  0  0  0  0  0  0  0  0  0  0  0
    0.4284    4.7953    0.0000 H   0  0  0  0  0  0  0  0  0  0  0  0
   -2.3809    6.2912    0.0000 H   0  0  0  0  0  0  0  0  0  0  0  0
   -2.8123    4.4117    0.0000 H   0  0  0  0  0  0  0  0  0  0  0  0
   -1.5254    7.6920    0.0000 H   0  0  0  0  0  0  0  0  0  0  0  0
   -3.0363    5.6945    0.0000 H   0  0  0  0  0  0  0  0  0  0  0  0
   -3.6925    2.1866    0.0000 H   0  0  0  0  0  0  0  0  0  0  0  0
   -4.4811    0.9452    0.0000 H   0  0  0  0  0  0  0  0  0  0  0  0
   -4.7694    0.3909    0.0000 H   0  0  0  0  0  0  0  0  0  0  0  0
   -5.6379   -0.3491    0.0000 H   0  0  0  0  0  0  0  0  0  0  0  0
   -6.1343   -0.7014    0.0000 H   0  0  0  0  0  0  0  0  0  0  0  0
   -7.4852   -1.2829    0.0000 H   0  0  0  0  0  0  0  0  0  0  0  0
   -8.5001   -1.7391    0.0000 H   0  0  0  0  0  0  0  0  0  0  0  0
   -3.5810    1.0944    0.0000 H   0  0  0  0  0  0  0  0  0  0  0  0
   -2.4595    1.7159    0.0000 H   0  0  0  0  0  0  0  0  0  0  0  0
   -2.5052    3.6438    0.0000 H   0  0  0  0  0  0  0  0  0  0  0  0
   -3.5601    7.2009    0.0000 H   0  0  0  0  0  0  0  0  0  0  0  0
   -4.2202    7.9060    0.0000 H   0  0  0  0  0  0  0  0  0  0  0  0
   -5.5169   10.8215    0.0000 H   0  0  0  0  0  0  0  0  0  0  0  0
   -6.6649    9.8918    0.0000 H   0  0  0  0  0  0  0  0  0  0  0  0
   -3.5571    8.1875    0.0000 H   0  0  0  0  0  0  0  0  0  0  0  0
   -1.9400   11.5984    0.0000 H   0  0  0  0  0  0  0  0  0  0  0  0
   -3.4194   12.5961    0.0000 H   0  0  0  0  0  0  0  0  0  0  0  0
   -4.8061   11.4730    0.0000 H   0  0  0  0  0  0  0  0  0  0  0  0
   -1.2663   10.5412    0.0000 H   0  0  0  0  0  0  0  0  0  0  0  0
   -0.9870    8.7787    0.0000 H   0  0  0  0  0  0  0  0  0  0  0  0
   -2.7685    8.0406    0.0000 H   0  0  0  0  0  0  0  0  0  0  0  0
   -7.7870   10.9777    0.0000 H   0  0  0  0  0  0  0  0  0  0  0  0
   -8.7498   10.9012    0.0000 H   0  0  0  0  0  0  0  0  0  0  0  0
  -11.8378   11.7051    0.0000 H   0  0  0  0  0  0  0  0  0  0  0  0
  -11.8266   10.2280    0.0000 H   0  0  0  0  0  0  0  0  0  0  0  0
   -8.5564   11.5952    0.0000 H   0  0  0  0  0  0  0  0  0  0  0  0
  -10.2149   14.9861    0.0000 H   0  0  0  0  0  0  0  0  0  0  0  0
  -11.9174   14.4515    0.0000 H   0  0  0  0  0  0  0  0  0  0  0  0
  -11.9039   12.6671    0.0000 H   0  0  0  0  0  0  0  0  0  0  0  0
   -8.9684   14.8536    0.0000 H   0  0  0  0  0  0  0  0  0  0  0  0
   -7.4163   13.9731    0.0000 H   0  0  0  0  0  0  0  0  0  0  0  0
   -7.9500   12.1201    0.0000 H   0  0  0  0  0  0  0  0  0  0  0  0
  -13.3752   10.0277    0.0000 H   0  0  0  0  0  0  0  0  0  0  0  0
  -13.9157    9.2273    0.0000 H   0  0  0  0  0  0  0  0  0  0  0  0
  -16.5288    7.4876    0.0000 H   0  0  0  0  0  0  0  0  0  0  0  0
  -15.3078    6.4020    0.0000 H   0  0  0  0  0  0  0  0  0  0  0  0
  -15.8651   10.7338    0.0000 H   0  0  0  0  0  0  0  0  0  0  0  0
  -14.3377    9.8111    0.0000 H   0  0  0  0  0  0  0  0  0  0  0  0
  -19.5677    8.2488    0.0000 H   0  0  0  0  0  0  0  0  0  0  0  0
  -16.1167    5.0664    0.0000 H   0  0  0  0  0  0  0  0  0  0  0  0
  -14.5638    0.7558    0.0000 H   0  0  0  0  0  0  0  0  0  0  0  0
  -15.3707    1.7856    0.0000 H   0  0  0  0  0  0  0  0  0  0  0  0
  -13.3592   -0.4942    0.0000 H   0  0  0  0  0  0  0  0  0  0  0  0
  -14.2549    0.2127    0.0000 H   0  0  0  0  0  0  0  0  0  0  0  0
  -11.4781   -1.3579    0.0000 H   0  0  0  0  0  0  0  0  0  0  0  0
  -12.8499   -0.8276    0.0000 H   0  0  0  0  0  0  0  0  0  0  0  0
  -10.4468   -1.7756    0.0000 H   0  0  0  0  0  0  0  0  0  0  0  0
  -17.2334    3.2927    0.0000 H   0  0  0  0  0  0  0  0  0  0  0  0
  -16.9412    5.0531    0.0000 H   0  0  0  0  0  0  0  0  0  0  0  0
  -15.5116    5.4248    0.0000 H   0  0  0  0  0  0  0  0  0  0  0  0
  -17.5713    4.1110    0.0000 H   0  0  0  0  0  0  0  0  0  0  0  0
  -16.7381    0.8236    0.0000 H   0  0  0  0  0  0  0  0  0  0  0  0
  -19.9112   -0.4329    0.0000 H   0  0  0  0  0  0  0  0  0  0  0  0
  -18.6683   -1.2311    0.0000 H   0  0  0  0  0  0  0  0  0  0  0  0
  -17.1240   -0.0762    0.0000 H   0  0  0  0  0  0  0  0  0  0  0  0
  -20.2254   -0.5835    0.0000 H   0  0  0  0  0  0  0  0  0  0  0  0
  -21.1860    2.5337    0.0000 H   0  0  0  0  0  0  0  0  0  0  0  0
  -24.1030    0.8643    0.0000 H   0  0  0  0  0  0  0  0  0  0  0  0
  -24.2534    4.5470    0.0000 H   0  0  0  0  0  0  0  0  0  0  0  0
  -22.5207    4.9352    0.0000 H   0  0  0  0  0  0  0  0  0  0  0  0
  -21.6206    3.3944    0.0000 H   0  0  0  0  0  0  0  0  0  0  0  0
  -26.1456    2.2243    0.0000 H   0  0  0  0  0  0  0  0  0  0  0  0
  -25.1000    0.9689    0.0000 H   0  0  0  0  0  0  0  0  0  0  0  0
  -26.5497    4.1805    0.0000 H   0  0  0  0  0  0  0  0  0  0  0  0
  -25.0054    5.3354    0.0000 H   0  0  0  0  0  0  0  0  0  0  0  0
  -23.6871    4.3703    0.0000 H   0  0  0  0  0  0  0  0  0  0  0  0
  -25.1960    1.7754    0.0000 H   0  0  0  0  0  0  0  0  0  0  0  0
  -24.2001   -1.4280    0.0000 H   0  0  0  0  0  0  0  0  0  0  0  0
  -26.1302   -3.4827    0.0000 H   0  0  0  0  0  0  0  0  0  0  0  0
  -24.5859   -2.3278    0.0000 H   0  0  0  0  0  0  0  0  0  0  0  0
  -28.9960   -1.8196    0.0000 H   0  0  0  0  0  0  0  0  0  0  0  0
  -28.1648   -0.8007    0.0000 H   0  0  0  0  0  0  0  0  0  0  0  0
  -30.2075   -5.0970    0.0000 H   0  0  0  0  0  0  0  0  0  0  0  0
  -30.8213   -2.7835    0.0000 H   0  0  0  0  0  0  0  0  0  0  0  0
  -27.8695   -2.8552    0.0000 H   0  0  0  0  0  0  0  0  0  0  0  0
  -28.8116    0.3644    0.0000 H   0  0  0  0  0  0  0  0  0  0  0  0
  -32.0654    0.3256    0.0000 H   0  0  0  0  0  0  0  0  0  0  0  0
  -31.5649   -1.3872    0.0000 H   0  0  0  0  0  0  0  0  0  0  0  0
  -29.1508    3.4788    0.0000 H   0  0  0  0  0  0  0  0  0  0  0  0
  -32.4952   -0.3922    0.0000 H   0  0  0  0  0  0  0  0  0  0  0  0
  -31.6620   -3.6795    0.0000 H   0  0  0  0  0  0  0  0  0  0  0  0
  -32.0478   -4.5794    0.0000 H   0  0  0  0  0  0  0  0  0  0  0  0
  -34.8387   -6.5685    0.0000 H   0  0  0  0  0  0  0  0  0  0  0  0
  -35.7524   -5.7102    0.0000 H   0  0  0  0  0  0  0  0  0  0  0  0
  -36.4579   -4.0712    0.0000 H   0  0  0  0  0  0  0  0  0  0  0  0
  -35.6267   -3.0523    0.0000 H   0  0  0  0  0  0  0  0  0  0  0  0
  -35.1493   -5.0867    0.0000 H   0  0  0  0  0  0  0  0  0  0  0  0
  -36.1099   -1.9695    0.0000 H   0  0  0  0  0  0  0  0  0  0  0  0
  -39.5273   -1.9260    0.0000 H   0  0  0  0  0  0  0  0  0  0  0  0
  -39.0268   -3.6388    0.0000 H   0  0  0  0  0  0  0  0  0  0  0  0
  -39.2907   -0.1250    0.0000 H   0  0  0  0  0  0  0  0  0  0  0  0
  -37.4445    0.4321    0.0000 H   0  0  0  0  0  0  0  0  0  0  0  0
  -36.5445   -1.1088    0.0000 H   0  0  0  0  0  0  0  0  0  0  0  0
  -39.9571   -2.6437    0.0000 H   0  0  0  0  0  0  0  0  0  0  0  0
  -39.1239   -5.9311    0.0000 H   0  0  0  0  0  0  0  0  0  0  0  0
  -40.8709   -7.9849    0.0000 H   0  0  0  0  0  0  0  0  0  0  0  0
  -39.5098   -6.8309    0.0000 H   0  0  0  0  0  0  0  0  0  0  0  0
  -43.9199   -6.3228    0.0000 H   0  0  0  0  0  0  0  0  0  0  0  0
  -43.0887   -5.3038    0.0000 H   0  0  0  0  0  0  0  0  0  0  0  0
  -43.1347   -9.5418    0.0000 H   0  0  0  0  0  0  0  0  0  0  0  0
  -41.6431   -8.5623    0.0000 H   0  0  0  0  0  0  0  0  0  0  0  0
  -45.7025   -7.2733    0.0000 H   0  0  0  0  0  0  0  0  0  0  0  0
  -47.2119  -11.1561    0.0000 H   0  0  0  0  0  0  0  0  0  0  0  0
  -44.8241  -12.1800    0.0000 H   0  0  0  0  0  0  0  0  0  0  0  0
  -42.7435  -10.6240    0.0000 H   0  0  0  0  0  0  0  0  0  0  0  0
  -42.7933   -7.3583    0.0000 H   0  0  0  0  0  0  0  0  0  0  0  0
  -43.5718   -4.2210    0.0000 H   0  0  0  0  0  0  0  0  0  0  0  0
  -46.9892   -4.1776    0.0000 H   0  0  0  0  0  0  0  0  0  0  0  0
  -46.4887   -5.8904    0.0000 H   0  0  0  0  0  0  0  0  0  0  0  0
  -44.9065   -1.8195    0.0000 H   0  0  0  0  0  0  0  0  0  0  0  0
  -44.0064   -3.3603    0.0000 H   0  0  0  0  0  0  0  0  0  0  0  0
  -49.3466   -2.2311    0.0000 H   0  0  0  0  0  0  0  0  0  0  0  0
  -47.4190   -4.8953    0.0000 H   0  0  0  0  0  0  0  0  0  0  0  0
  -46.5859   -8.1827    0.0000 H   0  0  0  0  0  0  0  0  0  0  0  0
  -48.5160  -10.2374    0.0000 H   0  0  0  0  0  0  0  0  0  0  0  0
  -46.9408   -8.9019    0.0000 H   0  0  0  0  0  0  0  0  0  0  0  0
  -51.3818   -8.5743    0.0000 H   0  0  0  0  0  0  0  0  0  0  0  0
  -50.3799   -7.4889    0.0000 H   0  0  0  0  0  0  0  0  0  0  0  0
  -52.5933  -11.8517    0.0000 H   0  0  0  0  0  0  0  0  0  0  0  0
  -52.9005   -9.2718    0.0000 H   0  0  0  0  0  0  0  0  0  0  0  0
  -51.1948   -5.2395    0.0000 H   0  0  0  0  0  0  0  0  0  0  0  0
  1  2  1  0
  2  3  1  0
  3  4  2  0
  4  5  1  0
  5  6  2  0
  6  7  1  0
  7  8  2  0
  7  9  1  0
  9 10  1  0
 10 11  1  0
 11 12  2  0
  9 13  1  0
 13 14  1  0
 14 15  2  0
 15 16  1  0
 16 17  2  0
 17 18  1  0
 16 19  1  0
 14 20  1  0
 20 21  1  0
 21 22  2  0
 22 23  1  0
 23 24  2  0
 24 25  1  0
 25 26  2  0
 25 27  1  0
  1 28  2  0
  1 29  1  0
 29 30  1  0
 30 31  1  0
 31 32  1  0
 32 33  2  0
 32 34  1  0
 34 35  1  0
 35 36  1  0
 36 37  1  0
 35 38  1  0
 38 39  2  0
 38 40  1  0
 40 41  1  0
 41 42  1  0
 42 43  1  0
 43 44  1  0
 44 45  2  0
 44 46  1  0
 41 47  1  0
 47 48  2  0
 47 49  1  0
 49 50  1  0
 50 51  1  0
 51 52  1  0
 52 53  1  0
 53 54  2  0
 53 55  1  0
 50 56  1  0
 56 57  2  0
 56 58  1  0
 58 59  1  0
 59 60  1  0
 60 61  1  0
 61 62  1  0
 61 63  1  0
 59 64  1  0
 64 65  2  0
 64 66  1  0
 66 67  1  0
 67 68  1  0
 68 69  1  0
 67 70  1  0
 70 71  2  0
 70 72  1  0
 72 73  1  0
 73 74  1  0
 73 75  1  0
 75 76  2  0
 75 77  1  0
 77 78  1  0
 78 79  1  0
 79 80  1  0
 80 81  1  0
 81 82  2  0
 81 83  1  0
 78 84  1  0
 84 85  2  0
 84 86  1  0
 86 87  1  0
 87 88  1  0
 87 89  1  0
 89 90  2  0
 89 91  1  0
 91 92  1  0
 92 93  1  0
 93 94  1  0
 94 95  2  0
 95 96  1  0
 96 97  1  0
 97 98  2  0
 92 99  1  0
 99100  2  0
 99101  1  0
101102  1  0
102103  1  0
103104  1  0
104105  1  0
104106  2  0
102107  1  0
107108  2  0
107109  1  0
109110  1  0
110111  1  0
111112  1  0
112113  1  0
112114  1  0
110115  1  0
115116  2  0
115117  1  0
117118  1  0
118119  1  0
119120  1  0
118121  1  0
121122  2  0
121123  1  0
124123  1  1
124125  1  0
125126  1  0
126127  1  0
127128  1  0
124129  1  0
124130  1  0
130131  2  0
130132  1  0
132133  1  0
133134  1  0
134135  1  0
135136  1  0
135137  1  0
133138  1  0
138139  2  0
138140  1  0
140141  1  0
141142  1  0
142143  1  0
143144  1  0
143145  1  0
141146  1  0
146147  2  0
146148  1  0
148149  1  0
149150  1  0
150151  1  0
151152  1  0
152153  2  0
152154  1  0
149155  1  0
155156  2  0
155157  1  0
157158  1  0
158159  1  0
159160  1  0
160161  1  0
161162  1  0
158163  1  0
158164  1  1
164165  2  0
164166  1  0
166167  1  0
167168  1  0
167169  1  0
169170  2  0
169171  1  0
171172  1  0
172173  1  0
173174  1  0
173175  1  0
175176  1  0
172177  1  0
177178  2  0
177179  1  0
179180  1  0
180181  1  0
181182  1  0
182183  1  0
183184  1  0
183185  2  0
180186  1  0
186187  2  0
186188  1  0
188189  1  0
189190  1  0
190191  1  0
191192  2  0
191193  1  0
189194  1  0
194195  2  0
194196  1  0
196197  1  0
197198  1  0
198199  1  0
198200  1  0
197201  1  0
201202  2  0
201203  1  0
203204  1  0
204205  1  0
205206  1  0
204207  1  0
207208  2  0
207209  1  0
209210  1  0
210211  1  0
211212  1  0
212213  1  0
213214  1  0
214215  1  0
215216  2  3
215217  1  0
210218  1  0
218219  2  0
218220  1  0
220221  1  0
221222  1  0
222223  1  0
223224  1  0
224225  2  0
224226  1  0
221227  1  0
227228  2  0
227229  1  0
229230  1  0
230231  1  0
231232  1  0
232233  1  0
233234  1  0
233235  2  0
230236  1  0
236237  2  0
236238  1  0
  8  3  1  0
 98 94  1  0
 11  6  1  0
128162  2  0
 18 13  2  0
 22  9  1  0
 26 21  1  0
  2239  1  0
  4240  1  0
  5241  1  0
  8242  1  0
 15243  1  0
 17244  1  0
 18245  1  0
 19246  1  0
 23247  1  0
 24248  1  0
 26249  1  0
 27250  1  0
 29251  1  0
 30252  1  0
 30253  1  0
 31254  1  0
 31255  1  0
 34256  1  0
 35257  1  1
 36258  1  0
 36259  1  0
 37260  1  0
 40261  1  0
 41262  1  6
 42263  1  0
 42264  1  0
 43265  1  0
 43266  1  0
 46267  1  0
 49268  1  0
 50269  1  1
 51270  1  0
 51271  1  0
 52272  1  0
 52273  1  0
 55274  1  0
 58275  1  0
 59276  1  6
 60277  1  0
 60278  1  0
 61279  1  0
 62280  1  0
 62281  1  0
 62282  1  0
 63283  1  0
 63284  1  0
 63285  1  0
 66286  1  0
 67287  1  1
 68288  1  0
 68289  1  0
 69290  1  0
 69291  1  0
 69292  1  0
 72293  1  0
 73294  1  6
 74295  1  0
 74296  1  0
 74297  1  0
 77298  1  0
 78299  1  1
 79300  1  0
 79301  1  0
 80302  1  0
 80303  1  0
 83304  1  0
 86305  1  0
 87306  1  6
 88307  1  0
 88308  1  0
 88309  1  0
 91310  1  0
 92311  1  1
 93312  1  0
 93313  1  0
 95314  1  0
 96315  1  0
 97316  1  0
101317  1  0
102318  1  6
103319  1  0
103320  1  0
105321  1  0
105322  1  0
109323  1  0
110324  1  1
111325  1  0
111326  1  0
112327  1  0
113328  1  0
113329  1  0
113330  1  0
114331  1  0
114332  1  0
114333  1  0
117334  1  0
118335  1  6
119336  1  0
119337  1  0
120338  1  0
123339  1  0
125340  1  0
125341  1  0
126342  1  0
126343  1  0
127344  1  0
127345  1  0
128346  1  0
129347  1  0
129348  1  0
129349  1  0
132350  1  0
133351  1  6
134352  1  0
134353  1  0
135354  1  0
136355  1  0
136356  1  0
136357  1  0
137358  1  0
137359  1  0
137360  1  0
140361  1  0
141362  1  6
142363  1  0
142364  1  0
143365  1  0
144366  1  0
144367  1  0
144368  1  0
145369  1  0
145370  1  0
145371  1  0
148372  1  0
149373  1  6
150374  1  0
150375  1  0
151376  1  0
151377  1  0
154378  1  0
157379  1  0
159380  1  0
159381  1  0
160382  1  0
160383  1  0
161384  1  0
161385  1  0
162386  1  0
163387  1  0
163388  1  0
163389  1  0
166390  1  0
167391  1  1
168392  1  0
168393  1  0
168394  1  0
171395  1  0
172396  1  6
173397  1  1
174398  1  0
174399  1  0
174400  1  0
175401  1  0
175402  1  0
176403  1  0
176404  1  0
176405  1  0
179406  1  0
180407  1  1
181408  1  0
181409  1  0
182410  1  0
182411  1  0
184412  1  0
184413  1  0
188414  1  0
189415  1  6
190416  1  0
190417  1  0
193418  1  0
196419  1  0
197420  1  1
198421  1  1
199422  1  0
200423  1  0
200424  1  0
200425  1  0
203426  1  0
204427  1  6
205428  1  0
205429  1  0
206430  1  0
206431  1  0
206432  1  0
209433  1  0
210434  1  1
211435  1  0
211436  1  0
212437  1  0
212438  1  0
213439  1  0
213440  1  0
214441  1  0
216442  1  0
217443  1  0
217444  1  0
220445  1  0
221446  1  6
222447  1  0
222448  1  0
223449  1  0
223450  1  0
226451  1  0
229452  1  0
230453  1  1
231454  1  0
231455  1  0
232456  1  0
232457  1  0
234458  1  0
234459  1  0
238460  1  0
M  END
