
     RDKit          2D

314321  0  0  0  0  0  0  0  0999 V2000
   25.1234   -1.5470    0.0000 C   0  0  0  0  0  0  0  0  0  0  0  0
   26.4173   -2.3058    0.0000 N   0  0  0  0  0  0  0  0  0  0  0  0
   27.7214   -1.5647    0.0000 C   0  0  0  0  0  0  0  0  0  0  0  0
   27.7316   -0.0647    0.0000 C   0  0  0  0  0  0  0  0  0  0  0  0
   29.0357    0.6764    0.0000 C   0  0  0  0  0  0  0  0  0  0  0  0
   30.3296   -0.0824    0.0000 C   0  0  0  0  0  0  0  0  0  0  0  0
   30.3194   -1.5824    0.0000 C   0  0  0  0  0  0  0  0  0  0  0  0
   29.0153   -2.3235    0.0000 C   0  0  0  0  0  0  0  0  0  0  0  0
   31.7428   -2.0556    0.0000 C   0  0  0  0  0  0  0  0  0  0  0  0
   32.6327   -0.8482    0.0000 O   0  0  0  0  0  0  0  0  0  0  0  0
   31.7593    0.3713    0.0000 C   0  0  0  0  0  0  0  0  0  0  0  0
   32.2326    1.7947    0.0000 O   0  0  0  0  0  0  0  0  0  0  0  0
   33.2079   -2.3775    0.0000 C   0  0  0  0  0  0  0  0  0  0  0  0
   33.6616   -3.8072    0.0000 C   0  0  0  0  0  0  0  0  0  0  0  0
   35.1267   -4.1291    0.0000 C   0  0  0  0  0  0  0  0  0  0  0  0
   36.1380   -3.0212    0.0000 C   0  0  0  0  0  0  0  0  0  0  0  0
   35.6842   -1.5915    0.0000 C   0  0  0  0  0  0  0  0  0  0  0  0
   34.2191   -1.2697    0.0000 C   0  0  0  0  0  0  0  0  0  0  0  0
   37.6030   -3.3431    0.0000 O   0  0  0  0  0  0  0  0  0  0  0  0
   32.6504   -4.9151    0.0000 O   0  0  0  0  0  0  0  0  0  0  0  0
   31.1853   -4.5932    0.0000 C   0  0  0  0  0  0  0  0  0  0  0  0
   30.7315   -3.1635    0.0000 C   0  0  0  0  0  0  0  0  0  0  0  0
   29.4782   -3.5088    0.0000 C   0  0  0  0  0  0  0  0  0  0  0  0
   28.9389   -4.0997    0.0000 C   0  0  0  0  0  0  0  0  0  0  0  0
   29.1809   -4.8622    0.0000 C   0  0  0  0  0  0  0  0  0  0  0  0
   29.9623   -5.0339    0.0000 C   0  0  0  0  0  0  0  0  0  0  0  0
   27.6977   -6.4870    0.0000 O   0  0  0  0  0  0  0  0  0  0  0  0
   25.1336   -0.0470    0.0000 S   0  0  0  0  0  0  0  0  0  0  0  0
   23.8192   -2.2881    0.0000 N   0  0  0  0  0  0  0  0  0  0  0  0
   22.5254   -1.5292    0.0000 C   0  0  0  0  0  0  0  0  0  0  0  0
   21.2212   -2.2704    0.0000 C   0  0  0  0  0  0  0  0  0  0  0  0
   19.9273   -1.5115    0.0000 O   0  0  0  0  0  0  0  0  0  0  0  0
   18.6232   -2.2526    0.0000 C   0  0  0  0  0  0  0  0  0  0  0  0
   17.3293   -1.4938    0.0000 C   0  0  0  0  0  0  0  0  0  0  0  0
   16.0252   -2.2349    0.0000 O   0  0  0  0  0  0  0  0  0  0  0  0
   14.7313   -1.4761    0.0000 C   0  0  0  0  0  0  0  0  0  0  0  0
   13.4272   -2.2172    0.0000 C   0  0  0  0  0  0  0  0  0  0  0  0
   13.6148   -2.9920    0.0000 O   0  0  0  0  0  0  0  0  0  0  0  0
   12.1333   -1.4584    0.0000 N   0  0  0  0  0  0  0  0  0  0  0  0
   10.8292   -2.1995    0.0000 C   0  0  0  0  0  0  0  0  0  0  0  0
   11.7855   -3.3551    0.0000 C   0  0  0  0  0  0  0  0  0  0  0  0
   13.2644   -3.1047    0.0000 C   0  0  0  0  0  0  0  0  0  0  0  0
   14.2208   -4.2603    0.0000 N   0  0  0  0  0  0  0  0  0  0  0  0
   14.1118   -1.8669    0.0000 O   0  0  0  0  0  0  0  0  0  0  0  0
    9.3502   -2.4499    0.0000 C   0  0  0  0  0  0  0  0  0  0  0  0
    9.1833   -3.9406    0.0000 O   0  0  0  0  0  0  0  0  0  0  0  0
    8.3939   -1.2943    0.0000 N   0  0  0  0  0  0  0  0  0  0  0  0
    6.9149   -1.5446    0.0000 C   0  0  0  0  0  0  0  0  0  0  0  0
    7.4183   -2.9577    0.0000 C   0  0  0  0  0  0  0  0  0  0  0  0
    8.8937   -3.2282    0.0000 C   0  0  0  0  0  0  0  0  0  0  0  0
    9.3971   -4.6412    0.0000 C   0  0  0  0  0  0  0  0  0  0  0  0
   10.8286   -5.0896    0.0000 N   0  0  0  0  0  0  0  0  0  0  0  0
    8.4252   -5.7837    0.0000 O   0  0  0  0  0  0  0  0  0  0  0  0
    5.4395   -1.2741    0.0000 C   0  0  0  0  0  0  0  0  0  0  0  0
    4.7729   -2.6178    0.0000 O   0  0  0  0  0  0  0  0  0  0  0  0
    4.9361    0.1389    0.0000 N   0  0  0  0  0  0  0  0  0  0  0  0
    3.4607    0.4094    0.0000 C   0  0  0  0  0  0  0  0  0  0  0  0
    3.4505   -1.0905    0.0000 C   0  0  0  0  0  0  0  0  0  0  0  0
    4.7444   -1.8494    0.0000 C   0  0  0  0  0  0  0  0  0  0  0  0
    4.7342   -3.3493    0.0000 C   0  0  0  0  0  0  0  0  0  0  0  0
    6.2198   -2.1199    0.0000 C   0  0  0  0  0  0  0  0  0  0  0  0
    2.1668    1.1683    0.0000 C   0  0  0  0  0  0  0  0  0  0  0  0
    1.0808    0.1336    0.0000 O   0  0  0  0  0  0  0  0  0  0  0  0
    2.1771    2.6682    0.0000 N   0  0  0  0  0  0  0  0  0  0  0  0
    0.8832    3.4271    0.0000 C   0  0  0  0  0  0  0  0  0  0  0  0
    0.7778    1.9308    0.0000 C   0  0  0  0  0  0  0  0  0  0  0  0
    0.3912    0.4815    0.0000 C   0  0  0  0  0  0  0  0  0  0  0  0
   -0.2627   -0.8685    0.0000 C   0  0  0  0  0  0  0  0  0  0  0  0
   -1.1603   -2.0703    0.0000 C   0  0  0  0  0  0  0  0  0  0  0  0
   -2.2691   -3.0805    0.0000 C   0  0  0  0  0  0  0  0  0  0  0  0
   -3.5490   -3.8626    0.0000 C   0  0  0  0  0  0  0  0  0  0  0  0
   -4.9539   -4.3884    0.0000 C   0  0  0  0  0  0  0  0  0  0  0  0
    2.1377    4.2494    0.0000 C   0  0  0  0  0  0  0  0  0  0  0  0
    0.7034    4.9163    0.0000 C   0  0  0  0  0  0  0  0  0  0  0  0
    2.1188    5.4130    0.0000 O   0  0  0  0  0  0  0  0  0  0  0  0
    0.2451    6.3446    0.0000 N   0  0  0  0  0  0  0  0  0  0  0  0
   -0.4752    7.6603    0.0000 C   0  0  0  0  0  0  0  0  0  0  0  0
    0.1355    9.0303    0.0000 C   0  0  0  0  0  0  0  0  0  0  0  0
    1.6274    9.1864    0.0000 C   0  0  0  0  0  0  0  0  0  0  0  0
    2.2382   10.5564    0.0000 C   0  0  0  0  0  0  0  0  0  0  0  0
    3.7300   10.7125    0.0000 N   0  0  0  0  0  0  0  0  0  0  0  0
    4.3408   12.0825    0.0000 C   0  0  0  0  0  0  0  0  0  0  0  0
    5.8326   12.2386    0.0000 N   0  0  0  0  0  0  0  0  0  0  0  0
    3.4597   13.2965    0.0000 N   0  0  0  0  0  0  0  0  0  0  0  0
   -1.4315    8.8159    0.0000 C   0  0  0  0  0  0  0  0  0  0  0  0
   -0.5094    9.9990    0.0000 O   0  0  0  0  0  0  0  0  0  0  0  0
   -2.5893    9.7696    0.0000 N   0  0  0  0  0  0  0  0  0  0  0  0
   -3.9066   10.4870    0.0000 C   0  0  0  0  0  0  0  0  0  0  0  0
   -4.1335   11.9698    0.0000 C   0  0  0  0  0  0  0  0  0  0  0  0
   -2.9628   12.9076    0.0000 O   0  0  0  0  0  0  0  0  0  0  0  0
   -5.3359   10.9422    0.0000 C   0  0  0  0  0  0  0  0  0  0  0  0
   -5.1997   12.4360    0.0000 O   0  0  0  0  0  0  0  0  0  0  0  0
   -6.8255   11.1186    0.0000 N   0  0  0  0  0  0  0  0  0  0  0  0
   -8.3215   11.0099    0.0000 C   0  0  0  0  0  0  0  0  0  0  0  0
   -9.3140   12.1346    0.0000 C   0  0  0  0  0  0  0  0  0  0  0  0
   -8.8363   13.5565    0.0000 C   0  0  0  0  0  0  0  0  0  0  0  0
   -7.3660   13.8537    0.0000 C   0  0  0  0  0  0  0  0  0  0  0  0
   -6.8882   15.2756    0.0000 C   0  0  0  0  0  0  0  0  0  0  0  0
   -7.8808   16.4003    0.0000 C   0  0  0  0  0  0  0  0  0  0  0  0
   -9.3510   16.1031    0.0000 C   0  0  0  0  0  0  0  0  0  0  0  0
   -9.8288   14.6812    0.0000 C   0  0  0  0  0  0  0  0  0  0  0  0
   -9.7700   10.6201    0.0000 C   0  0  0  0  0  0  0  0  0  0  0  0
  -10.4631   11.9504    0.0000 O   0  0  0  0  0  0  0  0  0  0  0  0
  -11.1185    9.9632    0.0000 N   0  0  0  0  0  0  0  0  0  0  0  0
  -12.3183    9.0629    0.0000 C   0  0  0  0  0  0  0  0  0  0  0  0
  -13.7613    9.4725    0.0000 C   0  0  0  0  0  0  0  0  0  0  0  0
  -14.1281   10.9269    0.0000 C   0  0  0  0  0  0  0  0  0  0  0  0
  -13.0519   11.9718    0.0000 C   0  0  0  0  0  0  0  0  0  0  0  0
  -13.4187   13.4263    0.0000 C   0  0  0  0  0  0  0  0  0  0  0  0
  -14.8617   13.8359    0.0000 C   0  0  0  0  0  0  0  0  0  0  0  0
  -15.9379   12.7910    0.0000 C   0  0  0  0  0  0  0  0  0  0  0  0
  -15.5711   11.3365    0.0000 C   0  0  0  0  0  0  0  0  0  0  0  0
  -13.3260    7.9519    0.0000 C   0  0  0  0  0  0  0  0  0  0  0  0
  -14.6283    8.6963    0.0000 O   0  0  0  0  0  0  0  0  0  0  0  0
  -14.1053    6.6702    0.0000 N   0  0  0  0  0  0  0  0  0  0  0  0
  -14.6280    5.2642    0.0000 C   0  0  0  0  0  0  0  0  0  0  0  0
  -16.0633    4.8286    0.0000 C   0  0  0  0  0  0  0  0  0  0  0  0
  -14.8751    3.7847    0.0000 C   0  0  0  0  0  0  0  0  0  0  0  0
  -16.3730    3.7068    0.0000 O   0  0  0  0  0  0  0  0  0  0  0  0
  -14.8377    2.2851    0.0000 N   0  0  0  0  0  0  0  0  0  0  0  0
  -14.5172    0.8198    0.0000 C   0  0  0  0  0  0  0  0  0  0  0  0
  -15.4892   -0.3227    0.0000 C   0  0  0  0  0  0  0  0  0  0  0  0
  -16.9646   -0.0522    0.0000 C   0  0  0  0  0  0  0  0  0  0  0  0
  -17.9366   -1.1946    0.0000 C   0  0  0  0  0  0  0  0  0  0  0  0
  -18.2585    0.7067    0.0000 C   0  0  0  0  0  0  0  0  0  0  0  0
  -13.9252   -0.5585    0.0000 C   0  0  0  0  0  0  0  0  0  0  0  0
  -15.1433   -1.4338    0.0000 O   0  0  0  0  0  0  0  0  0  0  0  0
  -13.0831   -1.7998    0.0000 N   0  0  0  0  0  0  0  0  0  0  0  0
  -12.0212   -2.8592    0.0000 C   0  0  0  0  0  0  0  0  0  0  0  0
  -10.7781   -3.6986    0.0000 C   0  0  0  0  0  0  0  0  0  0  0  0
   -9.3985   -4.2876    0.0000 C   0  0  0  0  0  0  0  0  0  0  0  0
   -7.9324   -4.6048    0.0000 C   0  0  0  0  0  0  0  0  0  0  0  0
   -6.4328   -4.6388    0.0000 C   0  0  0  0  0  0  0  0  0  0  0  0
  -13.4420   -3.3402    0.0000 C   0  0  0  0  0  0  0  0  0  0  0  0
  -12.2213   -4.3458    0.0000 C   0  0  0  0  0  0  0  0  0  0  0  0
  -11.2909   -5.5225    0.0000 O   0  0  0  0  0  0  0  0  0  0  0  0
  -13.6087   -4.9159    0.0000 N   0  0  0  0  0  0  0  0  0  0  0  0
  -13.8087   -6.4025    0.0000 C   0  0  0  0  0  0  0  0  0  0  0  0
  -13.4883   -7.8679    0.0000 C   0  0  0  0  0  0  0  0  0  0  0  0
  -14.5971   -8.8781    0.0000 C   0  0  0  0  0  0  0  0  0  0  0  0
  -14.2766  -10.3435    0.0000 O   0  0  0  0  0  0  0  0  0  0  0  0
  -16.0940   -8.7823    0.0000 O   0  0  0  0  0  0  0  0  0  0  0  0
  -15.1962   -6.9726    0.0000 C   0  0  0  0  0  0  0  0  0  0  0  0
  -16.3836   -6.0560    0.0000 O   0  0  0  0  0  0  0  0  0  0  0  0
  -15.3962   -8.4592    0.0000 N   0  0  0  0  0  0  0  0  0  0  0  0
  -16.7837   -9.0292    0.0000 C   0  0  0  0  0  0  0  0  0  0  0  0
  -18.2824   -9.0904    0.0000 C   0  0  0  0  0  0  0  0  0  0  0  0
  -18.9788  -10.4189    0.0000 C   0  0  0  0  0  0  0  0  0  0  0  0
  -20.4776  -10.4801    0.0000 C   0  0  0  0  0  0  0  0  0  0  0  0
  -21.3308  -11.7138    0.0000 N   0  0  0  0  0  0  0  0  0  0  0  0
  -21.2799   -9.2127    0.0000 O   0  0  0  0  0  0  0  0  0  0  0  0
  -16.9837  -10.5158    0.0000 C   0  0  0  0  0  0  0  0  0  0  0  0
  -15.7963  -11.4324    0.0000 O   0  0  0  0  0  0  0  0  0  0  0  0
  -18.3712  -11.0859    0.0000 N   0  0  0  0  0  0  0  0  0  0  0  0
  -18.5712  -12.5725    0.0000 C   0  0  0  0  0  0  0  0  0  0  0  0
  -18.2507  -14.0379    0.0000 C   0  0  0  0  0  0  0  0  0  0  0  0
  -19.3595  -15.0481    0.0000 C   0  0  0  0  0  0  0  0  0  0  0  0
  -17.4484  -15.3053    0.0000 C   0  0  0  0  0  0  0  0  0  0  0  0
  -15.9496  -15.2441    0.0000 C   0  0  0  0  0  0  0  0  0  0  0  0
  -19.9586  -13.1426    0.0000 C   0  0  0  0  0  0  0  0  0  0  0  0
  -20.3384  -14.5937    0.0000 O   0  0  0  0  0  0  0  0  0  0  0  0
  -21.2489  -12.3776    0.0000 O   0  0  0  0  0  0  0  0  0  0  0  0
   26.2243   -3.7933    0.0000 H   0  0  0  0  0  0  0  0  0  0  0  0
   26.4377    0.6941    0.0000 H   0  0  0  0  0  0  0  0  0  0  0  0
   29.0460    2.1764    0.0000 H   0  0  0  0  0  0  0  0  0  0  0  0
   28.6424   -3.7764    0.0000 H   0  0  0  0  0  0  0  0  0  0  0  0
   35.5805   -5.5588    0.0000 H   0  0  0  0  0  0  0  0  0  0  0  0
   36.6955   -0.4837    0.0000 H   0  0  0  0  0  0  0  0  0  0  0  0
   33.7653    0.1600    0.0000 H   0  0  0  0  0  0  0  0  0  0  0  0
   38.6143   -2.2353    0.0000 H   0  0  0  0  0  0  0  0  0  0  0  0
   28.8127   -1.4119    0.0000 H   0  0  0  0  0  0  0  0  0  0  0  0
   26.7618   -3.8086    0.0000 H   0  0  0  0  0  0  0  0  0  0  0  0
   30.6278   -7.1308    0.0000 H   0  0  0  0  0  0  0  0  0  0  0  0
   28.1515   -7.9167    0.0000 H   0  0  0  0  0  0  0  0  0  0  0  0
   23.8090   -3.7880    0.0000 H   0  0  0  0  0  0  0  0  0  0  0  0
   23.4974   -0.3868    0.0000 H   0  0  0  0  0  0  0  0  0  0  0  0
   21.5690   -0.3736    0.0000 H   0  0  0  0  0  0  0  0  0  0  0  0
   22.1776   -3.4260    0.0000 H   0  0  0  0  0  0  0  0  0  0  0  0
   20.3957   -3.5228    0.0000 H   0  0  0  0  0  0  0  0  0  0  0  0
   19.4315   -3.5162    0.0000 H   0  0  0  0  0  0  0  0  0  0  0  0
   17.6512   -3.3951    0.0000 H   0  0  0  0  0  0  0  0  0  0  0  0
   18.3013   -0.3513    0.0000 H   0  0  0  0  0  0  0  0  0  0  0  0
   16.5210   -0.2302    0.0000 H   0  0  0  0  0  0  0  0  0  0  0  0
   15.5568   -0.2237    0.0000 H   0  0  0  0  0  0  0  0  0  0  0  0
   13.7750   -0.3205    0.0000 H   0  0  0  0  0  0  0  0  0  0  0  0
   12.1435    0.0416    0.0000 H   0  0  0  0  0  0  0  0  0  0  0  0
   10.3258   -0.7865    0.0000 H   0  0  0  0  0  0  0  0  0  0  0  0
   12.2889   -4.7681    0.0000 H   0  0  0  0  0  0  0  0  0  0  0  0
   10.5814   -4.2497    0.0000 H   0  0  0  0  0  0  0  0  0  0  0  0
   15.6997   -4.0099    0.0000 H   0  0  0  0  0  0  0  0  0  0  0  0
   13.6981   -5.6663    0.0000 H   0  0  0  0  0  0  0  0  0  0  0  0
    8.9165    0.1118    0.0000 H   0  0  0  0  0  0  0  0  0  0  0  0
    7.1079   -0.0571    0.0000 H   0  0  0  0  0  0  0  0  0  0  0  0
    7.4081   -4.4576    0.0000 H   0  0  0  0  0  0  0  0  0  0  0  0
    6.0439   -3.5585    0.0000 H   0  0  0  0  0  0  0  0  0  0  0  0
   10.3727   -2.9778    0.0000 H   0  0  0  0  0  0  0  0  0  0  0  0
    9.2666   -1.7753    0.0000 H   0  0  0  0  0  0  0  0  0  0  0  0
   11.3760   -6.3247    0.0000 H   0  0  0  0  0  0  0  0  0  0  0  0
   12.1338   -4.0544    0.0000 H   0  0  0  0  0  0  0  0  0  0  0  0
    5.9081    1.2814    0.0000 H   0  0  0  0  0  0  0  0  0  0  0  0
    3.9834    1.8154    0.0000 H   0  0  0  0  0  0  0  0  0  0  0  0
    2.7604   -2.4223    0.0000 H   0  0  0  0  0  0  0  0  0  0  0  0
    1.9751   -0.8200    0.0000 H   0  0  0  0  0  0  0  0  0  0  0  0
    5.5917   -0.6116    0.0000 H   0  0  0  0  0  0  0  0  0  0  0  0
    5.8060   -4.3987    0.0000 H   0  0  0  0  0  0  0  0  0  0  0  0
    4.2115   -4.7553    0.0000 H   0  0  0  0  0  0  0  0  0  0  0  0
    3.2368   -3.2607    0.0000 H   0  0  0  0  0  0  0  0  0  0  0  0
    6.7232   -3.5329    0.0000 H   0  0  0  0  0  0  0  0  0  0  0  0
    7.7154   -2.2348    0.0000 H   0  0  0  0  0  0  0  0  0  0  0  0
    6.0471   -0.6299    0.0000 H   0  0  0  0  0  0  0  0  0  0  0  0
    3.5618    3.2449    0.0000 H   0  0  0  0  0  0  0  0  0  0  0  0
    2.2620    2.1482    0.0000 H   0  0  0  0  0  0  0  0  0  0  0  0
    1.7757    0.8108    0.0000 H   0  0  0  0  0  0  0  0  0  0  0  0
    1.8703    0.2319    0.0000 H   0  0  0  0  0  0  0  0  0  0  0  0
    1.3104   -0.7039    0.0000 H   0  0  0  0  0  0  0  0  0  0  0  0
    1.2372   -0.8549    0.0000 H   0  0  0  0  0  0  0  0  0  0  0  0
    0.5736   -2.1137    0.0000 H   0  0  0  0  0  0  0  0  0  0  0  0
    0.2711   -2.5187    0.0000 H   0  0  0  0  0  0  0  0  0  0  0  0
   -0.5748   -3.4513    0.0000 H   0  0  0  0  0  0  0  0  0  0  0  0
   -0.9484   -3.7917    0.0000 H   0  0  0  0  0  0  0  0  0  0  0  0
   -1.9555   -4.5474    0.0000 H   0  0  0  0  0  0  0  0  0  0  0  0
   -2.3868   -4.8109    0.0000 H   0  0  0  0  0  0  0  0  0  0  0  0
   -3.7018   -5.3548    0.0000 H   0  0  0  0  0  0  0  0  0  0  0  0
   -4.5640   -5.8369    0.0000 H   0  0  0  0  0  0  0  0  0  0  0  0
    3.5494    3.7425    0.0000 H   0  0  0  0  0  0  0  0  0  0  0  0
    3.1751    5.3329    0.0000 H   0  0  0  0  0  0  0  0  0  0  0  0
    1.4049    5.5583    0.0000 H   0  0  0  0  0  0  0  0  0  0  0  0
    1.6852    6.7641    0.0000 H   0  0  0  0  0  0  0  0  0  0  0  0
    1.0198    7.5383    0.0000 H   0  0  0  0  0  0  0  0  0  0  0  0
    0.2409   10.5266    0.0000 H   0  0  0  0  0  0  0  0  0  0  0  0
   -1.1885    9.7352    0.0000 H   0  0  0  0  0  0  0  0  0  0  0  0
    3.0827    8.8228    0.0000 H   0  0  0  0  0  0  0  0  0  0  0  0
    1.8872    7.7091    0.0000 H   0  0  0  0  0  0  0  0  0  0  0  0
    2.3435   12.0527    0.0000 H   0  0  0  0  0  0  0  0  0  0  0  0
    0.8380   11.0947    0.0000 H   0  0  0  0  0  0  0  0  0  0  0  0
    4.6111    9.4986    0.0000 H   0  0  0  0  0  0  0  0  0  0  0  0
    6.4434   13.6086    0.0000 H   0  0  0  0  0  0  0  0  0  0  0  0
    4.0704   14.6665    0.0000 H   0  0  0  0  0  0  0  0  0  0  0  0
    1.9678   13.1404    0.0000 H   0  0  0  0  0  0  0  0  0  0  0  0
   -1.7499   11.0128    0.0000 H   0  0  0  0  0  0  0  0  0  0  0  0
   -2.6788   11.3488    0.0000 H   0  0  0  0  0  0  0  0  0  0  0  0
   -4.6881   13.3635    0.0000 H   0  0  0  0  0  0  0  0  0  0  0  0
   -5.6285   11.8470    0.0000 H   0  0  0  0  0  0  0  0  0  0  0  0
   -3.1897   14.3904    0.0000 H   0  0  0  0  0  0  0  0  0  0  0  0
   -6.6089   12.6029    0.0000 H   0  0  0  0  0  0  0  0  0  0  0  0
   -7.7545   12.3986    0.0000 H   0  0  0  0  0  0  0  0  0  0  0  0
  -10.5341   13.0073    0.0000 H   0  0  0  0  0  0  0  0  0  0  0  0
  -10.5053   11.2231    0.0000 H   0  0  0  0  0  0  0  0  0  0  0  0
   -6.2438   12.8584    0.0000 H   0  0  0  0  0  0  0  0  0  0  0  0
   -5.4180   15.5728    0.0000 H   0  0  0  0  0  0  0  0  0  0  0  0
   -7.4030   17.8221    0.0000 H   0  0  0  0  0  0  0  0  0  0  0  0
  -10.3435   17.2278    0.0000 H   0  0  0  0  0  0  0  0  0  0  0  0
  -11.2990   14.3840    0.0000 H   0  0  0  0  0  0  0  0  0  0  0  0
  -11.7388   11.3289    0.0000 H   0  0  0  0  0  0  0  0  0  0  0  0
  -12.5921   10.5377    0.0000 H   0  0  0  0  0  0  0  0  0  0  0  0
  -15.2594    9.5470    0.0000 H   0  0  0  0  0  0  0  0  0  0  0  0
  -14.2706    8.0616    0.0000 H   0  0  0  0  0  0  0  0  0  0  0  0
  -11.5697   11.7412    0.0000 H   0  0  0  0  0  0  0  0  0  0  0  0
  -12.3425   14.4712    0.0000 H   0  0  0  0  0  0  0  0  0  0  0  0
  -15.2285   15.2903    0.0000 H   0  0  0  0  0  0  0  0  0  0  0  0
  -17.3809   13.2005    0.0000 H   0  0  0  0  0  0  0  0  0  0  0  0
  -16.6473   10.2916    0.0000 H   0  0  0  0  0  0  0  0  0  0  0  0
  -15.4553    7.3241    0.0000 H   0  0  0  0  0  0  0  0  0  0  0  0
  -15.6556    6.3568    0.0000 H   0  0  0  0  0  0  0  0  0  0  0  0
  -17.1582    5.8538    0.0000 H   0  0  0  0  0  0  0  0  0  0  0  0
  -17.3639    4.0813    0.0000 H   0  0  0  0  0  0  0  0  0  0  0  0
  -15.7290    3.3663    0.0000 H   0  0  0  0  0  0  0  0  0  0  0  0
  -16.3377    2.2883    0.0000 H   0  0  0  0  0  0  0  0  0  0  0  0
  -15.9173    1.3580    0.0000 H   0  0  0  0  0  0  0  0  0  0  0  0
  -16.0118   -1.7287    0.0000 H   0  0  0  0  0  0  0  0  0  0  0  0
  -14.4174   -1.3721    0.0000 H   0  0  0  0  0  0  0  0  0  0  0  0
  -16.7977    1.4385    0.0000 H   0  0  0  0  0  0  0  0  0  0  0  0
  -19.4340   -1.1059    0.0000 H   0  0  0  0  0  0  0  0  0  0  0  0
  -18.4592   -2.6006    0.0000 H   0  0  0  0  0  0  0  0  0  0  0  0
  -16.7449   -2.1055    0.0000 H   0  0  0  0  0  0  0  0  0  0  0  0
  -19.6432    0.1301    0.0000 H   0  0  0  0  0  0  0  0  0  0  0  0
  -19.2148    1.8623    0.0000 H   0  0  0  0  0  0  0  0  0  0  0  0
  -17.2865    1.8491    0.0000 H   0  0  0  0  0  0  0  0  0  0  0  0
  -14.3466   -2.6081    0.0000 H   0  0  0  0  0  0  0  0  0  0  0  0
  -10.6931   -5.1962    0.0000 H   0  0  0  0  0  0  0  0  0  0  0  0
  -11.8641   -4.7333    0.0000 H   0  0  0  0  0  0  0  0  0  0  0  0
   -9.2117   -5.7759    0.0000 H   0  0  0  0  0  0  0  0  0  0  0  0
  -10.2691   -5.5091    0.0000 H   0  0  0  0  0  0  0  0  0  0  0  0
   -7.2970   -5.9635    0.0000 H   0  0  0  0  0  0  0  0  0  0  0  0
   -8.7178   -5.8828    0.0000 H   0  0  0  0  0  0  0  0  0  0  0  0
   -6.3242   -6.1349    0.0000 H   0  0  0  0  0  0  0  0  0  0  0  0
  -14.0831   -4.6962    0.0000 H   0  0  0  0  0  0  0  0  0  0  0  0
  -14.9416   -3.3061    0.0000 H   0  0  0  0  0  0  0  0  0  0  0  0
  -14.0210   -1.9564    0.0000 H   0  0  0  0  0  0  0  0  0  0  0  0
  -14.8990   -4.1509    0.0000 H   0  0  0  0  0  0  0  0  0  0  0  0
  -12.3100   -6.3414    0.0000 H   0  0  0  0  0  0  0  0  0  0  0  0
  -12.6859   -9.1353    0.0000 H   0  0  0  0  0  0  0  0  0  0  0  0
  -12.1008   -7.2978    0.0000 H   0  0  0  0  0  0  0  0  0  0  0  0
  -17.2617   -9.1619    0.0000 H   0  0  0  0  0  0  0  0  0  0  0  0
  -14.4659   -9.6358    0.0000 H   0  0  0  0  0  0  0  0  0  0  0  0
  -17.1042   -7.5639    0.0000 H   0  0  0  0  0  0  0  0  0  0  0  0
  -19.7117   -8.6353    0.0000 H   0  0  0  0  0  0  0  0  0  0  0  0
  -18.0824   -7.6038    0.0000 H   0  0  0  0  0  0  0  0  0  0  0  0
  -19.1789  -11.9055    0.0000 H   0  0  0  0  0  0  0  0  0  0  0  0
  -17.9307  -11.4919    0.0000 H   0  0  0  0  0  0  0  0  0  0  0  0
  -22.6728  -11.8698    0.0000 H   0  0  0  0  0  0  0  0  0  0  0  0
  -20.9237  -13.3293    0.0000 H   0  0  0  0  0  0  0  0  0  0  0  0
  -19.7451  -10.4839    0.0000 H   0  0  0  0  0  0  0  0  0  0  0  0
  -17.0724  -12.5114    0.0000 H   0  0  0  0  0  0  0  0  0  0  0  0
  -16.9431  -13.3029    0.0000 H   0  0  0  0  0  0  0  0  0  0  0  0
  -19.2201  -16.5416    0.0000 H   0  0  0  0  0  0  0  0  0  0  0  0
  -20.7470  -15.6182    0.0000 H   0  0  0  0  0  0  0  0  0  0  0  0
  -20.6630  -14.3059    0.0000 H   0  0  0  0  0  0  0  0  0  0  0  0
  -17.1279  -16.7706    0.0000 H   0  0  0  0  0  0  0  0  0  0  0  0
  -18.7560  -16.0402    0.0000 H   0  0  0  0  0  0  0  0  0  0  0  0
  -15.1473  -16.5115    0.0000 H   0  0  0  0  0  0  0  0  0  0  0  0
  -14.5622  -14.6740    0.0000 H   0  0  0  0  0  0  0  0  0  0  0  0
  -16.0891  -13.7506    0.0000 H   0  0  0  0  0  0  0  0  0  0  0  0
  -22.5335  -12.7961    0.0000 H   0  0  0  0  0  0  0  0  0  0  0  0
  1  2  1  0
  2  3  1  0
  3  4  2  0
  4  5  1  0
  5  6  2  0
  6  7  1  0
  7  8  2  0
  7  9  1  0
  9 10  1  0
 10 11  1  0
 11 12  2  0
  9 13  1  0
 13 14  1  0
 14 15  2  0
 15 16  1  0
 16 17  2  0
 17 18  1  0
 16 19  1  0
 14 20  1  0
 20 21  1  0
 21 22  2  0
 22 23  1  0
 23 24  2  0
 24 25  1  0
 25 26  2  0
 25 27  1  0
  1 28  2  0
  1 29  1  0
 29 30  1  0
 30 31  1  0
 31 32  1  0
 32 33  1  0
 33 34  1  0
 34 35  1  0
 35 36  1  0
 36 37  1  0
 37 38  2  0
 37 39  1  0
 39 40  1  0
 40 41  1  0
 41 42  1  0
 42 43  1  0
 42 44  2  0
 40 45  1  0
 45 46  2  0
 45 47  1  0
 47 48  1  0
 48 49  1  0
 49 50  1  0
 50 51  1  0
 51 52  1  0
 51 53  2  0
 48 54  1  0
 54 55  2  0
 54 56  1  0
 56 57  1  0
 57 58  1  0
 58 59  1  0
 59 60  1  0
 59 61  1  0
 57 62  1  0
 62 63  2  0
 62 64  1  0
 65 64  1  6
 65 66  1  0
 66 67  1  0
 67 68  1  0
 68 69  1  0
 69 70  1  0
 70 71  1  0
 71 72  1  0
 65 73  1  0
 65 74  1  0
 74 75  2  0
 74 76  1  0
 76 77  1  0
 77 78  1  0
 78 79  1  0
 79 80  1  0
 80 81  1  0
 81 82  1  0
 82 83  2  3
 82 84  1  0
 77 85  1  0
 85 86  2  0
 85 87  1  0
 87 88  1  0
 88 89  1  0
 89 90  1  0
 88 91  1  0
 91 92  2  0
 91 93  1  0
 93 94  1  0
 94 95  1  0
 95 96  1  0
 96 97  2  0
 97 98  1  0
 98 99  2  0
 99100  1  0
100101  2  0
 94102  1  0
102103  2  0
102104  1  0
104105  1  0
105106  1  0
106107  1  0
107108  2  0
108109  1  0
109110  2  0
110111  1  0
111112  2  0
105113  1  0
113114  2  0
113115  1  0
115116  1  0
116117  1  0
116118  1  0
118119  2  0
118120  1  0
120121  1  0
121122  1  0
122123  1  0
123124  1  0
123125  1  0
121126  1  0
126127  2  0
126128  1  0
128129  1  0
129130  1  0
130131  1  0
131132  1  0
132133  1  0
129134  1  0
129135  1  1
135136  2  0
135137  1  0
137138  1  0
138139  1  0
139140  1  0
140141  2  0
140142  1  0
138143  1  0
143144  2  0
143145  1  0
145146  1  0
146147  1  0
147148  1  0
148149  1  0
149150  1  0
149151  2  0
146152  1  0
152153  2  0
152154  1  0
154155  1  0
155156  1  0
156157  1  0
156158  1  0
158159  1  0
155160  1  0
160161  2  0
160162  1  0
  8  3  1  0
101 96  1  0
112107  1  0
 11  6  1  0
 72133  2  0
 18 13  2  0
 22  9  1  0
 26 21  1  0
  2163  1  0
  4164  1  0
  5165  1  0
  8166  1  0
 15167  1  0
 17168  1  0
 18169  1  0
 19170  1  0
 23171  1  0
 24172  1  0
 26173  1  0
 27174  1  0
 29175  1  0
 30176  1  0
 30177  1  0
 31178  1  0
 31179  1  0
 33180  1  0
 33181  1  0
 34182  1  0
 34183  1  0
 36184  1  0
 36185  1  0
 39186  1  0
 40187  1  1
 41188  1  0
 41189  1  0
 43190  1  0
 43191  1  0
 47192  1  0
 48193  1  1
 49194  1  0
 49195  1  0
 50196  1  0
 50197  1  0
 52198  1  0
 52199  1  0
 56200  1  0
 57201  1  1
 58202  1  0
 58203  1  0
 59204  1  0
 60205  1  0
 60206  1  0
 60207  1  0
 61208  1  0
 61209  1  0
 61210  1  0
 64211  1  0
 66212  1  0
 66213  1  0
 67214  1  0
 67215  1  0
 68216  1  0
 68217  1  0
 69218  1  0
 69219  1  0
 70220  1  0
 70221  1  0
 71222  1  0
 71223  1  0
 72224  1  0
 73225  1  0
 73226  1  0
 73227  1  0
 76228  1  0
 77229  1  6
 78230  1  0
 78231  1  0
 79232  1  0
 79233  1  0
 80234  1  0
 80235  1  0
 81236  1  0
 83237  1  0
 84238  1  0
 84239  1  0
 87240  1  0
 88241  1  6
 89242  1  0
 89243  1  0
 90244  1  0
 93245  1  0
 94246  1  6
 95247  1  0
 95248  1  0
 97249  1  0
 98250  1  0
 99251  1  0
100252  1  0
101253  1  0
104254  1  0
105255  1  6
106256  1  0
106257  1  0
108258  1  0
109259  1  0
110260  1  0
111261  1  0
112262  1  0
115263  1  0
116264  1  6
117265  1  0
117266  1  0
117267  1  0
120268  1  0
121269  1  6
122270  1  0
122271  1  0
123272  1  0
124273  1  0
124274  1  0
124275  1  0
125276  1  0
125277  1  0
125278  1  0
128279  1  0
130280  1  0
130281  1  0
131282  1  0
131283  1  0
132284  1  0
132285  1  0
133286  1  0
134287  1  0
134288  1  0
134289  1  0
137290  1  0
138291  1  1
139292  1  0
139293  1  0
142294  1  0
145295  1  0
146296  1  6
147297  1  0
147298  1  0
148299  1  0
148300  1  0
150301  1  0
150302  1  0
154303  1  0
155304  1  1
156305  1  1
157306  1  0
157307  1  0
157308  1  0
158309  1  0
158310  1  0
159311  1  0
159312  1  0
159313  1  0
162314  1  0
M  END
