
     RDKit          2D

195202  0  0  0  0  0  0  0  0999 V2000
  -12.5849    1.0736    0.0000 C   0  0  0  0  0  0  0  0  0  0  0  0
  -13.8384    0.2498    0.0000 N   0  0  0  0  0  0  0  0  0  0  0  0
  -15.1786    0.9236    0.0000 C   0  0  0  0  0  0  0  0  0  0  0  0
  -15.2652    2.4211    0.0000 C   0  0  0  0  0  0  0  0  0  0  0  0
  -16.6054    3.0948    0.0000 C   0  0  0  0  0  0  0  0  0  0  0  0
  -17.8590    2.2711    0.0000 C   0  0  0  0  0  0  0  0  0  0  0  0
  -17.7723    0.7736    0.0000 C   0  0  0  0  0  0  0  0  0  0  0  0
  -16.4322    0.0998    0.0000 C   0  0  0  0  0  0  0  0  0  0  0  0
  -19.1698    0.2285    0.0000 C   0  0  0  0  0  0  0  0  0  0  0  0
  -20.1201    1.3891    0.0000 O   0  0  0  0  0  0  0  0  0  0  0  0
  -19.3099    2.6515    0.0000 C   0  0  0  0  0  0  0  0  0  0  0  0
  -19.8550    4.0489    0.0000 O   0  0  0  0  0  0  0  0  0  0  0  0
  -20.6166   -0.1676    0.0000 C   0  0  0  0  0  0  0  0  0  0  0  0
  -20.9969   -1.6186    0.0000 C   0  0  0  0  0  0  0  0  0  0  0  0
  -22.4437   -2.0146    0.0000 C   0  0  0  0  0  0  0  0  0  0  0  0
  -23.5101   -0.9597    0.0000 C   0  0  0  0  0  0  0  0  0  0  0  0
  -23.1297    0.4913    0.0000 C   0  0  0  0  0  0  0  0  0  0  0  0
  -21.6829    0.8873    0.0000 C   0  0  0  0  0  0  0  0  0  0  0  0
  -24.9569   -1.3558    0.0000 O   0  0  0  0  0  0  0  0  0  0  0  0
  -19.9306   -2.6735    0.0000 O   0  0  0  0  0  0  0  0  0  0  0  0
  -18.4838   -2.2774    0.0000 C   0  0  0  0  0  0  0  0  0  0  0  0
  -18.1034   -0.8264    0.0000 C   0  0  0  0  0  0  0  0  0  0  0  0
  -16.8342   -1.1075    0.0000 C   0  0  0  0  0  0  0  0  0  0  0  0
  -16.2654   -1.6701    0.0000 C   0  0  0  0  0  0  0  0  0  0  0  0
  -16.4683   -2.4440    0.0000 C   0  0  0  0  0  0  0  0  0  0  0  0
  -17.2399   -2.6552    0.0000 C   0  0  0  0  0  0  0  0  0  0  0  0
  -14.9043   -3.9912    0.0000 O   0  0  0  0  0  0  0  0  0  0  0  0
  -12.6715    2.5711    0.0000 S   0  0  0  0  0  0  0  0  0  0  0  0
  -11.2447    0.3998    0.0000 N   0  0  0  0  0  0  0  0  0  0  0  0
   -9.9911    1.2236    0.0000 C   0  0  0  0  0  0  0  0  0  0  0  0
   -8.6509    0.5498    0.0000 C   0  0  0  0  0  0  0  0  0  0  0  0
   -7.3974    1.3736    0.0000 C   0  0  0  0  0  0  0  0  0  0  0  0
   -7.4840    2.8711    0.0000 O   0  0  0  0  0  0  0  0  0  0  0  0
   -6.0572    0.6998    0.0000 N   0  0  0  0  0  0  0  0  0  0  0  0
   -4.8036    1.5236    0.0000 C   0  0  0  0  0  0  0  0  0  0  0  0
   -3.9074    2.7264    0.0000 C   0  0  0  0  0  0  0  0  0  0  0  0
   -2.4176    2.5516    0.0000 C   0  0  0  0  0  0  0  0  0  0  0  0
   -1.5214    3.7545    0.0000 C   0  0  0  0  0  0  0  0  0  0  0  0
   -0.0316    3.5797    0.0000 C   0  0  0  0  0  0  0  0  0  0  0  0
    0.8646    4.7825    0.0000 N   0  0  0  0  0  0  0  0  0  0  0  0
   -3.4635    0.8498    0.0000 C   0  0  0  0  0  0  0  0  0  0  0  0
   -3.5600   -0.6471    0.0000 O   0  0  0  0  0  0  0  0  0  0  0  0
   -2.2099    1.6736    0.0000 N   0  0  0  0  0  0  0  0  0  0  0  0
   -0.8697    0.9998    0.0000 C   0  0  0  0  0  0  0  0  0  0  0  0
    0.1592   -0.0916    0.0000 C   0  0  0  0  0  0  0  0  0  0  0  0
   -0.2716   -1.5285    0.0000 C   0  0  0  0  0  0  0  0  0  0  0  0
   -1.7313   -1.8738    0.0000 C   0  0  0  0  0  0  0  0  0  0  0  0
   -2.1621   -3.3106    0.0000 C   0  0  0  0  0  0  0  0  0  0  0  0
   -1.1332   -4.4021    0.0000 C   0  0  0  0  0  0  0  0  0  0  0  0
    0.3265   -4.0567    0.0000 C   0  0  0  0  0  0  0  0  0  0  0  0
    0.7573   -2.6199    0.0000 C   0  0  0  0  0  0  0  0  0  0  0  0
    0.3838    1.8236    0.0000 C   0  0  0  0  0  0  0  0  0  0  0  0
    0.4543    2.9148    0.0000 O   0  0  0  0  0  0  0  0  0  0  0  0
    1.7240    1.1498    0.0000 N   0  0  0  0  0  0  0  0  0  0  0  0
    2.9776    1.9736    0.0000 C   0  0  0  0  0  0  0  0  0  0  0  0
    3.1894    3.4586    0.0000 C   0  0  0  0  0  0  0  0  0  0  0  0
    3.8296    4.8151    0.0000 C   0  0  0  0  0  0  0  0  0  0  0  0
    4.8411    5.9227    0.0000 C   0  0  0  0  0  0  0  0  0  0  0  0
    6.1342    6.6829    0.0000 C   0  0  0  0  0  0  0  0  0  0  0  0
    1.7112    2.7774    0.0000 C   0  0  0  0  0  0  0  0  0  0  0  0
    3.2129    0.4922    0.0000 C   0  0  0  0  0  0  0  0  0  0  0  0
    1.9353   -0.2938    0.0000 O   0  0  0  0  0  0  0  0  0  0  0  0
    3.8743   -0.8541    0.0000 N   0  0  0  0  0  0  0  0  0  0  0  0
    4.9033   -1.9456    0.0000 C   0  0  0  0  0  0  0  0  0  0  0  0
    4.7657   -3.4393    0.0000 C   0  0  0  0  0  0  0  0  0  0  0  0
    3.4034   -4.0670    0.0000 C   0  0  0  0  0  0  0  0  0  0  0  0
    3.2658   -5.5607    0.0000 C   0  0  0  0  0  0  0  0  0  0  0  0
    1.9035   -6.1884    0.0000 N   0  0  0  0  0  0  0  0  0  0  0  0
    1.7659   -7.6821    0.0000 C   0  0  0  0  0  0  0  0  0  0  0  0
    0.4036   -8.3098    0.0000 N   0  0  0  0  0  0  0  0  0  0  0  0
    2.9907   -8.5480    0.0000 N   0  0  0  0  0  0  0  0  0  0  0  0
    6.2082   -2.6853    0.0000 C   0  0  0  0  0  0  0  0  0  0  0  0
    5.6712   -4.0859    0.0000 O   0  0  0  0  0  0  0  0  0  0  0  0
    7.6732   -3.0075    0.0000 N   0  0  0  0  0  0  0  0  0  0  0  0
    9.1680   -2.8836    0.0000 C   0  0  0  0  0  0  0  0  0  0  0  0
   10.2501   -3.9225    0.0000 C   0  0  0  0  0  0  0  0  0  0  0  0
    9.8914   -5.3790    0.0000 C   0  0  0  0  0  0  0  0  0  0  0  0
   10.9735   -6.4178    0.0000 C   0  0  0  0  0  0  0  0  0  0  0  0
    9.0563   -6.6249    0.0000 C   0  0  0  0  0  0  0  0  0  0  0  0
   10.5600   -2.3246    0.0000 C   0  0  0  0  0  0  0  0  0  0  0  0
   11.3202   -3.6177    0.0000 O   0  0  0  0  0  0  0  0  0  0  0  0
   11.7253   -1.3801    0.0000 N   0  0  0  0  0  0  0  0  0  0  0  0
   12.5605   -0.1341    0.0000 C   0  0  0  0  0  0  0  0  0  0  0  0
   14.0473    0.0641    0.0000 C   0  0  0  0  0  0  0  0  0  0  0  0
   14.9624   -1.1244    0.0000 C   0  0  0  0  0  0  0  0  0  0  0  0
   14.3907   -2.5111    0.0000 C   0  0  0  0  0  0  0  0  0  0  0  0
   15.3058   -3.6996    0.0000 C   0  0  0  0  0  0  0  0  0  0  0  0
   16.7927   -3.5014    0.0000 C   0  0  0  0  0  0  0  0  0  0  0  0
   17.3644   -2.1146    0.0000 C   0  0  0  0  0  0  0  0  0  0  0  0
   16.4493   -0.9261    0.0000 C   0  0  0  0  0  0  0  0  0  0  0  0
   12.9913    1.3027    0.0000 C   0  0  0  0  0  0  0  0  0  0  0  0
   14.4762    1.0908    0.0000 O   0  0  0  0  0  0  0  0  0  0  0  0
   12.9794    2.8026    0.0000 N   0  0  0  0  0  0  0  0  0  0  0  0
   12.5260    4.2325    0.0000 C   0  0  0  0  0  0  0  0  0  0  0  0
   11.6712    5.4651    0.0000 C   0  0  0  0  0  0  0  0  0  0  0  0
   10.4911    6.3910    0.0000 C   0  0  0  0  0  0  0  0  0  0  0  0
    9.0905    6.9280    0.0000 C   0  0  0  0  0  0  0  0  0  0  0  0
    7.5939    7.0283    0.0000 C   0  0  0  0  0  0  0  0  0  0  0  0
   14.0157    4.0577    0.0000 C   0  0  0  0  0  0  0  0  0  0  0  0
   13.2980    5.5185    0.0000 C   0  0  0  0  0  0  0  0  0  0  0  0
   14.7897    5.6760    0.0000 O   0  0  0  0  0  0  0  0  0  0  0  0
   12.9092    6.9673    0.0000 O   0  0  0  0  0  0  0  0  0  0  0  0
  -13.5699   -1.2259    0.0000 H   0  0  0  0  0  0  0  0  0  0  0  0
  -14.0116    3.2448    0.0000 H   0  0  0  0  0  0  0  0  0  0  0  0
  -16.6920    4.5923    0.0000 H   0  0  0  0  0  0  0  0  0  0  0  0
  -16.1949   -0.6612    0.0000 H   0  0  0  0  0  0  0  0  0  0  0  0
  -22.8241   -3.4656    0.0000 H   0  0  0  0  0  0  0  0  0  0  0  0
  -24.1961    1.5462    0.0000 H   0  0  0  0  0  0  0  0  0  0  0  0
  -21.3026    2.3383    0.0000 H   0  0  0  0  0  0  0  0  0  0  0  0
  -26.0232   -0.3009    0.0000 H   0  0  0  0  0  0  0  0  0  0  0  0
  -16.2763    1.0206    0.0000 H   0  0  0  0  0  0  0  0  0  0  0  0
  -14.1060   -1.2686    0.0000 H   0  0  0  0  0  0  0  0  0  0  0  0
  -17.7978   -4.7833    0.0000 H   0  0  0  0  0  0  0  0  0  0  0  0
  -15.2847   -5.4421    0.0000 H   0  0  0  0  0  0  0  0  0  0  0  0
  -11.1581   -1.0977    0.0000 H   0  0  0  0  0  0  0  0  0  0  0  0
   -9.0949    2.4264    0.0000 H   0  0  0  0  0  0  0  0  0  0  0  0
  -11.0200    2.3151    0.0000 H   0  0  0  0  0  0  0  0  0  0  0  0
   -7.6220   -0.5417    0.0000 H   0  0  0  0  0  0  0  0  0  0  0  0
   -9.5472   -0.6530    0.0000 H   0  0  0  0  0  0  0  0  0  0  0  0
   -5.9706   -0.7977    0.0000 H   0  0  0  0  0  0  0  0  0  0  0  0
   -5.8326    2.6151    0.0000 H   0  0  0  0  0  0  0  0  0  0  0  0
   -3.6550    4.2050    0.0000 H   0  0  0  0  0  0  0  0  0  0  0  0
   -5.2476    3.4001    0.0000 H   0  0  0  0  0  0  0  0  0  0  0  0
   -1.1696    1.7196    0.0000 H   0  0  0  0  0  0  0  0  0  0  0  0
   -2.1233    1.0808    0.0000 H   0  0  0  0  0  0  0  0  0  0  0  0
   -1.0906    5.1913    0.0000 H   0  0  0  0  0  0  0  0  0  0  0  0
   -2.7694    4.5866    0.0000 H   0  0  0  0  0  0  0  0  0  0  0  0
    1.3086    2.9060    0.0000 H   0  0  0  0  0  0  0  0  0  0  0  0
   -0.2840    2.1011    0.0000 H   0  0  0  0  0  0  0  0  0  0  0  0
    2.3181    5.1534    0.0000 H   0  0  0  0  0  0  0  0  0  0  0  0
    0.2711    6.1601    0.0000 H   0  0  0  0  0  0  0  0  0  0  0  0
   -1.9316    3.1475    0.0000 H   0  0  0  0  0  0  0  0  0  0  0  0
   -1.7660   -0.2030    0.0000 H   0  0  0  0  0  0  0  0  0  0  0  0
    1.2965   -1.0697    0.0000 H   0  0  0  0  0  0  0  0  0  0  0  0
    1.1954    0.9930    0.0000 H   0  0  0  0  0  0  0  0  0  0  0  0
   -2.8856   -0.9159    0.0000 H   0  0  0  0  0  0  0  0  0  0  0  0
   -3.6218   -3.6559    0.0000 H   0  0  0  0  0  0  0  0  0  0  0  0
   -1.5640   -5.8389    0.0000 H   0  0  0  0  0  0  0  0  0  0  0  0
    1.2147   -5.2655    0.0000 H   0  0  0  0  0  0  0  0  0  0  0  0
    2.2170   -2.2746    0.0000 H   0  0  0  0  0  0  0  0  0  0  0  0
    1.8106   -0.3477    0.0000 H   0  0  0  0  0  0  0  0  0  0  0  0
    1.7487    3.0409    0.0000 H   0  0  0  0  0  0  0  0  0  0  0  0
    2.3626    4.7101    0.0000 H   0  0  0  0  0  0  0  0  0  0  0  0
    2.4386    5.3765    0.0000 H   0  0  0  0  0  0  0  0  0  0  0  0
    3.0725    6.1100    0.0000 H   0  0  0  0  0  0  0  0  0  0  0  0
    3.4830    6.5595    0.0000 H   0  0  0  0  0  0  0  0  0  0  0  0
    4.6800    7.4140    0.0000 H   0  0  0  0  0  0  0  0  0  0  0  0
    5.5751    8.0749    0.0000 H   0  0  0  0  0  0  0  0  0  0  0  0
    1.5909    4.2726    0.0000 H   0  0  0  0  0  0  0  0  0  0  0  0
    0.2178    2.9187    0.0000 H   0  0  0  0  0  0  0  0  0  0  0  0
    0.6804    1.6877    0.0000 H   0  0  0  0  0  0  0  0  0  0  0  0
    2.7551   -1.8527    0.0000 H   0  0  0  0  0  0  0  0  0  0  0  0
    3.4362   -2.2580    0.0000 H   0  0  0  0  0  0  0  0  0  0  0  0
    5.3213   -4.8326    0.0000 H   0  0  0  0  0  0  0  0  0  0  0  0
    6.2461   -3.6808    0.0000 H   0  0  0  0  0  0  0  0  0  0  0  0
    1.9085   -4.1909    0.0000 H   0  0  0  0  0  0  0  0  0  0  0  0
    3.0218   -2.6163    0.0000 H   0  0  0  0  0  0  0  0  0  0  0  0
    3.6474   -7.0113    0.0000 H   0  0  0  0  0  0  0  0  0  0  0  0
    4.7646   -5.6199    0.0000 H   0  0  0  0  0  0  0  0  0  0  0  0
    0.5823   -5.4782    0.0000 H   0  0  0  0  0  0  0  0  0  0  0  0
    0.2660   -9.8035    0.0000 H   0  0  0  0  0  0  0  0  0  0  0  0
    2.8531  -10.0417    0.0000 H   0  0  0  0  0  0  0  0  0  0  0  0
    4.3530   -7.9203    0.0000 H   0  0  0  0  0  0  0  0  0  0  0  0
    7.5729   -4.5042    0.0000 H   0  0  0  0  0  0  0  0  0  0  0  0
    8.4976   -4.2254    0.0000 H   0  0  0  0  0  0  0  0  0  0  0  0
   11.6858   -4.3568    0.0000 H   0  0  0  0  0  0  0  0  0  0  0  0
   11.3619   -2.9156    0.0000 H   0  0  0  0  0  0  0  0  0  0  0  0
    8.4557   -4.9446    0.0000 H   0  0  0  0  0  0  0  0  0  0  0  0
   10.7951   -7.9071    0.0000 H   0  0  0  0  0  0  0  0  0  0  0  0
   12.3456   -7.0239    0.0000 H   0  0  0  0  0  0  0  0  0  0  0  0
   11.9543   -5.2829    0.0000 H   0  0  0  0  0  0  0  0  0  0  0  0
    9.5487   -8.0418    0.0000 H   0  0  0  0  0  0  0  0  0  0  0  0
    7.8453   -7.5102    0.0000 H   0  0  0  0  0  0  0  0  0  0  0  0
    7.9742   -5.5861    0.0000 H   0  0  0  0  0  0  0  0  0  0  0  0
   12.7013   -2.5191    0.0000 H   0  0  0  0  0  0  0  0  0  0  0  0
   13.3527   -1.4078    0.0000 H   0  0  0  0  0  0  0  0  0  0  0  0
   15.3767    0.7590    0.0000 H   0  0  0  0  0  0  0  0  0  0  0  0
   13.9533    1.5612    0.0000 H   0  0  0  0  0  0  0  0  0  0  0  0
   12.9391   -2.8892    0.0000 H   0  0  0  0  0  0  0  0  0  0  0  0
   14.7341   -5.0864    0.0000 H   0  0  0  0  0  0  0  0  0  0  0  0
   17.7078   -4.6899    0.0000 H   0  0  0  0  0  0  0  0  0  0  0  0
   18.8512   -1.9163    0.0000 H   0  0  0  0  0  0  0  0  0  0  0  0
   17.0210    0.4607    0.0000 H   0  0  0  0  0  0  0  0  0  0  0  0
   14.4608    3.0379    0.0000 H   0  0  0  0  0  0  0  0  0  0  0  0
   12.0299    6.9216    0.0000 H   0  0  0  0  0  0  0  0  0  0  0  0
   13.0366    6.0861    0.0000 H   0  0  0  0  0  0  0  0  0  0  0  0
   10.5877    7.8879    0.0000 H   0  0  0  0  0  0  0  0  0  0  0  0
   11.6128    7.3869    0.0000 H   0  0  0  0  0  0  0  0  0  0  0  0
    8.5664    8.3334    0.0000 H   0  0  0  0  0  0  0  0  0  0  0  0
   10.0194    8.1058    0.0000 H   0  0  0  0  0  0  0  0  0  0  0  0
    7.4700    8.5231    0.0000 H   0  0  0  0  0  0  0  0  0  0  0  0
   15.0519    5.1423    0.0000 H   0  0  0  0  0  0  0  0  0  0  0  0
   15.3559    3.3840    0.0000 H   0  0  0  0  0  0  0  0  0  0  0  0
   13.9454    2.5594    0.0000 H   0  0  0  0  0  0  0  0  0  0  0  0
   13.3422    8.1162    0.0000 H   0  0  0  0  0  0  0  0  0  0  0  0
  1  2  1  0
  2  3  1  0
  3  4  2  0
  4  5  1  0
  5  6  2  0
  6  7  1  0
  7  8  2  0
  7  9  1  0
  9 10  1  0
 10 11  1  0
 11 12  2  0
  9 13  1  0
 13 14  1  0
 14 15  2  0
 15 16  1  0
 16 17  2  0
 17 18  1  0
 16 19  1  0
 14 20  1  0
 20 21  1  0
 21 22  2  0
 22 23  1  0
 23 24  2  0
 24 25  1  0
 25 26  2  0
 25 27  1  0
  1 28  2  0
  1 29  1  0
 29 30  1  0
 30 31  1  0
 31 32  1  0
 32 33  2  0
 32 34  1  0
 34 35  1  0
 35 36  1  0
 36 37  1  0
 37 38  1  0
 38 39  1  0
 39 40  1  0
 35 41  1  0
 41 42  2  0
 41 43  1  0
 43 44  1  0
 44 45  1  0
 45 46  1  0
 46 47  2  0
 47 48  1  0
 48 49  2  0
 49 50  1  0
 50 51  2  0
 44 52  1  0
 52 53  2  0
 52 54  1  0
 55 54  1  1
 55 56  1  0
 56 57  1  0
 57 58  1  0
 58 59  1  0
 55 60  1  0
 55 61  1  0
 61 62  2  0
 61 63  1  0
 63 64  1  0
 64 65  1  0
 65 66  1  0
 66 67  1  0
 67 68  1  0
 68 69  1  0
 69 70  2  3
 69 71  1  0
 64 72  1  0
 72 73  2  0
 72 74  1  0
 74 75  1  0
 75 76  1  0
 76 77  1  0
 77 78  1  0
 77 79  1  0
 75 80  1  0
 80 81  2  0
 80 82  1  0
 82 83  1  0
 83 84  1  0
 84 85  1  0
 85 86  2  0
 86 87  1  0
 87 88  2  0
 88 89  1  0
 89 90  2  0
 83 91  1  0
 91 92  2  0
 91 93  1  0
 93 94  1  0
 94 95  1  0
 95 96  1  0
 96 97  1  0
 97 98  1  0
 94 99  1  0
 94100  1  1
100101  2  0
100102  1  0
  8  3  1  0
 51 46  1  0
 90 85  1  0
 11  6  1  0
 59 98  2  0
 18 13  2  0
 22  9  1  0
 26 21  1  0
  2103  1  0
  4104  1  0
  5105  1  0
  8106  1  0
 15107  1  0
 17108  1  0
 18109  1  0
 19110  1  0
 23111  1  0
 24112  1  0
 26113  1  0
 27114  1  0
 29115  1  0
 30116  1  0
 30117  1  0
 31118  1  0
 31119  1  0
 34120  1  0
 35121  1  1
 36122  1  0
 36123  1  0
 37124  1  0
 37125  1  0
 38126  1  0
 38127  1  0
 39128  1  0
 39129  1  0
 40130  1  0
 40131  1  0
 43132  1  0
 44133  1  6
 45134  1  0
 45135  1  0
 47136  1  0
 48137  1  0
 49138  1  0
 50139  1  0
 51140  1  0
 54141  1  0
 56142  1  0
 56143  1  0
 57144  1  0
 57145  1  0
 58146  1  0
 58147  1  0
 59148  1  0
 60149  1  0
 60150  1  0
 60151  1  0
 63152  1  0
 64153  1  6
 65154  1  0
 65155  1  0
 66156  1  0
 66157  1  0
 67158  1  0
 67159  1  0
 68160  1  0
 70161  1  0
 71162  1  0
 71163  1  0
 74164  1  0
 75165  1  6
 76166  1  0
 76167  1  0
 77168  1  0
 78169  1  0
 78170  1  0
 78171  1  0
 79172  1  0
 79173  1  0
 79174  1  0
 82175  1  0
 83176  1  6
 84177  1  0
 84178  1  0
 86179  1  0
 87180  1  0
 88181  1  0
 89182  1  0
 90183  1  0
 93184  1  0
 95185  1  0
 95186  1  0
 96187  1  0
 96188  1  0
 97189  1  0
 97190  1  0
 98191  1  0
 99192  1  0
 99193  1  0
 99194  1  0
102195  1  0
M  END
