
     RDKit          2D

306314  0  0  0  0  0  0  0  0999 V2000
   24.9463   -0.7379    0.0000 C   0  0  0  0  0  0  0  0  0  0  0  0
   26.2556   -0.0060    0.0000 N   0  0  0  0  0  0  0  0  0  0  0  0
   27.5441   -0.7740    0.0000 C   0  0  0  0  0  0  0  0  0  0  0  0
   27.5233   -2.2739    0.0000 C   0  0  0  0  0  0  0  0  0  0  0  0
   28.8118   -3.0418    0.0000 C   0  0  0  0  0  0  0  0  0  0  0  0
   30.1211   -2.3100    0.0000 C   0  0  0  0  0  0  0  0  0  0  0  0
   30.1420   -0.8101    0.0000 C   0  0  0  0  0  0  0  0  0  0  0  0
   28.8535   -0.0421    0.0000 C   0  0  0  0  0  0  0  0  0  0  0  0
   31.5748   -0.3664    0.0000 C   0  0  0  0  0  0  0  0  0  0  0  0
   32.4396   -1.5921    0.0000 O   0  0  0  0  0  0  0  0  0  0  0  0
   31.5411   -2.7933    0.0000 C   0  0  0  0  0  0  0  0  0  0  0  0
   31.9848   -4.2261    0.0000 O   0  0  0  0  0  0  0  0  0  0  0  0
   33.0463   -0.0750    0.0000 C   0  0  0  0  0  0  0  0  0  0  0  0
   33.5296    1.3450    0.0000 C   0  0  0  0  0  0  0  0  0  0  0  0
   35.0010    1.6365    0.0000 C   0  0  0  0  0  0  0  0  0  0  0  0
   35.9891    0.5079    0.0000 C   0  0  0  0  0  0  0  0  0  0  0  0
   35.5058   -0.9121    0.0000 C   0  0  0  0  0  0  0  0  0  0  0  0
   34.0344   -1.2035    0.0000 C   0  0  0  0  0  0  0  0  0  0  0  0
   37.4605    0.7994    0.0000 O   0  0  0  0  0  0  0  0  0  0  0  0
   32.5414    2.4736    0.0000 O   0  0  0  0  0  0  0  0  0  0  0  0
   31.0700    2.1821    0.0000 C   0  0  0  0  0  0  0  0  0  0  0  0
   30.5867    0.7621    0.0000 C   0  0  0  0  0  0  0  0  0  0  0  0
   29.3409    1.1333    0.0000 C   0  0  0  0  0  0  0  0  0  0  0  0
   28.8139    1.7352    0.0000 C   0  0  0  0  0  0  0  0  0  0  0  0
   29.0716    2.4926    0.0000 C   0  0  0  0  0  0  0  0  0  0  0  0
   29.8564    2.6480    0.0000 C   0  0  0  0  0  0  0  0  0  0  0  0
   27.6224    4.1478    0.0000 O   0  0  0  0  0  0  0  0  0  0  0  0
   24.9255   -2.2378    0.0000 S   0  0  0  0  0  0  0  0  0  0  0  0
   23.6578    0.0301    0.0000 N   0  0  0  0  0  0  0  0  0  0  0  0
   22.3485   -0.7018    0.0000 C   0  0  0  0  0  0  0  0  0  0  0  0
   21.0600    0.0662    0.0000 C   0  0  0  0  0  0  0  0  0  0  0  0
   19.7507   -0.6657    0.0000 C   0  0  0  0  0  0  0  0  0  0  0  0
   19.7298   -2.1656    0.0000 O   0  0  0  0  0  0  0  0  0  0  0  0
   18.4622    0.1023    0.0000 N   0  0  0  0  0  0  0  0  0  0  0  0
   17.1528   -0.6296    0.0000 C   0  0  0  0  0  0  0  0  0  0  0  0
   16.1728   -1.7652    0.0000 C   0  0  0  0  0  0  0  0  0  0  0  0
   14.6993   -1.4842    0.0000 C   0  0  0  0  0  0  0  0  0  0  0  0
   13.7193   -2.6198    0.0000 C   0  0  0  0  0  0  0  0  0  0  0  0
   12.2458   -2.3388    0.0000 C   0  0  0  0  0  0  0  0  0  0  0  0
   11.2658   -3.4744    0.0000 N   0  0  0  0  0  0  0  0  0  0  0  0
   15.8643    0.1383    0.0000 C   0  0  0  0  0  0  0  0  0  0  0  0
   15.8852    1.6382    0.0000 O   0  0  0  0  0  0  0  0  0  0  0  0
   14.5550   -0.5935    0.0000 N   0  0  0  0  0  0  0  0  0  0  0  0
   13.2665    0.1744    0.0000 C   0  0  0  0  0  0  0  0  0  0  0  0
   12.3184    1.3368    0.0000 C   0  0  0  0  0  0  0  0  0  0  0  0
   12.8509    2.7391    0.0000 C   0  0  0  0  0  0  0  0  0  0  0  0
   11.9028    3.9014    0.0000 C   0  0  0  0  0  0  0  0  0  0  0  0
   12.4354    5.3037    0.0000 N   0  0  0  0  0  0  0  0  0  0  0  0
   10.4221    3.6615    0.0000 O   0  0  0  0  0  0  0  0  0  0  0  0
   11.9572   -0.5574    0.0000 C   0  0  0  0  0  0  0  0  0  0  0  0
   11.6468   -1.7321    0.0000 O   0  0  0  0  0  0  0  0  0  0  0  0
   10.6687    0.2105    0.0000 N   0  0  0  0  0  0  0  0  0  0  0  0
    9.3593   -0.5213    0.0000 C   0  0  0  0  0  0  0  0  0  0  0  0
    8.3793   -1.6569    0.0000 C   0  0  0  0  0  0  0  0  0  0  0  0
    6.9058   -1.3759    0.0000 C   0  0  0  0  0  0  0  0  0  0  0  0
    5.9258   -2.5115    0.0000 C   0  0  0  0  0  0  0  0  0  0  0  0
    4.4523   -2.2305    0.0000 C   0  0  0  0  0  0  0  0  0  0  0  0
    3.4723   -3.3661    0.0000 N   0  0  0  0  0  0  0  0  0  0  0  0
    8.0709    0.2466    0.0000 C   0  0  0  0  0  0  0  0  0  0  0  0
    8.0917    1.7465    0.0000 O   0  0  0  0  0  0  0  0  0  0  0  0
    6.7615   -0.4853    0.0000 N   0  0  0  0  0  0  0  0  0  0  0  0
    5.4730    0.2827    0.0000 C   0  0  0  0  0  0  0  0  0  0  0  0
    4.5249    1.4451    0.0000 C   0  0  0  0  0  0  0  0  0  0  0  0
    5.0575    2.8473    0.0000 C   0  0  0  0  0  0  0  0  0  0  0  0
    4.1093    4.0097    0.0000 C   0  0  0  0  0  0  0  0  0  0  0  0
    4.6419    5.4120    0.0000 N   0  0  0  0  0  0  0  0  0  0  0  0
    3.6938    6.5743    0.0000 C   0  0  0  0  0  0  0  0  0  0  0  0
    4.2263    7.9766    0.0000 N   0  0  0  0  0  0  0  0  0  0  0  0
    2.2131    6.3344    0.0000 N   0  0  0  0  0  0  0  0  0  0  0  0
    4.1637   -0.4492    0.0000 C   0  0  0  0  0  0  0  0  0  0  0  0
    3.8533   -1.6239    0.0000 O   0  0  0  0  0  0  0  0  0  0  0  0
    2.8752    0.3188    0.0000 N   0  0  0  0  0  0  0  0  0  0  0  0
    1.5659   -0.4131    0.0000 C   0  0  0  0  0  0  0  0  0  0  0  0
    0.5858   -1.5486    0.0000 C   0  0  0  0  0  0  0  0  0  0  0  0
   -0.8876   -1.2677    0.0000 C   0  0  0  0  0  0  0  0  0  0  0  0
   -1.8677   -2.4032    0.0000 C   0  0  0  0  0  0  0  0  0  0  0  0
   -3.3411   -2.1222    0.0000 C   0  0  0  0  0  0  0  0  0  0  0  0
   -4.3212   -3.2578    0.0000 N   0  0  0  0  0  0  0  0  0  0  0  0
    0.2774    0.3549    0.0000 C   0  0  0  0  0  0  0  0  0  0  0  0
    0.4605    1.6924    0.0000 O   0  0  0  0  0  0  0  0  0  0  0  0
   -1.0320   -0.3770    0.0000 N   0  0  0  0  0  0  0  0  0  0  0  0
   -2.3204    0.3910    0.0000 C   0  0  0  0  0  0  0  0  0  0  0  0
   -3.2686    1.5534    0.0000 C   0  0  0  0  0  0  0  0  0  0  0  0
   -2.7360    2.9556    0.0000 C   0  0  0  0  0  0  0  0  0  0  0  0
   -1.2553    3.1956    0.0000 C   0  0  0  0  0  0  0  0  0  0  0  0
   -0.2809    2.2613    0.0000 F   0  0  0  0  0  0  0  0  0  0  0  0
   -0.7228    4.5978    0.0000 C   0  0  0  0  0  0  0  0  0  0  0  0
    0.7579    4.8378    0.0000 F   0  0  0  0  0  0  0  0  0  0  0  0
   -1.6709    5.7602    0.0000 C   0  0  0  0  0  0  0  0  0  0  0  0
   -1.1383    7.1625    0.0000 F   0  0  0  0  0  0  0  0  0  0  0  0
   -3.1516    5.5203    0.0000 C   0  0  0  0  0  0  0  0  0  0  0  0
   -4.0997    6.6826    0.0000 F   0  0  0  0  0  0  0  0  0  0  0  0
   -3.6841    4.1180    0.0000 C   0  0  0  0  0  0  0  0  0  0  0  0
   -5.1648    3.8781    0.0000 F   0  0  0  0  0  0  0  0  0  0  0  0
   -3.6298   -0.3409    0.0000 C   0  0  0  0  0  0  0  0  0  0  0  0
   -3.9401   -1.5156    0.0000 O   0  0  0  0  0  0  0  0  0  0  0  0
   -4.9183    0.4271    0.0000 N   0  0  0  0  0  0  0  0  0  0  0  0
   -6.2276   -0.3048    0.0000 C   0  0  0  0  0  0  0  0  0  0  0  0
   -7.2077   -1.4403    0.0000 C   0  0  0  0  0  0  0  0  0  0  0  0
   -8.6405   -1.8842    0.0000 O   0  0  0  0  0  0  0  0  0  0  0  0
   -7.5161    0.4632    0.0000 C   0  0  0  0  0  0  0  0  0  0  0  0
   -7.3126    1.9493    0.0000 O   0  0  0  0  0  0  0  0  0  0  0  0
   -8.8254   -0.2687    0.0000 N   0  0  0  0  0  0  0  0  0  0  0  0
  -10.1139    0.4993    0.0000 C   0  0  0  0  0  0  0  0  0  0  0  0
  -10.3907    1.9735    0.0000 C   0  0  0  0  0  0  0  0  0  0  0  0
  -11.0897    3.3007    0.0000 C   0  0  0  0  0  0  0  0  0  0  0  0
  -12.1488    4.3629    0.0000 C   0  0  0  0  0  0  0  0  0  0  0  0
  -13.4740    5.0657    0.0000 C   0  0  0  0  0  0  0  0  0  0  0  0
   -8.7885    1.2016    0.0000 C   0  0  0  0  0  0  0  0  0  0  0  0
  -10.2840   -0.9910    0.0000 C   0  0  0  0  0  0  0  0  0  0  0  0
   -9.5100   -1.4216    0.0000 O   0  0  0  0  0  0  0  0  0  0  0  0
  -10.8858   -2.3650    0.0000 N   0  0  0  0  0  0  0  0  0  0  0  0
  -11.8658   -3.5006    0.0000 C   0  0  0  0  0  0  0  0  0  0  0  0
  -11.6629   -4.9868    0.0000 C   0  0  0  0  0  0  0  0  0  0  0  0
  -10.2743   -5.5542    0.0000 C   0  0  0  0  0  0  0  0  0  0  0  0
  -10.0714   -7.0404    0.0000 C   0  0  0  0  0  0  0  0  0  0  0  0
   -8.6829   -7.6077    0.0000 C   0  0  0  0  0  0  0  0  0  0  0  0
   -7.4972   -6.6889    0.0000 C   0  0  0  0  0  0  0  0  0  0  0  0
   -7.7002   -5.2027    0.0000 C   0  0  0  0  0  0  0  0  0  0  0  0
   -9.0887   -4.6353    0.0000 C   0  0  0  0  0  0  0  0  0  0  0  0
  -13.1371   -4.2968    0.0000 C   0  0  0  0  0  0  0  0  0  0  0  0
  -12.5392   -5.6725    0.0000 O   0  0  0  0  0  0  0  0  0  0  0  0
  -14.5865   -4.6830    0.0000 N   0  0  0  0  0  0  0  0  0  0  0  0
  -16.0854   -4.6248    0.0000 C   0  0  0  0  0  0  0  0  0  0  0  0
  -17.1208   -5.7101    0.0000 C   0  0  0  0  0  0  0  0  0  0  0  0
  -16.6986   -7.1494    0.0000 C   0  0  0  0  0  0  0  0  0  0  0  0
  -17.7341   -8.2347    0.0000 C   0  0  0  0  0  0  0  0  0  0  0  0
  -17.3119   -9.6741    0.0000 C   0  0  0  0  0  0  0  0  0  0  0  0
  -15.8543  -10.0281    0.0000 C   0  0  0  0  0  0  0  0  0  0  0  0
  -14.8188   -8.9428    0.0000 C   0  0  0  0  0  0  0  0  0  0  0  0
  -15.2410   -7.5035    0.0000 C   0  0  0  0  0  0  0  0  0  0  0  0
  -17.5005   -4.1273    0.0000 C   0  0  0  0  0  0  0  0  0  0  0  0
  -18.2033   -5.4525    0.0000 O   0  0  0  0  0  0  0  0  0  0  0  0
  -18.7061   -3.2349    0.0000 N   0  0  0  0  0  0  0  0  0  0  0  0
  -19.5951   -2.0267    0.0000 C   0  0  0  0  0  0  0  0  0  0  0  0
  -21.0892   -1.8938    0.0000 C   0  0  0  0  0  0  0  0  0  0  0  0
  -21.9514   -3.1213    0.0000 C   0  0  0  0  0  0  0  0  0  0  0  0
  -23.4455   -2.9885    0.0000 C   0  0  0  0  0  0  0  0  0  0  0  0
  -24.3076   -4.2160    0.0000 C   0  0  0  0  0  0  0  0  0  0  0  0
  -25.8017   -4.0831    0.0000 N   0  0  0  0  0  0  0  0  0  0  0  0
  -20.0885   -0.6102    0.0000 C   0  0  0  0  0  0  0  0  0  0  0  0
  -21.5628   -0.8869    0.0000 O   0  0  0  0  0  0  0  0  0  0  0  0
  -20.1425    0.8889    0.0000 N   0  0  0  0  0  0  0  0  0  0  0  0
  -19.7522    2.3372    0.0000 C   0  0  0  0  0  0  0  0  0  0  0  0
  -18.9523    3.6061    0.0000 C   0  0  0  0  0  0  0  0  0  0  0  0
  -17.8140    4.5829    0.0000 C   0  0  0  0  0  0  0  0  0  0  0  0
  -16.4383    5.1808    0.0000 C   0  0  0  0  0  0  0  0  0  0  0  0
  -14.9475    5.3466    0.0000 C   0  0  0  0  0  0  0  0  0  0  0  0
  -21.2329    2.0973    0.0000 C   0  0  0  0  0  0  0  0  0  0  0  0
  -20.5799    3.5882    0.0000 C   0  0  0  0  0  0  0  0  0  0  0  0
  -20.2550    5.0526    0.0000 O   0  0  0  0  0  0  0  0  0  0  0  0
  -22.0771    3.4969    0.0000 N   0  0  0  0  0  0  0  0  0  0  0  0
  -22.9048    4.7478    0.0000 C   0  0  0  0  0  0  0  0  0  0  0  0
  -23.2547    6.2065    0.0000 C   0  0  0  0  0  0  0  0  0  0  0  0
  -22.1664    7.2388    0.0000 C   0  0  0  0  0  0  0  0  0  0  0  0
  -22.5163    8.6974    0.0000 C   0  0  0  0  0  0  0  0  0  0  0  0
  -20.7907    7.8367    0.0000 C   0  0  0  0  0  0  0  0  0  0  0  0
  -24.4020    4.6565    0.0000 C   0  0  0  0  0  0  0  0  0  0  0  0
  -25.3760    5.7973    0.0000 O   0  0  0  0  0  0  0  0  0  0  0  0
  -25.0715    3.3143    0.0000 O   0  0  0  0  0  0  0  0  0  0  0  0
   26.0935    1.4852    0.0000 H   0  0  0  0  0  0  0  0  0  0  0  0
   26.2140   -3.0057    0.0000 H   0  0  0  0  0  0  0  0  0  0  0  0
   28.7909   -4.5417    0.0000 H   0  0  0  0  0  0  0  0  0  0  0  0
   28.5759    1.1407    0.0000 H   0  0  0  0  0  0  0  0  0  0  0  0
   35.4843    3.0565    0.0000 H   0  0  0  0  0  0  0  0  0  0  0  0
   36.4939   -2.0406    0.0000 H   0  0  0  0  0  0  0  0  0  0  0  0
   33.5511   -2.6235    0.0000 H   0  0  0  0  0  0  0  0  0  0  0  0
   38.4486   -0.3292    0.0000 H   0  0  0  0  0  0  0  0  0  0  0  0
   28.6320   -0.9493    0.0000 H   0  0  0  0  0  0  0  0  0  0  0  0
   26.6312    1.4893    0.0000 H   0  0  0  0  0  0  0  0  0  0  0  0
   30.5652    4.7307    0.0000 H   0  0  0  0  0  0  0  0  0  0  0  0
   28.1057    5.5678    0.0000 H   0  0  0  0  0  0  0  0  0  0  0  0
   23.6786    1.5299    0.0000 H   0  0  0  0  0  0  0  0  0  0  0  0
   21.3684   -1.8374    0.0000 H   0  0  0  0  0  0  0  0  0  0  0  0
   23.2966   -1.8642    0.0000 H   0  0  0  0  0  0  0  0  0  0  0  0
   20.1119    1.2285    0.0000 H   0  0  0  0  0  0  0  0  0  0  0  0
   22.0400    1.2017    0.0000 H   0  0  0  0  0  0  0  0  0  0  0  0
   18.4830    1.6021    0.0000 H   0  0  0  0  0  0  0  0  0  0  0  0
   18.1009   -1.7920    0.0000 H   0  0  0  0  0  0  0  0  0  0  0  0
   15.8151   -3.2219    0.0000 H   0  0  0  0  0  0  0  0  0  0  0  0
   17.4613   -2.5332    0.0000 H   0  0  0  0  0  0  0  0  0  0  0  0
   13.5141   -0.5649    0.0000 H   0  0  0  0  0  0  0  0  0  0  0  0
   14.5111    0.0039    0.0000 H   0  0  0  0  0  0  0  0  0  0  0  0
   13.1867   -4.0221    0.0000 H   0  0  0  0  0  0  0  0  0  0  0  0
   14.9045   -3.5391    0.0000 H   0  0  0  0  0  0  0  0  0  0  0  0
   10.8733   -1.7336    0.0000 H   0  0  0  0  0  0  0  0  0  0  0  0
   12.6035   -0.8821    0.0000 H   0  0  0  0  0  0  0  0  0  0  0  0
    9.8376   -3.0159    0.0000 H   0  0  0  0  0  0  0  0  0  0  0  0
   11.7592   -4.8909    0.0000 H   0  0  0  0  0  0  0  0  0  0  0  0
   14.1719   -2.0438    0.0000 H   0  0  0  0  0  0  0  0  0  0  0  0
   14.3777    1.1821    0.0000 H   0  0  0  0  0  0  0  0  0  0  0  0
   11.1331    2.2561    0.0000 H   0  0  0  0  0  0  0  0  0  0  0  0
   11.0927    0.4721    0.0000 H   0  0  0  0  0  0  0  0  0  0  0  0
   13.8310    3.8746    0.0000 H   0  0  0  0  0  0  0  0  0  0  0  0
   14.2234    2.1339    0.0000 H   0  0  0  0  0  0  0  0  0  0  0  0
   11.4873    6.4660    0.0000 H   0  0  0  0  0  0  0  0  0  0  0  0
   13.9161    5.5436    0.0000 H   0  0  0  0  0  0  0  0  0  0  0  0
   10.5065    1.7017    0.0000 H   0  0  0  0  0  0  0  0  0  0  0  0
   10.1587   -1.7906    0.0000 H   0  0  0  0  0  0  0  0  0  0  0  0
    8.0216   -3.1136    0.0000 H   0  0  0  0  0  0  0  0  0  0  0  0
    9.7518   -2.2621    0.0000 H   0  0  0  0  0  0  0  0  0  0  0  0
    5.7206   -0.4566    0.0000 H   0  0  0  0  0  0  0  0  0  0  0  0
    6.7176    0.1122    0.0000 H   0  0  0  0  0  0  0  0  0  0  0  0
    5.3932   -3.9138    0.0000 H   0  0  0  0  0  0  0  0  0  0  0  0
    7.1111   -3.4308    0.0000 H   0  0  0  0  0  0  0  0  0  0  0  0
    3.0798   -1.6253    0.0000 H   0  0  0  0  0  0  0  0  0  0  0  0
    4.8100   -0.7738    0.0000 H   0  0  0  0  0  0  0  0  0  0  0  0
    2.0441   -2.9076    0.0000 H   0  0  0  0  0  0  0  0  0  0  0  0
    3.9657   -4.7826    0.0000 H   0  0  0  0  0  0  0  0  0  0  0  0
    6.3784   -1.9355    0.0000 H   0  0  0  0  0  0  0  0  0  0  0  0
    6.5842    1.2904    0.0000 H   0  0  0  0  0  0  0  0  0  0  0  0
    3.2364    2.2130    0.0000 H   0  0  0  0  0  0  0  0  0  0  0  0
    3.2992    0.5804    0.0000 H   0  0  0  0  0  0  0  0  0  0  0  0
    6.0375    3.9829    0.0000 H   0  0  0  0  0  0  0  0  0  0  0  0
    6.4300    2.2422    0.0000 H   0  0  0  0  0  0  0  0  0  0  0  0
    2.8209    4.7777    0.0000 H   0  0  0  0  0  0  0  0  0  0  0  0
    2.9982    3.0021    0.0000 H   0  0  0  0  0  0  0  0  0  0  0  0
    6.1226    5.6519    0.0000 H   0  0  0  0  0  0  0  0  0  0  0  0
    3.2782    9.1390    0.0000 H   0  0  0  0  0  0  0  0  0  0  0  0
    1.2650    7.4968    0.0000 H   0  0  0  0  0  0  0  0  0  0  0  0
    1.6805    4.9321    0.0000 H   0  0  0  0  0  0  0  0  0  0  0  0
    2.7131    1.8100    0.0000 H   0  0  0  0  0  0  0  0  0  0  0  0
    2.3652   -1.6823    0.0000 H   0  0  0  0  0  0  0  0  0  0  0  0
    0.2282   -3.0054    0.0000 H   0  0  0  0  0  0  0  0  0  0  0  0
    1.9583   -2.1538    0.0000 H   0  0  0  0  0  0  0  0  0  0  0  0
   -2.0729   -0.3483    0.0000 H   0  0  0  0  0  0  0  0  0  0  0  0
   -1.0759    0.2205    0.0000 H   0  0  0  0  0  0  0  0  0  0  0  0
   -2.4002   -3.8055    0.0000 H   0  0  0  0  0  0  0  0  0  0  0  0
   -0.6824   -3.3225    0.0000 H   0  0  0  0  0  0  0  0  0  0  0  0
   -4.7136   -1.5171    0.0000 H   0  0  0  0  0  0  0  0  0  0  0  0
   -2.9835   -0.6655    0.0000 H   0  0  0  0  0  0  0  0  0  0  0  0
   -5.7494   -2.7993    0.0000 H   0  0  0  0  0  0  0  0  0  0  0  0
   -3.8278   -4.6743    0.0000 H   0  0  0  0  0  0  0  0  0  0  0  0
   -1.4151   -1.8272    0.0000 H   0  0  0  0  0  0  0  0  0  0  0  0
   -1.3404    1.5266    0.0000 H   0  0  0  0  0  0  0  0  0  0  0  0
   -4.4538    2.4727    0.0000 H   0  0  0  0  0  0  0  0  0  0  0  0
   -4.4943    0.6887    0.0000 H   0  0  0  0  0  0  0  0  0  0  0  0
   -5.0804    1.9183    0.0000 H   0  0  0  0  0  0  0  0  0  0  0  0
   -5.4282   -1.5740    0.0000 H   0  0  0  0  0  0  0  0  0  0  0  0
   -7.7402   -2.8426    0.0000 H   0  0  0  0  0  0  0  0  0  0  0  0
   -5.8352   -2.0455    0.0000 H   0  0  0  0  0  0  0  0  0  0  0  0
   -9.6035   -2.4163    0.0000 H   0  0  0  0  0  0  0  0  0  0  0  0
   -8.8463   -1.7685    0.0000 H   0  0  0  0  0  0  0  0  0  0  0  0
   -8.9008    1.7998    0.0000 H   0  0  0  0  0  0  0  0  0  0  0  0
   -9.4685    3.1565    0.0000 H   0  0  0  0  0  0  0  0  0  0  0  0
   -9.6591    3.7516    0.0000 H   0  0  0  0  0  0  0  0  0  0  0  0
  -10.3902    4.6276    0.0000 H   0  0  0  0  0  0  0  0  0  0  0  0
  -10.8200    5.0586    0.0000 H   0  0  0  0  0  0  0  0  0  0  0  0
  -12.0533    5.8598    0.0000 H   0  0  0  0  0  0  0  0  0  0  0  0
  -12.9766    6.4808    0.0000 H   0  0  0  0  0  0  0  0  0  0  0  0
   -8.6065    2.8575    0.0000 H   0  0  0  0  0  0  0  0  0  0  0  0
   -7.5108    1.9051    0.0000 H   0  0  0  0  0  0  0  0  0  0  0  0
   -7.9766    0.1631    0.0000 H   0  0  0  0  0  0  0  0  0  0  0  0
   -9.6168   -3.1649    0.0000 H   0  0  0  0  0  0  0  0  0  0  0  0
  -10.4277   -3.9269    0.0000 H   0  0  0  0  0  0  0  0  0  0  0  0
  -11.9805   -6.4528    0.0000 H   0  0  0  0  0  0  0  0  0  0  0  0
  -13.1313   -5.2930    0.0000 H   0  0  0  0  0  0  0  0  0  0  0  0
  -11.2570   -7.9592    0.0000 H   0  0  0  0  0  0  0  0  0  0  0  0
   -8.4799   -9.0939    0.0000 H   0  0  0  0  0  0  0  0  0  0  0  0
   -6.1087   -7.2562    0.0000 H   0  0  0  0  0  0  0  0  0  0  0  0
   -6.5145   -4.2838    0.0000 H   0  0  0  0  0  0  0  0  0  0  0  0
   -9.1090   -3.1354    0.0000 H   0  0  0  0  0  0  0  0  0  0  0  0
  -14.2402   -6.1425    0.0000 H   0  0  0  0  0  0  0  0  0  0  0  0
  -15.5220   -6.0149    0.0000 H   0  0  0  0  0  0  0  0  0  0  0  0
  -18.4650   -6.3758    0.0000 H   0  0  0  0  0  0  0  0  0  0  0  0
  -18.2758   -4.7529    0.0000 H   0  0  0  0  0  0  0  0  0  0  0  0
  -19.1917   -7.8807    0.0000 H   0  0  0  0  0  0  0  0  0  0  0  0
  -18.3473  -10.7594    0.0000 H   0  0  0  0  0  0  0  0  0  0  0  0
  -15.4321  -11.4675    0.0000 H   0  0  0  0  0  0  0  0  0  0  0  0
  -13.3612   -9.2969    0.0000 H   0  0  0  0  0  0  0  0  0  0  0  0
  -14.0810   -6.5525    0.0000 H   0  0  0  0  0  0  0  0  0  0  0  0
  -19.7683   -4.2940    0.0000 H   0  0  0  0  0  0  0  0  0  0  0  0
  -20.1659   -3.4139    0.0000 H   0  0  0  0  0  0  0  0  0  0  0  0
  -22.3601   -1.0971    0.0000 H   0  0  0  0  0  0  0  0  0  0  0  0
  -21.0610   -0.3941    0.0000 H   0  0  0  0  0  0  0  0  0  0  0  0
  -22.1622   -4.6064    0.0000 H   0  0  0  0  0  0  0  0  0  0  0  0
  -20.6804   -3.9181    0.0000 H   0  0  0  0  0  0  0  0  0  0  0  0
  -24.8040   -2.3526    0.0000 H   0  0  0  0  0  0  0  0  0  0  0  0
  -23.2346   -1.5034    0.0000 H   0  0  0  0  0  0  0  0  0  0  0  0
  -24.6979   -5.6643    0.0000 H   0  0  0  0  0  0  0  0  0  0  0  0
  -23.0367   -5.0127    0.0000 H   0  0  0  0  0  0  0  0  0  0  0  0
  -26.6638   -5.3106    0.0000 H   0  0  0  0  0  0  0  0  0  0  0  0
  -26.4337   -2.7227    0.0000 H   0  0  0  0  0  0  0  0  0  0  0  0
  -21.6328    1.0589    0.0000 H   0  0  0  0  0  0  0  0  0  0  0  0
  -19.3745    5.0455    0.0000 H   0  0  0  0  0  0  0  0  0  0  0  0
  -20.3437    4.1666    0.0000 H   0  0  0  0  0  0  0  0  0  0  0  0
  -17.9761    6.0742    0.0000 H   0  0  0  0  0  0  0  0  0  0  0  0
  -18.9783    5.5287    0.0000 H   0  0  0  0  0  0  0  0  0  0  0  0
  -15.9763    6.6079    0.0000 H   0  0  0  0  0  0  0  0  0  0  0  0
  -17.4179    6.3168    0.0000 H   0  0  0  0  0  0  0  0  0  0  0  0
  -14.8892    6.8455    0.0000 H   0  0  0  0  0  0  0  0  0  0  0  0
  -22.4341    2.9957    0.0000 H   0  0  0  0  0  0  0  0  0  0  0  0
  -22.4432    1.2112    0.0000 H   0  0  0  0  0  0  0  0  0  0  0  0
  -21.0969    0.6034    0.0000 H   0  0  0  0  0  0  0  0  0  0  0  0
  -22.9052    2.2462    0.0000 H   0  0  0  0  0  0  0  0  0  0  0  0
  -21.4664    5.1736    0.0000 H   0  0  0  0  0  0  0  0  0  0  0  0
  -24.2287    7.3472    0.0000 H   0  0  0  0  0  0  0  0  0  0  0  0
  -24.6930    5.7807    0.0000 H   0  0  0  0  0  0  0  0  0  0  0  0
  -21.1924    6.0980    0.0000 H   0  0  0  0  0  0  0  0  0  0  0  0
  -21.5620    9.8547    0.0000 H   0  0  0  0  0  0  0  0  0  0  0  0
  -23.3440    9.9484    0.0000 H   0  0  0  0  0  0  0  0  0  0  0  0
  -23.9546    8.2717    0.0000 H   0  0  0  0  0  0  0  0  0  0  0  0
  -20.4403    9.2952    0.0000 H   0  0  0  0  0  0  0  0  0  0  0  0
  -19.2935    7.9280    0.0000 H   0  0  0  0  0  0  0  0  0  0  0  0
  -20.4408    6.3781    0.0000 H   0  0  0  0  0  0  0  0  0  0  0  0
  -26.5687    3.2230    0.0000 H   0  0  0  0  0  0  0  0  0  0  0  0
  1  2  1  0
  2  3  1  0
  3  4  2  0
  4  5  1  0
  5  6  2  0
  6  7  1  0
  7  8  2  0
  7  9  1  0
  9 10  1  0
 10 11  1  0
 11 12  2  0
  9 13  1  0
 13 14  1  0
 14 15  2  0
 15 16  1  0
 16 17  2  0
 17 18  1  0
 16 19  1  0
 14 20  1  0
 20 21  1  0
 21 22  2  0
 22 23  1  0
 23 24  2  0
 24 25  1  0
 25 26  2  0
 25 27  1  0
  1 28  2  0
  1 29  1  0
 29 30  1  0
 30 31  1  0
 31 32  1  0
 32 33  2  0
 32 34  1  0
 34 35  1  0
 35 36  1  0
 36 37  1  0
 37 38  1  0
 38 39  1  0
 39 40  1  0
 35 41  1  0
 41 42  2  0
 41 43  1  0
 43 44  1  0
 44 45  1  0
 45 46  1  0
 46 47  1  0
 47 48  1  0
 47 49  2  0
 44 50  1  0
 50 51  2  0
 50 52  1  0
 52 53  1  0
 53 54  1  0
 54 55  1  0
 55 56  1  0
 56 57  1  0
 57 58  1  0
 53 59  1  0
 59 60  2  0
 59 61  1  0
 61 62  1  0
 62 63  1  0
 63 64  1  0
 64 65  1  0
 65 66  1  0
 66 67  1  0
 67 68  2  3
 67 69  1  0
 62 70  1  0
 70 71  2  0
 70 72  1  0
 72 73  1  0
 73 74  1  0
 74 75  1  0
 75 76  1  0
 76 77  1  0
 77 78  1  0
 73 79  1  0
 79 80  2  0
 79 81  1  0
 81 82  1  0
 82 83  1  0
 83 84  1  0
 84 85  2  0
 85 86  1  0
 85 87  1  0
 87 88  1  0
 87 89  2  0
 89 90  1  0
 89 91  1  0
 91 92  1  0
 91 93  2  0
 93 94  1  0
 82 95  1  0
 95 96  2  0
 95 97  1  0
 97 98  1  0
 98 99  1  0
 99100  1  0
 98101  1  0
101102  2  0
101103  1  0
104103  1  6
104105  1  0
105106  1  0
106107  1  0
107108  1  0
104109  1  0
104110  1  0
110111  2  0
110112  1  0
112113  1  0
113114  1  0
114115  1  0
115116  2  0
116117  1  0
117118  2  0
118119  1  0
119120  2  0
113121  1  0
121122  2  0
121123  1  0
123124  1  0
124125  1  0
125126  1  0
126127  2  0
127128  1  0
128129  2  0
129130  1  0
130131  2  0
124132  1  0
132133  2  0
132134  1  0
134135  1  0
135136  1  0
136137  1  0
137138  1  0
138139  1  0
139140  1  0
135141  1  0
141142  2  0
141143  1  0
143144  1  0
144145  1  0
145146  1  0
146147  1  0
147148  1  0
144149  1  0
144150  1  6
150151  2  0
150152  1  0
152153  1  0
153154  1  0
154155  1  0
155156  1  0
155157  1  0
153158  1  0
158159  2  0
158160  1  0
  8  3  1  0
 93 84  1  0
120115  1  0
131126  1  0
 11  6  1  0
108148  2  0
 18 13  2  0
 22  9  1  0
 26 21  1  0
  2161  1  0
  4162  1  0
  5163  1  0
  8164  1  0
 15165  1  0
 17166  1  0
 18167  1  0
 19168  1  0
 23169  1  0
 24170  1  0
 26171  1  0
 27172  1  0
 29173  1  0
 30174  1  0
 30175  1  0
 31176  1  0
 31177  1  0
 34178  1  0
 35179  1  1
 36180  1  0
 36181  1  0
 37182  1  0
 37183  1  0
 38184  1  0
 38185  1  0
 39186  1  0
 39187  1  0
 40188  1  0
 40189  1  0
 43190  1  0
 44191  1  6
 45192  1  0
 45193  1  0
 46194  1  0
 46195  1  0
 48196  1  0
 48197  1  0
 52198  1  0
 53199  1  1
 54200  1  0
 54201  1  0
 55202  1  0
 55203  1  0
 56204  1  0
 56205  1  0
 57206  1  0
 57207  1  0
 58208  1  0
 58209  1  0
 61210  1  0
 62211  1  6
 63212  1  0
 63213  1  0
 64214  1  0
 64215  1  0
 65216  1  0
 65217  1  0
 66218  1  0
 68219  1  0
 69220  1  0
 69221  1  0
 72222  1  0
 73223  1  1
 74224  1  0
 74225  1  0
 75226  1  0
 75227  1  0
 76228  1  0
 76229  1  0
 77230  1  0
 77231  1  0
 78232  1  0
 78233  1  0
 81234  1  0
 82235  1  1
 83236  1  0
 83237  1  0
 97238  1  0
 98239  1  1
 99240  1  0
 99241  1  0
100242  1  0
103243  1  0
105244  1  0
105245  1  0
106246  1  0
106247  1  0
107248  1  0
107249  1  0
108250  1  0
109251  1  0
109252  1  0
109253  1  0
112254  1  0
113255  1  1
114256  1  0
114257  1  0
116258  1  0
117259  1  0
118260  1  0
119261  1  0
120262  1  0
123263  1  0
124264  1  1
125265  1  0
125266  1  0
127267  1  0
128268  1  0
129269  1  0
130270  1  0
131271  1  0
134272  1  0
135273  1  1
136274  1  0
136275  1  0
137276  1  0
137277  1  0
138278  1  0
138279  1  0
139280  1  0
139281  1  0
140282  1  0
140283  1  0
143284  1  0
145285  1  0
145286  1  0
146287  1  0
146288  1  0
147289  1  0
147290  1  0
148291  1  0
149292  1  0
149293  1  0
149294  1  0
152295  1  0
153296  1  6
154297  1  0
154298  1  0
155299  1  0
156300  1  0
156301  1  0
156302  1  0
157303  1  0
157304  1  0
157305  1  0
160306  1  0
M  END
