
     RDKit          2D

277280  0  0  0  0  0  0  0  0999 V2000
  -24.0187   -5.8923    0.0000 N   0  0  0  0  0  0  0  0  0  0  0  0
  -22.7647   -5.0693    0.0000 C   0  0  0  0  0  0  0  0  0  0  0  0
  -22.8504   -3.5717    0.0000 C   0  0  0  0  0  0  0  0  0  0  0  0
  -21.5963   -2.7487    0.0000 C   0  0  0  0  0  0  0  0  0  0  0  0
  -20.2565   -3.4233    0.0000 O   0  0  0  0  0  0  0  0  0  0  0  0
  -21.6820   -1.2512    0.0000 N   0  0  0  0  0  0  0  0  0  0  0  0
  -20.4280   -0.4282    0.0000 C   0  0  0  0  0  0  0  0  0  0  0  0
  -21.4562    0.6639    0.0000 C   0  0  0  0  0  0  0  0  0  0  0  0
  -21.0246    2.1005    0.0000 C   0  0  0  0  0  0  0  0  0  0  0  0
  -22.0529    3.1926    0.0000 C   0  0  0  0  0  0  0  0  0  0  0  0
  -20.1277    3.3028    0.0000 C   0  0  0  0  0  0  0  0  0  0  0  0
  -18.9681   -0.0837    0.0000 C   0  0  0  0  0  0  0  0  0  0  0  0
  -18.7401    1.2469    0.0000 O   0  0  0  0  0  0  0  0  0  0  0  0
  -17.9398   -1.1758    0.0000 N   0  0  0  0  0  0  0  0  0  0  0  0
  -16.4799   -0.8313    0.0000 C   0  0  0  0  0  0  0  0  0  0  0  0
  -17.0726    0.5466    0.0000 C   0  0  0  0  0  0  0  0  0  0  0  0
  -16.1757    1.7489    0.0000 O   0  0  0  0  0  0  0  0  0  0  0  0
  -14.9902   -1.0070    0.0000 C   0  0  0  0  0  0  0  0  0  0  0  0
  -14.0933    0.1953    0.0000 O   0  0  0  0  0  0  0  0  0  0  0  0
  -14.3975   -2.3849    0.0000 N   0  0  0  0  0  0  0  0  0  0  0  0
  -12.9078   -2.5605    0.0000 C   0  0  0  0  0  0  0  0  0  0  0  0
  -13.3394   -3.9971    0.0000 C   0  0  0  0  0  0  0  0  0  0  0  0
  -14.7993   -4.3415    0.0000 C   0  0  0  0  0  0  0  0  0  0  0  0
  -15.2310   -5.7781    0.0000 C   0  0  0  0  0  0  0  0  0  0  0  0
  -16.6909   -6.1225    0.0000 N   0  0  0  0  0  0  0  0  0  0  0  0
  -14.2027   -6.8702    0.0000 O   0  0  0  0  0  0  0  0  0  0  0  0
  -11.4479   -2.2161    0.0000 C   0  0  0  0  0  0  0  0  0  0  0  0
  -10.4196   -3.3082    0.0000 O   0  0  0  0  0  0  0  0  0  0  0  0
  -11.0162   -0.7795    0.0000 N   0  0  0  0  0  0  0  0  0  0  0  0
   -9.5563   -0.4351    0.0000 C   0  0  0  0  0  0  0  0  0  0  0  0
  -10.1490    0.9429    0.0000 C   0  0  0  0  0  0  0  0  0  0  0  0
  -11.6387    1.1185    0.0000 C   0  0  0  0  0  0  0  0  0  0  0  0
  -12.2315    2.4964    0.0000 C   0  0  0  0  0  0  0  0  0  0  0  0
  -13.7211    2.6721    0.0000 O   0  0  0  0  0  0  0  0  0  0  0  0
  -11.3345    3.6987    0.0000 O   0  0  0  0  0  0  0  0  0  0  0  0
   -8.0666   -0.6107    0.0000 C   0  0  0  0  0  0  0  0  0  0  0  0
   -7.1697    0.5916    0.0000 O   0  0  0  0  0  0  0  0  0  0  0  0
   -7.4739   -1.9886    0.0000 N   0  0  0  0  0  0  0  0  0  0  0  0
   -5.9842   -2.1642    0.0000 C   0  0  0  0  0  0  0  0  0  0  0  0
   -6.4158   -3.6008    0.0000 C   0  0  0  0  0  0  0  0  0  0  0  0
   -7.3128   -4.8031    0.0000 O   0  0  0  0  0  0  0  0  0  0  0  0
   -5.3876   -4.6929    0.0000 C   0  0  0  0  0  0  0  0  0  0  0  0
   -4.5243   -1.8198    0.0000 C   0  0  0  0  0  0  0  0  0  0  0  0
   -3.6368   -3.0291    0.0000 O   0  0  0  0  0  0  0  0  0  0  0  0
   -4.0926   -0.3832    0.0000 N   0  0  0  0  0  0  0  0  0  0  0  0
   -2.6327   -0.0388    0.0000 C   0  0  0  0  0  0  0  0  0  0  0  0
   -2.5470   -1.5363    0.0000 C   0  0  0  0  0  0  0  0  0  0  0  0
   -1.2072   -2.2109    0.0000 C   0  0  0  0  0  0  0  0  0  0  0  0
   -1.1215   -3.7084    0.0000 C   0  0  0  0  0  0  0  0  0  0  0  0
    0.2182   -4.3830    0.0000 C   0  0  0  0  0  0  0  0  0  0  0  0
    1.4723   -3.5599    0.0000 C   0  0  0  0  0  0  0  0  0  0  0  0
    1.3866   -2.0624    0.0000 C   0  0  0  0  0  0  0  0  0  0  0  0
    0.0468   -1.3879    0.0000 C   0  0  0  0  0  0  0  0  0  0  0  0
   -1.3787    0.7842    0.0000 C   0  0  0  0  0  0  0  0  0  0  0  0
   -0.1311   -0.0486    0.0000 O   0  0  0  0  0  0  0  0  0  0  0  0
   -1.4644    2.2818    0.0000 N   0  0  0  0  0  0  0  0  0  0  0  0
   -0.2103    3.1048    0.0000 C   0  0  0  0  0  0  0  0  0  0  0  0
    0.3824    1.7269    0.0000 C   0  0  0  0  0  0  0  0  0  0  0  0
    1.8721    1.5512    0.0000 O   0  0  0  0  0  0  0  0  0  0  0  0
    0.6866    4.3071    0.0000 C   0  0  0  0  0  0  0  0  0  0  0  0
    2.1866    4.3143    0.0000 O   0  0  0  0  0  0  0  0  0  0  0  0
    0.0939    5.6850    0.0000 N   0  0  0  0  0  0  0  0  0  0  0  0
    0.9908    6.8873    0.0000 C   0  0  0  0  0  0  0  0  0  0  0  0
   -0.3490    7.5618    0.0000 C   0  0  0  0  0  0  0  0  0  0  0  0
   -1.6030    6.7388    0.0000 C   0  0  0  0  0  0  0  0  0  0  0  0
   -2.9428    7.4134    0.0000 O   0  0  0  0  0  0  0  0  0  0  0  0
   -1.7005    5.2420    0.0000 O   0  0  0  0  0  0  0  0  0  0  0  0
    2.2449    7.7103    0.0000 C   0  0  0  0  0  0  0  0  0  0  0  0
    1.9773    9.1862    0.0000 O   0  0  0  0  0  0  0  0  0  0  0  0
    3.5847    7.0357    0.0000 N   0  0  0  0  0  0  0  0  0  0  0  0
    4.8387    7.8588    0.0000 C   0  0  0  0  0  0  0  0  0  0  0  0
    3.8104    8.9508    0.0000 C   0  0  0  0  0  0  0  0  0  0  0  0
    4.2421   10.3874    0.0000 C   0  0  0  0  0  0  0  0  0  0  0  0
    3.2138   11.4795    0.0000 C   0  0  0  0  0  0  0  0  0  0  0  0
    5.1390   11.5897    0.0000 C   0  0  0  0  0  0  0  0  0  0  0  0
    6.2986    8.2032    0.0000 C   0  0  0  0  0  0  0  0  0  0  0  0
    6.5519    9.6817    0.0000 O   0  0  0  0  0  0  0  0  0  0  0  0
    7.3269    7.1111    0.0000 N   0  0  0  0  0  0  0  0  0  0  0  0
    8.7868    7.4556    0.0000 C   0  0  0  0  0  0  0  0  0  0  0  0
   10.0409    8.2786    0.0000 C   0  0  0  0  0  0  0  0  0  0  0  0
    9.9551    9.7761    0.0000 C   0  0  0  0  0  0  0  0  0  0  0  0
    8.6932   10.5870    0.0000 C   0  0  0  0  0  0  0  0  0  0  0  0
    9.0745   12.0378    0.0000 N   0  0  0  0  0  0  0  0  0  0  0  0
   10.5720   12.1235    0.0000 C   0  0  0  0  0  0  0  0  0  0  0  0
   11.5104   13.2937    0.0000 C   0  0  0  0  0  0  0  0  0  0  0  0
   12.9930   13.0662    0.0000 C   0  0  0  0  0  0  0  0  0  0  0  0
   13.5373   11.6684    0.0000 C   0  0  0  0  0  0  0  0  0  0  0  0
   12.5990   10.4982    0.0000 C   0  0  0  0  0  0  0  0  0  0  0  0
   11.1163   10.7257    0.0000 C   0  0  0  0  0  0  0  0  0  0  0  0
    8.8725    5.9580    0.0000 C   0  0  0  0  0  0  0  0  0  0  0  0
   10.2123    5.2835    0.0000 O   0  0  0  0  0  0  0  0  0  0  0  0
    7.6185    5.1350    0.0000 N   0  0  0  0  0  0  0  0  0  0  0  0
    7.7042    3.6375    0.0000 C   0  0  0  0  0  0  0  0  0  0  0  0
    8.2969    2.2596    0.0000 C   0  0  0  0  0  0  0  0  0  0  0  0
    9.7866    2.0839    0.0000 C   0  0  0  0  0  0  0  0  0  0  0  0
   10.3793    0.7060    0.0000 C   0  0  0  0  0  0  0  0  0  0  0  0
   11.8690    0.5304    0.0000 C   0  0  0  0  0  0  0  0  0  0  0  0
   12.7776   -0.6632    0.0000 N   0  0  0  0  0  0  0  0  0  0  0  0
    6.4501    2.8145    0.0000 C   0  0  0  0  0  0  0  0  0  0  0  0
    5.1103    3.4890    0.0000 O   0  0  0  0  0  0  0  0  0  0  0  0
    6.5358    1.3169    0.0000 N   0  0  0  0  0  0  0  0  0  0  0  0
    5.2818    0.4939    0.0000 C   0  0  0  0  0  0  0  0  0  0  0  0
    3.8219    0.1495    0.0000 C   0  0  0  0  0  0  0  0  0  0  0  0
    2.7936    1.2415    0.0000 C   0  0  0  0  0  0  0  0  0  0  0  0
    1.3337    0.8971    0.0000 C   0  0  0  0  0  0  0  0  0  0  0  0
    2.2009    2.6195    0.0000 C   0  0  0  0  0  0  0  0  0  0  0  0
    5.3675   -1.0036    0.0000 C   0  0  0  0  0  0  0  0  0  0  0  0
    4.2231   -1.9734    0.0000 O   0  0  0  0  0  0  0  0  0  0  0  0
    6.7073   -1.6782    0.0000 N   0  0  0  0  0  0  0  0  0  0  0  0
    6.7930   -3.1757    0.0000 C   0  0  0  0  0  0  0  0  0  0  0  0
    6.3613   -4.6123    0.0000 C   0  0  0  0  0  0  0  0  0  0  0  0
    7.3896   -5.7044    0.0000 C   0  0  0  0  0  0  0  0  0  0  0  0
    6.9580   -7.1409    0.0000 C   0  0  0  0  0  0  0  0  0  0  0  0
    8.7294   -6.3789    0.0000 C   0  0  0  0  0  0  0  0  0  0  0  0
    8.1328   -3.8503    0.0000 C   0  0  0  0  0  0  0  0  0  0  0  0
    8.4004   -5.3262    0.0000 O   0  0  0  0  0  0  0  0  0  0  0  0
    9.3868   -3.0273    0.0000 N   0  0  0  0  0  0  0  0  0  0  0  0
    9.4581   -1.5290    0.0000 C   0  0  0  0  0  0  0  0  0  0  0  0
   10.9051   -1.1338    0.0000 C   0  0  0  0  0  0  0  0  0  0  0  0
   11.7281   -2.3878    0.0000 C   0  0  0  0  0  0  0  0  0  0  0  0
   10.7898   -3.5581    0.0000 C   0  0  0  0  0  0  0  0  0  0  0  0
   12.0517   -4.3690    0.0000 C   0  0  0  0  0  0  0  0  0  0  0  0
   13.4587   -3.8492    0.0000 O   0  0  0  0  0  0  0  0  0  0  0  0
   11.9804   -5.8673    0.0000 N   0  0  0  0  0  0  0  0  0  0  0  0
   13.2423   -6.6782    0.0000 C   0  0  0  0  0  0  0  0  0  0  0  0
   14.7055   -7.0085    0.0000 C   0  0  0  0  0  0  0  0  0  0  0  0
   15.1509   -8.4409    0.0000 C   0  0  0  0  0  0  0  0  0  0  0  0
   16.6141   -8.7713    0.0000 C   0  0  0  0  0  0  0  0  0  0  0  0
   17.0596  -10.2036    0.0000 O   0  0  0  0  0  0  0  0  0  0  0  0
   17.6318   -7.6693    0.0000 O   0  0  0  0  0  0  0  0  0  0  0  0
   13.1710   -8.1765    0.0000 C   0  0  0  0  0  0  0  0  0  0  0  0
   11.8378   -8.8639    0.0000 O   0  0  0  0  0  0  0  0  0  0  0  0
   14.4329   -8.9874    0.0000 N   0  0  0  0  0  0  0  0  0  0  0  0
   14.3617  -10.4857    0.0000 C   0  0  0  0  0  0  0  0  0  0  0  0
   14.8071  -11.9180    0.0000 C   0  0  0  0  0  0  0  0  0  0  0  0
   16.2703  -12.2484    0.0000 C   0  0  0  0  0  0  0  0  0  0  0  0
   16.7157  -13.6807    0.0000 N   0  0  0  0  0  0  0  0  0  0  0  0
   17.2880  -11.1464    0.0000 O   0  0  0  0  0  0  0  0  0  0  0  0
   13.0284  -11.1731    0.0000 C   0  0  0  0  0  0  0  0  0  0  0  0
   11.7665  -10.3622    0.0000 O   0  0  0  0  0  0  0  0  0  0  0  0
   12.7750  -12.6515    0.0000 O   0  0  0  0  0  0  0  0  0  0  0  0
  -23.9330   -7.3898    0.0000 H   0  0  0  0  0  0  0  0  0  0  0  0
  -25.3585   -5.2177    0.0000 H   0  0  0  0  0  0  0  0  0  0  0  0
  -22.1719   -6.4472    0.0000 H   0  0  0  0  0  0  0  0  0  0  0  0
  -21.3047   -4.7248    0.0000 H   0  0  0  0  0  0  0  0  0  0  0  0
  -24.3103   -3.9162    0.0000 H   0  0  0  0  0  0  0  0  0  0  0  0
  -23.4431   -2.1938    0.0000 H   0  0  0  0  0  0  0  0  0  0  0  0
  -22.6084   -0.9191    0.0000 H   0  0  0  0  0  0  0  0  0  0  0  0
  -19.8352   -1.8061    0.0000 H   0  0  0  0  0  0  0  0  0  0  0  0
  -22.8682    1.1701    0.0000 H   0  0  0  0  0  0  0  0  0  0  0  0
  -22.1365   -0.0473    0.0000 H   0  0  0  0  0  0  0  0  0  0  0  0
  -19.6848    1.4259    0.0000 H   0  0  0  0  0  0  0  0  0  0  0  0
  -21.7995    4.6710    0.0000 H   0  0  0  0  0  0  0  0  0  0  0  0
  -23.3926    3.8671    0.0000 H   0  0  0  0  0  0  0  0  0  0  0  0
  -23.0897    2.1086    0.0000 H   0  0  0  0  0  0  0  0  0  0  0  0
  -20.5480    4.7427    0.0000 H   0  0  0  0  0  0  0  0  0  0  0  0
  -18.8736    4.1258    0.0000 H   0  0  0  0  0  0  0  0  0  0  0  0
  -19.2022    2.3199    0.0000 H   0  0  0  0  0  0  0  0  0  0  0  0
  -18.3714   -2.6123    0.0000 H   0  0  0  0  0  0  0  0  0  0  0  0
  -16.3942   -2.3289    0.0000 H   0  0  0  0  0  0  0  0  0  0  0  0
  -17.9601    1.7559    0.0000 H   0  0  0  0  0  0  0  0  0  0  0  0
  -18.1048    0.1857    0.0000 H   0  0  0  0  0  0  0  0  0  0  0  0
  -16.7684    3.1268    0.0000 H   0  0  0  0  0  0  0  0  0  0  0  0
  -14.9485   -2.9610    0.0000 H   0  0  0  0  0  0  0  0  0  0  0  0
  -12.9935   -1.0630    0.0000 H   0  0  0  0  0  0  0  0  0  0  0  0
  -13.2537   -5.4946    0.0000 H   0  0  0  0  0  0  0  0  0  0  0  0
  -11.8497   -4.1727    0.0000 H   0  0  0  0  0  0  0  0  0  0  0  0
  -16.2890   -4.1659    0.0000 H   0  0  0  0  0  0  0  0  0  0  0  0
  -15.1636   -3.5341    0.0000 H   0  0  0  0  0  0  0  0  0  0  0  0
  -17.1225   -7.5591    0.0000 H   0  0  0  0  0  0  0  0  0  0  0  0
  -17.7192   -5.0305    0.0000 H   0  0  0  0  0  0  0  0  0  0  0  0
  -12.1699    0.1791    0.0000 H   0  0  0  0  0  0  0  0  0  0  0  0
   -9.4706   -1.9326    0.0000 H   0  0  0  0  0  0  0  0  0  0  0  0
  -10.2348    2.4404    0.0000 H   0  0  0  0  0  0  0  0  0  0  0  0
   -8.6891    1.2873    0.0000 H   0  0  0  0  0  0  0  0  0  0  0  0
  -13.0986    0.7740    0.0000 H   0  0  0  0  0  0  0  0  0  0  0  0
  -12.0955   -0.3103    0.0000 H   0  0  0  0  0  0  0  0  0  0  0  0
   -8.5107   -3.0726    0.0000 H   0  0  0  0  0  0  0  0  0  0  0  0
   -6.0699   -0.6667    0.0000 H   0  0  0  0  0  0  0  0  0  0  0  0
   -7.8279   -3.0946    0.0000 H   0  0  0  0  0  0  0  0  0  0  0  0
   -6.8924   -6.2430    0.0000 H   0  0  0  0  0  0  0  0  0  0  0  0
   -5.6409   -6.1713    0.0000 H   0  0  0  0  0  0  0  0  0  0  0  0
   -4.0478   -5.3674    0.0000 H   0  0  0  0  0  0  0  0  0  0  0  0
   -4.4906   -3.4906    0.0000 H   0  0  0  0  0  0  0  0  0  0  0  0
   -5.1209    0.7089    0.0000 H   0  0  0  0  0  0  0  0  0  0  0  0
   -3.2255    1.3392    0.0000 H   0  0  0  0  0  0  0  0  0  0  0  0
   -2.8003   -3.0148    0.0000 H   0  0  0  0  0  0  0  0  0  0  0  0
   -4.0349   -1.7264    0.0000 H   0  0  0  0  0  0  0  0  0  0  0  0
   -2.3756   -4.5314    0.0000 H   0  0  0  0  0  0  0  0  0  0  0  0
    0.3040   -5.8805    0.0000 H   0  0  0  0  0  0  0  0  0  0  0  0
    2.8121   -4.2345    0.0000 H   0  0  0  0  0  0  0  0  0  0  0  0
    2.5310   -1.0927    0.0000 H   0  0  0  0  0  0  0  0  0  0  0  0
    0.1443    0.1090    0.0000 H   0  0  0  0  0  0  0  0  0  0  0  0
   -2.8042    2.9563    0.0000 H   0  0  0  0  0  0  0  0  0  0  0  0
   -1.2386    4.1969    0.0000 H   0  0  0  0  0  0  0  0  0  0  0  0
    0.6500    0.2509    0.0000 H   0  0  0  0  0  0  0  0  0  0  0  0
   -0.9508    1.0394    0.0000 H   0  0  0  0  0  0  0  0  0  0  0  0
    2.4648    0.1733    0.0000 H   0  0  0  0  0  0  0  0  0  0  0  0
   -1.4061    5.6777    0.0000 H   0  0  0  0  0  0  0  0  0  0  0  0
    2.0191    5.7952    0.0000 H   0  0  0  0  0  0  0  0  0  0  0  0
   -1.3772    8.6539    0.0000 H   0  0  0  0  0  0  0  0  0  0  0  0
    0.5480    8.7641    0.0000 H   0  0  0  0  0  0  0  0  0  0  0  0
    3.6704    5.5382    0.0000 H   0  0  0  0  0  0  0  0  0  0  0  0
    5.4314    6.4808    0.0000 H   0  0  0  0  0  0  0  0  0  0  0  0
    2.4707    9.6254    0.0000 H   0  0  0  0  0  0  0  0  0  0  0  0
    2.6492    8.0013    0.0000 H   0  0  0  0  0  0  0  0  0  0  0  0
    5.5819    9.7129    0.0000 H   0  0  0  0  0  0  0  0  0  0  0  0
    3.4671   12.9579    0.0000 H   0  0  0  0  0  0  0  0  0  0  0  0
    1.8740   12.1540    0.0000 H   0  0  0  0  0  0  0  0  0  0  0  0
    2.1770   10.3955    0.0000 H   0  0  0  0  0  0  0  0  0  0  0  0
    4.7187   13.0296    0.0000 H   0  0  0  0  0  0  0  0  0  0  0  0
    6.3931   12.4127    0.0000 H   0  0  0  0  0  0  0  0  0  0  0  0
    6.1673   10.4976    0.0000 H   0  0  0  0  0  0  0  0  0  0  0  0
    6.4090    5.9247    0.0000 H   0  0  0  0  0  0  0  0  0  0  0  0
    8.1941    8.8335    0.0000 H   0  0  0  0  0  0  0  0  0  0  0  0
   10.6336    6.9007    0.0000 H   0  0  0  0  0  0  0  0  0  0  0  0
   11.5008    8.6230    0.0000 H   0  0  0  0  0  0  0  0  0  0  0  0
    7.2395   10.2172    0.0000 H   0  0  0  0  0  0  0  0  0  0  0  0
    8.1249   13.1989    0.0000 H   0  0  0  0  0  0  0  0  0  0  0  0
   10.9661   14.6915    0.0000 H   0  0  0  0  0  0  0  0  0  0  0  0
   13.9314   14.2365    0.0000 H   0  0  0  0  0  0  0  0  0  0  0  0
   15.0200   11.4409    0.0000 H   0  0  0  0  0  0  0  0  0  0  0  0
   13.1432    9.1004    0.0000 H   0  0  0  0  0  0  0  0  0  0  0  0
    6.2065    5.6412    0.0000 H   0  0  0  0  0  0  0  0  0  0  0  0
    9.1112    4.1573    0.0000 H   0  0  0  0  0  0  0  0  0  0  0  0
    8.3826    0.7620    0.0000 H   0  0  0  0  0  0  0  0  0  0  0  0
    6.9637    1.5721    0.0000 H   0  0  0  0  0  0  0  0  0  0  0  0
   11.1936    2.6038    0.0000 H   0  0  0  0  0  0  0  0  0  0  0  0
    9.8841    3.5808    0.0000 H   0  0  0  0  0  0  0  0  0  0  0  0
   10.6470   -0.7699    0.0000 H   0  0  0  0  0  0  0  0  0  0  0  0
    8.9194    0.3615    0.0000 H   0  0  0  0  0  0  0  0  0  0  0  0
   13.3289    0.8748    0.0000 H   0  0  0  0  0  0  0  0  0  0  0  0
   11.9665    2.0272    0.0000 H   0  0  0  0  0  0  0  0  0  0  0  0
   13.9514   -1.0232    0.0000 H   0  0  0  0  0  0  0  0  0  0  0  0
   12.5475   -2.3451    0.0000 H   0  0  0  0  0  0  0  0  0  0  0  0
   11.2223   -1.6924    0.0000 H   0  0  0  0  0  0  0  0  0  0  0  0
    7.7834    0.4841    0.0000 H   0  0  0  0  0  0  0  0  0  0  0  0
    4.8614    1.9338    0.0000 H   0  0  0  0  0  0  0  0  0  0  0  0
    2.6775   -0.8203    0.0000 H   0  0  0  0  0  0  0  0  0  0  0  0
    4.2422   -1.2904    0.0000 H   0  0  0  0  0  0  0  0  0  0  0  0
    3.9380    2.2113    0.0000 H   0  0  0  0  0  0  0  0  0  0  0  0
   -0.0177    1.5480    0.0000 H   0  0  0  0  0  0  0  0  0  0  0  0
    0.1893   -0.0726    0.0000 H   0  0  0  0  0  0  0  0  0  0  0  0
    1.5754   -0.5833    0.0000 H   0  0  0  0  0  0  0  0  0  0  0  0
    0.7437    2.9754    0.0000 H   0  0  0  0  0  0  0  0  0  0  0  0
    2.2983    4.1163    0.0000 H   0  0  0  0  0  0  0  0  0  0  0  0
    3.6608    2.9639    0.0000 H   0  0  0  0  0  0  0  0  0  0  0  0
    8.0523   -1.0142    0.0000 H   0  0  0  0  0  0  0  0  0  0  0  0
    5.3033   -3.0001    0.0000 H   0  0  0  0  0  0  0  0  0  0  0  0
    5.3245   -5.6963    0.0000 H   0  0  0  0  0  0  0  0  0  0  0  0
    5.0216   -3.9377    0.0000 H   0  0  0  0  0  0  0  0  0  0  0  0
    8.6579   -4.9035    0.0000 H   0  0  0  0  0  0  0  0  0  0  0  0
    7.8454   -8.3502    0.0000 H   0  0  0  0  0  0  0  0  0  0  0  0
    6.0610   -8.3432    0.0000 H   0  0  0  0  0  0  0  0  0  0  0  0
    5.5459   -6.6347    0.0000 H   0  0  0  0  0  0  0  0  0  0  0  0
   10.0744   -5.7149    0.0000 H   0  0  0  0  0  0  0  0  0  0  0  0
    9.7576   -7.4710    0.0000 H   0  0  0  0  0  0  0  0  0  0  0  0
    7.9857   -7.6816    0.0000 H   0  0  0  0  0  0  0  0  0  0  0  0
    7.9822   -1.7966    0.0000 H   0  0  0  0  0  0  0  0  0  0  0  0
    9.0377   -0.0891    0.0000 H   0  0  0  0  0  0  0  0  0  0  0  0
   10.0388    0.0908    0.0000 H   0  0  0  0  0  0  0  0  0  0  0  0
   12.3122   -0.6140    0.0000 H   0  0  0  0  0  0  0  0  0  0  0  0
   12.9964   -1.5869    0.0000 H   0  0  0  0  0  0  0  0  0  0  0  0
   12.9146   -3.3056    0.0000 H   0  0  0  0  0  0  0  0  0  0  0  0
   10.2836   -4.9701    0.0000 H   0  0  0  0  0  0  0  0  0  0  0  0
   10.6472   -6.5547    0.0000 H   0  0  0  0  0  0  0  0  0  0  0  0
   13.8218   -5.2946    0.0000 H   0  0  0  0  0  0  0  0  0  0  0  0
   16.1934   -6.8186    0.0000 H   0  0  0  0  0  0  0  0  0  0  0  0
   14.7768   -5.5102    0.0000 H   0  0  0  0  0  0  0  0  0  0  0  0
   15.2628   -9.9367    0.0000 H   0  0  0  0  0  0  0  0  0  0  0  0
   13.9265   -9.3073    0.0000 H   0  0  0  0  0  0  0  0  0  0  0  0
   15.8929   -8.6430    0.0000 H   0  0  0  0  0  0  0  0  0  0  0  0
   15.8616  -10.4785    0.0000 H   0  0  0  0  0  0  0  0  0  0  0  0
   14.7358  -13.4163    0.0000 H   0  0  0  0  0  0  0  0  0  0  0  0
   13.3534  -12.2879    0.0000 H   0  0  0  0  0  0  0  0  0  0  0  0
   18.1789  -14.0111    0.0000 H   0  0  0  0  0  0  0  0  0  0  0  0
   15.6980  -14.7826    0.0000 H   0  0  0  0  0  0  0  0  0  0  0  0
  1  2  1  0
  2  3  1  0
  3  4  1  0
  4  5  2  0
  4  6  1  0
  6  7  1  0
  7  8  1  0
  8  9  1  0
  9 10  1  0
  9 11  1  0
  7 12  1  0
 12 13  2  0
 12 14  1  0
 14 15  1  0
 15 16  1  0
 16 17  1  0
 15 18  1  0
 18 19  2  0
 18 20  1  0
 20 21  1  0
 21 22  1  0
 22 23  1  0
 23 24  1  0
 24 25  1  0
 24 26  2  0
 21 27  1  0
 27 28  2  0
 27 29  1  0
 29 30  1  0
 30 31  1  0
 31 32  1  0
 32 33  1  0
 33 34  2  0
 33 35  1  0
 30 36  1  0
 36 37  2  0
 36 38  1  0
 38 39  1  0
 39 40  1  0
 40 41  1  0
 40 42  1  0
 39 43  1  0
 43 44  2  0
 43 45  1  0
 45 46  1  0
 46 47  1  0
 47 48  1  0
 48 49  2  0
 49 50  1  0
 50 51  2  0
 51 52  1  0
 52 53  2  0
 46 54  1  0
 54 55  2  0
 54 56  1  0
 56 57  1  0
 57 58  1  0
 58 59  1  0
 57 60  1  0
 60 61  2  0
 60 62  1  0
 62 63  1  0
 63 64  1  0
 64 65  1  0
 65 66  2  0
 65 67  1  0
 63 68  1  0
 68 69  2  0
 68 70  1  0
 70 71  1  0
 71 72  1  0
 72 73  1  0
 73 74  1  0
 73 75  1  0
 71 76  1  0
 76 77  2  0
 76 78  1  0
 78 79  1  0
 79 80  1  0
 80 81  1  0
 81 82  2  0
 82 83  1  0
 83 84  1  0
 84 85  2  0
 85 86  1  0
 86 87  2  0
 87 88  1  0
 88 89  2  0
 79 90  1  0
 90 91  2  0
 90 92  1  0
 92 93  1  0
 93 94  1  0
 94 95  1  0
 95 96  1  0
 96 97  1  0
 97 98  1  0
 93 99  1  0
 99100  2  0
 99101  1  0
101102  1  0
102103  1  0
103104  1  0
104105  1  0
104106  1  0
102107  1  0
107108  2  0
107109  1  0
109110  1  0
110111  1  0
111112  1  0
112113  1  0
112114  1  0
110115  1  0
115116  2  0
115117  1  0
117118  1  0
118119  1  0
119120  1  0
120121  1  0
121122  1  0
122123  2  0
122124  1  0
124125  1  0
125126  1  0
126127  1  0
127128  1  0
128129  2  0
128130  1  0
125131  1  0
131132  2  0
131133  1  0
133134  1  0
134135  1  0
135136  1  0
136137  1  0
136138  2  0
134139  1  0
139140  2  0
139141  1  0
 53 48  1  0
 89 81  1  0
121117  1  0
 89 84  1  0
  1142  1  0
  1143  1  0
  2144  1  0
  2145  1  0
  3146  1  0
  3147  1  0
  6148  1  0
  7149  1  1
  8150  1  0
  8151  1  0
  9152  1  0
 10153  1  0
 10154  1  0
 10155  1  0
 11156  1  0
 11157  1  0
 11158  1  0
 14159  1  0
 15160  1  1
 16161  1  0
 16162  1  0
 17163  1  0
 20164  1  0
 21165  1  6
 22166  1  0
 22167  1  0
 23168  1  0
 23169  1  0
 25170  1  0
 25171  1  0
 29172  1  0
 30173  1  1
 31174  1  0
 31175  1  0
 32176  1  0
 32177  1  0
 38178  1  0
 39179  1  6
 40180  1  6
 41181  1  0
 42182  1  0
 42183  1  0
 42184  1  0
 45185  1  0
 46186  1  6
 47187  1  0
 47188  1  0
 49189  1  0
 50190  1  0
 51191  1  0
 52192  1  0
 53193  1  0
 56194  1  0
 57195  1  6
 58196  1  0
 58197  1  0
 59198  1  0
 62199  1  0
 63200  1  1
 64201  1  0
 64202  1  0
 70203  1  0
 71204  1  1
 72205  1  0
 72206  1  0
 73207  1  0
 74208  1  0
 74209  1  0
 74210  1  0
 75211  1  0
 75212  1  0
 75213  1  0
 78214  1  0
 79215  1  1
 80216  1  0
 80217  1  0
 82218  1  0
 83219  1  0
 85220  1  0
 86221  1  0
 87222  1  0
 88223  1  0
 92224  1  0
 93225  1  1
 94226  1  0
 94227  1  0
 95228  1  0
 95229  1  0
 96230  1  0
 96231  1  0
 97232  1  0
 97233  1  0
 98234  1  0
 98235  1  0
 98236  1  0
101237  1  0
102238  1  6
103239  1  0
103240  1  0
104241  1  0
105242  1  0
105243  1  0
105244  1  0
106245  1  0
106246  1  0
106247  1  0
109248  1  0
110249  1  6
111250  1  0
111251  1  0
112252  1  0
113253  1  0
113254  1  0
113255  1  0
114256  1  0
114257  1  0
114258  1  0
118259  1  0
118260  1  0
119261  1  0
119262  1  0
120263  1  0
120264  1  0
121265  1  0
124266  1  0
125267  1  1
126268  1  0
126269  1  0
127270  1  0
127271  1  0
133272  1  0
134273  1  1
135274  1  0
135275  1  0
137276  1  0
137277  1  0
M  CHG  5  35  -1  67  -1  98   1 130  -1 141  -1
M  END
