
     RDKit          2D

336344  0  0  0  0  0  0  0  0999 V2000
   15.5416   -3.9040    0.0000 C   0  0  0  0  0  0  0  0  0  0  0  0
   16.8218   -4.6856    0.0000 N   0  0  0  0  0  0  0  0  0  0  0  0
   16.7851   -6.1852    0.0000 C   0  0  0  0  0  0  0  0  0  0  0  0
   15.4681   -6.9031    0.0000 C   0  0  0  0  0  0  0  0  0  0  0  0
   15.4313   -8.4027    0.0000 C   0  0  0  0  0  0  0  0  0  0  0  0
   16.7116   -9.1843    0.0000 C   0  0  0  0  0  0  0  0  0  0  0  0
   18.0286   -8.4663    0.0000 C   0  0  0  0  0  0  0  0  0  0  0  0
   18.0654   -6.9668    0.0000 C   0  0  0  0  0  0  0  0  0  0  0  0
   19.1184   -9.4970    0.0000 C   0  0  0  0  0  0  0  0  0  0  0  0
   18.4749  -10.8520    0.0000 O   0  0  0  0  0  0  0  0  0  0  0  0
   16.9874  -10.6587    0.0000 C   0  0  0  0  0  0  0  0  0  0  0  0
   15.9567  -11.7485    0.0000 O   0  0  0  0  0  0  0  0  0  0  0  0
   20.0945  -10.6360    0.0000 C   0  0  0  0  0  0  0  0  0  0  0  0
   21.5689  -10.3601    0.0000 C   0  0  0  0  0  0  0  0  0  0  0  0
   22.5450  -11.4991    0.0000 C   0  0  0  0  0  0  0  0  0  0  0  0
   22.0467  -12.9139    0.0000 C   0  0  0  0  0  0  0  0  0  0  0  0
   20.5723  -13.1897    0.0000 C   0  0  0  0  0  0  0  0  0  0  0  0
   19.5962  -12.0508    0.0000 C   0  0  0  0  0  0  0  0  0  0  0  0
   23.0228  -14.0529    0.0000 O   0  0  0  0  0  0  0  0  0  0  0  0
   22.0673   -8.9453    0.0000 O   0  0  0  0  0  0  0  0  0  0  0  0
   21.0912   -7.8064    0.0000 C   0  0  0  0  0  0  0  0  0  0  0  0
   19.6167   -8.0822    0.0000 C   0  0  0  0  0  0  0  0  0  0  0  0
   19.3287   -6.8145    0.0000 C   0  0  0  0  0  0  0  0  0  0  0  0
   19.5945   -6.0599    0.0000 C   0  0  0  0  0  0  0  0  0  0  0  0
   20.3809   -5.9128    0.0000 C   0  0  0  0  0  0  0  0  0  0  0  0
   20.9014   -6.5203    0.0000 C   0  0  0  0  0  0  0  0  0  0  0  0
   21.1117   -3.8378    0.0000 O   0  0  0  0  0  0  0  0  0  0  0  0
   14.2245   -4.6220    0.0000 S   0  0  0  0  0  0  0  0  0  0  0  0
   15.5783   -2.4045    0.0000 N   0  0  0  0  0  0  0  0  0  0  0  0
   14.2980   -1.6229    0.0000 C   0  0  0  0  0  0  0  0  0  0  0  0
   14.3348   -0.1233    0.0000 C   0  0  0  0  0  0  0  0  0  0  0  0
   13.0545    0.6583    0.0000 C   0  0  0  0  0  0  0  0  0  0  0  0
   12.0823   -0.4840    0.0000 O   0  0  0  0  0  0  0  0  0  0  0  0
   13.0912    2.1578    0.0000 N   0  0  0  0  0  0  0  0  0  0  0  0
   11.8110    2.9394    0.0000 C   0  0  0  0  0  0  0  0  0  0  0  0
   11.6251    1.4510    0.0000 C   0  0  0  0  0  0  0  0  0  0  0  0
   11.0088    0.0835    0.0000 C   0  0  0  0  0  0  0  0  0  0  0  0
   10.0167   -1.0416    0.0000 C   0  0  0  0  0  0  0  0  0  0  0  0
    8.7371   -1.8243    0.0000 C   0  0  0  0  0  0  0  0  0  0  0  0
   13.0500    3.7850    0.0000 C   0  0  0  0  0  0  0  0  0  0  0  0
   11.5498    4.4165    0.0000 C   0  0  0  0  0  0  0  0  0  0  0  0
   12.9715    4.8949    0.0000 O   0  0  0  0  0  0  0  0  0  0  0  0
   10.8650    5.7510    0.0000 N   0  0  0  0  0  0  0  0  0  0  0  0
    9.8171    6.8244    0.0000 C   0  0  0  0  0  0  0  0  0  0  0  0
    9.9286    8.3202    0.0000 C   0  0  0  0  0  0  0  0  0  0  0  0
   11.2797    8.9717    0.0000 C   0  0  0  0  0  0  0  0  0  0  0  0
   11.3912   10.4675    0.0000 C   0  0  0  0  0  0  0  0  0  0  0  0
   12.7424   11.1189    0.0000 N   0  0  0  0  0  0  0  0  0  0  0  0
   12.8538   12.6148    0.0000 C   0  0  0  0  0  0  0  0  0  0  0  0
   14.2050   13.2662    0.0000 N   0  0  0  0  0  0  0  0  0  0  0  0
   11.6141   13.4592    0.0000 N   0  0  0  0  0  0  0  0  0  0  0  0
    8.4995    7.5412    0.0000 C   0  0  0  0  0  0  0  0  0  0  0  0
    9.0119    8.9510    0.0000 O   0  0  0  0  0  0  0  0  0  0  0  0
    7.0291    7.8378    0.0000 N   0  0  0  0  0  0  0  0  0  0  0  0
    5.5366    7.6878    0.0000 C   0  0  0  0  0  0  0  0  0  0  0  0
    4.4366    8.7076    0.0000 C   0  0  0  0  0  0  0  0  0  0  0  0
    4.7697   10.1701    0.0000 C   0  0  0  0  0  0  0  0  0  0  0  0
    3.6697   11.1899    0.0000 C   0  0  0  0  0  0  0  0  0  0  0  0
    4.0029   12.6524    0.0000 N   0  0  0  0  0  0  0  0  0  0  0  0
    2.9029   13.6722    0.0000 C   0  0  0  0  0  0  0  0  0  0  0  0
    3.2360   15.1347    0.0000 N   0  0  0  0  0  0  0  0  0  0  0  0
    1.4697   13.2294    0.0000 N   0  0  0  0  0  0  0  0  0  0  0  0
    4.1547    7.1045    0.0000 C   0  0  0  0  0  0  0  0  0  0  0  0
    3.3720    8.3841    0.0000 O   0  0  0  0  0  0  0  0  0  0  0  0
    3.0060    6.1398    0.0000 N   0  0  0  0  0  0  0  0  0  0  0  0
    2.1927    4.8795    0.0000 C   0  0  0  0  0  0  0  0  0  0  0  0
    0.7096    4.6552    0.0000 C   0  0  0  0  0  0  0  0  0  0  0  0
   -0.2262    5.8276    0.0000 C   0  0  0  0  0  0  0  0  0  0  0  0
   -1.7093    5.6034    0.0000 C   0  0  0  0  0  0  0  0  0  0  0  0
   -2.6450    6.7757    0.0000 N   0  0  0  0  0  0  0  0  0  0  0  0
   -4.1282    6.5515    0.0000 C   0  0  0  0  0  0  0  0  0  0  0  0
   -4.9141    7.8292    0.0000 N   0  0  0  0  0  0  0  0  0  0  0  0
   -4.9973    5.3289    0.0000 N   0  0  0  0  0  0  0  0  0  0  0  0
    1.7871    3.4353    0.0000 C   0  0  0  0  0  0  0  0  0  0  0  0
    1.0059    3.8528    0.0000 O   0  0  0  0  0  0  0  0  0  0  0  0
    1.8252    1.9358    0.0000 N   0  0  0  0  0  0  0  0  0  0  0  0
    2.3035    0.5141    0.0000 C   0  0  0  0  0  0  0  0  0  0  0  0
    3.1796   -0.7034    0.0000 C   0  0  0  0  0  0  0  0  0  0  0  0
    4.3757   -1.6086    0.0000 C   0  0  0  0  0  0  0  0  0  0  0  0
    5.7855   -2.1210    0.0000 C   0  0  0  0  0  0  0  0  0  0  0  0
    7.2837   -2.1951    0.0000 C   0  0  0  0  0  0  0  0  0  0  0  0
    2.1864   -1.0754    0.0000 C   0  0  0  0  0  0  0  0  0  0  0  0
    2.4427   -2.4181    0.0000 C   0  0  0  0  0  0  0  0  0  0  0  0
    2.4402   -3.7850    0.0000 C   0  0  0  0  0  0  0  0  0  0  0  0
    2.1790   -5.1268    0.0000 C   0  0  0  0  0  0  0  0  0  0  0  0
    0.9438    1.3458    0.0000 C   0  0  0  0  0  0  0  0  0  0  0  0
    2.6756    2.7026    0.0000 O   0  0  0  0  0  0  0  0  0  0  0  0
    0.0024    2.3368    0.0000 N   0  0  0  0  0  0  0  0  0  0  0  0
   -1.1097    3.1317    0.0000 C   0  0  0  0  0  0  0  0  0  0  0  0
   -0.8034    5.2367    0.0000 C   0  0  0  0  0  0  0  0  0  0  0  0
   -2.1243    5.9475    0.0000 C   0  0  0  0  0  0  0  0  0  0  0  0
   -2.1691    7.4468    0.0000 C   0  0  0  0  0  0  0  0  0  0  0  0
   -3.4900    8.1576    0.0000 N   0  0  0  0  0  0  0  0  0  0  0  0
   -3.5348    9.6570    0.0000 C   0  0  0  0  0  0  0  0  0  0  0  0
   -4.6445   10.6663    0.0000 N   0  0  0  0  0  0  0  0  0  0  0  0
   -2.2588   10.4455    0.0000 N   0  0  0  0  0  0  0  0  0  0  0  0
   -2.3520    3.7019    0.0000 C   0  0  0  0  0  0  0  0  0  0  0  0
   -2.3516    5.8452    0.0000 O   0  0  0  0  0  0  0  0  0  0  0  0
   -3.6798    4.0266    0.0000 N   0  0  0  0  0  0  0  0  0  0  0  0
   -5.0451    4.0941    0.0000 C   0  0  0  0  0  0  0  0  0  0  0  0
   -5.9254    6.0304    0.0000 C   0  0  0  0  0  0  0  0  0  0  0  0
   -5.2782    7.3836    0.0000 C   0  0  0  0  0  0  0  0  0  0  0  0
   -6.1266    8.6207    0.0000 C   0  0  0  0  0  0  0  0  0  0  0  0
   -5.4794    9.9739    0.0000 N   0  0  0  0  0  0  0  0  0  0  0  0
   -6.3277   11.2110    0.0000 C   0  0  0  0  0  0  0  0  0  0  0  0
   -5.6805   12.5642    0.0000 N   0  0  0  0  0  0  0  0  0  0  0  0
   -7.8232   11.0949    0.0000 N   0  0  0  0  0  0  0  0  0  0  0  0
   -6.3984    3.9021    0.0000 C   0  0  0  0  0  0  0  0  0  0  0  0
   -7.0883    5.9873    0.0000 O   0  0  0  0  0  0  0  0  0  0  0  0
   -7.6910    3.4573    0.0000 N   0  0  0  0  0  0  0  0  0  0  0  0
   -8.8760    2.7761    0.0000 C   0  0  0  0  0  0  0  0  0  0  0  0
  -10.6635    3.9291    0.0000 C   0  0  0  0  0  0  0  0  0  0  0  0
  -10.8506    5.4173    0.0000 C   0  0  0  0  0  0  0  0  0  0  0  0
  -12.2331    5.9994    0.0000 C   0  0  0  0  0  0  0  0  0  0  0  0
  -12.4203    7.4877    0.0000 N   0  0  0  0  0  0  0  0  0  0  0  0
  -13.8027    8.0697    0.0000 C   0  0  0  0  0  0  0  0  0  0  0  0
  -13.9899    9.5580    0.0000 N   0  0  0  0  0  0  0  0  0  0  0  0
  -14.9980    7.1635    0.0000 N   0  0  0  0  0  0  0  0  0  0  0  0
   -9.9107    1.8828    0.0000 C   0  0  0  0  0  0  0  0  0  0  0  0
  -11.6185    3.2641    0.0000 O   0  0  0  0  0  0  0  0  0  0  0  0
  -10.7576    0.8099    0.0000 N   0  0  0  0  0  0  0  0  0  0  0  0
  -11.3862   -0.4039    0.0000 C   0  0  0  0  0  0  0  0  0  0  0  0
  -13.5133   -0.4003    0.0000 C   0  0  0  0  0  0  0  0  0  0  0  0
  -14.4754    0.7505    0.0000 C   0  0  0  0  0  0  0  0  0  0  0  0
  -14.1098    2.2053    0.0000 C   0  0  0  0  0  0  0  0  0  0  0  0
  -15.3804    3.0025    0.0000 N   0  0  0  0  0  0  0  0  0  0  0  0
  -16.5313    2.0404    0.0000 C   0  0  0  0  0  0  0  0  0  0  0  0
  -18.0163    2.2519    0.0000 C   0  0  0  0  0  0  0  0  0  0  0  0
  -18.9419    1.0716    0.0000 C   0  0  0  0  0  0  0  0  0  0  0  0
  -18.3826   -0.3202    0.0000 C   0  0  0  0  0  0  0  0  0  0  0  0
  -16.8976   -0.5317    0.0000 C   0  0  0  0  0  0  0  0  0  0  0  0
  -15.9719    0.6486    0.0000 C   0  0  0  0  0  0  0  0  0  0  0  0
  -11.7737   -1.7148    0.0000 C   0  0  0  0  0  0  0  0  0  0  0  0
  -13.9572   -1.4761    0.0000 O   0  0  0  0  0  0  0  0  0  0  0  0
  -11.9062   -3.0753    0.0000 N   0  0  0  0  0  0  0  0  0  0  0  0
  -11.7787   -4.4362    0.0000 C   0  0  0  0  0  0  0  0  0  0  0  0
  -13.5701   -5.5832    0.0000 C   0  0  0  0  0  0  0  0  0  0  0  0
  -15.0016   -5.1352    0.0000 C   0  0  0  0  0  0  0  0  0  0  0  0
  -16.1054   -6.1509    0.0000 C   0  0  0  0  0  0  0  0  0  0  0  0
  -17.5369   -5.7029    0.0000 N   0  0  0  0  0  0  0  0  0  0  0  0
  -18.6406   -6.7187    0.0000 C   0  0  0  0  0  0  0  0  0  0  0  0
  -20.0722   -6.2707    0.0000 N   0  0  0  0  0  0  0  0  0  0  0  0
  -18.3129   -8.1824    0.0000 N   0  0  0  0  0  0  0  0  0  0  0  0
  -11.3960   -5.7485    0.0000 C   0  0  0  0  0  0  0  0  0  0  0  0
  -13.3619   -6.7281    0.0000 O   0  0  0  0  0  0  0  0  0  0  0  0
  -10.7719   -6.9646    0.0000 N   0  0  0  0  0  0  0  0  0  0  0  0
   -9.9289   -8.0406    0.0000 C   0  0  0  0  0  0  0  0  0  0  0  0
  -10.8158   -9.9740    0.0000 C   0  0  0  0  0  0  0  0  0  0  0  0
  -12.2623  -10.3710    0.0000 C   0  0  0  0  0  0  0  0  0  0  0  0
  -12.6416  -11.8223    0.0000 C   0  0  0  0  0  0  0  0  0  0  0  0
  -14.0881  -12.2193    0.0000 N   0  0  0  0  0  0  0  0  0  0  0  0
  -14.4675  -13.6706    0.0000 C   0  0  0  0  0  0  0  0  0  0  0  0
  -15.9140  -14.0676    0.0000 N   0  0  0  0  0  0  0  0  0  0  0  0
  -13.4004  -14.7247    0.0000 N   0  0  0  0  0  0  0  0  0  0  0  0
   -8.8975   -8.9377    0.0000 C   0  0  0  0  0  0  0  0  0  0  0  0
  -10.0216  -10.8246    0.0000 O   0  0  0  0  0  0  0  0  0  0  0  0
   -7.7149   -9.6233    0.0000 N   0  0  0  0  0  0  0  0  0  0  0  0
   -6.4240  -10.0727    0.0000 C   0  0  0  0  0  0  0  0  0  0  0  0
   -5.0714  -10.2697    0.0000 C   0  0  0  0  0  0  0  0  0  0  0  0
   -3.7059  -10.2072    0.0000 C   0  0  0  0  0  0  0  0  0  0  0  0
   -2.3769   -9.8874    0.0000 C   0  0  0  0  0  0  0  0  0  0  0  0
   -1.1325   -9.3218    0.0000 C   0  0  0  0  0  0  0  0  0  0  0  0
   -0.0176   -8.5310    0.0000 C   0  0  0  0  0  0  0  0  0  0  0  0
    0.9275   -7.5434    0.0000 C   0  0  0  0  0  0  0  0  0  0  0  0
    1.6687   -6.3948    0.0000 C   0  0  0  0  0  0  0  0  0  0  0  0
   -7.6613  -11.8030    0.0000 C   0  0  0  0  0  0  0  0  0  0  0  0
   -6.1249  -12.1787    0.0000 C   0  0  0  0  0  0  0  0  0  0  0  0
   -6.9835  -13.4086    0.0000 O   0  0  0  0  0  0  0  0  0  0  0  0
   -4.7758  -12.8345    0.0000 O   0  0  0  0  0  0  0  0  0  0  0  0
   18.0415   -3.8125    0.0000 H   0  0  0  0  0  0  0  0  0  0  0  0
   14.1878   -6.1215    0.0000 H   0  0  0  0  0  0  0  0  0  0  0  0
   14.1143   -9.1206    0.0000 H   0  0  0  0  0  0  0  0  0  0  0  0
   19.1695   -5.9514    0.0000 H   0  0  0  0  0  0  0  0  0  0  0  0
   24.0194  -11.2233    0.0000 H   0  0  0  0  0  0  0  0  0  0  0  0
   20.0739  -14.6045    0.0000 H   0  0  0  0  0  0  0  0  0  0  0  0
   18.1217  -12.3266    0.0000 H   0  0  0  0  0  0  0  0  0  0  0  0
   22.5244  -15.4677    0.0000 H   0  0  0  0  0  0  0  0  0  0  0  0
   17.1662   -7.2191    0.0000 H   0  0  0  0  0  0  0  0  0  0  0  0
   18.3090   -4.2790    0.0000 H   0  0  0  0  0  0  0  0  0  0  0  0
   23.0639   -6.1157    0.0000 H   0  0  0  0  0  0  0  0  0  0  0  0
   22.5862   -3.5620    0.0000 H   0  0  0  0  0  0  0  0  0  0  0  0
   16.8953   -1.6865    0.0000 H   0  0  0  0  0  0  0  0  0  0  0  0
   13.7506   -3.0194    0.0000 H   0  0  0  0  0  0  0  0  0  0  0  0
   12.8276   -1.3263    0.0000 H   0  0  0  0  0  0  0  0  0  0  0  0
   15.8052   -0.4199    0.0000 H   0  0  0  0  0  0  0  0  0  0  0  0
   14.8822    1.2732    0.0000 H   0  0  0  0  0  0  0  0  0  0  0  0
   14.4860    2.7099    0.0000 H   0  0  0  0  0  0  0  0  0  0  0  0
   13.1228    1.5338    0.0000 H   0  0  0  0  0  0  0  0  0  0  0  0
   12.4737    0.2141    0.0000 H   0  0  0  0  0  0  0  0  0  0  0  0
   12.3334   -0.6203    0.0000 H   0  0  0  0  0  0  0  0  0  0  0  0
   11.7883   -1.1981    0.0000 H   0  0  0  0  0  0  0  0  0  0  0  0
   11.3858   -1.6546    0.0000 H   0  0  0  0  0  0  0  0  0  0  0  0
   10.2039   -2.5299    0.0000 H   0  0  0  0  0  0  0  0  0  0  0  0
    9.3204   -3.2063    0.0000 H   0  0  0  0  0  0  0  0  0  0  0  0
   14.4709    3.3043    0.0000 H   0  0  0  0  0  0  0  0  0  0  0  0
   13.9250    5.0032    0.0000 H   0  0  0  0  0  0  0  0  0  0  0  0
   12.2930    5.0799    0.0000 H   0  0  0  0  0  0  0  0  0  0  0  0
   12.0825    6.6272    0.0000 H   0  0  0  0  0  0  0  0  0  0  0  0
   11.2786    7.1624    0.0000 H   0  0  0  0  0  0  0  0  0  0  0  0
    9.3487    9.7036    0.0000 H   0  0  0  0  0  0  0  0  0  0  0  0
    8.4442    8.5358    0.0000 H   0  0  0  0  0  0  0  0  0  0  0  0
   12.7722    9.1217    0.0000 H   0  0  0  0  0  0  0  0  0  0  0  0
   11.8596    7.5883    0.0000 H   0  0  0  0  0  0  0  0  0  0  0  0
   10.9843   11.9113    0.0000 H   0  0  0  0  0  0  0  0  0  0  0  0
    9.8916   10.5006    0.0000 H   0  0  0  0  0  0  0  0  0  0  0  0
   13.9821   10.2745    0.0000 H   0  0  0  0  0  0  0  0  0  0  0  0
   14.3164   14.7620    0.0000 H   0  0  0  0  0  0  0  0  0  0  0  0
   11.7255   14.9551    0.0000 H   0  0  0  0  0  0  0  0  0  0  0  0
   10.2629   12.8078    0.0000 H   0  0  0  0  0  0  0  0  0  0  0  0
    7.1032    9.3359    0.0000 H   0  0  0  0  0  0  0  0  0  0  0  0
    6.1835    9.0411    0.0000 H   0  0  0  0  0  0  0  0  0  0  0  0
    2.9935    9.1168    0.0000 H   0  0  0  0  0  0  0  0  0  0  0  0
    3.3425    7.6814    0.0000 H   0  0  0  0  0  0  0  0  0  0  0  0
    5.5830   11.4305    0.0000 H   0  0  0  0  0  0  0  0  0  0  0  0
    6.2129    9.7609    0.0000 H   0  0  0  0  0  0  0  0  0  0  0  0
    2.2873   11.7719    0.0000 H   0  0  0  0  0  0  0  0  0  0  0  0
    2.7089   10.0380    0.0000 H   0  0  0  0  0  0  0  0  0  0  0  0
    5.4360   13.0952    0.0000 H   0  0  0  0  0  0  0  0  0  0  0  0
    2.1360   16.1545    0.0000 H   0  0  0  0  0  0  0  0  0  0  0  0
    0.3697   14.2492    0.0000 H   0  0  0  0  0  0  0  0  0  0  0  0
    1.1365   11.7669    0.0000 H   0  0  0  0  0  0  0  0  0  0  0  0
    1.8809    7.1319    0.0000 H   0  0  0  0  0  0  0  0  0  0  0  0
    1.5380    6.2290    0.0000 H   0  0  0  0  0  0  0  0  0  0  0  0
   -0.6851    4.1032    0.0000 H   0  0  0  0  0  0  0  0  0  0  0  0
    0.6466    3.1566    0.0000 H   0  0  0  0  0  0  0  0  0  0  0  0
   -0.3463    7.3228    0.0000 H   0  0  0  0  0  0  0  0  0  0  0  0
    0.9935    6.7007    0.0000 H   0  0  0  0  0  0  0  0  0  0  0  0
   -3.1040    5.0513    0.0000 H   0  0  0  0  0  0  0  0  0  0  0  0
   -1.7723    4.1047    0.0000 H   0  0  0  0  0  0  0  0  0  0  0  0
   -2.6346    8.2757    0.0000 H   0  0  0  0  0  0  0  0  0  0  0  0
   -6.5471    7.4996    0.0000 H   0  0  0  0  0  0  0  0  0  0  0  0
   -6.1986    5.0753    0.0000 H   0  0  0  0  0  0  0  0  0  0  0  0
   -4.1030    3.7184    0.0000 H   0  0  0  0  0  0  0  0  0  0  0  0
    0.3481    1.6747    0.0000 H   0  0  0  0  0  0  0  0  0  0  0  0
    3.0273   -2.1956    0.0000 H   0  0  0  0  0  0  0  0  0  0  0  0
    1.7095   -1.0012    0.0000 H   0  0  0  0  0  0  0  0  0  0  0  0
    4.6700   -3.0794    0.0000 H   0  0  0  0  0  0  0  0  0  0  0  0
    3.4036   -2.7509    0.0000 H   0  0  0  0  0  0  0  0  0  0  0  0
    6.3341   -3.5171    0.0000 H   0  0  0  0  0  0  0  0  0  0  0  0
    5.1932   -3.4991    0.0000 H   0  0  0  0  0  0  0  0  0  0  0  0
    7.4337   -3.6876    0.0000 H   0  0  0  0  0  0  0  0  0  0  0  0
    3.8606    0.2366    0.0000 H   0  0  0  0  0  0  0  0  0  0  0  0
    4.2436   -1.4549    0.0000 H   0  0  0  0  0  0  0  0  0  0  0  0
    4.5803   -1.9353    0.0000 H   0  0  0  0  0  0  0  0  0  0  0  0
    4.3909   -3.1801    0.0000 H   0  0  0  0  0  0  0  0  0  0  0  0
    4.6306   -3.7155    0.0000 H   0  0  0  0  0  0  0  0  0  0  0  0
    4.3288   -4.7634    0.0000 H   0  0  0  0  0  0  0  0  0  0  0  0
    4.2888   -5.7504    0.0000 H   0  0  0  0  0  0  0  0  0  0  0  0
    1.3008    4.1084    0.0000 H   0  0  0  0  0  0  0  0  0  0  0  0
    0.3548    4.7426    0.0000 H   0  0  0  0  0  0  0  0  0  0  0  0
   -0.3327    6.6609    0.0000 H   0  0  0  0  0  0  0  0  0  0  0  0
    0.6435    4.8411    0.0000 H   0  0  0  0  0  0  0  0  0  0  0  0
   -3.6239    5.9811    0.0000 H   0  0  0  0  0  0  0  0  0  0  0  0
   -3.0742    4.7866    0.0000 H   0  0  0  0  0  0  0  0  0  0  0  0
   -1.5284    8.8031    0.0000 H   0  0  0  0  0  0  0  0  0  0  0  0
   -0.6766    7.5962    0.0000 H   0  0  0  0  0  0  0  0  0  0  0  0
   -4.9639    7.8789    0.0000 H   0  0  0  0  0  0  0  0  0  0  0  0
   -4.9006   11.8671    0.0000 H   0  0  0  0  0  0  0  0  0  0  0  0
   -2.3036   11.9448    0.0000 H   0  0  0  0  0  0  0  0  0  0  0  0
   -0.9379    9.7346    0.0000 H   0  0  0  0  0  0  0  0  0  0  0  0
   -3.3627    6.2036    0.0000 H   0  0  0  0  0  0  0  0  0  0  0  0
   -4.6840    6.2409    0.0000 H   0  0  0  0  0  0  0  0  0  0  0  0
   -7.2429    6.7475    0.0000 H   0  0  0  0  0  0  0  0  0  0  0  0
   -7.3017    5.4339    0.0000 H   0  0  0  0  0  0  0  0  0  0  0  0
   -4.4932    8.6618    0.0000 H   0  0  0  0  0  0  0  0  0  0  0  0
   -4.1734    6.3691    0.0000 H   0  0  0  0  0  0  0  0  0  0  0  0
   -7.3468    9.4930    0.0000 H   0  0  0  0  0  0  0  0  0  0  0  0
   -7.4198    7.8608    0.0000 H   0  0  0  0  0  0  0  0  0  0  0  0
   -4.0564   10.4485    0.0000 H   0  0  0  0  0  0  0  0  0  0  0  0
   -6.5289   13.8013    0.0000 H   0  0  0  0  0  0  0  0  0  0  0  0
   -8.6715   12.3319    0.0000 H   0  0  0  0  0  0  0  0  0  0  0  0
   -8.4704    9.7417    0.0000 H   0  0  0  0  0  0  0  0  0  0  0  0
   -8.4301    5.5257    0.0000 H   0  0  0  0  0  0  0  0  0  0  0  0
   -9.1902    4.8442    0.0000 H   0  0  0  0  0  0  0  0  0  0  0  0
  -12.1616    4.0032    0.0000 H   0  0  0  0  0  0  0  0  0  0  0  0
  -11.3406    2.5906    0.0000 H   0  0  0  0  0  0  0  0  0  0  0  0
  -10.5175    6.8799    0.0000 H   0  0  0  0  0  0  0  0  0  0  0  0
   -9.3791    5.7079    0.0000 H   0  0  0  0  0  0  0  0  0  0  0  0
  -13.7313    6.0735    0.0000 H   0  0  0  0  0  0  0  0  0  0  0  0
  -12.7420    4.5884    0.0000 H   0  0  0  0  0  0  0  0  0  0  0  0
  -11.2250    8.3939    0.0000 H   0  0  0  0  0  0  0  0  0  0  0  0
  -15.3724   10.1400    0.0000 H   0  0  0  0  0  0  0  0  0  0  0  0
  -16.3805    7.7455    0.0000 H   0  0  0  0  0  0  0  0  0  0  0  0
  -14.8109    5.6752    0.0000 H   0  0  0  0  0  0  0  0  0  0  0  0
  -12.4977    2.1503    0.0000 H   0  0  0  0  0  0  0  0  0  0  0  0
  -12.9228    1.0670    0.0000 H   0  0  0  0  0  0  0  0  0  0  0  0
  -14.8951   -0.9839    0.0000 H   0  0  0  0  0  0  0  0  0  0  0  0
  -13.3593   -1.8924    0.0000 H   0  0  0  0  0  0  0  0  0  0  0  0
  -12.7966    2.9301    0.0000 H   0  0  0  0  0  0  0  0  0  0  0  0
  -15.4823    4.4990    0.0000 H   0  0  0  0  0  0  0  0  0  0  0  0
  -18.5756    3.6437    0.0000 H   0  0  0  0  0  0  0  0  0  0  0  0
  -20.4270    1.2830    0.0000 H   0  0  0  0  0  0  0  0  0  0  0  0
  -19.3082   -1.5006    0.0000 H   0  0  0  0  0  0  0  0  0  0  0  0
  -16.3382   -1.9235    0.0000 H   0  0  0  0  0  0  0  0  0  0  0  0
  -14.0946   -2.8884    0.0000 H   0  0  0  0  0  0  0  0  0  0  0  0
  -13.7905   -3.8629    0.0000 H   0  0  0  0  0  0  0  0  0  0  0  0
  -14.2599   -6.9152    0.0000 H   0  0  0  0  0  0  0  0  0  0  0  0
  -12.6339   -6.7552    0.0000 H   0  0  0  0  0  0  0  0  0  0  0  0
  -16.1936   -4.2246    0.0000 H   0  0  0  0  0  0  0  0  0  0  0  0
  -14.6546   -3.6759    0.0000 H   0  0  0  0  0  0  0  0  0  0  0  0
  -16.7951   -7.4829    0.0000 H   0  0  0  0  0  0  0  0  0  0  0  0
  -15.0333   -7.2000    0.0000 H   0  0  0  0  0  0  0  0  0  0  0  0
  -17.8647   -4.2392    0.0000 H   0  0  0  0  0  0  0  0  0  0  0  0
  -21.1759   -7.2864    0.0000 H   0  0  0  0  0  0  0  0  0  0  0  0
  -19.4166   -9.1982    0.0000 H   0  0  0  0  0  0  0  0  0  0  0  0
  -16.8813   -8.6304    0.0000 H   0  0  0  0  0  0  0  0  0  0  0  0
  -12.7140   -7.9906    0.0000 H   0  0  0  0  0  0  0  0  0  0  0  0
  -11.9313   -8.6460    0.0000 H   0  0  0  0  0  0  0  0  0  0  0  0
  -10.6759  -11.4675    0.0000 H   0  0  0  0  0  0  0  0  0  0  0  0
   -9.3946  -10.4538    0.0000 H   0  0  0  0  0  0  0  0  0  0  0  0
  -13.7573  -10.2494    0.0000 H   0  0  0  0  0  0  0  0  0  0  0  0
  -12.7593   -8.9558    0.0000 H   0  0  0  0  0  0  0  0  0  0  0  0
  -12.5018  -13.3157    0.0000 H   0  0  0  0  0  0  0  0  0  0  0  0
  -11.1726  -12.1252    0.0000 H   0  0  0  0  0  0  0  0  0  0  0  0
  -15.1552  -11.1652    0.0000 H   0  0  0  0  0  0  0  0  0  0  0  0
  -16.2934  -15.5189    0.0000 H   0  0  0  0  0  0  0  0  0  0  0  0
  -13.7798  -16.1760    0.0000 H   0  0  0  0  0  0  0  0  0  0  0  0
  -11.9539  -14.3277    0.0000 H   0  0  0  0  0  0  0  0  0  0  0  0
   -8.7940  -11.5364    0.0000 H   0  0  0  0  0  0  0  0  0  0  0  0
   -4.3791  -12.2810    0.0000 H   0  0  0  0  0  0  0  0  0  0  0  0
   -5.6349  -12.3725    0.0000 H   0  0  0  0  0  0  0  0  0  0  0  0
   -2.7929  -12.1598    0.0000 H   0  0  0  0  0  0  0  0  0  0  0  0
   -3.8613  -12.3787    0.0000 H   0  0  0  0  0  0  0  0  0  0  0  0
   -1.1109  -11.6319    0.0000 H   0  0  0  0  0  0  0  0  0  0  0  0
   -2.3016  -12.0415    0.0000 H   0  0  0  0  0  0  0  0  0  0  0  0
    0.4408  -10.7952    0.0000 H   0  0  0  0  0  0  0  0  0  0  0  0
   -0.6508  -11.4228    0.0000 H   0  0  0  0  0  0  0  0  0  0  0  0
    1.8061   -9.6800    0.0000 H   0  0  0  0  0  0  0  0  0  0  0  0
    0.8530  -10.5028    0.0000 H   0  0  0  0  0  0  0  0  0  0  0  0
    2.9674   -8.1461    0.0000 H   0  0  0  0  0  0  0  0  0  0  0  0
    2.1555   -9.3149    0.0000 H   0  0  0  0  0  0  0  0  0  0  0  0
    3.6222   -7.4065    0.0000 H   0  0  0  0  0  0  0  0  0  0  0  0
   -7.4671  -13.2903    0.0000 H   0  0  0  0  0  0  0  0  0  0  0  0
   -8.9410  -12.5854    0.0000 H   0  0  0  0  0  0  0  0  0  0  0  0
   -8.7837  -10.8079    0.0000 H   0  0  0  0  0  0  0  0  0  0  0  0
   -4.1918  -13.9145    0.0000 H   0  0  0  0  0  0  0  0  0  0  0  0
  1  2  1  0
  2  3  1  0
  3  4  2  0
  4  5  1  0
  5  6  2  0
  6  7  1  0
  7  8  2  0
  7  9  1  0
  9 10  1  0
 10 11  1  0
 11 12  2  0
  9 13  1  0
 13 14  1  0
 14 15  2  0
 15 16  1  0
 16 17  2  0
 17 18  1  0
 16 19  1  0
 14 20  1  0
 20 21  1  0
 21 22  2  0
 22 23  1  0
 23 24  2  0
 24 25  1  0
 25 26  2  0
 25 27  1  0
  1 28  2  0
  1 29  1  0
 29 30  1  0
 30 31  1  0
 31 32  1  0
 32 33  2  0
 32 34  1  0
 35 34  1  1
 35 36  1  0
 36 37  1  0
 37 38  1  0
 38 39  1  0
 35 40  1  0
 35 41  1  0
 41 42  2  0
 41 43  1  0
 43 44  1  0
 44 45  1  0
 45 46  1  0
 46 47  1  0
 47 48  1  0
 48 49  1  0
 49 50  2  3
 49 51  1  0
 44 52  1  0
 52 53  2  0
 52 54  1  0
 54 55  1  0
 55 56  1  0
 56 57  1  0
 57 58  1  0
 58 59  1  0
 59 60  1  0
 60 61  2  3
 60 62  1  0
 55 63  1  0
 63 64  2  0
 63 65  1  0
 65 66  1  0
 66 67  1  0
 67 68  1  0
 68 69  1  0
 69 70  1  0
 70 71  1  0
 71 72  2  3
 71 73  1  0
 66 74  1  0
 74 75  2  0
 74 76  1  0
 76 77  1  0
 77 78  1  0
 78 79  1  0
 79 80  1  0
 80 81  1  0
 77 82  1  0
 82 83  1  0
 83 84  1  0
 84 85  1  0
 77 86  1  0
 86 87  2  0
 86 88  1  0
 88 89  1  0
 89 90  1  0
 90 91  1  0
 91 92  1  0
 92 93  1  0
 93 94  1  0
 94 95  2  3
 94 96  1  0
 89 97  1  0
 97 98  2  0
 97 99  1  0
 99100  1  0
100101  1  0
101102  1  0
102103  1  0
103104  1  0
104105  1  0
105106  2  3
105107  1  0
100108  1  0
108109  2  0
108110  1  0
110111  1  0
111112  1  0
112113  1  0
113114  1  0
114115  1  0
115116  1  0
116117  2  3
116118  1  0
111119  1  0
119120  2  0
119121  1  0
121122  1  0
122123  1  0
123124  1  0
124125  2  0
125126  1  0
126127  1  0
127128  2  0
128129  1  0
129130  2  0
130131  1  0
131132  2  0
122133  1  0
133134  2  0
133135  1  0
135136  1  0
136137  1  0
137138  1  0
138139  1  0
139140  1  0
140141  1  0
141142  2  3
141143  1  0
136144  1  0
144145  2  0
144146  1  0
146147  1  0
147148  1  0
148149  1  0
149150  1  0
150151  1  0
151152  1  0
152153  2  3
152154  1  0
147155  1  0
155156  2  0
155157  1  0
157158  1  0
158159  1  0
159160  1  0
160161  1  0
161162  1  0
162163  1  0
163164  1  0
164165  1  0
158166  1  0
158167  1  1
167168  2  0
167169  1  0
  8  3  1  0
132124  1  0
 11  6  1  0
 39 81  2  0
132127  1  0
 18 13  2  0
 85165  2  0
 22  9  1  0
 26 21  1  0
  2170  1  0
  4171  1  0
  5172  1  0
  8173  1  0
 15174  1  0
 17175  1  0
 18176  1  0
 19177  1  0
 23178  1  0
 24179  1  0
 26180  1  0
 27181  1  0
 29182  1  0
 30183  1  0
 30184  1  0
 31185  1  0
 31186  1  0
 34187  1  0
 36188  1  0
 36189  1  0
 37190  1  0
 37191  1  0
 38192  1  0
 38193  1  0
 39194  1  0
 40195  1  0
 40196  1  0
 40197  1  0
 43198  1  0
 44199  1  6
 45200  1  0
 45201  1  0
 46202  1  0
 46203  1  0
 47204  1  0
 47205  1  0
 48206  1  0
 50207  1  0
 51208  1  0
 51209  1  0
 54210  1  0
 55211  1  6
 56212  1  0
 56213  1  0
 57214  1  0
 57215  1  0
 58216  1  0
 58217  1  0
 59218  1  0
 61219  1  0
 62220  1  0
 62221  1  0
 65222  1  0
 66223  1  6
 67224  1  0
 67225  1  0
 68226  1  0
 68227  1  0
 69228  1  0
 69229  1  0
 70230  1  0
 72231  1  0
 73232  1  0
 73233  1  0
 76234  1  0
 78235  1  0
 78236  1  0
 79237  1  0
 79238  1  0
 80239  1  0
 80240  1  0
 81241  1  0
 82242  1  0
 82243  1  0
 83244  1  0
 83245  1  0
 84246  1  0
 84247  1  0
 85248  1  0
 88249  1  0
 89250  1  6
 90251  1  0
 90252  1  0
 91253  1  0
 91254  1  0
 92255  1  0
 92256  1  0
 93257  1  0
 95258  1  0
 96259  1  0
 96260  1  0
 99261  1  0
100262  1  6
101263  1  0
101264  1  0
102265  1  0
102266  1  0
103267  1  0
103268  1  0
104269  1  0
106270  1  0
107271  1  0
107272  1  0
110273  1  0
111274  1  6
112275  1  0
112276  1  0
113277  1  0
113278  1  0
114279  1  0
114280  1  0
115281  1  0
117282  1  0
118283  1  0
118284  1  0
121285  1  0
122286  1  6
123287  1  0
123288  1  0
125289  1  0
126290  1  0
128291  1  0
129292  1  0
130293  1  0
131294  1  0
135295  1  0
136296  1  6
137297  1  0
137298  1  0
138299  1  0
138300  1  0
139301  1  0
139302  1  0
140303  1  0
142304  1  0
143305  1  0
143306  1  0
146307  1  0
147308  1  6
148309  1  0
148310  1  0
149311  1  0
149312  1  0
150313  1  0
150314  1  0
151315  1  0
153316  1  0
154317  1  0
154318  1  0
157319  1  0
159320  1  0
159321  1  0
160322  1  0
160323  1  0
161324  1  0
161325  1  0
162326  1  0
162327  1  0
163328  1  0
163329  1  0
164330  1  0
164331  1  0
165332  1  0
166333  1  0
166334  1  0
166335  1  0
169336  1  0
M  END
