
     RDKit          2D

343348  0  0  0  0  0  0  0  0999 V2000
  -31.2573    0.1923    0.0000 C   0  0  0  0  0  0  0  0  0  0  0  0
  -32.5382   -0.5884    0.0000 N   0  0  0  0  0  0  0  0  0  0  0  0
  -33.8547    0.1305    0.0000 C   0  0  0  0  0  0  0  0  0  0  0  0
  -33.8903    1.6301    0.0000 C   0  0  0  0  0  0  0  0  0  0  0  0
  -35.2068    2.3490    0.0000 C   0  0  0  0  0  0  0  0  0  0  0  0
  -36.4877    1.5683    0.0000 C   0  0  0  0  0  0  0  0  0  0  0  0
  -36.4520    0.0687    0.0000 C   0  0  0  0  0  0  0  0  0  0  0  0
  -35.1355   -0.6502    0.0000 C   0  0  0  0  0  0  0  0  0  0  0  0
  -37.8672   -0.4286    0.0000 C   0  0  0  0  0  0  0  0  0  0  0  0
  -38.7775    0.7637    0.0000 O   0  0  0  0  0  0  0  0  0  0  0  0
  -37.9249    1.9978    0.0000 C   0  0  0  0  0  0  0  0  0  0  0  0
  -38.4222    3.4130    0.0000 O   0  0  0  0  0  0  0  0  0  0  0  0
  -39.3266   -0.7752    0.0000 C   0  0  0  0  0  0  0  0  0  0  0  0
  -39.7560   -2.2124    0.0000 C   0  0  0  0  0  0  0  0  0  0  0  0
  -41.2154   -2.5591    0.0000 C   0  0  0  0  0  0  0  0  0  0  0  0
  -42.2454   -1.4685    0.0000 C   0  0  0  0  0  0  0  0  0  0  0  0
  -41.8159   -0.0313    0.0000 C   0  0  0  0  0  0  0  0  0  0  0  0
  -40.3565    0.3153    0.0000 C   0  0  0  0  0  0  0  0  0  0  0  0
  -43.7047   -1.8152    0.0000 O   0  0  0  0  0  0  0  0  0  0  0  0
  -38.7261   -3.3030    0.0000 O   0  0  0  0  0  0  0  0  0  0  0  0
  -37.2667   -2.9563    0.0000 C   0  0  0  0  0  0  0  0  0  0  0  0
  -36.8373   -1.5191    0.0000 C   0  0  0  0  0  0  0  0  0  0  0  0
  -35.5783   -1.8431    0.0000 C   0  0  0  0  0  0  0  0  0  0  0  0
  -35.0290   -2.4248    0.0000 C   0  0  0  0  0  0  0  0  0  0  0  0
  -35.2581   -3.1913    0.0000 C   0  0  0  0  0  0  0  0  0  0  0  0
  -36.0364   -3.3762    0.0000 C   0  0  0  0  0  0  0  0  0  0  0  0
  -33.7475   -4.7907    0.0000 O   0  0  0  0  0  0  0  0  0  0  0  0
  -31.2930    1.6918    0.0000 S   0  0  0  0  0  0  0  0  0  0  0  0
  -29.9408   -0.5266    0.0000 N   0  0  0  0  0  0  0  0  0  0  0  0
  -28.6600    0.2540    0.0000 C   0  0  0  0  0  0  0  0  0  0  0  0
  -27.3435   -0.4649    0.0000 C   0  0  0  0  0  0  0  0  0  0  0  0
  -26.0626    0.3158    0.0000 C   0  0  0  0  0  0  0  0  0  0  0  0
  -26.0983    1.8154    0.0000 O   0  0  0  0  0  0  0  0  0  0  0  0
  -24.7461   -0.4031    0.0000 N   0  0  0  0  0  0  0  0  0  0  0  0
  -23.4653    0.3776    0.0000 C   0  0  0  0  0  0  0  0  0  0  0  0
  -22.5287    1.5492    0.0000 C   0  0  0  0  0  0  0  0  0  0  0  0
  -21.0457    1.3239    0.0000 C   0  0  0  0  0  0  0  0  0  0  0  0
  -20.1091    2.4956    0.0000 C   0  0  0  0  0  0  0  0  0  0  0  0
  -19.7292    0.6050    0.0000 C   0  0  0  0  0  0  0  0  0  0  0  0
  -22.1488   -0.3414    0.0000 C   0  0  0  0  0  0  0  0  0  0  0  0
  -22.1131   -1.8409    0.0000 O   0  0  0  0  0  0  0  0  0  0  0  0
  -20.8680    0.4393    0.0000 N   0  0  0  0  0  0  0  0  0  0  0  0
  -19.5515   -0.2796    0.0000 C   0  0  0  0  0  0  0  0  0  0  0  0
  -18.5602   -1.4054    0.0000 C   0  0  0  0  0  0  0  0  0  0  0  0
  -19.0396   -2.8267    0.0000 C   0  0  0  0  0  0  0  0  0  0  0  0
  -18.0484   -3.9526    0.0000 C   0  0  0  0  0  0  0  0  0  0  0  0
  -18.5278   -5.3739    0.0000 O   0  0  0  0  0  0  0  0  0  0  0  0
  -16.5778   -3.6571    0.0000 O   0  0  0  0  0  0  0  0  0  0  0  0
  -18.2706    0.5011    0.0000 C   0  0  0  0  0  0  0  0  0  0  0  0
  -18.1232    1.9938    0.0000 O   0  0  0  0  0  0  0  0  0  0  0  0
  -16.9541   -0.2178    0.0000 N   0  0  0  0  0  0  0  0  0  0  0  0
  -15.6733    0.5628    0.0000 C   0  0  0  0  0  0  0  0  0  0  0  0
  -14.7367    1.7345    0.0000 C   0  0  0  0  0  0  0  0  0  0  0  0
  -13.2537    1.5092    0.0000 C   0  0  0  0  0  0  0  0  0  0  0  0
  -12.3171    2.6809    0.0000 N   0  0  0  0  0  0  0  0  0  0  0  0
  -12.7923    0.8592    0.0000 O   0  0  0  0  0  0  0  0  0  0  0  0
  -14.3568   -0.1561    0.0000 C   0  0  0  0  0  0  0  0  0  0  0  0
  -14.3211   -1.6556    0.0000 O   0  0  0  0  0  0  0  0  0  0  0  0
  -13.0759    0.6246    0.0000 N   0  0  0  0  0  0  0  0  0  0  0  0
  -11.7594   -0.0943    0.0000 C   0  0  0  0  0  0  0  0  0  0  0  0
  -10.7682   -1.2201    0.0000 C   0  0  0  0  0  0  0  0  0  0  0  0
   -9.2976   -0.9246    0.0000 C   0  0  0  0  0  0  0  0  0  0  0  0
   -8.3064   -2.0504    0.0000 C   0  0  0  0  0  0  0  0  0  0  0  0
   -6.8358   -1.7549    0.0000 N   0  0  0  0  0  0  0  0  0  0  0  0
   -5.8446   -2.8807    0.0000 C   0  0  0  0  0  0  0  0  0  0  0  0
   -4.4209   -2.4082    0.0000 N   0  0  0  0  0  0  0  0  0  0  0  0
   -6.3239   -4.3021    0.0000 N   0  0  0  0  0  0  0  0  0  0  0  0
  -10.4786    0.6864    0.0000 C   0  0  0  0  0  0  0  0  0  0  0  0
  -10.3312    2.1791    0.0000 O   0  0  0  0  0  0  0  0  0  0  0  0
   -9.1621   -0.0325    0.0000 N   0  0  0  0  0  0  0  0  0  0  0  0
   -7.8813    0.7481    0.0000 C   0  0  0  0  0  0  0  0  0  0  0  0
   -6.9447    1.9198    0.0000 C   0  0  0  0  0  0  0  0  0  0  0  0
   -5.4617    1.6945    0.0000 C   0  0  0  0  0  0  0  0  0  0  0  0
   -4.5251    2.8662    0.0000 C   0  0  0  0  0  0  0  0  0  0  0  0
   -3.0257    2.8233    0.0000 N   0  0  0  0  0  0  0  0  0  0  0  0
   -5.0715    4.2631    0.0000 O   0  0  0  0  0  0  0  0  0  0  0  0
   -6.5648    0.0292    0.0000 C   0  0  0  0  0  0  0  0  0  0  0  0
   -6.1673   -1.4172    0.0000 O   0  0  0  0  0  0  0  0  0  0  0  0
   -5.2839    0.8099    0.0000 N   0  0  0  0  0  0  0  0  0  0  0  0
   -3.9674    0.0910    0.0000 C   0  0  0  0  0  0  0  0  0  0  0  0
   -2.9762   -1.0348    0.0000 C   0  0  0  0  0  0  0  0  0  0  0  0
   -1.5056   -0.7393    0.0000 C   0  0  0  0  0  0  0  0  0  0  0  0
   -0.5144   -1.8651    0.0000 C   0  0  0  0  0  0  0  0  0  0  0  0
    0.9562   -1.5696    0.0000 C   0  0  0  0  0  0  0  0  0  0  0  0
    1.9475   -2.6954    0.0000 N   0  0  0  0  0  0  0  0  0  0  0  0
   -2.6866    0.8717    0.0000 C   0  0  0  0  0  0  0  0  0  0  0  0
   -2.5392    2.3644    0.0000 O   0  0  0  0  0  0  0  0  0  0  0  0
   -1.3701    0.1527    0.0000 N   0  0  0  0  0  0  0  0  0  0  0  0
   -0.0892    0.9334    0.0000 C   0  0  0  0  0  0  0  0  0  0  0  0
    0.8474    2.1051    0.0000 C   0  0  0  0  0  0  0  0  0  0  0  0
    2.3304    1.8798    0.0000 C   0  0  0  0  0  0  0  0  0  0  0  0
    3.2669    3.0515    0.0000 C   0  0  0  0  0  0  0  0  0  0  0  0
    4.7499    2.8262    0.0000 C   0  0  0  0  0  0  0  0  0  0  0  0
    5.6865    3.9978    0.0000 N   0  0  0  0  0  0  0  0  0  0  0  0
    1.2273    0.2145    0.0000 C   0  0  0  0  0  0  0  0  0  0  0  0
    1.6247   -1.2319    0.0000 O   0  0  0  0  0  0  0  0  0  0  0  0
    2.5081    0.9952    0.0000 N   0  0  0  0  0  0  0  0  0  0  0  0
    3.8246    0.2763    0.0000 C   0  0  0  0  0  0  0  0  0  0  0  0
    4.8158   -0.8495    0.0000 C   0  0  0  0  0  0  0  0  0  0  0  0
    6.2864   -0.5540    0.0000 C   0  0  0  0  0  0  0  0  0  0  0  0
    7.2777   -1.6799    0.0000 C   0  0  0  0  0  0  0  0  0  0  0  0
    7.5673    0.2266    0.0000 C   0  0  0  0  0  0  0  0  0  0  0  0
    5.1055    1.0569    0.0000 C   0  0  0  0  0  0  0  0  0  0  0  0
    5.4337    2.5206    0.0000 O   0  0  0  0  0  0  0  0  0  0  0  0
    6.4220    0.3380    0.0000 N   0  0  0  0  0  0  0  0  0  0  0  0
    7.7028    1.1187    0.0000 C   0  0  0  0  0  0  0  0  0  0  0  0
    8.6394    2.2904    0.0000 C   0  0  0  0  0  0  0  0  0  0  0  0
   10.1224    2.0651    0.0000 C   0  0  0  0  0  0  0  0  0  0  0  0
   11.0590    3.2368    0.0000 C   0  0  0  0  0  0  0  0  0  0  0  0
   12.5524    3.3770    0.0000 O   0  0  0  0  0  0  0  0  0  0  0  0
   10.3464    4.5567    0.0000 O   0  0  0  0  0  0  0  0  0  0  0  0
    9.0193    0.3998    0.0000 C   0  0  0  0  0  0  0  0  0  0  0  0
    9.2375   -1.0842    0.0000 O   0  0  0  0  0  0  0  0  0  0  0  0
   10.3001    1.1805    0.0000 N   0  0  0  0  0  0  0  0  0  0  0  0
   11.6166    0.4616    0.0000 C   0  0  0  0  0  0  0  0  0  0  0  0
   11.9487   -1.0012    0.0000 C   0  0  0  0  0  0  0  0  0  0  0  0
   12.6972   -2.3011    0.0000 C   0  0  0  0  0  0  0  0  0  0  0  0
   13.7956   -3.3227    0.0000 C   0  0  0  0  0  0  0  0  0  0  0  0
   15.1463   -3.9750    0.0000 C   0  0  0  0  0  0  0  0  0  0  0  0
   10.3186   -0.2901    0.0000 C   0  0  0  0  0  0  0  0  0  0  0  0
   11.7305    1.9572    0.0000 C   0  0  0  0  0  0  0  0  0  0  0  0
   10.4859    2.7945    0.0000 O   0  0  0  0  0  0  0  0  0  0  0  0
   12.2801    3.3529    0.0000 N   0  0  0  0  0  0  0  0  0  0  0  0
   13.2167    4.5246    0.0000 C   0  0  0  0  0  0  0  0  0  0  0  0
   12.9579    6.0021    0.0000 C   0  0  0  0  0  0  0  0  0  0  0  0
   14.4570    5.3681    0.0000 C   0  0  0  0  0  0  0  0  0  0  0  0
   13.8078    6.7203    0.0000 O   0  0  0  0  0  0  0  0  0  0  0  0
   15.8909    5.8086    0.0000 N   0  0  0  0  0  0  0  0  0  0  0  0
   17.3909    5.8069    0.0000 C   0  0  0  0  0  0  0  0  0  0  0  0
   18.3847    6.9304    0.0000 C   0  0  0  0  0  0  0  0  0  0  0  0
   17.9086    8.3528    0.0000 C   0  0  0  0  0  0  0  0  0  0  0  0
   18.9025    9.4763    0.0000 N   0  0  0  0  0  0  0  0  0  0  0  0
   16.4387    8.6517    0.0000 O   0  0  0  0  0  0  0  0  0  0  0  0
   18.8237    5.3631    0.0000 C   0  0  0  0  0  0  0  0  0  0  0  0
   19.4761    6.7138    0.0000 O   0  0  0  0  0  0  0  0  0  0  0  0
   20.0621    4.5166    0.0000 N   0  0  0  0  0  0  0  0  0  0  0  0
   20.9960    3.3428    0.0000 C   0  0  0  0  0  0  0  0  0  0  0  0
   22.4940    3.2663    0.0000 C   0  0  0  0  0  0  0  0  0  0  0  0
   23.3093    4.5254    0.0000 C   0  0  0  0  0  0  0  0  0  0  0  0
   24.8074    4.4489    0.0000 C   0  0  0  0  0  0  0  0  0  0  0  0
   25.6227    5.7080    0.0000 N   0  0  0  0  0  0  0  0  0  0  0  0
   27.1207    5.6315    0.0000 C   0  0  0  0  0  0  0  0  0  0  0  0
   27.9360    6.8906    0.0000 N   0  0  0  0  0  0  0  0  0  0  0  0
   27.8035    4.2959    0.0000 N   0  0  0  0  0  0  0  0  0  0  0  0
   21.5424    1.9459    0.0000 C   0  0  0  0  0  0  0  0  0  0  0  0
   23.0052    2.2780    0.0000 O   0  0  0  0  0  0  0  0  0  0  0  0
   21.6528    0.4499    0.0000 N   0  0  0  0  0  0  0  0  0  0  0  0
   21.3173   -1.0121    0.0000 C   0  0  0  0  0  0  0  0  0  0  0  0
   20.5658   -2.3102    0.0000 C   0  0  0  0  0  0  0  0  0  0  0  0
   19.4650   -3.3292    0.0000 C   0  0  0  0  0  0  0  0  0  0  0  0
   18.1128   -3.9785    0.0000 C   0  0  0  0  0  0  0  0  0  0  0  0
   16.6293   -4.2003    0.0000 C   0  0  0  0  0  0  0  0  0  0  0  0
   22.7879   -0.7166    0.0000 C   0  0  0  0  0  0  0  0  0  0  0  0
   22.1915   -2.2310    0.0000 C   0  0  0  0  0  0  0  0  0  0  0  0
   21.9220   -3.7066    0.0000 O   0  0  0  0  0  0  0  0  0  0  0  0
   23.6842   -2.0834    0.0000 N   0  0  0  0  0  0  0  0  0  0  0  0
   24.5584   -3.3023    0.0000 C   0  0  0  0  0  0  0  0  0  0  0  0
   24.9630   -4.7467    0.0000 C   0  0  0  0  0  0  0  0  0  0  0  0
   23.9144   -5.8193    0.0000 C   0  0  0  0  0  0  0  0  0  0  0  0
   24.3190   -7.2637    0.0000 C   0  0  0  0  0  0  0  0  0  0  0  0
   22.5622   -6.4685    0.0000 C   0  0  0  0  0  0  0  0  0  0  0  0
   26.0511   -3.1547    0.0000 C   0  0  0  0  0  0  0  0  0  0  0  0
   26.6696   -1.7881    0.0000 O   0  0  0  0  0  0  0  0  0  0  0  0
   26.9253   -4.3736    0.0000 N   0  0  0  0  0  0  0  0  0  0  0  0
   28.4180   -4.2260    0.0000 C   0  0  0  0  0  0  0  0  0  0  0  0
   29.7703   -3.5767    0.0000 C   0  0  0  0  0  0  0  0  0  0  0  0
   31.0086   -4.4231    0.0000 C   0  0  0  0  0  0  0  0  0  0  0  0
   32.3608   -3.7739    0.0000 C   0  0  0  0  0  0  0  0  0  0  0  0
   31.8828   -5.6420    0.0000 C   0  0  0  0  0  0  0  0  0  0  0  0
   29.2922   -5.4449    0.0000 C   0  0  0  0  0  0  0  0  0  0  0  0
   30.7918   -5.4803    0.0000 O   0  0  0  0  0  0  0  0  0  0  0  0
   28.6737   -6.8114    0.0000 O   0  0  0  0  0  0  0  0  0  0  0  0
  -32.3200   -2.0725    0.0000 H   0  0  0  0  0  0  0  0  0  0  0  0
  -32.6095    2.4107    0.0000 H   0  0  0  0  0  0  0  0  0  0  0  0
  -35.2425    3.8486    0.0000 H   0  0  0  0  0  0  0  0  0  0  0  0
  -34.7381   -2.0966    0.0000 H   0  0  0  0  0  0  0  0  0  0  0  0
  -41.6449   -3.9963    0.0000 H   0  0  0  0  0  0  0  0  0  0  0  0
  -42.8458    1.0592    0.0000 H   0  0  0  0  0  0  0  0  0  0  0  0
  -39.9270    1.7525    0.0000 H   0  0  0  0  0  0  0  0  0  0  0  0
  -44.7347   -0.7247    0.0000 H   0  0  0  0  0  0  0  0  0  0  0  0
  -34.9484    0.2647    0.0000 H   0  0  0  0  0  0  0  0  0  0  0  0
  -32.8572   -2.0968    0.0000 H   0  0  0  0  0  0  0  0  0  0  0  0
  -36.6663   -5.4841    0.0000 H   0  0  0  0  0  0  0  0  0  0  0  0
  -34.1770   -6.2279    0.0000 H   0  0  0  0  0  0  0  0  0  0  0  0
  -29.9052   -2.0262    0.0000 H   0  0  0  0  0  0  0  0  0  0  0  0
  -27.7234    1.4257    0.0000 H   0  0  0  0  0  0  0  0  0  0  0  0
  -29.6512    1.3798    0.0000 H   0  0  0  0  0  0  0  0  0  0  0  0
  -26.3523   -1.5907    0.0000 H   0  0  0  0  0  0  0  0  0  0  0  0
  -28.2801   -1.6365    0.0000 H   0  0  0  0  0  0  0  0  0  0  0  0
  -24.7105   -1.9027    0.0000 H   0  0  0  0  0  0  0  0  0  0  0  0
  -24.4565    1.5034    0.0000 H   0  0  0  0  0  0  0  0  0  0  0  0
  -22.2262    3.0184    0.0000 H   0  0  0  0  0  0  0  0  0  0  0  0
  -23.8452    2.2681    0.0000 H   0  0  0  0  0  0  0  0  0  0  0  0
  -20.8016   -0.1561    0.0000 H   0  0  0  0  0  0  0  0  0  0  0  0
  -18.6157    2.6359    0.0000 H   0  0  0  0  0  0  0  0  0  0  0  0
  -19.6298    3.9169    0.0000 H   0  0  0  0  0  0  0  0  0  0  0  0
  -21.3282    3.3696    0.0000 H   0  0  0  0  0  0  0  0  0  0  0  0
  -19.3318   -0.8414    0.0000 H   0  0  0  0  0  0  0  0  0  0  0  0
  -18.2640    0.9263    0.0000 H   0  0  0  0  0  0  0  0  0  0  0  0
  -19.0802    1.9573    0.0000 H   0  0  0  0  0  0  0  0  0  0  0  0
  -20.5397    1.9030    0.0000 H   0  0  0  0  0  0  0  0  0  0  0  0
  -20.6239   -1.3284    0.0000 H   0  0  0  0  0  0  0  0  0  0  0  0
  -17.3412   -2.2794    0.0000 H   0  0  0  0  0  0  0  0  0  0  0  0
  -17.2659   -0.6473    0.0000 H   0  0  0  0  0  0  0  0  0  0  0  0
  -19.9762   -3.9984    0.0000 H   0  0  0  0  0  0  0  0  0  0  0  0
  -20.4339   -2.2737    0.0000 H   0  0  0  0  0  0  0  0  0  0  0  0
  -15.5866   -4.7829    0.0000 H   0  0  0  0  0  0  0  0  0  0  0  0
  -16.7359   -1.7019    0.0000 H   0  0  0  0  0  0  0  0  0  0  0  0
  -16.6645    1.6887    0.0000 H   0  0  0  0  0  0  0  0  0  0  0  0
  -14.2573    3.1558    0.0000 H   0  0  0  0  0  0  0  0  0  0  0  0
  -16.0532    2.4534    0.0000 H   0  0  0  0  0  0  0  0  0  0  0  0
  -10.8177    2.6381    0.0000 H   0  0  0  0  0  0  0  0  0  0  0  0
  -12.8635    4.0778    0.0000 H   0  0  0  0  0  0  0  0  0  0  0  0
  -12.7477    2.0882    0.0000 H   0  0  0  0  0  0  0  0  0  0  0  0
  -12.6960   -1.2660    0.0000 H   0  0  0  0  0  0  0  0  0  0  0  0
  -10.3962   -2.6733    0.0000 H   0  0  0  0  0  0  0  0  0  0  0  0
  -12.0491   -2.0008    0.0000 H   0  0  0  0  0  0  0  0  0  0  0  0
   -8.0168   -0.1439    0.0000 H   0  0  0  0  0  0  0  0  0  0  0  0
   -9.1241    0.5653    0.0000 H   0  0  0  0  0  0  0  0  0  0  0  0
   -7.7600   -3.4474    0.0000 H   0  0  0  0  0  0  0  0  0  0  0  0
   -9.4825   -2.9814    0.0000 H   0  0  0  0  0  0  0  0  0  0  0  0
   -5.8788   -0.5999    0.0000 H   0  0  0  0  0  0  0  0  0  0  0  0
   -3.3827   -3.7110    0.0000 H   0  0  0  0  0  0  0  0  0  0  0  0
   -5.3327   -5.4279    0.0000 H   0  0  0  0  0  0  0  0  0  0  0  0
   -7.7945   -4.5976    0.0000 H   0  0  0  0  0  0  0  0  0  0  0  0
   -8.7646   -1.4789    0.0000 H   0  0  0  0  0  0  0  0  0  0  0  0
   -8.8725    1.8740    0.0000 H   0  0  0  0  0  0  0  0  0  0  0  0
   -6.4653    3.3411    0.0000 H   0  0  0  0  0  0  0  0  0  0  0  0
   -8.2612    2.6387    0.0000 H   0  0  0  0  0  0  0  0  0  0  0  0
   -4.1452    0.9756    0.0000 H   0  0  0  0  0  0  0  0  0  0  0  0
   -5.0389    0.2553    0.0000 H   0  0  0  0  0  0  0  0  0  0  0  0
   -2.1055    3.8126    0.0000 H   0  0  0  0  0  0  0  0  0  0  0  0
   -1.9648    1.5389    0.0000 H   0  0  0  0  0  0  0  0  0  0  0  0
   -4.9557    2.2735    0.0000 H   0  0  0  0  0  0  0  0  0  0  0  0
   -4.9040   -1.0807    0.0000 H   0  0  0  0  0  0  0  0  0  0  0  0
   -2.6041   -2.4880    0.0000 H   0  0  0  0  0  0  0  0  0  0  0  0
   -4.3426   -1.6536    0.0000 H   0  0  0  0  0  0  0  0  0  0  0  0
   -0.3295    0.1917    0.0000 H   0  0  0  0  0  0  0  0  0  0  0  0
   -1.1517    0.7183    0.0000 H   0  0  0  0  0  0  0  0  0  0  0  0
    0.0320   -3.2621    0.0000 H   0  0  0  0  0  0  0  0  0  0  0  0
   -1.6905   -2.7961    0.0000 H   0  0  0  0  0  0  0  0  0  0  0  0
    2.3227   -0.9509    0.0000 H   0  0  0  0  0  0  0  0  0  0  0  0
    0.5842   -0.1165    0.0000 H   0  0  0  0  0  0  0  0  0  0  0  0
    3.3711   -2.2229    0.0000 H   0  0  0  0  0  0  0  0  0  0  0  0
    1.4681   -4.1168    0.0000 H   0  0  0  0  0  0  0  0  0  0  0  0
   -0.9726   -1.2936    0.0000 H   0  0  0  0  0  0  0  0  0  0  0  0
   -1.0805    2.0592    0.0000 H   0  0  0  0  0  0  0  0  0  0  0  0
    1.1499    3.5743    0.0000 H   0  0  0  0  0  0  0  0  0  0  0  0
   -0.4691    2.8240    0.0000 H   0  0  0  0  0  0  0  0  0  0  0  0
    3.5494    1.0058    0.0000 H   0  0  0  0  0  0  0  0  0  0  0  0
    2.5745    0.3998    0.0000 H   0  0  0  0  0  0  0  0  0  0  0  0
    3.7463    4.4728    0.0000 H   0  0  0  0  0  0  0  0  0  0  0  0
    2.0479    3.9255    0.0000 H   0  0  0  0  0  0  0  0  0  0  0  0
    6.1442    2.2731    0.0000 H   0  0  0  0  0  0  0  0  0  0  0  0
    4.4474    1.3570    0.0000 H   0  0  0  0  0  0  0  0  0  0  0  0
    7.1310    3.5935    0.0000 H   0  0  0  0  0  0  0  0  0  0  0  0
    5.1401    5.3948    0.0000 H   0  0  0  0  0  0  0  0  0  0  0  0
    2.8364    2.4588    0.0000 H   0  0  0  0  0  0  0  0  0  0  0  0
    3.0378   -1.0008    0.0000 H   0  0  0  0  0  0  0  0  0  0  0  0
    5.1879   -2.3027    0.0000 H   0  0  0  0  0  0  0  0  0  0  0  0
    3.4494   -1.4683    0.0000 H   0  0  0  0  0  0  0  0  0  0  0  0
    6.4600    0.9359    0.0000 H   0  0  0  0  0  0  0  0  0  0  0  0
    8.7565   -1.9311    0.0000 H   0  0  0  0  0  0  0  0  0  0  0  0
    7.8241   -3.0768    0.0000 H   0  0  0  0  0  0  0  0  0  0  0  0
    6.1015   -2.6108    0.0000 H   0  0  0  0  0  0  0  0  0  0  0  0
    8.7863   -0.6474    0.0000 H   0  0  0  0  0  0  0  0  0  0  0  0
    8.5039    1.3983    0.0000 H   0  0  0  0  0  0  0  0  0  0  0  0
    6.4462    1.2232    0.0000 H   0  0  0  0  0  0  0  0  0  0  0  0
    6.8194   -1.1083    0.0000 H   0  0  0  0  0  0  0  0  0  0  0  0
    7.0135    2.4509    0.0000 H   0  0  0  0  0  0  0  0  0  0  0  0
    9.1188    3.7117    0.0000 H   0  0  0  0  0  0  0  0  0  0  0  0
    7.2451    2.8434    0.0000 H   0  0  0  0  0  0  0  0  0  0  0  0
   11.5737    1.6861    0.0000 H   0  0  0  0  0  0  0  0  0  0  0  0
   10.1843    0.5664    0.0000 H   0  0  0  0  0  0  0  0  0  0  0  0
   11.2887    5.9305    0.0000 H   0  0  0  0  0  0  0  0  0  0  0  0
   10.4475    2.6732    0.0000 H   0  0  0  0  0  0  0  0  0  0  0  0
   10.4533   -0.8837    0.0000 H   0  0  0  0  0  0  0  0  0  0  0  0
   11.0717   -2.2181    0.0000 H   0  0  0  0  0  0  0  0  0  0  0  0
   11.2846   -2.8056    0.0000 H   0  0  0  0  0  0  0  0  0  0  0  0
   12.0482   -3.6534    0.0000 H   0  0  0  0  0  0  0  0  0  0  0  0
   12.4939   -4.0679    0.0000 H   0  0  0  0  0  0  0  0  0  0  0  0
   13.7565   -4.8221    0.0000 H   0  0  0  0  0  0  0  0  0  0  0  0
   14.7025   -5.4079    0.0000 H   0  0  0  0  0  0  0  0  0  0  0  0
   10.1991   -1.9518    0.0000 H   0  0  0  0  0  0  0  0  0  0  0  0
    9.2872   -1.3215    0.0000 H   0  0  0  0  0  0  0  0  0  0  0  0
    9.3517    0.6058    0.0000 H   0  0  0  0  0  0  0  0  0  0  0  0
   11.0832    4.2571    0.0000 H   0  0  0  0  0  0  0  0  0  0  0  0
   11.7635    4.8964    0.0000 H   0  0  0  0  0  0  0  0  0  0  0  0
   11.6222    6.6847    0.0000 H   0  0  0  0  0  0  0  0  0  0  0  0
   13.2201    7.4790    0.0000 H   0  0  0  0  0  0  0  0  0  0  0  0
   14.4138    6.3634    0.0000 H   0  0  0  0  0  0  0  0  0  0  0  0
   15.6691    7.2921    0.0000 H   0  0  0  0  0  0  0  0  0  0  0  0
   16.7756    7.1748    0.0000 H   0  0  0  0  0  0  0  0  0  0  0  0
   19.7029    7.6462    0.0000 H   0  0  0  0  0  0  0  0  0  0  0  0
   19.5749    6.0174    0.0000 H   0  0  0  0  0  0  0  0  0  0  0  0
   18.4264   10.8988    0.0000 H   0  0  0  0  0  0  0  0  0  0  0  0
   20.3724    9.1774    0.0000 H   0  0  0  0  0  0  0  0  0  0  0  0
   21.0837    5.6150    0.0000 H   0  0  0  0  0  0  0  0  0  0  0  0
   21.5141    4.7505    0.0000 H   0  0  0  0  0  0  0  0  0  0  0  0
   23.7941    2.5180    0.0000 H   0  0  0  0  0  0  0  0  0  0  0  0
   22.5223    1.7666    0.0000 H   0  0  0  0  0  0  0  0  0  0  0  0
   23.6448    5.9874    0.0000 H   0  0  0  0  0  0  0  0  0  0  0  0
   22.0093    5.2737    0.0000 H   0  0  0  0  0  0  0  0  0  0  0  0
   26.1889    3.8646    0.0000 H   0  0  0  0  0  0  0  0  0  0  0  0
   24.6526    2.9569    0.0000 H   0  0  0  0  0  0  0  0  0  0  0  0
   24.9399    7.0436    0.0000 H   0  0  0  0  0  0  0  0  0  0  0  0
   29.4340    6.8141    0.0000 H   0  0  0  0  0  0  0  0  0  0  0  0
   29.3015    4.2194    0.0000 H   0  0  0  0  0  0  0  0  0  0  0  0
   26.9882    3.0368    0.0000 H   0  0  0  0  0  0  0  0  0  0  0  0
   23.1484    0.3361    0.0000 H   0  0  0  0  0  0  0  0  0  0  0  0
   21.0419   -3.7327    0.0000 H   0  0  0  0  0  0  0  0  0  0  0  0
   21.9772   -2.8179    0.0000 H   0  0  0  0  0  0  0  0  0  0  0  0
   19.6832   -4.8133    0.0000 H   0  0  0  0  0  0  0  0  0  0  0  0
   20.6641   -4.2304    0.0000 H   0  0  0  0  0  0  0  0  0  0  0  0
   17.7049   -5.4219    0.0000 H   0  0  0  0  0  0  0  0  0  0  0  0
   19.1345   -5.0767    0.0000 H   0  0  0  0  0  0  0  0  0  0  0  0
   16.6276   -5.7003    0.0000 H   0  0  0  0  0  0  0  0  0  0  0  0
   24.0221   -1.5691    0.0000 H   0  0  0  0  0  0  0  0  0  0  0  0
   23.9640    0.2144    0.0000 H   0  0  0  0  0  0  0  0  0  0  0  0
   22.5957    0.7711    0.0000 H   0  0  0  0  0  0  0  0  0  0  0  0
   24.4647   -0.8024    0.0000 H   0  0  0  0  0  0  0  0  0  0  0  0
   23.1371   -3.7819    0.0000 H   0  0  0  0  0  0  0  0  0  0  0  0
   25.8372   -5.9656    0.0000 H   0  0  0  0  0  0  0  0  0  0  0  0
   26.4321   -4.4439    0.0000 H   0  0  0  0  0  0  0  0  0  0  0  0
   22.8981   -4.7160    0.0000 H   0  0  0  0  0  0  0  0  0  0  0  0
   23.4089   -8.4561    0.0000 H   0  0  0  0  0  0  0  0  0  0  0  0
   25.1932   -8.4826    0.0000 H   0  0  0  0  0  0  0  0  0  0  0  0
   25.7402   -6.7841    0.0000 H   0  0  0  0  0  0  0  0  0  0  0  0
   22.2669   -7.9392    0.0000 H   0  0  0  0  0  0  0  0  0  0  0  0
   21.0695   -6.6162    0.0000 H   0  0  0  0  0  0  0  0  0  0  0  0
   22.1576   -5.0241    0.0000 H   0  0  0  0  0  0  0  0  0  0  0  0
   26.4780   -5.8053    0.0000 H   0  0  0  0  0  0  0  0  0  0  0  0
   28.0135   -2.7816    0.0000 H   0  0  0  0  0  0  0  0  0  0  0  0
   30.6803   -2.3843    0.0000 H   0  0  0  0  0  0  0  0  0  0  0  0
   28.8960   -2.3578    0.0000 H   0  0  0  0  0  0  0  0  0  0  0  0
   30.4142   -5.8003    0.0000 H   0  0  0  0  0  0  0  0  0  0  0  0
   33.6932   -4.4630    0.0000 H   0  0  0  0  0  0  0  0  0  0  0  0
   33.4094   -2.7013    0.0000 H   0  0  0  0  0  0  0  0  0  0  0  0
   31.6417   -2.4575    0.0000 H   0  0  0  0  0  0  0  0  0  0  0  0
   33.3824   -5.6775    0.0000 H   0  0  0  0  0  0  0  0  0  0  0  0
   32.2874   -7.0864    0.0000 H   0  0  0  0  0  0  0  0  0  0  0  0
   30.5306   -6.2913    0.0000 H   0  0  0  0  0  0  0  0  0  0  0  0
   29.5479   -8.0303    0.0000 H   0  0  0  0  0  0  0  0  0  0  0  0
  1  2  1  0
  2  3  1  0
  3  4  2  0
  4  5  1  0
  5  6  2  0
  6  7  1  0
  7  8  2  0
  7  9  1  0
  9 10  1  0
 10 11  1  0
 11 12  2  0
  9 13  1  0
 13 14  1  0
 14 15  2  0
 15 16  1  0
 16 17  2  0
 17 18  1  0
 16 19  1  0
 14 20  1  0
 20 21  1  0
 21 22  2  0
 22 23  1  0
 23 24  2  0
 24 25  1  0
 25 26  2  0
 25 27  1  0
  1 28  2  0
  1 29  1  0
 29 30  1  0
 30 31  1  0
 31 32  1  0
 32 33  2  0
 32 34  1  0
 34 35  1  0
 35 36  1  0
 36 37  1  0
 37 38  1  0
 37 39  1  0
 35 40  1  0
 40 41  2  0
 40 42  1  0
 42 43  1  0
 43 44  1  0
 44 45  1  0
 45 46  1  0
 46 47  2  0
 46 48  1  0
 43 49  1  0
 49 50  2  0
 49 51  1  0
 51 52  1  0
 52 53  1  0
 53 54  1  0
 54 55  1  0
 54 56  2  0
 52 57  1  0
 57 58  2  0
 57 59  1  0
 59 60  1  0
 60 61  1  0
 61 62  1  0
 62 63  1  0
 63 64  1  0
 64 65  1  0
 65 66  2  3
 65 67  1  0
 60 68  1  0
 68 69  2  0
 68 70  1  0
 70 71  1  0
 71 72  1  0
 72 73  1  0
 73 74  1  0
 74 75  1  0
 74 76  2  0
 71 77  1  0
 77 78  2  0
 77 79  1  0
 79 80  1  0
 80 81  1  0
 81 82  1  0
 82 83  1  0
 83 84  1  0
 84 85  1  0
 80 86  1  0
 86 87  2  0
 86 88  1  0
 88 89  1  0
 89 90  1  0
 90 91  1  0
 91 92  1  0
 92 93  1  0
 93 94  1  0
 89 95  1  0
 95 96  2  0
 95 97  1  0
 97 98  1  0
 98 99  1  0
 99100  1  0
100101  1  0
100102  1  0
 98103  1  0
103104  2  0
103105  1  0
105106  1  0
106107  1  0
107108  1  0
108109  1  0
109110  2  0
109111  1  0
106112  1  0
112113  2  0
112114  1  0
115114  1  6
115116  1  0
116117  1  0
117118  1  0
118119  1  0
115120  1  0
115121  1  0
121122  2  0
121123  1  0
123124  1  0
124125  1  0
124126  1  0
126127  2  0
126128  1  0
128129  1  0
129130  1  0
130131  1  0
131132  1  0
131133  2  0
129134  1  0
134135  2  0
134136  1  0
136137  1  0
137138  1  0
138139  1  0
139140  1  0
140141  1  0
141142  1  0
142143  2  3
142144  1  0
137145  1  0
145146  2  0
145147  1  0
147148  1  0
148149  1  0
149150  1  0
150151  1  0
151152  1  0
148153  1  0
148154  1  6
154155  2  0
154156  1  0
156157  1  0
157158  1  0
158159  1  0
159160  1  0
159161  1  0
157162  1  0
162163  2  0
162164  1  0
164165  1  0
165166  1  0
166167  1  0
167168  1  0
167169  1  0
165170  1  0
170171  2  0
170172  1  0
  8  3  1  0
 11  6  1  0
119152  2  0
 18 13  2  0
 22  9  1  0
 26 21  1  0
  2173  1  0
  4174  1  0
  5175  1  0
  8176  1  0
 15177  1  0
 17178  1  0
 18179  1  0
 19180  1  0
 23181  1  0
 24182  1  0
 26183  1  0
 27184  1  0
 29185  1  0
 30186  1  0
 30187  1  0
 31188  1  0
 31189  1  0
 34190  1  0
 35191  1  1
 36192  1  0
 36193  1  0
 37194  1  0
 38195  1  0
 38196  1  0
 38197  1  0
 39198  1  0
 39199  1  0
 39200  1  0
 42201  1  0
 43202  1  6
 44203  1  0
 44204  1  0
 45205  1  0
 45206  1  0
 48207  1  0
 51208  1  0
 52209  1  1
 53210  1  0
 53211  1  0
 55212  1  0
 55213  1  0
 59214  1  0
 60215  1  6
 61216  1  0
 61217  1  0
 62218  1  0
 62219  1  0
 63220  1  0
 63221  1  0
 64222  1  0
 66223  1  0
 67224  1  0
 67225  1  0
 70226  1  0
 71227  1  1
 72228  1  0
 72229  1  0
 73230  1  0
 73231  1  0
 75232  1  0
 75233  1  0
 79234  1  0
 80235  1  6
 81236  1  0
 81237  1  0
 82238  1  0
 82239  1  0
 83240  1  0
 83241  1  0
 84242  1  0
 84243  1  0
 85244  1  0
 85245  1  0
 88246  1  0
 89247  1  1
 90248  1  0
 90249  1  0
 91250  1  0
 91251  1  0
 92252  1  0
 92253  1  0
 93254  1  0
 93255  1  0
 94256  1  0
 94257  1  0
 97258  1  0
 98259  1  6
 99260  1  0
 99261  1  0
100262  1  0
101263  1  0
101264  1  0
101265  1  0
102266  1  0
102267  1  0
102268  1  0
105269  1  0
106270  1  1
107271  1  0
107272  1  0
108273  1  0
108274  1  0
111275  1  0
114276  1  0
116277  1  0
116278  1  0
117279  1  0
117280  1  0
118281  1  0
118282  1  0
119283  1  0
120284  1  0
120285  1  0
120286  1  0
123287  1  0
124288  1  1
125289  1  0
125290  1  0
125291  1  0
128292  1  0
129293  1  1
130294  1  0
130295  1  0
132296  1  0
132297  1  0
136298  1  0
137299  1  1
138300  1  0
138301  1  0
139302  1  0
139303  1  0
140304  1  0
140305  1  0
141306  1  0
143307  1  0
144308  1  0
144309  1  0
147310  1  0
149311  1  0
149312  1  0
150313  1  0
150314  1  0
151315  1  0
151316  1  0
152317  1  0
153318  1  0
153319  1  0
153320  1  0
156321  1  0
157322  1  6
158323  1  0
158324  1  0
159325  1  0
160326  1  0
160327  1  0
160328  1  0
161329  1  0
161330  1  0
161331  1  0
164332  1  0
165333  1  1
166334  1  0
166335  1  0
167336  1  0
168337  1  0
168338  1  0
168339  1  0
169340  1  0
169341  1  0
169342  1  0
172343  1  0
M  END
