
     RDKit          2D

416422  0  0  0  0  0  0  0  0999 V2000
   42.0419   -2.1707    0.0000 C   0  0  0  0  0  0  0  0  0  0  0  0
   43.3843   -1.5015    0.0000 N   0  0  0  0  0  0  0  0  0  0  0  0
   44.6351   -2.3295    0.0000 C   0  0  0  0  0  0  0  0  0  0  0  0
   44.5434   -3.8267    0.0000 C   0  0  0  0  0  0  0  0  0  0  0  0
   45.7942   -4.6547    0.0000 C   0  0  0  0  0  0  0  0  0  0  0  0
   47.1366   -3.9855    0.0000 C   0  0  0  0  0  0  0  0  0  0  0  0
   47.2283   -2.4883    0.0000 C   0  0  0  0  0  0  0  0  0  0  0  0
   45.9776   -1.6603    0.0000 C   0  0  0  0  0  0  0  0  0  0  0  0
   48.6806   -2.1128    0.0000 C   0  0  0  0  0  0  0  0  0  0  0  0
   49.4864   -3.3780    0.0000 O   0  0  0  0  0  0  0  0  0  0  0  0
   48.5322   -4.5353    0.0000 C   0  0  0  0  0  0  0  0  0  0  0  0
   48.9077   -5.9876    0.0000 O   0  0  0  0  0  0  0  0  0  0  0  0
   50.1641   -1.8912    0.0000 C   0  0  0  0  0  0  0  0  0  0  0  0
   50.7140   -0.4956    0.0000 C   0  0  0  0  0  0  0  0  0  0  0  0
   52.1975   -0.2741    0.0000 C   0  0  0  0  0  0  0  0  0  0  0  0
   53.1312   -1.4480    0.0000 C   0  0  0  0  0  0  0  0  0  0  0  0
   52.5813   -2.8436    0.0000 C   0  0  0  0  0  0  0  0  0  0  0  0
   51.0978   -3.0652    0.0000 C   0  0  0  0  0  0  0  0  0  0  0  0
   54.6147   -1.2264    0.0000 O   0  0  0  0  0  0  0  0  0  0  0  0
   49.7803    0.6783    0.0000 O   0  0  0  0  0  0  0  0  0  0  0  0
   48.2967    0.4567    0.0000 C   0  0  0  0  0  0  0  0  0  0  0  0
   47.7469   -0.9388    0.0000 C   0  0  0  0  0  0  0  0  0  0  0  0
   46.5199   -0.5092    0.0000 C   0  0  0  0  0  0  0  0  0  0  0  0
   46.0220    0.1170    0.0000 C   0  0  0  0  0  0  0  0  0  0  0  0
   46.3152    0.8613    0.0000 C   0  0  0  0  0  0  0  0  0  0  0  0
   47.1065    0.9795    0.0000 C   0  0  0  0  0  0  0  0  0  0  0  0
   44.9459    2.5831    0.0000 O   0  0  0  0  0  0  0  0  0  0  0  0
   41.9502   -3.6678    0.0000 S   0  0  0  0  0  0  0  0  0  0  0  0
   40.7911   -1.3426    0.0000 N   0  0  0  0  0  0  0  0  0  0  0  0
   39.4487   -2.0118    0.0000 C   0  0  0  0  0  0  0  0  0  0  0  0
   38.1979   -1.1838    0.0000 C   0  0  0  0  0  0  0  0  0  0  0  0
   36.8554   -1.8530    0.0000 C   0  0  0  0  0  0  0  0  0  0  0  0
   36.7638   -3.3502    0.0000 O   0  0  0  0  0  0  0  0  0  0  0  0
   35.6047   -1.0250    0.0000 N   0  0  0  0  0  0  0  0  0  0  0  0
   34.2622   -1.6942    0.0000 C   0  0  0  0  0  0  0  0  0  0  0  0
   33.2296   -2.7822    0.0000 C   0  0  0  0  0  0  0  0  0  0  0  0
   31.7424   -2.9780    0.0000 O   0  0  0  0  0  0  0  0  0  0  0  0
   33.0115   -0.8662    0.0000 C   0  0  0  0  0  0  0  0  0  0  0  0
   33.1032    0.6310    0.0000 O   0  0  0  0  0  0  0  0  0  0  0  0
   31.6690   -1.5354    0.0000 N   0  0  0  0  0  0  0  0  0  0  0  0
   30.4182   -0.7074    0.0000 C   0  0  0  0  0  0  0  0  0  0  0  0
   29.5261    0.4985    0.0000 C   0  0  0  0  0  0  0  0  0  0  0  0
   28.3856    1.4728    0.0000 O   0  0  0  0  0  0  0  0  0  0  0  0
   30.1243    1.8740    0.0000 C   0  0  0  0  0  0  0  0  0  0  0  0
   29.0758   -1.3766    0.0000 C   0  0  0  0  0  0  0  0  0  0  0  0
   28.9841   -2.8738    0.0000 O   0  0  0  0  0  0  0  0  0  0  0  0
   27.8250   -0.5486    0.0000 N   0  0  0  0  0  0  0  0  0  0  0  0
   26.4826   -1.2178    0.0000 C   0  0  0  0  0  0  0  0  0  0  0  0
   25.4500   -2.3057    0.0000 C   0  0  0  0  0  0  0  0  0  0  0  0
   25.2318   -0.3898    0.0000 C   0  0  0  0  0  0  0  0  0  0  0  0
   25.3235    1.1074    0.0000 O   0  0  0  0  0  0  0  0  0  0  0  0
   23.8894   -1.0589    0.0000 N   0  0  0  0  0  0  0  0  0  0  0  0
   22.6386   -0.2309    0.0000 C   0  0  0  0  0  0  0  0  0  0  0  0
   21.7465    0.9749    0.0000 C   0  0  0  0  0  0  0  0  0  0  0  0
   22.3447    2.3505    0.0000 C   0  0  0  0  0  0  0  0  0  0  0  0
   21.4525    3.5563    0.0000 C   0  0  0  0  0  0  0  0  0  0  0  0
   23.3773    3.4384    0.0000 C   0  0  0  0  0  0  0  0  0  0  0  0
   21.2961   -0.9001    0.0000 C   0  0  0  0  0  0  0  0  0  0  0  0
   21.2044   -2.3973    0.0000 O   0  0  0  0  0  0  0  0  0  0  0  0
   20.0454   -0.0721    0.0000 N   0  0  0  0  0  0  0  0  0  0  0  0
   18.7029   -0.7413    0.0000 C   0  0  0  0  0  0  0  0  0  0  0  0
   17.6703   -1.8293    0.0000 C   0  0  0  0  0  0  0  0  0  0  0  0
   16.2118   -1.4790    0.0000 C   0  0  0  0  0  0  0  0  0  0  0  0
   15.1792   -2.5670    0.0000 C   0  0  0  0  0  0  0  0  0  0  0  0
   13.7206   -2.2167    0.0000 N   0  0  0  0  0  0  0  0  0  0  0  0
   12.6880   -3.3047    0.0000 C   0  0  0  0  0  0  0  0  0  0  0  0
   11.2831   -2.7792    0.0000 N   0  0  0  0  0  0  0  0  0  0  0  0
   13.1139   -4.7430    0.0000 N   0  0  0  0  0  0  0  0  0  0  0  0
   17.4522    0.0867    0.0000 C   0  0  0  0  0  0  0  0  0  0  0  0
   17.5438    1.5839    0.0000 O   0  0  0  0  0  0  0  0  0  0  0  0
   16.1097   -0.5825    0.0000 N   0  0  0  0  0  0  0  0  0  0  0  0
   14.8589    0.2455    0.0000 C   0  0  0  0  0  0  0  0  0  0  0  0
   13.9668    1.4514    0.0000 C   0  0  0  0  0  0  0  0  0  0  0  0
   14.5650    2.8269    0.0000 C   0  0  0  0  0  0  0  0  0  0  0  0
   13.6729    4.0328    0.0000 C   0  0  0  0  0  0  0  0  0  0  0  0
   14.2711    5.4083    0.0000 O   0  0  0  0  0  0  0  0  0  0  0  0
   12.1825    3.8631    0.0000 O   0  0  0  0  0  0  0  0  0  0  0  0
   13.5165   -0.4237    0.0000 C   0  0  0  0  0  0  0  0  0  0  0  0
   13.1875   -1.4665    0.0000 O   0  0  0  0  0  0  0  0  0  0  0  0
   12.2657    0.4043    0.0000 N   0  0  0  0  0  0  0  0  0  0  0  0
   10.9233   -0.2649    0.0000 C   0  0  0  0  0  0  0  0  0  0  0  0
    9.8906   -1.3529    0.0000 C   0  0  0  0  0  0  0  0  0  0  0  0
    8.4321   -1.0026    0.0000 C   0  0  0  0  0  0  0  0  0  0  0  0
    7.3995   -2.0905    0.0000 C   0  0  0  0  0  0  0  0  0  0  0  0
    7.1814   -0.1746    0.0000 C   0  0  0  0  0  0  0  0  0  0  0  0
    9.6725    0.5631    0.0000 C   0  0  0  0  0  0  0  0  0  0  0  0
    9.7642    2.0603    0.0000 O   0  0  0  0  0  0  0  0  0  0  0  0
    8.3300   -0.1061    0.0000 N   0  0  0  0  0  0  0  0  0  0  0  0
    7.0793    0.7219    0.0000 C   0  0  0  0  0  0  0  0  0  0  0  0
    6.1871    1.9278    0.0000 C   0  0  0  0  0  0  0  0  0  0  0  0
    6.9486    3.2202    0.0000 C   0  0  0  0  0  0  0  0  0  0  0  0
    4.9364    2.7558    0.0000 C   0  0  0  0  0  0  0  0  0  0  0  0
    5.0281    4.2530    0.0000 C   0  0  0  0  0  0  0  0  0  0  0  0
    5.7368    0.0528    0.0000 C   0  0  0  0  0  0  0  0  0  0  0  0
    5.4633   -1.4221    0.0000 O   0  0  0  0  0  0  0  0  0  0  0  0
    4.4861    0.8808    0.0000 N   0  0  0  0  0  0  0  0  0  0  0  0
    3.1436    0.2116    0.0000 C   0  0  0  0  0  0  0  0  0  0  0  0
    2.1110   -0.8764    0.0000 C   0  0  0  0  0  0  0  0  0  0  0  0
    0.6525   -0.5261    0.0000 C   0  0  0  0  0  0  0  0  0  0  0  0
   -0.3801   -1.6141    0.0000 C   0  0  0  0  0  0  0  0  0  0  0  0
   -1.5873   -1.4765    0.0000 O   0  0  0  0  0  0  0  0  0  0  0  0
    0.0458   -3.0524    0.0000 O   0  0  0  0  0  0  0  0  0  0  0  0
    1.8929    1.0396    0.0000 C   0  0  0  0  0  0  0  0  0  0  0  0
    1.9845    2.5368    0.0000 O   0  0  0  0  0  0  0  0  0  0  0  0
    0.5504    0.3704    0.0000 N   0  0  0  0  0  0  0  0  0  0  0  0
   -0.7004    1.1984    0.0000 C   0  0  0  0  0  0  0  0  0  0  0  0
   -1.5925    2.4042    0.0000 C   0  0  0  0  0  0  0  0  0  0  0  0
   -0.9943    3.7798    0.0000 C   0  0  0  0  0  0  0  0  0  0  0  0
   -1.8864    4.9856    0.0000 C   0  0  0  0  0  0  0  0  0  0  0  0
   -1.2882    6.3612    0.0000 O   0  0  0  0  0  0  0  0  0  0  0  0
   -3.3768    4.8160    0.0000 O   0  0  0  0  0  0  0  0  0  0  0  0
   -2.0428    0.5292    0.0000 C   0  0  0  0  0  0  0  0  0  0  0  0
   -2.2644   -0.6654    0.0000 O   0  0  0  0  0  0  0  0  0  0  0  0
   -3.2936    1.3572    0.0000 N   0  0  0  0  0  0  0  0  0  0  0  0
   -4.6360    0.6880    0.0000 C   0  0  0  0  0  0  0  0  0  0  0  0
   -5.6687   -0.4000    0.0000 C   0  0  0  0  0  0  0  0  0  0  0  0
   -7.1272   -0.0497    0.0000 C   0  0  0  0  0  0  0  0  0  0  0  0
   -8.1598   -1.1377    0.0000 C   0  0  0  0  0  0  0  0  0  0  0  0
   -8.3779    0.7783    0.0000 C   0  0  0  0  0  0  0  0  0  0  0  0
   -5.8868    1.5160    0.0000 C   0  0  0  0  0  0  0  0  0  0  0  0
   -5.7951    3.0132    0.0000 O   0  0  0  0  0  0  0  0  0  0  0  0
   -7.2293    0.8468    0.0000 N   0  0  0  0  0  0  0  0  0  0  0  0
   -8.4800    1.6748    0.0000 C   0  0  0  0  0  0  0  0  0  0  0  0
   -9.3722    2.8807    0.0000 C   0  0  0  0  0  0  0  0  0  0  0  0
   -8.7739    4.2562    0.0000 C   0  0  0  0  0  0  0  0  0  0  0  0
   -9.8225    1.0056    0.0000 C   0  0  0  0  0  0  0  0  0  0  0  0
   -9.9142   -0.4916    0.0000 O   0  0  0  0  0  0  0  0  0  0  0  0
  -11.0732    1.8336    0.0000 N   0  0  0  0  0  0  0  0  0  0  0  0
  -12.4157    1.1645    0.0000 C   0  0  0  0  0  0  0  0  0  0  0  0
  -12.8022   -0.2849    0.0000 C   0  0  0  0  0  0  0  0  0  0  0  0
  -13.5988   -1.5559    0.0000 C   0  0  0  0  0  0  0  0  0  0  0  0
  -14.7346   -2.5357    0.0000 C   0  0  0  0  0  0  0  0  0  0  0  0
  -16.1088   -3.1371    0.0000 C   0  0  0  0  0  0  0  0  0  0  0  0
  -11.1466    0.3648    0.0000 C   0  0  0  0  0  0  0  0  0  0  0  0
  -12.4735    2.6633    0.0000 C   0  0  0  0  0  0  0  0  0  0  0  0
  -11.1117    3.2921    0.0000 O   0  0  0  0  0  0  0  0  0  0  0  0
  -12.9706    4.0786    0.0000 N   0  0  0  0  0  0  0  0  0  0  0  0
  -13.8627    5.2844    0.0000 C   0  0  0  0  0  0  0  0  0  0  0  0
  -13.5489    6.7513    0.0000 C   0  0  0  0  0  0  0  0  0  0  0  0
  -12.0761    7.0355    0.0000 C   0  0  0  0  0  0  0  0  0  0  0  0
  -13.7557    8.2369    0.0000 C   0  0  0  0  0  0  0  0  0  0  0  0
  -12.5725    9.1589    0.0000 C   0  0  0  0  0  0  0  0  0  0  0  0
  -15.0707    6.1738    0.0000 C   0  0  0  0  0  0  0  0  0  0  0  0
  -14.5383    7.5761    0.0000 O   0  0  0  0  0  0  0  0  0  0  0  0
  -16.4871    6.6675    0.0000 N   0  0  0  0  0  0  0  0  0  0  0  0
  -17.9861    6.7219    0.0000 C   0  0  0  0  0  0  0  0  0  0  0  0
  -18.9372    7.8818    0.0000 C   0  0  0  0  0  0  0  0  0  0  0  0
  -20.2277    8.6464    0.0000 O   0  0  0  0  0  0  0  0  0  0  0  0
  -18.4083    9.2854    0.0000 C   0  0  0  0  0  0  0  0  0  0  0  0
  -19.4345    6.3320    0.0000 C   0  0  0  0  0  0  0  0  0  0  0  0
  -20.0360    7.7061    0.0000 O   0  0  0  0  0  0  0  0  0  0  0  0
  -20.7037    5.5324    0.0000 N   0  0  0  0  0  0  0  0  0  0  0  0
  -21.6808    4.3943    0.0000 C   0  0  0  0  0  0  0  0  0  0  0  0
  -23.1806    4.3739    0.0000 C   0  0  0  0  0  0  0  0  0  0  0  0
  -23.9483    5.6626    0.0000 C   0  0  0  0  0  0  0  0  0  0  0  0
  -25.4481    5.6421    0.0000 C   0  0  0  0  0  0  0  0  0  0  0  0
  -26.2158    6.9308    0.0000 N   0  0  0  0  0  0  0  0  0  0  0  0
  -26.1804    4.3330    0.0000 O   0  0  0  0  0  0  0  0  0  0  0  0
  -22.2790    3.0188    0.0000 C   0  0  0  0  0  0  0  0  0  0  0  0
  -23.7284    3.4053    0.0000 O   0  0  0  0  0  0  0  0  0  0  0  0
  -22.4452    1.5280    0.0000 N   0  0  0  0  0  0  0  0  0  0  0  0
  -22.1646    0.0545    0.0000 C   0  0  0  0  0  0  0  0  0  0  0  0
  -21.4622   -1.2709    0.0000 C   0  0  0  0  0  0  0  0  0  0  0  0
  -20.4003   -2.3303    0.0000 C   0  0  0  0  0  0  0  0  0  0  0  0
  -19.0733   -3.0296    0.0000 C   0  0  0  0  0  0  0  0  0  0  0  0
  -17.5991   -3.3068    0.0000 C   0  0  0  0  0  0  0  0  0  0  0  0
  -23.6232    0.4048    0.0000 C   0  0  0  0  0  0  0  0  0  0  0  0
  -23.0838   -1.1309    0.0000 C   0  0  0  0  0  0  0  0  0  0  0  0
  -22.8697   -2.6155    0.0000 O   0  0  0  0  0  0  0  0  0  0  0  0
  -24.5700   -0.9276    0.0000 N   0  0  0  0  0  0  0  0  0  0  0  0
  -25.4891   -2.1130    0.0000 C   0  0  0  0  0  0  0  0  0  0  0  0
  -25.9474   -3.5412    0.0000 C   0  0  0  0  0  0  0  0  0  0  0  0
  -27.4135   -3.8585    0.0000 C   0  0  0  0  0  0  0  0  0  0  0  0
  -27.8718   -5.2867    0.0000 C   0  0  0  0  0  0  0  0  0  0  0  0
  -29.2882   -5.7803    0.0000 N   0  0  0  0  0  0  0  0  0  0  0  0
  -26.8640   -6.3978    0.0000 O   0  0  0  0  0  0  0  0  0  0  0  0
  -26.9753   -1.9096    0.0000 C   0  0  0  0  0  0  0  0  0  0  0  0
  -27.5423   -0.5209    0.0000 O   0  0  0  0  0  0  0  0  0  0  0  0
  -27.8944   -3.0950    0.0000 N   0  0  0  0  0  0  0  0  0  0  0  0
  -29.3806   -2.8917    0.0000 C   0  0  0  0  0  0  0  0  0  0  0  0
  -30.7076   -2.1924    0.0000 C   0  0  0  0  0  0  0  0  0  0  0  0
  -30.7654   -0.6935    0.0000 C   0  0  0  0  0  0  0  0  0  0  0  0
  -32.0924    0.0059    0.0000 C   0  0  0  0  0  0  0  0  0  0  0  0
  -32.1502    1.5048    0.0000 C   0  0  0  0  0  0  0  0  0  0  0  0
  -33.4772    2.2041    0.0000 N   0  0  0  0  0  0  0  0  0  0  0  0
  -30.2997   -4.0771    0.0000 C   0  0  0  0  0  0  0  0  0  0  0  0
  -30.0129   -5.1323    0.0000 O   0  0  0  0  0  0  0  0  0  0  0  0
  -31.7859   -3.8738    0.0000 N   0  0  0  0  0  0  0  0  0  0  0  0
  -32.7051   -5.0592    0.0000 C   0  0  0  0  0  0  0  0  0  0  0  0
  -32.9858   -6.5327    0.0000 C   0  0  0  0  0  0  0  0  0  0  0  0
  -34.1912   -4.8558    0.0000 C   0  0  0  0  0  0  0  0  0  0  0  0
  -34.7582   -3.4671    0.0000 O   0  0  0  0  0  0  0  0  0  0  0  0
  -35.1104   -6.0412    0.0000 N   0  0  0  0  0  0  0  0  0  0  0  0
  -34.6916   -7.4816    0.0000 C   0  0  0  0  0  0  0  0  0  0  0  0
  -35.9321   -8.3249    0.0000 C   0  0  0  0  0  0  0  0  0  0  0  0
  -37.1175   -7.4058    0.0000 C   0  0  0  0  0  0  0  0  0  0  0  0
  -36.6096   -5.9944    0.0000 C   0  0  0  0  0  0  0  0  0  0  0  0
  -38.0664   -5.6368    0.0000 C   0  0  0  0  0  0  0  0  0  0  0  0
  -39.2287   -6.5850    0.0000 O   0  0  0  0  0  0  0  0  0  0  0  0
  -38.4851   -4.1965    0.0000 N   0  0  0  0  0  0  0  0  0  0  0  0
  -39.9419   -3.8389    0.0000 C   0  0  0  0  0  0  0  0  0  0  0  0
  -41.4331   -4.0012    0.0000 C   0  0  0  0  0  0  0  0  0  0  0  0
  -42.3192   -2.7909    0.0000 C   0  0  0  0  0  0  0  0  0  0  0  0
  -43.8104   -2.9531    0.0000 C   0  0  0  0  0  0  0  0  0  0  0  0
  -42.7379   -1.3505    0.0000 C   0  0  0  0  0  0  0  0  0  0  0  0
  -40.3606   -2.3985    0.0000 C   0  0  0  0  0  0  0  0  0  0  0  0
  -41.7629   -1.8661    0.0000 O   0  0  0  0  0  0  0  0  0  0  0  0
  -39.3226   -1.3157    0.0000 O   0  0  0  0  0  0  0  0  0  0  0  0
   43.2928   -0.0043    0.0000 H   0  0  0  0  0  0  0  0  0  0  0  0
   43.2009   -4.4959    0.0000 H   0  0  0  0  0  0  0  0  0  0  0  0
   45.7025   -6.1519    0.0000 H   0  0  0  0  0  0  0  0  0  0  0  0
   45.8323   -0.8765    0.0000 H   0  0  0  0  0  0  0  0  0  0  0  0
   52.7474    1.1215    0.0000 H   0  0  0  0  0  0  0  0  0  0  0  0
   53.5150   -4.0176    0.0000 H   0  0  0  0  0  0  0  0  0  0  0  0
   50.5479   -4.4608    0.0000 H   0  0  0  0  0  0  0  0  0  0  0  0
   55.5484   -2.4004    0.0000 H   0  0  0  0  0  0  0  0  0  0  0  0
   45.7135   -2.5560    0.0000 H   0  0  0  0  0  0  0  0  0  0  0  0
   43.8302   -0.0256    0.0000 H   0  0  0  0  0  0  0  0  0  0  0  0
   47.9129    3.0263    0.0000 H   0  0  0  0  0  0  0  0  0  0  0  0
   45.4957    3.9787    0.0000 H   0  0  0  0  0  0  0  0  0  0  0  0
   40.8828    0.1545    0.0000 H   0  0  0  0  0  0  0  0  0  0  0  0
   38.4160   -3.0998    0.0000 H   0  0  0  0  0  0  0  0  0  0  0  0
   40.3408   -3.2177    0.0000 H   0  0  0  0  0  0  0  0  0  0  0  0
   37.3058    0.0220    0.0000 H   0  0  0  0  0  0  0  0  0  0  0  0
   39.2305   -0.0959    0.0000 H   0  0  0  0  0  0  0  0  0  0  0  0
   35.6964    0.4722    0.0000 H   0  0  0  0  0  0  0  0  0  0  0  0
   35.1544   -2.9001    0.0000 H   0  0  0  0  0  0  0  0  0  0  0  0
   32.6314   -4.1577    0.0000 H   0  0  0  0  0  0  0  0  0  0  0  0
   34.4804   -3.6102    0.0000 H   0  0  0  0  0  0  0  0  0  0  0  0
   30.7385   -3.5199    0.0000 H   0  0  0  0  0  0  0  0  0  0  0  0
   31.3955   -3.0102    0.0000 H   0  0  0  0  0  0  0  0  0  0  0  0
   31.5758    0.2466    0.0000 H   0  0  0  0  0  0  0  0  0  0  0  0
   28.2609   -0.3073    0.0000 H   0  0  0  0  0  0  0  0  0  0  0  0
   28.1838    2.8237    0.0000 H   0  0  0  0  0  0  0  0  0  0  0  0
   29.3858    3.1796    0.0000 H   0  0  0  0  0  0  0  0  0  0  0  0
   31.1570    2.9620    0.0000 H   0  0  0  0  0  0  0  0  0  0  0  0
   31.4667    1.2046    0.0000 H   0  0  0  0  0  0  0  0  0  0  0  0
   27.7335    0.9486    0.0000 H   0  0  0  0  0  0  0  0  0  0  0  0
   27.3747   -2.4236    0.0000 H   0  0  0  0  0  0  0  0  0  0  0  0
   23.9628   -2.5015    0.0000 H   0  0  0  0  0  0  0  0  0  0  0  0
   24.8517   -3.6813    0.0000 H   0  0  0  0  0  0  0  0  0  0  0  0
   26.7007   -3.1337    0.0000 H   0  0  0  0  0  0  0  0  0  0  0  0
   23.6158   -2.5338    0.0000 H   0  0  0  0  0  0  0  0  0  0  0  0
   23.7961    0.7231    0.0000 H   0  0  0  0  0  0  0  0  0  0  0  0
   20.4957    1.8029    0.0000 H   0  0  0  0  0  0  0  0  0  0  0  0
   20.4813    0.1691    0.0000 H   0  0  0  0  0  0  0  0  0  0  0  0
   23.6871    1.6811    0.0000 H   0  0  0  0  0  0  0  0  0  0  0  0
   21.8786    4.9945    0.0000 H   0  0  0  0  0  0  0  0  0  0  0  0
   20.2018    4.3843    0.0000 H   0  0  0  0  0  0  0  0  0  0  0  0
   20.2950    2.6023    0.0000 H   0  0  0  0  0  0  0  0  0  0  0  0
   23.1299    4.9179    0.0000 H   0  0  0  0  0  0  0  0  0  0  0  0
   24.7198    4.1076    0.0000 H   0  0  0  0  0  0  0  0  0  0  0  0
   24.2694    2.2326    0.0000 H   0  0  0  0  0  0  0  0  0  0  0  0
   19.9539    1.4251    0.0000 H   0  0  0  0  0  0  0  0  0  0  0  0
   19.5951   -1.9472    0.0000 H   0  0  0  0  0  0  0  0  0  0  0  0
   17.2442   -3.2675    0.0000 H   0  0  0  0  0  0  0  0  0  0  0  0
   18.9211   -2.6573    0.0000 H   0  0  0  0  0  0  0  0  0  0  0  0
   14.9610   -0.6510    0.0000 H   0  0  0  0  0  0  0  0  0  0  0  0
   16.0940    0.0164    0.0000 H   0  0  0  0  0  0  0  0  0  0  0  0
   14.5809   -3.9425    0.0000 H   0  0  0  0  0  0  0  0  0  0  0  0
   16.3197   -3.5413    0.0000 H   0  0  0  0  0  0  0  0  0  0  0  0
   12.9594   -0.9242    0.0000 H   0  0  0  0  0  0  0  0  0  0  0  0
   10.1969   -4.0424    0.0000 H   0  0  0  0  0  0  0  0  0  0  0  0
   10.9611   -1.4671    0.0000 H   0  0  0  0  0  0  0  0  0  0  0  0
   12.0813   -5.8309    0.0000 H   0  0  0  0  0  0  0  0  0  0  0  0
   14.5724   -5.0932    0.0000 H   0  0  0  0  0  0  0  0  0  0  0  0
   15.6585   -2.0130    0.0000 H   0  0  0  0  0  0  0  0  0  0  0  0
   16.0165    1.1995    0.0000 H   0  0  0  0  0  0  0  0  0  0  0  0
   12.8263    2.4257    0.0000 H   0  0  0  0  0  0  0  0  0  0  0  0
   12.7016    0.6456    0.0000 H   0  0  0  0  0  0  0  0  0  0  0  0
   15.5977    3.9149    0.0000 H   0  0  0  0  0  0  0  0  0  0  0  0
   15.9074    2.1575    0.0000 H   0  0  0  0  0  0  0  0  0  0  0  0
   12.1742    1.9015    0.0000 H   0  0  0  0  0  0  0  0  0  0  0  0
   11.8154   -1.4707    0.0000 H   0  0  0  0  0  0  0  0  0  0  0  0
    9.4646   -2.7911    0.0000 H   0  0  0  0  0  0  0  0  0  0  0  0
   11.3046   -1.8536    0.0000 H   0  0  0  0  0  0  0  0  0  0  0  0
    8.3144    0.4928    0.0000 H   0  0  0  0  0  0  0  0  0  0  0  0
    5.8996   -2.1036    0.0000 H   0  0  0  0  0  0  0  0  0  0  0  0
    6.8013   -3.4661    0.0000 H   0  0  0  0  0  0  0  0  0  0  0  0
    8.5400   -3.0648    0.0000 H   0  0  0  0  0  0  0  0  0  0  0  0
    6.9080    1.3003    0.0000 H   0  0  0  0  0  0  0  0  0  0  0  0
    5.6942   -0.3704    0.0000 H   0  0  0  0  0  0  0  0  0  0  0  0
    6.4199   -1.4669    0.0000 H   0  0  0  0  0  0  0  0  0  0  0  0
    7.8788   -1.5366    0.0000 H   0  0  0  0  0  0  0  0  0  0  0  0
    8.2368    1.6759    0.0000 H   0  0  0  0  0  0  0  0  0  0  0  0
    4.8332    1.2823    0.0000 H   0  0  0  0  0  0  0  0  0  0  0  0
    6.0582    4.6282    0.0000 H   0  0  0  0  0  0  0  0  0  0  0  0
    7.8180    4.3913    0.0000 H   0  0  0  0  0  0  0  0  0  0  0  0
    8.1277    2.6340    0.0000 H   0  0  0  0  0  0  0  0  0  0  0  0
    3.4779    3.1061    0.0000 H   0  0  0  0  0  0  0  0  0  0  0  0
    4.0231    1.5659    0.0000 H   0  0  0  0  0  0  0  0  0  0  0  0
    3.7773    5.0810    0.0000 H   0  0  0  0  0  0  0  0  0  0  0  0
    5.6263    5.6285    0.0000 H   0  0  0  0  0  0  0  0  0  0  0  0
    6.5280    4.2661    0.0000 H   0  0  0  0  0  0  0  0  0  0  0  0
    4.2128    2.3557    0.0000 H   0  0  0  0  0  0  0  0  0  0  0  0
    4.0358   -0.9943    0.0000 H   0  0  0  0  0  0  0  0  0  0  0  0
    1.5128   -2.2520    0.0000 H   0  0  0  0  0  0  0  0  0  0  0  0
    3.3618   -1.7044    0.0000 H   0  0  0  0  0  0  0  0  0  0  0  0
   -0.5983    0.3019    0.0000 H   0  0  0  0  0  0  0  0  0  0  0  0
    0.5347    0.9692    0.0000 H   0  0  0  0  0  0  0  0  0  0  0  0
    0.0991   -1.0601    0.0000 H   0  0  0  0  0  0  0  0  0  0  0  0
    0.4572    2.1524    0.0000 H   0  0  0  0  0  0  0  0  0  0  0  0
   -2.7330    3.3785    0.0000 H   0  0  0  0  0  0  0  0  0  0  0  0
   -2.8577    1.5985    0.0000 H   0  0  0  0  0  0  0  0  0  0  0  0
    0.0383    4.8678    0.0000 H   0  0  0  0  0  0  0  0  0  0  0  0
    0.3481    3.1104    0.0000 H   0  0  0  0  0  0  0  0  0  0  0  0
   -3.3851    2.8544    0.0000 H   0  0  0  0  0  0  0  0  0  0  0  0
   -3.7439   -0.5178    0.0000 H   0  0  0  0  0  0  0  0  0  0  0  0
   -6.0948   -1.8382    0.0000 H   0  0  0  0  0  0  0  0  0  0  0  0
   -4.4179   -1.2280    0.0000 H   0  0  0  0  0  0  0  0  0  0  0  0
   -7.2449    1.4457    0.0000 H   0  0  0  0  0  0  0  0  0  0  0  0
   -9.6470   -1.3335    0.0000 H   0  0  0  0  0  0  0  0  0  0  0  0
   -8.7580   -2.5132    0.0000 H   0  0  0  0  0  0  0  0  0  0  0  0
   -7.0193   -2.1120    0.0000 H   0  0  0  0  0  0  0  0  0  0  0  0
   -8.6513    2.2532    0.0000 H   0  0  0  0  0  0  0  0  0  0  0  0
   -9.8779    0.7653    0.0000 H   0  0  0  0  0  0  0  0  0  0  0  0
   -9.1394   -0.5140    0.0000 H   0  0  0  0  0  0  0  0  0  0  0  0
   -7.6805   -0.5837    0.0000 H   0  0  0  0  0  0  0  0  0  0  0  0
   -7.3225    2.6288    0.0000 H   0  0  0  0  0  0  0  0  0  0  0  0
  -10.3854    3.9867    0.0000 H   0  0  0  0  0  0  0  0  0  0  0  0
  -10.6374    2.0749    0.0000 H   0  0  0  0  0  0  0  0  0  0  0  0
   -9.6661    5.4621    0.0000 H   0  0  0  0  0  0  0  0  0  0  0  0
   -7.7413    5.3442    0.0000 H   0  0  0  0  0  0  0  0  0  0  0  0
   -7.4316    3.5869    0.0000 H   0  0  0  0  0  0  0  0  0  0  0  0
  -10.9815    3.3308    0.0000 H   0  0  0  0  0  0  0  0  0  0  0  0
  -11.3035   -0.2233    0.0000 H   0  0  0  0  0  0  0  0  0  0  0  0
  -11.9713   -1.5337    0.0000 H   0  0  0  0  0  0  0  0  0  0  0  0
  -12.2060   -2.1128    0.0000 H   0  0  0  0  0  0  0  0  0  0  0  0
  -13.0007   -2.9315    0.0000 H   0  0  0  0  0  0  0  0  0  0  0  0
  -13.4616   -3.3291    0.0000 H   0  0  0  0  0  0  0  0  0  0  0  0
  -14.7516   -4.0356    0.0000 H   0  0  0  0  0  0  0  0  0  0  0  0
  -15.7188   -4.5855    0.0000 H   0  0  0  0  0  0  0  0  0  0  0  0
  -11.0893   -1.3002    0.0000 H   0  0  0  0  0  0  0  0  0  0  0  0
  -10.0316   -0.5755    0.0000 H   0  0  0  0  0  0  0  0  0  0  0  0
  -10.2592    1.3394    0.0000 H   0  0  0  0  0  0  0  0  0  0  0  0
  -11.6452    4.7810    0.0000 H   0  0  0  0  0  0  0  0  0  0  0  0
  -12.3689    5.4206    0.0000 H   0  0  0  0  0  0  0  0  0  0  0  0
  -14.9902    7.1667    0.0000 H   0  0  0  0  0  0  0  0  0  0  0  0
  -11.6095    8.6347    0.0000 H   0  0  0  0  0  0  0  0  0  0  0  0
  -10.6227    7.1585    0.0000 H   0  0  0  0  0  0  0  0  0  0  0  0
  -11.7354    5.7635    0.0000 H   0  0  0  0  0  0  0  0  0  0  0  0
  -14.4582    9.5623    0.0000 H   0  0  0  0  0  0  0  0  0  0  0  0
  -15.2285    7.9527    0.0000 H   0  0  0  0  0  0  0  0  0  0  0  0
  -12.7793   10.6445    0.0000 H   0  0  0  0  0  0  0  0  0  0  0  0
  -11.1453    9.6205    0.0000 H   0  0  0  0  0  0  0  0  0  0  0  0
  -11.5702    8.0429    0.0000 H   0  0  0  0  0  0  0  0  0  0  0  0
  -16.2099    8.1417    0.0000 H   0  0  0  0  0  0  0  0  0  0  0  0
  -17.1612    7.9747    0.0000 H   0  0  0  0  0  0  0  0  0  0  0  0
  -20.1607    7.0139    0.0000 H   0  0  0  0  0  0  0  0  0  0  0  0
  -20.3937   10.1372    0.0000 H   0  0  0  0  0  0  0  0  0  0  0  0
  -19.2110   10.5526    0.0000 H   0  0  0  0  0  0  0  0  0  0  0  0
  -17.4312   10.4235    0.0000 H   0  0  0  0  0  0  0  0  0  0  0  0
  -17.0342    8.6838    0.0000 H   0  0  0  0  0  0  0  0  0  0  0  0
  -21.6834    6.6682    0.0000 H   0  0  0  0  0  0  0  0  0  0  0  0
  -22.1459    5.8204    0.0000 H   0  0  0  0  0  0  0  0  0  0  0  0
  -24.5831    3.8417    0.0000 H   0  0  0  0  0  0  0  0  0  0  0  0
  -23.2649    2.8762    0.0000 H   0  0  0  0  0  0  0  0  0  0  0  0
  -24.2289    7.1361    0.0000 H   0  0  0  0  0  0  0  0  0  0  0  0
  -22.6212    6.3617    0.0000 H   0  0  0  0  0  0  0  0  0  0  0  0
  -27.7156    6.9104    0.0000 H   0  0  0  0  0  0  0  0  0  0  0  0
  -25.4836    8.2399    0.0000 H   0  0  0  0  0  0  0  0  0  0  0  0
  -23.9441    1.4702    0.0000 H   0  0  0  0  0  0  0  0  0  0  0  0
  -21.9911   -2.6745    0.0000 H   0  0  0  0  0  0  0  0  0  0  0  0
  -22.8916   -1.7254    0.0000 H   0  0  0  0  0  0  0  0  0  0  0  0
  -20.6738   -3.8051    0.0000 H   0  0  0  0  0  0  0  0  0  0  0  0
  -21.6322   -3.1860    0.0000 H   0  0  0  0  0  0  0  0  0  0  0  0
  -18.7196   -4.4873    0.0000 H   0  0  0  0  0  0  0  0  0  0  0  0
  -20.1353   -4.0889    0.0000 H   0  0  0  0  0  0  0  0  0  0  0  0
  -17.6535   -4.8058    0.0000 H   0  0  0  0  0  0  0  0  0  0  0  0
  -24.8884   -0.4010    0.0000 H   0  0  0  0  0  0  0  0  0  0  0  0
  -24.7637    1.3791    0.0000 H   0  0  0  0  0  0  0  0  0  0  0  0
  -23.3756    1.8842    0.0000 H   0  0  0  0  0  0  0  0  0  0  0  0
  -25.3020    0.3817    0.0000 H   0  0  0  0  0  0  0  0  0  0  0  0
  -24.1621   -2.8123    0.0000 H   0  0  0  0  0  0  0  0  0  0  0  0
  -25.8896   -5.0401    0.0000 H   0  0  0  0  0  0  0  0  0  0  0  0
  -24.4613   -3.7446    0.0000 H   0  0  0  0  0  0  0  0  0  0  0  0
  -28.8996   -3.6552    0.0000 H   0  0  0  0  0  0  0  0  0  0  0  0
  -28.1684   -2.5623    0.0000 H   0  0  0  0  0  0  0  0  0  0  0  0
  -29.7962   -7.0323    0.0000 H   0  0  0  0  0  0  0  0  0  0  0  0
  -30.6257   -4.7871    0.0000 H   0  0  0  0  0  0  0  0  0  0  0  0
  -27.6803   -4.5797    0.0000 H   0  0  0  0  0  0  0  0  0  0  0  0
  -28.7516   -1.5300    0.0000 H   0  0  0  0  0  0  0  0  0  0  0  0
  -32.1937   -1.9890    0.0000 H   0  0  0  0  0  0  0  0  0  0  0  0
  -31.4979   -3.4673    0.0000 H   0  0  0  0  0  0  0  0  0  0  0  0
  -30.1364    0.6683    0.0000 H   0  0  0  0  0  0  0  0  0  0  0  0
  -29.2656   -0.7141    0.0000 H   0  0  0  0  0  0  0  0  0  0  0  0
  -33.5923    0.0265    0.0000 H   0  0  0  0  0  0  0  0  0  0  0  0
  -32.7214   -1.3559    0.0000 H   0  0  0  0  0  0  0  0  0  0  0  0
  -31.6919    2.9330    0.0000 H   0  0  0  0  0  0  0  0  0  0  0  0
  -30.6504    1.4841    0.0000 H   0  0  0  0  0  0  0  0  0  0  0  0
  -33.5351    3.7030    0.0000 H   0  0  0  0  0  0  0  0  0  0  0  0
  -34.9634    2.4074    0.0000 H   0  0  0  0  0  0  0  0  0  0  0  0
  -34.1062    0.8424    0.0000 H   0  0  0  0  0  0  0  0  0  0  0  0
  -32.5179   -2.5645    0.0000 H   0  0  0  0  0  0  0  0  0  0  0  0
  -31.3781   -5.7585    0.0000 H   0  0  0  0  0  0  0  0  0  0  0  0
  -34.3088   -7.4559    0.0000 H   0  0  0  0  0  0  0  0  0  0  0  0
  -33.1055   -7.9863    0.0000 H   0  0  0  0  0  0  0  0  0  0  0  0
  -31.6772   -6.6908    0.0000 H   0  0  0  0  0  0  0  0  0  0  0  0
  -33.2442   -7.0881    0.0000 H   0  0  0  0  0  0  0  0  0  0  0  0
  -33.9826   -8.8034    0.0000 H   0  0  0  0  0  0  0  0  0  0  0  0
  -34.9637   -9.4705    0.0000 H   0  0  0  0  0  0  0  0  0  0  0  0
  -36.9701   -9.4078    0.0000 H   0  0  0  0  0  0  0  0  0  0  0  0
  -37.9077   -8.6808    0.0000 H   0  0  0  0  0  0  0  0  0  0  0  0
  -38.5376   -6.9227    0.0000 H   0  0  0  0  0  0  0  0  0  0  0  0
  -36.4063   -4.5082    0.0000 H   0  0  0  0  0  0  0  0  0  0  0  0
  -37.4471   -3.1136    0.0000 H   0  0  0  0  0  0  0  0  0  0  0  0
  -40.0411   -5.3356    0.0000 H   0  0  0  0  0  0  0  0  0  0  0  0
  -42.6881   -4.8227    0.0000 H   0  0  0  0  0  0  0  0  0  0  0  0
  -41.0144   -5.4415    0.0000 H   0  0  0  0  0  0  0  0  0  0  0  0
  -41.3003   -1.6900    0.0000 H   0  0  0  0  0  0  0  0  0  0  0  0
  -44.8374   -1.8599    0.0000 H   0  0  0  0  0  0  0  0  0  0  0  0
  -45.1562   -3.6156    0.0000 H   0  0  0  0  0  0  0  0  0  0  0  0
  -43.5704   -4.4338    0.0000 H   0  0  0  0  0  0  0  0  0  0  0  0
  -44.1403   -0.8180    0.0000 H   0  0  0  0  0  0  0  0  0  0  0  0
  -42.6388    0.1462    0.0000 H   0  0  0  0  0  0  0  0  0  0  0  0
  -41.2467   -1.1882    0.0000 H   0  0  0  0  0  0  0  0  0  0  0  0
  1  2  1  0
  2  3  1  0
  3  4  2  0
  4  5  1  0
  5  6  2  0
  6  7  1  0
  7  8  2  0
  7  9  1  0
  9 10  1  0
 10 11  1  0
 11 12  2  0
  9 13  1  0
 13 14  1  0
 14 15  2  0
 15 16  1  0
 16 17  2  0
 17 18  1  0
 16 19  1  0
 14 20  1  0
 20 21  1  0
 21 22  2  0
 22 23  1  0
 23 24  2  0
 24 25  1  0
 25 26  2  0
 25 27  1  0
  1 28  2  0
  1 29  1  0
 29 30  1  0
 30 31  1  0
 31 32  1  0
 32 33  2  0
 32 34  1  0
 34 35  1  0
 35 36  1  0
 36 37  1  0
 35 38  1  0
 38 39  2  0
 38 40  1  0
 40 41  1  0
 41 42  1  0
 42 43  1  0
 42 44  1  0
 41 45  1  0
 45 46  2  0
 45 47  1  0
 47 48  1  0
 48 49  1  0
 48 50  1  0
 50 51  2  0
 50 52  1  0
 52 53  1  0
 53 54  1  0
 54 55  1  0
 55 56  1  0
 55 57  1  0
 53 58  1  0
 58 59  2  0
 58 60  1  0
 60 61  1  0
 61 62  1  0
 62 63  1  0
 63 64  1  0
 64 65  1  0
 65 66  1  0
 66 67  2  3
 66 68  1  0
 61 69  1  0
 69 70  2  0
 69 71  1  0
 71 72  1  0
 72 73  1  0
 73 74  1  0
 74 75  1  0
 75 76  2  0
 75 77  1  0
 72 78  1  0
 78 79  2  0
 78 80  1  0
 80 81  1  0
 81 82  1  0
 82 83  1  0
 83 84  1  0
 83 85  1  0
 81 86  1  0
 86 87  2  0
 86 88  1  0
 88 89  1  0
 89 90  1  0
 90 91  1  0
 90 92  1  0
 92 93  1  0
 89 94  1  0
 94 95  2  0
 94 96  1  0
 96 97  1  0
 97 98  1  0
 98 99  1  0
 99100  1  0
100101  2  0
100102  1  0
 97103  1  0
103104  2  0
103105  1  0
105106  1  0
106107  1  0
107108  1  0
108109  1  0
109110  2  0
109111  1  0
106112  1  0
112113  2  0
112114  1  0
114115  1  0
115116  1  0
116117  1  0
117118  1  0
117119  1  0
115120  1  0
120121  2  0
120122  1  0
122123  1  0
123124  1  0
124125  1  0
123126  1  0
126127  2  0
126128  1  0
129128  1  1
129130  1  0
130131  1  0
131132  1  0
132133  1  0
129134  1  0
129135  1  0
135136  2  0
135137  1  0
137138  1  0
138139  1  0
139140  1  0
139141  1  0
141142  1  0
138143  1  0
143144  2  0
143145  1  0
145146  1  0
146147  1  0
147148  1  0
147149  1  0
146150  1  0
150151  2  0
150152  1  0
152153  1  0
153154  1  0
154155  1  0
155156  1  0
156157  1  0
156158  2  0
153159  1  0
159160  2  0
159161  1  0
161162  1  0
162163  1  0
163164  1  0
164165  1  0
165166  1  0
162167  1  0
162168  1  1
168169  2  0
168170  1  0
170171  1  0
171172  1  0
172173  1  0
173174  1  0
174175  1  0
174176  2  0
171177  1  0
177178  2  0
177179  1  0
179180  1  0
180181  1  0
181182  1  0
182183  1  0
183184  1  0
184185  1  0
180186  1  0
186187  2  0
186188  1  0
188189  1  0
189190  1  0
189191  1  0
191192  2  0
191193  1  0
193194  1  0
194195  1  0
195196  1  0
196197  1  0
197198  1  0
198199  2  0
198200  1  0
200201  1  0
201202  1  0
202203  1  0
203204  1  0
203205  1  0
201206  1  0
206207  2  0
206208  1  0
  8  3  1  0
197193  1  0
 11  6  1  0
133166  2  0
 18 13  2  0
 22  9  1  0
 26 21  1  0
  2209  1  0
  4210  1  0
  5211  1  0
  8212  1  0
 15213  1  0
 17214  1  0
 18215  1  0
 19216  1  0
 23217  1  0
 24218  1  0
 26219  1  0
 27220  1  0
 29221  1  0
 30222  1  0
 30223  1  0
 31224  1  0
 31225  1  0
 34226  1  0
 35227  1  1
 36228  1  0
 36229  1  0
 37230  1  0
 40231  1  0
 41232  1  6
 42233  1  1
 43234  1  0
 44235  1  0
 44236  1  0
 44237  1  0
 47238  1  0
 48239  1  1
 49240  1  0
 49241  1  0
 49242  1  0
 52243  1  0
 53244  1  6
 54245  1  0
 54246  1  0
 55247  1  0
 56248  1  0
 56249  1  0
 56250  1  0
 57251  1  0
 57252  1  0
 57253  1  0
 60254  1  0
 61255  1  1
 62256  1  0
 62257  1  0
 63258  1  0
 63259  1  0
 64260  1  0
 64261  1  0
 65262  1  0
 67263  1  0
 67264  1  0
 68265  1  0
 68266  1  0
 71267  1  0
 72268  1  6
 73269  1  0
 73270  1  0
 74271  1  0
 74272  1  0
 80273  1  0
 81274  1  1
 82275  1  0
 82276  1  0
 83277  1  0
 84278  1  0
 84279  1  0
 84280  1  0
 85281  1  0
 85282  1  0
 85283  1  0
 88284  1  0
 89285  1  6
 90286  1  1
 91287  1  0
 91288  1  0
 91289  1  0
 92290  1  0
 92291  1  0
 93292  1  0
 93293  1  0
 93294  1  0
 96295  1  0
 97296  1  1
 98297  1  0
 98298  1  0
 99299  1  0
 99300  1  0
105301  1  0
106302  1  6
107303  1  0
107304  1  0
108305  1  0
108306  1  0
114307  1  0
115308  1  1
116309  1  0
116310  1  0
117311  1  0
118312  1  0
118313  1  0
118314  1  0
119315  1  0
119316  1  0
119317  1  0
122318  1  0
123319  1  6
124320  1  0
124321  1  0
125322  1  0
125323  1  0
125324  1  0
128325  1  0
130326  1  0
130327  1  0
131328  1  0
131329  1  0
132330  1  0
132331  1  0
133332  1  0
134333  1  0
134334  1  0
134335  1  0
137336  1  0
138337  1  6
139338  1  1
140339  1  0
140340  1  0
140341  1  0
141342  1  0
141343  1  0
142344  1  0
142345  1  0
142346  1  0
145347  1  0
146348  1  6
147349  1  1
148350  1  0
149351  1  0
149352  1  0
149353  1  0
152354  1  0
153355  1  6
154356  1  0
154357  1  0
155358  1  0
155359  1  0
157360  1  0
157361  1  0
161362  1  0
163363  1  0
163364  1  0
164365  1  0
164366  1  0
165367  1  0
165368  1  0
166369  1  0
167370  1  0
167371  1  0
167372  1  0
170373  1  0
171374  1  1
172375  1  0
172376  1  0
173377  1  0
173378  1  0
175379  1  0
175380  1  0
179381  1  0
180382  1  6
181383  1  0
181384  1  0
182385  1  0
182386  1  0
183387  1  0
183388  1  0
184389  1  0
184390  1  0
185391  1  0
185392  1  0
185393  1  0
188394  1  0
189395  1  1
190396  1  0
190397  1  0
190398  1  0
194399  1  0
194400  1  0
195401  1  0
195402  1  0
196403  1  0
196404  1  0
197405  1  0
200406  1  0
201407  1  1
202408  1  0
202409  1  0
203410  1  0
204411  1  0
204412  1  0
204413  1  0
205414  1  0
205415  1  0
205416  1  0
M  CHG  6  67   1  77  -1 102  -1 111  -1 185   1 208  -1
M  END
