
     RDKit          2D

288296  0  0  0  0  0  0  0  0999 V2000
   17.1698  -15.8928    0.0000 N   0  0  0  0  0  0  0  0  0  0  0  0
   16.3394  -14.6435    0.0000 C   0  0  0  0  0  0  0  0  0  0  0  0
   17.0061  -13.2998    0.0000 C   0  0  0  0  0  0  0  0  0  0  0  0
   16.1758  -12.0506    0.0000 C   0  0  0  0  0  0  0  0  0  0  0  0
   14.6787  -12.1451    0.0000 O   0  0  0  0  0  0  0  0  0  0  0  0
   16.8424  -10.7069    0.0000 N   0  0  0  0  0  0  0  0  0  0  0  0
   16.0121   -9.4577    0.0000 C   0  0  0  0  0  0  0  0  0  0  0  0
   17.3865   -8.8569    0.0000 C   0  0  0  0  0  0  0  0  0  0  0  0
   18.6935   -9.5929    0.0000 O   0  0  0  0  0  0  0  0  0  0  0  0
   14.8045   -8.5678    0.0000 C   0  0  0  0  0  0  0  0  0  0  0  0
   14.9714   -7.0772    0.0000 O   0  0  0  0  0  0  0  0  0  0  0  0
   13.4301   -9.1687    0.0000 N   0  0  0  0  0  0  0  0  0  0  0  0
   12.2226   -8.2788    0.0000 C   0  0  0  0  0  0  0  0  0  0  0  0
   11.5559   -9.6225    0.0000 C   0  0  0  0  0  0  0  0  0  0  0  0
   12.2278  -10.9636    0.0000 O   0  0  0  0  0  0  0  0  0  0  0  0
   11.3922   -7.0296    0.0000 C   0  0  0  0  0  0  0  0  0  0  0  0
   10.0653   -7.2782    0.0000 O   0  0  0  0  0  0  0  0  0  0  0  0
   12.0589   -5.6859    0.0000 N   0  0  0  0  0  0  0  0  0  0  0  0
   11.2286   -4.4367    0.0000 C   0  0  0  0  0  0  0  0  0  0  0  0
   10.1425   -5.4713    0.0000 C   0  0  0  0  0  0  0  0  0  0  0  0
    8.7035   -5.0481    0.0000 C   0  0  0  0  0  0  0  0  0  0  0  0
   10.8755   -2.9788    0.0000 C   0  0  0  0  0  0  0  0  0  0  0  0
    9.4365   -2.5556    0.0000 O   0  0  0  0  0  0  0  0  0  0  0  0
   11.9616   -1.9441    0.0000 N   0  0  0  0  0  0  0  0  0  0  0  0
   11.6085   -0.4863    0.0000 C   0  0  0  0  0  0  0  0  0  0  0  0
   13.1056   -0.3918    0.0000 C   0  0  0  0  0  0  0  0  0  0  0  0
   13.9359   -1.6410    0.0000 C   0  0  0  0  0  0  0  0  0  0  0  0
   15.4329   -1.5465    0.0000 C   0  0  0  0  0  0  0  0  0  0  0  0
   16.2633   -2.7957    0.0000 C   0  0  0  0  0  0  0  0  0  0  0  0
   15.5966   -4.1394    0.0000 C   0  0  0  0  0  0  0  0  0  0  0  0
   14.0996   -4.2339    0.0000 C   0  0  0  0  0  0  0  0  0  0  0  0
   13.2693   -2.9847    0.0000 C   0  0  0  0  0  0  0  0  0  0  0  0
   10.7782    0.7629    0.0000 C   0  0  0  0  0  0  0  0  0  0  0  0
    9.2812    0.6684    0.0000 O   0  0  0  0  0  0  0  0  0  0  0  0
   11.4449    2.1066    0.0000 N   0  0  0  0  0  0  0  0  0  0  0  0
   10.6145    3.3558    0.0000 C   0  0  0  0  0  0  0  0  0  0  0  0
   11.9889    3.9567    0.0000 C   0  0  0  0  0  0  0  0  0  0  0  0
   13.1964    3.0668    0.0000 C   0  0  0  0  0  0  0  0  0  0  0  0
   13.0296    1.5761    0.0000 C   0  0  0  0  0  0  0  0  0  0  0  0
   14.2371    0.6862    0.0000 C   0  0  0  0  0  0  0  0  0  0  0  0
   15.6115    1.2870    0.0000 C   0  0  0  0  0  0  0  0  0  0  0  0
   16.8190    0.3972    0.0000 O   0  0  0  0  0  0  0  0  0  0  0  0
   15.7784    2.7777    0.0000 C   0  0  0  0  0  0  0  0  0  0  0  0
   14.5709    3.6676    0.0000 C   0  0  0  0  0  0  0  0  0  0  0  0
    9.4070    4.2457    0.0000 C   0  0  0  0  0  0  0  0  0  0  0  0
    9.7543    5.7049    0.0000 O   0  0  0  0  0  0  0  0  0  0  0  0
    8.0326    3.6449    0.0000 N   0  0  0  0  0  0  0  0  0  0  0  0
    6.8250    4.5348    0.0000 C   0  0  0  0  0  0  0  0  0  0  0  0
    6.5105    3.0681    0.0000 C   0  0  0  0  0  0  0  0  0  0  0  0
    5.7777    1.7593    0.0000 C   0  0  0  0  0  0  0  0  0  0  0  0
    4.6917    0.7246    0.0000 C   0  0  0  0  0  0  0  0  0  0  0  0
    3.3489    0.0560    0.0000 C   0  0  0  0  0  0  0  0  0  0  0  0
    8.1328    5.2694    0.0000 C   0  0  0  0  0  0  0  0  0  0  0  0
    6.6932    6.0290    0.0000 C   0  0  0  0  0  0  0  0  0  0  0  0
    8.1511    6.3820    0.0000 O   0  0  0  0  0  0  0  0  0  0  0  0
    6.1269    7.4179    0.0000 N   0  0  0  0  0  0  0  0  0  0  0  0
    5.1763    8.5782    0.0000 C   0  0  0  0  0  0  0  0  0  0  0  0
    5.4172   10.0588    0.0000 C   0  0  0  0  0  0  0  0  0  0  0  0
    6.8199   10.5903    0.0000 C   0  0  0  0  0  0  0  0  0  0  0  0
    7.9816    9.6414    0.0000 C   0  0  0  0  0  0  0  0  0  0  0  0
    9.3842   10.1729    0.0000 C   0  0  0  0  0  0  0  0  0  0  0  0
    9.6252   11.6534    0.0000 C   0  0  0  0  0  0  0  0  0  0  0  0
   11.0279   12.1850    0.0000 O   0  0  0  0  0  0  0  0  0  0  0  0
    8.4635   12.6024    0.0000 C   0  0  0  0  0  0  0  0  0  0  0  0
    7.0609   12.0708    0.0000 C   0  0  0  0  0  0  0  0  0  0  0  0
    3.9259    9.4068    0.0000 C   0  0  0  0  0  0  0  0  0  0  0  0
    4.5588   10.7667    0.0000 O   0  0  0  0  0  0  0  0  0  0  0  0
    2.4868    9.8300    0.0000 N   0  0  0  0  0  0  0  0  0  0  0  0
    0.9869    9.8103    0.0000 C   0  0  0  0  0  0  0  0  0  0  0  0
   -0.0203   10.9218    0.0000 C   0  0  0  0  0  0  0  0  0  0  0  0
    0.4386   12.3498    0.0000 C   0  0  0  0  0  0  0  0  0  0  0  0
    1.9048   12.6664    0.0000 C   0  0  0  0  0  0  0  0  0  0  0  0
    2.3638   14.0944    0.0000 C   0  0  0  0  0  0  0  0  0  0  0  0
    1.3565   15.2059    0.0000 C   0  0  0  0  0  0  0  0  0  0  0  0
   -0.1097   14.8894    0.0000 C   0  0  0  0  0  0  0  0  0  0  0  0
   -0.5686   13.4613    0.0000 C   0  0  0  0  0  0  0  0  0  0  0  0
   -0.4405    9.3493    0.0000 C   0  0  0  0  0  0  0  0  0  0  0  0
   -1.1091   10.6920    0.0000 O   0  0  0  0  0  0  0  0  0  0  0  0
   -1.6686    8.4880    0.0000 N   0  0  0  0  0  0  0  0  0  0  0  0
   -2.5883    7.3031    0.0000 C   0  0  0  0  0  0  0  0  0  0  0  0
   -4.0853    7.2086    0.0000 C   0  0  0  0  0  0  0  0  0  0  0  0
   -4.9157    8.4578    0.0000 C   0  0  0  0  0  0  0  0  0  0  0  0
   -6.4144    8.5203    0.0000 C   0  0  0  0  0  0  0  0  0  0  0  0
   -6.8180    9.9649    0.0000 N   0  0  0  0  0  0  0  0  0  0  0  0
   -5.5688   10.7953    0.0000 C   0  0  0  0  0  0  0  0  0  0  0  0
   -4.3931    9.8638    0.0000 N   0  0  0  0  0  0  0  0  0  0  0  0
   -3.1179    5.8997    0.0000 C   0  0  0  0  0  0  0  0  0  0  0  0
   -4.5845    6.2141    0.0000 O   0  0  0  0  0  0  0  0  0  0  0  0
   -3.2102    4.4025    0.0000 N   0  0  0  0  0  0  0  0  0  0  0  0
   -2.8572    2.9446    0.0000 C   0  0  0  0  0  0  0  0  0  0  0  0
   -2.0901    1.6556    0.0000 C   0  0  0  0  0  0  0  0  0  0  0  0
   -0.9772    0.6499    0.0000 C   0  0  0  0  0  0  0  0  0  0  0  0
    0.3827    0.0170    0.0000 C   0  0  0  0  0  0  0  0  0  0  0  0
    1.8688   -0.1870    0.0000 C   0  0  0  0  0  0  0  0  0  0  0  0
   -4.3312    3.2225    0.0000 C   0  0  0  0  0  0  0  0  0  0  0  0
   -3.7167    1.7153    0.0000 C   0  0  0  0  0  0  0  0  0  0  0  0
   -3.4295    0.2430    0.0000 O   0  0  0  0  0  0  0  0  0  0  0  0
   -5.2111    1.8450    0.0000 N   0  0  0  0  0  0  0  0  0  0  0  0
   -6.0706    0.6156    0.0000 C   0  0  0  0  0  0  0  0  0  0  0  0
   -6.4578   -0.8335    0.0000 C   0  0  0  0  0  0  0  0  0  0  0  0
   -7.9064   -1.2228    0.0000 C   0  0  0  0  0  0  0  0  0  0  0  0
   -7.5649    0.7453    0.0000 C   0  0  0  0  0  0  0  0  0  0  0  0
   -8.5679   -0.3701    0.0000 O   0  0  0  0  0  0  0  0  0  0  0  0
   -8.1998    2.1043    0.0000 N   0  0  0  0  0  0  0  0  0  0  0  0
   -7.4736    3.4167    0.0000 C   0  0  0  0  0  0  0  0  0  0  0  0
   -8.4973    4.5130    0.0000 C   0  0  0  0  0  0  0  0  0  0  0  0
   -9.8564    3.8782    0.0000 C   0  0  0  0  0  0  0  0  0  0  0  0
   -9.6725    2.3895    0.0000 C   0  0  0  0  0  0  0  0  0  0  0  0
  -11.1722    2.3622    0.0000 C   0  0  0  0  0  0  0  0  0  0  0  0
  -11.9457    3.6474    0.0000 O   0  0  0  0  0  0  0  0  0  0  0  0
  -11.8985    1.0498    0.0000 N   0  0  0  0  0  0  0  0  0  0  0  0
  -13.3983    1.0225    0.0000 C   0  0  0  0  0  0  0  0  0  0  0  0
  -14.8169    1.5099    0.0000 C   0  0  0  0  0  0  0  0  0  0  0  0
  -15.1042    2.9821    0.0000 C   0  0  0  0  0  0  0  0  0  0  0  0
  -13.9728    3.9670    0.0000 C   0  0  0  0  0  0  0  0  0  0  0  0
  -14.2601    5.4392    0.0000 C   0  0  0  0  0  0  0  0  0  0  0  0
  -15.6787    5.9266    0.0000 C   0  0  0  0  0  0  0  0  0  0  0  0
  -15.9659    7.3988    0.0000 O   0  0  0  0  0  0  0  0  0  0  0  0
  -16.8100    4.9417    0.0000 C   0  0  0  0  0  0  0  0  0  0  0  0
  -16.5228    3.4694    0.0000 C   0  0  0  0  0  0  0  0  0  0  0  0
  -14.1246   -0.2899    0.0000 C   0  0  0  0  0  0  0  0  0  0  0  0
  -15.6243   -0.3172    0.0000 O   0  0  0  0  0  0  0  0  0  0  0  0
  -13.3511   -1.5751    0.0000 N   0  0  0  0  0  0  0  0  0  0  0  0
  -14.0774   -2.8876    0.0000 C   0  0  0  0  0  0  0  0  0  0  0  0
  -15.2087   -3.8725    0.0000 C   0  0  0  0  0  0  0  0  0  0  0  0
  -16.6273   -3.3851    0.0000 C   0  0  0  0  0  0  0  0  0  0  0  0
  -16.9146   -1.9129    0.0000 C   0  0  0  0  0  0  0  0  0  0  0  0
  -18.3332   -1.4255    0.0000 C   0  0  0  0  0  0  0  0  0  0  0  0
  -19.4646   -2.4104    0.0000 C   0  0  0  0  0  0  0  0  0  0  0  0
  -19.1773   -3.8827    0.0000 C   0  0  0  0  0  0  0  0  0  0  0  0
  -17.7587   -4.3700    0.0000 C   0  0  0  0  0  0  0  0  0  0  0  0
  -13.3039   -4.1728    0.0000 C   0  0  0  0  0  0  0  0  0  0  0  0
  -11.8041   -4.1455    0.0000 O   0  0  0  0  0  0  0  0  0  0  0  0
  -14.0302   -5.4852    0.0000 N   0  0  0  0  0  0  0  0  0  0  0  0
  -13.2567   -6.7704    0.0000 C   0  0  0  0  0  0  0  0  0  0  0  0
  -12.0903   -7.7136    0.0000 C   0  0  0  0  0  0  0  0  0  0  0  0
  -12.3239   -9.1953    0.0000 C   0  0  0  0  0  0  0  0  0  0  0  0
  -11.1575  -10.1384    0.0000 C   0  0  0  0  0  0  0  0  0  0  0  0
  -11.3911  -11.6201    0.0000 O   0  0  0  0  0  0  0  0  0  0  0  0
   -9.7575   -9.5999    0.0000 O   0  0  0  0  0  0  0  0  0  0  0  0
  -13.9830   -8.0829    0.0000 C   0  0  0  0  0  0  0  0  0  0  0  0
  -13.3719   -9.4528    0.0000 O   0  0  0  0  0  0  0  0  0  0  0  0
  -15.4827   -8.1101    0.0000 N   0  0  0  0  0  0  0  0  0  0  0  0
  -16.2090   -9.4226    0.0000 C   0  0  0  0  0  0  0  0  0  0  0  0
  -16.4426  -10.9043    0.0000 C   0  0  0  0  0  0  0  0  0  0  0  0
  -15.2762  -11.8474    0.0000 C   0  0  0  0  0  0  0  0  0  0  0  0
  -15.5098  -13.3291    0.0000 C   0  0  0  0  0  0  0  0  0  0  0  0
  -13.8576  -12.3347    0.0000 C   0  0  0  0  0  0  0  0  0  0  0  0
  -17.7088   -9.4498    0.0000 C   0  0  0  0  0  0  0  0  0  0  0  0
  -18.5896  -10.6639    0.0000 O   0  0  0  0  0  0  0  0  0  0  0  0
  -18.4822   -8.1646    0.0000 O   0  0  0  0  0  0  0  0  0  0  0  0
   16.5031  -17.2365    0.0000 H   0  0  0  0  0  0  0  0  0  0  0  0
   18.6668  -15.7982    0.0000 H   0  0  0  0  0  0  0  0  0  0  0  0
   15.2534  -15.6782    0.0000 H   0  0  0  0  0  0  0  0  0  0  0  0
   15.1319  -13.7537    0.0000 H   0  0  0  0  0  0  0  0  0  0  0  0
   18.2136  -14.1897    0.0000 H   0  0  0  0  0  0  0  0  0  0  0  0
   18.0922  -12.2652    0.0000 H   0  0  0  0  0  0  0  0  0  0  0  0
   18.3398  -10.7956    0.0000 H   0  0  0  0  0  0  0  0  0  0  0  0
   14.9260  -10.4924    0.0000 H   0  0  0  0  0  0  0  0  0  0  0  0
   18.4725   -7.8222    0.0000 H   0  0  0  0  0  0  0  0  0  0  0  0
   16.5561   -7.6077    0.0000 H   0  0  0  0  0  0  0  0  0  0  0  0
   19.9684   -9.1460    0.0000 H   0  0  0  0  0  0  0  0  0  0  0  0
   13.4462  -10.6686    0.0000 H   0  0  0  0  0  0  0  0  0  0  0  0
   13.3086   -7.2441    0.0000 H   0  0  0  0  0  0  0  0  0  0  0  0
   10.4699  -10.6572    0.0000 H   0  0  0  0  0  0  0  0  0  0  0  0
   10.3484   -8.7326    0.0000 H   0  0  0  0  0  0  0  0  0  0  0  0
   11.7196  -12.2154    0.0000 H   0  0  0  0  0  0  0  0  0  0  0  0
   13.5563   -5.7746    0.0000 H   0  0  0  0  0  0  0  0  0  0  0  0
   12.6030   -3.8359    0.0000 H   0  0  0  0  0  0  0  0  0  0  0  0
    9.3996   -6.5985    0.0000 H   0  0  0  0  0  0  0  0  0  0  0  0
   10.8397   -6.3138    0.0000 H   0  0  0  0  0  0  0  0  0  0  0  0
    7.6174   -6.0828    0.0000 H   0  0  0  0  0  0  0  0  0  0  0  0
    7.4959   -4.1583    0.0000 H   0  0  0  0  0  0  0  0  0  0  0  0
    9.3701   -3.7044    0.0000 H   0  0  0  0  0  0  0  0  0  0  0  0
   12.6492   -2.3474    0.0000 H   0  0  0  0  0  0  0  0  0  0  0  0
   10.2341   -1.0871    0.0000 H   0  0  0  0  0  0  0  0  0  0  0  0
   14.5845   -0.1414    0.0000 H   0  0  0  0  0  0  0  0  0  0  0  0
   12.4103    0.9373    0.0000 H   0  0  0  0  0  0  0  0  0  0  0  0
   16.0996   -0.2028    0.0000 H   0  0  0  0  0  0  0  0  0  0  0  0
   17.7603   -2.7012    0.0000 H   0  0  0  0  0  0  0  0  0  0  0  0
   16.4270   -5.3886    0.0000 H   0  0  0  0  0  0  0  0  0  0  0  0
   13.6017   -5.6489    0.0000 H   0  0  0  0  0  0  0  0  0  0  0  0
   11.7722   -3.0792    0.0000 H   0  0  0  0  0  0  0  0  0  0  0  0
   12.9203    1.8361    0.0000 H   0  0  0  0  0  0  0  0  0  0  0  0
    9.5285    2.3212    0.0000 H   0  0  0  0  0  0  0  0  0  0  0  0
   13.0750    4.9913    0.0000 H   0  0  0  0  0  0  0  0  0  0  0  0
   11.1586    5.2059    0.0000 H   0  0  0  0  0  0  0  0  0  0  0  0
   11.6551    0.9753    0.0000 H   0  0  0  0  0  0  0  0  0  0  0  0
   14.0702   -0.8045    0.0000 H   0  0  0  0  0  0  0  0  0  0  0  0
   18.1935    0.9980    0.0000 H   0  0  0  0  0  0  0  0  0  0  0  0
   17.1528    3.3785    0.0000 H   0  0  0  0  0  0  0  0  0  0  0  0
   14.7377    5.1583    0.0000 H   0  0  0  0  0  0  0  0  0  0  0  0
    8.2313    2.1581    0.0000 H   0  0  0  0  0  0  0  0  0  0  0  0
    8.0098    3.0205    0.0000 H   0  0  0  0  0  0  0  0  0  0  0  0
    7.4021    1.8618    0.0000 H   0  0  0  0  0  0  0  0  0  0  0  0
    7.1963    1.2719    0.0000 H   0  0  0  0  0  0  0  0  0  0  0  0
    6.4430    0.4149    0.0000 H   0  0  0  0  0  0  0  0  0  0  0  0
    6.0023   -0.0050    0.0000 H   0  0  0  0  0  0  0  0  0  0  0  0
    4.7488   -0.7743    0.0000 H   0  0  0  0  0  0  0  0  0  0  0  0
    3.8099   -1.3714    0.0000 H   0  0  0  0  0  0  0  0  0  0  0  0
    9.5697    4.8391    0.0000 H   0  0  0  0  0  0  0  0  0  0  0  0
    8.9644    6.5178    0.0000 H   0  0  0  0  0  0  0  0  0  0  0  0
    7.4912    6.6253    0.0000 H   0  0  0  0  0  0  0  0  0  0  0  0
    7.4998    8.0221    0.0000 H   0  0  0  0  0  0  0  0  0  0  0  0
    6.6249    8.9675    0.0000 H   0  0  0  0  0  0  0  0  0  0  0  0
    5.1373   11.5324    0.0000 H   0  0  0  0  0  0  0  0  0  0  0  0
    3.9572   10.4025    0.0000 H   0  0  0  0  0  0  0  0  0  0  0  0
    7.9228    8.1425    0.0000 H   0  0  0  0  0  0  0  0  0  0  0  0
   10.5459    9.2240    0.0000 H   0  0  0  0  0  0  0  0  0  0  0  0
   11.2688   13.6655    0.0000 H   0  0  0  0  0  0  0  0  0  0  0  0
    8.7045   14.0829    0.0000 H   0  0  0  0  0  0  0  0  0  0  0  0
    5.8992   13.0198    0.0000 H   0  0  0  0  0  0  0  0  0  0  0  0
    2.8704   11.2801    0.0000 H   0  0  0  0  0  0  0  0  0  0  0  0
    1.5858   11.1855    0.0000 H   0  0  0  0  0  0  0  0  0  0  0  0
   -1.3470   11.6217    0.0000 H   0  0  0  0  0  0  0  0  0  0  0  0
   -1.1994    9.9945    0.0000 H   0  0  0  0  0  0  0  0  0  0  0  0
    3.0401   11.6860    0.0000 H   0  0  0  0  0  0  0  0  0  0  0  0
    3.8300   14.4110    0.0000 H   0  0  0  0  0  0  0  0  0  0  0  0
    1.8155   16.6340    0.0000 H   0  0  0  0  0  0  0  0  0  0  0  0
   -1.1170   16.0009    0.0000 H   0  0  0  0  0  0  0  0  0  0  0  0
   -2.0349   13.1447    0.0000 H   0  0  0  0  0  0  0  0  0  0  0  0
   -2.7032    9.5741    0.0000 H   0  0  0  0  0  0  0  0  0  0  0  0
   -3.2901    8.6287    0.0000 H   0  0  0  0  0  0  0  0  0  0  0  0
   -5.4597    6.6077    0.0000 H   0  0  0  0  0  0  0  0  0  0  0  0
   -4.0955    5.7086    0.0000 H   0  0  0  0  0  0  0  0  0  0  0  0
   -7.3458    7.3445    0.0000 H   0  0  0  0  0  0  0  0  0  0  0  0
   -8.2241   10.4875    0.0000 H   0  0  0  0  0  0  0  0  0  0  0  0
   -5.5063   12.2940    0.0000 H   0  0  0  0  0  0  0  0  0  0  0  0
   -4.7044    4.2707    0.0000 H   0  0  0  0  0  0  0  0  0  0  0  0
   -2.5491    0.2275    0.0000 H   0  0  0  0  0  0  0  0  0  0  0  0
   -3.4954    1.1310    0.0000 H   0  0  0  0  0  0  0  0  0  0  0  0
   -1.1775   -0.8367    0.0000 H   0  0  0  0  0  0  0  0  0  0  0  0
   -2.1654   -0.2656    0.0000 H   0  0  0  0  0  0  0  0  0  0  0  0
    0.8080   -1.4215    0.0000 H   0  0  0  0  0  0  0  0  0  0  0  0
   -0.6257   -1.0935    0.0000 H   0  0  0  0  0  0  0  0  0  0  0  0
    1.8885   -1.6869    0.0000 H   0  0  0  0  0  0  0  0  0  0  0  0
   -5.5551    2.3552    0.0000 H   0  0  0  0  0  0  0  0  0  0  0  0
   -5.5185    4.1392    0.0000 H   0  0  0  0  0  0  0  0  0  0  0  0
   -4.1570    4.7123    0.0000 H   0  0  0  0  0  0  0  0  0  0  0  0
   -6.1559    3.0100    0.0000 H   0  0  0  0  0  0  0  0  0  0  0  0
   -4.7106   -0.0173    0.0000 H   0  0  0  0  0  0  0  0  0  0  0  0
   -6.3260   -2.3277    0.0000 H   0  0  0  0  0  0  0  0  0  0  0  0
   -4.9634   -0.9632    0.0000 H   0  0  0  0  0  0  0  0  0  0  0  0
   -8.2936   -2.6720    0.0000 H   0  0  0  0  0  0  0  0  0  0  0  0
   -9.4008   -1.0931    0.0000 H   0  0  0  0  0  0  0  0  0  0  0  0
   -8.5650    0.1249    0.0000 H   0  0  0  0  0  0  0  0  0  0  0  0
   -6.3582    2.4138    0.0000 H   0  0  0  0  0  0  0  0  0  0  0  0
   -6.4903    4.5495    0.0000 H   0  0  0  0  0  0  0  0  0  0  0  0
   -7.3000    5.4166    0.0000 H   0  0  0  0  0  0  0  0  0  0  0  0
   -9.2708    5.7983    0.0000 H   0  0  0  0  0  0  0  0  0  0  0  0
  -10.3457    5.2961    0.0000 H   0  0  0  0  0  0  0  0  0  0  0  0
  -11.3480    3.7203    0.0000 H   0  0  0  0  0  0  0  0  0  0  0  0
   -9.8022    0.8951    0.0000 H   0  0  0  0  0  0  0  0  0  0  0  0
  -11.1250   -0.2354    0.0000 H   0  0  0  0  0  0  0  0  0  0  0  0
  -13.1647    2.5042    0.0000 H   0  0  0  0  0  0  0  0  0  0  0  0
  -16.3166    1.4826    0.0000 H   0  0  0  0  0  0  0  0  0  0  0  0
  -15.2294    0.0677    0.0000 H   0  0  0  0  0  0  0  0  0  0  0  0
  -12.5053    3.6562    0.0000 H   0  0  0  0  0  0  0  0  0  0  0  0
  -13.1287    6.4241    0.0000 H   0  0  0  0  0  0  0  0  0  0  0  0
  -17.3846    7.8862    0.0000 H   0  0  0  0  0  0  0  0  0  0  0  0
  -18.2287    5.4290    0.0000 H   0  0  0  0  0  0  0  0  0  0  0  0
  -17.6541    2.4846    0.0000 H   0  0  0  0  0  0  0  0  0  0  0  0
  -11.8513   -1.5479    0.0000 H   0  0  0  0  0  0  0  0  0  0  0  0
  -15.2437   -1.9444    0.0000 H   0  0  0  0  0  0  0  0  0  0  0  0
  -16.0896   -5.0866    0.0000 H   0  0  0  0  0  0  0  0  0  0  0  0
  -14.3052   -5.0698    0.0000 H   0  0  0  0  0  0  0  0  0  0  0  0
  -15.9117   -0.7974    0.0000 H   0  0  0  0  0  0  0  0  0  0  0  0
  -18.6205    0.0467    0.0000 H   0  0  0  0  0  0  0  0  0  0  0  0
  -20.8832   -1.9231    0.0000 H   0  0  0  0  0  0  0  0  0  0  0  0
  -20.3087   -4.8676    0.0000 H   0  0  0  0  0  0  0  0  0  0  0  0
  -17.4714   -5.8423    0.0000 H   0  0  0  0  0  0  0  0  0  0  0  0
  -15.5154   -5.6951    0.0000 H   0  0  0  0  0  0  0  0  0  0  0  0
  -12.1253   -5.7855    0.0000 H   0  0  0  0  0  0  0  0  0  0  0  0
  -10.6717   -8.2009    0.0000 H   0  0  0  0  0  0  0  0  0  0  0  0
  -11.3640   -6.4011    0.0000 H   0  0  0  0  0  0  0  0  0  0  0  0
  -13.2047  -10.4094    0.0000 H   0  0  0  0  0  0  0  0  0  0  0  0
  -13.8229   -9.2488    0.0000 H   0  0  0  0  0  0  0  0  0  0  0  0
  -16.2562   -6.8249    0.0000 H   0  0  0  0  0  0  0  0  0  0  0  0
  -14.7416   -9.7333    0.0000 H   0  0  0  0  0  0  0  0  0  0  0  0
  -17.3234  -12.1184    0.0000 H   0  0  0  0  0  0  0  0  0  0  0  0
  -17.9101  -10.5935    0.0000 H   0  0  0  0  0  0  0  0  0  0  0  0
  -14.3954  -10.6333    0.0000 H   0  0  0  0  0  0  0  0  0  0  0  0
  -14.4671  -14.4074    0.0000 H   0  0  0  0  0  0  0  0  0  0  0  0
  -16.2361  -14.6416    0.0000 H   0  0  0  0  0  0  0  0  0  0  0  0
  -16.9773  -13.0183    0.0000 H   0  0  0  0  0  0  0  0  0  0  0  0
  -13.3930  -13.7610    0.0000 H   0  0  0  0  0  0  0  0  0  0  0  0
  -12.3578  -12.3075    0.0000 H   0  0  0  0  0  0  0  0  0  0  0  0
  -13.8063  -10.8356    0.0000 H   0  0  0  0  0  0  0  0  0  0  0  0
  1  2  1  0
  2  3  1  0
  3  4  1  0
  4  5  2  0
  4  6  1  0
  6  7  1  0
  7  8  1  0
  8  9  1  0
  7 10  1  0
 10 11  2  0
 10 12  1  0
 12 13  1  0
 13 14  1  0
 14 15  1  0
 13 16  1  0
 16 17  2  0
 16 18  1  0
 18 19  1  0
 19 20  1  0
 20 21  1  0
 19 22  1  0
 22 23  2  0
 22 24  1  0
 24 25  1  0
 25 26  1  0
 26 27  1  0
 27 28  2  0
 28 29  1  0
 29 30  2  0
 30 31  1  0
 31 32  2  0
 25 33  1  0
 33 34  2  0
 33 35  1  0
 35 36  1  0
 36 37  1  0
 37 38  1  0
 38 39  2  0
 39 40  1  0
 40 41  2  0
 41 42  1  0
 41 43  1  0
 43 44  2  0
 36 45  1  0
 45 46  2  0
 45 47  1  0
 48 47  1  1
 48 49  1  0
 49 50  1  0
 50 51  1  0
 51 52  1  0
 48 53  1  0
 48 54  1  0
 54 55  2  0
 54 56  1  0
 56 57  1  0
 57 58  1  0
 58 59  1  0
 59 60  2  0
 60 61  1  0
 61 62  2  0
 62 63  1  0
 62 64  1  0
 64 65  2  0
 57 66  1  0
 66 67  2  0
 66 68  1  0
 68 69  1  0
 69 70  1  0
 70 71  1  0
 71 72  2  0
 72 73  1  0
 73 74  2  0
 74 75  1  0
 75 76  2  0
 69 77  1  0
 77 78  2  0
 77 79  1  0
 79 80  1  0
 80 81  1  0
 81 82  1  0
 82 83  2  0
 83 84  1  0
 84 85  1  0
 85 86  2  0
 80 87  1  0
 87 88  2  0
 87 89  1  0
 89 90  1  0
 90 91  1  0
 91 92  1  0
 92 93  1  0
 93 94  1  0
 90 95  1  0
 90 96  1  1
 96 97  2  0
 96 98  1  0
 98 99  1  0
 99100  1  0
100101  1  0
 99102  1  0
102103  2  0
102104  1  0
104105  1  0
105106  1  0
106107  1  0
107108  1  0
108109  1  0
109110  2  0
109111  1  0
111112  1  0
112113  1  0
113114  1  0
114115  2  0
115116  1  0
116117  2  0
117118  1  0
117119  1  0
119120  2  0
112121  1  0
121122  2  0
121123  1  0
123124  1  0
124125  1  0
125126  1  0
126127  2  0
127128  1  0
128129  2  0
129130  1  0
130131  2  0
124132  1  0
132133  2  0
132134  1  0
134135  1  0
135136  1  0
136137  1  0
137138  1  0
138139  2  0
138140  1  0
135141  1  0
141142  2  0
141143  1  0
143144  1  0
144145  1  0
145146  1  0
146147  1  0
146148  1  0
144149  1  0
149150  2  0
149151  1  0
 32 27  1  0
 44 38  1  0
 65 59  1  0
 76 71  1  0
 86 82  1  0
108104  1  0
120114  1  0
131126  1  0
 52 94  2  0
  1152  1  0
  1153  1  0
  2154  1  0
  2155  1  0
  3156  1  0
  3157  1  0
  6158  1  0
  7159  1  6
  8160  1  0
  8161  1  0
  9162  1  0
 12163  1  0
 13164  1  1
 14165  1  0
 14166  1  0
 15167  1  0
 18168  1  0
 19169  1  1
 20170  1  0
 20171  1  0
 21172  1  0
 21173  1  0
 21174  1  0
 24175  1  0
 25176  1  6
 26177  1  0
 26178  1  0
 28179  1  0
 29180  1  0
 30181  1  0
 31182  1  0
 32183  1  0
 35184  1  0
 36185  1  6
 37186  1  0
 37187  1  0
 39188  1  0
 40189  1  0
 42190  1  0
 43191  1  0
 44192  1  0
 47193  1  0
 49194  1  0
 49195  1  0
 50196  1  0
 50197  1  0
 51198  1  0
 51199  1  0
 52200  1  0
 53201  1  0
 53202  1  0
 53203  1  0
 56204  1  0
 57205  1  6
 58206  1  0
 58207  1  0
 60208  1  0
 61209  1  0
 63210  1  0
 64211  1  0
 65212  1  0
 68213  1  0
 69214  1  6
 70215  1  0
 70216  1  0
 72217  1  0
 73218  1  0
 74219  1  0
 75220  1  0
 76221  1  0
 79222  1  0
 80223  1  6
 81224  1  0
 81225  1  0
 83226  1  0
 84227  1  0
 85228  1  0
 89229  1  0
 91230  1  0
 91231  1  0
 92232  1  0
 92233  1  0
 93234  1  0
 93235  1  0
 94236  1  0
 95237  1  0
 95238  1  0
 95239  1  0
 98240  1  0
 99241  1  1
100242  1  0
100243  1  0
101244  1  0
101245  1  0
101246  1  0
105247  1  0
105248  1  0
106249  1  0
106250  1  0
107251  1  0
107252  1  0
108253  1  0
111254  1  0
112255  1  6
113256  1  0
113257  1  0
115258  1  0
116259  1  0
118260  1  0
119261  1  0
120262  1  0
123263  1  0
124264  1  6
125265  1  0
125266  1  0
127267  1  0
128268  1  0
129269  1  0
130270  1  0
131271  1  0
134272  1  0
135273  1  1
136274  1  0
136275  1  0
137276  1  0
137277  1  0
143278  1  0
144279  1  1
145280  1  0
145281  1  0
146282  1  0
147283  1  0
147284  1  0
147285  1  0
148286  1  0
148287  1  0
148288  1  0
M  CHG  2 140  -1 151  -1
M  END
