
     RDKit          2D

303310  0  0  0  0  0  0  0  0999 V2000
   20.4893   -3.2262    0.0000 C   0  0  0  0  0  0  0  0  0  0  0  0
   21.8293   -2.5521    0.0000 N   0  0  0  0  0  0  0  0  0  0  0  0
   23.0831   -3.3755    0.0000 C   0  0  0  0  0  0  0  0  0  0  0  0
   22.9970   -4.8730    0.0000 C   0  0  0  0  0  0  0  0  0  0  0  0
   24.2508   -5.6964    0.0000 C   0  0  0  0  0  0  0  0  0  0  0  0
   25.5907   -5.0222    0.0000 C   0  0  0  0  0  0  0  0  0  0  0  0
   25.6769   -3.5247    0.0000 C   0  0  0  0  0  0  0  0  0  0  0  0
   24.4231   -2.7013    0.0000 C   0  0  0  0  0  0  0  0  0  0  0  0
   27.1278   -3.1439    0.0000 C   0  0  0  0  0  0  0  0  0  0  0  0
   27.9383   -4.4061    0.0000 O   0  0  0  0  0  0  0  0  0  0  0  0
   26.9883   -5.5670    0.0000 C   0  0  0  0  0  0  0  0  0  0  0  0
   27.3691   -7.0178    0.0000 O   0  0  0  0  0  0  0  0  0  0  0  0
   28.6105   -2.9169    0.0000 C   0  0  0  0  0  0  0  0  0  0  0  0
   29.1552   -1.5193    0.0000 C   0  0  0  0  0  0  0  0  0  0  0  0
   30.6379   -1.2922    0.0000 C   0  0  0  0  0  0  0  0  0  0  0  0
   31.5759   -2.4628    0.0000 C   0  0  0  0  0  0  0  0  0  0  0  0
   31.0312   -3.8604    0.0000 C   0  0  0  0  0  0  0  0  0  0  0  0
   29.5485   -4.0874    0.0000 C   0  0  0  0  0  0  0  0  0  0  0  0
   33.0586   -2.2357    0.0000 O   0  0  0  0  0  0  0  0  0  0  0  0
   28.2172   -0.3487    0.0000 O   0  0  0  0  0  0  0  0  0  0  0  0
   26.7345   -0.5758    0.0000 C   0  0  0  0  0  0  0  0  0  0  0  0
   26.1898   -1.9734    0.0000 C   0  0  0  0  0  0  0  0  0  0  0  0
   24.9613   -1.5482    0.0000 C   0  0  0  0  0  0  0  0  0  0  0  0
   24.4610   -0.9239    0.0000 C   0  0  0  0  0  0  0  0  0  0  0  0
   24.7515   -0.1786    0.0000 C   0  0  0  0  0  0  0  0  0  0  0  0
   25.5423   -0.0575    0.0000 C   0  0  0  0  0  0  0  0  0  0  0  0
   23.3758    1.5382    0.0000 O   0  0  0  0  0  0  0  0  0  0  0  0
   20.4032   -4.7237    0.0000 S   0  0  0  0  0  0  0  0  0  0  0  0
   19.2355   -2.4028    0.0000 N   0  0  0  0  0  0  0  0  0  0  0  0
   17.8956   -3.0769    0.0000 C   0  0  0  0  0  0  0  0  0  0  0  0
   16.6418   -2.2535    0.0000 C   0  0  0  0  0  0  0  0  0  0  0  0
   15.3018   -2.9277    0.0000 C   0  0  0  0  0  0  0  0  0  0  0  0
   15.4499   -3.7109    0.0000 O   0  0  0  0  0  0  0  0  0  0  0  0
   14.0480   -2.1043    0.0000 N   0  0  0  0  0  0  0  0  0  0  0  0
   12.7080   -2.7784    0.0000 C   0  0  0  0  0  0  0  0  0  0  0  0
   13.6046   -3.9810    0.0000 C   0  0  0  0  0  0  0  0  0  0  0  0
   15.0943   -3.8058    0.0000 C   0  0  0  0  0  0  0  0  0  0  0  0
   15.9909   -5.0083    0.0000 N   0  0  0  0  0  0  0  0  0  0  0  0
   16.0032   -2.6125    0.0000 O   0  0  0  0  0  0  0  0  0  0  0  0
   11.2183   -2.9536    0.0000 C   0  0  0  0  0  0  0  0  0  0  0  0
   10.9761   -4.4339    0.0000 O   0  0  0  0  0  0  0  0  0  0  0  0
   10.3217   -1.7510    0.0000 N   0  0  0  0  0  0  0  0  0  0  0  0
    8.8320   -1.9262    0.0000 C   0  0  0  0  0  0  0  0  0  0  0  0
    9.2632   -3.3629    0.0000 C   0  0  0  0  0  0  0  0  0  0  0  0
   10.7230   -3.7078    0.0000 C   0  0  0  0  0  0  0  0  0  0  0  0
   11.1542   -5.1444    0.0000 C   0  0  0  0  0  0  0  0  0  0  0  0
   12.5610   -5.6647    0.0000 N   0  0  0  0  0  0  0  0  0  0  0  0
   10.1256   -6.2362    0.0000 O   0  0  0  0  0  0  0  0  0  0  0  0
    7.3721   -1.5813    0.0000 C   0  0  0  0  0  0  0  0  0  0  0  0
    6.6383   -2.8895    0.0000 O   0  0  0  0  0  0  0  0  0  0  0  0
    6.9409   -0.1446    0.0000 N   0  0  0  0  0  0  0  0  0  0  0  0
    5.4811    0.2003    0.0000 C   0  0  0  0  0  0  0  0  0  0  0  0
    5.3950   -1.2972    0.0000 C   0  0  0  0  0  0  0  0  0  0  0  0
    6.6488   -2.1206    0.0000 C   0  0  0  0  0  0  0  0  0  0  0  0
    6.5626   -3.6181    0.0000 C   0  0  0  0  0  0  0  0  0  0  0  0
    8.1086   -2.4655    0.0000 C   0  0  0  0  0  0  0  0  0  0  0  0
    4.2273    1.0237    0.0000 C   0  0  0  0  0  0  0  0  0  0  0  0
    3.0903    0.0454    0.0000 O   0  0  0  0  0  0  0  0  0  0  0  0
    4.3135    2.5213    0.0000 N   0  0  0  0  0  0  0  0  0  0  0  0
    3.0597    3.3447    0.0000 C   0  0  0  0  0  0  0  0  0  0  0  0
    2.8787    1.8556    0.0000 C   0  0  0  0  0  0  0  0  0  0  0  0
    2.4192    0.4277    0.0000 C   0  0  0  0  0  0  0  0  0  0  0  0
    1.6978   -0.8874    0.0000 C   0  0  0  0  0  0  0  0  0  0  0  0
    0.7405   -2.0422    0.0000 C   0  0  0  0  0  0  0  0  0  0  0  0
   -0.4181   -2.9950    0.0000 C   0  0  0  0  0  0  0  0  0  0  0  0
   -1.7360   -3.7113    0.0000 C   0  0  0  0  0  0  0  0  0  0  0  0
   -3.1656   -4.1652    0.0000 C   0  0  0  0  0  0  0  0  0  0  0  0
    4.3542    4.1024    0.0000 C   0  0  0  0  0  0  0  0  0  0  0  0
    2.9556    4.8410    0.0000 C   0  0  0  0  0  0  0  0  0  0  0  0
    4.3943    5.2654    0.0000 O   0  0  0  0  0  0  0  0  0  0  0  0
    2.5702    6.2907    0.0000 N   0  0  0  0  0  0  0  0  0  0  0  0
    1.9174    7.6412    0.0000 C   0  0  0  0  0  0  0  0  0  0  0  0
    2.5968    8.9785    0.0000 C   0  0  0  0  0  0  0  0  0  0  0  0
    4.0946    9.0589    0.0000 C   0  0  0  0  0  0  0  0  0  0  0  0
    4.7740   10.3962    0.0000 C   0  0  0  0  0  0  0  0  0  0  0  0
    5.5296    8.6221    0.0000 C   0  0  0  0  0  0  0  0  0  0  0  0
    1.0209    8.8438    0.0000 C   0  0  0  0  0  0  0  0  0  0  0  0
    2.0017    9.9786    0.0000 O   0  0  0  0  0  0  0  0  0  0  0  0
   -0.0871    9.8549    0.0000 N   0  0  0  0  0  0  0  0  0  0  0  0
   -1.3664   10.6381    0.0000 C   0  0  0  0  0  0  0  0  0  0  0  0
   -1.5179   12.1304    0.0000 C   0  0  0  0  0  0  0  0  0  0  0  0
   -0.3013   13.0078    0.0000 O   0  0  0  0  0  0  0  0  0  0  0  0
   -2.7708   11.1651    0.0000 C   0  0  0  0  0  0  0  0  0  0  0  0
   -2.5592   12.6501    0.0000 O   0  0  0  0  0  0  0  0  0  0  0  0
   -4.2495   11.4167    0.0000 N   0  0  0  0  0  0  0  0  0  0  0  0
   -5.7492   11.3839    0.0000 C   0  0  0  0  0  0  0  0  0  0  0  0
   -6.6834   12.5574    0.0000 C   0  0  0  0  0  0  0  0  0  0  0  0
   -6.1343   13.9533    0.0000 C   0  0  0  0  0  0  0  0  0  0  0  0
   -4.6509   14.1756    0.0000 C   0  0  0  0  0  0  0  0  0  0  0  0
   -4.1017   15.5715    0.0000 C   0  0  0  0  0  0  0  0  0  0  0  0
   -5.0360   16.7450    0.0000 C   0  0  0  0  0  0  0  0  0  0  0  0
   -6.5194   16.5227    0.0000 C   0  0  0  0  0  0  0  0  0  0  0  0
   -7.0686   15.1268    0.0000 C   0  0  0  0  0  0  0  0  0  0  0  0
   -7.2155   11.0679    0.0000 C   0  0  0  0  0  0  0  0  0  0  0  0
   -7.8403   12.4316    0.0000 O   0  0  0  0  0  0  0  0  0  0  0  0
   -8.5955   10.4801    0.0000 N   0  0  0  0  0  0  0  0  0  0  0  0
   -9.8394    9.6418    0.0000 C   0  0  0  0  0  0  0  0  0  0  0  0
  -11.2598   10.1239    0.0000 C   0  0  0  0  0  0  0  0  0  0  0  0
  -11.5525   11.5951    0.0000 C   0  0  0  0  0  0  0  0  0  0  0  0
  -10.4248   12.5841    0.0000 C   0  0  0  0  0  0  0  0  0  0  0  0
  -10.7175   14.0553    0.0000 C   0  0  0  0  0  0  0  0  0  0  0  0
  -12.1379   14.5374    0.0000 C   0  0  0  0  0  0  0  0  0  0  0  0
  -13.2656   13.5484    0.0000 C   0  0  0  0  0  0  0  0  0  0  0  0
  -12.9729   12.0772    0.0000 C   0  0  0  0  0  0  0  0  0  0  0  0
  -10.9021    8.5832    0.0000 C   0  0  0  0  0  0  0  0  0  0  0  0
  -12.1650    9.3926    0.0000 O   0  0  0  0  0  0  0  0  0  0  0  0
  -11.7453    7.3426    0.0000 N   0  0  0  0  0  0  0  0  0  0  0  0
  -12.3385    5.9649    0.0000 C   0  0  0  0  0  0  0  0  0  0  0  0
  -13.7941    5.6026    0.0000 C   0  0  0  0  0  0  0  0  0  0  0  0
  -12.6602    4.4998    0.0000 C   0  0  0  0  0  0  0  0  0  0  0  0
  -14.1602    4.4979    0.0000 O   0  0  0  0  0  0  0  0  0  0  0  0
  -12.6988    3.0003    0.0000 N   0  0  0  0  0  0  0  0  0  0  0  0
  -12.4530    1.5206    0.0000 C   0  0  0  0  0  0  0  0  0  0  0  0
  -13.4816    0.4288    0.0000 C   0  0  0  0  0  0  0  0  0  0  0  0
  -14.9414    0.7737    0.0000 C   0  0  0  0  0  0  0  0  0  0  0  0
  -15.9700   -0.3180    0.0000 C   0  0  0  0  0  0  0  0  0  0  0  0
  -17.4298    0.0269    0.0000 N   0  0  0  0  0  0  0  0  0  0  0  0
  -18.4584   -1.0649    0.0000 C   0  0  0  0  0  0  0  0  0  0  0  0
  -19.9182   -0.7200    0.0000 N   0  0  0  0  0  0  0  0  0  0  0  0
  -18.0272   -2.5016    0.0000 N   0  0  0  0  0  0  0  0  0  0  0  0
  -11.9315    0.1142    0.0000 C   0  0  0  0  0  0  0  0  0  0  0  0
  -13.1924   -0.6984    0.0000 O   0  0  0  0  0  0  0  0  0  0  0  0
  -11.1533   -1.1682    0.0000 N   0  0  0  0  0  0  0  0  0  0  0  0
  -10.1465   -2.2801    0.0000 C   0  0  0  0  0  0  0  0  0  0  0  0
   -8.9474   -3.1813    0.0000 C   0  0  0  0  0  0  0  0  0  0  0  0
   -7.5995   -3.8394    0.0000 C   0  0  0  0  0  0  0  0  0  0  0  0
   -6.1513   -4.2304    0.0000 C   0  0  0  0  0  0  0  0  0  0  0  0
   -4.6554   -4.3404    0.0000 C   0  0  0  0  0  0  0  0  0  0  0  0
  -11.5898   -2.6884    0.0000 C   0  0  0  0  0  0  0  0  0  0  0  0
  -10.4215   -3.7547    0.0000 C   0  0  0  0  0  0  0  0  0  0  0  0
   -9.5520   -4.9769    0.0000 O   0  0  0  0  0  0  0  0  0  0  0  0
  -11.8361   -4.2537    0.0000 N   0  0  0  0  0  0  0  0  0  0  0  0
  -12.1111   -5.7283    0.0000 C   0  0  0  0  0  0  0  0  0  0  0  0
  -11.8653   -7.2080    0.0000 C   0  0  0  0  0  0  0  0  0  0  0  0
  -13.0238   -8.1608    0.0000 C   0  0  0  0  0  0  0  0  0  0  0  0
  -12.7780   -9.6405    0.0000 O   0  0  0  0  0  0  0  0  0  0  0  0
  -14.5140   -7.9893    0.0000 O   0  0  0  0  0  0  0  0  0  0  0  0
  -13.5257   -6.2274    0.0000 C   0  0  0  0  0  0  0  0  0  0  0  0
  -14.6652   -5.2519    0.0000 O   0  0  0  0  0  0  0  0  0  0  0  0
  -13.8008   -7.7019    0.0000 N   0  0  0  0  0  0  0  0  0  0  0  0
  -15.2153   -8.2010    0.0000 C   0  0  0  0  0  0  0  0  0  0  0  0
  -16.7152   -8.1862    0.0000 C   0  0  0  0  0  0  0  0  0  0  0  0
  -17.4780   -9.4777    0.0000 C   0  0  0  0  0  0  0  0  0  0  0  0
  -18.9780   -9.4629    0.0000 C   0  0  0  0  0  0  0  0  0  0  0  0
  -19.8925  -10.6518    0.0000 N   0  0  0  0  0  0  0  0  0  0  0  0
  -19.7151   -8.1565    0.0000 O   0  0  0  0  0  0  0  0  0  0  0  0
  -15.4904   -9.6756    0.0000 C   0  0  0  0  0  0  0  0  0  0  0  0
  -14.3509  -10.6511    0.0000 O   0  0  0  0  0  0  0  0  0  0  0  0
  -16.9049  -10.1746    0.0000 N   0  0  0  0  0  0  0  0  0  0  0  0
  -17.1800  -11.6492    0.0000 C   0  0  0  0  0  0  0  0  0  0  0  0
  -16.9341  -13.1289    0.0000 C   0  0  0  0  0  0  0  0  0  0  0  0
  -18.0926  -14.0817    0.0000 C   0  0  0  0  0  0  0  0  0  0  0  0
  -16.1970  -14.4353    0.0000 C   0  0  0  0  0  0  0  0  0  0  0  0
  -14.6971  -14.4501    0.0000 C   0  0  0  0  0  0  0  0  0  0  0  0
  -18.5945  -12.1483    0.0000 C   0  0  0  0  0  0  0  0  0  0  0  0
  -19.0473  -13.5783    0.0000 O   0  0  0  0  0  0  0  0  0  0  0  0
  -19.8444  -11.3189    0.0000 O   0  0  0  0  0  0  0  0  0  0  0  0
   21.7323   -1.0552    0.0000 H   0  0  0  0  0  0  0  0  0  0  0  0
   21.6570   -5.5471    0.0000 H   0  0  0  0  0  0  0  0  0  0  0  0
   24.1646   -7.1939    0.0000 H   0  0  0  0  0  0  0  0  0  0  0  0
   24.1444   -1.2275    0.0000 H   0  0  0  0  0  0  0  0  0  0  0  0
   31.1827    0.1054    0.0000 H   0  0  0  0  0  0  0  0  0  0  0  0
   31.9692   -5.0309    0.0000 H   0  0  0  0  0  0  0  0  0  0  0  0
   29.0038   -5.4850    0.0000 H   0  0  0  0  0  0  0  0  0  0  0  0
   33.9966   -3.4062    0.0000 H   0  0  0  0  0  0  0  0  0  0  0  0
   24.1623   -3.5980    0.0000 H   0  0  0  0  0  0  0  0  0  0  0  0
   22.2697   -1.0745    0.0000 H   0  0  0  0  0  0  0  0  0  0  0  0
   26.3412    1.9923    0.0000 H   0  0  0  0  0  0  0  0  0  0  0  0
   23.9205    2.9358    0.0000 H   0  0  0  0  0  0  0  0  0  0  0  0
   19.3217   -0.9053    0.0000 H   0  0  0  0  0  0  0  0  0  0  0  0
   18.7921   -4.2795    0.0000 H   0  0  0  0  0  0  0  0  0  0  0  0
   17.0077   -4.2859    0.0000 H   0  0  0  0  0  0  0  0  0  0  0  0
   17.6704   -1.1618    0.0000 H   0  0  0  0  0  0  0  0  0  0  0  0
   15.7452   -1.0510    0.0000 H   0  0  0  0  0  0  0  0  0  0  0  0
   14.1342   -0.6067    0.0000 H   0  0  0  0  0  0  0  0  0  0  0  0
   12.2768   -1.3417    0.0000 H   0  0  0  0  0  0  0  0  0  0  0  0
   14.0358   -5.4176    0.0000 H   0  0  0  0  0  0  0  0  0  0  0  0
   12.3568   -4.8134    0.0000 H   0  0  0  0  0  0  0  0  0  0  0  0
   17.4909   -5.0161    0.0000 H   0  0  0  0  0  0  0  0  0  0  0  0
   15.3977   -6.3861    0.0000 H   0  0  0  0  0  0  0  0  0  0  0  0
   10.9149   -0.3733    0.0000 H   0  0  0  0  0  0  0  0  0  0  0  0
    9.1000   -0.4503    0.0000 H   0  0  0  0  0  0  0  0  0  0  0  0
    9.1770   -4.8604    0.0000 H   0  0  0  0  0  0  0  0  0  0  0  0
    7.8601   -3.8933    0.0000 H   0  0  0  0  0  0  0  0  0  0  0  0
   12.2127   -3.5326    0.0000 H   0  0  0  0  0  0  0  0  0  0  0  0
   11.1689   -2.2756    0.0000 H   0  0  0  0  0  0  0  0  0  0  0  0
   13.0452   -6.9260    0.0000 H   0  0  0  0  0  0  0  0  0  0  0  0
   13.9170   -4.6969    0.0000 H   0  0  0  0  0  0  0  0  0  0  0  0
    7.9696    0.9472    0.0000 H   0  0  0  0  0  0  0  0  0  0  0  0
    6.0743    1.5781    0.0000 H   0  0  0  0  0  0  0  0  0  0  0  0
    4.6383   -2.5923    0.0000 H   0  0  0  0  0  0  0  0  0  0  0  0
    3.9352   -0.9523    0.0000 H   0  0  0  0  0  0  0  0  0  0  0  0
    7.5577   -0.9273    0.0000 H   0  0  0  0  0  0  0  0  0  0  0  0
    7.5799   -4.7204    0.0000 H   0  0  0  0  0  0  0  0  0  0  0  0
    5.9694   -4.9958    0.0000 H   0  0  0  0  0  0  0  0  0  0  0  0
    5.0716   -3.4537    0.0000 H   0  0  0  0  0  0  0  0  0  0  0  0
    8.5398   -3.9022    0.0000 H   0  0  0  0  0  0  0  0  0  0  0  0
    9.5964   -2.6560    0.0000 H   0  0  0  0  0  0  0  0  0  0  0  0
    8.0116   -0.9686    0.0000 H   0  0  0  0  0  0  0  0  0  0  0  0
    5.7257    3.0270    0.0000 H   0  0  0  0  0  0  0  0  0  0  0  0
    4.3720    1.9976    0.0000 H   0  0  0  0  0  0  0  0  0  0  0  0
    3.8185    0.6865    0.0000 H   0  0  0  0  0  0  0  0  0  0  0  0
    3.8838    0.1036    0.0000 H   0  0  0  0  0  0  0  0  0  0  0  0
    3.2772   -0.8027    0.0000 H   0  0  0  0  0  0  0  0  0  0  0  0
    3.1965   -0.9498    0.0000 H   0  0  0  0  0  0  0  0  0  0  0  0
    2.4699   -2.1734    0.0000 H   0  0  0  0  0  0  0  0  0  0  0  0
    2.1474   -2.5625    0.0000 H   0  0  0  0  0  0  0  0  0  0  0  0
    1.2553   -3.4511    0.0000 H   0  0  0  0  0  0  0  0  0  0  0  0
    0.8649   -3.7721    0.0000 H   0  0  0  0  0  0  0  0  0  0  0  0
   -0.1792   -4.4758    0.0000 H   0  0  0  0  0  0  0  0  0  0  0  0
   -0.6233   -4.7172    0.0000 H   0  0  0  0  0  0  0  0  0  0  0  0
   -1.9641   -5.1938    0.0000 H   0  0  0  0  0  0  0  0  0  0  0  0
   -2.8497   -5.6315    0.0000 H   0  0  0  0  0  0  0  0  0  0  0  0
    5.7385    3.5246    0.0000 H   0  0  0  0  0  0  0  0  0  0  0  0
    5.4452    5.1319    0.0000 H   0  0  0  0  0  0  0  0  0  0  0  0
    3.6887    5.4467    0.0000 H   0  0  0  0  0  0  0  0  0  0  0  0
    4.0297    6.6368    0.0000 H   0  0  0  0  0  0  0  0  0  0  0  0
    3.4044    7.4436    0.0000 H   0  0  0  0  0  0  0  0  0  0  0  0
    2.7778   10.4676    0.0000 H   0  0  0  0  0  0  0  0  0  0  0  0
    1.3101    9.7496    0.0000 H   0  0  0  0  0  0  0  0  0  0  0  0
    4.2793    7.5703    0.0000 H   0  0  0  0  0  0  0  0  0  0  0  0
    6.2509   10.6585    0.0000 H   0  0  0  0  0  0  0  0  0  0  0  0
    4.9550   11.8853    0.0000 H   0  0  0  0  0  0  0  0  0  0  0  0
    3.4030   11.0047    0.0000 H   0  0  0  0  0  0  0  0  0  0  0  0
    6.7421    9.5052    0.0000 H   0  0  0  0  0  0  0  0  0  0  0  0
    6.7287    7.7208    0.0000 H   0  0  0  0  0  0  0  0  0  0  0  0
    4.8503    7.2847    0.0000 H   0  0  0  0  0  0  0  0  0  0  0  0
    0.8142   11.0540    0.0000 H   0  0  0  0  0  0  0  0  0  0  0  0
   -0.0965   11.4366    0.0000 H   0  0  0  0  0  0  0  0  0  0  0  0
   -2.0012   13.5505    0.0000 H   0  0  0  0  0  0  0  0  0  0  0  0
   -3.0172   12.0835    0.0000 H   0  0  0  0  0  0  0  0  0  0  0  0
   -0.4528   14.5002    0.0000 H   0  0  0  0  0  0  0  0  0  0  0  0
   -3.9581   12.8881    0.0000 H   0  0  0  0  0  0  0  0  0  0  0  0
   -5.1126   12.7421    0.0000 H   0  0  0  0  0  0  0  0  0  0  0  0
   -7.8577   13.4907    0.0000 H   0  0  0  0  0  0  0  0  0  0  0  0
   -7.9193   11.7074    0.0000 H   0  0  0  0  0  0  0  0  0  0  0  0
   -3.5805   13.1248    0.0000 H   0  0  0  0  0  0  0  0  0  0  0  0
   -2.6183   15.7939    0.0000 H   0  0  0  0  0  0  0  0  0  0  0  0
   -4.4868   18.1409    0.0000 H   0  0  0  0  0  0  0  0  0  0  0  0
   -7.4537   17.6962    0.0000 H   0  0  0  0  0  0  0  0  0  0  0  0
   -8.5520   14.9045    0.0000 H   0  0  0  0  0  0  0  0  0  0  0  0
   -9.1459   11.8756    0.0000 H   0  0  0  0  0  0  0  0  0  0  0  0
  -10.0382   11.1286    0.0000 H   0  0  0  0  0  0  0  0  0  0  0  0
  -12.7523   10.2742    0.0000 H   0  0  0  0  0  0  0  0  0  0  0  0
  -11.8399    8.7406    0.0000 H   0  0  0  0  0  0  0  0  0  0  0  0
   -8.9562   12.2788    0.0000 H   0  0  0  0  0  0  0  0  0  0  0  0
   -9.5897   15.0444    0.0000 H   0  0  0  0  0  0  0  0  0  0  0  0
  -12.4305   16.0086    0.0000 H   0  0  0  0  0  0  0  0  0  0  0  0
  -14.6860   14.0305    0.0000 H   0  0  0  0  0  0  0  0  0  0  0  0
  -14.1006   11.0882    0.0000 H   0  0  0  0  0  0  0  0  0  0  0  0
  -13.0604    8.0641    0.0000 H   0  0  0  0  0  0  0  0  0  0  0  0
  -13.3095    7.1082    0.0000 H   0  0  0  0  0  0  0  0  0  0  0  0
  -14.8357    6.6819    0.0000 H   0  0  0  0  0  0  0  0  0  0  0  0
  -15.1308    4.9221    0.0000 H   0  0  0  0  0  0  0  0  0  0  0  0
  -13.5342    4.1252    0.0000 H   0  0  0  0  0  0  0  0  0  0  0  0
  -14.1967    3.0794    0.0000 H   0  0  0  0  0  0  0  0  0  0  0  0
  -13.8240    2.1291    0.0000 H   0  0  0  0  0  0  0  0  0  0  0  0
  -14.0747   -0.9489    0.0000 H   0  0  0  0  0  0  0  0  0  0  0  0
  -12.4643   -0.6735    0.0000 H   0  0  0  0  0  0  0  0  0  0  0  0
  -16.1952    1.5971    0.0000 H   0  0  0  0  0  0  0  0  0  0  0  0
  -14.6992    2.2541    0.0000 H   0  0  0  0  0  0  0  0  0  0  0  0
  -16.5631   -1.6958    0.0000 H   0  0  0  0  0  0  0  0  0  0  0  0
  -14.8259   -1.2881    0.0000 H   0  0  0  0  0  0  0  0  0  0  0  0
  -17.8610    1.4636    0.0000 H   0  0  0  0  0  0  0  0  0  0  0  0
  -20.9468   -1.8118    0.0000 H   0  0  0  0  0  0  0  0  0  0  0  0
  -19.0558   -3.5934    0.0000 H   0  0  0  0  0  0  0  0  0  0  0  0
  -16.5674   -2.8465    0.0000 H   0  0  0  0  0  0  0  0  0  0  0  0
  -12.4562   -1.9115    0.0000 H   0  0  0  0  0  0  0  0  0  0  0  0
   -8.9385   -4.6813    0.0000 H   0  0  0  0  0  0  0  0  0  0  0  0
  -10.0845   -4.1597    0.0000 H   0  0  0  0  0  0  0  0  0  0  0  0
   -7.4883   -5.3353    0.0000 H   0  0  0  0  0  0  0  0  0  0  0  0
   -8.5308   -5.0152    0.0000 H   0  0  0  0  0  0  0  0  0  0  0  0
   -5.5855   -5.6196    0.0000 H   0  0  0  0  0  0  0  0  0  0  0  0
   -7.0004   -5.4670    0.0000 H   0  0  0  0  0  0  0  0  0  0  0  0
   -4.6226   -5.8400    0.0000 H   0  0  0  0  0  0  0  0  0  0  0  0
  -12.2988   -4.0103    0.0000 H   0  0  0  0  0  0  0  0  0  0  0  0
  -13.0858   -2.5785    0.0000 H   0  0  0  0  0  0  0  0  0  0  0  0
  -12.0979   -1.2771    0.0000 H   0  0  0  0  0  0  0  0  0  0  0  0
  -13.0860   -3.4244    0.0000 H   0  0  0  0  0  0  0  0  0  0  0  0
  -10.6112   -5.7431    0.0000 H   0  0  0  0  0  0  0  0  0  0  0  0
  -11.1282   -8.5144    0.0000 H   0  0  0  0  0  0  0  0  0  0  0  0
  -10.4507   -6.7089    0.0000 H   0  0  0  0  0  0  0  0  0  0  0  0
  -15.6994   -8.3093    0.0000 H   0  0  0  0  0  0  0  0  0  0  0  0
  -12.9312   -8.9242    0.0000 H   0  0  0  0  0  0  0  0  0  0  0  0
  -15.4611   -6.7213    0.0000 H   0  0  0  0  0  0  0  0  0  0  0  0
  -18.1196   -7.6592    0.0000 H   0  0  0  0  0  0  0  0  0  0  0  0
  -16.4402   -6.7116    0.0000 H   0  0  0  0  0  0  0  0  0  0  0  0
  -17.7531  -10.9523    0.0000 H   0  0  0  0  0  0  0  0  0  0  0  0
  -16.4855  -10.6024    0.0000 H   0  0  0  0  0  0  0  0  0  0  0  0
  -21.2407  -10.7396    0.0000 H   0  0  0  0  0  0  0  0  0  0  0  0
  -19.5677  -12.2858    0.0000 H   0  0  0  0  0  0  0  0  0  0  0  0
  -18.2466   -9.5039    0.0000 H   0  0  0  0  0  0  0  0  0  0  0  0
  -15.6800  -11.6640    0.0000 H   0  0  0  0  0  0  0  0  0  0  0  0
  -15.5909  -12.4611    0.0000 H   0  0  0  0  0  0  0  0  0  0  0  0
  -18.0290  -15.5803    0.0000 H   0  0  0  0  0  0  0  0  0  0  0  0
  -19.5072  -14.5808    0.0000 H   0  0  0  0  0  0  0  0  0  0  0  0
  -19.3569  -13.2744    0.0000 H   0  0  0  0  0  0  0  0  0  0  0  0
  -15.9511  -15.9150    0.0000 H   0  0  0  0  0  0  0  0  0  0  0  0
  -17.5401  -15.1031    0.0000 H   0  0  0  0  0  0  0  0  0  0  0  0
  -13.9599  -15.7565    0.0000 H   0  0  0  0  0  0  0  0  0  0  0  0
  -13.2825  -13.9511    0.0000 H   0  0  0  0  0  0  0  0  0  0  0  0
  -14.7607  -12.9515    0.0000 H   0  0  0  0  0  0  0  0  0  0  0  0
  -21.1485  -11.6718    0.0000 H   0  0  0  0  0  0  0  0  0  0  0  0
  1  2  1  0
  2  3  1  0
  3  4  2  0
  4  5  1  0
  5  6  2  0
  6  7  1  0
  7  8  2  0
  7  9  1  0
  9 10  1  0
 10 11  1  0
 11 12  2  0
  9 13  1  0
 13 14  1  0
 14 15  2  0
 15 16  1  0
 16 17  2  0
 17 18  1  0
 16 19  1  0
 14 20  1  0
 20 21  1  0
 21 22  2  0
 22 23  1  0
 23 24  2  0
 24 25  1  0
 25 26  2  0
 25 27  1  0
  1 28  2  0
  1 29  1  0
 29 30  1  0
 30 31  1  0
 31 32  1  0
 32 33  2  0
 32 34  1  0
 34 35  1  0
 35 36  1  0
 36 37  1  0
 37 38  1  0
 37 39  2  0
 35 40  1  0
 40 41  2  0
 40 42  1  0
 42 43  1  0
 43 44  1  0
 44 45  1  0
 45 46  1  0
 46 47  1  0
 46 48  2  0
 43 49  1  0
 49 50  2  0
 49 51  1  0
 51 52  1  0
 52 53  1  0
 53 54  1  0
 54 55  1  0
 54 56  1  0
 52 57  1  0
 57 58  2  0
 57 59  1  0
 60 59  1  6
 60 61  1  0
 61 62  1  0
 62 63  1  0
 63 64  1  0
 64 65  1  0
 65 66  1  0
 66 67  1  0
 60 68  1  0
 60 69  1  0
 69 70  2  0
 69 71  1  0
 71 72  1  0
 72 73  1  0
 73 74  1  0
 74 75  1  0
 74 76  1  0
 72 77  1  0
 77 78  2  0
 77 79  1  0
 79 80  1  0
 80 81  1  0
 81 82  1  0
 80 83  1  0
 83 84  2  0
 83 85  1  0
 85 86  1  0
 86 87  1  0
 87 88  1  0
 88 89  2  0
 89 90  1  0
 90 91  2  0
 91 92  1  0
 92 93  2  0
 86 94  1  0
 94 95  2  0
 94 96  1  0
 96 97  1  0
 97 98  1  0
 98 99  1  0
 99100  2  0
100101  1  0
101102  2  0
102103  1  0
103104  2  0
 97105  1  0
105106  2  0
105107  1  0
107108  1  0
108109  1  0
108110  1  0
110111  2  0
110112  1  0
112113  1  0
113114  1  0
114115  1  0
115116  1  0
116117  1  0
117118  1  0
118119  2  3
118120  1  0
113121  1  0
121122  2  0
121123  1  0
123124  1  0
124125  1  0
125126  1  0
126127  1  0
127128  1  0
124129  1  0
124130  1  1
130131  2  0
130132  1  0
132133  1  0
133134  1  0
134135  1  0
135136  2  0
135137  1  0
133138  1  0
138139  2  0
138140  1  0
140141  1  0
141142  1  0
142143  1  0
143144  1  0
144145  1  0
144146  2  0
141147  1  0
147148  2  0
147149  1  0
149150  1  0
150151  1  0
151152  1  0
151153  1  0
153154  1  0
150155  1  0
155156  2  0
155157  1  0
  8  3  1  0
 93 88  1  0
104 99  1  0
 11  6  1  0
 67128  2  0
 18 13  2  0
 22  9  1  0
 26 21  1  0
  2158  1  0
  4159  1  0
  5160  1  0
  8161  1  0
 15162  1  0
 17163  1  0
 18164  1  0
 19165  1  0
 23166  1  0
 24167  1  0
 26168  1  0
 27169  1  0
 29170  1  0
 30171  1  0
 30172  1  0
 31173  1  0
 31174  1  0
 34175  1  0
 35176  1  1
 36177  1  0
 36178  1  0
 38179  1  0
 38180  1  0
 42181  1  0
 43182  1  1
 44183  1  0
 44184  1  0
 45185  1  0
 45186  1  0
 47187  1  0
 47188  1  0
 51189  1  0
 52190  1  1
 53191  1  0
 53192  1  0
 54193  1  0
 55194  1  0
 55195  1  0
 55196  1  0
 56197  1  0
 56198  1  0
 56199  1  0
 59200  1  0
 61201  1  0
 61202  1  0
 62203  1  0
 62204  1  0
 63205  1  0
 63206  1  0
 64207  1  0
 64208  1  0
 65209  1  0
 65210  1  0
 66211  1  0
 66212  1  0
 67213  1  0
 68214  1  0
 68215  1  0
 68216  1  0
 71217  1  0
 72218  1  6
 73219  1  0
 73220  1  0
 74221  1  0
 75222  1  0
 75223  1  0
 75224  1  0
 76225  1  0
 76226  1  0
 76227  1  0
 79228  1  0
 80229  1  6
 81230  1  0
 81231  1  0
 82232  1  0
 85233  1  0
 86234  1  6
 87235  1  0
 87236  1  0
 89237  1  0
 90238  1  0
 91239  1  0
 92240  1  0
 93241  1  0
 96242  1  0
 97243  1  6
 98244  1  0
 98245  1  0
100246  1  0
101247  1  0
102248  1  0
103249  1  0
104250  1  0
107251  1  0
108252  1  6
109253  1  0
109254  1  0
109255  1  0
112256  1  0
113257  1  6
114258  1  0
114259  1  0
115260  1  0
115261  1  0
116262  1  0
116263  1  0
117264  1  0
119265  1  0
120266  1  0
120267  1  0
123268  1  0
125269  1  0
125270  1  0
126271  1  0
126272  1  0
127273  1  0
127274  1  0
128275  1  0
129276  1  0
129277  1  0
129278  1  0
132279  1  0
133280  1  1
134281  1  0
134282  1  0
137283  1  0
140284  1  0
141285  1  6
142286  1  0
142287  1  0
143288  1  0
143289  1  0
145290  1  0
145291  1  0
149292  1  0
150293  1  1
151294  1  1
152295  1  0
152296  1  0
152297  1  0
153298  1  0
153299  1  0
154300  1  0
154301  1  0
154302  1  0
157303  1  0
M  END
