
     RDKit          2D

336343  0  0  0  0  0  0  0  0999 V2000
   -6.1796  -11.9340    0.0000 C   0  0  0  0  0  0  0  0  0  0  0  0
   -4.6804  -11.9836    0.0000 N   0  0  0  0  0  0  0  0  0  0  0  0
   -3.9738  -13.3067    0.0000 C   0  0  0  0  0  0  0  0  0  0  0  0
   -4.7663  -14.5803    0.0000 C   0  0  0  0  0  0  0  0  0  0  0  0
   -4.0597  -15.9034    0.0000 C   0  0  0  0  0  0  0  0  0  0  0  0
   -2.5605  -15.9530    0.0000 C   0  0  0  0  0  0  0  0  0  0  0  0
   -1.7680  -14.6795    0.0000 C   0  0  0  0  0  0  0  0  0  0  0  0
   -2.4746  -13.3563    0.0000 C   0  0  0  0  0  0  0  0  0  0  0  0
   -0.3119  -15.0397    0.0000 C   0  0  0  0  0  0  0  0  0  0  0  0
   -0.2045  -16.5358    0.0000 O   0  0  0  0  0  0  0  0  0  0  0  0
   -1.5942  -17.1003    0.0000 C   0  0  0  0  0  0  0  0  0  0  0  0
   -1.9544  -18.5564    0.0000 O   0  0  0  0  0  0  0  0  0  0  0  0
    1.0986  -15.5501    0.0000 C   0  0  0  0  0  0  0  0  0  0  0  0
    2.2459  -14.5838    0.0000 C   0  0  0  0  0  0  0  0  0  0  0  0
    3.6564  -15.0943    0.0000 C   0  0  0  0  0  0  0  0  0  0  0  0
    3.9196  -16.5710    0.0000 C   0  0  0  0  0  0  0  0  0  0  0  0
    2.7723  -17.5373    0.0000 C   0  0  0  0  0  0  0  0  0  0  0  0
    1.3618  -17.0268    0.0000 C   0  0  0  0  0  0  0  0  0  0  0  0
    5.3301  -17.0814    0.0000 O   0  0  0  0  0  0  0  0  0  0  0  0
    1.9827  -13.1071    0.0000 O   0  0  0  0  0  0  0  0  0  0  0  0
    0.5723  -12.5966    0.0000 C   0  0  0  0  0  0  0  0  0  0  0  0
   -0.5750  -13.5629    0.0000 C   0  0  0  0  0  0  0  0  0  0  0  0
   -1.4501  -12.6016    0.0000 C   0  0  0  0  0  0  0  0  0  0  0  0
   -1.5905  -11.8140    0.0000 C   0  0  0  0  0  0  0  0  0  0  0  0
   -0.9786  -11.2986    0.0000 C   0  0  0  0  0  0  0  0  0  0  0  0
   -0.2263  -11.5708    0.0000 C   0  0  0  0  0  0  0  0  0  0  0  0
   -1.3646   -9.1327    0.0000 O   0  0  0  0  0  0  0  0  0  0  0  0
   -6.9721  -13.2075    0.0000 S   0  0  0  0  0  0  0  0  0  0  0  0
   -6.8862  -10.6109    0.0000 N   0  0  0  0  0  0  0  0  0  0  0  0
   -8.3854  -10.5613    0.0000 C   0  0  0  0  0  0  0  0  0  0  0  0
   -9.0920   -9.2381    0.0000 C   0  0  0  0  0  0  0  0  0  0  0  0
  -10.5912   -9.1885    0.0000 O   0  0  0  0  0  0  0  0  0  0  0  0
  -11.2979   -7.8654    0.0000 C   0  0  0  0  0  0  0  0  0  0  0  0
  -12.7970   -7.8158    0.0000 C   0  0  0  0  0  0  0  0  0  0  0  0
  -13.5037   -6.4927    0.0000 O   0  0  0  0  0  0  0  0  0  0  0  0
  -15.0028   -6.4431    0.0000 C   0  0  0  0  0  0  0  0  0  0  0  0
  -15.7095   -5.1200    0.0000 C   0  0  0  0  0  0  0  0  0  0  0  0
  -14.9169   -3.8464    0.0000 O   0  0  0  0  0  0  0  0  0  0  0  0
  -17.2087   -5.0704    0.0000 N   0  0  0  0  0  0  0  0  0  0  0  0
  -17.9153   -3.7472    0.0000 C   0  0  0  0  0  0  0  0  0  0  0  0
  -18.1268   -2.2622    0.0000 C   0  0  0  0  0  0  0  0  0  0  0  0
  -16.9465   -1.3366    0.0000 C   0  0  0  0  0  0  0  0  0  0  0  0
  -17.1579    0.1485    0.0000 C   0  0  0  0  0  0  0  0  0  0  0  0
  -15.9776    1.0741    0.0000 N   0  0  0  0  0  0  0  0  0  0  0  0
  -16.1891    2.5591    0.0000 C   0  0  0  0  0  0  0  0  0  0  0  0
  -15.1304    3.6218    0.0000 N   0  0  0  0  0  0  0  0  0  0  0  0
  -17.6387    2.9447    0.0000 N   0  0  0  0  0  0  0  0  0  0  0  0
  -19.4145   -3.6976    0.0000 C   0  0  0  0  0  0  0  0  0  0  0  0
  -20.2070   -4.9712    0.0000 O   0  0  0  0  0  0  0  0  0  0  0  0
  -20.1211   -2.3745    0.0000 N   0  0  0  0  0  0  0  0  0  0  0  0
  -21.6069   -2.1685    0.0000 C   0  0  0  0  0  0  0  0  0  0  0  0
  -21.8701   -0.6917    0.0000 C   0  0  0  0  0  0  0  0  0  0  0  0
  -20.5469    0.0149    0.0000 C   0  0  0  0  0  0  0  0  0  0  0  0
  -19.4660   -1.0251    0.0000 C   0  0  0  0  0  0  0  0  0  0  0  0
  -18.5447    0.1586    0.0000 C   0  0  0  0  0  0  0  0  0  0  0  0
  -19.1092    1.5483    0.0000 O   0  0  0  0  0  0  0  0  0  0  0  0
  -17.0589   -0.0474    0.0000 N   0  0  0  0  0  0  0  0  0  0  0  0
  -16.1376    1.1363    0.0000 C   0  0  0  0  0  0  0  0  0  0  0  0
  -15.6767    2.5637    0.0000 C   0  0  0  0  0  0  0  0  0  0  0  0
  -14.2100    2.8783    0.0000 C   0  0  0  0  0  0  0  0  0  0  0  0
  -13.7491    4.3057    0.0000 C   0  0  0  0  0  0  0  0  0  0  0  0
  -12.4022    4.9658    0.0000 O   0  0  0  0  0  0  0  0  0  0  0  0
  -14.7549    5.4186    0.0000 O   0  0  0  0  0  0  0  0  0  0  0  0
  -14.6518    0.9302    0.0000 C   0  0  0  0  0  0  0  0  0  0  0  0
  -14.2610   -0.5179    0.0000 O   0  0  0  0  0  0  0  0  0  0  0  0
  -13.7305    2.1139    0.0000 N   0  0  0  0  0  0  0  0  0  0  0  0
  -12.2447    1.9079    0.0000 C   0  0  0  0  0  0  0  0  0  0  0  0
  -11.4161    0.6576    0.0000 C   0  0  0  0  0  0  0  0  0  0  0  0
  -10.2557   -0.2930    0.0000 C   0  0  0  0  0  0  0  0  0  0  0  0
   -8.8667   -0.8593    0.0000 C   0  0  0  0  0  0  0  0  0  0  0  0
   -7.3725   -0.9910    0.0000 C   0  0  0  0  0  0  0  0  0  0  0  0
  -13.1924    0.7452    0.0000 C   0  0  0  0  0  0  0  0  0  0  0  0
  -12.6680    3.3469    0.0000 C   0  0  0  0  0  0  0  0  0  0  0  0
  -14.1285    3.6891    0.0000 O   0  0  0  0  0  0  0  0  0  0  0  0
  -12.6483    4.8468    0.0000 N   0  0  0  0  0  0  0  0  0  0  0  0
  -12.1874    6.2743    0.0000 C   0  0  0  0  0  0  0  0  0  0  0  0
  -12.9527    7.5643    0.0000 C   0  0  0  0  0  0  0  0  0  0  0  0
  -12.2181    8.8721    0.0000 C   0  0  0  0  0  0  0  0  0  0  0  0
  -14.1131    8.5149    0.0000 C   0  0  0  0  0  0  0  0  0  0  0  0
  -13.8700    9.9951    0.0000 C   0  0  0  0  0  0  0  0  0  0  0  0
  -11.3262    7.5024    0.0000 C   0  0  0  0  0  0  0  0  0  0  0  0
  -12.2781    8.6617    0.0000 O   0  0  0  0  0  0  0  0  0  0  0  0
  -10.1413    8.4222    0.0000 N   0  0  0  0  0  0  0  0  0  0  0  0
   -8.7379    8.9518    0.0000 C   0  0  0  0  0  0  0  0  0  0  0  0
   -8.2064   10.3545    0.0000 C   0  0  0  0  0  0  0  0  0  0  0  0
   -9.1555   11.5161    0.0000 C   0  0  0  0  0  0  0  0  0  0  0  0
   -8.6240   12.9188    0.0000 C   0  0  0  0  0  0  0  0  0  0  0  0
  -10.4445   12.2831    0.0000 C   0  0  0  0  0  0  0  0  0  0  0  0
   -7.2408    9.0443    0.0000 C   0  0  0  0  0  0  0  0  0  0  0  0
   -7.1091   10.5385    0.0000 O   0  0  0  0  0  0  0  0  0  0  0  0
   -5.7829    8.6913    0.0000 N   0  0  0  0  0  0  0  0  0  0  0  0
   -4.4938    7.9243    0.0000 C   0  0  0  0  0  0  0  0  0  0  0  0
   -3.0658    8.3834    0.0000 C   0  0  0  0  0  0  0  0  0  0  0  0
   -2.7493    9.8496    0.0000 C   0  0  0  0  0  0  0  0  0  0  0  0
   -1.3212   10.3086    0.0000 O   0  0  0  0  0  0  0  0  0  0  0  0
   -3.8608   10.8568    0.0000 O   0  0  0  0  0  0  0  0  0  0  0  0
   -3.4881    6.8115    0.0000 C   0  0  0  0  0  0  0  0  0  0  0  0
   -2.2377    7.6401    0.0000 O   0  0  0  0  0  0  0  0  0  0  0  0
   -2.8550    5.4516    0.0000 N   0  0  0  0  0  0  0  0  0  0  0  0
   -2.6510    3.9655    0.0000 C   0  0  0  0  0  0  0  0  0  0  0  0
   -2.8940    2.4853    0.0000 C   0  0  0  0  0  0  0  0  0  0  0  0
   -3.5625    1.1425    0.0000 C   0  0  0  0  0  0  0  0  0  0  0  0
   -4.5971    0.0565    0.0000 C   0  0  0  0  0  0  0  0  0  0  0  0
   -5.9059   -0.6764    0.0000 C   0  0  0  0  0  0  0  0  0  0  0  0
   -1.3803    4.7627    0.0000 C   0  0  0  0  0  0  0  0  0  0  0  0
   -1.4017    3.1352    0.0000 C   0  0  0  0  0  0  0  0  0  0  0  0
   -1.1311    1.6598    0.0000 O   0  0  0  0  0  0  0  0  0  0  0  0
   -0.0580    3.8020    0.0000 N   0  0  0  0  0  0  0  0  0  0  0  0
    1.1912    2.9717    0.0000 C   0  0  0  0  0  0  0  0  0  0  0  0
    2.0811    1.7642    0.0000 C   0  0  0  0  0  0  0  0  0  0  0  0
    1.4804    0.3898    0.0000 C   0  0  0  0  0  0  0  0  0  0  0  0
    2.2392   -0.9041    0.0000 C   0  0  0  0  0  0  0  0  0  0  0  0
    1.2432   -2.0257    0.0000 N   0  0  0  0  0  0  0  0  0  0  0  0
   -0.1313   -1.4249    0.0000 C   0  0  0  0  0  0  0  0  0  0  0  0
    0.0153    0.0679    0.0000 N   0  0  0  0  0  0  0  0  0  0  0  0
    2.5349    3.6384    0.0000 C   0  0  0  0  0  0  0  0  0  0  0  0
    2.6293    5.1354    0.0000 O   0  0  0  0  0  0  0  0  0  0  0  0
    3.7841    2.8081    0.0000 N   0  0  0  0  0  0  0  0  0  0  0  0
    5.1278    3.4749    0.0000 C   0  0  0  0  0  0  0  0  0  0  0  0
    6.1624    4.5610    0.0000 C   0  0  0  0  0  0  0  0  0  0  0  0
    7.6524    4.3884    0.0000 C   0  0  0  0  0  0  0  0  0  0  0  0
    6.3771    2.6446    0.0000 C   0  0  0  0  0  0  0  0  0  0  0  0
    6.2826    1.1476    0.0000 O   0  0  0  0  0  0  0  0  0  0  0  0
    7.7207    3.3113    0.0000 N   0  0  0  0  0  0  0  0  0  0  0  0
    8.9700    2.4810    0.0000 C   0  0  0  0  0  0  0  0  0  0  0  0
    9.8599    1.2735    0.0000 C   0  0  0  0  0  0  0  0  0  0  0  0
    9.2592   -0.1009    0.0000 C   0  0  0  0  0  0  0  0  0  0  0  0
   10.1491   -1.3084    0.0000 C   0  0  0  0  0  0  0  0  0  0  0  0
    9.5484   -2.6828    0.0000 N   0  0  0  0  0  0  0  0  0  0  0  0
   10.4383   -3.8903    0.0000 C   0  0  0  0  0  0  0  0  0  0  0  0
    9.8376   -5.2648    0.0000 N   0  0  0  0  0  0  0  0  0  0  0  0
   11.9290   -3.7233    0.0000 N   0  0  0  0  0  0  0  0  0  0  0  0
   10.3137    3.1478    0.0000 C   0  0  0  0  0  0  0  0  0  0  0  0
   10.4081    4.6448    0.0000 O   0  0  0  0  0  0  0  0  0  0  0  0
   11.5629    2.3175    0.0000 N   0  0  0  0  0  0  0  0  0  0  0  0
   12.9066    2.9842    0.0000 C   0  0  0  0  0  0  0  0  0  0  0  0
   13.9412    4.0703    0.0000 C   0  0  0  0  0  0  0  0  0  0  0  0
   15.3991    3.7174    0.0000 C   0  0  0  0  0  0  0  0  0  0  0  0
   16.4337    4.8035    0.0000 C   0  0  0  0  0  0  0  0  0  0  0  0
   17.8916    4.4505    0.0000 N   0  0  0  0  0  0  0  0  0  0  0  0
   18.9262    5.5366    0.0000 C   0  0  0  0  0  0  0  0  0  0  0  0
   20.3302    5.0086    0.0000 N   0  0  0  0  0  0  0  0  0  0  0  0
   18.5029    6.9756    0.0000 N   0  0  0  0  0  0  0  0  0  0  0  0
   14.1558    2.1539    0.0000 C   0  0  0  0  0  0  0  0  0  0  0  0
   14.0614    0.6569    0.0000 O   0  0  0  0  0  0  0  0  0  0  0  0
   15.4995    2.8207    0.0000 N   0  0  0  0  0  0  0  0  0  0  0  0
   16.7488    1.9904    0.0000 C   0  0  0  0  0  0  0  0  0  0  0  0
   17.6387    0.7829    0.0000 C   0  0  0  0  0  0  0  0  0  0  0  0
   17.0379   -0.5916    0.0000 C   0  0  0  0  0  0  0  0  0  0  0  0
   18.0924    2.6571    0.0000 C   0  0  0  0  0  0  0  0  0  0  0  0
   18.5463    4.0868    0.0000 O   0  0  0  0  0  0  0  0  0  0  0  0
   19.3417    1.8268    0.0000 N   0  0  0  0  0  0  0  0  0  0  0  0
   20.6853    2.4936    0.0000 C   0  0  0  0  0  0  0  0  0  0  0  0
   21.7200    3.5797    0.0000 C   0  0  0  0  0  0  0  0  0  0  0  0
   23.1778    3.2267    0.0000 C   0  0  0  0  0  0  0  0  0  0  0  0
   24.2124    4.3128    0.0000 S   0  0  0  0  0  0  0  0  0  0  0  0
   25.7025    4.1402    0.0000 C   0  0  0  0  0  0  0  0  0  0  0  0
   21.9346    1.6633    0.0000 C   0  0  0  0  0  0  0  0  0  0  0  0
   21.8402    0.1663    0.0000 O   0  0  0  0  0  0  0  0  0  0  0  0
   23.2783    2.3300    0.0000 N   0  0  0  0  0  0  0  0  0  0  0  0
   24.5275    1.4997    0.0000 C   0  0  0  0  0  0  0  0  0  0  0  0
   25.4175    0.2922    0.0000 C   0  0  0  0  0  0  0  0  0  0  0  0
   24.8167   -1.0822    0.0000 C   0  0  0  0  0  0  0  0  0  0  0  0
   25.7066   -2.2897    0.0000 C   0  0  0  0  0  0  0  0  0  0  0  0
   25.1059   -3.6641    0.0000 N   0  0  0  0  0  0  0  0  0  0  0  0
   25.9958   -4.8716    0.0000 C   0  0  0  0  0  0  0  0  0  0  0  0
   25.3951   -6.2461    0.0000 N   0  0  0  0  0  0  0  0  0  0  0  0
   27.4865   -4.7047    0.0000 N   0  0  0  0  0  0  0  0  0  0  0  0
   25.8712    2.1665    0.0000 C   0  0  0  0  0  0  0  0  0  0  0  0
   27.2123    1.4946    0.0000 O   0  0  0  0  0  0  0  0  0  0  0  0
   26.1474    3.6408    0.0000 O   0  0  0  0  0  0  0  0  0  0  0  0
   -4.0490  -10.6230    0.0000 H   0  0  0  0  0  0  0  0  0  0  0  0
   -6.2655  -14.5307    0.0000 H   0  0  0  0  0  0  0  0  0  0  0  0
   -4.8522  -17.1769    0.0000 H   0  0  0  0  0  0  0  0  0  0  0  0
   -2.0138  -11.9289    0.0000 H   0  0  0  0  0  0  0  0  0  0  0  0
    4.8037  -14.1280    0.0000 H   0  0  0  0  0  0  0  0  0  0  0  0
    3.0355  -19.0140    0.0000 H   0  0  0  0  0  0  0  0  0  0  0  0
    0.2145  -17.9931    0.0000 H   0  0  0  0  0  0  0  0  0  0  0  0
    5.5932  -18.5582    0.0000 H   0  0  0  0  0  0  0  0  0  0  0  0
   -3.1328  -14.0188    0.0000 H   0  0  0  0  0  0  0  0  0  0  0  0
   -3.5864  -10.8972    0.0000 H   0  0  0  0  0  0  0  0  0  0  0  0
    1.4564  -10.1536    0.0000 H   0  0  0  0  0  0  0  0  0  0  0  0
   -0.2173   -8.1664    0.0000 H   0  0  0  0  0  0  0  0  0  0  0  0
   -6.0937   -9.3373    0.0000 H   0  0  0  0  0  0  0  0  0  0  0  0
   -9.8111  -11.0274    0.0000 H   0  0  0  0  0  0  0  0  0  0  0  0
   -8.1739  -12.0463    0.0000 H   0  0  0  0  0  0  0  0  0  0  0  0
   -9.1209   -7.7384    0.0000 H   0  0  0  0  0  0  0  0  0  0  0  0
   -7.6663   -8.7720    0.0000 H   0  0  0  0  0  0  0  0  0  0  0  0
  -11.5093   -6.3804    0.0000 H   0  0  0  0  0  0  0  0  0  0  0  0
   -9.9396   -7.2290    0.0000 H   0  0  0  0  0  0  0  0  0  0  0  0
  -14.1553   -8.4523    0.0000 H   0  0  0  0  0  0  0  0  0  0  0  0
  -12.5855   -9.3008    0.0000 H   0  0  0  0  0  0  0  0  0  0  0  0
  -16.4286   -6.9092    0.0000 H   0  0  0  0  0  0  0  0  0  0  0  0
  -14.9740   -7.9428    0.0000 H   0  0  0  0  0  0  0  0  0  0  0  0
  -18.0012   -6.3439    0.0000 H   0  0  0  0  0  0  0  0  0  0  0  0
  -16.4434   -3.4584    0.0000 H   0  0  0  0  0  0  0  0  0  0  0  0
  -18.6669   -0.8628    0.0000 H   0  0  0  0  0  0  0  0  0  0  0  0
  -19.6229   -2.3695    0.0000 H   0  0  0  0  0  0  0  0  0  0  0  0
  -15.5207   -0.8704    0.0000 H   0  0  0  0  0  0  0  0  0  0  0  0
  -16.0838   -2.5637    0.0000 H   0  0  0  0  0  0  0  0  0  0  0  0
  -18.0206    1.3756    0.0000 H   0  0  0  0  0  0  0  0  0  0  0  0
  -18.6560    0.2243    0.0000 H   0  0  0  0  0  0  0  0  0  0  0  0
  -14.5280    0.6886    0.0000 H   0  0  0  0  0  0  0  0  0  0  0  0
  -15.3997    4.9330    0.0000 H   0  0  0  0  0  0  0  0  0  0  0  0
  -17.7924    4.6035    0.0000 H   0  0  0  0  0  0  0  0  0  0  0  0
  -18.8653    2.3436    0.0000 H   0  0  0  0  0  0  0  0  0  0  0  0
  -21.6565   -3.6677    0.0000 H   0  0  0  0  0  0  0  0  0  0  0  0
  -23.1030   -2.2759    0.0000 H   0  0  0  0  0  0  0  0  0  0  0  0
  -23.3112   -1.1078    0.0000 H   0  0  0  0  0  0  0  0  0  0  0  0
  -22.4345    0.6980    0.0000 H   0  0  0  0  0  0  0  0  0  0  0  0
  -21.3880    1.2569    0.0000 H   0  0  0  0  0  0  0  0  0  0  0  0
  -19.5260    1.1138    0.0000 H   0  0  0  0  0  0  0  0  0  0  0  0
  -18.0386   -1.4859    0.0000 H   0  0  0  0  0  0  0  0  0  0  0  0
  -16.1750   -1.2593    0.0000 H   0  0  0  0  0  0  0  0  0  0  0  0
  -17.3679    1.9944    0.0000 H   0  0  0  0  0  0  0  0  0  0  0  0
  -15.7318    4.0627    0.0000 H   0  0  0  0  0  0  0  0  0  0  0  0
  -17.1263    2.9493    0.0000 H   0  0  0  0  0  0  0  0  0  0  0  0
  -12.7186    3.0379    0.0000 H   0  0  0  0  0  0  0  0  0  0  0  0
  -13.6213    1.4986    0.0000 H   0  0  0  0  0  0  0  0  0  0  0  0
  -14.6531    6.9151    0.0000 H   0  0  0  0  0  0  0  0  0  0  0  0
  -13.9419    3.5990    0.0000 H   0  0  0  0  0  0  0  0  0  0  0  0
  -12.8562    0.2378    0.0000 H   0  0  0  0  0  0  0  0  0  0  0  0
  -11.8053   -0.7911    0.0000 H   0  0  0  0  0  0  0  0  0  0  0  0
  -11.3981   -1.2650    0.0000 H   0  0  0  0  0  0  0  0  0  0  0  0
  -10.3837   -1.7875    0.0000 H   0  0  0  0  0  0  0  0  0  0  0  0
   -9.8201   -2.0173    0.0000 H   0  0  0  0  0  0  0  0  0  0  0  0
   -8.3722   -2.2754    0.0000 H   0  0  0  0  0  0  0  0  0  0  0  0
   -7.2800   -2.4881    0.0000 H   0  0  0  0  0  0  0  0  0  0  0  0
  -12.7157   -0.8511    0.0000 H   0  0  0  0  0  0  0  0  0  0  0  0
  -13.9493   -0.5016    0.0000 H   0  0  0  0  0  0  0  0  0  0  0  0
  -14.4139    1.2406    0.0000 H   0  0  0  0  0  0  0  0  0  0  0  0
  -14.0878    5.2684    0.0000 H   0  0  0  0  0  0  0  0  0  0  0  0
  -13.6466    5.9268    0.0000 H   0  0  0  0  0  0  0  0  0  0  0  0
  -14.2931    6.8910    0.0000 H   0  0  0  0  0  0  0  0  0  0  0  0
  -12.8204   10.2459    0.0000 H   0  0  0  0  0  0  0  0  0  0  0  0
  -11.2081    9.9812    0.0000 H   0  0  0  0  0  0  0  0  0  0  0  0
  -10.8478    8.2729    0.0000 H   0  0  0  0  0  0  0  0  0  0  0  0
  -15.5286    9.0112    0.0000 H   0  0  0  0  0  0  0  0  0  0  0  0
  -15.0016    7.3064    0.0000 H   0  0  0  0  0  0  0  0  0  0  0  0
  -15.0304   10.9456    0.0000 H   0  0  0  0  0  0  0  0  0  0  0  0
  -13.1354   11.3029    0.0000 H   0  0  0  0  0  0  0  0  0  0  0  0
  -12.3765    9.8560    0.0000 H   0  0  0  0  0  0  0  0  0  0  0  0
  -10.7092    9.8105    0.0000 H   0  0  0  0  0  0  0  0  0  0  0  0
   -9.9194    9.8760    0.0000 H   0  0  0  0  0  0  0  0  0  0  0  0
   -7.0960   11.3630    0.0000 H   0  0  0  0  0  0  0  0  0  0  0  0
   -6.7701    9.9222    0.0000 H   0  0  0  0  0  0  0  0  0  0  0  0
  -10.2658   10.5076    0.0000 H   0  0  0  0  0  0  0  0  0  0  0  0
   -9.4243   14.1874    0.0000 H   0  0  0  0  0  0  0  0  0  0  0  0
   -7.6448   14.0551    0.0000 H   0  0  0  0  0  0  0  0  0  0  0  0
   -7.2510   12.3147    0.0000 H   0  0  0  0  0  0  0  0  0  0  0  0
  -10.6078   13.7742    0.0000 H   0  0  0  0  0  0  0  0  0  0  0  0
  -11.9182   12.5629    0.0000 H   0  0  0  0  0  0  0  0  0  0  0  0
  -10.9760   10.8804    0.0000 H   0  0  0  0  0  0  0  0  0  0  0  0
   -5.2166   10.0803    0.0000 H   0  0  0  0  0  0  0  0  0  0  0  0
   -4.3249    9.4148    0.0000 H   0  0  0  0  0  0  0  0  0  0  0  0
   -1.5669    8.3263    0.0000 H   0  0  0  0  0  0  0  0  0  0  0  0
   -2.5082    6.9908    0.0000 H   0  0  0  0  0  0  0  0  0  0  0  0
   -3.5443   12.3230    0.0000 H   0  0  0  0  0  0  0  0  0  0  0  0
   -1.4160    5.8749    0.0000 H   0  0  0  0  0  0  0  0  0  0  0  0
   -1.9450    1.3237    0.0000 H   0  0  0  0  0  0  0  0  0  0  0  0
   -1.3942    2.5104    0.0000 H   0  0  0  0  0  0  0  0  0  0  0  0
   -2.8328   -0.1680    0.0000 H   0  0  0  0  0  0  0  0  0  0  0  0
   -2.1219    0.7245    0.0000 H   0  0  0  0  0  0  0  0  0  0  0  0
   -4.4673   -1.4379    0.0000 H   0  0  0  0  0  0  0  0  0  0  0  0
   -3.2526   -0.6087    0.0000 H   0  0  0  0  0  0  0  0  0  0  0  0
   -5.3762   -2.0798    0.0000 H   0  0  0  0  0  0  0  0  0  0  0  0
    0.0758    4.4026    0.0000 H   0  0  0  0  0  0  0  0  0  0  0  0
   -0.6102    6.0499    0.0000 H   0  0  0  0  0  0  0  0  0  0  0  0
   -2.0869    6.0859    0.0000 H   0  0  0  0  0  0  0  0  0  0  0  0
    0.2182    5.2763    0.0000 H   0  0  0  0  0  0  0  0  0  0  0  0
    0.1566    1.8856    0.0000 H   0  0  0  0  0  0  0  0  0  0  0  0
    3.2199    0.7878    0.0000 H   0  0  0  0  0  0  0  0  0  0  0  0
    3.3478    2.5677    0.0000 H   0  0  0  0  0  0  0  0  0  0  0  0
    3.7321   -1.0508    0.0000 H   0  0  0  0  0  0  0  0  0  0  0  0
    1.5650   -3.4907    0.0000 H   0  0  0  0  0  0  0  0  0  0  0  0
   -1.4252   -2.1838    0.0000 H   0  0  0  0  0  0  0  0  0  0  0  0
    3.8729    1.3108    0.0000 H   0  0  0  0  0  0  0  0  0  0  0  0
    4.2379    4.6824    0.0000 H   0  0  0  0  0  0  0  0  0  0  0  0
    6.7632    5.9354    0.0000 H   0  0  0  0  0  0  0  0  0  0  0  0
    4.9132    5.3913    0.0000 H   0  0  0  0  0  0  0  0  0  0  0  0
    8.6549    5.2941    0.0000 H   0  0  0  0  0  0  0  0  0  0  0  0
    8.8695    3.3777    0.0000 H   0  0  0  0  0  0  0  0  0  0  0  0
    7.7353    2.7124    0.0000 H   0  0  0  0  0  0  0  0  0  0  0  0
    7.9969    4.7857    0.0000 H   0  0  0  0  0  0  0  0  0  0  0  0
    7.8107    1.5292    0.0000 H   0  0  0  0  0  0  0  0  0  0  0  0
   11.1092    0.4433    0.0000 H   0  0  0  0  0  0  0  0  0  0  0  0
   11.1266    2.0770    0.0000 H   0  0  0  0  0  0  0  0  0  0  0  0
    8.2246   -1.1870    0.0000 H   0  0  0  0  0  0  0  0  0  0  0  0
    7.9180    0.5709    0.0000 H   0  0  0  0  0  0  0  0  0  0  0  0
   11.3984   -2.1387    0.0000 H   0  0  0  0  0  0  0  0  0  0  0  0
   11.3084   -0.3565    0.0000 H   0  0  0  0  0  0  0  0  0  0  0  0
    8.0577   -2.8498    0.0000 H   0  0  0  0  0  0  0  0  0  0  0  0
   10.7275   -6.4722    0.0000 H   0  0  0  0  0  0  0  0  0  0  0  0
   12.8189   -4.9308    0.0000 H   0  0  0  0  0  0  0  0  0  0  0  0
   12.5297   -2.3489    0.0000 H   0  0  0  0  0  0  0  0  0  0  0  0
   11.6517    0.8201    0.0000 H   0  0  0  0  0  0  0  0  0  0  0  0
   12.0166    4.1917    0.0000 H   0  0  0  0  0  0  0  0  0  0  0  0
   14.3699    5.5077    0.0000 H   0  0  0  0  0  0  0  0  0  0  0  0
   12.6919    4.9006    0.0000 H   0  0  0  0  0  0  0  0  0  0  0  0
   16.6483    2.8871    0.0000 H   0  0  0  0  0  0  0  0  0  0  0  0
   15.5141    2.2218    0.0000 H   0  0  0  0  0  0  0  0  0  0  0  0
   17.0344    6.1779    0.0000 H   0  0  0  0  0  0  0  0  0  0  0  0
   15.2949    5.7798    0.0000 H   0  0  0  0  0  0  0  0  0  0  0  0
   18.6505    3.1567    0.0000 H   0  0  0  0  0  0  0  0  0  0  0  0
   21.4186    6.2697    0.0000 H   0  0  0  0  0  0  0  0  0  0  0  0
   19.5375    8.0617    0.0000 H   0  0  0  0  0  0  0  0  0  0  0  0
   17.0450    7.3286    0.0000 H   0  0  0  0  0  0  0  0  0  0  0  0
   15.9534    4.2504    0.0000 H   0  0  0  0  0  0  0  0  0  0  0  0
   15.5895    1.0385    0.0000 H   0  0  0  0  0  0  0  0  0  0  0  0
   18.7774   -0.1935    0.0000 H   0  0  0  0  0  0  0  0  0  0  0  0
   18.9054    1.5864    0.0000 H   0  0  0  0  0  0  0  0  0  0  0  0
   17.9279   -1.7990    0.0000 H   0  0  0  0  0  0  0  0  0  0  0  0
   16.0033   -1.6776    0.0000 H   0  0  0  0  0  0  0  0  0  0  0  0
   15.6968    0.0803    0.0000 H   0  0  0  0  0  0  0  0  0  0  0  0
   19.4304    0.3295    0.0000 H   0  0  0  0  0  0  0  0  0  0  0  0
   19.7954    3.7011    0.0000 H   0  0  0  0  0  0  0  0  0  0  0  0
   22.3207    4.9541    0.0000 H   0  0  0  0  0  0  0  0  0  0  0  0
   20.3788    4.2515    0.0000 H   0  0  0  0  0  0  0  0  0  0  0  0
   24.3166    2.2503    0.0000 H   0  0  0  0  0  0  0  0  0  0  0  0
   23.2928    1.7311    0.0000 H   0  0  0  0  0  0  0  0  0  0  0  0
   26.7049    5.0459    0.0000 H   0  0  0  0  0  0  0  0  0  0  0  0
   26.9196    3.1296    0.0000 H   0  0  0  0  0  0  0  0  0  0  0  0
   25.2638    2.5199    0.0000 H   0  0  0  0  0  0  0  0  0  0  0  0
   23.7321    3.7597    0.0000 H   0  0  0  0  0  0  0  0  0  0  0  0
   23.3682    0.5478    0.0000 H   0  0  0  0  0  0  0  0  0  0  0  0
   26.7586   -0.3796    0.0000 H   0  0  0  0  0  0  0  0  0  0  0  0
   26.5767    1.2441    0.0000 H   0  0  0  0  0  0  0  0  0  0  0  0
   23.7821   -2.1683    0.0000 H   0  0  0  0  0  0  0  0  0  0  0  0
   23.4756   -0.4104    0.0000 H   0  0  0  0  0  0  0  0  0  0  0  0
   26.9559   -3.1200    0.0000 H   0  0  0  0  0  0  0  0  0  0  0  0
   26.8659   -1.3378    0.0000 H   0  0  0  0  0  0  0  0  0  0  0  0
   23.6152   -3.8311    0.0000 H   0  0  0  0  0  0  0  0  0  0  0  0
   26.2850   -7.4535    0.0000 H   0  0  0  0  0  0  0  0  0  0  0  0
   28.3765   -5.9121    0.0000 H   0  0  0  0  0  0  0  0  0  0  0  0
   28.0873   -3.3302    0.0000 H   0  0  0  0  0  0  0  0  0  0  0  0
   27.3093    4.3302    0.0000 H   0  0  0  0  0  0  0  0  0  0  0  0
  1  2  1  0
  2  3  1  0
  3  4  2  0
  4  5  1  0
  5  6  2  0
  6  7  1  0
  7  8  2  0
  7  9  1  0
  9 10  1  0
 10 11  1  0
 11 12  2  0
  9 13  1  0
 13 14  1  0
 14 15  2  0
 15 16  1  0
 16 17  2  0
 17 18  1  0
 16 19  1  0
 14 20  1  0
 20 21  1  0
 21 22  2  0
 22 23  1  0
 23 24  2  0
 24 25  1  0
 25 26  2  0
 25 27  1  0
  1 28  2  0
  1 29  1  0
 29 30  1  0
 30 31  1  0
 31 32  1  0
 32 33  1  0
 33 34  1  0
 34 35  1  0
 35 36  1  0
 36 37  1  0
 37 38  2  0
 37 39  1  0
 39 40  1  0
 40 41  1  0
 41 42  1  0
 42 43  1  0
 43 44  1  0
 44 45  1  0
 45 46  2  3
 45 47  1  0
 40 48  1  0
 48 49  2  0
 48 50  1  0
 50 51  1  0
 51 52  1  0
 52 53  1  0
 53 54  1  0
 54 55  1  0
 55 56  2  0
 55 57  1  0
 57 58  1  0
 58 59  1  0
 59 60  1  0
 60 61  1  0
 61 62  2  0
 61 63  1  0
 58 64  1  0
 64 65  2  0
 64 66  1  0
 67 66  1  6
 67 68  1  0
 68 69  1  0
 69 70  1  0
 70 71  1  0
 67 72  1  0
 67 73  1  0
 73 74  2  0
 73 75  1  0
 75 76  1  0
 76 77  1  0
 77 78  1  0
 77 79  1  0
 79 80  1  0
 76 81  1  0
 81 82  2  0
 81 83  1  0
 83 84  1  0
 84 85  1  0
 85 86  1  0
 86 87  1  0
 86 88  1  0
 84 89  1  0
 89 90  2  0
 89 91  1  0
 91 92  1  0
 92 93  1  0
 93 94  1  0
 94 95  2  0
 94 96  1  0
 92 97  1  0
 97 98  2  0
 97 99  1  0
 99100  1  0
100101  1  0
101102  1  0
102103  1  0
103104  1  0
100105  1  0
100106  1  6
106107  2  0
106108  1  0
108109  1  0
109110  1  0
110111  1  0
111112  2  0
112113  1  0
113114  1  0
114115  2  0
109116  1  0
116117  2  0
116118  1  0
118119  1  0
119120  1  0
120121  1  0
119122  1  0
122123  2  0
122124  1  0
124125  1  0
125126  1  0
126127  1  0
127128  1  0
128129  1  0
129130  1  0
130131  2  3
130132  1  0
125133  1  0
133134  2  0
133135  1  0
135136  1  0
136137  1  0
137138  1  0
138139  1  0
139140  1  0
140141  1  0
141142  2  3
141143  1  0
136144  1  0
144145  2  0
144146  1  0
146147  1  0
147148  1  0
148149  1  0
147150  1  0
150151  2  0
150152  1  0
152153  1  0
153154  1  0
154155  1  0
155156  1  0
156157  1  0
153158  1  0
158159  2  0
158160  1  0
160161  1  0
161162  1  0
162163  1  0
163164  1  0
164165  1  0
165166  1  0
166167  2  3
166168  1  0
161169  1  0
169170  2  0
169171  1  0
  8  3  1  0
 54 50  1  0
115111  1  0
 11  6  1  0
 71104  2  0
 18 13  2  0
 22  9  1  0
 26 21  1  0
  2172  1  0
  4173  1  0
  5174  1  0
  8175  1  0
 15176  1  0
 17177  1  0
 18178  1  0
 19179  1  0
 23180  1  0
 24181  1  0
 26182  1  0
 27183  1  0
 29184  1  0
 30185  1  0
 30186  1  0
 31187  1  0
 31188  1  0
 33189  1  0
 33190  1  0
 34191  1  0
 34192  1  0
 36193  1  0
 36194  1  0
 39195  1  0
 40196  1  6
 41197  1  0
 41198  1  0
 42199  1  0
 42200  1  0
 43201  1  0
 43202  1  0
 44203  1  0
 46204  1  0
 47205  1  0
 47206  1  0
 51207  1  0
 51208  1  0
 52209  1  0
 52210  1  0
 53211  1  0
 53212  1  0
 54213  1  0
 57214  1  0
 58215  1  1
 59216  1  0
 59217  1  0
 60218  1  0
 60219  1  0
 63220  1  0
 66221  1  0
 68222  1  0
 68223  1  0
 69224  1  0
 69225  1  0
 70226  1  0
 70227  1  0
 71228  1  0
 72229  1  0
 72230  1  0
 72231  1  0
 75232  1  0
 76233  1  1
 77234  1  1
 78235  1  0
 78236  1  0
 78237  1  0
 79238  1  0
 79239  1  0
 80240  1  0
 80241  1  0
 80242  1  0
 83243  1  0
 84244  1  1
 85245  1  0
 85246  1  0
 86247  1  0
 87248  1  0
 87249  1  0
 87250  1  0
 88251  1  0
 88252  1  0
 88253  1  0
 91254  1  0
 92255  1  1
 93256  1  0
 93257  1  0
 96258  1  0
 99259  1  0
101260  1  0
101261  1  0
102262  1  0
102263  1  0
103264  1  0
103265  1  0
104266  1  0
105267  1  0
105268  1  0
105269  1  0
108270  1  0
109271  1  6
110272  1  0
110273  1  0
112274  1  0
113275  1  0
114276  1  0
118277  1  0
119278  1  1
120279  1  0
120280  1  0
121281  1  0
121282  1  0
121283  1  0
124284  1  0
125285  1  6
126286  1  0
126287  1  0
127288  1  0
127289  1  0
128290  1  0
128291  1  0
129292  1  0
131293  1  0
132294  1  0
132295  1  0
135296  1  0
136297  1  1
137298  1  0
137299  1  0
138300  1  0
138301  1  0
139302  1  0
139303  1  0
140304  1  0
142305  1  0
143306  1  0
143307  1  0
146308  1  0
147309  1  6
148310  1  0
148311  1  0
149312  1  0
149313  1  0
149314  1  0
152315  1  0
153316  1  1
154317  1  0
154318  1  0
155319  1  0
155320  1  0
157321  1  0
157322  1  0
157323  1  0
160324  1  0
161325  1  6
162326  1  0
162327  1  0
163328  1  0
163329  1  0
164330  1  0
164331  1  0
165332  1  0
167333  1  0
168334  1  0
168335  1  0
171336  1  0
M  END
