
     RDKit          2D

401402  0  0  0  0  0  0  0  0999 V2000
  -31.0175  -10.2908    0.0000 N   0  0  0  0  0  0  0  0  0  0  0  0
  -29.6655   -9.6410    0.0000 C   0  0  0  0  0  0  0  0  0  0  0  0
  -29.5523   -8.1452    0.0000 C   0  0  0  0  0  0  0  0  0  0  0  0
  -28.2003   -7.4954    0.0000 C   0  0  0  0  0  0  0  0  0  0  0  0
  -27.2880   -8.2978    0.0000 O   0  0  0  0  0  0  0  0  0  0  0  0
  -28.0871   -5.9997    0.0000 N   0  0  0  0  0  0  0  0  0  0  0  0
  -26.7352   -5.3499    0.0000 C   0  0  0  0  0  0  0  0  0  0  0  0
  -26.3300   -6.7942    0.0000 C   0  0  0  0  0  0  0  0  0  0  0  0
  -24.8767   -7.1654    0.0000 C   0  0  0  0  0  0  0  0  0  0  0  0
  -24.4715   -8.6097    0.0000 C   0  0  0  0  0  0  0  0  0  0  0  0
  -23.3840   -7.0172    0.0000 C   0  0  0  0  0  0  0  0  0  0  0  0
  -25.6870   -4.2769    0.0000 C   0  0  0  0  0  0  0  0  0  0  0  0
  -24.5552   -4.7189    0.0000 O   0  0  0  0  0  0  0  0  0  0  0  0
  -26.0922   -2.8327    0.0000 N   0  0  0  0  0  0  0  0  0  0  0  0
  -25.0440   -1.7597    0.0000 C   0  0  0  0  0  0  0  0  0  0  0  0
  -24.1693   -2.9783    0.0000 C   0  0  0  0  0  0  0  0  0  0  0  0
  -22.6766   -2.8300    0.0000 C   0  0  0  0  0  0  0  0  0  0  0  0
  -21.8019   -4.0486    0.0000 C   0  0  0  0  0  0  0  0  0  0  0  0
  -21.3247   -2.1802    0.0000 C   0  0  0  0  0  0  0  0  0  0  0  0
  -24.4260   -0.3929    0.0000 C   0  0  0  0  0  0  0  0  0  0  0  0
  -22.9333   -0.2447    0.0000 O   0  0  0  0  0  0  0  0  0  0  0  0
  -25.3007    0.8257    0.0000 N   0  0  0  0  0  0  0  0  0  0  0  0
  -24.6827    2.1925    0.0000 C   0  0  0  0  0  0  0  0  0  0  0  0
  -26.1361    2.5637    0.0000 C   0  0  0  0  0  0  0  0  0  0  0  0
  -26.3622    4.0466    0.0000 C   0  0  0  0  0  0  0  0  0  0  0  0
  -27.6287    2.4155    0.0000 C   0  0  0  0  0  0  0  0  0  0  0  0
  -28.5034    3.6341    0.0000 C   0  0  0  0  0  0  0  0  0  0  0  0
  -23.6346    3.2655    0.0000 C   0  0  0  0  0  0  0  0  0  0  0  0
  -24.2127    4.6496    0.0000 O   0  0  0  0  0  0  0  0  0  0  0  0
  -22.1812    2.8942    0.0000 N   0  0  0  0  0  0  0  0  0  0  0  0
  -21.1330    3.9672    0.0000 C   0  0  0  0  0  0  0  0  0  0  0  0
  -22.3718    4.8132    0.0000 C   0  0  0  0  0  0  0  0  0  0  0  0
  -22.2585    6.3089    0.0000 C   0  0  0  0  0  0  0  0  0  0  0  0
  -23.4972    7.1548    0.0000 C   0  0  0  0  0  0  0  0  0  0  0  0
  -21.6406    7.6757    0.0000 C   0  0  0  0  0  0  0  0  0  0  0  0
  -19.7811    4.6170    0.0000 C   0  0  0  0  0  0  0  0  0  0  0  0
  -19.8510    6.1154    0.0000 O   0  0  0  0  0  0  0  0  0  0  0  0
  -18.5424    3.7711    0.0000 N   0  0  0  0  0  0  0  0  0  0  0  0
  -17.1904    4.4209    0.0000 C   0  0  0  0  0  0  0  0  0  0  0  0
  -18.0651    5.6395    0.0000 C   0  0  0  0  0  0  0  0  0  0  0  0
  -17.4472    7.0063    0.0000 C   0  0  0  0  0  0  0  0  0  0  0  0
  -18.3218    8.2248    0.0000 C   0  0  0  0  0  0  0  0  0  0  0  0
  -17.7039    9.5916    0.0000 N   0  0  0  0  0  0  0  0  0  0  0  0
  -19.8145    8.0766    0.0000 O   0  0  0  0  0  0  0  0  0  0  0  0
  -15.6978    4.5691    0.0000 C   0  0  0  0  0  0  0  0  0  0  0  0
  -15.2510    6.0010    0.0000 O   0  0  0  0  0  0  0  0  0  0  0  0
  -14.8231    3.3505    0.0000 N   0  0  0  0  0  0  0  0  0  0  0  0
  -13.3304    3.4988    0.0000 C   0  0  0  0  0  0  0  0  0  0  0  0
  -13.7356    4.9430    0.0000 C   0  0  0  0  0  0  0  0  0  0  0  0
  -12.6874    6.0160    0.0000 C   0  0  0  0  0  0  0  0  0  0  0  0
  -13.0926    7.4603    0.0000 C   0  0  0  0  0  0  0  0  0  0  0  0
  -12.0444    8.5333    0.0000 N   0  0  0  0  0  0  0  0  0  0  0  0
  -14.5459    7.8315    0.0000 O   0  0  0  0  0  0  0  0  0  0  0  0
  -11.8771    3.1275    0.0000 C   0  0  0  0  0  0  0  0  0  0  0  0
  -10.9675    4.3203    0.0000 O   0  0  0  0  0  0  0  0  0  0  0  0
  -11.4719    1.6833    0.0000 N   0  0  0  0  0  0  0  0  0  0  0  0
  -10.0186    1.3120    0.0000 C   0  0  0  0  0  0  0  0  0  0  0  0
   -9.9054    2.8078    0.0000 C   0  0  0  0  0  0  0  0  0  0  0  0
   -8.7799    0.4661    0.0000 C   0  0  0  0  0  0  0  0  0  0  0  0
   -7.4279    1.1159    0.0000 O   0  0  0  0  0  0  0  0  0  0  0  0
   -8.8931   -1.0296    0.0000 N   0  0  0  0  0  0  0  0  0  0  0  0
   -7.6544   -1.8755    0.0000 C   0  0  0  0  0  0  0  0  0  0  0  0
   -8.7026   -2.9485    0.0000 C   0  0  0  0  0  0  0  0  0  0  0  0
  -10.1559   -2.5773    0.0000 C   0  0  0  0  0  0  0  0  0  0  0  0
   -6.2011   -2.2468    0.0000 C   0  0  0  0  0  0  0  0  0  0  0  0
   -5.9750   -3.7296    0.0000 O   0  0  0  0  0  0  0  0  0  0  0  0
   -5.1529   -1.1738    0.0000 N   0  0  0  0  0  0  0  0  0  0  0  0
   -3.6996   -1.5450    0.0000 C   0  0  0  0  0  0  0  0  0  0  0  0
   -3.0163   -2.8803    0.0000 C   0  0  0  0  0  0  0  0  0  0  0  0
   -1.9697   -3.9549    0.0000 C   0  0  0  0  0  0  0  0  0  0  0  0
   -0.6529   -4.6733    0.0000 C   0  0  0  0  0  0  0  0  0  0  0  0
    0.8171   -4.9717    0.0000 C   0  0  0  0  0  0  0  0  0  0  0  0
   -4.7716   -2.5942    0.0000 C   0  0  0  0  0  0  0  0  0  0  0  0
   -3.9589   -0.0676    0.0000 C   0  0  0  0  0  0  0  0  0  0  0  0
   -5.4517    0.0792    0.0000 O   0  0  0  0  0  0  0  0  0  0  0  0
   -3.7713    1.4206    0.0000 N   0  0  0  0  0  0  0  0  0  0  0  0
   -3.1533    2.7874    0.0000 C   0  0  0  0  0  0  0  0  0  0  0  0
   -4.6533    2.7885    0.0000 C   0  0  0  0  0  0  0  0  0  0  0  0
   -5.4023    4.0882    0.0000 C   0  0  0  0  0  0  0  0  0  0  0  0
   -2.1599    3.9113    0.0000 C   0  0  0  0  0  0  0  0  0  0  0  0
   -3.1232    5.0611    0.0000 O   0  0  0  0  0  0  0  0  0  0  0  0
   -0.8794    4.6925    0.0000 N   0  0  0  0  0  0  0  0  0  0  0  0
    0.5745    5.0615    0.0000 C   0  0  0  0  0  0  0  0  0  0  0  0
   -0.3598    6.2350    0.0000 C   0  0  0  0  0  0  0  0  0  0  0  0
    0.3553    7.5535    0.0000 C   0  0  0  0  0  0  0  0  0  0  0  0
   -1.6392    7.0181    0.0000 C   0  0  0  0  0  0  0  0  0  0  0  0
   -1.6006    8.5176    0.0000 C   0  0  0  0  0  0  0  0  0  0  0  0
    2.0726    4.9856    0.0000 C   0  0  0  0  0  0  0  0  0  0  0  0
    2.1578    6.0758    0.0000 O   0  0  0  0  0  0  0  0  0  0  0  0
    3.4817    4.4715    0.0000 N   0  0  0  0  0  0  0  0  0  0  0  0
    4.6768    3.5649    0.0000 C   0  0  0  0  0  0  0  0  0  0  0  0
    5.0116    5.0270    0.0000 C   0  0  0  0  0  0  0  0  0  0  0  0
    3.9128    6.0481    0.0000 C   0  0  0  0  0  0  0  0  0  0  0  0
    4.2477    7.5103    0.0000 C   0  0  0  0  0  0  0  0  0  0  0  0
    2.6125    6.7959    0.0000 C   0  0  0  0  0  0  0  0  0  0  0  0
    5.5514    2.3463    0.0000 C   0  0  0  0  0  0  0  0  0  0  0  0
    6.4095    3.5766    0.0000 O   0  0  0  0  0  0  0  0  0  0  0  0
    6.0281    0.9241    0.0000 N   0  0  0  0  0  0  0  0  0  0  0  0
    6.0643   -0.5755    0.0000 C   0  0  0  0  0  0  0  0  0  0  0  0
    5.6570   -2.0191    0.0000 C   0  0  0  0  0  0  0  0  0  0  0  0
    4.8422   -3.2785    0.0000 C   0  0  0  0  0  0  0  0  0  0  0  0
    3.6924   -4.2418    0.0000 C   0  0  0  0  0  0  0  0  0  0  0  0
    2.3098   -4.8234    0.0000 C   0  0  0  0  0  0  0  0  0  0  0  0
    7.0580    0.6707    0.0000 C   0  0  0  0  0  0  0  0  0  0  0  0
    7.6041    1.9238    0.0000 C   0  0  0  0  0  0  0  0  0  0  0  0
    8.3776    3.0509    0.0000 C   0  0  0  0  0  0  0  0  0  0  0  0
    9.3503    4.0112    0.0000 C   0  0  0  0  0  0  0  0  0  0  0  0
    6.7175   -2.0294    0.0000 C   0  0  0  0  0  0  0  0  0  0  0  0
    4.5222   -2.1722    0.0000 O   0  0  0  0  0  0  0  0  0  0  0  0
    6.9355   -3.3788    0.0000 N   0  0  0  0  0  0  0  0  0  0  0  0
    7.4050   -4.6626    0.0000 C   0  0  0  0  0  0  0  0  0  0  0  0
    5.9643   -6.2275    0.0000 C   0  0  0  0  0  0  0  0  0  0  0  0
    6.6537   -7.5597    0.0000 C   0  0  0  0  0  0  0  0  0  0  0  0
    5.8446   -8.8228    0.0000 C   0  0  0  0  0  0  0  0  0  0  0  0
    7.6250   -8.7027    0.0000 C   0  0  0  0  0  0  0  0  0  0  0  0
    8.1089   -5.8343    0.0000 C   0  0  0  0  0  0  0  0  0  0  0  0
    7.1129   -6.8660    0.0000 O   0  0  0  0  0  0  0  0  0  0  0  0
    9.0219   -6.8516    0.0000 N   0  0  0  0  0  0  0  0  0  0  0  0
   10.1109   -7.6778    0.0000 C   0  0  0  0  0  0  0  0  0  0  0  0
    9.7450   -9.7732    0.0000 C   0  0  0  0  0  0  0  0  0  0  0  0
    8.4470  -10.5251    0.0000 C   0  0  0  0  0  0  0  0  0  0  0  0
    8.4493  -12.0251    0.0000 C   0  0  0  0  0  0  0  0  0  0  0  0
    7.1514  -12.7771    0.0000 O   0  0  0  0  0  0  0  0  0  0  0  0
    9.7495  -12.7732    0.0000 O   0  0  0  0  0  0  0  0  0  0  0  0
   11.3365   -8.2830    0.0000 C   0  0  0  0  0  0  0  0  0  0  0  0
   10.7293  -10.3938    0.0000 O   0  0  0  0  0  0  0  0  0  0  0  0
   12.6546   -8.6452    0.0000 N   0  0  0  0  0  0  0  0  0  0  0  0
   14.0173   -8.7515    0.0000 C   0  0  0  0  0  0  0  0  0  0  0  0
   14.8424  -10.7121    0.0000 C   0  0  0  0  0  0  0  0  0  0  0  0
   14.1570  -12.0464    0.0000 C   0  0  0  0  0  0  0  0  0  0  0  0
   14.9699  -13.3070    0.0000 C   0  0  0  0  0  0  0  0  0  0  0  0
   14.2846  -14.6413    0.0000 N   0  0  0  0  0  0  0  0  0  0  0  0
   16.4681  -13.2334    0.0000 O   0  0  0  0  0  0  0  0  0  0  0  0
   15.3756   -8.5980    0.0000 C   0  0  0  0  0  0  0  0  0  0  0  0
   16.0060  -10.7020    0.0000 O   0  0  0  0  0  0  0  0  0  0  0  0
   16.6803   -8.1901    0.0000 N   0  0  0  0  0  0  0  0  0  0  0  0
   17.8842   -7.5428    0.0000 C   0  0  0  0  0  0  0  0  0  0  0  0
   19.6382   -8.7461    0.0000 C   0  0  0  0  0  0  0  0  0  0  0  0
   19.7830  -10.2390    0.0000 C   0  0  0  0  0  0  0  0  0  0  0  0
   21.1484  -10.8601    0.0000 C   0  0  0  0  0  0  0  0  0  0  0  0
   21.2932  -12.3531    0.0000 N   0  0  0  0  0  0  0  0  0  0  0  0
   22.3690   -9.9882    0.0000 O   0  0  0  0  0  0  0  0  0  0  0  0
   18.9438   -6.6793    0.0000 C   0  0  0  0  0  0  0  0  0  0  0  0
   20.6117   -8.1084    0.0000 O   0  0  0  0  0  0  0  0  0  0  0  0
   19.8209   -5.6308    0.0000 N   0  0  0  0  0  0  0  0  0  0  0  0
   20.4837   -4.4353    0.0000 C   0  0  0  0  0  0  0  0  0  0  0  0
   22.6098   -4.4993    0.0000 C   0  0  0  0  0  0  0  0  0  0  0  0
   23.5388   -5.6770    0.0000 C   0  0  0  0  0  0  0  0  0  0  0  0
   20.9082   -3.1360    0.0000 C   0  0  0  0  0  0  0  0  0  0  0  0
   23.0840   -3.4366    0.0000 O   0  0  0  0  0  0  0  0  0  0  0  0
   21.0792   -1.7798    0.0000 N   0  0  0  0  0  0  0  0  0  0  0  0
   20.9905   -0.4158    0.0000 C   0  0  0  0  0  0  0  0  0  0  0  0
   22.8137    0.6798    0.0000 C   0  0  0  0  0  0  0  0  0  0  0  0
   24.2319    0.1914    0.0000 C   0  0  0  0  0  0  0  0  0  0  0  0
   25.3641    1.1754    0.0000 C   0  0  0  0  0  0  0  0  0  0  0  0
   26.7823    0.6869    0.0000 N   0  0  0  0  0  0  0  0  0  0  0  0
   27.9144    1.6709    0.0000 C   0  0  0  0  0  0  0  0  0  0  0  0
   29.3327    1.1824    0.0000 N   0  0  0  0  0  0  0  0  0  0  0  0
   27.6283    3.1434    0.0000 N   0  0  0  0  0  0  0  0  0  0  0  0
   20.6452    0.9068    0.0000 C   0  0  0  0  0  0  0  0  0  0  0  0
   22.6381    1.8302    0.0000 O   0  0  0  0  0  0  0  0  0  0  0  0
   20.0559    2.1401    0.0000 N   0  0  0  0  0  0  0  0  0  0  0  0
   19.2437    3.2397    0.0000 C   0  0  0  0  0  0  0  0  0  0  0  0
   18.2382    4.1656    0.0000 C   0  0  0  0  0  0  0  0  0  0  0  0
   17.0756    4.8845    0.0000 C   0  0  0  0  0  0  0  0  0  0  0  0
   15.7980    5.3705    0.0000 C   0  0  0  0  0  0  0  0  0  0  0  0
   14.4515    5.6058    0.0000 C   0  0  0  0  0  0  0  0  0  0  0  0
   13.0848    5.5820    0.0000 C   0  0  0  0  0  0  0  0  0  0  0  0
   11.7472    5.3001    0.0000 C   0  0  0  0  0  0  0  0  0  0  0  0
   10.4872    4.7701    0.0000 C   0  0  0  0  0  0  0  0  0  0  0  0
   21.2415    3.9699    0.0000 C   0  0  0  0  0  0  0  0  0  0  0  0
   20.1851    5.1471    0.0000 C   0  0  0  0  0  0  0  0  0  0  0  0
   19.4415    6.4497    0.0000 O   0  0  0  0  0  0  0  0  0  0  0  0
   21.6423    5.5029    0.0000 N   0  0  0  0  0  0  0  0  0  0  0  0
   22.0628    6.9428    0.0000 C   0  0  0  0  0  0  0  0  0  0  0  0
   21.9654    8.4396    0.0000 C   0  0  0  0  0  0  0  0  0  0  0  0
   23.2130    9.2724    0.0000 C   0  0  0  0  0  0  0  0  0  0  0  0
   23.1156   10.7692    0.0000 C   0  0  0  0  0  0  0  0  0  0  0  0
   24.3632   11.6020    0.0000 N   0  0  0  0  0  0  0  0  0  0  0  0
   24.2658   13.0988    0.0000 C   0  0  0  0  0  0  0  0  0  0  0  0
   25.5134   13.9315    0.0000 N   0  0  0  0  0  0  0  0  0  0  0  0
   22.9208   13.7629    0.0000 N   0  0  0  0  0  0  0  0  0  0  0  0
   23.5199    7.2986    0.0000 C   0  0  0  0  0  0  0  0  0  0  0  0
   24.1128    8.6765    0.0000 O   0  0  0  0  0  0  0  0  0  0  0  0
   24.5567    6.2146    0.0000 O   0  0  0  0  0  0  0  0  0  0  0  0
  -31.1307  -11.7865    0.0000 H   0  0  0  0  0  0  0  0  0  0  0  0
  -32.2562   -9.4448    0.0000 H   0  0  0  0  0  0  0  0  0  0  0  0
  -29.2604  -11.0852    0.0000 H   0  0  0  0  0  0  0  0  0  0  0  0
  -28.1729   -9.4927    0.0000 H   0  0  0  0  0  0  0  0  0  0  0  0
  -31.0450   -8.2935    0.0000 H   0  0  0  0  0  0  0  0  0  0  0  0
  -29.9575   -6.7010    0.0000 H   0  0  0  0  0  0  0  0  0  0  0  0
  -29.3258   -5.1538    0.0000 H   0  0  0  0  0  0  0  0  0  0  0  0
  -27.6098   -4.1314    0.0000 H   0  0  0  0  0  0  0  0  0  0  0  0
  -26.4217   -8.0057    0.0000 H   0  0  0  0  0  0  0  0  0  0  0  0
  -27.3597   -7.1623    0.0000 H   0  0  0  0  0  0  0  0  0  0  0  0
  -24.7634   -5.6697    0.0000 H   0  0  0  0  0  0  0  0  0  0  0  0
  -23.0743   -9.1553    0.0000 H   0  0  0  0  0  0  0  0  0  0  0  0
  -24.5847  -10.1054    0.0000 H   0  0  0  0  0  0  0  0  0  0  0  0
  -25.9350   -8.9387    0.0000 H   0  0  0  0  0  0  0  0  0  0  0  0
  -22.3673   -8.1201    0.0000 H   0  0  0  0  0  0  0  0  0  0  0  0
  -22.0321   -6.3674    0.0000 H   0  0  0  0  0  0  0  0  0  0  0  0
  -23.7487   -5.7174    0.0000 H   0  0  0  0  0  0  0  0  0  0  0  0
  -27.5455   -2.4614    0.0000 H   0  0  0  0  0  0  0  0  0  0  0  0
  -26.2827   -0.9138    0.0000 H   0  0  0  0  0  0  0  0  0  0  0  0
  -23.8046   -4.2781    0.0000 H   0  0  0  0  0  0  0  0  0  0  0  0
  -25.3238   -3.9359    0.0000 H   0  0  0  0  0  0  0  0  0  0  0  0
  -23.0818   -1.3858    0.0000 H   0  0  0  0  0  0  0  0  0  0  0  0
  -20.3023   -4.0834    0.0000 H   0  0  0  0  0  0  0  0  0  0  0  0
  -21.3968   -5.4929    0.0000 H   0  0  0  0  0  0  0  0  0  0  0  0
  -23.0646   -4.8584    0.0000 H   0  0  0  0  0  0  0  0  0  0  0  0
  -19.9921   -2.8689    0.0000 H   0  0  0  0  0  0  0  0  0  0  0  0
  -20.2765   -1.1072    0.0000 H   0  0  0  0  0  0  0  0  0  0  0  0
  -22.1994   -0.9617    0.0000 H   0  0  0  0  0  0  0  0  0  0  0  0
  -26.7131    0.3207    0.0000 H   0  0  0  0  0  0  0  0  0  0  0  0
  -23.4440    1.3465    0.0000 H   0  0  0  0  0  0  0  0  0  0  0  0
  -26.4308    1.0930    0.0000 H   0  0  0  0  0  0  0  0  0  0  0  0
  -27.9418    4.5757    0.0000 H   0  0  0  0  0  0  0  0  0  0  0  0
  -26.4280    5.5037    0.0000 H   0  0  0  0  0  0  0  0  0  0  0  0
  -25.0486    4.1562    0.0000 H   0  0  0  0  0  0  0  0  0  0  0  0
  -28.9807    1.7657    0.0000 H   0  0  0  0  0  0  0  0  0  0  0  0
  -27.4026    0.9326    0.0000 H   0  0  0  0  0  0  0  0  0  0  0  0
  -29.9961    3.4859    0.0000 H   0  0  0  0  0  0  0  0  0  0  0  0
  -28.9086    5.0783    0.0000 H   0  0  0  0  0  0  0  0  0  0  0  0
  -27.3489    4.5917    0.0000 H   0  0  0  0  0  0  0  0  0  0  0  0
  -21.7761    1.4500    0.0000 H   0  0  0  0  0  0  0  0  0  0  0  0
  -20.2584    2.7487    0.0000 H   0  0  0  0  0  0  0  0  0  0  0  0
  -23.8251    5.1844    0.0000 H   0  0  0  0  0  0  0  0  0  0  0  0
  -23.3021    3.6365    0.0000 H   0  0  0  0  0  0  0  0  0  0  0  0
  -20.8052    5.9376    0.0000 H   0  0  0  0  0  0  0  0  0  0  0  0
  -23.5672    8.6532    0.0000 H   0  0  0  0  0  0  0  0  0  0  0  0
  -24.9506    7.5260    0.0000 H   0  0  0  0  0  0  0  0  0  0  0  0
  -24.2772    5.8735    0.0000 H   0  0  0  0  0  0  0  0  0  0  0  0
  -22.3602    8.9918    0.0000 H   0  0  0  0  0  0  0  0  0  0  0  0
  -20.5924    8.7487    0.0000 H   0  0  0  0  0  0  0  0  0  0  0  0
  -20.4018    6.8297    0.0000 H   0  0  0  0  0  0  0  0  0  0  0  0
  -18.6556    2.2754    0.0000 H   0  0  0  0  0  0  0  0  0  0  0  0
  -16.7853    2.9767    0.0000 H   0  0  0  0  0  0  0  0  0  0  0  0
  -19.1915    6.6301    0.0000 H   0  0  0  0  0  0  0  0  0  0  0  0
  -19.3418    4.8520    0.0000 H   0  0  0  0  0  0  0  0  0  0  0  0
  -16.3990    8.0793    0.0000 H   0  0  0  0  0  0  0  0  0  0  0  0
  -16.2084    6.1603    0.0000 H   0  0  0  0  0  0  0  0  0  0  0  0
  -18.5786   10.8102    0.0000 H   0  0  0  0  0  0  0  0  0  0  0  0
  -16.2112    9.7398    0.0000 H   0  0  0  0  0  0  0  0  0  0  0  0
  -15.4411    1.9838    0.0000 H   0  0  0  0  0  0  0  0  0  0  0  0
  -13.4437    2.0030    0.0000 H   0  0  0  0  0  0  0  0  0  0  0  0
  -14.4552    6.2591    0.0000 H   0  0  0  0  0  0  0  0  0  0  0  0
  -15.2046    4.6397    0.0000 H   0  0  0  0  0  0  0  0  0  0  0  0
  -11.3355    6.6658    0.0000 H   0  0  0  0  0  0  0  0  0  0  0  0
  -11.8127    4.7974    0.0000 H   0  0  0  0  0  0  0  0  0  0  0  0
  -12.4496    9.9775    0.0000 H   0  0  0  0  0  0  0  0  0  0  0  0
  -10.5911    8.1620    0.0000 H   0  0  0  0  0  0  0  0  0  0  0  0
  -12.5201    0.6103    0.0000 H   0  0  0  0  0  0  0  0  0  0  0  0
  -10.6366   -0.0548    0.0000 H   0  0  0  0  0  0  0  0  0  0  0  0
  -11.0317    3.7984    0.0000 H   0  0  0  0  0  0  0  0  0  0  0  0
   -9.2874    4.1745    0.0000 H   0  0  0  0  0  0  0  0  0  0  0  0
   -8.4520    2.4365    0.0000 H   0  0  0  0  0  0  0  0  0  0  0  0
  -10.3142   -1.5098    0.0000 H   0  0  0  0  0  0  0  0  0  0  0  0
   -7.0364   -0.5087    0.0000 H   0  0  0  0  0  0  0  0  0  0  0  0
   -9.3205   -4.3153    0.0000 H   0  0  0  0  0  0  0  0  0  0  0  0
   -7.4639   -3.7945    0.0000 H   0  0  0  0  0  0  0  0  0  0  0  0
  -11.2041   -3.6503    0.0000 H   0  0  0  0  0  0  0  0  0  0  0  0
  -11.3946   -1.7314    0.0000 H   0  0  0  0  0  0  0  0  0  0  0  0
  -10.0689   -1.0798    0.0000 H   0  0  0  0  0  0  0  0  0  0  0  0
   -5.7311    0.2103    0.0000 H   0  0  0  0  0  0  0  0  0  0  0  0
   -3.5653   -4.2762    0.0000 H   0  0  0  0  0  0  0  0  0  0  0  0
   -4.4943   -3.1360    0.0000 H   0  0  0  0  0  0  0  0  0  0  0  0
   -2.2644   -5.4257    0.0000 H   0  0  0  0  0  0  0  0  0  0  0  0
   -3.3067   -4.6349    0.0000 H   0  0  0  0  0  0  0  0  0  0  0  0
   -0.3203   -6.1360    0.0000 H   0  0  0  0  0  0  0  0  0  0  0  0
   -1.7301   -5.7172    0.0000 H   0  0  0  0  0  0  0  0  0  0  0  0
    0.7412   -6.4697    0.0000 H   0  0  0  0  0  0  0  0  0  0  0  0
   -6.1034   -2.8214    0.0000 H   0  0  0  0  0  0  0  0  0  0  0  0
   -4.9237   -4.1689    0.0000 H   0  0  0  0  0  0  0  0  0  0  0  0
   -3.7170   -3.9002    0.0000 H   0  0  0  0  0  0  0  0  0  0  0  0
   -5.2149    1.8280    0.0000 H   0  0  0  0  0  0  0  0  0  0  0  0
   -3.5979    4.2200    0.0000 H   0  0  0  0  0  0  0  0  0  0  0  0
   -6.0632    2.2766    0.0000 H   0  0  0  0  0  0  0  0  0  0  0  0
   -4.7591    1.2923    0.0000 H   0  0  0  0  0  0  0  0  0  0  0  0
   -6.9023    4.0893    0.0000 H   0  0  0  0  0  0  0  0  0  0  0  0
   -5.6617    5.5656    0.0000 H   0  0  0  0  0  0  0  0  0  0  0  0
   -4.0653    4.7682    0.0000 H   0  0  0  0  0  0  0  0  0  0  0  0
   -1.6252    5.9939    0.0000 H   0  0  0  0  0  0  0  0  0  0  0  0
    1.2599    6.3958    0.0000 H   0  0  0  0  0  0  0  0  0  0  0  0
   -1.5956    5.3848    0.0000 H   0  0  0  0  0  0  0  0  0  0  0  0
   -0.5844    8.9291    0.0000 H   0  0  0  0  0  0  0  0  0  0  0  0
    1.1826    8.7548    0.0000 H   0  0  0  0  0  0  0  0  0  0  0  0
    1.4793    6.8674    0.0000 H   0  0  0  0  0  0  0  0  0  0  0  0
   -3.1092    7.3165    0.0000 H   0  0  0  0  0  0  0  0  0  0  0  0
   -2.3543    5.6996    0.0000 H   0  0  0  0  0  0  0  0  0  0  0  0
   -2.8800    9.3007    0.0000 H   0  0  0  0  0  0  0  0  0  0  0  0
   -1.0516    9.9135    0.0000 H   0  0  0  0  0  0  0  0  0  0  0  0
   -0.1021    8.5839    0.0000 H   0  0  0  0  0  0  0  0  0  0  0  0
    3.8602    5.9230    0.0000 H   0  0  0  0  0  0  0  0  0  0  0  0
    6.1002    4.0380    0.0000 H   0  0  0  0  0  0  0  0  0  0  0  0
    5.9739    6.1777    0.0000 H   0  0  0  0  0  0  0  0  0  0  0  0
    6.4543    4.6161    0.0000 H   0  0  0  0  0  0  0  0  0  0  0  0
    2.8175    5.0233    0.0000 H   0  0  0  0  0  0  0  0  0  0  0  0
    3.2816    8.6577    0.0000 H   0  0  0  0  0  0  0  0  0  0  0  0
    5.0625    8.7697    0.0000 H   0  0  0  0  0  0  0  0  0  0  0  0
    5.6904    7.0994    0.0000 H   0  0  0  0  0  0  0  0  0  0  0  0
    2.1862    8.0779    0.0000 H   0  0  0  0  0  0  0  0  0  0  0  0
    1.0330    6.7077    0.0000 H   0  0  0  0  0  0  0  0  0  0  0  0
    1.8151    5.3188    0.0000 H   0  0  0  0  0  0  0  0  0  0  0  0
    7.5055    1.1834    0.0000 H   0  0  0  0  0  0  0  0  0  0  0  0
    7.1404   -1.7967    0.0000 H   0  0  0  0  0  0  0  0  0  0  0  0
    6.3101   -3.3695    0.0000 H   0  0  0  0  0  0  0  0  0  0  0  0
    6.1462   -4.0199    0.0000 H   0  0  0  0  0  0  0  0  0  0  0  0
    4.8859   -4.7779    0.0000 H   0  0  0  0  0  0  0  0  0  0  0  0
    4.7199   -5.3346    0.0000 H   0  0  0  0  0  0  0  0  0  0  0  0
    3.6539   -5.7413    0.0000 H   0  0  0  0  0  0  0  0  0  0  0  0
    2.6788   -6.2773    0.0000 H   0  0  0  0  0  0  0  0  0  0  0  0
    4.9354    0.5323    0.0000 H   0  0  0  0  0  0  0  0  0  0  0  0
    5.5738    2.1449    0.0000 H   0  0  0  0  0  0  0  0  0  0  0  0
    5.5669    2.7315    0.0000 H   0  0  0  0  0  0  0  0  0  0  0  0
    6.5993    3.7109    0.0000 H   0  0  0  0  0  0  0  0  0  0  0  0
    6.4509    4.0643    0.0000 H   0  0  0  0  0  0  0  0  0  0  0  0
    7.3705    4.9244    0.0000 H   0  0  0  0  0  0  0  0  0  0  0  0
    7.9605    5.7166    0.0000 H   0  0  0  0  0  0  0  0  0  0  0  0
    5.0391   -4.4296    0.0000 H   0  0  0  0  0  0  0  0  0  0  0  0
    5.2735   -4.9833    0.0000 H   0  0  0  0  0  0  0  0  0  0  0  0
    4.6700   -6.9856    0.0000 H   0  0  0  0  0  0  0  0  0  0  0  0
    4.5700   -5.6744    0.0000 H   0  0  0  0  0  0  0  0  0  0  0  0
    8.0308   -6.9650    0.0000 H   0  0  0  0  0  0  0  0  0  0  0  0
    6.1911  -10.2822    0.0000 H   0  0  0  0  0  0  0  0  0  0  0  0
    4.6523   -9.7330    0.0000 H   0  0  0  0  0  0  0  0  0  0  0  0
    4.6256   -7.9488    0.0000 H   0  0  0  0  0  0  0  0  0  0  0  0
    7.4556  -10.0752    0.0000 H   0  0  0  0  0  0  0  0  0  0  0  0
    9.0876   -9.3534    0.0000 H   0  0  0  0  0  0  0  0  0  0  0  0
    8.8478   -7.5460    0.0000 H   0  0  0  0  0  0  0  0  0  0  0  0
    7.5316   -8.4700    0.0000 H   0  0  0  0  0  0  0  0  0  0  0  0
    8.4912   -9.1000    0.0000 H   0  0  0  0  0  0  0  0  0  0  0  0
   10.0845  -11.2342    0.0000 H   0  0  0  0  0  0  0  0  0  0  0  0
   11.2414   -9.8756    0.0000 H   0  0  0  0  0  0  0  0  0  0  0  0
    7.0777  -11.1374    0.0000 H   0  0  0  0  0  0  0  0  0  0  0  0
    7.7640   -9.1897    0.0000 H   0  0  0  0  0  0  0  0  0  0  0  0
   12.0976  -10.7699    0.0000 H   0  0  0  0  0  0  0  0  0  0  0  0
   13.1096  -10.6363    0.0000 H   0  0  0  0  0  0  0  0  0  0  0  0
   15.9180  -11.7576    0.0000 H   0  0  0  0  0  0  0  0  0  0  0  0
   16.1567   -9.9892    0.0000 H   0  0  0  0  0  0  0  0  0  0  0  0
   13.0567  -13.0658    0.0000 H   0  0  0  0  0  0  0  0  0  0  0  0
   12.7782  -11.4559    0.0000 H   0  0  0  0  0  0  0  0  0  0  0  0
   15.0974  -15.9020    0.0000 H   0  0  0  0  0  0  0  0  0  0  0  0
   12.7864  -14.7149    0.0000 H   0  0  0  0  0  0  0  0  0  0  0  0
   17.3604  -10.2786    0.0000 H   0  0  0  0  0  0  0  0  0  0  0  0
   18.1395   -9.6191    0.0000 H   0  0  0  0  0  0  0  0  0  0  0  0
   21.1083   -9.0441    0.0000 H   0  0  0  0  0  0  0  0  0  0  0  0
   20.3531   -7.4274    0.0000 H   0  0  0  0  0  0  0  0  0  0  0  0
   19.4085  -11.6915    0.0000 H   0  0  0  0  0  0  0  0  0  0  0  0
   18.3038  -10.4877    0.0000 H   0  0  0  0  0  0  0  0  0  0  0  0
   22.6586  -12.9742    0.0000 H   0  0  0  0  0  0  0  0  0  0  0  0
   20.0727  -13.2250    0.0000 H   0  0  0  0  0  0  0  0  0  0  0  0
   21.5222   -7.0200    0.0000 H   0  0  0  0  0  0  0  0  0  0  0  0
   21.8210   -6.0440    0.0000 H   0  0  0  0  0  0  0  0  0  0  0  0
   24.0076   -3.9552    0.0000 H   0  0  0  0  0  0  0  0  0  0  0  0
   22.4982   -3.0035    0.0000 H   0  0  0  0  0  0  0  0  0  0  0  0
   25.0232   -5.4613    0.0000 H   0  0  0  0  0  0  0  0  0  0  0  0
   24.0090   -7.1014    0.0000 H   0  0  0  0  0  0  0  0  0  0  0  0
   22.4288   -6.6860    0.0000 H   0  0  0  0  0  0  0  0  0  0  0  0
   23.2615   -2.0287    0.0000 H   0  0  0  0  0  0  0  0  0  0  0  0
   22.9852   -1.0460    0.0000 H   0  0  0  0  0  0  0  0  0  0  0  0
   23.5410    1.9917    0.0000 H   0  0  0  0  0  0  0  0  0  0  0  0
   21.9111    1.8779    0.0000 H   0  0  0  0  0  0  0  0  0  0  0  0
   25.3976   -0.7527    0.0000 H   0  0  0  0  0  0  0  0  0  0  0  0
   23.8436   -1.2575    0.0000 H   0  0  0  0  0  0  0  0  0  0  0  0
   26.0914    2.4872    0.0000 H   0  0  0  0  0  0  0  0  0  0  0  0
   24.3222    2.2545    0.0000 H   0  0  0  0  0  0  0  0  0  0  0  0
   27.0684   -0.7856    0.0000 H   0  0  0  0  0  0  0  0  0  0  0  0
   30.4648    2.1664    0.0000 H   0  0  0  0  0  0  0  0  0  0  0  0
   29.6188   -0.2900    0.0000 H   0  0  0  0  0  0  0  0  0  0  0  0
   28.7605    4.1274    0.0000 H   0  0  0  0  0  0  0  0  0  0  0  0
   26.2101    3.6318    0.0000 H   0  0  0  0  0  0  0  0  0  0  0  0
   22.0263    3.1106    0.0000 H   0  0  0  0  0  0  0  0  0  0  0  0
   18.8016    6.2167    0.0000 H   0  0  0  0  0  0  0  0  0  0  0  0
   19.8900    5.5836    0.0000 H   0  0  0  0  0  0  0  0  0  0  0  0
   17.4238    7.0117    0.0000 H   0  0  0  0  0  0  0  0  0  0  0  0
   18.4292    6.5895    0.0000 H   0  0  0  0  0  0  0  0  0  0  0  0
   15.7373    7.5251    0.0000 H   0  0  0  0  0  0  0  0  0  0  0  0
   16.9514    7.1914    0.0000 H   0  0  0  0  0  0  0  0  0  0  0  0
   13.9841    7.7100    0.0000 H   0  0  0  0  0  0  0  0  0  0  0  0
   15.2394    7.6121    0.0000 H   0  0  0  0  0  0  0  0  0  0  0  0
   12.2276    7.5598    0.0000 H   0  0  0  0  0  0  0  0  0  0  0  0
   13.4788    7.7012    0.0000 H   0  0  0  0  0  0  0  0  0  0  0  0
   10.4033    6.9488    0.0000 H   0  0  0  0  0  0  0  0  0  0  0  0
   11.7331    7.4555    0.0000 H   0  0  0  0  0  0  0  0  0  0  0  0
    9.4453    6.7077    0.0000 H   0  0  0  0  0  0  0  0  0  0  0  0
   22.0785    5.2146    0.0000 H   0  0  0  0  0  0  0  0  0  0  0  0
   22.7191    3.7116    0.0000 H   0  0  0  0  0  0  0  0  0  0  0  0
   21.6067    2.5150    0.0000 H   0  0  0  0  0  0  0  0  0  0  0  0
   22.8035    4.5533    0.0000 H   0  0  0  0  0  0  0  0  0  0  0  0
   20.5718    7.1068    0.0000 H   0  0  0  0  0  0  0  0  0  0  0  0
   21.1990    9.7291    0.0000 H   0  0  0  0  0  0  0  0  0  0  0  0
   20.5082    8.0838    0.0000 H   0  0  0  0  0  0  0  0  0  0  0  0
   24.6702    9.6282    0.0000 H   0  0  0  0  0  0  0  0  0  0  0  0
   24.2686    8.2067    0.0000 H   0  0  0  0  0  0  0  0  0  0  0  0
   22.5121   12.1424    0.0000 H   0  0  0  0  0  0  0  0  0  0  0  0
   21.6259   10.5936    0.0000 H   0  0  0  0  0  0  0  0  0  0  0  0
   25.7082   10.9379    0.0000 H   0  0  0  0  0  0  0  0  0  0  0  0
   25.4160   15.4284    0.0000 H   0  0  0  0  0  0  0  0  0  0  0  0
   26.8584   13.2675    0.0000 H   0  0  0  0  0  0  0  0  0  0  0  0
   22.8234   15.2597    0.0000 H   0  0  0  0  0  0  0  0  0  0  0  0
   21.6732   12.9301    0.0000 H   0  0  0  0  0  0  0  0  0  0  0  0
  1  2  1  0
  2  3  1  0
  3  4  1  0
  4  5  2  0
  4  6  1  0
  6  7  1  0
  7  8  1  0
  8  9  1  0
  9 10  1  0
  9 11  1  0
  7 12  1  0
 12 13  2  0
 12 14  1  0
 14 15  1  0
 15 16  1  0
 16 17  1  0
 17 18  1  0
 17 19  1  0
 15 20  1  0
 20 21  2  0
 20 22  1  0
 22 23  1  0
 23 24  1  0
 24 25  1  0
 24 26  1  0
 26 27  1  0
 23 28  1  0
 28 29  2  0
 28 30  1  0
 30 31  1  0
 31 32  1  0
 32 33  1  0
 33 34  1  0
 33 35  1  0
 31 36  1  0
 36 37  2  0
 36 38  1  0
 38 39  1  0
 39 40  1  0
 40 41  1  0
 41 42  1  0
 42 43  1  0
 42 44  2  0
 39 45  1  0
 45 46  2  0
 45 47  1  0
 47 48  1  0
 48 49  1  0
 49 50  1  0
 50 51  1  0
 51 52  1  0
 51 53  2  0
 48 54  1  0
 54 55  2  0
 54 56  1  0
 56 57  1  0
 57 58  1  0
 57 59  1  0
 59 60  2  0
 59 61  1  0
 61 62  1  0
 62 63  1  0
 63 64  1  0
 62 65  1  0
 65 66  2  0
 65 67  1  0
 68 67  1  6
 68 69  1  0
 69 70  1  0
 70 71  1  0
 71 72  1  0
 68 73  1  0
 68 74  1  0
 74 75  2  0
 74 76  1  0
 76 77  1  0
 77 78  1  0
 78 79  1  0
 77 80  1  0
 80 81  2  0
 80 82  1  0
 82 83  1  0
 83 84  1  0
 84 85  1  0
 84 86  1  0
 86 87  1  0
 83 88  1  0
 88 89  2  0
 88 90  1  0
 90 91  1  0
 91 92  1  0
 92 93  1  0
 93 94  1  0
 93 95  1  0
 91 96  1  0
 96 97  2  0
 96 98  1  0
 98 99  1  0
 99100  1  0
100101  1  0
101102  1  0
102103  1  0
 99104  1  0
104105  1  0
105106  1  0
106107  1  0
 99108  1  0
108109  2  0
108110  1  0
110111  1  0
111112  1  0
112113  1  0
113114  1  0
113115  1  0
111116  1  0
116117  2  0
116118  1  0
118119  1  0
119120  1  0
120121  1  0
121122  1  0
122123  2  0
122124  1  0
119125  1  0
125126  2  0
125127  1  0
127128  1  0
128129  1  0
129130  1  0
130131  1  0
131132  1  0
131133  2  0
128134  1  0
134135  2  0
134136  1  0
136137  1  0
137138  1  0
138139  1  0
139140  1  0
140141  1  0
140142  2  0
137143  1  0
143144  2  0
143145  1  0
145146  1  0
146147  1  0
147148  1  0
146149  1  0
149150  2  0
149151  1  0
151152  1  0
152153  1  0
153154  1  0
154155  1  0
155156  1  0
156157  1  0
157158  2  3
157159  1  0
152160  1  0
160161  2  0
160162  1  0
162163  1  0
163164  1  0
164165  1  0
165166  1  0
166167  1  0
167168  1  0
168169  1  0
169170  1  0
163171  1  0
163172  1  1
172173  2  0
172174  1  0
174175  1  0
175176  1  0
176177  1  0
177178  1  0
178179  1  0
179180  1  0
180181  2  3
180182  1  0
175183  1  0
183184  2  0
183185  1  0
 72103  2  0
107170  2  0
  1186  1  0
  1187  1  0
  2188  1  0
  2189  1  0
  3190  1  0
  3191  1  0
  6192  1  0
  7193  1  6
  8194  1  0
  8195  1  0
  9196  1  0
 10197  1  0
 10198  1  0
 10199  1  0
 11200  1  0
 11201  1  0
 11202  1  0
 14203  1  0
 15204  1  6
 16205  1  0
 16206  1  0
 17207  1  0
 18208  1  0
 18209  1  0
 18210  1  0
 19211  1  0
 19212  1  0
 19213  1  0
 22214  1  0
 23215  1  1
 24216  1  1
 25217  1  0
 25218  1  0
 25219  1  0
 26220  1  0
 26221  1  0
 27222  1  0
 27223  1  0
 27224  1  0
 30225  1  0
 31226  1  1
 32227  1  0
 32228  1  0
 33229  1  0
 34230  1  0
 34231  1  0
 34232  1  0
 35233  1  0
 35234  1  0
 35235  1  0
 38236  1  0
 39237  1  1
 40238  1  0
 40239  1  0
 41240  1  0
 41241  1  0
 43242  1  0
 43243  1  0
 47244  1  0
 48245  1  1
 49246  1  0
 49247  1  0
 50248  1  0
 50249  1  0
 52250  1  0
 52251  1  0
 56252  1  0
 57253  1  1
 58254  1  0
 58255  1  0
 58256  1  0
 61257  1  0
 62258  1  6
 63259  1  0
 63260  1  0
 64261  1  0
 64262  1  0
 64263  1  0
 67264  1  0
 69265  1  0
 69266  1  0
 70267  1  0
 70268  1  0
 71269  1  0
 71270  1  0
 72271  1  0
 73272  1  0
 73273  1  0
 73274  1  0
 76275  1  0
 77276  1  1
 78277  1  0
 78278  1  0
 79279  1  0
 79280  1  0
 79281  1  0
 82282  1  0
 83283  1  1
 84284  1  1
 85285  1  0
 85286  1  0
 85287  1  0
 86288  1  0
 86289  1  0
 87290  1  0
 87291  1  0
 87292  1  0
 90293  1  0
 91294  1  1
 92295  1  0
 92296  1  0
 93297  1  0
 94298  1  0
 94299  1  0
 94300  1  0
 95301  1  0
 95302  1  0
 95303  1  0
 98304  1  0
100305  1  0
100306  1  0
101307  1  0
101308  1  0
102309  1  0
102310  1  0
103311  1  0
104312  1  0
104313  1  0
105314  1  0
105315  1  0
106316  1  0
106317  1  0
107318  1  0
110319  1  0
111320  1  6
112321  1  0
112322  1  0
113323  1  0
114324  1  0
114325  1  0
114326  1  0
115327  1  0
115328  1  0
115329  1  0
118330  1  0
119331  1  6
120332  1  0
120333  1  0
121334  1  0
121335  1  0
127336  1  0
128337  1  6
129338  1  0
129339  1  0
130340  1  0
130341  1  0
132342  1  0
132343  1  0
136344  1  0
137345  1  6
138346  1  0
138347  1  0
139348  1  0
139349  1  0
141350  1  0
141351  1  0
145352  1  0
146353  1  6
147354  1  0
147355  1  0
148356  1  0
148357  1  0
148358  1  0
151359  1  0
152360  1  6
153361  1  0
153362  1  0
154363  1  0
154364  1  0
155365  1  0
155366  1  0
156367  1  0
158368  1  0
158369  1  0
159370  1  0
159371  1  0
162372  1  0
164373  1  0
164374  1  0
165375  1  0
165376  1  0
166377  1  0
166378  1  0
167379  1  0
167380  1  0
168381  1  0
168382  1  0
169383  1  0
169384  1  0
170385  1  0
171386  1  0
171387  1  0
171388  1  0
174389  1  0
175390  1  1
176391  1  0
176392  1  0
177393  1  0
177394  1  0
178395  1  0
178396  1  0
179397  1  0
181398  1  0
181399  1  0
182400  1  0
182401  1  0
M  CHG  4 124  -1 158   1 181   1 185  -1
M  END
