
     RDKit          2D

281283  0  0  0  0  0  0  0  0999 V2000
  -25.6475    4.8542    0.0000 N   0  0  0  0  0  0  0  0  0  0  0  0
  -24.2343    4.3515    0.0000 C   0  0  0  0  0  0  0  0  0  0  0  0
  -23.9631    2.8762    0.0000 C   0  0  0  0  0  0  0  0  0  0  0  0
  -22.5498    2.3734    0.0000 O   0  0  0  0  0  0  0  0  0  0  0  0
  -22.2786    0.8982    0.0000 C   0  0  0  0  0  0  0  0  0  0  0  0
  -20.8653    0.3954    0.0000 O   0  0  0  0  0  0  0  0  0  0  0  0
  -20.5941   -1.0798    0.0000 C   0  0  0  0  0  0  0  0  0  0  0  0
  -19.1809   -1.5826    0.0000 C   0  0  0  0  0  0  0  0  0  0  0  0
  -18.9096   -3.0579    0.0000 O   0  0  0  0  0  0  0  0  0  0  0  0
  -17.4964   -3.5606    0.0000 C   0  0  0  0  0  0  0  0  0  0  0  0
  -17.2251   -5.0359    0.0000 C   0  0  0  0  0  0  0  0  0  0  0  0
  -15.8119   -5.5386    0.0000 C   0  0  0  0  0  0  0  0  0  0  0  0
  -14.6699   -4.5661    0.0000 O   0  0  0  0  0  0  0  0  0  0  0  0
  -15.5407   -7.0139    0.0000 N   0  0  0  0  0  0  0  0  0  0  0  0
  -14.1274   -7.5166    0.0000 C   0  0  0  0  0  0  0  0  0  0  0  0
  -14.8679   -8.8211    0.0000 C   0  0  0  0  0  0  0  0  0  0  0  0
  -16.3679   -8.8320    0.0000 C   0  0  0  0  0  0  0  0  0  0  0  0
  -17.1084  -10.1365    0.0000 N   0  0  0  0  0  0  0  0  0  0  0  0
  -17.2794   -7.6407    0.0000 O   0  0  0  0  0  0  0  0  0  0  0  0
  -12.6275   -7.5057    0.0000 C   0  0  0  0  0  0  0  0  0  0  0  0
  -12.0314   -8.8821    0.0000 O   0  0  0  0  0  0  0  0  0  0  0  0
  -11.8870   -6.2012    0.0000 N   0  0  0  0  0  0  0  0  0  0  0  0
  -10.3870   -6.1903    0.0000 C   0  0  0  0  0  0  0  0  0  0  0  0
  -10.6367   -7.6693    0.0000 C   0  0  0  0  0  0  0  0  0  0  0  0
   -9.4806   -8.6251    0.0000 C   0  0  0  0  0  0  0  0  0  0  0  0
   -9.7303  -10.1042    0.0000 C   0  0  0  0  0  0  0  0  0  0  0  0
   -8.5743  -11.0600    0.0000 N   0  0  0  0  0  0  0  0  0  0  0  0
  -11.1361  -10.6275    0.0000 O   0  0  0  0  0  0  0  0  0  0  0  0
   -8.9812   -5.6670    0.0000 C   0  0  0  0  0  0  0  0  0  0  0  0
   -7.8252   -6.6228    0.0000 O   0  0  0  0  0  0  0  0  0  0  0  0
   -8.7315   -4.1879    0.0000 N   0  0  0  0  0  0  0  0  0  0  0  0
   -7.3258   -3.6646    0.0000 C   0  0  0  0  0  0  0  0  0  0  0  0
   -8.0852   -2.3711    0.0000 C   0  0  0  0  0  0  0  0  0  0  0  0
   -9.5852   -2.3820    0.0000 C   0  0  0  0  0  0  0  0  0  0  0  0
  -10.3446   -1.0885    0.0000 C   0  0  0  0  0  0  0  0  0  0  0  0
  -10.9910   -2.9053    0.0000 C   0  0  0  0  0  0  0  0  0  0  0  0
   -5.8258   -3.6537    0.0000 C   0  0  0  0  0  0  0  0  0  0  0  0
   -5.2297   -5.0301    0.0000 O   0  0  0  0  0  0  0  0  0  0  0  0
   -5.0853   -2.3492    0.0000 N   0  0  0  0  0  0  0  0  0  0  0  0
   -3.5854   -2.3383    0.0000 C   0  0  0  0  0  0  0  0  0  0  0  0
   -2.6683   -3.5253    0.0000 C   0  0  0  0  0  0  0  0  0  0  0  0
   -1.5431   -4.5172    0.0000 C   0  0  0  0  0  0  0  0  0  0  0  0
   -0.2505   -5.2783    0.0000 C   0  0  0  0  0  0  0  0  0  0  0  0
    1.1627   -5.7811    0.0000 C   0  0  0  0  0  0  0  0  0  0  0  0
    2.6456   -6.0073    0.0000 C   0  0  0  0  0  0  0  0  0  0  0  0
    4.1444   -5.9488    0.0000 C   0  0  0  0  0  0  0  0  0  0  0  0
    5.6051   -5.6076    0.0000 C   0  0  0  0  0  0  0  0  0  0  0  0
   -4.4012   -3.5970    0.0000 C   0  0  0  0  0  0  0  0  0  0  0  0
   -4.2612   -0.9992    0.0000 C   0  0  0  0  0  0  0  0  0  0  0  0
   -5.7146   -1.3703    0.0000 O   0  0  0  0  0  0  0  0  0  0  0  0
   -4.6715    0.4436    0.0000 N   0  0  0  0  0  0  0  0  0  0  0  0
   -4.8012    1.9380    0.0000 C   0  0  0  0  0  0  0  0  0  0  0  0
   -6.0826    1.1581    0.0000 C   0  0  0  0  0  0  0  0  0  0  0  0
   -7.3986    1.8779    0.0000 C   0  0  0  0  0  0  0  0  0  0  0  0
   -7.4334    3.3775    0.0000 C   0  0  0  0  0  0  0  0  0  0  0  0
   -8.7494    4.0972    0.0000 N   0  0  0  0  0  0  0  0  0  0  0  0
   -8.7842    5.5968    0.0000 C   0  0  0  0  0  0  0  0  0  0  0  0
  -10.1002    6.3165    0.0000 N   0  0  0  0  0  0  0  0  0  0  0  0
   -7.5028    6.3766    0.0000 N   0  0  0  0  0  0  0  0  0  0  0  0
   -4.6459    3.4299    0.0000 C   0  0  0  0  0  0  0  0  0  0  0  0
   -6.1414    3.5450    0.0000 O   0  0  0  0  0  0  0  0  0  0  0  0
   -4.2109    4.8655    0.0000 N   0  0  0  0  0  0  0  0  0  0  0  0
   -3.5122    6.1928    0.0000 C   0  0  0  0  0  0  0  0  0  0  0  0
   -5.0117    6.2295    0.0000 C   0  0  0  0  0  0  0  0  0  0  0  0
   -5.7298    7.5465    0.0000 O   0  0  0  0  0  0  0  0  0  0  0  0
   -2.5749    7.3639    0.0000 C   0  0  0  0  0  0  0  0  0  0  0  0
   -3.6516    8.4083    0.0000 O   0  0  0  0  0  0  0  0  0  0  0  0
   -1.4329    8.3364    0.0000 N   0  0  0  0  0  0  0  0  0  0  0  0
   -0.1274    9.0753    0.0000 C   0  0  0  0  0  0  0  0  0  0  0  0
   -1.3691    9.9168    0.0000 C   0  0  0  0  0  0  0  0  0  0  0  0
   -1.2612   11.4129    0.0000 C   0  0  0  0  0  0  0  0  0  0  0  0
    0.0885   12.0675    0.0000 C   0  0  0  0  0  0  0  0  0  0  0  0
    0.1965   13.5636    0.0000 C   0  0  0  0  0  0  0  0  0  0  0  0
   -1.0452   14.4052    0.0000 C   0  0  0  0  0  0  0  0  0  0  0  0
   -2.3949   13.7506    0.0000 C   0  0  0  0  0  0  0  0  0  0  0  0
   -2.5028   12.2545    0.0000 C   0  0  0  0  0  0  0  0  0  0  0  0
    1.2942    9.5537    0.0000 C   0  0  0  0  0  0  0  0  0  0  0  0
    1.1337   11.0451    0.0000 O   0  0  0  0  0  0  0  0  0  0  0  0
    2.7807    9.7544    0.0000 N   0  0  0  0  0  0  0  0  0  0  0  0
    4.2783    9.6702    0.0000 C   0  0  0  0  0  0  0  0  0  0  0  0
    3.6888   11.0495    0.0000 C   0  0  0  0  0  0  0  0  0  0  0  0
    4.5884   12.2497    0.0000 C   0  0  0  0  0  0  0  0  0  0  0  0
    6.0777   12.0707    0.0000 C   0  0  0  0  0  0  0  0  0  0  0  0
    6.9774   13.2709    0.0000 C   0  0  0  0  0  0  0  0  0  0  0  0
    6.3878   14.6502    0.0000 C   0  0  0  0  0  0  0  0  0  0  0  0
    4.8985   14.8292    0.0000 C   0  0  0  0  0  0  0  0  0  0  0  0
    3.9989   13.6290    0.0000 C   0  0  0  0  0  0  0  0  0  0  0  0
    5.7330    9.3041    0.0000 C   0  0  0  0  0  0  0  0  0  0  0  0
    6.4042   10.6455    0.0000 O   0  0  0  0  0  0  0  0  0  0  0  0
    7.0920    8.6693    0.0000 N   0  0  0  0  0  0  0  0  0  0  0  0
    8.3064    7.7888    0.0000 C   0  0  0  0  0  0  0  0  0  0  0  0
    8.5561    9.2678    0.0000 C   0  0  0  0  0  0  0  0  0  0  0  0
    9.3322    6.6943    0.0000 C   0  0  0  0  0  0  0  0  0  0  0  0
   10.5192    7.6114    0.0000 O   0  0  0  0  0  0  0  0  0  0  0  0
   10.1323    5.4255    0.0000 N   0  0  0  0  0  0  0  0  0  0  0  0
   10.6778    4.0283    0.0000 C   0  0  0  0  0  0  0  0  0  0  0  0
   11.6875    5.1375    0.0000 C   0  0  0  0  0  0  0  0  0  0  0  0
   13.1530    4.8177    0.0000 C   0  0  0  0  0  0  0  0  0  0  0  0
   14.1627    5.9270    0.0000 C   0  0  0  0  0  0  0  0  0  0  0  0
   14.4208    4.0160    0.0000 C   0  0  0  0  0  0  0  0  0  0  0  0
   10.9490    2.5530    0.0000 C   0  0  0  0  0  0  0  0  0  0  0  0
   12.4481    2.4996    0.0000 O   0  0  0  0  0  0  0  0  0  0  0  0
   10.9362    1.0530    0.0000 N   0  0  0  0  0  0  0  0  0  0  0  0
   10.6397   -0.4174    0.0000 C   0  0  0  0  0  0  0  0  0  0  0  0
   10.0703   -1.8051    0.0000 C   0  0  0  0  0  0  0  0  0  0  0  0
    9.2485   -3.0600    0.0000 C   0  0  0  0  0  0  0  0  0  0  0  0
    8.2041   -4.1367    0.0000 C   0  0  0  0  0  0  0  0  0  0  0  0
    6.9748   -4.9962    0.0000 C   0  0  0  0  0  0  0  0  0  0  0  0
   11.7601   -1.4147    0.0000 C   0  0  0  0  0  0  0  0  0  0  0  0
   12.0888   -0.0301    0.0000 C   0  0  0  0  0  0  0  0  0  0  0  0
   12.6517    1.3603    0.0000 O   0  0  0  0  0  0  0  0  0  0  0  0
   13.1488   -1.0914    0.0000 N   0  0  0  0  0  0  0  0  0  0  0  0
   14.5979   -0.7041    0.0000 C   0  0  0  0  0  0  0  0  0  0  0  0
   15.8272    0.1555    0.0000 C   0  0  0  0  0  0  0  0  0  0  0  0
   17.1863   -0.4793    0.0000 C   0  0  0  0  0  0  0  0  0  0  0  0
   18.4156    0.3802    0.0000 O   0  0  0  0  0  0  0  0  0  0  0  0
   17.3515   -1.2592    0.0000 O   0  0  0  0  0  0  0  0  0  0  0  0
   15.6579   -1.7655    0.0000 C   0  0  0  0  0  0  0  0  0  0  0  0
   16.4474   -1.6550    0.0000 O   0  0  0  0  0  0  0  0  0  0  0  0
   15.2688   -3.2141    0.0000 N   0  0  0  0  0  0  0  0  0  0  0  0
   16.3287   -4.2754    0.0000 C   0  0  0  0  0  0  0  0  0  0  0  0
   17.6878   -4.9102    0.0000 C   0  0  0  0  0  0  0  0  0  0  0  0
   17.8176   -6.4046    0.0000 C   0  0  0  0  0  0  0  0  0  0  0  0
   19.1766   -7.0394    0.0000 C   0  0  0  0  0  0  0  0  0  0  0  0
   19.4876   -8.5068    0.0000 N   0  0  0  0  0  0  0  0  0  0  0  0
   20.4059   -6.1798    0.0000 O   0  0  0  0  0  0  0  0  0  0  0  0
   15.9396   -5.7241    0.0000 C   0  0  0  0  0  0  0  0  0  0  0  0
   14.4904   -6.1114    0.0000 O   0  0  0  0  0  0  0  0  0  0  0  0
   16.9996   -6.7854    0.0000 N   0  0  0  0  0  0  0  0  0  0  0  0
   16.6104   -8.2341    0.0000 C   0  0  0  0  0  0  0  0  0  0  0  0
   15.7492   -9.4622    0.0000 C   0  0  0  0  0  0  0  0  0  0  0  0
   16.3823  -10.8221    0.0000 C   0  0  0  0  0  0  0  0  0  0  0  0
   14.5200  -10.3218    0.0000 C   0  0  0  0  0  0  0  0  0  0  0  0
   13.1609   -9.6870    0.0000 C   0  0  0  0  0  0  0  0  0  0  0  0
   17.6704   -9.2954    0.0000 C   0  0  0  0  0  0  0  0  0  0  0  0
   17.4607  -10.7807    0.0000 O   0  0  0  0  0  0  0  0  0  0  0  0
   19.1559   -9.0876    0.0000 O   0  0  0  0  0  0  0  0  0  0  0  0
  -25.9188    6.3295    0.0000 H   0  0  0  0  0  0  0  0  0  0  0  0
  -26.7895    3.8817    0.0000 H   0  0  0  0  0  0  0  0  0  0  0  0
  -23.9846    5.8305    0.0000 H   0  0  0  0  0  0  0  0  0  0  0  0
  -22.7343    4.3624    0.0000 H   0  0  0  0  0  0  0  0  0  0  0  0
  -25.4630    2.8652    0.0000 H   0  0  0  0  0  0  0  0  0  0  0  0
  -24.3912    1.4386    0.0000 H   0  0  0  0  0  0  0  0  0  0  0  0
  -23.7660    0.7045    0.0000 H   0  0  0  0  0  0  0  0  0  0  0  0
  -22.7067   -0.5394    0.0000 H   0  0  0  0  0  0  0  0  0  0  0  0
  -22.0815   -1.2735    0.0000 H   0  0  0  0  0  0  0  0  0  0  0  0
  -20.8438   -2.5589    0.0000 H   0  0  0  0  0  0  0  0  0  0  0  0
  -18.9312   -0.1035    0.0000 H   0  0  0  0  0  0  0  0  0  0  0  0
  -17.6934   -1.3889    0.0000 H   0  0  0  0  0  0  0  0  0  0  0  0
  -17.0683   -2.1230    0.0000 H   0  0  0  0  0  0  0  0  0  0  0  0
  -15.9964   -3.5497    0.0000 H   0  0  0  0  0  0  0  0  0  0  0  0
  -18.7251   -5.0468    0.0000 H   0  0  0  0  0  0  0  0  0  0  0  0
  -17.4748   -6.5149    0.0000 H   0  0  0  0  0  0  0  0  0  0  0  0
  -16.7927   -7.8400    0.0000 H   0  0  0  0  0  0  0  0  0  0  0  0
  -13.8777   -6.0375    0.0000 H   0  0  0  0  0  0  0  0  0  0  0  0
  -15.1176  -10.3002    0.0000 H   0  0  0  0  0  0  0  0  0  0  0  0
  -13.4547   -9.3238    0.0000 H   0  0  0  0  0  0  0  0  0  0  0  0
  -18.6084  -10.1474    0.0000 H   0  0  0  0  0  0  0  0  0  0  0  0
  -16.3489  -11.4300    0.0000 H   0  0  0  0  0  0  0  0  0  0  0  0
  -12.6464   -4.9077    0.0000 H   0  0  0  0  0  0  0  0  0  0  0  0
  -10.8360   -4.7591    0.0000 H   0  0  0  0  0  0  0  0  0  0  0  0
  -11.2127   -9.0544    0.0000 H   0  0  0  0  0  0  0  0  0  0  0  0
  -12.1296   -7.5235    0.0000 H   0  0  0  0  0  0  0  0  0  0  0  0
   -8.0674   -9.1279    0.0000 H   0  0  0  0  0  0  0  0  0  0  0  0
   -8.7401   -7.3206    0.0000 H   0  0  0  0  0  0  0  0  0  0  0  0
   -8.8239  -12.5390    0.0000 H   0  0  0  0  0  0  0  0  0  0  0  0
   -7.1685  -10.5367    0.0000 H   0  0  0  0  0  0  0  0  0  0  0  0
   -9.9955   -3.3802    0.0000 H   0  0  0  0  0  0  0  0  0  0  0  0
   -7.0545   -5.1399    0.0000 H   0  0  0  0  0  0  0  0  0  0  0  0
   -8.1746   -0.8737    0.0000 H   0  0  0  0  0  0  0  0  0  0  0  0
   -6.6795   -1.8478    0.0000 H   0  0  0  0  0  0  0  0  0  0  0  0
   -9.8608   -3.8565    0.0000 H   0  0  0  0  0  0  0  0  0  0  0  0
  -11.8348   -0.9165    0.0000 H   0  0  0  0  0  0  0  0  0  0  0  0
  -10.6159    0.3868    0.0000 H   0  0  0  0  0  0  0  0  0  0  0  0
   -9.0132   -0.3977    0.0000 H   0  0  0  0  0  0  0  0  0  0  0  0
  -11.4191   -4.3429    0.0000 H   0  0  0  0  0  0  0  0  0  0  0  0
  -12.4909   -2.9162    0.0000 H   0  0  0  0  0  0  0  0  0  0  0  0
  -11.4400   -1.4741    0.0000 H   0  0  0  0  0  0  0  0  0  0  0  0
   -5.9968   -1.1579    0.0000 H   0  0  0  0  0  0  0  0  0  0  0  0
   -3.2311   -4.9157    0.0000 H   0  0  0  0  0  0  0  0  0  0  0  0
   -4.0922   -3.9969    0.0000 H   0  0  0  0  0  0  0  0  0  0  0  0
   -1.8326   -5.9890    0.0000 H   0  0  0  0  0  0  0  0  0  0  0  0
   -2.8520   -5.2499    0.0000 H   0  0  0  0  0  0  0  0  0  0  0  0
   -0.2563   -6.7783    0.0000 H   0  0  0  0  0  0  0  0  0  0  0  0
   -1.3971   -6.2455    0.0000 H   0  0  0  0  0  0  0  0  0  0  0  0
    1.4409   -7.2551    0.0000 H   0  0  0  0  0  0  0  0  0  0  0  0
    0.2199   -6.9477    0.0000 H   0  0  0  0  0  0  0  0  0  0  0  0
    3.1977   -7.4020    0.0000 H   0  0  0  0  0  0  0  0  0  0  0  0
    1.9405   -7.3313    0.0000 H   0  0  0  0  0  0  0  0  0  0  0  0
    5.0987   -7.1060    0.0000 H   0  0  0  0  0  0  0  0  0  0  0  0
    3.7027   -7.3822    0.0000 H   0  0  0  0  0  0  0  0  0  0  0  0
    6.0835   -7.0293    0.0000 H   0  0  0  0  0  0  0  0  0  0  0  0
   -5.6507   -4.1108    0.0000 H   0  0  0  0  0  0  0  0  0  0  0  0
   -4.2042   -5.1667    0.0000 H   0  0  0  0  0  0  0  0  0  0  0  0
   -2.9685   -4.4718    0.0000 H   0  0  0  0  0  0  0  0  0  0  0  0
   -6.1027   -0.0054    0.0000 H   0  0  0  0  0  0  0  0  0  0  0  0
   -5.9618    2.8883    0.0000 H   0  0  0  0  0  0  0  0  0  0  0  0
   -7.1556    0.1100    0.0000 H   0  0  0  0  0  0  0  0  0  0  0  0
   -5.3940   -0.1745    0.0000 H   0  0  0  0  0  0  0  0  0  0  0  0
   -8.8815    2.1041    0.0000 H   0  0  0  0  0  0  0  0  0  0  0  0
   -7.8789    0.4568    0.0000 H   0  0  0  0  0  0  0  0  0  0  0  0
   -6.9531    4.7985    0.0000 H   0  0  0  0  0  0  0  0  0  0  0  0
   -5.9505    3.1513    0.0000 H   0  0  0  0  0  0  0  0  0  0  0  0
  -10.0307    3.3173    0.0000 H   0  0  0  0  0  0  0  0  0  0  0  0
  -10.1349    7.8161    0.0000 H   0  0  0  0  0  0  0  0  0  0  0  0
  -11.3815    5.5366    0.0000 H   0  0  0  0  0  0  0  0  0  0  0  0
   -7.7201    7.8608    0.0000 H   0  0  0  0  0  0  0  0  0  0  0  0
   -6.4000    5.3599    0.0000 H   0  0  0  0  0  0  0  0  0  0  0  0
   -5.6952    5.0822    0.0000 H   0  0  0  0  0  0  0  0  0  0  0  0
   -4.1452    7.5527    0.0000 H   0  0  0  0  0  0  0  0  0  0  0  0
   -6.4334    5.7511    0.0000 H   0  0  0  0  0  0  0  0  0  0  0  0
   -5.1530    4.7361    0.0000 H   0  0  0  0  0  0  0  0  0  0  0  0
   -7.2137    7.7656    0.0000 H   0  0  0  0  0  0  0  0  0  0  0  0
   -2.4359    9.4518    0.0000 H   0  0  0  0  0  0  0  0  0  0  0  0
    0.0752   10.5615    0.0000 H   0  0  0  0  0  0  0  0  0  0  0  0
   -2.7683   10.4575    0.0000 H   0  0  0  0  0  0  0  0  0  0  0  0
   -2.2953    8.7369    0.0000 H   0  0  0  0  0  0  0  0  0  0  0  0
    1.4235   11.3836    0.0000 H   0  0  0  0  0  0  0  0  0  0  0  0
    1.5461   14.2182    0.0000 H   0  0  0  0  0  0  0  0  0  0  0  0
   -0.9373   15.9013    0.0000 H   0  0  0  0  0  0  0  0  0  0  0  0
   -3.6366   14.5922    0.0000 H   0  0  0  0  0  0  0  0  0  0  0  0
   -3.8525   11.5999    0.0000 H   0  0  0  0  0  0  0  0  0  0  0  0
    2.5399   11.2350    0.0000 H   0  0  0  0  0  0  0  0  0  0  0  0
    5.2523   10.8110    0.0000 H   0  0  0  0  0  0  0  0  0  0  0  0
    2.8040   12.2608    0.0000 H   0  0  0  0  0  0  0  0  0  0  0  0
    2.2717   10.5576    0.0000 H   0  0  0  0  0  0  0  0  0  0  0  0
    6.8310   10.7736    0.0000 H   0  0  0  0  0  0  0  0  0  0  0  0
    8.4667   13.0919    0.0000 H   0  0  0  0  0  0  0  0  0  0  0  0
    7.2875   15.8504    0.0000 H   0  0  0  0  0  0  0  0  0  0  0  0
    4.3090   16.2085    0.0000 H   0  0  0  0  0  0  0  0  0  0  0  0
    2.5096   13.8080    0.0000 H   0  0  0  0  0  0  0  0  0  0  0  0
    7.6899   10.0450    0.0000 H   0  0  0  0  0  0  0  0  0  0  0  0
    9.7425    8.2218    0.0000 H   0  0  0  0  0  0  0  0  0  0  0  0
    9.9618    9.7911    0.0000 H   0  0  0  0  0  0  0  0  0  0  0  0
    8.4667   10.7652    0.0000 H   0  0  0  0  0  0  0  0  0  0  0  0
    7.0981    9.6202    0.0000 H   0  0  0  0  0  0  0  0  0  0  0  0
   11.3790    6.2596    0.0000 H   0  0  0  0  0  0  0  0  0  0  0  0
   12.0591    3.4434    0.0000 H   0  0  0  0  0  0  0  0  0  0  0  0
   12.2569    6.5253    0.0000 H   0  0  0  0  0  0  0  0  0  0  0  0
   10.6514    6.2222    0.0000 H   0  0  0  0  0  0  0  0  0  0  0  0
   12.9363    3.3335    0.0000 H   0  0  0  0  0  0  0  0  0  0  0  0
   15.6563    5.7883    0.0000 H   0  0  0  0  0  0  0  0  0  0  0  0
   14.7321    7.3147    0.0000 H   0  0  0  0  0  0  0  0  0  0  0  0
   13.0021    6.8773    0.0000 H   0  0  0  0  0  0  0  0  0  0  0  0
   15.8241    4.5459    0.0000 H   0  0  0  0  0  0  0  0  0  0  0  0
   15.3379    2.8290    0.0000 H   0  0  0  0  0  0  0  0  0  0  0  0
   13.4111    2.9067    0.0000 H   0  0  0  0  0  0  0  0  0  0  0  0
   12.4359    1.0807    0.0000 H   0  0  0  0  0  0  0  0  0  0  0  0
   11.5683   -1.8822    0.0000 H   0  0  0  0  0  0  0  0  0  0  0  0
   10.8297   -3.0986    0.0000 H   0  0  0  0  0  0  0  0  0  0  0  0
   10.6502   -3.5941    0.0000 H   0  0  0  0  0  0  0  0  0  0  0  0
    9.9181   -4.4023    0.0000 H   0  0  0  0  0  0  0  0  0  0  0  0
    9.5662   -4.7650    0.0000 H   0  0  0  0  0  0  0  0  0  0  0  0
    8.4284   -5.6198    0.0000 H   0  0  0  0  0  0  0  0  0  0  0  0
    7.7137   -6.3017    0.0000 H   0  0  0  0  0  0  0  0  0  0  0  0
   11.5432   -3.0664    0.0000 H   0  0  0  0  0  0  0  0  0  0  0  0
   12.8340   -2.4018    0.0000 H   0  0  0  0  0  0  0  0  0  0  0  0
   12.7957   -0.5990    0.0000 H   0  0  0  0  0  0  0  0  0  0  0  0
   12.9391   -2.5767    0.0000 H   0  0  0  0  0  0  0  0  0  0  0  0
   13.9649    0.6558    0.0000 H   0  0  0  0  0  0  0  0  0  0  0  0
   16.6884    1.3836    0.0000 H   0  0  0  0  0  0  0  0  0  0  0  0
   14.7672    1.2168    0.0000 H   0  0  0  0  0  0  0  0  0  0  0  0
   13.8196   -3.6014    0.0000 H   0  0  0  0  0  0  0  0  0  0  0  0
   17.1899   -3.0473    0.0000 H   0  0  0  0  0  0  0  0  0  0  0  0
   19.1820   -5.0419    0.0000 H   0  0  0  0  0  0  0  0  0  0  0  0
   18.0769   -3.4616    0.0000 H   0  0  0  0  0  0  0  0  0  0  0  0
   17.4284   -7.8532    0.0000 H   0  0  0  0  0  0  0  0  0  0  0  0
   16.4365   -6.9900    0.0000 H   0  0  0  0  0  0  0  0  0  0  0  0
   20.6654   -9.1686    0.0000 H   0  0  0  0  0  0  0  0  0  0  0  0
   18.4886   -9.8400    0.0000 H   0  0  0  0  0  0  0  0  0  0  0  0
   18.4993   -6.7603    0.0000 H   0  0  0  0  0  0  0  0  0  0  0  0
   15.2513   -7.5993    0.0000 H   0  0  0  0  0  0  0  0  0  0  0  0
   14.8265   -8.2796    0.0000 H   0  0  0  0  0  0  0  0  0  0  0  0
   15.6773  -12.1461    0.0000 H   0  0  0  0  0  0  0  0  0  0  0  0
   17.4423  -11.8834    0.0000 H   0  0  0  0  0  0  0  0  0  0  0  0
   17.8713  -10.6404    0.0000 H   0  0  0  0  0  0  0  0  0  0  0  0
   13.6588  -11.5500    0.0000 H   0  0  0  0  0  0  0  0  0  0  0  0
   15.4427  -11.5044    0.0000 H   0  0  0  0  0  0  0  0  0  0  0  0
   11.9316  -10.5466    0.0000 H   0  0  0  0  0  0  0  0  0  0  0  0
   12.1009   -8.6257    0.0000 H   0  0  0  0  0  0  0  0  0  0  0  0
   13.8659   -8.3630    0.0000 H   0  0  0  0  0  0  0  0  0  0  0  0
  1  2  1  0
  2  3  1  0
  3  4  1  0
  4  5  1  0
  5  6  1  0
  6  7  1  0
  7  8  1  0
  8  9  1  0
  9 10  1  0
 10 11  1  0
 11 12  1  0
 12 13  2  0
 12 14  1  0
 14 15  1  0
 15 16  1  0
 16 17  1  0
 17 18  1  0
 17 19  2  0
 15 20  1  0
 20 21  2  0
 20 22  1  0
 22 23  1  0
 23 24  1  0
 24 25  1  0
 25 26  1  0
 26 27  1  0
 26 28  2  0
 23 29  1  0
 29 30  2  0
 29 31  1  0
 31 32  1  0
 32 33  1  0
 33 34  1  0
 34 35  1  0
 34 36  1  0
 32 37  1  0
 37 38  2  0
 37 39  1  0
 40 39  1  1
 40 41  1  0
 41 42  1  0
 42 43  1  0
 43 44  1  0
 44 45  1  0
 45 46  1  0
 46 47  1  0
 40 48  1  0
 40 49  1  0
 49 50  2  0
 49 51  1  0
 51 52  1  0
 52 53  1  0
 53 54  1  0
 54 55  1  0
 55 56  1  0
 56 57  1  0
 57 58  2  3
 57 59  1  0
 52 60  1  0
 60 61  2  0
 60 62  1  0
 62 63  1  0
 63 64  1  0
 64 65  1  0
 63 66  1  0
 66 67  2  0
 66 68  1  0
 68 69  1  0
 69 70  1  0
 70 71  1  0
 71 72  2  0
 72 73  1  0
 73 74  2  0
 74 75  1  0
 75 76  2  0
 69 77  1  0
 77 78  2  0
 77 79  1  0
 79 80  1  0
 80 81  1  0
 81 82  1  0
 82 83  2  0
 83 84  1  0
 84 85  2  0
 85 86  1  0
 86 87  2  0
 80 88  1  0
 88 89  2  0
 88 90  1  0
 90 91  1  0
 91 92  1  0
 91 93  1  0
 93 94  2  0
 93 95  1  0
 95 96  1  0
 96 97  1  0
 97 98  1  0
 98 99  1  0
 98100  1  0
 96101  1  0
101102  2  0
101103  1  0
103104  1  0
104105  1  0
105106  1  0
106107  1  0
107108  1  0
104109  1  0
104110  1  6
110111  2  0
110112  1  0
112113  1  0
113114  1  0
114115  1  0
115116  2  0
115117  1  0
113118  1  0
118119  2  0
118120  1  0
120121  1  0
121122  1  0
122123  1  0
123124  1  0
124125  1  0
124126  2  0
121127  1  0
127128  2  0
127129  1  0
129130  1  0
130131  1  0
131132  1  0
131133  1  0
133134  1  0
130135  1  0
135136  2  0
135137  1  0
 76 71  1  0
 87 82  1  0
 47108  2  0
  1138  1  0
  1139  1  0
  2140  1  0
  2141  1  0
  3142  1  0
  3143  1  0
  5144  1  0
  5145  1  0
  7146  1  0
  7147  1  0
  8148  1  0
  8149  1  0
 10150  1  0
 10151  1  0
 11152  1  0
 11153  1  0
 14154  1  0
 15155  1  6
 16156  1  0
 16157  1  0
 18158  1  0
 18159  1  0
 22160  1  0
 23161  1  6
 24162  1  0
 24163  1  0
 25164  1  0
 25165  1  0
 27166  1  0
 27167  1  0
 31168  1  0
 32169  1  1
 33170  1  0
 33171  1  0
 34172  1  0
 35173  1  0
 35174  1  0
 35175  1  0
 36176  1  0
 36177  1  0
 36178  1  0
 39179  1  0
 41180  1  0
 41181  1  0
 42182  1  0
 42183  1  0
 43184  1  0
 43185  1  0
 44186  1  0
 44187  1  0
 45188  1  0
 45189  1  0
 46190  1  0
 46191  1  0
 47192  1  0
 48193  1  0
 48194  1  0
 48195  1  0
 51196  1  0
 52197  1  1
 53198  1  0
 53199  1  0
 54200  1  0
 54201  1  0
 55202  1  0
 55203  1  0
 56204  1  0
 58205  1  0
 58206  1  0
 59207  1  0
 59208  1  0
 62209  1  0
 63210  1  1
 64211  1  0
 64212  1  0
 65213  1  0
 68214  1  0
 69215  1  1
 70216  1  0
 70217  1  0
 72218  1  0
 73219  1  0
 74220  1  0
 75221  1  0
 76222  1  0
 79223  1  0
 80224  1  1
 81225  1  0
 81226  1  0
 83227  1  0
 84228  1  0
 85229  1  0
 86230  1  0
 87231  1  0
 90232  1  0
 91233  1  1
 92234  1  0
 92235  1  0
 92236  1  0
 95237  1  0
 96238  1  1
 97239  1  0
 97240  1  0
 98241  1  0
 99242  1  0
 99243  1  0
 99244  1  0
100245  1  0
100246  1  0
100247  1  0
103248  1  0
105249  1  0
105250  1  0
106251  1  0
106252  1  0
107253  1  0
107254  1  0
108255  1  0
109256  1  0
109257  1  0
109258  1  0
112259  1  0
113260  1  1
114261  1  0
114262  1  0
120263  1  0
121264  1  1
122265  1  0
122266  1  0
123267  1  0
123268  1  0
125269  1  0
125270  1  0
129271  1  0
130272  1  6
131273  1  6
132274  1  0
132275  1  0
132276  1  0
133277  1  0
133278  1  0
134279  1  0
134280  1  0
134281  1  0
M  CHG  3  58   1 117  -1 137  -1
M  END
