
     RDKit          2D

230238  0  0  0  0  0  0  0  0999 V2000
  -19.8831    0.3434    0.0000 C   0  0  0  0  0  0  0  0  0  0  0  0
  -21.1295   -0.4912    0.0000 N   0  0  0  0  0  0  0  0  0  0  0  0
  -22.4755    0.1709    0.0000 C   0  0  0  0  0  0  0  0  0  0  0  0
  -22.5751    1.6676    0.0000 C   0  0  0  0  0  0  0  0  0  0  0  0
  -23.9211    2.3296    0.0000 C   0  0  0  0  0  0  0  0  0  0  0  0
  -25.1674    1.4950    0.0000 C   0  0  0  0  0  0  0  0  0  0  0  0
  -25.0678   -0.0017    0.0000 C   0  0  0  0  0  0  0  0  0  0  0  0
  -23.7218   -0.6638    0.0000 C   0  0  0  0  0  0  0  0  0  0  0  0
  -26.4604   -0.5590    0.0000 C   0  0  0  0  0  0  0  0  0  0  0  0
  -27.4208    0.5933    0.0000 O   0  0  0  0  0  0  0  0  0  0  0  0
  -26.6216    1.8627    0.0000 C   0  0  0  0  0  0  0  0  0  0  0  0
  -27.1789    3.2554    0.0000 O   0  0  0  0  0  0  0  0  0  0  0  0
  -27.9037   -0.9676    0.0000 C   0  0  0  0  0  0  0  0  0  0  0  0
  -28.2715   -2.4218    0.0000 C   0  0  0  0  0  0  0  0  0  0  0  0
  -29.7147   -2.8304    0.0000 C   0  0  0  0  0  0  0  0  0  0  0  0
  -30.7902   -1.7848    0.0000 C   0  0  0  0  0  0  0  0  0  0  0  0
  -30.4225   -0.3306    0.0000 C   0  0  0  0  0  0  0  0  0  0  0  0
  -28.9792    0.0780    0.0000 C   0  0  0  0  0  0  0  0  0  0  0  0
  -32.2335   -2.1935    0.0000 O   0  0  0  0  0  0  0  0  0  0  0  0
  -27.1959   -3.4674    0.0000 O   0  0  0  0  0  0  0  0  0  0  0  0
  -25.7527   -3.0588    0.0000 C   0  0  0  0  0  0  0  0  0  0  0  0
  -25.3849   -1.6045    0.0000 C   0  0  0  0  0  0  0  0  0  0  0  0
  -24.1133   -1.8745    0.0000 C   0  0  0  0  0  0  0  0  0  0  0  0
  -23.5397   -2.4322    0.0000 C   0  0  0  0  0  0  0  0  0  0  0  0
  -23.7358   -3.2078    0.0000 C   0  0  0  0  0  0  0  0  0  0  0  0
  -24.5055   -3.4257    0.0000 C   0  0  0  0  0  0  0  0  0  0  0  0
  -22.1584   -4.7413    0.0000 O   0  0  0  0  0  0  0  0  0  0  0  0
  -19.9827    1.8401    0.0000 S   0  0  0  0  0  0  0  0  0  0  0  0
  -18.5371   -0.3186    0.0000 N   0  0  0  0  0  0  0  0  0  0  0  0
  -17.2908    0.5160    0.0000 C   0  0  0  0  0  0  0  0  0  0  0  0
  -15.9448   -0.1461    0.0000 C   0  0  0  0  0  0  0  0  0  0  0  0
  -14.6984    0.6886    0.0000 C   0  0  0  0  0  0  0  0  0  0  0  0
  -14.7981    2.1852    0.0000 O   0  0  0  0  0  0  0  0  0  0  0  0
  -13.3524    0.0265    0.0000 N   0  0  0  0  0  0  0  0  0  0  0  0
  -12.1061    0.8611    0.0000 C   0  0  0  0  0  0  0  0  0  0  0  0
  -11.2204    2.0717    0.0000 C   0  0  0  0  0  0  0  0  0  0  0  0
   -9.7291    1.9099    0.0000 C   0  0  0  0  0  0  0  0  0  0  0  0
   -8.8434    3.1205    0.0000 C   0  0  0  0  0  0  0  0  0  0  0  0
   -7.3435    3.1417    0.0000 N   0  0  0  0  0  0  0  0  0  0  0  0
   -9.4489    4.4928    0.0000 O   0  0  0  0  0  0  0  0  0  0  0  0
  -10.7601    0.1991    0.0000 C   0  0  0  0  0  0  0  0  0  0  0  0
  -10.6605   -1.2976    0.0000 O   0  0  0  0  0  0  0  0  0  0  0  0
   -9.5138    1.0337    0.0000 N   0  0  0  0  0  0  0  0  0  0  0  0
   -8.1678    0.3716    0.0000 C   0  0  0  0  0  0  0  0  0  0  0  0
   -7.1294   -0.7109    0.0000 C   0  0  0  0  0  0  0  0  0  0  0  0
   -5.8742   -1.5321    0.0000 O   0  0  0  0  0  0  0  0  0  0  0  0
   -7.5477   -2.1514    0.0000 C   0  0  0  0  0  0  0  0  0  0  0  0
   -6.9214    1.2062    0.0000 C   0  0  0  0  0  0  0  0  0  0  0  0
   -6.8605    2.2980    0.0000 O   0  0  0  0  0  0  0  0  0  0  0  0
   -5.5754    0.5442    0.0000 N   0  0  0  0  0  0  0  0  0  0  0  0
   -4.3291    1.3788    0.0000 C   0  0  0  0  0  0  0  0  0  0  0  0
   -3.4433    2.5894    0.0000 C   0  0  0  0  0  0  0  0  0  0  0  0
   -1.9521    2.4276    0.0000 C   0  0  0  0  0  0  0  0  0  0  0  0
   -1.3466    1.0552    0.0000 C   0  0  0  0  0  0  0  0  0  0  0  0
    0.1447    0.8935    0.0000 C   0  0  0  0  0  0  0  0  0  0  0  0
    1.0304    2.1040    0.0000 C   0  0  0  0  0  0  0  0  0  0  0  0
    0.4249    3.4764    0.0000 C   0  0  0  0  0  0  0  0  0  0  0  0
   -1.0664    3.6382    0.0000 C   0  0  0  0  0  0  0  0  0  0  0  0
   -2.9831    0.7167    0.0000 C   0  0  0  0  0  0  0  0  0  0  0  0
   -3.0666   -0.7809    0.0000 O   0  0  0  0  0  0  0  0  0  0  0  0
   -1.7367    1.5514    0.0000 N   0  0  0  0  0  0  0  0  0  0  0  0
   -0.3908    0.8893    0.0000 C   0  0  0  0  0  0  0  0  0  0  0  0
    0.6476   -0.1932    0.0000 C   0  0  0  0  0  0  0  0  0  0  0  0
    0.2293   -1.6337    0.0000 O   0  0  0  0  0  0  0  0  0  0  0  0
    0.8556    1.7239    0.0000 C   0  0  0  0  0  0  0  0  0  0  0  0
    1.1211    3.2002    0.0000 O   0  0  0  0  0  0  0  0  0  0  0  0
    2.2016    1.0619    0.0000 N   0  0  0  0  0  0  0  0  0  0  0  0
    3.4479    1.8965    0.0000 C   0  0  0  0  0  0  0  0  0  0  0  0
    4.3337    3.1071    0.0000 C   0  0  0  0  0  0  0  0  0  0  0  0
    5.8249    2.9453    0.0000 C   0  0  0  0  0  0  0  0  0  0  0  0
    6.3914    4.3342    0.0000 O   0  0  0  0  0  0  0  0  0  0  0  0
    6.5932    1.6570    0.0000 O   0  0  0  0  0  0  0  0  0  0  0  0
    4.7939    1.2344    0.0000 C   0  0  0  0  0  0  0  0  0  0  0  0
    4.7104   -0.2632    0.0000 O   0  0  0  0  0  0  0  0  0  0  0  0
    6.0403    2.0691    0.0000 N   0  0  0  0  0  0  0  0  0  0  0  0
    7.3863    1.4070    0.0000 C   0  0  0  0  0  0  0  0  0  0  0  0
    7.4611    2.9051    0.0000 C   0  0  0  0  0  0  0  0  0  0  0  0
    8.0437    4.2873    0.0000 C   0  0  0  0  0  0  0  0  0  0  0  0
    9.0640    5.3869    0.0000 C   0  0  0  0  0  0  0  0  0  0  0  0
   10.3988    6.0712    0.0000 C   0  0  0  0  0  0  0  0  0  0  0  0
    6.2452    0.4333    0.0000 C   0  0  0  0  0  0  0  0  0  0  0  0
    7.8284   -0.0264    0.0000 C   0  0  0  0  0  0  0  0  0  0  0  0
    6.5869   -0.8683    0.0000 O   0  0  0  0  0  0  0  0  0  0  0  0
    8.7340   -1.2221    0.0000 N   0  0  0  0  0  0  0  0  0  0  0  0
    9.9941   -2.0359    0.0000 C   0  0  0  0  0  0  0  0  0  0  0  0
    8.7477   -2.8706    0.0000 C   0  0  0  0  0  0  0  0  0  0  0  0
    8.8473   -4.3672    0.0000 C   0  0  0  0  0  0  0  0  0  0  0  0
    7.6951   -5.3276    0.0000 C   0  0  0  0  0  0  0  0  0  0  0  0
    8.2523   -6.7202    0.0000 N   0  0  0  0  0  0  0  0  0  0  0  0
    9.7490   -6.6206    0.0000 C   0  0  0  0  0  0  0  0  0  0  0  0
   10.8245   -7.6662    0.0000 C   0  0  0  0  0  0  0  0  0  0  0  0
   12.2678   -7.2576    0.0000 C   0  0  0  0  0  0  0  0  0  0  0  0
   12.6355   -5.8033    0.0000 C   0  0  0  0  0  0  0  0  0  0  0  0
   11.5600   -4.7577    0.0000 C   0  0  0  0  0  0  0  0  0  0  0  0
   10.1168   -5.1664    0.0000 C   0  0  0  0  0  0  0  0  0  0  0  0
   11.4565   -2.3697    0.0000 C   0  0  0  0  0  0  0  0  0  0  0  0
   11.5648   -3.8658    0.0000 O   0  0  0  0  0  0  0  0  0  0  0  0
   12.9448   -2.1833    0.0000 N   0  0  0  0  0  0  0  0  0  0  0  0
   14.2796   -1.4990    0.0000 C   0  0  0  0  0  0  0  0  0  0  0  0
   14.3793   -2.9957    0.0000 C   0  0  0  0  0  0  0  0  0  0  0  0
   15.7253   -3.6577    0.0000 C   0  0  0  0  0  0  0  0  0  0  0  0
   15.8249   -5.1544    0.0000 C   0  0  0  0  0  0  0  0  0  0  0  0
   17.1709   -5.8165    0.0000 C   0  0  0  0  0  0  0  0  0  0  0  0
   17.2705   -7.3132    0.0000 N   0  0  0  0  0  0  0  0  0  0  0  0
   15.2999   -0.3994    0.0000 C   0  0  0  0  0  0  0  0  0  0  0  0
   16.5599   -1.2133    0.0000 O   0  0  0  0  0  0  0  0  0  0  0  0
   15.8826    0.9828    0.0000 N   0  0  0  0  0  0  0  0  0  0  0  0
   15.9574    2.4809    0.0000 C   0  0  0  0  0  0  0  0  0  0  0  0
   15.5153    3.9143    0.0000 C   0  0  0  0  0  0  0  0  0  0  0  0
   14.6096    5.1100    0.0000 C   0  0  0  0  0  0  0  0  0  0  0  0
   13.3496    5.9239    0.0000 C   0  0  0  0  0  0  0  0  0  0  0  0
   11.8872    6.2577    0.0000 C   0  0  0  0  0  0  0  0  0  0  0  0
   17.2086    3.3082    0.0000 C   0  0  0  0  0  0  0  0  0  0  0  0
   17.3034    1.8189    0.0000 C   0  0  0  0  0  0  0  0  0  0  0  0
   17.5847    0.3455    0.0000 O   0  0  0  0  0  0  0  0  0  0  0  0
   18.5497    2.6535    0.0000 N   0  0  0  0  0  0  0  0  0  0  0  0
   19.8957    1.9914    0.0000 C   0  0  0  0  0  0  0  0  0  0  0  0
   20.9341    0.9089    0.0000 C   0  0  0  0  0  0  0  0  0  0  0  0
   20.5158   -0.5316    0.0000 C   0  0  0  0  0  0  0  0  0  0  0  0
   21.5542   -1.6141    0.0000 C   0  0  0  0  0  0  0  0  0  0  0  0
   19.6301   -1.7421    0.0000 C   0  0  0  0  0  0  0  0  0  0  0  0
   21.1421    2.8260    0.0000 C   0  0  0  0  0  0  0  0  0  0  0  0
   22.5587    2.3330    0.0000 O   0  0  0  0  0  0  0  0  0  0  0  0
   21.0425    4.3227    0.0000 O   0  0  0  0  0  0  0  0  0  0  0  0
  -20.8481   -1.9646    0.0000 H   0  0  0  0  0  0  0  0  0  0  0  0
  -21.3287    2.5022    0.0000 H   0  0  0  0  0  0  0  0  0  0  0  0
  -24.0207    3.8263    0.0000 H   0  0  0  0  0  0  0  0  0  0  0  0
  -23.2630   -2.0919    0.0000 H   0  0  0  0  0  0  0  0  0  0  0  0
  -30.0825   -4.2847    0.0000 H   0  0  0  0  0  0  0  0  0  0  0  0
  -31.4980    0.7150    0.0000 H   0  0  0  0  0  0  0  0  0  0  0  0
  -28.6115    1.5322    0.0000 H   0  0  0  0  0  0  0  0  0  0  0  0
  -33.3090   -1.1479    0.0000 H   0  0  0  0  0  0  0  0  0  0  0  0
  -23.5739    0.2583    0.0000 H   0  0  0  0  0  0  0  0  0  0  0  0
  -21.3838   -2.0118    0.0000 H   0  0  0  0  0  0  0  0  0  0  0  0
  -25.0449   -5.5586    0.0000 H   0  0  0  0  0  0  0  0  0  0  0  0
  -22.5261   -6.1955    0.0000 H   0  0  0  0  0  0  0  0  0  0  0  0
  -18.4375   -1.8153    0.0000 H   0  0  0  0  0  0  0  0  0  0  0  0
  -16.4050    1.7266    0.0000 H   0  0  0  0  0  0  0  0  0  0  0  0
  -18.3291    1.5985    0.0000 H   0  0  0  0  0  0  0  0  0  0  0  0
  -14.9064   -1.2286    0.0000 H   0  0  0  0  0  0  0  0  0  0  0  0
  -16.8305   -1.3566    0.0000 H   0  0  0  0  0  0  0  0  0  0  0  0
  -13.2528   -1.4702    0.0000 H   0  0  0  0  0  0  0  0  0  0  0  0
  -13.1445    1.9436    0.0000 H   0  0  0  0  0  0  0  0  0  0  0  0
  -10.8021    3.5122    0.0000 H   0  0  0  0  0  0  0  0  0  0  0  0
  -12.5663    2.7337    0.0000 H   0  0  0  0  0  0  0  0  0  0  0  0
   -8.3831    1.2478    0.0000 H   0  0  0  0  0  0  0  0  0  0  0  0
   -9.4220    0.4417    0.0000 H   0  0  0  0  0  0  0  0  0  0  0  0
   -6.4664    4.1693    0.0000 H   0  0  0  0  0  0  0  0  0  0  0  0
   -6.3880    1.7770    0.0000 H   0  0  0  0  0  0  0  0  0  0  0  0
   -9.2483    2.5100    0.0000 H   0  0  0  0  0  0  0  0  0  0  0  0
   -9.1945   -0.7220    0.0000 H   0  0  0  0  0  0  0  0  0  0  0  0
   -5.9771    0.2494    0.0000 H   0  0  0  0  0  0  0  0  0  0  0  0
   -5.5021   -2.8463    0.0000 H   0  0  0  0  0  0  0  0  0  0  0  0
   -6.6490   -3.3524    0.0000 H   0  0  0  0  0  0  0  0  0  0  0  0
   -8.4334   -3.3619    0.0000 H   0  0  0  0  0  0  0  0  0  0  0  0
   -8.9643   -1.6583    0.0000 H   0  0  0  0  0  0  0  0  0  0  0  0
   -5.2941   -0.9292    0.0000 H   0  0  0  0  0  0  0  0  0  0  0  0
   -5.3675    2.4613    0.0000 H   0  0  0  0  0  0  0  0  0  0  0  0
   -3.0251    4.0299    0.0000 H   0  0  0  0  0  0  0  0  0  0  0  0
   -4.7893    3.2514    0.0000 H   0  0  0  0  0  0  0  0  0  0  0  0
   -2.0781   -0.2543    0.0000 H   0  0  0  0  0  0  0  0  0  0  0  0
    1.0643   -0.2916    0.0000 H   0  0  0  0  0  0  0  0  0  0  0  0
    2.5217    1.9423    0.0000 H   0  0  0  0  0  0  0  0  0  0  0  0
    1.3106    4.6870    0.0000 H   0  0  0  0  0  0  0  0  0  0  0  0
   -1.6719    5.0105    0.0000 H   0  0  0  0  0  0  0  0  0  0  0  0
   -1.4712    3.0277    0.0000 H   0  0  0  0  0  0  0  0  0  0  0  0
   -1.2765   -0.3213    0.0000 H   0  0  0  0  0  0  0  0  0  0  0  0
    1.9029   -1.0144    0.0000 H   0  0  0  0  0  0  0  0  0  0  0  0
    1.8000    0.7671    0.0000 H   0  0  0  0  0  0  0  0  0  0  0  0
    1.2677   -2.7162    0.0000 H   0  0  0  0  0  0  0  0  0  0  0  0
    2.4829   -0.4115    0.0000 H   0  0  0  0  0  0  0  0  0  0  0  0
    2.4096    2.9790    0.0000 H   0  0  0  0  0  0  0  0  0  0  0  0
    4.7519    4.5476    0.0000 H   0  0  0  0  0  0  0  0  0  0  0  0
    2.9877    3.7691    0.0000 H   0  0  0  0  0  0  0  0  0  0  0  0
    6.1238    3.5667    0.0000 H   0  0  0  0  0  0  0  0  0  0  0  0
    6.5624    4.1061    0.0000 H   0  0  0  0  0  0  0  0  0  0  0  0
    6.0558    2.3804    0.0000 H   0  0  0  0  0  0  0  0  0  0  0  0
    7.2755    5.5756    0.0000 H   0  0  0  0  0  0  0  0  0  0  0  0
    6.5854    4.6382    0.0000 H   0  0  0  0  0  0  0  0  0  0  0  0
    8.9644    6.8836    0.0000 H   0  0  0  0  0  0  0  0  0  0  0  0
    7.7219    6.0568    0.0000 H   0  0  0  0  0  0  0  0  0  0  0  0
    9.9567    7.5045    0.0000 H   0  0  0  0  0  0  0  0  0  0  0  0
    6.3361   -1.0639    0.0000 H   0  0  0  0  0  0  0  0  0  0  0  0
    4.9144   -0.2588    0.0000 H   0  0  0  0  0  0  0  0  0  0  0  0
    5.0716    1.3675    0.0000 H   0  0  0  0  0  0  0  0  0  0  0  0
    7.7138   -2.3216    0.0000 H   0  0  0  0  0  0  0  0  0  0  0  0
   10.2668   -3.5109    0.0000 H   0  0  0  0  0  0  0  0  0  0  0  0
    7.2911   -3.2286    0.0000 H   0  0  0  0  0  0  0  0  0  0  0  0
    7.8281   -1.6855    0.0000 H   0  0  0  0  0  0  0  0  0  0  0  0
    6.2408   -4.9598    0.0000 H   0  0  0  0  0  0  0  0  0  0  0  0
    7.4532   -7.9896    0.0000 H   0  0  0  0  0  0  0  0  0  0  0  0
   10.4568   -9.1204    0.0000 H   0  0  0  0  0  0  0  0  0  0  0  0
   13.3433   -8.3031    0.0000 H   0  0  0  0  0  0  0  0  0  0  0  0
   14.0182   -5.2218    0.0000 H   0  0  0  0  0  0  0  0  0  0  0  0
   12.1023   -3.3592    0.0000 H   0  0  0  0  0  0  0  0  0  0  0  0
   13.3869   -3.6166    0.0000 H   0  0  0  0  0  0  0  0  0  0  0  0
   15.7440   -1.8242    0.0000 H   0  0  0  0  0  0  0  0  0  0  0  0
   13.7885   -4.3744    0.0000 H   0  0  0  0  0  0  0  0  0  0  0  0
   12.8932   -3.1995    0.0000 H   0  0  0  0  0  0  0  0  0  0  0  0
   17.2251   -3.6365    0.0000 H   0  0  0  0  0  0  0  0  0  0  0  0
   16.3160   -2.2789    0.0000 H   0  0  0  0  0  0  0  0  0  0  0  0
   15.2341   -6.5332    0.0000 H   0  0  0  0  0  0  0  0  0  0  0  0
   14.3336   -4.9926    0.0000 H   0  0  0  0  0  0  0  0  0  0  0  0
   18.6621   -5.9783    0.0000 H   0  0  0  0  0  0  0  0  0  0  0  0
   17.7616   -4.4377    0.0000 H   0  0  0  0  0  0  0  0  0  0  0  0
   18.6165   -7.9752    0.0000 H   0  0  0  0  0  0  0  0  0  0  0  0
   16.8522   -8.7537    0.0000 H   0  0  0  0  0  0  0  0  0  0  0  0
   15.7706   -7.3344    0.0000 H   0  0  0  0  0  0  0  0  0  0  0  0
   17.2934    0.4732    0.0000 H   0  0  0  0  0  0  0  0  0  0  0  0
   17.0151    3.9355    0.0000 H   0  0  0  0  0  0  0  0  0  0  0  0
   16.2545    5.2195    0.0000 H   0  0  0  0  0  0  0  0  0  0  0  0
   16.0118    5.6429    0.0000 H   0  0  0  0  0  0  0  0  0  0  0  0
   15.0363    6.5480    0.0000 H   0  0  0  0  0  0  0  0  0  0  0  0
   14.4849    6.9042    0.0000 H   0  0  0  0  0  0  0  0  0  0  0  0
   13.0769    7.3989    0.0000 H   0  0  0  0  0  0  0  0  0  0  0  0
   11.9620    7.7558    0.0000 H   0  0  0  0  0  0  0  0  0  0  0  0
   18.5593    3.2792    0.0000 H   0  0  0  0  0  0  0  0  0  0  0  0
   17.6560    4.8257    0.0000 H   0  0  0  0  0  0  0  0  0  0  0  0
   16.4203    4.7903    0.0000 H   0  0  0  0  0  0  0  0  0  0  0  0
   18.6333    4.1512    0.0000 H   0  0  0  0  0  0  0  0  0  0  0  0
   18.8690    0.8978    0.0000 H   0  0  0  0  0  0  0  0  0  0  0  0
   22.3507    0.4159    0.0000 H   0  0  0  0  0  0  0  0  0  0  0  0
   21.9608    2.0025    0.0000 H   0  0  0  0  0  0  0  0  0  0  0  0
   19.0992   -0.0385    0.0000 H   0  0  0  0  0  0  0  0  0  0  0  0
   21.3146   -3.0948    0.0000 H   0  0  0  0  0  0  0  0  0  0  0  0
   22.9002   -2.2761    0.0000 H   0  0  0  0  0  0  0  0  0  0  0  0
   22.5809   -0.5205    0.0000 H   0  0  0  0  0  0  0  0  0  0  0  0
   20.0638   -3.1781    0.0000 H   0  0  0  0  0  0  0  0  0  0  0  0
   18.3837   -2.5768    0.0000 H   0  0  0  0  0  0  0  0  0  0  0  0
   18.5917   -0.6596    0.0000 H   0  0  0  0  0  0  0  0  0  0  0  0
  1  2  1  0
  2  3  1  0
  3  4  2  0
  4  5  1  0
  5  6  2  0
  6  7  1  0
  7  8  2  0
  7  9  1  0
  9 10  1  0
 10 11  1  0
 11 12  2  0
  9 13  1  0
 13 14  1  0
 14 15  2  0
 15 16  1  0
 16 17  2  0
 17 18  1  0
 16 19  1  0
 14 20  1  0
 20 21  1  0
 21 22  2  0
 22 23  1  0
 23 24  2  0
 24 25  1  0
 25 26  2  0
 25 27  1  0
  1 28  2  0
  1 29  1  0
 29 30  1  0
 30 31  1  0
 31 32  1  0
 32 33  2  0
 32 34  1  0
 34 35  1  0
 35 36  1  0
 36 37  1  0
 37 38  1  0
 38 39  1  0
 38 40  2  0
 35 41  1  0
 41 42  2  0
 41 43  1  0
 43 44  1  0
 44 45  1  0
 45 46  1  0
 45 47  1  0
 44 48  1  0
 48 49  2  0
 48 50  1  0
 50 51  1  0
 51 52  1  0
 52 53  1  0
 53 54  2  0
 54 55  1  0
 55 56  2  0
 56 57  1  0
 57 58  2  0
 51 59  1  0
 59 60  2  0
 59 61  1  0
 61 62  1  0
 62 63  1  0
 63 64  1  0
 62 65  1  0
 65 66  2  0
 65 67  1  0
 67 68  1  0
 68 69  1  0
 69 70  1  0
 70 71  2  0
 70 72  1  0
 68 73  1  0
 73 74  2  0
 73 75  1  0
 76 75  1  6
 76 77  1  0
 77 78  1  0
 78 79  1  0
 79 80  1  0
 76 81  1  0
 76 82  1  0
 82 83  2  0
 82 84  1  0
 84 85  1  0
 85 86  1  0
 86 87  1  0
 87 88  2  0
 88 89  1  0
 89 90  1  0
 90 91  2  0
 91 92  1  0
 92 93  2  0
 93 94  1  0
 94 95  2  0
 85 96  1  0
 96 97  2  0
 96 98  1  0
 98 99  1  0
 99100  1  0
100101  1  0
101102  1  0
102103  1  0
103104  1  0
 99105  1  0
105106  2  0
105107  1  0
107108  1  0
108109  1  0
109110  1  0
110111  1  0
111112  1  0
108113  1  0
108114  1  1
114115  2  0
114116  1  0
116117  1  0
117118  1  0
118119  1  0
119120  1  0
119121  1  0
117122  1  0
122123  2  0
122124  1  0
  8  3  1  0
 58 53  1  0
 95 87  1  0
 11  6  1  0
 95 90  1  0
 18 13  2  0
 80112  2  0
 22  9  1  0
 26 21  1  0
  2125  1  0
  4126  1  0
  5127  1  0
  8128  1  0
 15129  1  0
 17130  1  0
 18131  1  0
 19132  1  0
 23133  1  0
 24134  1  0
 26135  1  0
 27136  1  0
 29137  1  0
 30138  1  0
 30139  1  0
 31140  1  0
 31141  1  0
 34142  1  0
 35143  1  1
 36144  1  0
 36145  1  0
 37146  1  0
 37147  1  0
 39148  1  0
 39149  1  0
 43150  1  0
 44151  1  6
 45152  1  1
 46153  1  0
 47154  1  0
 47155  1  0
 47156  1  0
 50157  1  0
 51158  1  1
 52159  1  0
 52160  1  0
 54161  1  0
 55162  1  0
 56163  1  0
 57164  1  0
 58165  1  0
 61166  1  0
 62167  1  6
 63168  1  0
 63169  1  0
 64170  1  0
 67171  1  0
 68172  1  1
 69173  1  0
 69174  1  0
 75175  1  0
 77176  1  0
 77177  1  0
 78178  1  0
 78179  1  0
 79180  1  0
 79181  1  0
 80182  1  0
 81183  1  0
 81184  1  0
 81185  1  0
 84186  1  0
 85187  1  6
 86188  1  0
 86189  1  0
 88190  1  0
 89191  1  0
 91192  1  0
 92193  1  0
 93194  1  0
 94195  1  0
 98196  1  0
 99197  1  6
100198  1  0
100199  1  0
101200  1  0
101201  1  0
102202  1  0
102203  1  0
103204  1  0
103205  1  0
104206  1  0
104207  1  0
104208  1  0
107209  1  0
109210  1  0
109211  1  0
110212  1  0
110213  1  0
111214  1  0
111215  1  0
112216  1  0
113217  1  0
113218  1  0
113219  1  0
116220  1  0
117221  1  6
118222  1  0
118223  1  0
119224  1  0
120225  1  0
120226  1  0
120227  1  0
121228  1  0
121229  1  0
121230  1  0
M  CHG  3  72  -1 104   1 124  -1
M  END
