
     RDKit          2D

378384  0  0  0  0  0  0  0  0999 V2000
   35.4159   -0.9955    0.0000 C   0  0  0  0  0  0  0  0  0  0  0  0
   36.7209   -0.2561    0.0000 N   0  0  0  0  0  0  0  0  0  0  0  0
   38.0138   -1.0166    0.0000 C   0  0  0  0  0  0  0  0  0  0  0  0
   38.0017   -2.5165    0.0000 C   0  0  0  0  0  0  0  0  0  0  0  0
   39.2946   -3.2770    0.0000 C   0  0  0  0  0  0  0  0  0  0  0  0
   40.5997   -2.5376    0.0000 C   0  0  0  0  0  0  0  0  0  0  0  0
   40.6118   -1.0376    0.0000 C   0  0  0  0  0  0  0  0  0  0  0  0
   39.3189   -0.2771    0.0000 C   0  0  0  0  0  0  0  0  0  0  0  0
   42.0421   -0.5856    0.0000 C   0  0  0  0  0  0  0  0  0  0  0  0
   42.9139   -1.8063    0.0000 O   0  0  0  0  0  0  0  0  0  0  0  0
   42.0225   -3.0126    0.0000 C   0  0  0  0  0  0  0  0  0  0  0  0
   42.4744   -4.4429    0.0000 O   0  0  0  0  0  0  0  0  0  0  0  0
   43.5118   -0.2857    0.0000 C   0  0  0  0  0  0  0  0  0  0  0  0
   43.9869    1.1371    0.0000 C   0  0  0  0  0  0  0  0  0  0  0  0
   45.4566    1.4371    0.0000 C   0  0  0  0  0  0  0  0  0  0  0  0
   46.4512    0.3143    0.0000 C   0  0  0  0  0  0  0  0  0  0  0  0
   45.9762   -1.1085    0.0000 C   0  0  0  0  0  0  0  0  0  0  0  0
   44.5065   -1.4085    0.0000 C   0  0  0  0  0  0  0  0  0  0  0  0
   47.9209    0.6143    0.0000 O   0  0  0  0  0  0  0  0  0  0  0  0
   42.9922    2.2599    0.0000 O   0  0  0  0  0  0  0  0  0  0  0  0
   41.5225    1.9599    0.0000 C   0  0  0  0  0  0  0  0  0  0  0  0
   41.0475    0.5372    0.0000 C   0  0  0  0  0  0  0  0  0  0  0  0
   39.7995    0.9012    0.0000 C   0  0  0  0  0  0  0  0  0  0  0  0
   39.2690    1.5000    0.0000 C   0  0  0  0  0  0  0  0  0  0  0  0
   39.5224    2.2588    0.0000 C   0  0  0  0  0  0  0  0  0  0  0  0
   40.3062    2.4188    0.0000 C   0  0  0  0  0  0  0  0  0  0  0  0
   38.0636    3.9056    0.0000 O   0  0  0  0  0  0  0  0  0  0  0  0
   35.4037   -2.4955    0.0000 S   0  0  0  0  0  0  0  0  0  0  0  0
   34.1229   -0.2350    0.0000 N   0  0  0  0  0  0  0  0  0  0  0  0
   32.8179   -0.9745    0.0000 C   0  0  0  0  0  0  0  0  0  0  0  0
   31.5249   -0.2140    0.0000 C   0  0  0  0  0  0  0  0  0  0  0  0
   30.2199   -0.9535    0.0000 C   0  0  0  0  0  0  0  0  0  0  0  0
   30.2077   -2.4534    0.0000 O   0  0  0  0  0  0  0  0  0  0  0  0
   28.9269   -0.1930    0.0000 N   0  0  0  0  0  0  0  0  0  0  0  0
   27.6219   -0.9324    0.0000 C   0  0  0  0  0  0  0  0  0  0  0  0
   26.6484   -2.0736    0.0000 C   0  0  0  0  0  0  0  0  0  0  0  0
   26.1240   -3.4790    0.0000 O   0  0  0  0  0  0  0  0  0  0  0  0
   25.1512   -1.9831    0.0000 C   0  0  0  0  0  0  0  0  0  0  0  0
   26.3290   -0.1719    0.0000 C   0  0  0  0  0  0  0  0  0  0  0  0
   26.3411    1.3280    0.0000 O   0  0  0  0  0  0  0  0  0  0  0  0
   25.0239   -0.9114    0.0000 N   0  0  0  0  0  0  0  0  0  0  0  0
   23.7310   -0.1509    0.0000 C   0  0  0  0  0  0  0  0  0  0  0  0
   22.7761    1.0059    0.0000 C   0  0  0  0  0  0  0  0  0  0  0  0
   23.3005    2.4113    0.0000 C   0  0  0  0  0  0  0  0  0  0  0  0
   22.3457    3.5681    0.0000 C   0  0  0  0  0  0  0  0  0  0  0  0
   22.8701    4.9735    0.0000 N   0  0  0  0  0  0  0  0  0  0  0  0
   21.9153    6.1303    0.0000 C   0  0  0  0  0  0  0  0  0  0  0  0
   22.4397    7.5356    0.0000 N   0  0  0  0  0  0  0  0  0  0  0  0
   20.4360    5.8818    0.0000 N   0  0  0  0  0  0  0  0  0  0  0  0
   22.4259   -0.8903    0.0000 C   0  0  0  0  0  0  0  0  0  0  0  0
   22.4138   -2.3903    0.0000 O   0  0  0  0  0  0  0  0  0  0  0  0
   21.1330   -0.1299    0.0000 N   0  0  0  0  0  0  0  0  0  0  0  0
   19.8279   -0.8693    0.0000 C   0  0  0  0  0  0  0  0  0  0  0  0
   18.8545   -2.0105    0.0000 C   0  0  0  0  0  0  0  0  0  0  0  0
   17.3794   -1.7381    0.0000 C   0  0  0  0  0  0  0  0  0  0  0  0
   16.4059   -2.8793    0.0000 C   0  0  0  0  0  0  0  0  0  0  0  0
   14.9087   -2.7887    0.0000 N   0  0  0  0  0  0  0  0  0  0  0  0
   16.9075   -4.2930    0.0000 O   0  0  0  0  0  0  0  0  0  0  0  0
   18.5350   -0.1088    0.0000 C   0  0  0  0  0  0  0  0  0  0  0  0
   18.5471    1.3911    0.0000 O   0  0  0  0  0  0  0  0  0  0  0  0
   17.2299   -0.8483    0.0000 N   0  0  0  0  0  0  0  0  0  0  0  0
   15.9370   -0.0878    0.0000 C   0  0  0  0  0  0  0  0  0  0  0  0
   14.9821    1.0691    0.0000 C   0  0  0  0  0  0  0  0  0  0  0  0
   14.6319   -0.8272    0.0000 C   0  0  0  0  0  0  0  0  0  0  0  0
   14.4898   -1.9115    0.0000 O   0  0  0  0  0  0  0  0  0  0  0  0
   13.3390   -0.0667    0.0000 N   0  0  0  0  0  0  0  0  0  0  0  0
   12.0339   -0.8062    0.0000 C   0  0  0  0  0  0  0  0  0  0  0  0
   11.0605   -1.9474    0.0000 C   0  0  0  0  0  0  0  0  0  0  0  0
    9.5854   -1.6750    0.0000 C   0  0  0  0  0  0  0  0  0  0  0  0
    8.6120   -2.8162    0.0000 C   0  0  0  0  0  0  0  0  0  0  0  0
    7.1369   -2.5438    0.0000 N   0  0  0  0  0  0  0  0  0  0  0  0
    6.1635   -3.6850    0.0000 C   0  0  0  0  0  0  0  0  0  0  0  0
    4.7326   -3.2348    0.0000 N   0  0  0  0  0  0  0  0  0  0  0  0
    6.6651   -5.0987    0.0000 N   0  0  0  0  0  0  0  0  0  0  0  0
   10.7410   -0.0457    0.0000 C   0  0  0  0  0  0  0  0  0  0  0  0
   10.7532    1.4542    0.0000 O   0  0  0  0  0  0  0  0  0  0  0  0
    9.4359   -0.7852    0.0000 N   0  0  0  0  0  0  0  0  0  0  0  0
    8.1430   -0.0247    0.0000 C   0  0  0  0  0  0  0  0  0  0  0  0
    7.1882    1.1322    0.0000 C   0  0  0  0  0  0  0  0  0  0  0  0
    7.7126    2.5375    0.0000 C   0  0  0  0  0  0  0  0  0  0  0  0
    6.7578    3.6943    0.0000 C   0  0  0  0  0  0  0  0  0  0  0  0
    7.2822    5.0997    0.0000 N   0  0  0  0  0  0  0  0  0  0  0  0
    6.3273    6.2565    0.0000 C   0  0  0  0  0  0  0  0  0  0  0  0
    6.8518    7.6619    0.0000 N   0  0  0  0  0  0  0  0  0  0  0  0
    4.8481    6.0080    0.0000 N   0  0  0  0  0  0  0  0  0  0  0  0
    6.8380   -0.7641    0.0000 C   0  0  0  0  0  0  0  0  0  0  0  0
    6.5648   -1.8230    0.0000 O   0  0  0  0  0  0  0  0  0  0  0  0
    5.5450   -0.0036    0.0000 N   0  0  0  0  0  0  0  0  0  0  0  0
    4.2400   -0.7431    0.0000 C   0  0  0  0  0  0  0  0  0  0  0  0
    3.2665   -1.8843    0.0000 C   0  0  0  0  0  0  0  0  0  0  0  0
    1.7915   -1.6119    0.0000 C   0  0  0  0  0  0  0  0  0  0  0  0
    0.8180   -2.7531    0.0000 N   0  0  0  0  0  0  0  0  0  0  0  0
    1.3510   -0.9474    0.0000 O   0  0  0  0  0  0  0  0  0  0  0  0
    2.9470    0.0174    0.0000 C   0  0  0  0  0  0  0  0  0  0  0  0
    2.9592    1.5174    0.0000 O   0  0  0  0  0  0  0  0  0  0  0  0
    1.6420   -0.7221    0.0000 N   0  0  0  0  0  0  0  0  0  0  0  0
    0.3490    0.0384    0.0000 C   0  0  0  0  0  0  0  0  0  0  0  0
   -0.6058    1.1953    0.0000 C   0  0  0  0  0  0  0  0  0  0  0  0
   -2.0851    0.9468    0.0000 C   0  0  0  0  0  0  0  0  0  0  0  0
   -3.0399    2.1036    0.0000 C   0  0  0  0  0  0  0  0  0  0  0  0
   -4.5192    1.8551    0.0000 N   0  0  0  0  0  0  0  0  0  0  0  0
   -5.4740    3.0119    0.0000 C   0  0  0  0  0  0  0  0  0  0  0  0
   -6.9120    2.5850    0.0000 N   0  0  0  0  0  0  0  0  0  0  0  0
   -4.9496    4.4173    0.0000 N   0  0  0  0  0  0  0  0  0  0  0  0
   -0.9560   -0.7010    0.0000 C   0  0  0  0  0  0  0  0  0  0  0  0
   -1.1509   -2.1883    0.0000 O   0  0  0  0  0  0  0  0  0  0  0  0
   -2.2489    0.0595    0.0000 N   0  0  0  0  0  0  0  0  0  0  0  0
   -3.5540   -0.6800    0.0000 C   0  0  0  0  0  0  0  0  0  0  0  0
   -4.5275   -1.8212    0.0000 C   0  0  0  0  0  0  0  0  0  0  0  0
   -6.0025   -1.5488    0.0000 C   0  0  0  0  0  0  0  0  0  0  0  0
   -6.9760   -2.6900    0.0000 C   0  0  0  0  0  0  0  0  0  0  0  0
   -8.4510   -2.4176    0.0000 N   0  0  0  0  0  0  0  0  0  0  0  0
   -9.4245   -3.5588    0.0000 C   0  0  0  0  0  0  0  0  0  0  0  0
  -10.8553   -3.1086    0.0000 N   0  0  0  0  0  0  0  0  0  0  0  0
   -8.9229   -4.9724    0.0000 N   0  0  0  0  0  0  0  0  0  0  0  0
   -4.8469    0.0805    0.0000 C   0  0  0  0  0  0  0  0  0  0  0  0
   -5.1981    1.5388    0.0000 O   0  0  0  0  0  0  0  0  0  0  0  0
   -6.1520   -0.6589    0.0000 N   0  0  0  0  0  0  0  0  0  0  0  0
   -7.4449    0.1015    0.0000 C   0  0  0  0  0  0  0  0  0  0  0  0
   -8.3998    1.2584    0.0000 C   0  0  0  0  0  0  0  0  0  0  0  0
   -9.8790    1.0099    0.0000 C   0  0  0  0  0  0  0  0  0  0  0  0
  -10.8339    2.1667    0.0000 C   0  0  0  0  0  0  0  0  0  0  0  0
  -12.3132    1.9182    0.0000 N   0  0  0  0  0  0  0  0  0  0  0  0
  -13.2680    3.0751    0.0000 C   0  0  0  0  0  0  0  0  0  0  0  0
  -14.7060    2.6481    0.0000 N   0  0  0  0  0  0  0  0  0  0  0  0
  -12.7436    4.4804    0.0000 N   0  0  0  0  0  0  0  0  0  0  0  0
   -8.7500   -0.6379    0.0000 C   0  0  0  0  0  0  0  0  0  0  0  0
   -9.1247   -2.0903    0.0000 O   0  0  0  0  0  0  0  0  0  0  0  0
  -10.0429    0.1226    0.0000 N   0  0  0  0  0  0  0  0  0  0  0  0
  -11.3480   -0.6169    0.0000 C   0  0  0  0  0  0  0  0  0  0  0  0
  -12.3214   -1.7581    0.0000 C   0  0  0  0  0  0  0  0  0  0  0  0
  -13.7965   -1.4857    0.0000 C   0  0  0  0  0  0  0  0  0  0  0  0
  -14.7699   -2.6269    0.0000 C   0  0  0  0  0  0  0  0  0  0  0  0
  -16.2450   -2.3545    0.0000 N   0  0  0  0  0  0  0  0  0  0  0  0
  -17.2185   -3.4957    0.0000 C   0  0  0  0  0  0  0  0  0  0  0  0
  -18.6493   -3.0455    0.0000 N   0  0  0  0  0  0  0  0  0  0  0  0
  -16.7169   -4.9093    0.0000 N   0  0  0  0  0  0  0  0  0  0  0  0
  -12.6409    0.1436    0.0000 C   0  0  0  0  0  0  0  0  0  0  0  0
  -12.9921    1.6019    0.0000 O   0  0  0  0  0  0  0  0  0  0  0  0
  -13.9460   -0.5958    0.0000 N   0  0  0  0  0  0  0  0  0  0  0  0
  -15.2389    0.1647    0.0000 C   0  0  0  0  0  0  0  0  0  0  0  0
  -16.1937    1.3215    0.0000 C   0  0  0  0  0  0  0  0  0  0  0  0
  -17.6730    1.0730    0.0000 C   0  0  0  0  0  0  0  0  0  0  0  0
  -18.3415   -0.2698    0.0000 C   0  0  0  0  0  0  0  0  0  0  0  0
  -19.8251   -0.0491    0.0000 N   0  0  0  0  0  0  0  0  0  0  0  0
  -20.0736    1.4302    0.0000 C   0  0  0  0  0  0  0  0  0  0  0  0
  -21.3392    2.2354    0.0000 C   0  0  0  0  0  0  0  0  0  0  0  0
  -21.2747    3.7340    0.0000 C   0  0  0  0  0  0  0  0  0  0  0  0
  -19.9447    4.4274    0.0000 C   0  0  0  0  0  0  0  0  0  0  0  0
  -18.6791    3.6223    0.0000 C   0  0  0  0  0  0  0  0  0  0  0  0
  -18.7436    2.1237    0.0000 C   0  0  0  0  0  0  0  0  0  0  0  0
  -16.5440   -0.5748    0.0000 C   0  0  0  0  0  0  0  0  0  0  0  0
  -16.9187   -2.0272    0.0000 O   0  0  0  0  0  0  0  0  0  0  0  0
  -17.8369    0.1857    0.0000 N   0  0  0  0  0  0  0  0  0  0  0  0
  -19.1420   -0.5538    0.0000 C   0  0  0  0  0  0  0  0  0  0  0  0
  -20.1154   -1.6950    0.0000 C   0  0  0  0  0  0  0  0  0  0  0  0
  -21.5905   -1.4226    0.0000 C   0  0  0  0  0  0  0  0  0  0  0  0
  -22.5639   -2.5638    0.0000 C   0  0  0  0  0  0  0  0  0  0  0  0
  -24.0390   -2.2914    0.0000 N   0  0  0  0  0  0  0  0  0  0  0  0
  -25.0124   -3.4326    0.0000 C   0  0  0  0  0  0  0  0  0  0  0  0
  -26.4433   -2.9824    0.0000 N   0  0  0  0  0  0  0  0  0  0  0  0
  -24.5108   -4.8462    0.0000 N   0  0  0  0  0  0  0  0  0  0  0  0
  -20.4349    0.2067    0.0000 C   0  0  0  0  0  0  0  0  0  0  0  0
  -20.7860    1.6650    0.0000 O   0  0  0  0  0  0  0  0  0  0  0  0
  -21.7400   -0.5327    0.0000 N   0  0  0  0  0  0  0  0  0  0  0  0
  -23.0329    0.2278    0.0000 C   0  0  0  0  0  0  0  0  0  0  0  0
  -23.9877    1.3846    0.0000 C   0  0  0  0  0  0  0  0  0  0  0  0
  -25.4670    1.1361    0.0000 C   0  0  0  0  0  0  0  0  0  0  0  0
  -26.4218    2.2929    0.0000 C   0  0  0  0  0  0  0  0  0  0  0  0
  -27.9011    2.0444    0.0000 N   0  0  0  0  0  0  0  0  0  0  0  0
  -28.8560    3.2013    0.0000 C   0  0  0  0  0  0  0  0  0  0  0  0
  -30.2939    2.7743    0.0000 N   0  0  0  0  0  0  0  0  0  0  0  0
  -28.3315    4.6066    0.0000 N   0  0  0  0  0  0  0  0  0  0  0  0
  -24.3379   -0.5117    0.0000 C   0  0  0  0  0  0  0  0  0  0  0  0
  -24.7127   -1.9641    0.0000 O   0  0  0  0  0  0  0  0  0  0  0  0
  -25.6309    0.2488    0.0000 N   0  0  0  0  0  0  0  0  0  0  0  0
  -26.9359   -0.4907    0.0000 C   0  0  0  0  0  0  0  0  0  0  0  0
  -27.9094   -1.6319    0.0000 C   0  0  0  0  0  0  0  0  0  0  0  0
  -28.2289    0.2698    0.0000 C   0  0  0  0  0  0  0  0  0  0  0  0
  -28.5800    1.7282    0.0000 O   0  0  0  0  0  0  0  0  0  0  0  0
  -29.5339   -0.4696    0.0000 N   0  0  0  0  0  0  0  0  0  0  0  0
  -30.8268    0.2909    0.0000 C   0  0  0  0  0  0  0  0  0  0  0  0
  -31.7817    1.4477    0.0000 C   0  0  0  0  0  0  0  0  0  0  0  0
  -32.1319   -0.4486    0.0000 C   0  0  0  0  0  0  0  0  0  0  0  0
  -32.1441   -1.9485    0.0000 O   0  0  0  0  0  0  0  0  0  0  0  0
  -33.4248    0.3119    0.0000 N   0  0  0  0  0  0  0  0  0  0  0  0
  -34.7299   -0.4275    0.0000 C   0  0  0  0  0  0  0  0  0  0  0  0
  -35.7034   -1.5688    0.0000 C   0  0  0  0  0  0  0  0  0  0  0  0
  -36.0228    0.3330    0.0000 C   0  0  0  0  0  0  0  0  0  0  0  0
  -36.0107    1.8329    0.0000 O   0  0  0  0  0  0  0  0  0  0  0  0
  -37.3279   -0.4065    0.0000 N   0  0  0  0  0  0  0  0  0  0  0  0
  -38.6208    0.3540    0.0000 C   0  0  0  0  0  0  0  0  0  0  0  0
  -39.5757    1.5108    0.0000 C   0  0  0  0  0  0  0  0  0  0  0  0
  -39.9259   -0.3855    0.0000 C   0  0  0  0  0  0  0  0  0  0  0  0
  -41.3019    0.2118    0.0000 O   0  0  0  0  0  0  0  0  0  0  0  0
  -39.9380   -1.8854    0.0000 O   0  0  0  0  0  0  0  0  0  0  0  0
   36.5501    1.2342    0.0000 H   0  0  0  0  0  0  0  0  0  0  0  0
   36.6966   -3.2560    0.0000 H   0  0  0  0  0  0  0  0  0  0  0  0
   39.2825   -4.7770    0.0000 H   0  0  0  0  0  0  0  0  0  0  0  0
   38.9677    1.1812    0.0000 H   0  0  0  0  0  0  0  0  0  0  0  0
   45.9316    2.8599    0.0000 H   0  0  0  0  0  0  0  0  0  0  0  0
   46.9708   -2.2313    0.0000 H   0  0  0  0  0  0  0  0  0  0  0  0
   44.0314   -2.8313    0.0000 H   0  0  0  0  0  0  0  0  0  0  0  0
   48.9156   -0.5085    0.0000 H   0  0  0  0  0  0  0  0  0  0  0  0
   39.1027   -1.1856    0.0000 H   0  0  0  0  0  0  0  0  0  0  0  0
   37.0878    1.2414    0.0000 H   0  0  0  0  0  0  0  0  0  0  0  0
   41.0030    4.5055    0.0000 H   0  0  0  0  0  0  0  0  0  0  0  0
   38.5386    5.3284    0.0000 H   0  0  0  0  0  0  0  0  0  0  0  0
   34.1351    1.2649    0.0000 H   0  0  0  0  0  0  0  0  0  0  0  0
   31.8444   -2.1157    0.0000 H   0  0  0  0  0  0  0  0  0  0  0  0
   33.7727   -2.1313    0.0000 H   0  0  0  0  0  0  0  0  0  0  0  0
   30.5701    0.9428    0.0000 H   0  0  0  0  0  0  0  0  0  0  0  0
   32.4984    0.9272    0.0000 H   0  0  0  0  0  0  0  0  0  0  0  0
   28.9391    1.3070    0.0000 H   0  0  0  0  0  0  0  0  0  0  0  0
   28.5767   -2.0893    0.0000 H   0  0  0  0  0  0  0  0  0  0  0  0
   27.9413   -2.8341    0.0000 H   0  0  0  0  0  0  0  0  0  0  0  0
   27.0788   -4.6358    0.0000 H   0  0  0  0  0  0  0  0  0  0  0  0
   24.1999   -2.9424    0.0000 H   0  0  0  0  0  0  0  0  0  0  0  0
   23.8804   -1.0407    0.0000 H   0  0  0  0  0  0  0  0  0  0  0  0
   24.9765   -0.3142    0.0000 H   0  0  0  0  0  0  0  0  0  0  0  0
   24.8290   -2.3987    0.0000 H   0  0  0  0  0  0  0  0  0  0  0  0
   24.8363    0.8632    0.0000 H   0  0  0  0  0  0  0  0  0  0  0  0
   21.4832    1.7664    0.0000 H   0  0  0  0  0  0  0  0  0  0  0  0
   21.5554    0.1342    0.0000 H   0  0  0  0  0  0  0  0  0  0  0  0
   24.2740    3.5525    0.0000 H   0  0  0  0  0  0  0  0  0  0  0  0
   24.6765    1.8141    0.0000 H   0  0  0  0  0  0  0  0  0  0  0  0
   21.0528    4.3286    0.0000 H   0  0  0  0  0  0  0  0  0  0  0  0
   21.2404    2.5541    0.0000 H   0  0  0  0  0  0  0  0  0  0  0  0
   24.3494    5.2220    0.0000 H   0  0  0  0  0  0  0  0  0  0  0  0
   21.4849    8.6925    0.0000 H   0  0  0  0  0  0  0  0  0  0  0  0
   19.4812    7.0386    0.0000 H   0  0  0  0  0  0  0  0  0  0  0  0
   19.9116    4.4765    0.0000 H   0  0  0  0  0  0  0  0  0  0  0  0
   20.9622    1.3604    0.0000 H   0  0  0  0  0  0  0  0  0  0  0  0
   20.7828   -2.0261    0.0000 H   0  0  0  0  0  0  0  0  0  0  0  0
   18.3300   -3.4159    0.0000 H   0  0  0  0  0  0  0  0  0  0  0  0
   20.1474   -2.7710    0.0000 H   0  0  0  0  0  0  0  0  0  0  0  0
   16.0865   -0.9776    0.0000 H   0  0  0  0  0  0  0  0  0  0  0  0
   17.1825   -0.2511    0.0000 H   0  0  0  0  0  0  0  0  0  0  0  0
   13.9574   -3.7481    0.0000 H   0  0  0  0  0  0  0  0  0  0  0  0
   14.0575   -1.3567    0.0000 H   0  0  0  0  0  0  0  0  0  0  0  0
   16.8552   -2.3007    0.0000 H   0  0  0  0  0  0  0  0  0  0  0  0
   16.9104    1.0534    0.0000 H   0  0  0  0  0  0  0  0  0  0  0  0
   15.5066    2.4744    0.0000 H   0  0  0  0  0  0  0  0  0  0  0  0
   13.7916    1.9815    0.0000 H   0  0  0  0  0  0  0  0  0  0  0  0
   13.7615    0.1973    0.0000 H   0  0  0  0  0  0  0  0  0  0  0  0
   13.1682    1.4235    0.0000 H   0  0  0  0  0  0  0  0  0  0  0  0
   12.9888   -1.9630    0.0000 H   0  0  0  0  0  0  0  0  0  0  0  0
   10.7113   -3.4062    0.0000 H   0  0  0  0  0  0  0  0  0  0  0  0
   12.3534   -2.7079    0.0000 H   0  0  0  0  0  0  0  0  0  0  0  0
    8.2925   -0.9145    0.0000 H   0  0  0  0  0  0  0  0  0  0  0  0
    9.3885   -0.1880    0.0000 H   0  0  0  0  0  0  0  0  0  0  0  0
    8.0875   -4.2216    0.0000 H   0  0  0  0  0  0  0  0  0  0  0  0
    9.8026   -3.7286    0.0000 H   0  0  0  0  0  0  0  0  0  0  0  0
    6.3082   -1.2935    0.0000 H   0  0  0  0  0  0  0  0  0  0  0  0
    3.7150   -4.5538    0.0000 H   0  0  0  0  0  0  0  0  0  0  0  0
    5.6916   -6.2399    0.0000 H   0  0  0  0  0  0  0  0  0  0  0  0
    8.1401   -5.3711    0.0000 H   0  0  0  0  0  0  0  0  0  0  0  0
    9.0612   -2.2376    0.0000 H   0  0  0  0  0  0  0  0  0  0  0  0
    9.2483    0.9894    0.0000 H   0  0  0  0  0  0  0  0  0  0  0  0
    5.8953    1.8927    0.0000 H   0  0  0  0  0  0  0  0  0  0  0  0
    5.9675    0.2604    0.0000 H   0  0  0  0  0  0  0  0  0  0  0  0
    8.6861    3.6787    0.0000 H   0  0  0  0  0  0  0  0  0  0  0  0
    9.0886    1.9403    0.0000 H   0  0  0  0  0  0  0  0  0  0  0  0
    5.4648    4.4548    0.0000 H   0  0  0  0  0  0  0  0  0  0  0  0
    5.6524    2.6803    0.0000 H   0  0  0  0  0  0  0  0  0  0  0  0
    8.7615    5.3482    0.0000 H   0  0  0  0  0  0  0  0  0  0  0  0
    5.8969    8.8187    0.0000 H   0  0  0  0  0  0  0  0  0  0  0  0
    3.8932    7.1648    0.0000 H   0  0  0  0  0  0  0  0  0  0  0  0
    4.3236    4.6027    0.0000 H   0  0  0  0  0  0  0  0  0  0  0  0
    5.3742    1.4866    0.0000 H   0  0  0  0  0  0  0  0  0  0  0  0
    5.1948   -1.8999    0.0000 H   0  0  0  0  0  0  0  0  0  0  0  0
    2.7421   -3.2897    0.0000 H   0  0  0  0  0  0  0  0  0  0  0  0
    4.6425   -2.4815    0.0000 H   0  0  0  0  0  0  0  0  0  0  0  0
   -0.6793   -2.6625    0.0000 H   0  0  0  0  0  0  0  0  0  0  0  0
    1.3196   -4.1668    0.0000 H   0  0  0  0  0  0  0  0  0  0  0  0
    1.2672   -2.1745    0.0000 H   0  0  0  0  0  0  0  0  0  0  0  0
    1.3225    1.1797    0.0000 H   0  0  0  0  0  0  0  0  0  0  0  0
   -0.9313    2.6595    0.0000 H   0  0  0  0  0  0  0  0  0  0  0  0
    0.6993    1.9347    0.0000 H   0  0  0  0  0  0  0  0  0  0  0  0
   -3.3901    0.2073    0.0000 H   0  0  0  0  0  0  0  0  0  0  0  0
   -2.3060   -0.5369    0.0000 H   0  0  0  0  0  0  0  0  0  0  0  0
   -3.5415    3.5173    0.0000 H   0  0  0  0  0  0  0  0  0  0  0  0
   -1.8347    2.9966    0.0000 H   0  0  0  0  0  0  0  0  0  0  0  0
   -5.5125    0.7311    0.0000 H   0  0  0  0  0  0  0  0  0  0  0  0
   -7.9082    3.9203    0.0000 H   0  0  0  0  0  0  0  0  0  0  0  0
   -5.9045    5.5741    0.0000 H   0  0  0  0  0  0  0  0  0  0  0  0
   -3.4703    4.6658    0.0000 H   0  0  0  0  0  0  0  0  0  0  0  0
   -2.6001    1.5178    0.0000 H   0  0  0  0  0  0  0  0  0  0  0  0
   -2.5992   -1.8368    0.0000 H   0  0  0  0  0  0  0  0  0  0  0  0
   -4.8767   -3.2800    0.0000 H   0  0  0  0  0  0  0  0  0  0  0  0
   -3.2345   -2.5817    0.0000 H   0  0  0  0  0  0  0  0  0  0  0  0
   -7.2954   -0.7883    0.0000 H   0  0  0  0  0  0  0  0  0  0  0  0
   -6.3792   -0.0968    0.0000 H   0  0  0  0  0  0  0  0  0  0  0  0
   -7.5004   -4.0953    0.0000 H   0  0  0  0  0  0  0  0  0  0  0  0
   -5.7854   -3.6024    0.0000 H   0  0  0  0  0  0  0  0  0  0  0  0
   -9.4260   -1.2777    0.0000 H   0  0  0  0  0  0  0  0  0  0  0  0
  -11.8730   -4.4276    0.0000 H   0  0  0  0  0  0  0  0  0  0  0  0
   -9.8963   -6.1137    0.0000 H   0  0  0  0  0  0  0  0  0  0  0  0
   -7.4478   -5.2449    0.0000 H   0  0  0  0  0  0  0  0  0  0  0  0
   -6.5267   -2.1114    0.0000 H   0  0  0  0  0  0  0  0  0  0  0  0
   -6.4715    1.2428    0.0000 H   0  0  0  0  0  0  0  0  0  0  0  0
   -8.7253    2.7226    0.0000 H   0  0  0  0  0  0  0  0  0  0  0  0
   -7.0143    1.8332    0.0000 H   0  0  0  0  0  0  0  0  0  0  0  0
  -11.1841    0.2704    0.0000 H   0  0  0  0  0  0  0  0  0  0  0  0
  -10.2792   -0.4358    0.0000 H   0  0  0  0  0  0  0  0  0  0  0  0
  -11.3355    3.5804    0.0000 H   0  0  0  0  0  0  0  0  0  0  0  0
   -9.6287    3.0597    0.0000 H   0  0  0  0  0  0  0  0  0  0  0  0
  -13.3065    0.7942    0.0000 H   0  0  0  0  0  0  0  0  0  0  0  0
  -15.7021    3.9834    0.0000 H   0  0  0  0  0  0  0  0  0  0  0  0
  -13.6984    5.6372    0.0000 H   0  0  0  0  0  0  0  0  0  0  0  0
  -11.2643    4.7289    0.0000 H   0  0  0  0  0  0  0  0  0  0  0  0
  -10.3941    1.5809    0.0000 H   0  0  0  0  0  0  0  0  0  0  0  0
  -10.3931   -1.7737    0.0000 H   0  0  0  0  0  0  0  0  0  0  0  0
  -12.6707   -3.2169    0.0000 H   0  0  0  0  0  0  0  0  0  0  0  0
  -10.9455   -2.3553    0.0000 H   0  0  0  0  0  0  0  0  0  0  0  0
  -15.0894   -0.7252    0.0000 H   0  0  0  0  0  0  0  0  0  0  0  0
  -14.1732   -0.0337    0.0000 H   0  0  0  0  0  0  0  0  0  0  0  0
  -15.2944   -4.0322    0.0000 H   0  0  0  0  0  0  0  0  0  0  0  0
  -13.5794   -3.5393    0.0000 H   0  0  0  0  0  0  0  0  0  0  0  0
  -17.0738   -1.1042    0.0000 H   0  0  0  0  0  0  0  0  0  0  0  0
  -19.6670   -4.3645    0.0000 H   0  0  0  0  0  0  0  0  0  0  0  0
  -17.6903   -6.0506    0.0000 H   0  0  0  0  0  0  0  0  0  0  0  0
  -15.2418   -5.1818    0.0000 H   0  0  0  0  0  0  0  0  0  0  0  0
  -14.3207   -2.0483    0.0000 H   0  0  0  0  0  0  0  0  0  0  0  0
  -14.2654    1.3059    0.0000 H   0  0  0  0  0  0  0  0  0  0  0  0
  -16.6953    2.7351    0.0000 H   0  0  0  0  0  0  0  0  0  0  0  0
  -14.8083    1.8964    0.0000 H   0  0  0  0  0  0  0  0  0  0  0  0
  -17.4910   -1.5055    0.0000 H   0  0  0  0  0  0  0  0  0  0  0  0
  -21.1036   -0.8335    0.0000 H   0  0  0  0  0  0  0  0  0  0  0  0
  -22.6693    1.5419    0.0000 H   0  0  0  0  0  0  0  0  0  0  0  0
  -22.5403    4.5391    0.0000 H   0  0  0  0  0  0  0  0  0  0  0  0
  -19.8802    5.9261    0.0000 H   0  0  0  0  0  0  0  0  0  0  0  0
  -17.3490    4.3158    0.0000 H   0  0  0  0  0  0  0  0  0  0  0  0
  -18.1881    1.6440    0.0000 H   0  0  0  0  0  0  0  0  0  0  0  0
  -18.3352   -1.8184    0.0000 H   0  0  0  0  0  0  0  0  0  0  0  0
  -20.4646   -3.1538    0.0000 H   0  0  0  0  0  0  0  0  0  0  0  0
  -18.7394   -2.2922    0.0000 H   0  0  0  0  0  0  0  0  0  0  0  0
  -22.8834   -0.6621    0.0000 H   0  0  0  0  0  0  0  0  0  0  0  0
  -21.7874    0.0645    0.0000 H   0  0  0  0  0  0  0  0  0  0  0  0
  -23.0883   -3.9691    0.0000 H   0  0  0  0  0  0  0  0  0  0  0  0
  -21.3733   -3.4762    0.0000 H   0  0  0  0  0  0  0  0  0  0  0  0
  -25.0140   -1.1514    0.0000 H   0  0  0  0  0  0  0  0  0  0  0  0
  -27.4609   -4.3014    0.0000 H   0  0  0  0  0  0  0  0  0  0  0  0
  -25.4843   -5.9874    0.0000 H   0  0  0  0  0  0  0  0  0  0  0  0
  -23.0358   -5.1186    0.0000 H   0  0  0  0  0  0  0  0  0  0  0  0
  -22.1147   -1.9852    0.0000 H   0  0  0  0  0  0  0  0  0  0  0  0
  -21.9276    1.2418    0.0000 H   0  0  0  0  0  0  0  0  0  0  0  0
  -24.3133    2.8489    0.0000 H   0  0  0  0  0  0  0  0  0  0  0  0
  -22.7825    2.2776    0.0000 H   0  0  0  0  0  0  0  0  0  0  0  0
  -26.7721    0.3966    0.0000 H   0  0  0  0  0  0  0  0  0  0  0  0
  -25.8671   -0.3095    0.0000 H   0  0  0  0  0  0  0  0  0  0  0  0
  -26.9234    3.7066    0.0000 H   0  0  0  0  0  0  0  0  0  0  0  0
  -25.2166    3.1860    0.0000 H   0  0  0  0  0  0  0  0  0  0  0  0
  -28.7500    0.8078    0.0000 H   0  0  0  0  0  0  0  0  0  0  0  0
  -31.2901    4.1096    0.0000 H   0  0  0  0  0  0  0  0  0  0  0  0
  -29.2864    5.7634    0.0000 H   0  0  0  0  0  0  0  0  0  0  0  0
  -26.8523    4.8551    0.0000 H   0  0  0  0  0  0  0  0  0  0  0  0
  -25.9820    1.7071    0.0000 H   0  0  0  0  0  0  0  0  0  0  0  0
  -25.9811   -1.6475    0.0000 H   0  0  0  0  0  0  0  0  0  0  0  0
  -29.3841   -1.9063    0.0000 H   0  0  0  0  0  0  0  0  0  0  0  0
  -28.4338   -3.0372    0.0000 H   0  0  0  0  0  0  0  0  0  0  0  0
  -26.5334   -2.2291    0.0000 H   0  0  0  0  0  0  0  0  0  0  0  0
  -29.7288   -1.9569    0.0000 H   0  0  0  0  0  0  0  0  0  0  0  0
  -29.8534    1.4321    0.0000 H   0  0  0  0  0  0  0  0  0  0  0  0
  -33.2517    1.7460    0.0000 H   0  0  0  0  0  0  0  0  0  0  0  0
  -32.2833    2.8614    0.0000 H   0  0  0  0  0  0  0  0  0  0  0  0
  -30.3962    2.0226    0.0000 H   0  0  0  0  0  0  0  0  0  0  0  0
  -33.5956    1.8022    0.0000 H   0  0  0  0  0  0  0  0  0  0  0  0
  -33.7751   -1.5844    0.0000 H   0  0  0  0  0  0  0  0  0  0  0  0
  -37.1780   -1.8432    0.0000 H   0  0  0  0  0  0  0  0  0  0  0  0
  -36.2278   -2.9741    0.0000 H   0  0  0  0  0  0  0  0  0  0  0  0
  -34.4104   -2.3293    0.0000 H   0  0  0  0  0  0  0  0  0  0  0  0
  -37.5228   -1.8938    0.0000 H   0  0  0  0  0  0  0  0  0  0  0  0
  -37.6474    1.4952    0.0000 H   0  0  0  0  0  0  0  0  0  0  0  0
  -39.0512    2.9162    0.0000 H   0  0  0  0  0  0  0  0  0  0  0  0
  -40.8686    2.2713    0.0000 H   0  0  0  0  0  0  0  0  0  0  0  0
  -40.6810    0.4968    0.0000 H   0  0  0  0  0  0  0  0  0  0  0  0
  -41.2431   -2.6249    0.0000 H   0  0  0  0  0  0  0  0  0  0  0  0
  1  2  1  0
  2  3  1  0
  3  4  2  0
  4  5  1  0
  5  6  2  0
  6  7  1  0
  7  8  2  0
  7  9  1  0
  9 10  1  0
 10 11  1  0
 11 12  2  0
  9 13  1  0
 13 14  1  0
 14 15  2  0
 15 16  1  0
 16 17  2  0
 17 18  1  0
 16 19  1  0
 14 20  1  0
 20 21  1  0
 21 22  2  0
 22 23  1  0
 23 24  2  0
 24 25  1  0
 25 26  2  0
 25 27  1  0
  1 28  2  0
  1 29  1  0
 29 30  1  0
 30 31  1  0
 31 32  1  0
 32 33  2  0
 32 34  1  0
 34 35  1  0
 35 36  1  0
 36 37  1  0
 36 38  1  0
 35 39  1  0
 39 40  2  0
 39 41  1  0
 41 42  1  0
 42 43  1  0
 43 44  1  0
 44 45  1  0
 45 46  1  0
 46 47  1  0
 47 48  2  3
 47 49  1  0
 42 50  1  0
 50 51  2  0
 50 52  1  0
 52 53  1  0
 53 54  1  0
 54 55  1  0
 55 56  1  0
 56 57  1  0
 56 58  2  0
 53 59  1  0
 59 60  2  0
 59 61  1  0
 61 62  1  0
 62 63  1  0
 62 64  1  0
 64 65  2  0
 64 66  1  0
 66 67  1  0
 67 68  1  0
 68 69  1  0
 69 70  1  0
 70 71  1  0
 71 72  1  0
 72 73  2  3
 72 74  1  0
 67 75  1  0
 75 76  2  0
 75 77  1  0
 77 78  1  0
 78 79  1  0
 79 80  1  0
 80 81  1  0
 81 82  1  0
 82 83  1  0
 83 84  2  3
 83 85  1  0
 78 86  1  0
 86 87  2  0
 86 88  1  0
 88 89  1  0
 89 90  1  0
 90 91  1  0
 91 92  1  0
 91 93  2  0
 89 94  1  0
 94 95  2  0
 94 96  1  0
 96 97  1  0
 97 98  1  0
 98 99  1  0
 99100  1  0
100101  1  0
101102  1  0
102103  2  3
102104  1  0
 97105  1  0
105106  2  0
105107  1  0
107108  1  0
108109  1  0
109110  1  0
110111  1  0
111112  1  0
112113  1  0
113114  2  3
113115  1  0
108116  1  0
116117  2  0
116118  1  0
118119  1  0
119120  1  0
120121  1  0
121122  1  0
122123  1  0
123124  1  0
124125  2  3
124126  1  0
119127  1  0
127128  2  0
127129  1  0
129130  1  0
130131  1  0
131132  1  0
132133  1  0
133134  1  0
134135  1  0
135136  2  3
135137  1  0
130138  1  0
138139  2  0
138140  1  0
140141  1  0
141142  1  0
142143  1  0
143144  2  0
144145  1  0
145146  1  0
146147  2  0
147148  1  0
148149  2  0
149150  1  0
150151  2  0
141152  1  0
152153  2  0
152154  1  0
154155  1  0
155156  1  0
156157  1  0
157158  1  0
158159  1  0
159160  1  0
160161  2  3
160162  1  0
155163  1  0
163164  2  0
163165  1  0
165166  1  0
166167  1  0
167168  1  0
168169  1  0
169170  1  0
170171  1  0
171172  2  3
171173  1  0
166174  1  0
174175  2  0
174176  1  0
176177  1  0
177178  1  0
177179  1  0
179180  2  0
179181  1  0
181182  1  0
182183  1  0
182184  1  0
184185  2  0
184186  1  0
186187  1  0
187188  1  0
187189  1  0
189190  2  0
189191  1  0
191192  1  0
192193  1  0
192194  1  0
194195  2  0
194196  1  0
  8  3  1  0
151143  1  0
 11  6  1  0
151146  1  0
 18 13  2  0
 22  9  1  0
 26 21  1  0
  2197  1  0
  4198  1  0
  5199  1  0
  8200  1  0
 15201  1  0
 17202  1  0
 18203  1  0
 19204  1  0
 23205  1  0
 24206  1  0
 26207  1  0
 27208  1  0
 29209  1  0
 30210  1  0
 30211  1  0
 31212  1  0
 31213  1  0
 34214  1  0
 35215  1  1
 36216  1  1
 37217  1  0
 38218  1  0
 38219  1  0
 38220  1  0
 41221  1  0
 42222  1  6
 43223  1  0
 43224  1  0
 44225  1  0
 44226  1  0
 45227  1  0
 45228  1  0
 46229  1  0
 48230  1  0
 49231  1  0
 49232  1  0
 52233  1  0
 53234  1  1
 54235  1  0
 54236  1  0
 55237  1  0
 55238  1  0
 57239  1  0
 57240  1  0
 61241  1  0
 62242  1  6
 63243  1  0
 63244  1  0
 63245  1  0
 66246  1  0
 67247  1  1
 68248  1  0
 68249  1  0
 69250  1  0
 69251  1  0
 70252  1  0
 70253  1  0
 71254  1  0
 73255  1  0
 74256  1  0
 74257  1  0
 77258  1  0
 78259  1  6
 79260  1  0
 79261  1  0
 80262  1  0
 80263  1  0
 81264  1  0
 81265  1  0
 82266  1  0
 84267  1  0
 85268  1  0
 85269  1  0
 88270  1  0
 89271  1  1
 90272  1  0
 90273  1  0
 92274  1  0
 92275  1  0
 96276  1  0
 97277  1  6
 98278  1  0
 98279  1  0
 99280  1  0
 99281  1  0
100282  1  0
100283  1  0
101284  1  0
103285  1  0
104286  1  0
104287  1  0
107288  1  0
108289  1  1
109290  1  0
109291  1  0
110292  1  0
110293  1  0
111294  1  0
111295  1  0
112296  1  0
114297  1  0
115298  1  0
115299  1  0
118300  1  0
119301  1  6
120302  1  0
120303  1  0
121304  1  0
121305  1  0
122306  1  0
122307  1  0
123308  1  0
125309  1  0
126310  1  0
126311  1  0
129312  1  0
130313  1  1
131314  1  0
131315  1  0
132316  1  0
132317  1  0
133318  1  0
133319  1  0
134320  1  0
136321  1  0
137322  1  0
137323  1  0
140324  1  0
141325  1  6
142326  1  0
142327  1  0
144328  1  0
145329  1  0
147330  1  0
148331  1  0
149332  1  0
150333  1  0
154334  1  0
155335  1  1
156336  1  0
156337  1  0
157338  1  0
157339  1  0
158340  1  0
158341  1  0
159342  1  0
161343  1  0
162344  1  0
162345  1  0
165346  1  0
166347  1  6
167348  1  0
167349  1  0
168350  1  0
168351  1  0
169352  1  0
169353  1  0
170354  1  0
172355  1  0
173356  1  0
173357  1  0
176358  1  0
177359  1  1
178360  1  0
178361  1  0
178362  1  0
181363  1  0
182364  1  6
183365  1  0
183366  1  0
183367  1  0
186368  1  0
187369  1  1
188370  1  0
188371  1  0
188372  1  0
191373  1  0
192374  1  6
193375  1  0
193376  1  0
193377  1  0
196378  1  0
M  END
