
     RDKit          2D

469475  0  0  0  0  0  0  0  0999 V2000
   30.7069    4.2144    0.0000 C   0  0  0  0  0  0  0  0  0  0  0  0
   30.1954    5.6245    0.0000 N   0  0  0  0  0  0  0  0  0  0  0  0
   31.1608    6.7725    0.0000 C   0  0  0  0  0  0  0  0  0  0  0  0
   32.6377    6.5104    0.0000 C   0  0  0  0  0  0  0  0  0  0  0  0
   33.6031    7.6585    0.0000 C   0  0  0  0  0  0  0  0  0  0  0  0
   33.0916    9.0686    0.0000 C   0  0  0  0  0  0  0  0  0  0  0  0
   31.6147    9.3306    0.0000 C   0  0  0  0  0  0  0  0  0  0  0  0
   30.6493    8.1826    0.0000 C   0  0  0  0  0  0  0  0  0  0  0  0
   31.4075   10.8162    0.0000 C   0  0  0  0  0  0  0  0  0  0  0  0
   32.7564   11.4724    0.0000 O   0  0  0  0  0  0  0  0  0  0  0  0
   33.7973   10.3922    0.0000 C   0  0  0  0  0  0  0  0  0  0  0  0
   35.2829   10.5994    0.0000 O   0  0  0  0  0  0  0  0  0  0  0  0
   31.3568   12.3154    0.0000 C   0  0  0  0  0  0  0  0  0  0  0  0
   30.0331   13.0210    0.0000 C   0  0  0  0  0  0  0  0  0  0  0  0
   29.9824   14.5202    0.0000 C   0  0  0  0  0  0  0  0  0  0  0  0
   31.2553   15.3137    0.0000 C   0  0  0  0  0  0  0  0  0  0  0  0
   32.5790   14.6080    0.0000 C   0  0  0  0  0  0  0  0  0  0  0  0
   32.6297   13.1089    0.0000 C   0  0  0  0  0  0  0  0  0  0  0  0
   31.2045   16.8128    0.0000 O   0  0  0  0  0  0  0  0  0  0  0  0
   28.7602   12.2275    0.0000 O   0  0  0  0  0  0  0  0  0  0  0  0
   28.8109   10.7284    0.0000 C   0  0  0  0  0  0  0  0  0  0  0  0
   30.1346   10.0227    0.0000 C   0  0  0  0  0  0  0  0  0  0  0  0
   29.5676    8.8529    0.0000 C   0  0  0  0  0  0  0  0  0  0  0  0
   28.8887    8.4297    0.0000 C   0  0  0  0  0  0  0  0  0  0  0  0
   28.1828    8.8060    0.0000 C   0  0  0  0  0  0  0  0  0  0  0  0
   28.1557    9.6055    0.0000 C   0  0  0  0  0  0  0  0  0  0  0  0
   26.3158    7.6422    0.0000 O   0  0  0  0  0  0  0  0  0  0  0  0
   32.1838    3.9523    0.0000 S   0  0  0  0  0  0  0  0  0  0  0  0
   29.7415    3.0663    0.0000 N   0  0  0  0  0  0  0  0  0  0  0  0
   30.2530    1.6563    0.0000 C   0  0  0  0  0  0  0  0  0  0  0  0
   29.2876    0.5082    0.0000 C   0  0  0  0  0  0  0  0  0  0  0  0
   29.7991   -0.9019    0.0000 C   0  0  0  0  0  0  0  0  0  0  0  0
   30.5952   -0.9444    0.0000 O   0  0  0  0  0  0  0  0  0  0  0  0
   28.8337   -2.0499    0.0000 N   0  0  0  0  0  0  0  0  0  0  0  0
   29.3452   -3.4600    0.0000 C   0  0  0  0  0  0  0  0  0  0  0  0
   30.6451   -2.7114    0.0000 C   0  0  0  0  0  0  0  0  0  0  0  0
   30.8295   -1.2228    0.0000 O   0  0  0  0  0  0  0  0  0  0  0  0
   29.3436   -4.9600    0.0000 C   0  0  0  0  0  0  0  0  0  0  0  0
   30.7851   -5.3749    0.0000 O   0  0  0  0  0  0  0  0  0  0  0  0
   28.0438   -5.7086    0.0000 N   0  0  0  0  0  0  0  0  0  0  0  0
   28.0422   -7.2086    0.0000 C   0  0  0  0  0  0  0  0  0  0  0  0
   29.5197   -6.9497    0.0000 C   0  0  0  0  0  0  0  0  0  0  0  0
   30.0342   -5.5407    0.0000 C   0  0  0  0  0  0  0  0  0  0  0  0
   31.5117   -5.2818    0.0000 C   0  0  0  0  0  0  0  0  0  0  0  0
   32.1942   -3.9461    0.0000 O   0  0  0  0  0  0  0  0  0  0  0  0
   32.4747   -6.4319    0.0000 O   0  0  0  0  0  0  0  0  0  0  0  0
   27.5277   -8.6176    0.0000 C   0  0  0  0  0  0  0  0  0  0  0  0
   28.7403   -9.5005    0.0000 O   0  0  0  0  0  0  0  0  0  0  0  0
   26.0502   -8.8765    0.0000 N   0  0  0  0  0  0  0  0  0  0  0  0
   25.5356  -10.2855    0.0000 C   0  0  0  0  0  0  0  0  0  0  0  0
   27.0126  -10.5475    0.0000 C   0  0  0  0  0  0  0  0  0  0  0  0
   27.9780   -9.3995    0.0000 C   0  0  0  0  0  0  0  0  0  0  0  0
   29.4549   -9.6615    0.0000 C   0  0  0  0  0  0  0  0  0  0  0  0
   30.5530   -8.6397    0.0000 O   0  0  0  0  0  0  0  0  0  0  0  0
   29.9664  -11.0716    0.0000 O   0  0  0  0  0  0  0  0  0  0  0  0
   24.5702  -11.4335    0.0000 C   0  0  0  0  0  0  0  0  0  0  0  0
   25.4077  -12.6779    0.0000 O   0  0  0  0  0  0  0  0  0  0  0  0
   23.0933  -11.1714    0.0000 N   0  0  0  0  0  0  0  0  0  0  0  0
   22.1279  -12.3195    0.0000 C   0  0  0  0  0  0  0  0  0  0  0  0
   23.4261  -13.0709    0.0000 C   0  0  0  0  0  0  0  0  0  0  0  0
   24.7259  -12.3223    0.0000 C   0  0  0  0  0  0  0  0  0  0  0  0
   26.0242  -13.0736    0.0000 C   0  0  0  0  0  0  0  0  0  0  0  0
   25.6914  -11.1742    0.0000 C   0  0  0  0  0  0  0  0  0  0  0  0
   20.8280  -13.0681    0.0000 C   0  0  0  0  0  0  0  0  0  0  0  0
   21.0093  -14.5571    0.0000 O   0  0  0  0  0  0  0  0  0  0  0  0
   19.5298  -12.3167    0.0000 N   0  0  0  0  0  0  0  0  0  0  0  0
   18.2300  -13.0653    0.0000 C   0  0  0  0  0  0  0  0  0  0  0  0
   19.1929  -14.2154    0.0000 C   0  0  0  0  0  0  0  0  0  0  0  0
   20.6909  -14.1385    0.0000 C   0  0  0  0  0  0  0  0  0  0  0  0
   16.7525  -13.3242    0.0000 C   0  0  0  0  0  0  0  0  0  0  0  0
   16.4135  -14.7854    0.0000 O   0  0  0  0  0  0  0  0  0  0  0  0
   15.7895  -12.1741    0.0000 N   0  0  0  0  0  0  0  0  0  0  0  0
   14.3120  -12.4330    0.0000 C   0  0  0  0  0  0  0  0  0  0  0  0
   14.8235  -13.8431    0.0000 C   0  0  0  0  0  0  0  0  0  0  0  0
   12.8351  -12.1709    0.0000 C   0  0  0  0  0  0  0  0  0  0  0  0
   12.1762  -13.5184    0.0000 O   0  0  0  0  0  0  0  0  0  0  0  0
   12.3236  -10.7608    0.0000 N   0  0  0  0  0  0  0  0  0  0  0  0
   10.8466  -10.4988    0.0000 C   0  0  0  0  0  0  0  0  0  0  0  0
   10.8450  -11.9988    0.0000 C   0  0  0  0  0  0  0  0  0  0  0  0
   12.1433  -12.7502    0.0000 C   0  0  0  0  0  0  0  0  0  0  0  0
   12.1417  -14.2502    0.0000 C   0  0  0  0  0  0  0  0  0  0  0  0
   13.3386  -15.1542    0.0000 O   0  0  0  0  0  0  0  0  0  0  0  0
   10.8418  -14.9988    0.0000 O   0  0  0  0  0  0  0  0  0  0  0  0
    9.5484   -9.7474    0.0000 C   0  0  0  0  0  0  0  0  0  0  0  0
    8.3495  -10.6489    0.0000 O   0  0  0  0  0  0  0  0  0  0  0  0
    9.5500   -8.2474    0.0000 N   0  0  0  0  0  0  0  0  0  0  0  0
    8.2518   -7.4960    0.0000 C   0  0  0  0  0  0  0  0  0  0  0  0
    8.0935   -8.9876    0.0000 C   0  0  0  0  0  0  0  0  0  0  0  0
    7.2888   -6.3459    0.0000 C   0  0  0  0  0  0  0  0  0  0  0  0
    5.9179   -6.9546    0.0000 O   0  0  0  0  0  0  0  0  0  0  0  0
    7.8034   -4.9369    0.0000 N   0  0  0  0  0  0  0  0  0  0  0  0
    6.8404   -3.7868    0.0000 C   0  0  0  0  0  0  0  0  0  0  0  0
    5.8750   -4.9349    0.0000 C   0  0  0  0  0  0  0  0  0  0  0  0
    6.3865   -6.3449    0.0000 C   0  0  0  0  0  0  0  0  0  0  0  0
    7.8280   -6.7599    0.0000 C   0  0  0  0  0  0  0  0  0  0  0  0
    7.8787   -8.2591    0.0000 N   0  0  0  0  0  0  0  0  0  0  0  0
    6.4686   -8.7706    0.0000 C   0  0  0  0  0  0  0  0  0  0  0  0
    5.5464   -7.5876    0.0000 N   0  0  0  0  0  0  0  0  0  0  0  0
    6.3289   -2.3767    0.0000 C   0  0  0  0  0  0  0  0  0  0  0  0
    4.8324   -2.4798    0.0000 O   0  0  0  0  0  0  0  0  0  0  0  0
    7.2943   -1.2287    0.0000 N   0  0  0  0  0  0  0  0  0  0  0  0
    6.7828    0.1814    0.0000 C   0  0  0  0  0  0  0  0  0  0  0  0
    5.7465   -0.9031    0.0000 C   0  0  0  0  0  0  0  0  0  0  0  0
    4.5237   -1.7719    0.0000 C   0  0  0  0  0  0  0  0  0  0  0  0
    3.1586   -2.3935    0.0000 C   0  0  0  0  0  0  0  0  0  0  0  0
    1.7005   -2.7456    0.0000 C   0  0  0  0  0  0  0  0  0  0  0  0
    0.2021   -2.8154    0.0000 C   0  0  0  0  0  0  0  0  0  0  0  0
   -1.2824   -2.6003    0.0000 C   0  0  0  0  0  0  0  0  0  0  0  0
   -2.6994   -2.1082    0.0000 C   0  0  0  0  0  0  0  0  0  0  0  0
    8.2734    0.0135    0.0000 C   0  0  0  0  0  0  0  0  0  0  0  0
    7.5951    1.4424    0.0000 C   0  0  0  0  0  0  0  0  0  0  0  0
    9.0016    0.9212    0.0000 O   0  0  0  0  0  0  0  0  0  0  0  0
    8.1541    2.8344    0.0000 N   0  0  0  0  0  0  0  0  0  0  0  0
    8.4395    4.3069    0.0000 C   0  0  0  0  0  0  0  0  0  0  0  0
    9.7842    4.9716    0.0000 C   0  0  0  0  0  0  0  0  0  0  0  0
   11.0322    4.1394    0.0000 C   0  0  0  0  0  0  0  0  0  0  0  0
   12.3769    4.8040    0.0000 C   0  0  0  0  0  0  0  0  0  0  0  0
   11.9203    2.9305    0.0000 C   0  0  0  0  0  0  0  0  0  0  0  0
    8.4411    5.8069    0.0000 C   0  0  0  0  0  0  0  0  0  0  0  0
    9.9062    6.1289    0.0000 O   0  0  0  0  0  0  0  0  0  0  0  0
    8.1588    7.2801    0.0000 N   0  0  0  0  0  0  0  0  0  0  0  0
    7.6028    8.6733    0.0000 C   0  0  0  0  0  0  0  0  0  0  0  0
    8.3747    9.9594    0.0000 C   0  0  0  0  0  0  0  0  0  0  0  0
    9.8745    9.9340    0.0000 S   0  0  0  0  0  0  0  0  0  0  0  0
    6.7932    9.9360    0.0000 C   0  0  0  0  0  0  0  0  0  0  0  0
    7.8516   10.9990    0.0000 O   0  0  0  0  0  0  0  0  0  0  0  0
    5.7593   11.0227    0.0000 N   0  0  0  0  0  0  0  0  0  0  0  0
    4.5383   11.8941    0.0000 C   0  0  0  0  0  0  0  0  0  0  0  0
    4.4924   13.3934    0.0000 C   0  0  0  0  0  0  0  0  0  0  0  0
    4.1103   14.8440    0.0000 O   0  0  0  0  0  0  0  0  0  0  0  0
    5.7678   14.1829    0.0000 C   0  0  0  0  0  0  0  0  0  0  0  0
    3.1746   12.5187    0.0000 C   0  0  0  0  0  0  0  0  0  0  0  0
    3.4903   13.9851    0.0000 O   0  0  0  0  0  0  0  0  0  0  0  0
    1.7172   12.8739    0.0000 N   0  0  0  0  0  0  0  0  0  0  0  0
    0.2190   12.9469    0.0000 C   0  0  0  0  0  0  0  0  0  0  0  0
   -0.6303   14.1833    0.0000 C   0  0  0  0  0  0  0  0  0  0  0  0
    0.0159   15.5370    0.0000 C   0  0  0  0  0  0  0  0  0  0  0  0
   -0.8334   16.7734    0.0000 C   0  0  0  0  0  0  0  0  0  0  0  0
    1.0860   16.5881    0.0000 C   0  0  0  0  0  0  0  0  0  0  0  0
   -1.2660   12.7350    0.0000 C   0  0  0  0  0  0  0  0  0  0  0  0
   -1.7931   14.1393    0.0000 O   0  0  0  0  0  0  0  0  0  0  0  0
   -2.6840   12.2459    0.0000 N   0  0  0  0  0  0  0  0  0  0  0  0
   -3.9838   11.4973    0.0000 C   0  0  0  0  0  0  0  0  0  0  0  0
   -5.3667   12.0783    0.0000 C   0  0  0  0  0  0  0  0  0  0  0  0
   -5.5550   13.5665    0.0000 C   0  0  0  0  0  0  0  0  0  0  0  0
   -6.9379   14.1475    0.0000 C   0  0  0  0  0  0  0  0  0  0  0  0
   -5.2230   15.0292    0.0000 C   0  0  0  0  0  0  0  0  0  0  0  0
   -5.1185   10.5162    0.0000 C   0  0  0  0  0  0  0  0  0  0  0  0
   -6.3212   11.4126    0.0000 O   0  0  0  0  0  0  0  0  0  0  0  0
   -6.0470    9.3382    0.0000 N   0  0  0  0  0  0  0  0  0  0  0  0
   -6.7358    8.0056    0.0000 C   0  0  0  0  0  0  0  0  0  0  0  0
   -8.2133    7.7468    0.0000 C   0  0  0  0  0  0  0  0  0  0  0  0
   -9.1762    8.8968    0.0000 C   0  0  0  0  0  0  0  0  0  0  0  0
  -10.6537    8.6380    0.0000 C   0  0  0  0  0  0  0  0  0  0  0  0
  -11.6166    9.7881    0.0000 O   0  0  0  0  0  0  0  0  0  0  0  0
  -11.1682    7.2290    0.0000 O   0  0  0  0  0  0  0  0  0  0  0  0
   -7.1599    6.5669    0.0000 C   0  0  0  0  0  0  0  0  0  0  0  0
   -8.6563    6.6707    0.0000 O   0  0  0  0  0  0  0  0  0  0  0  0
   -7.3041    5.0738    0.0000 N   0  0  0  0  0  0  0  0  0  0  0  0
   -7.1631    3.5804    0.0000 C   0  0  0  0  0  0  0  0  0  0  0  0
   -6.7420    2.1407    0.0000 C   0  0  0  0  0  0  0  0  0  0  0  0
   -6.0561    0.8068    0.0000 C   0  0  0  0  0  0  0  0  0  0  0  0
   -5.1302   -0.3733    0.0000 C   0  0  0  0  0  0  0  0  0  0  0  0
   -3.9976   -1.3568    0.0000 C   0  0  0  0  0  0  0  0  0  0  0  0
   -8.5638    4.1173    0.0000 C   0  0  0  0  0  0  0  0  0  0  0  0
   -8.2661    2.5639    0.0000 C   0  0  0  0  0  0  0  0  0  0  0  0
   -8.3011    1.0643    0.0000 O   0  0  0  0  0  0  0  0  0  0  0  0
   -9.6980    3.0108    0.0000 N   0  0  0  0  0  0  0  0  0  0  0  0
  -10.8009    1.9942    0.0000 C   0  0  0  0  0  0  0  0  0  0  0  0
  -11.4897    0.6617    0.0000 C   0  0  0  0  0  0  0  0  0  0  0  0
  -12.2328    2.4411    0.0000 C   0  0  0  0  0  0  0  0  0  0  0  0
  -12.5617    3.9046    0.0000 O   0  0  0  0  0  0  0  0  0  0  0  0
  -13.3358    1.4245    0.0000 N   0  0  0  0  0  0  0  0  0  0  0  0
  -14.7677    1.8714    0.0000 C   0  0  0  0  0  0  0  0  0  0  0  0
  -15.9603    2.7811    0.0000 C   0  0  0  0  0  0  0  0  0  0  0  0
  -15.5889    4.2344    0.0000 C   0  0  0  0  0  0  0  0  0  0  0  0
  -17.3922    3.2280    0.0000 C   0  0  0  0  0  0  0  0  0  0  0  0
  -17.7211    4.6915    0.0000 C   0  0  0  0  0  0  0  0  0  0  0  0
  -15.8706    0.8548    0.0000 C   0  0  0  0  0  0  0  0  0  0  0  0
  -15.5417   -0.6086    0.0000 O   0  0  0  0  0  0  0  0  0  0  0  0
  -17.3025    1.3018    0.0000 N   0  0  0  0  0  0  0  0  0  0  0  0
  -18.4055    0.2852    0.0000 C   0  0  0  0  0  0  0  0  0  0  0  0
  -19.0943   -1.0473    0.0000 C   0  0  0  0  0  0  0  0  0  0  0  0
  -20.5926   -1.1171    0.0000 C   0  0  0  0  0  0  0  0  0  0  0  0
  -21.2814   -2.4496    0.0000 C   0  0  0  0  0  0  0  0  0  0  0  0
  -22.7601   -2.7015    0.0000 N   0  0  0  0  0  0  0  0  0  0  0  0
  -20.4718   -3.7124    0.0000 O   0  0  0  0  0  0  0  0  0  0  0  0
  -19.8374    0.7321    0.0000 C   0  0  0  0  0  0  0  0  0  0  0  0
  -20.1663    2.1956    0.0000 O   0  0  0  0  0  0  0  0  0  0  0  0
  -20.9403   -0.2845    0.0000 N   0  0  0  0  0  0  0  0  0  0  0  0
  -22.3722    0.1624    0.0000 C   0  0  0  0  0  0  0  0  0  0  0  0
  -23.5649    1.0721    0.0000 C   0  0  0  0  0  0  0  0  0  0  0  0
  -23.3734    2.5598    0.0000 C   0  0  0  0  0  0  0  0  0  0  0  0
  -24.5661    3.4695    0.0000 O   0  0  0  0  0  0  0  0  0  0  0  0
  -21.9893    3.1379    0.0000 O   0  0  0  0  0  0  0  0  0  0  0  0
  -23.4752   -0.8542    0.0000 C   0  0  0  0  0  0  0  0  0  0  0  0
  -23.3271   -2.3468    0.0000 O   0  0  0  0  0  0  0  0  0  0  0  0
  -24.9071   -0.4072    0.0000 N   0  0  0  0  0  0  0  0  0  0  0  0
  -26.0100   -1.4238    0.0000 C   0  0  0  0  0  0  0  0  0  0  0  0
  -26.6988   -2.7563    0.0000 C   0  0  0  0  0  0  0  0  0  0  0  0
  -26.8903   -4.2441    0.0000 O   0  0  0  0  0  0  0  0  0  0  0  0
  -28.1775   -3.0082    0.0000 C   0  0  0  0  0  0  0  0  0  0  0  0
  -27.4419   -0.9769    0.0000 C   0  0  0  0  0  0  0  0  0  0  0  0
  -27.7708    0.4866    0.0000 O   0  0  0  0  0  0  0  0  0  0  0  0
  -28.5449   -1.9935    0.0000 N   0  0  0  0  0  0  0  0  0  0  0  0
  -29.9768   -1.5466    0.0000 C   0  0  0  0  0  0  0  0  0  0  0  0
  -31.1694   -0.6369    0.0000 C   0  0  0  0  0  0  0  0  0  0  0  0
  -30.9780    0.8508    0.0000 C   0  0  0  0  0  0  0  0  0  0  0  0
  -31.0798   -2.5632    0.0000 C   0  0  0  0  0  0  0  0  0  0  0  0
  -30.7509   -4.0267    0.0000 O   0  0  0  0  0  0  0  0  0  0  0  0
  -32.5116   -2.1163    0.0000 N   0  0  0  0  0  0  0  0  0  0  0  0
  -33.6146   -3.1328    0.0000 C   0  0  0  0  0  0  0  0  0  0  0  0
  -34.3034   -4.4654    0.0000 C   0  0  0  0  0  0  0  0  0  0  0  0
  -35.8018   -4.5351    0.0000 C   0  0  0  0  0  0  0  0  0  0  0  0
  -36.4905   -5.8676    0.0000 C   0  0  0  0  0  0  0  0  0  0  0  0
  -37.9889   -5.9374    0.0000 N   0  0  0  0  0  0  0  0  0  0  0  0
  -38.6777   -7.2699    0.0000 C   0  0  0  0  0  0  0  0  0  0  0  0
  -40.1734   -7.1565    0.0000 N   0  0  0  0  0  0  0  0  0  0  0  0
  -37.8681   -8.5327    0.0000 N   0  0  0  0  0  0  0  0  0  0  0  0
  -35.0465   -2.6859    0.0000 C   0  0  0  0  0  0  0  0  0  0  0  0
  -35.3754   -1.2224    0.0000 O   0  0  0  0  0  0  0  0  0  0  0  0
  -36.1495   -3.7025    0.0000 N   0  0  0  0  0  0  0  0  0  0  0  0
  -37.5813   -3.2556    0.0000 C   0  0  0  0  0  0  0  0  0  0  0  0
  -38.7740   -2.3459    0.0000 C   0  0  0  0  0  0  0  0  0  0  0  0
  -38.5825   -0.8582    0.0000 C   0  0  0  0  0  0  0  0  0  0  0  0
  -39.7752    0.0515    0.0000 C   0  0  0  0  0  0  0  0  0  0  0  0
  -39.5837    1.5392    0.0000 O   0  0  0  0  0  0  0  0  0  0  0  0
  -41.1593   -0.5265    0.0000 O   0  0  0  0  0  0  0  0  0  0  0  0
  -38.6843   -4.2722    0.0000 C   0  0  0  0  0  0  0  0  0  0  0  0
  -38.7193   -5.7718    0.0000 O   0  0  0  0  0  0  0  0  0  0  0  0
  -40.1162   -3.8253    0.0000 N   0  0  0  0  0  0  0  0  0  0  0  0
  -41.2192   -4.8418    0.0000 C   0  0  0  0  0  0  0  0  0  0  0  0
  -41.9079   -6.1744    0.0000 C   0  0  0  0  0  0  0  0  0  0  0  0
  -43.4063   -6.2441    0.0000 C   0  0  0  0  0  0  0  0  0  0  0  0
  -44.0951   -7.5767    0.0000 C   0  0  0  0  0  0  0  0  0  0  0  0
  -45.5935   -7.6464    0.0000 N   0  0  0  0  0  0  0  0  0  0  0  0
  -43.2855   -8.8394    0.0000 O   0  0  0  0  0  0  0  0  0  0  0  0
  -42.6510   -4.3949    0.0000 C   0  0  0  0  0  0  0  0  0  0  0  0
  -43.8697   -5.2695    0.0000 O   0  0  0  0  0  0  0  0  0  0  0  0
  -42.9799   -2.9314    0.0000 O   0  0  0  0  0  0  0  0  0  0  0  0
   28.6975    5.7045    0.0000 H   0  0  0  0  0  0  0  0  0  0  0  0
   33.1493    5.1004    0.0000 H   0  0  0  0  0  0  0  0  0  0  0  0
   35.0801    7.3964    0.0000 H   0  0  0  0  0  0  0  0  0  0  0  0
   29.1528    8.0795    0.0000 H   0  0  0  0  0  0  0  0  0  0  0  0
   28.6587   15.2258    0.0000 H   0  0  0  0  0  0  0  0  0  0  0  0
   33.8519   15.4016    0.0000 H   0  0  0  0  0  0  0  0  0  0  0  0
   33.9534   12.4033    0.0000 H   0  0  0  0  0  0  0  0  0  0  0  0
   32.4775   17.6063    0.0000 H   0  0  0  0  0  0  0  0  0  0  0  0
   31.5090    7.8180    0.0000 H   0  0  0  0  0  0  0  0  0  0  0  0
   28.7801    6.2359    0.0000 H   0  0  0  0  0  0  0  0  0  0  0  0
   26.2143   10.6405    0.0000 H   0  0  0  0  0  0  0  0  0  0  0  0
   24.9922    8.3478    0.0000 H   0  0  0  0  0  0  0  0  0  0  0  0
   28.2646    3.3284    0.0000 H   0  0  0  0  0  0  0  0  0  0  0  0
   31.5529    2.4049    0.0000 H   0  0  0  0  0  0  0  0  0  0  0  0
   31.2160    0.5062    0.0000 H   0  0  0  0  0  0  0  0  0  0  0  0
   28.3247    1.6583    0.0000 H   0  0  0  0  0  0  0  0  0  0  0  0
   27.9878   -0.2404    0.0000 H   0  0  0  0  0  0  0  0  0  0  0  0
   27.3568   -1.7878    0.0000 H   0  0  0  0  0  0  0  0  0  0  0  0
   27.8678   -3.7189    0.0000 H   0  0  0  0  0  0  0  0  0  0  0  0
   32.1226   -2.4525    0.0000 H   0  0  0  0  0  0  0  0  0  0  0  0
   31.3247   -4.0486    0.0000 H   0  0  0  0  0  0  0  0  0  0  0  0
   31.9465   -0.4628    0.0000 H   0  0  0  0  0  0  0  0  0  0  0  0
   26.7456   -4.9572    0.0000 H   0  0  0  0  0  0  0  0  0  0  0  0
   26.5653   -6.9465    0.0000 H   0  0  0  0  0  0  0  0  0  0  0  0
   30.9966   -7.2118    0.0000 H   0  0  0  0  0  0  0  0  0  0  0  0
   29.7009   -8.4387    0.0000 H   0  0  0  0  0  0  0  0  0  0  0  0
   30.0358   -4.0407    0.0000 H   0  0  0  0  0  0  0  0  0  0  0  0
   28.6646   -4.9291    0.0000 H   0  0  0  0  0  0  0  0  0  0  0  0
   33.9521   -6.1730    0.0000 H   0  0  0  0  0  0  0  0  0  0  0  0
   25.0872   -7.7264    0.0000 H   0  0  0  0  0  0  0  0  0  0  0  0
   24.3387   -9.3814    0.0000 H   0  0  0  0  0  0  0  0  0  0  0  0
   28.3108  -11.2989    0.0000 H   0  0  0  0  0  0  0  0  0  0  0  0
   26.8542  -12.0391    0.0000 H   0  0  0  0  0  0  0  0  0  0  0  0
   28.4925   -7.9905    0.0000 H   0  0  0  0  0  0  0  0  0  0  0  0
   26.9001   -8.3563    0.0000 H   0  0  0  0  0  0  0  0  0  0  0  0
   31.4433  -11.3337    0.0000 H   0  0  0  0  0  0  0  0  0  0  0  0
   22.5818   -9.7614    0.0000 H   0  0  0  0  0  0  0  0  0  0  0  0
   21.1649  -11.1694    0.0000 H   0  0  0  0  0  0  0  0  0  0  0  0
   24.2417  -14.3298    0.0000 H   0  0  0  0  0  0  0  0  0  0  0  0
   22.4607  -14.2189    0.0000 H   0  0  0  0  0  0  0  0  0  0  0  0
   24.0699  -10.9733    0.0000 H   0  0  0  0  0  0  0  0  0  0  0  0
   27.4665  -12.6618    0.0000 H   0  0  0  0  0  0  0  0  0  0  0  0
   26.9871  -14.2237    0.0000 H   0  0  0  0  0  0  0  0  0  0  0  0
   25.2059  -14.3308    0.0000 H   0  0  0  0  0  0  0  0  0  0  0  0
   27.1683  -11.4363    0.0000 H   0  0  0  0  0  0  0  0  0  0  0  0
   26.5315   -9.9316    0.0000 H   0  0  0  0  0  0  0  0  0  0  0  0
   24.3112  -10.5867    0.0000 H   0  0  0  0  0  0  0  0  0  0  0  0
   19.5314  -10.8167    0.0000 H   0  0  0  0  0  0  0  0  0  0  0  0
   17.7184  -11.6552    0.0000 H   0  0  0  0  0  0  0  0  0  0  0  0
   19.7044  -15.6255    0.0000 H   0  0  0  0  0  0  0  0  0  0  0  0
   17.8931  -14.9640    0.0000 H   0  0  0  0  0  0  0  0  0  0  0  0
   21.6333  -15.1066    0.0000 H   0  0  0  0  0  0  0  0  0  0  0  0
   21.9702  -13.2079    0.0000 H   0  0  0  0  0  0  0  0  0  0  0  0
   20.5599  -12.4650    0.0000 H   0  0  0  0  0  0  0  0  0  0  0  0
   16.3041  -10.7651    0.0000 H   0  0  0  0  0  0  0  0  0  0  0  0
   14.3136  -10.9330    0.0000 H   0  0  0  0  0  0  0  0  0  0  0  0
   16.2575  -14.2832    0.0000 H   0  0  0  0  0  0  0  0  0  0  0  0
   14.8219  -15.3431    0.0000 H   0  0  0  0  0  0  0  0  0  0  0  0
   13.3886  -14.2801    0.0000 H   0  0  0  0  0  0  0  0  0  0  0  0
   13.2890   -9.6128    0.0000 H   0  0  0  0  0  0  0  0  0  0  0  0
   11.3612   -9.0898    0.0000 H   0  0  0  0  0  0  0  0  0  0  0  0
   10.3305  -13.4078    0.0000 H   0  0  0  0  0  0  0  0  0  0  0  0
    9.3681  -11.7367    0.0000 H   0  0  0  0  0  0  0  0  0  0  0  0
   13.6202  -13.0122    0.0000 H   0  0  0  0  0  0  0  0  0  0  0  0
   12.9835  -11.5076    0.0000 H   0  0  0  0  0  0  0  0  0  0  0  0
   10.8402  -16.4988    0.0000 H   0  0  0  0  0  0  0  0  0  0  0  0
   10.8499   -7.4988    0.0000 H   0  0  0  0  0  0  0  0  0  0  0  0
    9.3499   -6.4742    0.0000 H   0  0  0  0  0  0  0  0  0  0  0  0
    8.5655  -10.1211    0.0000 H   0  0  0  0  0  0  0  0  0  0  0  0
    6.9115  -10.2062    0.0000 H   0  0  0  0  0  0  0  0  0  0  0  0
    6.2864   -8.5787    0.0000 H   0  0  0  0  0  0  0  0  0  0  0  0
    9.2809   -4.6780    0.0000 H   0  0  0  0  0  0  0  0  0  0  0  0
    8.1403   -3.0382    0.0000 H   0  0  0  0  0  0  0  0  0  0  0  0
    4.5752   -5.6835    0.0000 H   0  0  0  0  0  0  0  0  0  0  0  0
    4.9121   -3.7848    0.0000 H   0  0  0  0  0  0  0  0  0  0  0  0
    8.8897   -5.7004    0.0000 H   0  0  0  0  0  0  0  0  0  0  0  0
    8.8812   -9.3749    0.0000 H   0  0  0  0  0  0  0  0  0  0  0  0
    5.8810  -10.1507    0.0000 H   0  0  0  0  0  0  0  0  0  0  0  0
    8.7283   -1.6688    0.0000 H   0  0  0  0  0  0  0  0  0  0  0  0
    7.0277   -1.6832    0.0000 H   0  0  0  0  0  0  0  0  0  0  0  0
    5.7996   -2.4022    0.0000 H   0  0  0  0  0  0  0  0  0  0  0  0
    5.5029   -2.9082    0.0000 H   0  0  0  0  0  0  0  0  0  0  0  0
    4.4745   -3.2711    0.0000 H   0  0  0  0  0  0  0  0  0  0  0  0
    4.3218   -3.3406    0.0000 H   0  0  0  0  0  0  0  0  0  0  0  0
    3.0073   -3.8859    0.0000 H   0  0  0  0  0  0  0  0  0  0  0  0
    2.5161   -4.0045    0.0000 H   0  0  0  0  0  0  0  0  0  0  0  0
    1.2696   -4.1824    0.0000 H   0  0  0  0  0  0  0  0  0  0  0  0
    0.7647   -4.2059    0.0000 H   0  0  0  0  0  0  0  0  0  0  0  0
   -0.4929   -4.1446    0.0000 H   0  0  0  0  0  0  0  0  0  0  0  0
   -0.9931   -4.0722    0.0000 H   0  0  0  0  0  0  0  0  0  0  0  0
   -2.3525   -3.6514    0.0000 H   0  0  0  0  0  0  0  0  0  0  0  0
   -3.3239   -3.4720    0.0000 H   0  0  0  0  0  0  0  0  0  0  0  0
    9.0364   -1.2779    0.0000 H   0  0  0  0  0  0  0  0  0  0  0  0
    9.7635    0.1853    0.0000 H   0  0  0  0  0  0  0  0  0  0  0  0
    8.5449    1.4888    0.0000 H   0  0  0  0  0  0  0  0  0  0  0  0
    9.5304    2.2380    0.0000 H   0  0  0  0  0  0  0  0  0  0  0  0
    9.5124    3.2587    0.0000 H   0  0  0  0  0  0  0  0  0  0  0  0
   10.8205    6.0561    0.0000 H   0  0  0  0  0  0  0  0  0  0  0  0
    9.2151    6.3594    0.0000 H   0  0  0  0  0  0  0  0  0  0  0  0
   10.2891    2.8364    0.0000 H   0  0  0  0  0  0  0  0  0  0  0  0
   13.7170    4.1302    0.0000 H   0  0  0  0  0  0  0  0  0  0  0  0
   13.4132    5.8885    0.0000 H   0  0  0  0  0  0  0  0  0  0  0  0
   11.6428    6.1121    0.0000 H   0  0  0  0  0  0  0  0  0  0  0  0
   13.4202    2.9122    0.0000 H   0  0  0  0  0  0  0  0  0  0  0  0
   12.3413    1.4908    0.0000 H   0  0  0  0  0  0  0  0  0  0  0  0
   10.5756    2.2659    0.0000 H   0  0  0  0  0  0  0  0  0  0  0  0
    9.5985    7.7012    0.0000 H   0  0  0  0  0  0  0  0  0  0  0  0
    9.0980    8.5528    0.0000 H   0  0  0  0  0  0  0  0  0  0  0  0
    8.8376   11.3862    0.0000 H   0  0  0  0  0  0  0  0  0  0  0  0
    7.1456   10.8192    0.0000 H   0  0  0  0  0  0  0  0  0  0  0  0
   10.6464   11.2202    0.0000 H   0  0  0  0  0  0  0  0  0  0  0  0
    6.8735   12.0270    0.0000 H   0  0  0  0  0  0  0  0  0  0  0  0
    5.9376   12.4346    0.0000 H   0  0  0  0  0  0  0  0  0  0  0  0
    2.9935   13.4522    0.0000 H   0  0  0  0  0  0  0  0  0  0  0  0
    4.7226   16.0483    0.0000 H   0  0  0  0  0  0  0  0  0  0  0  0
    5.9049   15.6766    0.0000 H   0  0  0  0  0  0  0  0  0  0  0  0
    7.2363   14.4885    0.0000 H   0  0  0  0  0  0  0  0  0  0  0  0
    6.6444   12.9657    0.0000 H   0  0  0  0  0  0  0  0  0  0  0  0
    2.1116   14.3211    0.0000 H   0  0  0  0  0  0  0  0  0  0  0  0
    1.1039   14.1580    0.0000 H   0  0  0  0  0  0  0  0  0  0  0  0
   -1.8512   15.0547    0.0000 H   0  0  0  0  0  0  0  0  0  0  0  0
   -1.9230   13.4224    0.0000 H   0  0  0  0  0  0  0  0  0  0  0  0
    1.4114   14.9870    0.0000 H   0  0  0  0  0  0  0  0  0  0  0  0
   -0.3571   18.1958    0.0000 H   0  0  0  0  0  0  0  0  0  0  0  0
   -2.0543   17.6448    0.0000 H   0  0  0  0  0  0  0  0  0  0  0  0
   -2.0237   15.8607    0.0000 H   0  0  0  0  0  0  0  0  0  0  0  0
    0.8907   18.0753    0.0000 H   0  0  0  0  0  0  0  0  0  0  0  0
    2.4512   17.2097    0.0000 H   0  0  0  0  0  0  0  0  0  0  0  0
    1.9353   15.3517    0.0000 H   0  0  0  0  0  0  0  0  0  0  0  0
   -3.1346   13.6766    0.0000 H   0  0  0  0  0  0  0  0  0  0  0  0
   -3.8942   12.9946    0.0000 H   0  0  0  0  0  0  0  0  0  0  0  0
   -6.8650   12.1513    0.0000 H   0  0  0  0  0  0  0  0  0  0  0  0
   -6.0429   10.7393    0.0000 H   0  0  0  0  0  0  0  0  0  0  0  0
   -4.0837   13.8582    0.0000 H   0  0  0  0  0  0  0  0  0  0  0  0
   -7.3062   15.6015    0.0000 H   0  0  0  0  0  0  0  0  0  0  0  0
   -8.4362   14.2204    0.0000 H   0  0  0  0  0  0  0  0  0  0  0  0
   -7.4458   12.7360    0.0000 H   0  0  0  0  0  0  0  0  0  0  0  0
   -6.1914   16.1748    0.0000 H   0  0  0  0  0  0  0  0  0  0  0  0
   -4.4107   16.2903    0.0000 H   0  0  0  0  0  0  0  0  0  0  0  0
   -3.8401   14.4482    0.0000 H   0  0  0  0  0  0  0  0  0  0  0  0
   -7.1996   10.2981    0.0000 H   0  0  0  0  0  0  0  0  0  0  0  0
   -7.4699    9.3137    0.0000 H   0  0  0  0  0  0  0  0  0  0  0  0
   -9.5947    7.1622    0.0000 H   0  0  0  0  0  0  0  0  0  0  0  0
   -8.0581    6.2548    0.0000 H   0  0  0  0  0  0  0  0  0  0  0  0
   -9.6877   10.3069    0.0000 H   0  0  0  0  0  0  0  0  0  0  0  0
   -8.0961    9.9377    0.0000 H   0  0  0  0  0  0  0  0  0  0  0  0
  -12.6457    6.9701    0.0000 H   0  0  0  0  0  0  0  0  0  0  0  0
   -8.7927    5.2582    0.0000 H   0  0  0  0  0  0  0  0  0  0  0  0
   -7.6327    0.9338    0.0000 H   0  0  0  0  0  0  0  0  0  0  0  0
   -8.2385    2.0376    0.0000 H   0  0  0  0  0  0  0  0  0  0  0  0
   -6.8625   -0.4581    0.0000 H   0  0  0  0  0  0  0  0  0  0  0  0
   -7.5060    0.4223    0.0000 H   0  0  0  0  0  0  0  0  0  0  0  0
   -5.5084   -1.8248    0.0000 H   0  0  0  0  0  0  0  0  0  0  0  0
   -6.5505   -0.8557    0.0000 H   0  0  0  0  0  0  0  0  0  0  0  0
   -4.8690   -2.5777    0.0000 H   0  0  0  0  0  0  0  0  0  0  0  0
   -9.9229    3.4827    0.0000 H   0  0  0  0  0  0  0  0  0  0  0  0
   -9.6963    5.1008    0.0000 H   0  0  0  0  0  0  0  0  0  0  0  0
   -8.1260    5.5520    0.0000 H   0  0  0  0  0  0  0  0  0  0  0  0
  -10.2028    4.4233    0.0000 H   0  0  0  0  0  0  0  0  0  0  0  0
   -9.6083    1.0845    0.0000 H   0  0  0  0  0  0  0  0  0  0  0  0
  -12.8635    0.0595    0.0000 H   0  0  0  0  0  0  0  0  0  0  0  0
  -11.6812   -0.8261    0.0000 H   0  0  0  0  0  0  0  0  0  0  0  0
  -10.0578    0.2148    0.0000 H   0  0  0  0  0  0  0  0  0  0  0  0
  -13.1877   -0.0682    0.0000 H   0  0  0  0  0  0  0  0  0  0  0  0
  -13.9216    3.1101    0.0000 H   0  0  0  0  0  0  0  0  0  0  0  0
  -16.9511    1.6549    0.0000 H   0  0  0  0  0  0  0  0  0  0  0  0
  -16.8362    5.3388    0.0000 H   0  0  0  0  0  0  0  0  0  0  0  0
  -15.0801    5.6014    0.0000 H   0  0  0  0  0  0  0  0  0  0  0  0
  -14.2932    3.9998    0.0000 H   0  0  0  0  0  0  0  0  0  0  0  0
  -18.8906    3.1583    0.0000 H   0  0  0  0  0  0  0  0  0  0  0  0
  -17.9380    1.8309    0.0000 H   0  0  0  0  0  0  0  0  0  0  0  0
  -19.1530    5.1384    0.0000 H   0  0  0  0  0  0  0  0  0  0  0  0
  -17.5296    6.1793    0.0000 H   0  0  0  0  0  0  0  0  0  0  0  0
  -16.2841    5.1218    0.0000 H   0  0  0  0  0  0  0  0  0  0  0  0
  -17.9758    2.6422    0.0000 H   0  0  0  0  0  0  0  0  0  0  0  0
  -17.2128   -0.6245    0.0000 H   0  0  0  0  0  0  0  0  0  0  0  0
  -19.2857   -2.5351    0.0000 H   0  0  0  0  0  0  0  0  0  0  0  0
  -17.6624   -1.4943    0.0000 H   0  0  0  0  0  0  0  0  0  0  0  0
  -22.0245   -0.6702    0.0000 H   0  0  0  0  0  0  0  0  0  0  0  0
  -21.1222    0.2863    0.0000 H   0  0  0  0  0  0  0  0  0  0  0  0
  -23.4685   -3.8519    0.0000 H   0  0  0  0  0  0  0  0  0  0  0  0
  -23.9144   -1.5002    0.0000 H   0  0  0  0  0  0  0  0  0  0  0  0
  -20.9753   -1.7841    0.0000 H   0  0  0  0  0  0  0  0  0  0  0  0
  -21.6835    1.4949    0.0000 H   0  0  0  0  0  0  0  0  0  0  0  0
  -24.9316    1.6902    0.0000 H   0  0  0  0  0  0  0  0  0  0  0  0
  -24.5556   -0.0541    0.0000 H   0  0  0  0  0  0  0  0  0  0  0  0
  -21.7978    4.6256    0.0000 H   0  0  0  0  0  0  0  0  0  0  0  0
  -25.4119    1.0052    0.0000 H   0  0  0  0  0  0  0  0  0  0  0  0
  -24.8174   -2.3335    0.0000 H   0  0  0  0  0  0  0  0  0  0  0  0
  -25.2669   -3.2033    0.0000 H   0  0  0  0  0  0  0  0  0  0  0  0
  -28.1937   -4.9865    0.0000 H   0  0  0  0  0  0  0  0  0  0  0  0
  -29.0433   -4.0647    0.0000 H   0  0  0  0  0  0  0  0  0  0  0  0
  -29.6291   -2.3792    0.0000 H   0  0  0  0  0  0  0  0  0  0  0  0
  -28.7267   -1.4227    0.0000 H   0  0  0  0  0  0  0  0  0  0  0  0
  -28.3969   -3.4862    0.0000 H   0  0  0  0  0  0  0  0  0  0  0  0
  -29.1307   -0.3080    0.0000 H   0  0  0  0  0  0  0  0  0  0  0  0
  -32.5362   -0.0188    0.0000 H   0  0  0  0  0  0  0  0  0  0  0  0
  -32.1602   -1.7631    0.0000 H   0  0  0  0  0  0  0  0  0  0  0  0
  -32.1706    1.7605    0.0000 H   0  0  0  0  0  0  0  0  0  0  0  0
  -30.2892    2.1834    0.0000 H   0  0  0  0  0  0  0  0  0  0  0  0
  -29.5023    0.5818    0.0000 H   0  0  0  0  0  0  0  0  0  0  0  0
  -33.0165   -0.7038    0.0000 H   0  0  0  0  0  0  0  0  0  0  0  0
  -32.4219   -4.0425    0.0000 H   0  0  0  0  0  0  0  0  0  0  0  0
  -34.3121   -5.9653    0.0000 H   0  0  0  0  0  0  0  0  0  0  0  0
  -32.8715   -4.9123    0.0000 H   0  0  0  0  0  0  0  0  0  0  0  0
  -37.2336   -4.0882    0.0000 H   0  0  0  0  0  0  0  0  0  0  0  0
  -36.3313   -3.1317    0.0000 H   0  0  0  0  0  0  0  0  0  0  0  0
  -36.6820   -7.3554    0.0000 H   0  0  0  0  0  0  0  0  0  0  0  0
  -35.1238   -6.4858    0.0000 H   0  0  0  0  0  0  0  0  0  0  0  0
  -39.0800   -4.9081    0.0000 H   0  0  0  0  0  0  0  0  0  0  0  0
  -40.8648   -8.6722    0.0000 H   0  0  0  0  0  0  0  0  0  0  0  0
  -38.5568   -9.8652    0.0000 H   0  0  0  0  0  0  0  0  0  0  0  0
  -36.3697   -8.4629    0.0000 H   0  0  0  0  0  0  0  0  0  0  0  0
  -36.1845   -5.2021    0.0000 H   0  0  0  0  0  0  0  0  0  0  0  0
  -36.7353   -2.0170    0.0000 H   0  0  0  0  0  0  0  0  0  0  0  0
  -40.1407   -1.7278    0.0000 H   0  0  0  0  0  0  0  0  0  0  0  0
  -39.7647   -3.4722    0.0000 H   0  0  0  0  0  0  0  0  0  0  0  0
  -37.8938    0.4743    0.0000 H   0  0  0  0  0  0  0  0  0  0  0  0
  -37.1068   -1.1272    0.0000 H   0  0  0  0  0  0  0  0  0  0  0  0
  -42.3520    0.3832    0.0000 H   0  0  0  0  0  0  0  0  0  0  0  0
  -40.6210   -2.4128    0.0000 H   0  0  0  0  0  0  0  0  0  0  0  0
  -40.0265   -5.7515    0.0000 H   0  0  0  0  0  0  0  0  0  0  0  0
  -42.0994   -7.6621    0.0000 H   0  0  0  0  0  0  0  0  0  0  0  0
  -40.4323   -6.4434    0.0000 H   0  0  0  0  0  0  0  0  0  0  0  0
  -44.8382   -5.7972    0.0000 H   0  0  0  0  0  0  0  0  0  0  0  0
  -43.7608   -4.7866    0.0000 H   0  0  0  0  0  0  0  0  0  0  0  0
  -46.2822   -8.9789    0.0000 H   0  0  0  0  0  0  0  0  0  0  0  0
  -46.4031   -6.3837    0.0000 H   0  0  0  0  0  0  0  0  0  0  0  0
  -44.4118   -2.4845    0.0000 H   0  0  0  0  0  0  0  0  0  0  0  0
  1  2  1  0
  2  3  1  0
  3  4  2  0
  4  5  1  0
  5  6  2  0
  6  7  1  0
  7  8  2  0
  7  9  1  0
  9 10  1  0
 10 11  1  0
 11 12  2  0
  9 13  1  0
 13 14  1  0
 14 15  2  0
 15 16  1  0
 16 17  2  0
 17 18  1  0
 16 19  1  0
 14 20  1  0
 20 21  1  0
 21 22  2  0
 22 23  1  0
 23 24  2  0
 24 25  1  0
 25 26  2  0
 25 27  1  0
  1 28  2  0
  1 29  1  0
 29 30  1  0
 30 31  1  0
 31 32  1  0
 32 33  2  0
 32 34  1  0
 34 35  1  0
 35 36  1  0
 36 37  1  0
 35 38  1  0
 38 39  2  0
 38 40  1  0
 40 41  1  0
 41 42  1  0
 42 43  1  0
 43 44  1  0
 44 45  2  0
 44 46  1  0
 41 47  1  0
 47 48  2  0
 47 49  1  0
 49 50  1  0
 50 51  1  0
 51 52  1  0
 52 53  1  0
 53 54  2  0
 53 55  1  0
 50 56  1  0
 56 57  2  0
 56 58  1  0
 58 59  1  0
 59 60  1  0
 60 61  1  0
 61 62  1  0
 61 63  1  0
 59 64  1  0
 64 65  2  0
 64 66  1  0
 66 67  1  0
 67 68  1  0
 68 69  1  0
 67 70  1  0
 70 71  2  0
 70 72  1  0
 72 73  1  0
 73 74  1  0
 73 75  1  0
 75 76  2  0
 75 77  1  0
 77 78  1  0
 78 79  1  0
 79 80  1  0
 80 81  1  0
 81 82  2  0
 81 83  1  0
 78 84  1  0
 84 85  2  0
 84 86  1  0
 86 87  1  0
 87 88  1  0
 87 89  1  0
 89 90  2  0
 89 91  1  0
 91 92  1  0
 92 93  1  0
 93 94  1  0
 94 95  2  0
 95 96  1  0
 96 97  1  0
 97 98  2  0
 92 99  1  0
 99100  2  0
 99101  1  0
102101  1  6
102103  1  0
103104  1  0
104105  1  0
105106  1  0
106107  1  0
107108  1  0
108109  1  0
102110  1  0
102111  1  0
111112  2  0
111113  1  0
113114  1  0
114115  1  0
115116  1  0
116117  1  0
116118  1  0
114119  1  0
119120  2  0
119121  1  0
121122  1  0
122123  1  0
123124  1  0
122125  1  0
125126  2  0
125127  1  0
127128  1  0
128129  1  0
129130  1  0
129131  1  0
128132  1  0
132133  2  0
132134  1  0
134135  1  0
135136  1  0
136137  1  0
137138  1  0
137139  1  0
135140  1  0
140141  2  0
140142  1  0
142143  1  0
143144  1  0
144145  1  0
145146  1  0
145147  1  0
143148  1  0
148149  2  0
148150  1  0
150151  1  0
151152  1  0
152153  1  0
153154  1  0
154155  2  0
154156  1  0
151157  1  0
157158  2  0
157159  1  0
159160  1  0
160161  1  0
161162  1  0
162163  1  0
163164  1  0
160165  1  0
160166  1  1
166167  2  0
166168  1  0
168169  1  0
169170  1  0
169171  1  0
171172  2  0
171173  1  0
173174  1  0
174175  1  0
175176  1  0
175177  1  0
177178  1  0
174179  1  0
179180  2  0
179181  1  0
181182  1  0
182183  1  0
183184  1  0
184185  1  0
185186  1  0
185187  2  0
182188  1  0
188189  2  0
188190  1  0
190191  1  0
191192  1  0
192193  1  0
193194  2  0
193195  1  0
191196  1  0
196197  2  0
196198  1  0
198199  1  0
199200  1  0
200201  1  0
200202  1  0
199203  1  0
203204  2  0
203205  1  0
205206  1  0
206207  1  0
207208  1  0
206209  1  0
209210  2  0
209211  1  0
211212  1  0
212213  1  0
213214  1  0
214215  1  0
215216  1  0
216217  1  0
217218  2  3
217219  1  0
212220  1  0
220221  2  0
220222  1  0
222223  1  0
223224  1  0
224225  1  0
225226  1  0
226227  2  0
226228  1  0
223229  1  0
229230  2  0
229231  1  0
231232  1  0
232233  1  0
233234  1  0
234235  1  0
235236  1  0
235237  2  0
232238  1  0
238239  2  0
238240  1  0
  8  3  1  0
 98 94  1  0
 11  6  1  0
109164  2  0
 18 13  2  0
 22  9  1  0
 26 21  1  0
  2241  1  0
  4242  1  0
  5243  1  0
  8244  1  0
 15245  1  0
 17246  1  0
 18247  1  0
 19248  1  0
 23249  1  0
 24250  1  0
 26251  1  0
 27252  1  0
 29253  1  0
 30254  1  0
 30255  1  0
 31256  1  0
 31257  1  0
 34258  1  0
 35259  1  1
 36260  1  0
 36261  1  0
 37262  1  0
 40263  1  0
 41264  1  1
 42265  1  0
 42266  1  0
 43267  1  0
 43268  1  0
 46269  1  0
 49270  1  0
 50271  1  1
 51272  1  0
 51273  1  0
 52274  1  0
 52275  1  0
 55276  1  0
 58277  1  0
 59278  1  1
 60279  1  0
 60280  1  0
 61281  1  0
 62282  1  0
 62283  1  0
 62284  1  0
 63285  1  0
 63286  1  0
 63287  1  0
 66288  1  0
 67289  1  1
 68290  1  0
 68291  1  0
 69292  1  0
 69293  1  0
 69294  1  0
 72295  1  0
 73296  1  1
 74297  1  0
 74298  1  0
 74299  1  0
 77300  1  0
 78301  1  1
 79302  1  0
 79303  1  0
 80304  1  0
 80305  1  0
 83306  1  0
 86307  1  0
 87308  1  1
 88309  1  0
 88310  1  0
 88311  1  0
 91312  1  0
 92313  1  1
 93314  1  0
 93315  1  0
 95316  1  0
 96317  1  0
 97318  1  0
101319  1  0
103320  1  0
103321  1  0
104322  1  0
104323  1  0
105324  1  0
105325  1  0
106326  1  0
106327  1  0
107328  1  0
107329  1  0
108330  1  0
108331  1  0
109332  1  0
110333  1  0
110334  1  0
110335  1  0
113336  1  0
114337  1  6
115338  1  0
115339  1  0
116340  1  0
117341  1  0
117342  1  0
117343  1  0
118344  1  0
118345  1  0
118346  1  0
121347  1  0
122348  1  6
123349  1  0
123350  1  0
124351  1  0
127352  1  0
128353  1  6
129354  1  1
130355  1  0
131356  1  0
131357  1  0
131358  1  0
134359  1  0
135360  1  6
136361  1  0
136362  1  0
137363  1  0
138364  1  0
138365  1  0
138366  1  0
139367  1  0
139368  1  0
139369  1  0
142370  1  0
143371  1  6
144372  1  0
144373  1  0
145374  1  0
146375  1  0
146376  1  0
146377  1  0
147378  1  0
147379  1  0
147380  1  0
150381  1  0
151382  1  6
152383  1  0
152384  1  0
153385  1  0
153386  1  0
156387  1  0
159388  1  0
161389  1  0
161390  1  0
162391  1  0
162392  1  0
163393  1  0
163394  1  0
164395  1  0
165396  1  0
165397  1  0
165398  1  0
168399  1  0
169400  1  1
170401  1  0
170402  1  0
170403  1  0
173404  1  0
174405  1  6
175406  1  1
176407  1  0
176408  1  0
176409  1  0
177410  1  0
177411  1  0
178412  1  0
178413  1  0
178414  1  0
181415  1  0
182416  1  1
183417  1  0
183418  1  0
184419  1  0
184420  1  0
186421  1  0
186422  1  0
190423  1  0
191424  1  6
192425  1  0
192426  1  0
195427  1  0
198428  1  0
199429  1  1
200430  1  1
201431  1  0
202432  1  0
202433  1  0
202434  1  0
205435  1  0
206436  1  6
207437  1  0
207438  1  0
208439  1  0
208440  1  0
208441  1  0
211442  1  0
212443  1  1
213444  1  0
213445  1  0
214446  1  0
214447  1  0
215448  1  0
215449  1  0
216450  1  0
218451  1  0
219452  1  0
219453  1  0
222454  1  0
223455  1  6
224456  1  0
224457  1  0
225458  1  0
225459  1  0
228460  1  0
231461  1  0
232462  1  1
233463  1  0
233464  1  0
234465  1  0
234466  1  0
236467  1  0
236468  1  0
240469  1  0
M  END
