
     RDKit          2D

358367  0  0  0  0  0  0  0  0999 V2000
  -28.7175   -0.0358    0.0000 C   0  0  0  0  0  0  0  0  0  0  0  0
  -29.9709   -0.8597    0.0000 N   0  0  0  0  0  0  0  0  0  0  0  0
  -31.3112   -0.1862    0.0000 C   0  0  0  0  0  0  0  0  0  0  0  0
  -31.3981    1.3112    0.0000 C   0  0  0  0  0  0  0  0  0  0  0  0
  -32.7384    1.9848    0.0000 C   0  0  0  0  0  0  0  0  0  0  0  0
  -33.9918    1.1608    0.0000 C   0  0  0  0  0  0  0  0  0  0  0  0
  -33.9049   -0.3367    0.0000 C   0  0  0  0  0  0  0  0  0  0  0  0
  -32.5646   -1.0102    0.0000 C   0  0  0  0  0  0  0  0  0  0  0  0
  -35.3023   -0.8821    0.0000 C   0  0  0  0  0  0  0  0  0  0  0  0
  -36.2527    0.2784    0.0000 O   0  0  0  0  0  0  0  0  0  0  0  0
  -35.4428    1.5409    0.0000 C   0  0  0  0  0  0  0  0  0  0  0  0
  -35.9882    2.9383    0.0000 O   0  0  0  0  0  0  0  0  0  0  0  0
  -36.7490   -1.2784    0.0000 C   0  0  0  0  0  0  0  0  0  0  0  0
  -37.1291   -2.7294    0.0000 C   0  0  0  0  0  0  0  0  0  0  0  0
  -38.5758   -3.1257    0.0000 C   0  0  0  0  0  0  0  0  0  0  0  0
  -39.6424   -2.0710    0.0000 C   0  0  0  0  0  0  0  0  0  0  0  0
  -39.2622   -0.6200    0.0000 C   0  0  0  0  0  0  0  0  0  0  0  0
  -37.8155   -0.2237    0.0000 C   0  0  0  0  0  0  0  0  0  0  0  0
  -41.0891   -2.4673    0.0000 O   0  0  0  0  0  0  0  0  0  0  0  0
  -36.0625   -3.7841    0.0000 O   0  0  0  0  0  0  0  0  0  0  0  0
  -34.6158   -3.3878    0.0000 C   0  0  0  0  0  0  0  0  0  0  0  0
  -34.2357   -1.9368    0.0000 C   0  0  0  0  0  0  0  0  0  0  0  0
  -32.9664   -2.2176    0.0000 C   0  0  0  0  0  0  0  0  0  0  0  0
  -32.3976   -2.7801    0.0000 C   0  0  0  0  0  0  0  0  0  0  0  0
  -32.6003   -3.5540    0.0000 C   0  0  0  0  0  0  0  0  0  0  0  0
  -33.3719   -3.7654    0.0000 C   0  0  0  0  0  0  0  0  0  0  0  0
  -31.0360   -5.1009    0.0000 O   0  0  0  0  0  0  0  0  0  0  0  0
  -28.8044    1.4617    0.0000 S   0  0  0  0  0  0  0  0  0  0  0  0
  -27.3772   -0.7093    0.0000 N   0  0  0  0  0  0  0  0  0  0  0  0
  -26.1238    0.1147    0.0000 C   0  0  0  0  0  0  0  0  0  0  0  0
  -24.7835   -0.5588    0.0000 C   0  0  0  0  0  0  0  0  0  0  0  0
  -23.5301    0.2652    0.0000 C   0  0  0  0  0  0  0  0  0  0  0  0
  -23.6169    1.7626    0.0000 O   0  0  0  0  0  0  0  0  0  0  0  0
  -22.1898   -0.4083    0.0000 N   0  0  0  0  0  0  0  0  0  0  0  0
  -20.9363    0.4156    0.0000 C   0  0  0  0  0  0  0  0  0  0  0  0
  -20.0403    1.6186    0.0000 C   0  0  0  0  0  0  0  0  0  0  0  0
  -18.5505    1.4441    0.0000 C   0  0  0  0  0  0  0  0  0  0  0  0
  -17.6545    2.6471    0.0000 C   0  0  0  0  0  0  0  0  0  0  0  0
  -16.4395    2.6539    0.0000 O   0  0  0  0  0  0  0  0  0  0  0  0
  -18.2483    4.0246    0.0000 O   0  0  0  0  0  0  0  0  0  0  0  0
  -19.5961   -0.2579    0.0000 C   0  0  0  0  0  0  0  0  0  0  0  0
  -19.5092   -1.7554    0.0000 O   0  0  0  0  0  0  0  0  0  0  0  0
  -18.3426    0.5661    0.0000 N   0  0  0  0  0  0  0  0  0  0  0  0
  -17.0023   -0.1074    0.0000 C   0  0  0  0  0  0  0  0  0  0  0  0
  -15.9732   -1.1987    0.0000 C   0  0  0  0  0  0  0  0  0  0  0  0
  -16.4038   -2.6356    0.0000 C   0  0  0  0  0  0  0  0  0  0  0  0
  -15.3747   -3.7269    0.0000 C   0  0  0  0  0  0  0  0  0  0  0  0
  -15.8052   -5.1638    0.0000 N   0  0  0  0  0  0  0  0  0  0  0  0
  -14.7761   -6.2551    0.0000 C   0  0  0  0  0  0  0  0  0  0  0  0
  -15.2066   -7.6920    0.0000 N   0  0  0  0  0  0  0  0  0  0  0  0
  -13.3164   -5.9095    0.0000 N   0  0  0  0  0  0  0  0  0  0  0  0
  -15.7489    0.7166    0.0000 C   0  0  0  0  0  0  0  0  0  0  0  0
  -15.6709    1.9291    0.0000 O   0  0  0  0  0  0  0  0  0  0  0  0
  -14.4086    0.0431    0.0000 N   0  0  0  0  0  0  0  0  0  0  0  0
  -13.1552    0.8670    0.0000 C   0  0  0  0  0  0  0  0  0  0  0  0
  -12.2592    2.0700    0.0000 C   0  0  0  0  0  0  0  0  0  0  0  0
  -10.7694    1.8955    0.0000 C   0  0  0  0  0  0  0  0  0  0  0  0
  -10.0348    0.5877    0.0000 C   0  0  0  0  0  0  0  0  0  0  0  0
   -8.5640    0.8821    0.0000 N   0  0  0  0  0  0  0  0  0  0  0  0
   -8.3895    2.3719    0.0000 C   0  0  0  0  0  0  0  0  0  0  0  0
   -7.1656    3.2391    0.0000 C   0  0  0  0  0  0  0  0  0  0  0  0
   -7.3047    4.7327    0.0000 C   0  0  0  0  0  0  0  0  0  0  0  0
   -8.6677    5.3590    0.0000 C   0  0  0  0  0  0  0  0  0  0  0  0
   -9.8916    4.4918    0.0000 C   0  0  0  0  0  0  0  0  0  0  0  0
   -9.7525    2.9982    0.0000 C   0  0  0  0  0  0  0  0  0  0  0  0
  -11.8149    0.1935    0.0000 C   0  0  0  0  0  0  0  0  0  0  0  0
  -11.7280   -1.3040    0.0000 O   0  0  0  0  0  0  0  0  0  0  0  0
  -10.5615    1.0175    0.0000 N   0  0  0  0  0  0  0  0  0  0  0  0
   -9.2212    0.3440    0.0000 C   0  0  0  0  0  0  0  0  0  0  0  0
   -8.1921   -0.7473    0.0000 C   0  0  0  0  0  0  0  0  0  0  0  0
   -8.6226   -2.1842    0.0000 C   0  0  0  0  0  0  0  0  0  0  0  0
   -7.5935   -3.2755    0.0000 C   0  0  0  0  0  0  0  0  0  0  0  0
   -8.0240   -4.7124    0.0000 N   0  0  0  0  0  0  0  0  0  0  0  0
   -6.9949   -5.8037    0.0000 C   0  0  0  0  0  0  0  0  0  0  0  0
   -7.4255   -7.2406    0.0000 N   0  0  0  0  0  0  0  0  0  0  0  0
   -5.5353   -5.4581    0.0000 N   0  0  0  0  0  0  0  0  0  0  0  0
   -7.9678    1.1680    0.0000 C   0  0  0  0  0  0  0  0  0  0  0  0
   -7.6897    2.6420    0.0000 O   0  0  0  0  0  0  0  0  0  0  0  0
   -6.6275    0.4944    0.0000 N   0  0  0  0  0  0  0  0  0  0  0  0
   -5.3741    1.3184    0.0000 C   0  0  0  0  0  0  0  0  0  0  0  0
   -4.4780    2.5214    0.0000 C   0  0  0  0  0  0  0  0  0  0  0  0
   -2.9882    2.3469    0.0000 C   0  0  0  0  0  0  0  0  0  0  0  0
   -2.0922    3.5499    0.0000 C   0  0  0  0  0  0  0  0  0  0  0  0
   -0.6024    3.3754    0.0000 N   0  0  0  0  0  0  0  0  0  0  0  0
    0.2936    4.5784    0.0000 C   0  0  0  0  0  0  0  0  0  0  0  0
    1.7834    4.4039    0.0000 N   0  0  0  0  0  0  0  0  0  0  0  0
   -0.3002    5.9559    0.0000 N   0  0  0  0  0  0  0  0  0  0  0  0
   -4.0338    0.6449    0.0000 C   0  0  0  0  0  0  0  0  0  0  0  0
   -3.9469   -0.8526    0.0000 O   0  0  0  0  0  0  0  0  0  0  0  0
   -2.7803    1.4689    0.0000 N   0  0  0  0  0  0  0  0  0  0  0  0
   -1.4400    0.7954    0.0000 C   0  0  0  0  0  0  0  0  0  0  0  0
   -0.4109   -0.2959    0.0000 C   0  0  0  0  0  0  0  0  0  0  0  0
   -0.8415   -1.7328    0.0000 C   0  0  0  0  0  0  0  0  0  0  0  0
    0.1876   -2.8241    0.0000 C   0  0  0  0  0  0  0  0  0  0  0  0
   -0.2429   -4.2610    0.0000 N   0  0  0  0  0  0  0  0  0  0  0  0
    0.7862   -5.3523    0.0000 C   0  0  0  0  0  0  0  0  0  0  0  0
    0.3557   -6.7892    0.0000 N   0  0  0  0  0  0  0  0  0  0  0  0
    2.2459   -5.0067    0.0000 N   0  0  0  0  0  0  0  0  0  0  0  0
   -0.1866    1.6194    0.0000 C   0  0  0  0  0  0  0  0  0  0  0  0
    0.0914    3.0934    0.0000 O   0  0  0  0  0  0  0  0  0  0  0  0
    1.1537    0.9458    0.0000 N   0  0  0  0  0  0  0  0  0  0  0  0
    2.4071    1.7698    0.0000 C   0  0  0  0  0  0  0  0  0  0  0  0
    3.3031    2.9728    0.0000 C   0  0  0  0  0  0  0  0  0  0  0  0
    4.8031    2.9812    0.0000 C   0  0  0  0  0  0  0  0  0  0  0  0
    3.7336    4.4097    0.0000 C   0  0  0  0  0  0  0  0  0  0  0  0
    5.1403    4.9306    0.0000 C   0  0  0  0  0  0  0  0  0  0  0  0
    3.7474    1.0963    0.0000 C   0  0  0  0  0  0  0  0  0  0  0  0
    3.6511   -0.4006    0.0000 O   0  0  0  0  0  0  0  0  0  0  0  0
    5.0008    1.9203    0.0000 N   0  0  0  0  0  0  0  0  0  0  0  0
    6.3411    1.2468    0.0000 C   0  0  0  0  0  0  0  0  0  0  0  0
    6.7230   -0.2038    0.0000 C   0  0  0  0  0  0  0  0  0  0  0  0
    7.5154   -1.4774    0.0000 C   0  0  0  0  0  0  0  0  0  0  0  0
    8.6481   -2.4608    0.0000 C   0  0  0  0  0  0  0  0  0  0  0  0
   10.0203   -3.0666    0.0000 C   0  0  0  0  0  0  0  0  0  0  0  0
    5.0695    0.4512    0.0000 C   0  0  0  0  0  0  0  0  0  0  0  0
    6.4038    2.7455    0.0000 C   0  0  0  0  0  0  0  0  0  0  0  0
    4.9769    3.2082    0.0000 O   0  0  0  0  0  0  0  0  0  0  0  0
    6.9054    4.1591    0.0000 N   0  0  0  0  0  0  0  0  0  0  0  0
    7.8014    5.3621    0.0000 C   0  0  0  0  0  0  0  0  0  0  0  0
    7.4923    6.8299    0.0000 C   0  0  0  0  0  0  0  0  0  0  0  0
    8.6089    7.8315    0.0000 C   0  0  0  0  0  0  0  0  0  0  0  0
    8.2998    9.2993    0.0000 C   0  0  0  0  0  0  0  0  0  0  0  0
    9.9222    8.5562    0.0000 C   0  0  0  0  0  0  0  0  0  0  0  0
    9.0122    6.2475    0.0000 C   0  0  0  0  0  0  0  0  0  0  0  0
    8.6594    7.7054    0.0000 O   0  0  0  0  0  0  0  0  0  0  0  0
   10.4302    6.7367    0.0000 N   0  0  0  0  0  0  0  0  0  0  0  0
   11.9294    6.7862    0.0000 C   0  0  0  0  0  0  0  0  0  0  0  0
   12.8842    7.9430    0.0000 C   0  0  0  0  0  0  0  0  0  0  0  0
   12.3598    9.3484    0.0000 S   0  0  0  0  0  0  0  0  0  0  0  0
   13.3765    6.3916    0.0000 C   0  0  0  0  0  0  0  0  0  0  0  0
   13.9824    7.7638    0.0000 O   0  0  0  0  0  0  0  0  0  0  0  0
   14.6431    5.5880    0.0000 N   0  0  0  0  0  0  0  0  0  0  0  0
   15.6165    4.4468    0.0000 C   0  0  0  0  0  0  0  0  0  0  0  0
   17.1163    4.4215    0.0000 C   0  0  0  0  0  0  0  0  0  0  0  0
   17.8881    5.7077    0.0000 C   0  0  0  0  0  0  0  0  0  0  0  0
   19.3879    5.6825    0.0000 C   0  0  0  0  0  0  0  0  0  0  0  0
   20.1597    6.9687    0.0000 N   0  0  0  0  0  0  0  0  0  0  0  0
   21.6595    6.9434    0.0000 C   0  0  0  0  0  0  0  0  0  0  0  0
   22.4313    8.2296    0.0000 N   0  0  0  0  0  0  0  0  0  0  0  0
   22.3875    5.6319    0.0000 N   0  0  0  0  0  0  0  0  0  0  0  0
   16.2103    3.0693    0.0000 C   0  0  0  0  0  0  0  0  0  0  0  0
   17.6609    3.4512    0.0000 O   0  0  0  0  0  0  0  0  0  0  0  0
   16.3717    1.5780    0.0000 N   0  0  0  0  0  0  0  0  0  0  0  0
   16.0864    0.1054    0.0000 C   0  0  0  0  0  0  0  0  0  0  0  0
   15.3797   -1.2177    0.0000 C   0  0  0  0  0  0  0  0  0  0  0  0
   14.3144   -2.2736    0.0000 C   0  0  0  0  0  0  0  0  0  0  0  0
   12.9852   -2.9687    0.0000 C   0  0  0  0  0  0  0  0  0  0  0  0
   11.5101   -3.2411    0.0000 C   0  0  0  0  0  0  0  0  0  0  0  0
   17.5461    0.4510    0.0000 C   0  0  0  0  0  0  0  0  0  0  0  0
   17.0018   -1.0829    0.0000 C   0  0  0  0  0  0  0  0  0  0  0  0
   16.7829   -2.5668    0.0000 O   0  0  0  0  0  0  0  0  0  0  0  0
   18.4886   -0.8844    0.0000 N   0  0  0  0  0  0  0  0  0  0  0  0
   19.4039   -2.0727    0.0000 C   0  0  0  0  0  0  0  0  0  0  0  0
   19.8576   -3.5025    0.0000 C   0  0  0  0  0  0  0  0  0  0  0  0
   18.8463   -4.6102    0.0000 C   0  0  0  0  0  0  0  0  0  0  0  0
   19.1480   -6.0796    0.0000 C   0  0  0  0  0  0  0  0  0  0  0  0
   17.8439   -6.8206    0.0000 N   0  0  0  0  0  0  0  0  0  0  0  0
   16.7361   -5.8093    0.0000 C   0  0  0  0  0  0  0  0  0  0  0  0
   17.3556   -4.4432    0.0000 N   0  0  0  0  0  0  0  0  0  0  0  0
   20.8907   -1.8742    0.0000 C   0  0  0  0  0  0  0  0  0  0  0  0
   21.4622   -0.4873    0.0000 O   0  0  0  0  0  0  0  0  0  0  0  0
   21.8060   -3.0625    0.0000 N   0  0  0  0  0  0  0  0  0  0  0  0
   23.2928   -2.8640    0.0000 C   0  0  0  0  0  0  0  0  0  0  0  0
   24.6221   -2.1689    0.0000 C   0  0  0  0  0  0  0  0  0  0  0  0
   25.8887   -2.9725    0.0000 C   0  0  0  0  0  0  0  0  0  0  0  0
   27.2833   -2.4202    0.0000 C   0  0  0  0  0  0  0  0  0  0  0  0
   28.2395   -3.5759    0.0000 N   0  0  0  0  0  0  0  0  0  0  0  0
   27.4359   -4.8424    0.0000 C   0  0  0  0  0  0  0  0  0  0  0  0
   25.9830   -4.4695    0.0000 N   0  0  0  0  0  0  0  0  0  0  0  0
   24.2082   -4.0523    0.0000 C   0  0  0  0  0  0  0  0  0  0  0  0
   23.6367   -5.4392    0.0000 O   0  0  0  0  0  0  0  0  0  0  0  0
   25.6950   -3.8538    0.0000 N   0  0  0  0  0  0  0  0  0  0  0  0
   26.6103   -5.0421    0.0000 C   0  0  0  0  0  0  0  0  0  0  0  0
   27.0640   -6.4719    0.0000 C   0  0  0  0  0  0  0  0  0  0  0  0
   26.0527   -7.5797    0.0000 O   0  0  0  0  0  0  0  0  0  0  0  0
   28.0971   -4.8436    0.0000 C   0  0  0  0  0  0  0  0  0  0  0  0
   28.9872   -3.6362    0.0000 O   0  0  0  0  0  0  0  0  0  0  0  0
   29.0125   -6.0319    0.0000 N   0  0  0  0  0  0  0  0  0  0  0  0
   30.4993   -5.8334    0.0000 C   0  0  0  0  0  0  0  0  0  0  0  0
   31.8285   -5.1383    0.0000 C   0  0  0  0  0  0  0  0  0  0  0  0
   32.8398   -4.0305    0.0000 O   0  0  0  0  0  0  0  0  0  0  0  0
   33.0951   -5.9419    0.0000 C   0  0  0  0  0  0  0  0  0  0  0  0
   31.4146   -7.0217    0.0000 C   0  0  0  0  0  0  0  0  0  0  0  0
   32.9145   -7.0059    0.0000 O   0  0  0  0  0  0  0  0  0  0  0  0
   30.8431   -8.4086    0.0000 O   0  0  0  0  0  0  0  0  0  0  0  0
  -29.7022   -2.3355    0.0000 H   0  0  0  0  0  0  0  0  0  0  0  0
  -30.1447    2.1352    0.0000 H   0  0  0  0  0  0  0  0  0  0  0  0
  -32.8252    3.4822    0.0000 H   0  0  0  0  0  0  0  0  0  0  0  0
  -32.1180   -2.4422    0.0000 H   0  0  0  0  0  0  0  0  0  0  0  0
  -38.9559   -4.5768    0.0000 H   0  0  0  0  0  0  0  0  0  0  0  0
  -40.3288    0.4347    0.0000 H   0  0  0  0  0  0  0  0  0  0  0  0
  -37.4354    1.2274    0.0000 H   0  0  0  0  0  0  0  0  0  0  0  0
  -42.1556   -1.4126    0.0000 H   0  0  0  0  0  0  0  0  0  0  0  0
  -32.4089   -0.0894    0.0000 H   0  0  0  0  0  0  0  0  0  0  0  0
  -30.2382   -2.3782    0.0000 H   0  0  0  0  0  0  0  0  0  0  0  0
  -33.9294   -5.8936    0.0000 H   0  0  0  0  0  0  0  0  0  0  0  0
  -31.4161   -6.5520    0.0000 H   0  0  0  0  0  0  0  0  0  0  0  0
  -27.2903   -2.2068    0.0000 H   0  0  0  0  0  0  0  0  0  0  0  0
  -25.2278    1.3177    0.0000 H   0  0  0  0  0  0  0  0  0  0  0  0
  -27.1529    1.2060    0.0000 H   0  0  0  0  0  0  0  0  0  0  0  0
  -23.7544   -1.6501    0.0000 H   0  0  0  0  0  0  0  0  0  0  0  0
  -25.6795   -1.7618    0.0000 H   0  0  0  0  0  0  0  0  0  0  0  0
  -22.1029   -1.9058    0.0000 H   0  0  0  0  0  0  0  0  0  0  0  0
  -21.9655    1.5069    0.0000 H   0  0  0  0  0  0  0  0  0  0  0  0
  -19.6098    3.0555    0.0000 H   0  0  0  0  0  0  0  0  0  0  0  0
  -21.3806    2.2921    0.0000 H   0  0  0  0  0  0  0  0  0  0  0  0
  -17.2102    0.7706    0.0000 H   0  0  0  0  0  0  0  0  0  0  0  0
  -18.2559   -0.0267    0.0000 H   0  0  0  0  0  0  0  0  0  0  0  0
  -18.0646    2.0401    0.0000 H   0  0  0  0  0  0  0  0  0  0  0  0
  -18.0383   -1.1922    0.0000 H   0  0  0  0  0  0  0  0  0  0  0  0
  -14.6329   -1.8722    0.0000 H   0  0  0  0  0  0  0  0  0  0  0  0
  -14.8127   -0.2483    0.0000 H   0  0  0  0  0  0  0  0  0  0  0  0
  -17.2998   -3.8386    0.0000 H   0  0  0  0  0  0  0  0  0  0  0  0
  -17.8162   -2.1305    0.0000 H   0  0  0  0  0  0  0  0  0  0  0  0
  -14.0344   -4.4004    0.0000 H   0  0  0  0  0  0  0  0  0  0  0  0
  -14.3387   -2.6421    0.0000 H   0  0  0  0  0  0  0  0  0  0  0  0
  -17.2648   -5.5094    0.0000 H   0  0  0  0  0  0  0  0  0  0  0  0
  -14.1775   -8.7833    0.0000 H   0  0  0  0  0  0  0  0  0  0  0  0
  -16.6663   -8.0376    0.0000 H   0  0  0  0  0  0  0  0  0  0  0  0
  -12.2873   -7.0008    0.0000 H   0  0  0  0  0  0  0  0  0  0  0  0
  -12.8859   -4.4726    0.0000 H   0  0  0  0  0  0  0  0  0  0  0  0
  -14.1399   -1.4327    0.0000 H   0  0  0  0  0  0  0  0  0  0  0  0
  -14.1843    1.9583    0.0000 H   0  0  0  0  0  0  0  0  0  0  0  0
  -11.8286    3.5069    0.0000 H   0  0  0  0  0  0  0  0  0  0  0  0
  -13.5995    2.7435    0.0000 H   0  0  0  0  0  0  0  0  0  0  0  0
  -10.8226   -0.6888    0.0000 H   0  0  0  0  0  0  0  0  0  0  0  0
   -7.3456    0.0073    0.0000 H   0  0  0  0  0  0  0  0  0  0  0  0
   -5.8026    2.6128    0.0000 H   0  0  0  0  0  0  0  0  0  0  0  0
   -6.0808    5.5999    0.0000 H   0  0  0  0  0  0  0  0  0  0  0  0
   -8.8068    6.8525    0.0000 H   0  0  0  0  0  0  0  0  0  0  0  0
  -11.2546    5.1181    0.0000 H   0  0  0  0  0  0  0  0  0  0  0  0
  -10.2834    2.4915    0.0000 H   0  0  0  0  0  0  0  0  0  0  0  0
  -10.1172   -0.8590    0.0000 H   0  0  0  0  0  0  0  0  0  0  0  0
   -6.8518   -1.4208    0.0000 H   0  0  0  0  0  0  0  0  0  0  0  0
   -6.9244    0.0546    0.0000 H   0  0  0  0  0  0  0  0  0  0  0  0
   -9.5186   -3.3872    0.0000 H   0  0  0  0  0  0  0  0  0  0  0  0
  -10.0350   -1.6791    0.0000 H   0  0  0  0  0  0  0  0  0  0  0  0
   -6.2532   -3.9490    0.0000 H   0  0  0  0  0  0  0  0  0  0  0  0
   -6.5575   -2.1907    0.0000 H   0  0  0  0  0  0  0  0  0  0  0  0
   -9.4837   -5.0580    0.0000 H   0  0  0  0  0  0  0  0  0  0  0  0
   -6.3964   -8.3319    0.0000 H   0  0  0  0  0  0  0  0  0  0  0  0
   -8.8851   -7.5862    0.0000 H   0  0  0  0  0  0  0  0  0  0  0  0
   -4.5062   -6.5494    0.0000 H   0  0  0  0  0  0  0  0  0  0  0  0
   -5.1047   -4.0212    0.0000 H   0  0  0  0  0  0  0  0  0  0  0  0
   -6.3587   -0.9813    0.0000 H   0  0  0  0  0  0  0  0  0  0  0  0
   -6.5285    2.2761    0.0000 H   0  0  0  0  0  0  0  0  0  0  0  0
   -4.2259    4.0001    0.0000 H   0  0  0  0  0  0  0  0  0  0  0  0
   -5.7262    3.3533    0.0000 H   0  0  0  0  0  0  0  0  0  0  0  0
   -1.6479    1.6734    0.0000 H   0  0  0  0  0  0  0  0  0  0  0  0
   -2.6936    0.8761    0.0000 H   0  0  0  0  0  0  0  0  0  0  0  0
   -1.6617    4.9868    0.0000 H   0  0  0  0  0  0  0  0  0  0  0  0
   -3.3404    4.3818    0.0000 H   0  0  0  0  0  0  0  0  0  0  0  0
    0.3071    2.1826    0.0000 H   0  0  0  0  0  0  0  0  0  0  0  0
    2.6795    5.6069    0.0000 H   0  0  0  0  0  0  0  0  0  0  0  0
    2.2266    2.9590    0.0000 H   0  0  0  0  0  0  0  0  0  0  0  0
    0.5958    7.1588    0.0000 H   0  0  0  0  0  0  0  0  0  0  0  0
   -1.7900    6.1303    0.0000 H   0  0  0  0  0  0  0  0  0  0  0  0
   -2.5023    2.9429    0.0000 H   0  0  0  0  0  0  0  0  0  0  0  0
   -2.4760   -0.2894    0.0000 H   0  0  0  0  0  0  0  0  0  0  0  0
    0.9294   -0.9694    0.0000 H   0  0  0  0  0  0  0  0  0  0  0  0
    0.7495    0.6545    0.0000 H   0  0  0  0  0  0  0  0  0  0  0  0
   -1.7375   -2.9358    0.0000 H   0  0  0  0  0  0  0  0  0  0  0  0
   -2.2539   -1.2277    0.0000 H   0  0  0  0  0  0  0  0  0  0  0  0
    1.5279   -3.4976    0.0000 H   0  0  0  0  0  0  0  0  0  0  0  0
    1.2236   -1.7393    0.0000 H   0  0  0  0  0  0  0  0  0  0  0  0
   -1.7025   -4.6066    0.0000 H   0  0  0  0  0  0  0  0  0  0  0  0
    1.3848   -7.8805    0.0000 H   0  0  0  0  0  0  0  0  0  0  0  0
   -1.1040   -7.1348    0.0000 H   0  0  0  0  0  0  0  0  0  0  0  0
    3.2750   -6.0980    0.0000 H   0  0  0  0  0  0  0  0  0  0  0  0
    2.6764   -3.5698    0.0000 H   0  0  0  0  0  0  0  0  0  0  0  0
    1.4224   -0.5299    0.0000 H   0  0  0  0  0  0  0  0  0  0  0  0
    1.3780    2.8611    0.0000 H   0  0  0  0  0  0  0  0  0  0  0  0
    1.8397    3.3020    0.0000 H   0  0  0  0  0  0  0  0  0  0  0  0
    5.7113    4.0014    0.0000 H   0  0  0  0  0  0  0  0  0  0  0  0
    6.3009    2.4721    0.0000 H   0  0  0  0  0  0  0  0  0  0  0  0
    4.9723    1.3111    0.0000 H   0  0  0  0  0  0  0  0  0  0  0  0
    3.6468    5.9072    0.0000 H   0  0  0  0  0  0  0  0  0  0  0  0
    2.2762    4.7645    0.0000 H   0  0  0  0  0  0  0  0  0  0  0  0
    5.3042    6.2717    0.0000 H   0  0  0  0  0  0  0  0  0  0  0  0
    6.6811    4.9465    0.0000 H   0  0  0  0  0  0  0  0  0  0  0  0
    5.2802    3.2578    0.0000 H   0  0  0  0  0  0  0  0  0  0  0  0
    4.7320    3.3960    0.0000 H   0  0  0  0  0  0  0  0  0  0  0  0
    5.2244   -0.1374    0.0000 H   0  0  0  0  0  0  0  0  0  0  0  0
    5.8880   -1.4499    0.0000 H   0  0  0  0  0  0  0  0  0  0  0  0
    6.1209   -2.0298    0.0000 H   0  0  0  0  0  0  0  0  0  0  0  0
    6.9130   -2.8511    0.0000 H   0  0  0  0  0  0  0  0  0  0  0  0
    7.3726   -3.2501    0.0000 H   0  0  0  0  0  0  0  0  0  0  0  0
    8.6602   -3.9607    0.0000 H   0  0  0  0  0  0  0  0  0  0  0  0
    9.6257   -4.5138    0.0000 H   0  0  0  0  0  0  0  0  0  0  0  0
    5.0068   -1.2136    0.0000 H   0  0  0  0  0  0  0  0  0  0  0  0
    3.8455   -0.3422    0.0000 H   0  0  0  0  0  0  0  0  0  0  0  0
    4.0726    1.3136    0.0000 H   0  0  0  0  0  0  0  0  0  0  0  0
    5.7926    5.1650    0.0000 H   0  0  0  0  0  0  0  0  0  0  0  0
    6.3364    5.6840    0.0000 H   0  0  0  0  0  0  0  0  0  0  0  0
    6.5505    7.9974    0.0000 H   0  0  0  0  0  0  0  0  0  0  0  0
    6.0065    6.6240    0.0000 H   0  0  0  0  0  0  0  0  0  0  0  0
    9.6860    6.7875    0.0000 H   0  0  0  0  0  0  0  0  0  0  0  0
    9.2860   10.4295    0.0000 H   0  0  0  0  0  0  0  0  0  0  0  0
    7.5074   10.5729    0.0000 H   0  0  0  0  0  0  0  0  0  0  0  0
    6.8502    8.9138    0.0000 H   0  0  0  0  0  0  0  0  0  0  0  0
   10.3918    9.8389    0.0000 H   0  0  0  0  0  0  0  0  0  0  0  0
   11.5023    8.6335    0.0000 H   0  0  0  0  0  0  0  0  0  0  0  0
   10.6558    7.0414    0.0000 H   0  0  0  0  0  0  0  0  0  0  0  0
   10.3396    8.2340    0.0000 H   0  0  0  0  0  0  0  0  0  0  0  0
   11.4367    8.2030    0.0000 H   0  0  0  0  0  0  0  0  0  0  0  0
   14.1772    8.7035    0.0000 H   0  0  0  0  0  0  0  0  0  0  0  0
   14.1049    7.0713    0.0000 H   0  0  0  0  0  0  0  0  0  0  0  0
   13.3147   10.5052    0.0000 H   0  0  0  0  0  0  0  0  0  0  0  0
   15.6265    6.7207    0.0000 H   0  0  0  0  0  0  0  0  0  0  0  0
   16.0863    5.8713    0.0000 H   0  0  0  0  0  0  0  0  0  0  0  0
   18.4412    3.7181    0.0000 H   0  0  0  0  0  0  0  0  0  0  0  0
   17.1958    2.9236    0.0000 H   0  0  0  0  0  0  0  0  0  0  0  0
   18.1734    7.1803    0.0000 H   0  0  0  0  0  0  0  0  0  0  0  0
   16.5633    6.4112    0.0000 H   0  0  0  0  0  0  0  0  0  0  0  0
   20.7886    5.1457    0.0000 H   0  0  0  0  0  0  0  0  0  0  0  0
   19.2842    4.1860    0.0000 H   0  0  0  0  0  0  0  0  0  0  0  0
   19.4317    8.2802    0.0000 H   0  0  0  0  0  0  0  0  0  0  0  0
   23.9310    8.2043    0.0000 H   0  0  0  0  0  0  0  0  0  0  0  0
   21.7033    9.5411    0.0000 H   0  0  0  0  0  0  0  0  0  0  0  0
   23.8873    5.6066    0.0000 H   0  0  0  0  0  0  0  0  0  0  0  0
   21.6157    4.3457    0.0000 H   0  0  0  0  0  0  0  0  0  0  0  0
   17.8704    1.5154    0.0000 H   0  0  0  0  0  0  0  0  0  0  0  0
   15.9041   -2.6230    0.0000 H   0  0  0  0  0  0  0  0  0  0  0  0
   16.8077   -1.6768    0.0000 H   0  0  0  0  0  0  0  0  0  0  0  0
   14.5832   -3.7494    0.0000 H   0  0  0  0  0  0  0  0  0  0  0  0
   15.5436   -3.1333    0.0000 H   0  0  0  0  0  0  0  0  0  0  0  0
   12.6268   -4.4253    0.0000 H   0  0  0  0  0  0  0  0  0  0  0  0
   14.0438   -4.0314    0.0000 H   0  0  0  0  0  0  0  0  0  0  0  0
   11.5596   -4.7403    0.0000 H   0  0  0  0  0  0  0  0  0  0  0  0
   18.8087   -0.3588    0.0000 H   0  0  0  0  0  0  0  0  0  0  0  0
   18.6897    1.4216    0.0000 H   0  0  0  0  0  0  0  0  0  0  0  0
   17.3032    1.9312    0.0000 H   0  0  0  0  0  0  0  0  0  0  0  0
   19.2248    0.4225    0.0000 H   0  0  0  0  0  0  0  0  0  0  0  0
   18.0747   -2.7678    0.0000 H   0  0  0  0  0  0  0  0  0  0  0  0
   20.6213   -4.7935    0.0000 H   0  0  0  0  0  0  0  0  0  0  0  0
   21.3155   -3.1497    0.0000 H   0  0  0  0  0  0  0  0  0  0  0  0
   20.5141   -6.6991    0.0000 H   0  0  0  0  0  0  0  0  0  0  0  0
   17.6768   -8.3113    0.0000 H   0  0  0  0  0  0  0  0  0  0  0  0
   15.2667   -6.1110    0.0000 H   0  0  0  0  0  0  0  0  0  0  0  0
   21.4079   -4.5087    0.0000 H   0  0  0  0  0  0  0  0  0  0  0  0
   22.8391   -1.4342    0.0000 H   0  0  0  0  0  0  0  0  0  0  0  0
   25.6334   -1.0611    0.0000 H   0  0  0  0  0  0  0  0  0  0  0  0
   23.7067   -0.9806    0.0000 H   0  0  0  0  0  0  0  0  0  0  0  0
   27.6561   -0.9673    0.0000 H   0  0  0  0  0  0  0  0  0  0  0  0
   29.7365   -3.4815    0.0000 H   0  0  0  0  0  0  0  0  0  0  0  0
   28.1541   -6.1593    0.0000 H   0  0  0  0  0  0  0  0  0  0  0  0
   26.5851   -2.6464    0.0000 H   0  0  0  0  0  0  0  0  0  0  0  0
   25.2811   -5.7372    0.0000 H   0  0  0  0  0  0  0  0  0  0  0  0
   27.8277   -7.7629    0.0000 H   0  0  0  0  0  0  0  0  0  0  0  0
   28.5541   -6.2994    0.0000 H   0  0  0  0  0  0  0  0  0  0  0  0
   26.5064   -9.0094    0.0000 H   0  0  0  0  0  0  0  0  0  0  0  0
   28.6143   -7.4781    0.0000 H   0  0  0  0  0  0  0  0  0  0  0  0
   30.0456   -4.4037    0.0000 H   0  0  0  0  0  0  0  0  0  0  0  0
   30.9132   -3.9500    0.0000 H   0  0  0  0  0  0  0  0  0  0  0  0
   34.3332   -4.1715    0.0000 H   0  0  0  0  0  0  0  0  0  0  0  0
   34.4991   -5.4141    0.0000 H   0  0  0  0  0  0  0  0  0  0  0  0
   34.0104   -7.1303    0.0000 H   0  0  0  0  0  0  0  0  0  0  0  0
   32.5480   -7.3386    0.0000 H   0  0  0  0  0  0  0  0  0  0  0  0
  1  2  1  0
  2  3  1  0
  3  4  2  0
  4  5  1  0
  5  6  2  0
  6  7  1  0
  7  8  2  0
  7  9  1  0
  9 10  1  0
 10 11  1  0
 11 12  2  0
  9 13  1  0
 13 14  1  0
 14 15  2  0
 15 16  1  0
 16 17  2  0
 17 18  1  0
 16 19  1  0
 14 20  1  0
 20 21  1  0
 21 22  2  0
 22 23  1  0
 23 24  2  0
 24 25  1  0
 25 26  2  0
 25 27  1  0
  1 28  2  0
  1 29  1  0
 29 30  1  0
 30 31  1  0
 31 32  1  0
 32 33  2  0
 32 34  1  0
 34 35  1  0
 35 36  1  0
 36 37  1  0
 37 38  1  0
 38 39  2  0
 38 40  1  0
 35 41  1  0
 41 42  2  0
 41 43  1  0
 43 44  1  0
 44 45  1  0
 45 46  1  0
 46 47  1  0
 47 48  1  0
 48 49  1  0
 49 50  2  3
 49 51  1  0
 44 52  1  0
 52 53  2  0
 52 54  1  0
 54 55  1  0
 55 56  1  0
 56 57  1  0
 57 58  2  0
 58 59  1  0
 59 60  1  0
 60 61  2  0
 61 62  1  0
 62 63  2  0
 63 64  1  0
 64 65  2  0
 55 66  1  0
 66 67  2  0
 66 68  1  0
 68 69  1  0
 69 70  1  0
 70 71  1  0
 71 72  1  0
 72 73  1  0
 73 74  1  0
 74 75  2  3
 74 76  1  0
 69 77  1  0
 77 78  2  0
 77 79  1  0
 79 80  1  0
 80 81  1  0
 81 82  1  0
 82 83  1  0
 83 84  1  0
 84 85  1  0
 85 86  2  3
 85 87  1  0
 80 88  1  0
 88 89  2  0
 88 90  1  0
 90 91  1  0
 91 92  1  0
 92 93  1  0
 93 94  1  0
 94 95  1  0
 95 96  1  0
 96 97  2  3
 96 98  1  0
 91 99  1  0
 99100  2  0
 99101  1  0
101102  1  0
102103  1  0
103104  1  0
103105  1  0
105106  1  0
102107  1  0
107108  2  0
107109  1  0
110109  1  6
110111  1  0
111112  1  0
112113  1  0
113114  1  0
110115  1  0
110116  1  0
116117  2  0
116118  1  0
118119  1  0
119120  1  0
120121  1  0
121122  1  0
121123  1  0
119124  1  0
124125  2  0
124126  1  0
126127  1  0
127128  1  0
128129  1  0
127130  1  0
130131  2  0
130132  1  0
132133  1  0
133134  1  0
134135  1  0
135136  1  0
136137  1  0
137138  1  0
138139  2  3
138140  1  0
133141  1  0
141142  2  0
141143  1  0
143144  1  0
144145  1  0
145146  1  0
146147  1  0
147148  1  0
144149  1  0
144150  1  6
150151  2  0
150152  1  0
152153  1  0
153154  1  0
154155  1  0
155156  2  0
156157  1  0
157158  1  0
158159  2  0
153160  1  0
160161  2  0
160162  1  0
162163  1  0
163164  1  0
164165  1  0
165166  2  0
166167  1  0
167168  1  0
168169  2  0
163170  1  0
170171  2  0
170172  1  0
172173  1  0
173174  1  0
174175  1  0
173176  1  0
176177  2  0
176178  1  0
178179  1  0
179180  1  0
180181  1  0
180182  1  0
179183  1  0
183184  2  0
183185  1  0
  8  3  1  0
 65 57  1  0
159155  1  0
169165  1  0
 11  6  1  0
 65 60  1  0
114148  2  0
 18 13  2  0
 22  9  1  0
 26 21  1  0
  2186  1  0
  4187  1  0
  5188  1  0
  8189  1  0
 15190  1  0
 17191  1  0
 18192  1  0
 19193  1  0
 23194  1  0
 24195  1  0
 26196  1  0
 27197  1  0
 29198  1  0
 30199  1  0
 30200  1  0
 31201  1  0
 31202  1  0
 34203  1  0
 35204  1  1
 36205  1  0
 36206  1  0
 37207  1  0
 37208  1  0
 43209  1  0
 44210  1  6
 45211  1  0
 45212  1  0
 46213  1  0
 46214  1  0
 47215  1  0
 47216  1  0
 48217  1  0
 50218  1  0
 50219  1  0
 51220  1  0
 51221  1  0
 54222  1  0
 55223  1  1
 56224  1  0
 56225  1  0
 58226  1  0
 59227  1  0
 61228  1  0
 62229  1  0
 63230  1  0
 64231  1  0
 68232  1  0
 69233  1  6
 70234  1  0
 70235  1  0
 71236  1  0
 71237  1  0
 72238  1  0
 72239  1  0
 73240  1  0
 75241  1  0
 75242  1  0
 76243  1  0
 76244  1  0
 79245  1  0
 80246  1  1
 81247  1  0
 81248  1  0
 82249  1  0
 82250  1  0
 83251  1  0
 83252  1  0
 84253  1  0
 86254  1  0
 86255  1  0
 87256  1  0
 87257  1  0
 90258  1  0
 91259  1  6
 92260  1  0
 92261  1  0
 93262  1  0
 93263  1  0
 94264  1  0
 94265  1  0
 95266  1  0
 97267  1  0
 97268  1  0
 98269  1  0
 98270  1  0
101271  1  0
102272  1  1
103273  1  1
104274  1  0
104275  1  0
104276  1  0
105277  1  0
105278  1  0
106279  1  0
106280  1  0
106281  1  0
109282  1  0
111283  1  0
111284  1  0
112285  1  0
112286  1  0
113287  1  0
113288  1  0
114289  1  0
115290  1  0
115291  1  0
115292  1  0
118293  1  0
119294  1  1
120295  1  0
120296  1  0
121297  1  0
122298  1  0
122299  1  0
122300  1  0
123301  1  0
123302  1  0
123303  1  0
126304  1  0
127305  1  1
128306  1  0
128307  1  0
129308  1  0
132309  1  0
133310  1  1
134311  1  0
134312  1  0
135313  1  0
135314  1  0
136315  1  0
136316  1  0
137317  1  0
139318  1  0
139319  1  0
140320  1  0
140321  1  0
143322  1  0
145323  1  0
145324  1  0
146325  1  0
146326  1  0
147327  1  0
147328  1  0
148329  1  0
149330  1  0
149331  1  0
149332  1  0
152333  1  0
153334  1  6
154335  1  0
154336  1  0
156337  1  0
157338  1  0
158339  1  0
162340  1  0
163341  1  1
164342  1  0
164343  1  0
166344  1  0
167345  1  0
168346  1  0
172347  1  0
173348  1  6
174349  1  0
174350  1  0
175351  1  0
178352  1  0
179353  1  1
180354  1  1
181355  1  0
182356  1  0
182357  1  0
182358  1  0
M  CHG  7  40  -1  50   1  75   1  86   1  97   1 139   1 185  -1
M  END
