
     RDKit          2D

305307  0  0  0  0  0  0  0  0999 V2000
  -33.5116    8.6357    0.0000 N   0  0  0  0  0  0  0  0  0  0  0  0
  -32.0362    8.3655    0.0000 C   0  0  0  0  0  0  0  0  0  0  0  0
  -31.5324    6.9526    0.0000 C   0  0  0  0  0  0  0  0  0  0  0  0
  -30.0569    6.6825    0.0000 O   0  0  0  0  0  0  0  0  0  0  0  0
  -29.5532    5.2696    0.0000 C   0  0  0  0  0  0  0  0  0  0  0  0
  -28.0777    4.9994    0.0000 C   0  0  0  0  0  0  0  0  0  0  0  0
  -27.5740    3.5865    0.0000 O   0  0  0  0  0  0  0  0  0  0  0  0
  -26.0985    3.3163    0.0000 C   0  0  0  0  0  0  0  0  0  0  0  0
  -25.5948    1.9034    0.0000 C   0  0  0  0  0  0  0  0  0  0  0  0
  -24.1193    1.6333    0.0000 O   0  0  0  0  0  0  0  0  0  0  0  0
  -23.6155    0.2204    0.0000 C   0  0  0  0  0  0  0  0  0  0  0  0
  -22.1401   -0.0498    0.0000 C   0  0  0  0  0  0  0  0  0  0  0  0
  -21.6363   -1.4627    0.0000 O   0  0  0  0  0  0  0  0  0  0  0  0
  -20.1609   -1.7329    0.0000 C   0  0  0  0  0  0  0  0  0  0  0  0
  -19.6571   -3.1457    0.0000 C   0  0  0  0  0  0  0  0  0  0  0  0
  -18.1816   -3.4159    0.0000 O   0  0  0  0  0  0  0  0  0  0  0  0
  -17.6779   -4.8288    0.0000 C   0  0  0  0  0  0  0  0  0  0  0  0
  -16.2024   -5.0990    0.0000 C   0  0  0  0  0  0  0  0  0  0  0  0
  -15.6987   -6.5119    0.0000 O   0  0  0  0  0  0  0  0  0  0  0  0
  -14.2232   -6.7821    0.0000 C   0  0  0  0  0  0  0  0  0  0  0  0
  -13.7195   -8.1949    0.0000 C   0  0  0  0  0  0  0  0  0  0  0  0
  -12.2440   -8.4651    0.0000 C   0  0  0  0  0  0  0  0  0  0  0  0
  -11.2723   -7.3224    0.0000 O   0  0  0  0  0  0  0  0  0  0  0  0
  -11.7403   -9.8780    0.0000 N   0  0  0  0  0  0  0  0  0  0  0  0
  -10.2648  -10.1482    0.0000 C   0  0  0  0  0  0  0  0  0  0  0  0
  -10.7871  -11.5543    0.0000 C   0  0  0  0  0  0  0  0  0  0  0  0
  -12.2660  -11.8051    0.0000 C   0  0  0  0  0  0  0  0  0  0  0  0
  -12.7883  -13.2112    0.0000 N   0  0  0  0  0  0  0  0  0  0  0  0
  -13.3563  -10.7749    0.0000 O   0  0  0  0  0  0  0  0  0  0  0  0
   -8.7859   -9.8974    0.0000 C   0  0  0  0  0  0  0  0  0  0  0  0
   -7.9773  -11.1608    0.0000 O   0  0  0  0  0  0  0  0  0  0  0  0
   -8.2636   -8.4913    0.0000 N   0  0  0  0  0  0  0  0  0  0  0  0
   -6.7847   -8.2406    0.0000 C   0  0  0  0  0  0  0  0  0  0  0  0
   -6.7946   -9.7405    0.0000 C   0  0  0  0  0  0  0  0  0  0  0  0
   -5.5005  -10.4990    0.0000 C   0  0  0  0  0  0  0  0  0  0  0  0
   -5.5104  -11.9990    0.0000 C   0  0  0  0  0  0  0  0  0  0  0  0
   -4.2163  -12.7575    0.0000 N   0  0  0  0  0  0  0  0  0  0  0  0
   -6.8143  -12.7405    0.0000 O   0  0  0  0  0  0  0  0  0  0  0  0
   -5.4808   -7.4991    0.0000 C   0  0  0  0  0  0  0  0  0  0  0  0
   -4.1867   -8.2576    0.0000 O   0  0  0  0  0  0  0  0  0  0  0  0
   -5.4709   -5.9991    0.0000 N   0  0  0  0  0  0  0  0  0  0  0  0
   -4.1670   -5.2577    0.0000 C   0  0  0  0  0  0  0  0  0  0  0  0
   -5.1236   -4.1023    0.0000 C   0  0  0  0  0  0  0  0  0  0  0  0
   -6.6025   -4.3531    0.0000 C   0  0  0  0  0  0  0  0  0  0  0  0
   -7.5591   -3.1977    0.0000 C   0  0  0  0  0  0  0  0  0  0  0  0
   -7.9064   -5.0945    0.0000 C   0  0  0  0  0  0  0  0  0  0  0  0
   -2.6881   -5.0070    0.0000 C   0  0  0  0  0  0  0  0  0  0  0  0
   -1.8794   -6.2703    0.0000 O   0  0  0  0  0  0  0  0  0  0  0  0
   -2.1658   -3.6008    0.0000 N   0  0  0  0  0  0  0  0  0  0  0  0
   -0.6869   -3.3501    0.0000 C   0  0  0  0  0  0  0  0  0  0  0  0
    0.4083   -4.3751    0.0000 C   0  0  0  0  0  0  0  0  0  0  0  0
    1.6776   -5.1743    0.0000 C   0  0  0  0  0  0  0  0  0  0  0  0
    3.0753   -5.7188    0.0000 C   0  0  0  0  0  0  0  0  0  0  0  0
    4.5508   -5.9890    0.0000 C   0  0  0  0  0  0  0  0  0  0  0  0
    6.0507   -5.9750    0.0000 C   0  0  0  0  0  0  0  0  0  0  0  0
    7.5209   -5.6775    0.0000 C   0  0  0  0  0  0  0  0  0  0  0  0
    8.9082   -5.1071    0.0000 C   0  0  0  0  0  0  0  0  0  0  0  0
   -1.2908   -4.7231    0.0000 C   0  0  0  0  0  0  0  0  0  0  0  0
   -1.5683   -2.1363    0.0000 C   0  0  0  0  0  0  0  0  0  0  0  0
   -2.9436   -2.7352    0.0000 O   0  0  0  0  0  0  0  0  0  0  0  0
   -2.2041   -0.7777    0.0000 N   0  0  0  0  0  0  0  0  0  0  0  0
   -2.5712    0.6766    0.0000 C   0  0  0  0  0  0  0  0  0  0  0  0
   -3.7113   -0.2982    0.0000 C   0  0  0  0  0  0  0  0  0  0  0  0
   -5.1255    0.2017    0.0000 C   0  0  0  0  0  0  0  0  0  0  0  0
   -5.3997    1.6765    0.0000 C   0  0  0  0  0  0  0  0  0  0  0  0
   -6.8139    2.1764    0.0000 N   0  0  0  0  0  0  0  0  0  0  0  0
   -7.0881    3.6511    0.0000 C   0  0  0  0  0  0  0  0  0  0  0  0
   -8.5024    4.1510    0.0000 N   0  0  0  0  0  0  0  0  0  0  0  0
   -5.9481    4.6259    0.0000 N   0  0  0  0  0  0  0  0  0  0  0  0
   -2.6565    2.1742    0.0000 C   0  0  0  0  0  0  0  0  0  0  0  0
   -4.1512    2.0485    0.0000 O   0  0  0  0  0  0  0  0  0  0  0  0
   -2.4568    3.6609    0.0000 N   0  0  0  0  0  0  0  0  0  0  0  0
   -1.9794    5.0829    0.0000 C   0  0  0  0  0  0  0  0  0  0  0  0
   -3.4655    4.8792    0.0000 C   0  0  0  0  0  0  0  0  0  0  0  0
   -4.3850    6.0643    0.0000 O   0  0  0  0  0  0  0  0  0  0  0  0
   -1.2415    6.3888    0.0000 C   0  0  0  0  0  0  0  0  0  0  0  0
   -2.4714    7.2475    0.0000 O   0  0  0  0  0  0  0  0  0  0  0  0
   -0.2698    7.5315    0.0000 N   0  0  0  0  0  0  0  0  0  0  0  0
    0.9006    8.4697    0.0000 C   0  0  0  0  0  0  0  0  0  0  0  0
   -0.4597    9.1017    0.0000 C   0  0  0  0  0  0  0  0  0  0  0  0
   -0.5925   10.5959    0.0000 C   0  0  0  0  0  0  0  0  0  0  0  0
    0.6351   11.4579    0.0000 C   0  0  0  0  0  0  0  0  0  0  0  0
    0.5023   12.9520    0.0000 C   0  0  0  0  0  0  0  0  0  0  0  0
   -0.8580   13.5841    0.0000 C   0  0  0  0  0  0  0  0  0  0  0  0
   -2.0856   12.7220    0.0000 C   0  0  0  0  0  0  0  0  0  0  0  0
   -1.9528   11.2279    0.0000 C   0  0  0  0  0  0  0  0  0  0  0  0
    2.2274    9.1694    0.0000 C   0  0  0  0  0  0  0  0  0  0  0  0
    1.8304   10.6158    0.0000 O   0  0  0  0  0  0  0  0  0  0  0  0
    3.6627    9.6053    0.0000 N   0  0  0  0  0  0  0  0  0  0  0  0
    5.1545    9.7617    0.0000 C   0  0  0  0  0  0  0  0  0  0  0  0
    4.3518   11.0289    0.0000 C   0  0  0  0  0  0  0  0  0  0  0  0
    5.0479   12.3576    0.0000 C   0  0  0  0  0  0  0  0  0  0  0  0
    6.5467   12.4192    0.0000 C   0  0  0  0  0  0  0  0  0  0  0  0
    7.2428   13.7479    0.0000 C   0  0  0  0  0  0  0  0  0  0  0  0
    6.4401   15.0150    0.0000 C   0  0  0  0  0  0  0  0  0  0  0  0
    4.9414   14.9535    0.0000 C   0  0  0  0  0  0  0  0  0  0  0  0
    4.2453   13.6248    0.0000 C   0  0  0  0  0  0  0  0  0  0  0  0
    6.6490    9.6330    0.0000 C   0  0  0  0  0  0  0  0  0  0  0  0
    7.0970   11.0646    0.0000 O   0  0  0  0  0  0  0  0  0  0  0  0
    8.0921    9.2238    0.0000 N   0  0  0  0  0  0  0  0  0  0  0  0
    9.4316    8.5489    0.0000 C   0  0  0  0  0  0  0  0  0  0  0  0
    9.4415   10.0489    0.0000 C   0  0  0  0  0  0  0  0  0  0  0  0
   10.6193    7.6327    0.0000 C   0  0  0  0  0  0  0  0  0  0  0  0
   11.6443    8.7278    0.0000 O   0  0  0  0  0  0  0  0  0  0  0  0
   11.6121    6.5082    0.0000 N   0  0  0  0  0  0  0  0  0  0  0  0
   12.3741    5.2162    0.0000 C   0  0  0  0  0  0  0  0  0  0  0  0
   13.1933    6.4727    0.0000 C   0  0  0  0  0  0  0  0  0  0  0  0
   14.6911    6.3915    0.0000 C   0  0  0  0  0  0  0  0  0  0  0  0
   15.5104    7.6480    0.0000 C   0  0  0  0  0  0  0  0  0  0  0  0
   16.0708    5.8029    0.0000 C   0  0  0  0  0  0  0  0  0  0  0  0
   12.8778    3.8033    0.0000 C   0  0  0  0  0  0  0  0  0  0  0  0
   14.3661    3.9905    0.0000 O   0  0  0  0  0  0  0  0  0  0  0  0
   13.1051    2.3206    0.0000 N   0  0  0  0  0  0  0  0  0  0  0  0
   13.0477    0.8217    0.0000 C   0  0  0  0  0  0  0  0  0  0  0  0
   12.7076   -0.6392    0.0000 C   0  0  0  0  0  0  0  0  0  0  0  0
   12.0972   -2.0094    0.0000 C   0  0  0  0  0  0  0  0  0  0  0  0
   11.2385   -3.2393    0.0000 C   0  0  0  0  0  0  0  0  0  0  0  0
   10.1625   -4.2844    0.0000 C   0  0  0  0  0  0  0  0  0  0  0  0
   14.3132    0.0165    0.0000 C   0  0  0  0  0  0  0  0  0  0  0  0
   14.4162    1.4359    0.0000 C   0  0  0  0  0  0  0  0  0  0  0  0
   14.7493    2.8984    0.0000 O   0  0  0  0  0  0  0  0  0  0  0  0
   15.6323    0.5578    0.0000 N   0  0  0  0  0  0  0  0  0  0  0  0
   17.0008    1.1719    0.0000 C   0  0  0  0  0  0  0  0  0  0  0  0
   18.0767    2.2171    0.0000 C   0  0  0  0  0  0  0  0  0  0  0  0
   19.5198    1.8078    0.0000 C   0  0  0  0  0  0  0  0  0  0  0  0
   20.5958    2.8530    0.0000 O   0  0  0  0  0  0  0  0  0  0  0  0
   19.8077    1.0645    0.0000 O   0  0  0  0  0  0  0  0  0  0  0  0
   18.2169    0.2938    0.0000 C   0  0  0  0  0  0  0  0  0  0  0  0
   18.9786    0.5291    0.0000 O   0  0  0  0  0  0  0  0  0  0  0  0
   18.0645   -1.1984    0.0000 N   0  0  0  0  0  0  0  0  0  0  0  0
   19.2806   -2.0765    0.0000 C   0  0  0  0  0  0  0  0  0  0  0  0
   20.7237   -2.4858    0.0000 C   0  0  0  0  0  0  0  0  0  0  0  0
   21.0909   -3.9401    0.0000 C   0  0  0  0  0  0  0  0  0  0  0  0
   22.5340   -4.3493    0.0000 C   0  0  0  0  0  0  0  0  0  0  0  0
   23.0757   -5.7481    0.0000 N   0  0  0  0  0  0  0  0  0  0  0  0
   23.6099   -3.3042    0.0000 O   0  0  0  0  0  0  0  0  0  0  0  0
   19.1282   -3.5688    0.0000 C   0  0  0  0  0  0  0  0  0  0  0  0
   17.7597   -4.1829    0.0000 O   0  0  0  0  0  0  0  0  0  0  0  0
   20.3443   -4.4469    0.0000 N   0  0  0  0  0  0  0  0  0  0  0  0
   20.1919   -5.9391    0.0000 C   0  0  0  0  0  0  0  0  0  0  0  0
   19.5384   -7.2892    0.0000 C   0  0  0  0  0  0  0  0  0  0  0  0
   20.3808   -8.5303    0.0000 C   0  0  0  0  0  0  0  0  0  0  0  0
   18.4624   -8.3344    0.0000 C   0  0  0  0  0  0  0  0  0  0  0  0
   17.0193   -7.9252    0.0000 C   0  0  0  0  0  0  0  0  0  0  0  0
   21.4081   -6.8172    0.0000 C   0  0  0  0  0  0  0  0  0  0  0  0
   21.4387   -8.3169    0.0000 O   0  0  0  0  0  0  0  0  0  0  0  0
   22.8412   -6.3745    0.0000 O   0  0  0  0  0  0  0  0  0  0  0  0
  -34.0154   10.0486    0.0000 H   0  0  0  0  0  0  0  0  0  0  0  0
  -34.4833    7.4930    0.0000 H   0  0  0  0  0  0  0  0  0  0  0  0
  -32.0263    9.8655    0.0000 H   0  0  0  0  0  0  0  0  0  0  0  0
  -30.5573    8.6163    0.0000 H   0  0  0  0  0  0  0  0  0  0  0  0
  -33.0113    6.7019    0.0000 H   0  0  0  0  0  0  0  0  0  0  0  0
  -31.7250    5.4651    0.0000 H   0  0  0  0  0  0  0  0  0  0  0  0
  -30.9905    4.8404    0.0000 H   0  0  0  0  0  0  0  0  0  0  0  0
  -29.5631    3.7696    0.0000 H   0  0  0  0  0  0  0  0  0  0  0  0
  -28.0679    6.4994    0.0000 H   0  0  0  0  0  0  0  0  0  0  0  0
  -26.6404    5.4285    0.0000 H   0  0  0  0  0  0  0  0  0  0  0  0
  -25.9059    4.8039    0.0000 H   0  0  0  0  0  0  0  0  0  0  0  0
  -24.6196    3.5671    0.0000 H   0  0  0  0  0  0  0  0  0  0  0  0
  -27.0737    1.6527    0.0000 H   0  0  0  0  0  0  0  0  0  0  0  0
  -25.7874    0.4159    0.0000 H   0  0  0  0  0  0  0  0  0  0  0  0
  -25.0528   -0.2088    0.0000 H   0  0  0  0  0  0  0  0  0  0  0  0
  -23.6254   -1.2796    0.0000 H   0  0  0  0  0  0  0  0  0  0  0  0
  -22.1302    1.4502    0.0000 H   0  0  0  0  0  0  0  0  0  0  0  0
  -20.7028    0.3794    0.0000 H   0  0  0  0  0  0  0  0  0  0  0  0
  -19.9682   -0.2453    0.0000 H   0  0  0  0  0  0  0  0  0  0  0  0
  -18.6820   -1.4821    0.0000 H   0  0  0  0  0  0  0  0  0  0  0  0
  -21.1360   -3.3965    0.0000 H   0  0  0  0  0  0  0  0  0  0  0  0
  -19.8497   -4.6333    0.0000 H   0  0  0  0  0  0  0  0  0  0  0  0
  -19.1152   -5.2580    0.0000 H   0  0  0  0  0  0  0  0  0  0  0  0
  -17.6878   -6.3288    0.0000 H   0  0  0  0  0  0  0  0  0  0  0  0
  -16.1926   -3.5990    0.0000 H   0  0  0  0  0  0  0  0  0  0  0  0
  -14.7651   -4.6698    0.0000 H   0  0  0  0  0  0  0  0  0  0  0  0
  -14.0306   -5.2945    0.0000 H   0  0  0  0  0  0  0  0  0  0  0  0
  -12.7443   -6.5313    0.0000 H   0  0  0  0  0  0  0  0  0  0  0  0
  -15.1984   -8.4457    0.0000 H   0  0  0  0  0  0  0  0  0  0  0  0
  -13.7293   -9.6949    0.0000 H   0  0  0  0  0  0  0  0  0  0  0  0
  -12.8440  -10.8937    0.0000 H   0  0  0  0  0  0  0  0  0  0  0  0
  -10.2549   -8.6482    0.0000 H   0  0  0  0  0  0  0  0  0  0  0  0
  -10.7969  -13.0543    0.0000 H   0  0  0  0  0  0  0  0  0  0  0  0
   -9.3116  -11.8245    0.0000 H   0  0  0  0  0  0  0  0  0  0  0  0
  -14.2671  -13.4620    0.0000 H   0  0  0  0  0  0  0  0  0  0  0  0
  -11.8317  -14.3666    0.0000 H   0  0  0  0  0  0  0  0  0  0  0  0
   -9.2202   -7.3359    0.0000 H   0  0  0  0  0  0  0  0  0  0  0  0
   -7.4569   -6.8996    0.0000 H   0  0  0  0  0  0  0  0  0  0  0  0
   -7.1416  -11.1998    0.0000 H   0  0  0  0  0  0  0  0  0  0  0  0
   -8.2916   -9.8354    0.0000 H   0  0  0  0  0  0  0  0  0  0  0  0
   -4.0250  -10.7692    0.0000 H   0  0  0  0  0  0  0  0  0  0  0  0
   -4.9782   -9.0929    0.0000 H   0  0  0  0  0  0  0  0  0  0  0  0
   -4.2262  -14.2575    0.0000 H   0  0  0  0  0  0  0  0  0  0  0  0
   -2.9123  -12.0161    0.0000 H   0  0  0  0  0  0  0  0  0  0  0  0
   -6.8478   -5.4040    0.0000 H   0  0  0  0  0  0  0  0  0  0  0  0
   -3.6632   -6.6706    0.0000 H   0  0  0  0  0  0  0  0  0  0  0  0
   -5.4513   -2.6386    0.0000 H   0  0  0  0  0  0  0  0  0  0  0  0
   -3.8196   -3.3609    0.0000 H   0  0  0  0  0  0  0  0  0  0  0  0
   -6.6386   -5.8526    0.0000 H   0  0  0  0  0  0  0  0  0  0  0  0
   -9.0575   -3.2663    0.0000 H   0  0  0  0  0  0  0  0  0  0  0  0
   -8.0628   -1.7848    0.0000 H   0  0  0  0  0  0  0  0  0  0  0  0
   -6.3552   -2.3028    0.0000 H   0  0  0  0  0  0  0  0  0  0  0  0
   -8.0990   -6.5821    0.0000 H   0  0  0  0  0  0  0  0  0  0  0  0
   -9.3853   -5.3453    0.0000 H   0  0  0  0  0  0  0  0  0  0  0  0
   -8.5786   -3.7536    0.0000 H   0  0  0  0  0  0  0  0  0  0  0  0
   -3.2561   -2.5707    0.0000 H   0  0  0  0  0  0  0  0  0  0  0  0
    0.0751   -5.8376    0.0000 H   0  0  0  0  0  0  0  0  0  0  0  0
   -0.9218   -5.0685    0.0000 H   0  0  0  0  0  0  0  0  0  0  0  0
    1.6273   -6.6734    0.0000 H   0  0  0  0  0  0  0  0  0  0  0  0
    0.5028   -6.1069    0.0000 H   0  0  0  0  0  0  0  0  0  0  0  0
    3.3096   -7.2004    0.0000 H   0  0  0  0  0  0  0  0  0  0  0  0
    2.0982   -6.8569    0.0000 H   0  0  0  0  0  0  0  0  0  0  0  0
    5.0612   -7.3995    0.0000 H   0  0  0  0  0  0  0  0  0  0  0  0
    3.8067   -7.2914    0.0000 H   0  0  0  0  0  0  0  0  0  0  0  0
    6.8189   -7.2634    0.0000 H   0  0  0  0  0  0  0  0  0  0  0  0
    5.5666   -7.3948    0.0000 H   0  0  0  0  0  0  0  0  0  0  0  0
    8.6481   -6.6672    0.0000 H   0  0  0  0  0  0  0  0  0  0  0  0
    7.3142   -7.1632    0.0000 H   0  0  0  0  0  0  0  0  0  0  0  0
    9.6079   -6.4339    0.0000 H   0  0  0  0  0  0  0  0  0  0  0  0
   -2.4421   -5.4301    0.0000 H   0  0  0  0  0  0  0  0  0  0  0  0
   -0.8453   -6.2411    0.0000 H   0  0  0  0  0  0  0  0  0  0  0  0
    0.2634   -5.3575    0.0000 H   0  0  0  0  0  0  0  0  0  0  0  0
   -3.5450   -1.4500    0.0000 H   0  0  0  0  0  0  0  0  0  0  0  0
   -3.8689    1.4290    0.0000 H   0  0  0  0  0  0  0  0  0  0  0  0
   -4.6029   -1.5044    0.0000 H   0  0  0  0  0  0  0  0  0  0  0  0
   -2.8184   -1.5035    0.0000 H   0  0  0  0  0  0  0  0  0  0  0  0
   -6.6255    0.1878    0.0000 H   0  0  0  0  0  0  0  0  0  0  0  0
   -5.3723   -1.2778    0.0000 H   0  0  0  0  0  0  0  0  0  0  0  0
   -5.1530    3.1560    0.0000 H   0  0  0  0  0  0  0  0  0  0  0  0
   -3.8998    1.6904    0.0000 H   0  0  0  0  0  0  0  0  0  0  0  0
   -7.9540    1.2016    0.0000 H   0  0  0  0  0  0  0  0  0  0  0  0
   -8.7766    5.6257    0.0000 H   0  0  0  0  0  0  0  0  0  0  0  0
   -9.6424    3.1762    0.0000 H   0  0  0  0  0  0  0  0  0  0  0  0
   -6.4000    6.0562    0.0000 H   0  0  0  0  0  0  0  0  0  0  0  0
   -4.6968    3.7986    0.0000 H   0  0  0  0  0  0  0  0  0  0  0  0
   -3.9567    3.6373    0.0000 H   0  0  0  0  0  0  0  0  0  0  0  0
   -2.8219    6.3239    0.0000 H   0  0  0  0  0  0  0  0  0  0  0  0
   -4.7923    4.1795    0.0000 H   0  0  0  0  0  0  0  0  0  0  0  0
   -3.3661    3.3825    0.0000 H   0  0  0  0  0  0  0  0  0  0  0  0
   -5.8848    6.0433    0.0000 H   0  0  0  0  0  0  0  0  0  0  0  0
   -1.4383    8.4720    0.0000 H   0  0  0  0  0  0  0  0  0  0  0  0
    0.8629    9.9692    0.0000 H   0  0  0  0  0  0  0  0  0  0  0  0
   -1.9273    9.4117    0.0000 H   0  0  0  0  0  0  0  0  0  0  0  0
   -1.1852    7.7889    0.0000 H   0  0  0  0  0  0  0  0  0  0  0  0
    2.0623   10.9963    0.0000 H   0  0  0  0  0  0  0  0  0  0  0  0
    1.7299   13.8140    0.0000 H   0  0  0  0  0  0  0  0  0  0  0  0
   -0.9908   15.0782    0.0000 H   0  0  0  0  0  0  0  0  0  0  0  0
   -3.4459   13.3541    0.0000 H   0  0  0  0  0  0  0  0  0  0  0  0
   -3.1804   10.3659    0.0000 H   0  0  0  0  0  0  0  0  0  0  0  0
    3.1881   11.0283    0.0000 H   0  0  0  0  0  0  0  0  0  0  0  0
    5.9335   11.0436    0.0000 H   0  0  0  0  0  0  0  0  0  0  0  0
    3.2847   12.0831    0.0000 H   0  0  0  0  0  0  0  0  0  0  0  0
    3.0317   10.3167    0.0000 H   0  0  0  0  0  0  0  0  0  0  0  0
    7.4978   11.2593    0.0000 H   0  0  0  0  0  0  0  0  0  0  0  0
    8.7415   13.8094    0.0000 H   0  0  0  0  0  0  0  0  0  0  0  0
    7.1362   16.3438    0.0000 H   0  0  0  0  0  0  0  0  0  0  0  0
    4.1387   16.2207    0.0000 H   0  0  0  0  0  0  0  0  0  0  0  0
    2.7466   13.5633    0.0000 H   0  0  0  0  0  0  0  0  0  0  0  0
    8.4622   10.6775    0.0000 H   0  0  0  0  0  0  0  0  0  0  0  0
   10.7800    9.2062    0.0000 H   0  0  0  0  0  0  0  0  0  0  0  0
   10.7455   10.7903    0.0000 H   0  0  0  0  0  0  0  0  0  0  0  0
    9.1137   11.5126    0.0000 H   0  0  0  0  0  0  0  0  0  0  0  0
    7.9459   10.1634    0.0000 H   0  0  0  0  0  0  0  0  0  0  0  0
   12.7093    7.5310    0.0000 H   0  0  0  0  0  0  0  0  0  0  0  0
   13.8312    4.8599    0.0000 H   0  0  0  0  0  0  0  0  0  0  0  0
   13.5334    7.9337    0.0000 H   0  0  0  0  0  0  0  0  0  0  0  0
   11.9971    7.3777    0.0000 H   0  0  0  0  0  0  0  0  0  0  0  0
   14.7147    4.8917    0.0000 H   0  0  0  0  0  0  0  0  0  0  0  0
   17.0069    7.7500    0.0000 H   0  0  0  0  0  0  0  0  0  0  0  0
   15.8505    9.1090    0.0000 H   0  0  0  0  0  0  0  0  0  0  0  0
   14.2127    8.4004    0.0000 H   0  0  0  0  0  0  0  0  0  0  0  0
   17.3713    6.5505    0.0000 H   0  0  0  0  0  0  0  0  0  0  0  0
   17.1660    4.7779    0.0000 H   0  0  0  0  0  0  0  0  0  0  0  0
   15.2516    4.5464    0.0000 H   0  0  0  0  0  0  0  0  0  0  0  0
   14.5811    2.5878    0.0000 H   0  0  0  0  0  0  0  0  0  0  0  0
   14.1986   -0.4757    0.0000 H   0  0  0  0  0  0  0  0  0  0  0  0
   13.6642   -1.7946    0.0000 H   0  0  0  0  0  0  0  0  0  0  0  0
   13.5662   -2.3124    0.0000 H   0  0  0  0  0  0  0  0  0  0  0  0
   12.9728   -3.2273    0.0000 H   0  0  0  0  0  0  0  0  0  0  0  0
   12.6835   -3.6417    0.0000 H   0  0  0  0  0  0  0  0  0  0  0  0
   11.6971   -4.6674    0.0000 H   0  0  0  0  0  0  0  0  0  0  0  0
   11.1007   -5.4549    0.0000 H   0  0  0  0  0  0  0  0  0  0  0  0
   14.3633   -1.6487    0.0000 H   0  0  0  0  0  0  0  0  0  0  0  0
   15.5311   -0.7861    0.0000 H   0  0  0  0  0  0  0  0  0  0  0  0
   15.2049    0.9873    0.0000 H   0  0  0  0  0  0  0  0  0  0  0  0
   15.6629   -0.9419    0.0000 H   0  0  0  0  0  0  0  0  0  0  0  0
   16.1584    2.4130    0.0000 H   0  0  0  0  0  0  0  0  0  0  0  0
   18.7303    3.5672    0.0000 H   0  0  0  0  0  0  0  0  0  0  0  0
   16.8606    3.0952    0.0000 H   0  0  0  0  0  0  0  0  0  0  0  0
   16.6960   -1.8126    0.0000 H   0  0  0  0  0  0  0  0  0  0  0  0
   19.9342   -0.7264    0.0000 H   0  0  0  0  0  0  0  0  0  0  0  0
   22.2198   -2.3767    0.0000 H   0  0  0  0  0  0  0  0  0  0  0  0
   20.8761   -0.9935    0.0000 H   0  0  0  0  0  0  0  0  0  0  0  0
   20.9385   -5.4324    0.0000 H   0  0  0  0  0  0  0  0  0  0  0  0
   19.8213   -4.7389    0.0000 H   0  0  0  0  0  0  0  0  0  0  0  0
   24.3443   -6.2129    0.0000 H   0  0  0  0  0  0  0  0  0  0  0  0
   22.3029   -7.2239    0.0000 H   0  0  0  0  0  0  0  0  0  0  0  0
   21.8208   -4.1821    0.0000 H   0  0  0  0  0  0  0  0  0  0  0  0
   18.7488   -5.5299    0.0000 H   0  0  0  0  0  0  0  0  0  0  0  0
   18.4383   -6.2694    0.0000 H   0  0  0  0  0  0  0  0  0  0  0  0
   19.8967   -9.9500    0.0000 H   0  0  0  0  0  0  0  0  0  0  0  0
   21.5969   -9.4084    0.0000 H   0  0  0  0  0  0  0  0  0  0  0  0
   21.8215   -8.1128    0.0000 H   0  0  0  0  0  0  0  0  0  0  0  0
   17.8088   -9.6845    0.0000 H   0  0  0  0  0  0  0  0  0  0  0  0
   19.5624   -9.3542    0.0000 H   0  0  0  0  0  0  0  0  0  0  0  0
   15.9434   -8.9704    0.0000 H   0  0  0  0  0  0  0  0  0  0  0  0
   15.8032   -7.0471    0.0000 H   0  0  0  0  0  0  0  0  0  0  0  0
   17.5035   -6.5055    0.0000 H   0  0  0  0  0  0  0  0  0  0  0  0
  1  2  1  0
  2  3  1  0
  3  4  1  0
  4  5  1  0
  5  6  1  0
  6  7  1  0
  7  8  1  0
  8  9  1  0
  9 10  1  0
 10 11  1  0
 11 12  1  0
 12 13  1  0
 13 14  1  0
 14 15  1  0
 15 16  1  0
 16 17  1  0
 17 18  1  0
 18 19  1  0
 19 20  1  0
 20 21  1  0
 21 22  1  0
 22 23  2  0
 22 24  1  0
 24 25  1  0
 25 26  1  0
 26 27  1  0
 27 28  1  0
 27 29  2  0
 25 30  1  0
 30 31  2  0
 30 32  1  0
 32 33  1  0
 33 34  1  0
 34 35  1  0
 35 36  1  0
 36 37  1  0
 36 38  2  0
 33 39  1  0
 39 40  2  0
 39 41  1  0
 41 42  1  0
 42 43  1  0
 43 44  1  0
 44 45  1  0
 44 46  1  0
 42 47  1  0
 47 48  2  0
 47 49  1  0
 50 49  1  1
 50 51  1  0
 51 52  1  0
 52 53  1  0
 53 54  1  0
 54 55  1  0
 55 56  1  0
 56 57  1  0
 50 58  1  0
 50 59  1  0
 59 60  2  0
 59 61  1  0
 61 62  1  0
 62 63  1  0
 63 64  1  0
 64 65  1  0
 65 66  1  0
 66 67  1  0
 67 68  2  3
 67 69  1  0
 62 70  1  0
 70 71  2  0
 70 72  1  0
 72 73  1  0
 73 74  1  0
 74 75  1  0
 73 76  1  0
 76 77  2  0
 76 78  1  0
 78 79  1  0
 79 80  1  0
 80 81  1  0
 81 82  2  0
 82 83  1  0
 83 84  2  0
 84 85  1  0
 85 86  2  0
 79 87  1  0
 87 88  2  0
 87 89  1  0
 89 90  1  0
 90 91  1  0
 91 92  1  0
 92 93  2  0
 93 94  1  0
 94 95  2  0
 95 96  1  0
 96 97  2  0
 90 98  1  0
 98 99  2  0
 98100  1  0
100101  1  0
101102  1  0
101103  1  0
103104  2  0
103105  1  0
105106  1  0
106107  1  0
107108  1  0
108109  1  0
108110  1  0
106111  1  0
111112  2  0
111113  1  0
113114  1  0
114115  1  0
115116  1  0
116117  1  0
117118  1  0
114119  1  0
114120  1  6
120121  2  0
120122  1  0
122123  1  0
123124  1  0
124125  1  0
125126  2  0
125127  1  0
123128  1  0
128129  2  0
128130  1  0
130131  1  0
131132  1  0
132133  1  0
133134  1  0
134135  1  0
134136  2  0
131137  1  0
137138  2  0
137139  1  0
139140  1  0
140141  1  0
141142  1  0
141143  1  0
143144  1  0
140145  1  0
145146  2  0
145147  1  0
 86 81  1  0
 97 92  1  0
 57118  2  0
  1148  1  0
  1149  1  0
  2150  1  0
  2151  1  0
  3152  1  0
  3153  1  0
  5154  1  0
  5155  1  0
  6156  1  0
  6157  1  0
  8158  1  0
  8159  1  0
  9160  1  0
  9161  1  0
 11162  1  0
 11163  1  0
 12164  1  0
 12165  1  0
 14166  1  0
 14167  1  0
 15168  1  0
 15169  1  0
 17170  1  0
 17171  1  0
 18172  1  0
 18173  1  0
 20174  1  0
 20175  1  0
 21176  1  0
 21177  1  0
 24178  1  0
 25179  1  6
 26180  1  0
 26181  1  0
 28182  1  0
 28183  1  0
 32184  1  0
 33185  1  6
 34186  1  0
 34187  1  0
 35188  1  0
 35189  1  0
 37190  1  0
 37191  1  0
 41192  1  0
 42193  1  1
 43194  1  0
 43195  1  0
 44196  1  0
 45197  1  0
 45198  1  0
 45199  1  0
 46200  1  0
 46201  1  0
 46202  1  0
 49203  1  0
 51204  1  0
 51205  1  0
 52206  1  0
 52207  1  0
 53208  1  0
 53209  1  0
 54210  1  0
 54211  1  0
 55212  1  0
 55213  1  0
 56214  1  0
 56215  1  0
 57216  1  0
 58217  1  0
 58218  1  0
 58219  1  0
 61220  1  0
 62221  1  1
 63222  1  0
 63223  1  0
 64224  1  0
 64225  1  0
 65226  1  0
 65227  1  0
 66228  1  0
 68229  1  0
 68230  1  0
 69231  1  0
 69232  1  0
 72233  1  0
 73234  1  1
 74235  1  0
 74236  1  0
 75237  1  0
 78238  1  0
 79239  1  1
 80240  1  0
 80241  1  0
 82242  1  0
 83243  1  0
 84244  1  0
 85245  1  0
 86246  1  0
 89247  1  0
 90248  1  1
 91249  1  0
 91250  1  0
 93251  1  0
 94252  1  0
 95253  1  0
 96254  1  0
 97255  1  0
100256  1  0
101257  1  1
102258  1  0
102259  1  0
102260  1  0
105261  1  0
106262  1  1
107263  1  0
107264  1  0
108265  1  0
109266  1  0
109267  1  0
109268  1  0
110269  1  0
110270  1  0
110271  1  0
113272  1  0
115273  1  0
115274  1  0
116275  1  0
116276  1  0
117277  1  0
117278  1  0
118279  1  0
119280  1  0
119281  1  0
119282  1  0
122283  1  0
123284  1  1
124285  1  0
124286  1  0
130287  1  0
131288  1  1
132289  1  0
132290  1  0
133291  1  0
133292  1  0
135293  1  0
135294  1  0
139295  1  0
140296  1  6
141297  1  6
142298  1  0
142299  1  0
142300  1  0
143301  1  0
143302  1  0
144303  1  0
144304  1  0
144305  1  0
M  CHG  3  68   1 127  -1 147  -1
M  END
