
     RDKit          2D

330338  0  0  0  0  0  0  0  0999 V2000
   15.4216   -3.9226    0.0000 C   0  0  0  0  0  0  0  0  0  0  0  0
   16.6957   -4.7142    0.0000 N   0  0  0  0  0  0  0  0  0  0  0  0
   16.6472   -6.2134    0.0000 C   0  0  0  0  0  0  0  0  0  0  0  0
   15.3245   -6.9210    0.0000 C   0  0  0  0  0  0  0  0  0  0  0  0
   15.2760   -8.4203    0.0000 C   0  0  0  0  0  0  0  0  0  0  0  0
   16.5501   -9.2119    0.0000 C   0  0  0  0  0  0  0  0  0  0  0  0
   17.8727   -8.5043    0.0000 C   0  0  0  0  0  0  0  0  0  0  0  0
   17.9213   -7.0051    0.0000 C   0  0  0  0  0  0  0  0  0  0  0  0
   18.9544   -9.5435    0.0000 C   0  0  0  0  0  0  0  0  0  0  0  0
   18.3003  -10.8934    0.0000 O   0  0  0  0  0  0  0  0  0  0  0  0
   16.8144  -10.6884    0.0000 C   0  0  0  0  0  0  0  0  0  0  0  0
   15.7752  -11.7701    0.0000 O   0  0  0  0  0  0  0  0  0  0  0  0
   19.9215  -10.6901    0.0000 C   0  0  0  0  0  0  0  0  0  0  0  0
   21.3981  -10.4258    0.0000 C   0  0  0  0  0  0  0  0  0  0  0  0
   22.3652  -11.5724    0.0000 C   0  0  0  0  0  0  0  0  0  0  0  0
   21.8558  -12.9833    0.0000 C   0  0  0  0  0  0  0  0  0  0  0  0
   20.3792  -13.2475    0.0000 C   0  0  0  0  0  0  0  0  0  0  0  0
   19.4121  -12.1009    0.0000 C   0  0  0  0  0  0  0  0  0  0  0  0
   22.8229  -14.1299    0.0000 O   0  0  0  0  0  0  0  0  0  0  0  0
   21.9075   -9.0150    0.0000 O   0  0  0  0  0  0  0  0  0  0  0  0
   20.9404   -7.8684    0.0000 C   0  0  0  0  0  0  0  0  0  0  0  0
   19.4638   -8.1327    0.0000 C   0  0  0  0  0  0  0  0  0  0  0  0
   19.1858   -6.8627    0.0000 C   0  0  0  0  0  0  0  0  0  0  0  0
   19.4575   -6.1103    0.0000 C   0  0  0  0  0  0  0  0  0  0  0  0
   20.2450   -5.9694    0.0000 C   0  0  0  0  0  0  0  0  0  0  0  0
   20.7607   -6.5809    0.0000 C   0  0  0  0  0  0  0  0  0  0  0  0
   20.9921   -3.9001    0.0000 O   0  0  0  0  0  0  0  0  0  0  0  0
   14.0989   -4.6302    0.0000 S   0  0  0  0  0  0  0  0  0  0  0  0
   15.4701   -2.4234    0.0000 N   0  0  0  0  0  0  0  0  0  0  0  0
   14.1960   -1.6318    0.0000 C   0  0  0  0  0  0  0  0  0  0  0  0
   14.2445   -0.1326    0.0000 C   0  0  0  0  0  0  0  0  0  0  0  0
   12.9704    0.6591    0.0000 C   0  0  0  0  0  0  0  0  0  0  0  0
   11.9893   -0.4756    0.0000 O   0  0  0  0  0  0  0  0  0  0  0  0
   13.0189    2.1583    0.0000 N   0  0  0  0  0  0  0  0  0  0  0  0
   11.7448    2.9499    0.0000 C   0  0  0  0  0  0  0  0  0  0  0  0
   11.5472    1.4630    0.0000 C   0  0  0  0  0  0  0  0  0  0  0  0
   10.9202    0.1003    0.0000 C   0  0  0  0  0  0  0  0  0  0  0  0
    9.9194   -1.0170    0.0000 C   0  0  0  0  0  0  0  0  0  0  0  0
    8.6337   -1.7896    0.0000 C   0  0  0  0  0  0  0  0  0  0  0  0
   12.9904    3.7857    0.0000 C   0  0  0  0  0  0  0  0  0  0  0  0
   11.4953    4.4290    0.0000 C   0  0  0  0  0  0  0  0  0  0  0  0
   12.9207    4.8962    0.0000 O   0  0  0  0  0  0  0  0  0  0  0  0
   10.8209    5.7688    0.0000 N   0  0  0  0  0  0  0  0  0  0  0  0
    9.7815    6.8504    0.0000 C   0  0  0  0  0  0  0  0  0  0  0  0
    9.9047    8.3453    0.0000 C   0  0  0  0  0  0  0  0  0  0  0  0
   11.2609    8.9861    0.0000 C   0  0  0  0  0  0  0  0  0  0  0  0
   11.3841   10.4810    0.0000 C   0  0  0  0  0  0  0  0  0  0  0  0
   12.7404   11.1218    0.0000 N   0  0  0  0  0  0  0  0  0  0  0  0
   12.8635   12.6168    0.0000 C   0  0  0  0  0  0  0  0  0  0  0  0
   14.2198   13.2575    0.0000 N   0  0  0  0  0  0  0  0  0  0  0  0
   11.6305   13.4709    0.0000 N   0  0  0  0  0  0  0  0  0  0  0  0
    8.4695    7.5775    0.0000 C   0  0  0  0  0  0  0  0  0  0  0  0
    8.9930    8.9832    0.0000 O   0  0  0  0  0  0  0  0  0  0  0  0
    7.0015    7.8856    0.0000 N   0  0  0  0  0  0  0  0  0  0  0  0
    5.5079    7.7473    0.0000 C   0  0  0  0  0  0  0  0  0  0  0  0
    4.4159    8.7757    0.0000 C   0  0  0  0  0  0  0  0  0  0  0  0
    4.7605   10.2356    0.0000 C   0  0  0  0  0  0  0  0  0  0  0  0
    3.6686   11.2640    0.0000 C   0  0  0  0  0  0  0  0  0  0  0  0
    4.0132   12.7239    0.0000 N   0  0  0  0  0  0  0  0  0  0  0  0
    2.9212   13.7522    0.0000 C   0  0  0  0  0  0  0  0  0  0  0  0
    3.2658   15.2121    0.0000 N   0  0  0  0  0  0  0  0  0  0  0  0
    1.4846   13.3207    0.0000 N   0  0  0  0  0  0  0  0  0  0  0  0
    4.1214    7.1749    0.0000 C   0  0  0  0  0  0  0  0  0  0  0  0
    3.3488    8.4606    0.0000 O   0  0  0  0  0  0  0  0  0  0  0  0
    2.9652    6.2193    0.0000 N   0  0  0  0  0  0  0  0  0  0  0  0
    2.1421    4.9653    0.0000 C   0  0  0  0  0  0  0  0  0  0  0  0
    0.6572    4.7528    0.0000 C   0  0  0  0  0  0  0  0  0  0  0  0
   -0.2693    5.9324    0.0000 C   0  0  0  0  0  0  0  0  0  0  0  0
   -1.7542    5.7199    0.0000 C   0  0  0  0  0  0  0  0  0  0  0  0
   -2.6807    6.8995    0.0000 N   0  0  0  0  0  0  0  0  0  0  0  0
   -2.4780    4.4061    0.0000 O   0  0  0  0  0  0  0  0  0  0  0  0
    1.7251    3.5245    0.0000 C   0  0  0  0  0  0  0  0  0  0  0  0
    0.9473    3.9481    0.0000 O   0  0  0  0  0  0  0  0  0  0  0  0
    1.7514    2.0247    0.0000 N   0  0  0  0  0  0  0  0  0  0  0  0
    2.2186    0.5993    0.0000 C   0  0  0  0  0  0  0  0  0  0  0  0
    3.0851   -0.6251    0.0000 C   0  0  0  0  0  0  0  0  0  0  0  0
    4.2741   -1.5396    0.0000 C   0  0  0  0  0  0  0  0  0  0  0  0
    5.6798   -2.0631    0.0000 C   0  0  0  0  0  0  0  0  0  0  0  0
    7.1773   -2.1490    0.0000 C   0  0  0  0  0  0  0  0  0  0  0  0
    2.0891   -0.9893    0.0000 C   0  0  0  0  0  0  0  0  0  0  0  0
    2.3347   -2.3340    0.0000 C   0  0  0  0  0  0  0  0  0  0  0  0
    2.3215   -3.7008    0.0000 C   0  0  0  0  0  0  0  0  0  0  0  0
    2.0498   -5.0405    0.0000 C   0  0  0  0  0  0  0  0  0  0  0  0
    0.8655    1.4416    0.0000 C   0  0  0  0  0  0  0  0  0  0  0  0
    2.6079    2.7847    0.0000 O   0  0  0  0  0  0  0  0  0  0  0  0
   -0.0682    2.4400    0.0000 N   0  0  0  0  0  0  0  0  0  0  0  0
   -1.1739    3.2436    0.0000 C   0  0  0  0  0  0  0  0  0  0  0  0
   -0.8511    5.3460    0.0000 C   0  0  0  0  0  0  0  0  0  0  0  0
   -2.1664    6.0672    0.0000 C   0  0  0  0  0  0  0  0  0  0  0  0
   -2.1995    7.5668    0.0000 C   0  0  0  0  0  0  0  0  0  0  0  0
   -3.5147    8.2880    0.0000 N   0  0  0  0  0  0  0  0  0  0  0  0
   -3.5478    9.7877    0.0000 C   0  0  0  0  0  0  0  0  0  0  0  0
   -4.6495   10.8057    0.0000 N   0  0  0  0  0  0  0  0  0  0  0  0
   -2.2656   10.5661    0.0000 N   0  0  0  0  0  0  0  0  0  0  0  0
   -2.4118    3.8235    0.0000 C   0  0  0  0  0  0  0  0  0  0  0  0
   -2.3945    5.9668    0.0000 O   0  0  0  0  0  0  0  0  0  0  0  0
   -3.7370    4.1586    0.0000 N   0  0  0  0  0  0  0  0  0  0  0  0
   -5.1016    4.2368    0.0000 C   0  0  0  0  0  0  0  0  0  0  0  0
   -5.9668    6.1800    0.0000 C   0  0  0  0  0  0  0  0  0  0  0  0
   -5.3090    7.5281    0.0000 C   0  0  0  0  0  0  0  0  0  0  0  0
   -6.1476    8.7718    0.0000 C   0  0  0  0  0  0  0  0  0  0  0  0
   -5.4898   10.1199    0.0000 N   0  0  0  0  0  0  0  0  0  0  0  0
   -6.3284   11.3636    0.0000 C   0  0  0  0  0  0  0  0  0  0  0  0
   -5.6706   12.7116    0.0000 N   0  0  0  0  0  0  0  0  0  0  0  0
   -7.8248   11.2592    0.0000 N   0  0  0  0  0  0  0  0  0  0  0  0
   -6.4565    4.0554    0.0000 C   0  0  0  0  0  0  0  0  0  0  0  0
   -7.1300    6.1460    0.0000 O   0  0  0  0  0  0  0  0  0  0  0  0
   -7.7525    3.6208    0.0000 N   0  0  0  0  0  0  0  0  0  0  0  0
   -8.9428    2.9489    0.0000 C   0  0  0  0  0  0  0  0  0  0  0  0
  -10.7212    4.1159    0.0000 C   0  0  0  0  0  0  0  0  0  0  0  0
  -10.8967    5.6056    0.0000 C   0  0  0  0  0  0  0  0  0  0  0  0
  -12.2745    6.1984    0.0000 C   0  0  0  0  0  0  0  0  0  0  0  0
  -12.4500    7.6881    0.0000 N   0  0  0  0  0  0  0  0  0  0  0  0
  -13.8279    8.2810    0.0000 C   0  0  0  0  0  0  0  0  0  0  0  0
  -14.0033    9.7707    0.0000 N   0  0  0  0  0  0  0  0  0  0  0  0
  -15.0302    7.3842    0.0000 N   0  0  0  0  0  0  0  0  0  0  0  0
   -9.9845    2.0638    0.0000 C   0  0  0  0  0  0  0  0  0  0  0  0
  -11.6814    3.4584    0.0000 O   0  0  0  0  0  0  0  0  0  0  0  0
  -10.8398    0.9975    0.0000 N   0  0  0  0  0  0  0  0  0  0  0  0
  -11.4779   -0.2113    0.0000 C   0  0  0  0  0  0  0  0  0  0  0  0
  -13.6049   -0.1910    0.0000 C   0  0  0  0  0  0  0  0  0  0  0  0
  -14.5579    0.9673    0.0000 C   0  0  0  0  0  0  0  0  0  0  0  0
  -14.1810    2.4192    0.0000 C   0  0  0  0  0  0  0  0  0  0  0  0
  -15.4453    3.2263    0.0000 N   0  0  0  0  0  0  0  0  0  0  0  0
  -16.6036    2.2733    0.0000 C   0  0  0  0  0  0  0  0  0  0  0  0
  -18.0869    2.4964    0.0000 C   0  0  0  0  0  0  0  0  0  0  0  0
  -19.0218    1.3234    0.0000 C   0  0  0  0  0  0  0  0  0  0  0  0
  -18.4734   -0.0727    0.0000 C   0  0  0  0  0  0  0  0  0  0  0  0
  -16.9901   -0.2959    0.0000 C   0  0  0  0  0  0  0  0  0  0  0  0
  -16.0552    0.8772    0.0000 C   0  0  0  0  0  0  0  0  0  0  0  0
  -11.8757   -1.5191    0.0000 C   0  0  0  0  0  0  0  0  0  0  0  0
  -14.0572   -1.2633    0.0000 O   0  0  0  0  0  0  0  0  0  0  0  0
  -12.0188   -2.8785    0.0000 N   0  0  0  0  0  0  0  0  0  0  0  0
  -11.9021   -4.2404    0.0000 C   0  0  0  0  0  0  0  0  0  0  0  0
  -13.7023   -5.3733    0.0000 C   0  0  0  0  0  0  0  0  0  0  0  0
  -15.1303   -4.9141    0.0000 C   0  0  0  0  0  0  0  0  0  0  0  0
  -16.2420   -5.9211    0.0000 C   0  0  0  0  0  0  0  0  0  0  0  0
  -17.6700   -5.4619    0.0000 N   0  0  0  0  0  0  0  0  0  0  0  0
  -18.7817   -6.4689    0.0000 C   0  0  0  0  0  0  0  0  0  0  0  0
  -20.2096   -6.0097    0.0000 N   0  0  0  0  0  0  0  0  0  0  0  0
  -18.4654   -7.9352    0.0000 N   0  0  0  0  0  0  0  0  0  0  0  0
  -11.5297   -5.5556    0.0000 C   0  0  0  0  0  0  0  0  0  0  0  0
  -13.5032   -6.5198    0.0000 O   0  0  0  0  0  0  0  0  0  0  0  0
  -10.9151   -6.7766    0.0000 N   0  0  0  0  0  0  0  0  0  0  0  0
  -10.0806   -7.8592    0.0000 C   0  0  0  0  0  0  0  0  0  0  0  0
  -10.9826   -9.7856    0.0000 C   0  0  0  0  0  0  0  0  0  0  0  0
  -12.4322  -10.1712    0.0000 C   0  0  0  0  0  0  0  0  0  0  0  0
  -12.8229  -11.6195    0.0000 C   0  0  0  0  0  0  0  0  0  0  0  0
  -14.2725  -12.0052    0.0000 N   0  0  0  0  0  0  0  0  0  0  0  0
  -14.6632  -13.4534    0.0000 C   0  0  0  0  0  0  0  0  0  0  0  0
  -16.1128  -13.8391    0.0000 N   0  0  0  0  0  0  0  0  0  0  0  0
  -13.6044  -14.5159    0.0000 N   0  0  0  0  0  0  0  0  0  0  0  0
   -9.0562   -8.7643    0.0000 C   0  0  0  0  0  0  0  0  0  0  0  0
  -10.1952  -10.6424    0.0000 O   0  0  0  0  0  0  0  0  0  0  0  0
   -7.8791   -9.4592    0.0000 N   0  0  0  0  0  0  0  0  0  0  0  0
   -6.5918   -9.9188    0.0000 C   0  0  0  0  0  0  0  0  0  0  0  0
   -5.2407  -10.1264    0.0000 C   0  0  0  0  0  0  0  0  0  0  0  0
   -3.8748  -10.0746    0.0000 C   0  0  0  0  0  0  0  0  0  0  0  0
   -2.5433   -9.7652    0.0000 C   0  0  0  0  0  0  0  0  0  0  0  0
   -1.2945   -9.2094    0.0000 C   0  0  0  0  0  0  0  0  0  0  0  0
   -0.1734   -8.4273    0.0000 C   0  0  0  0  0  0  0  0  0  0  0  0
    0.7794   -7.4472    0.0000 C   0  0  0  0  0  0  0  0  0  0  0  0
    1.5295   -6.3045    0.0000 C   0  0  0  0  0  0  0  0  0  0  0  0
   -7.8425  -11.6392    0.0000 C   0  0  0  0  0  0  0  0  0  0  0  0
   -6.3091  -12.0270    0.0000 C   0  0  0  0  0  0  0  0  0  0  0  0
   -7.1774  -13.2501    0.0000 O   0  0  0  0  0  0  0  0  0  0  0  0
   -4.9653  -12.6934    0.0000 O   0  0  0  0  0  0  0  0  0  0  0  0
   17.9222   -3.8507    0.0000 H   0  0  0  0  0  0  0  0  0  0  0  0
   14.0504   -6.1294    0.0000 H   0  0  0  0  0  0  0  0  0  0  0  0
   13.9534   -9.1278    0.0000 H   0  0  0  0  0  0  0  0  0  0  0  0
   19.0333   -5.9985    0.0000 H   0  0  0  0  0  0  0  0  0  0  0  0
   23.8417  -11.3082    0.0000 H   0  0  0  0  0  0  0  0  0  0  0  0
   19.8698  -14.6584    0.0000 H   0  0  0  0  0  0  0  0  0  0  0  0
   17.9356  -12.3652    0.0000 H   0  0  0  0  0  0  0  0  0  0  0  0
   22.3135  -15.5407    0.0000 H   0  0  0  0  0  0  0  0  0  0  0  0
   17.0202   -7.2503    0.0000 H   0  0  0  0  0  0  0  0  0  0  0  0
   18.1860   -4.3193    0.0000 H   0  0  0  0  0  0  0  0  0  0  0  0
   22.9263   -6.1933    0.0000 H   0  0  0  0  0  0  0  0  0  0  0  0
   22.4686   -3.6359    0.0000 H   0  0  0  0  0  0  0  0  0  0  0  0
   16.7927   -1.7158    0.0000 H   0  0  0  0  0  0  0  0  0  0  0  0
   13.6376   -3.0240    0.0000 H   0  0  0  0  0  0  0  0  0  0  0  0
   12.7280   -1.3237    0.0000 H   0  0  0  0  0  0  0  0  0  0  0  0
   15.7125   -0.4407    0.0000 H   0  0  0  0  0  0  0  0  0  0  0  0
   14.8028    1.2597    0.0000 H   0  0  0  0  0  0  0  0  0  0  0  0
   14.4179    2.6994    0.0000 H   0  0  0  0  0  0  0  0  0  0  0  0
   13.0456    1.5340    0.0000 H   0  0  0  0  0  0  0  0  0  0  0  0
   12.3861    0.2194    0.0000 H   0  0  0  0  0  0  0  0  0  0  0  0
   12.2393   -0.6138    0.0000 H   0  0  0  0  0  0  0  0  0  0  0  0
   11.6897   -1.1873    0.0000 H   0  0  0  0  0  0  0  0  0  0  0  0
   11.2835   -1.6407    0.0000 H   0  0  0  0  0  0  0  0  0  0  0  0
   10.0948   -2.5067    0.0000 H   0  0  0  0  0  0  0  0  0  0  0  0
    9.2060   -3.1761    0.0000 H   0  0  0  0  0  0  0  0  0  0  0  0
   14.4075    3.2939    0.0000 H   0  0  0  0  0  0  0  0  0  0  0  0
   13.8750    4.9971    0.0000 H   0  0  0  0  0  0  0  0  0  0  0  0
   12.2436    5.0866    0.0000 H   0  0  0  0  0  0  0  0  0  0  0  0
   12.0452    6.6354    0.0000 H   0  0  0  0  0  0  0  0  0  0  0  0
   11.2455    7.1769    0.0000 H   0  0  0  0  0  0  0  0  0  0  0  0
    9.3357    9.7332    0.0000 H   0  0  0  0  0  0  0  0  0  0  0  0
    8.4220    8.5726    0.0000 H   0  0  0  0  0  0  0  0  0  0  0  0
   12.7545    9.1244    0.0000 H   0  0  0  0  0  0  0  0  0  0  0  0
   11.8299    7.5982    0.0000 H   0  0  0  0  0  0  0  0  0  0  0  0
   10.9886   11.9279    0.0000 H   0  0  0  0  0  0  0  0  0  0  0  0
    9.8848   10.5259    0.0000 H   0  0  0  0  0  0  0  0  0  0  0  0
   13.9734   10.2677    0.0000 H   0  0  0  0  0  0  0  0  0  0  0  0
   14.3430   14.7525    0.0000 H   0  0  0  0  0  0  0  0  0  0  0  0
   11.7537   14.9658    0.0000 H   0  0  0  0  0  0  0  0  0  0  0  0
   10.2742   12.8301    0.0000 H   0  0  0  0  0  0  0  0  0  0  0  0
    7.0874    9.3832    0.0000 H   0  0  0  0  0  0  0  0  0  0  0  0
    6.1654    9.0956    0.0000 H   0  0  0  0  0  0  0  0  0  0  0  0
    2.9761    9.1962    0.0000 H   0  0  0  0  0  0  0  0  0  0  0  0
    3.3138    7.7582    0.0000 H   0  0  0  0  0  0  0  0  0  0  0  0
    5.5837   11.4896    0.0000 H   0  0  0  0  0  0  0  0  0  0  0  0
    6.2004    9.8151    0.0000 H   0  0  0  0  0  0  0  0  0  0  0  0
    2.2907   11.8569    0.0000 H   0  0  0  0  0  0  0  0  0  0  0  0
    2.6987   10.1197    0.0000 H   0  0  0  0  0  0  0  0  0  0  0  0
    5.4498   13.1554    0.0000 H   0  0  0  0  0  0  0  0  0  0  0  0
    2.1738   16.2405    0.0000 H   0  0  0  0  0  0  0  0  0  0  0  0
    0.3926   14.3491    0.0000 H   0  0  0  0  0  0  0  0  0  0  0  0
    1.1400   11.8609    0.0000 H   0  0  0  0  0  0  0  0  0  0  0  0
    1.8479    7.2202    0.0000 H   0  0  0  0  0  0  0  0  0  0  0  0
    1.4980    6.3200    0.0000 H   0  0  0  0  0  0  0  0  0  0  0  0
   -0.7973    4.3863    0.0000 H   0  0  0  0  0  0  0  0  0  0  0  0
    0.5824    3.2546    0.0000 H   0  0  0  0  0  0  0  0  0  0  0  0
   -0.3777    7.4285    0.0000 H   0  0  0  0  0  0  0  0  0  0  0  0
    0.9572    6.7960    0.0000 H   0  0  0  0  0  0  0  0  0  0  0  0
   -4.1728    7.0526    0.0000 H   0  0  0  0  0  0  0  0  0  0  0  0
   -2.6584    8.3994    0.0000 H   0  0  0  0  0  0  0  0  0  0  0  0
    0.2723    1.7752    0.0000 H   0  0  0  0  0  0  0  0  0  0  0  0
    2.9211   -2.1161    0.0000 H   0  0  0  0  0  0  0  0  0  0  0  0
    1.6127   -0.9114    0.0000 H   0  0  0  0  0  0  0  0  0  0  0  0
    4.5568   -3.0127    0.0000 H   0  0  0  0  0  0  0  0  0  0  0  0
    3.2930   -2.6743    0.0000 H   0  0  0  0  0  0  0  0  0  0  0  0
    6.2174   -3.4634    0.0000 H   0  0  0  0  0  0  0  0  0  0  0  0
    5.0767   -3.4365    0.0000 H   0  0  0  0  0  0  0  0  0  0  0  0
    7.3156   -3.6426    0.0000 H   0  0  0  0  0  0  0  0  0  0  0  0
    3.7735    0.3096    0.0000 H   0  0  0  0  0  0  0  0  0  0  0  0
    4.1432   -1.3849    0.0000 H   0  0  0  0  0  0  0  0  0  0  0  0
    4.4761   -1.8679    0.0000 H   0  0  0  0  0  0  0  0  0  0  0  0
    4.2769   -3.1112    0.0000 H   0  0  0  0  0  0  0  0  0  0  0  0
    4.5124   -3.6485    0.0000 H   0  0  0  0  0  0  0  0  0  0  0  0
    4.2025   -4.6940    0.0000 H   0  0  0  0  0  0  0  0  0  0  0  0
    4.1546   -5.6807    0.0000 H   0  0  0  0  0  0  0  0  0  0  0  0
    1.2441    4.2013    0.0000 H   0  0  0  0  0  0  0  0  0  0  0  0
    0.3031    4.8429    0.0000 H   0  0  0  0  0  0  0  0  0  0  0  0
   -0.3693    6.7666    0.0000 H   0  0  0  0  0  0  0  0  0  0  0  0
    0.5926    4.9392    0.0000 H   0  0  0  0  0  0  0  0  0  0  0  0
   -3.6490    6.2950    0.0000 H   0  0  0  0  0  0  0  0  0  0  0  0
   -3.1254    4.9138    0.0000 H   0  0  0  0  0  0  0  0  0  0  0  0
   -1.5481    8.9180    0.0000 H   0  0  0  0  0  0  0  0  0  0  0  0
   -0.7058    7.7045    0.0000 H   0  0  0  0  0  0  0  0  0  0  0  0
   -4.9472    7.8429    0.0000 H   0  0  0  0  0  0  0  0  0  0  0  0
   -4.8962   12.0085    0.0000 H   0  0  0  0  0  0  0  0  0  0  0  0
   -2.2987   12.0658    0.0000 H   0  0  0  0  0  0  0  0  0  0  0  0
   -0.9504    9.8449    0.0000 H   0  0  0  0  0  0  0  0  0  0  0  0
   -3.5852    6.3498    0.0000 H   0  0  0  0  0  0  0  0  0  0  0  0
   -4.5507    6.3207    0.0000 H   0  0  0  0  0  0  0  0  0  0  0  0
   -7.1802    7.0619    0.0000 H   0  0  0  0  0  0  0  0  0  0  0  0
   -7.2660    5.4303    0.0000 H   0  0  0  0  0  0  0  0  0  0  0  0
   -4.5140    8.8001    0.0000 H   0  0  0  0  0  0  0  0  0  0  0  0
   -4.0956    6.6462    0.0000 H   0  0  0  0  0  0  0  0  0  0  0  0
   -7.3610    9.6537    0.0000 H   0  0  0  0  0  0  0  0  0  0  0  0
   -7.3457    7.8693    0.0000 H   0  0  0  0  0  0  0  0  0  0  0  0
   -4.0632   10.5832    0.0000 H   0  0  0  0  0  0  0  0  0  0  0  0
   -6.5092   13.9553    0.0000 H   0  0  0  0  0  0  0  0  0  0  0  0
   -8.6634   12.5029    0.0000 H   0  0  0  0  0  0  0  0  0  0  0  0
   -8.4825    9.9111    0.0000 H   0  0  0  0  0  0  0  0  0  0  0  0
   -8.4754    5.6949    0.0000 H   0  0  0  0  0  0  0  0  0  0  0  0
   -9.2408    5.0195    0.0000 H   0  0  0  0  0  0  0  0  0  0  0  0
  -12.2187    4.2017    0.0000 H   0  0  0  0  0  0  0  0  0  0  0  0
  -11.4088    2.7828    0.0000 H   0  0  0  0  0  0  0  0  0  0  0  0
  -10.5521    7.0654    0.0000 H   0  0  0  0  0  0  0  0  0  0  0  0
   -9.4229    5.8846    0.0000 H   0  0  0  0  0  0  0  0  0  0  0  0
  -13.7721    6.2843    0.0000 H   0  0  0  0  0  0  0  0  0  0  0  0
  -12.7945    4.7915    0.0000 H   0  0  0  0  0  0  0  0  0  0  0  0
  -11.2476    8.5850    0.0000 H   0  0  0  0  0  0  0  0  0  0  0  0
  -15.3812   10.3636    0.0000 H   0  0  0  0  0  0  0  0  0  0  0  0
  -16.4081    7.9771    0.0000 H   0  0  0  0  0  0  0  0  0  0  0  0
  -14.8548    5.8945    0.0000 H   0  0  0  0  0  0  0  0  0  0  0  0
  -12.5693    2.3515    0.0000 H   0  0  0  0  0  0  0  0  0  0  0  0
  -13.0029    1.2716    0.0000 H   0  0  0  0  0  0  0  0  0  0  0  0
  -14.9913   -0.7637    0.0000 H   0  0  0  0  0  0  0  0  0  0  0  0
  -13.4626   -1.6843    0.0000 H   0  0  0  0  0  0  0  0  0  0  0  0
  -12.8621    3.1337    0.0000 H   0  0  0  0  0  0  0  0  0  0  0  0
  -15.5354    4.7236    0.0000 H   0  0  0  0  0  0  0  0  0  0  0  0
  -18.6354    3.8926    0.0000 H   0  0  0  0  0  0  0  0  0  0  0  0
  -20.5051    1.5465    0.0000 H   0  0  0  0  0  0  0  0  0  0  0  0
  -19.4083   -1.2458    0.0000 H   0  0  0  0  0  0  0  0  0  0  0  0
  -16.4417   -1.6920    0.0000 H   0  0  0  0  0  0  0  0  0  0  0  0
  -14.2058   -2.6745    0.0000 H   0  0  0  0  0  0  0  0  0  0  0  0
  -13.9093   -3.6513    0.0000 H   0  0  0  0  0  0  0  0  0  0  0  0
  -14.4026   -6.6998    0.0000 H   0  0  0  0  0  0  0  0  0  0  0  0
  -12.7754   -6.5526    0.0000 H   0  0  0  0  0  0  0  0  0  0  0  0
  -16.3151   -3.9941    0.0000 H   0  0  0  0  0  0  0  0  0  0  0  0
  -14.7719   -3.4575    0.0000 H   0  0  0  0  0  0  0  0  0  0  0  0
  -16.9422   -7.2476    0.0000 H   0  0  0  0  0  0  0  0  0  0  0  0
  -15.1782   -6.9786    0.0000 H   0  0  0  0  0  0  0  0  0  0  0  0
  -17.9863   -3.9956    0.0000 H   0  0  0  0  0  0  0  0  0  0  0  0
  -21.3213   -7.0168    0.0000 H   0  0  0  0  0  0  0  0  0  0  0  0
  -19.5771   -8.9423    0.0000 H   0  0  0  0  0  0  0  0  0  0  0  0
  -17.0374   -8.3944    0.0000 H   0  0  0  0  0  0  0  0  0  0  0  0
  -12.8652   -7.7873    0.0000 H   0  0  0  0  0  0  0  0  0  0  0  0
  -12.0877   -8.4488    0.0000 H   0  0  0  0  0  0  0  0  0  0  0  0
  -10.8545  -11.2801    0.0000 H   0  0  0  0  0  0  0  0  0  0  0  0
   -9.5652  -10.2765    0.0000 H   0  0  0  0  0  0  0  0  0  0  0  0
  -13.9262  -10.0379    0.0000 H   0  0  0  0  0  0  0  0  0  0  0  0
  -12.9181   -8.7521    0.0000 H   0  0  0  0  0  0  0  0  0  0  0  0
  -12.6948  -13.1140    0.0000 H   0  0  0  0  0  0  0  0  0  0  0  0
  -11.3562  -11.9339    0.0000 H   0  0  0  0  0  0  0  0  0  0  0  0
  -15.3313  -10.9426    0.0000 H   0  0  0  0  0  0  0  0  0  0  0  0
  -16.5036  -15.2873    0.0000 H   0  0  0  0  0  0  0  0  0  0  0  0
  -13.9952  -15.9641    0.0000 H   0  0  0  0  0  0  0  0  0  0  0  0
  -12.1549  -14.1302    0.0000 H   0  0  0  0  0  0  0  0  0  0  0  0
   -8.9732  -11.3638    0.0000 H   0  0  0  0  0  0  0  0  0  0  0  0
   -4.5642  -12.1430    0.0000 H   0  0  0  0  0  0  0  0  0  0  0  0
   -5.8207  -12.2247    0.0000 H   0  0  0  0  0  0  0  0  0  0  0  0
   -2.9771  -12.0342    0.0000 H   0  0  0  0  0  0  0  0  0  0  0  0
   -4.0472  -12.2447    0.0000 H   0  0  0  0  0  0  0  0  0  0  0  0
   -1.2910  -11.5196    0.0000 H   0  0  0  0  0  0  0  0  0  0  0  0
   -2.4849  -11.9199    0.0000 H   0  0  0  0  0  0  0  0  0  0  0  0
    0.2672  -10.6951    0.0000 H   0  0  0  0  0  0  0  0  0  0  0  0
   -0.8293  -11.3141    0.0000 H   0  0  0  0  0  0  0  0  0  0  0  0
    1.6412   -9.5906    0.0000 H   0  0  0  0  0  0  0  0  0  0  0  0
    0.6817  -10.4059    0.0000 H   0  0  0  0  0  0  0  0  0  0  0  0
    2.8145   -8.0659    0.0000 H   0  0  0  0  0  0  0  0  0  0  0  0
    1.9935   -9.2283    0.0000 H   0  0  0  0  0  0  0  0  0  0  0  0
    3.4751   -7.3315    0.0000 H   0  0  0  0  0  0  0  0  0  0  0  0
   -7.6600  -13.1281    0.0000 H   0  0  0  0  0  0  0  0  0  0  0  0
   -9.1284  -12.4116    0.0000 H   0  0  0  0  0  0  0  0  0  0  0  0
   -8.9571  -10.6354    0.0000 H   0  0  0  0  0  0  0  0  0  0  0  0
   -4.3897  -13.7780    0.0000 H   0  0  0  0  0  0  0  0  0  0  0  0
  1  2  1  0
  2  3  1  0
  3  4  2  0
  4  5  1  0
  5  6  2  0
  6  7  1  0
  7  8  2  0
  7  9  1  0
  9 10  1  0
 10 11  1  0
 11 12  2  0
  9 13  1  0
 13 14  1  0
 14 15  2  0
 15 16  1  0
 16 17  2  0
 17 18  1  0
 16 19  1  0
 14 20  1  0
 20 21  1  0
 21 22  2  0
 22 23  1  0
 23 24  2  0
 24 25  1  0
 25 26  2  0
 25 27  1  0
  1 28  2  0
  1 29  1  0
 29 30  1  0
 30 31  1  0
 31 32  1  0
 32 33  2  0
 32 34  1  0
 35 34  1  1
 35 36  1  0
 36 37  1  0
 37 38  1  0
 38 39  1  0
 35 40  1  0
 35 41  1  0
 41 42  2  0
 41 43  1  0
 43 44  1  0
 44 45  1  0
 45 46  1  0
 46 47  1  0
 47 48  1  0
 48 49  1  0
 49 50  2  3
 49 51  1  0
 44 52  1  0
 52 53  2  0
 52 54  1  0
 54 55  1  0
 55 56  1  0
 56 57  1  0
 57 58  1  0
 58 59  1  0
 59 60  1  0
 60 61  2  3
 60 62  1  0
 55 63  1  0
 63 64  2  0
 63 65  1  0
 65 66  1  0
 66 67  1  0
 67 68  1  0
 68 69  1  0
 69 70  1  0
 69 71  2  0
 66 72  1  0
 72 73  2  0
 72 74  1  0
 74 75  1  0
 75 76  1  0
 76 77  1  0
 77 78  1  0
 78 79  1  0
 75 80  1  0
 80 81  1  0
 81 82  1  0
 82 83  1  0
 75 84  1  0
 84 85  2  0
 84 86  1  0
 86 87  1  0
 87 88  1  0
 88 89  1  0
 89 90  1  0
 90 91  1  0
 91 92  1  0
 92 93  2  3
 92 94  1  0
 87 95  1  0
 95 96  2  0
 95 97  1  0
 97 98  1  0
 98 99  1  0
 99100  1  0
100101  1  0
101102  1  0
102103  1  0
103104  2  3
103105  1  0
 98106  1  0
106107  2  0
106108  1  0
108109  1  0
109110  1  0
110111  1  0
111112  1  0
112113  1  0
113114  1  0
114115  2  3
114116  1  0
109117  1  0
117118  2  0
117119  1  0
119120  1  0
120121  1  0
121122  1  0
122123  2  0
123124  1  0
124125  1  0
125126  2  0
126127  1  0
127128  2  0
128129  1  0
129130  2  0
120131  1  0
131132  2  0
131133  1  0
133134  1  0
134135  1  0
135136  1  0
136137  1  0
137138  1  0
138139  1  0
139140  2  3
139141  1  0
134142  1  0
142143  2  0
142144  1  0
144145  1  0
145146  1  0
146147  1  0
147148  1  0
148149  1  0
149150  1  0
150151  2  3
150152  1  0
145153  1  0
153154  2  0
153155  1  0
155156  1  0
156157  1  0
157158  1  0
158159  1  0
159160  1  0
160161  1  0
161162  1  0
162163  1  0
156164  1  0
156165  1  1
165166  2  0
165167  1  0
  8  3  1  0
130122  1  0
 11  6  1  0
 39 79  2  0
130125  1  0
 18 13  2  0
 83163  2  0
 22  9  1  0
 26 21  1  0
  2168  1  0
  4169  1  0
  5170  1  0
  8171  1  0
 15172  1  0
 17173  1  0
 18174  1  0
 19175  1  0
 23176  1  0
 24177  1  0
 26178  1  0
 27179  1  0
 29180  1  0
 30181  1  0
 30182  1  0
 31183  1  0
 31184  1  0
 34185  1  0
 36186  1  0
 36187  1  0
 37188  1  0
 37189  1  0
 38190  1  0
 38191  1  0
 39192  1  0
 40193  1  0
 40194  1  0
 40195  1  0
 43196  1  0
 44197  1  6
 45198  1  0
 45199  1  0
 46200  1  0
 46201  1  0
 47202  1  0
 47203  1  0
 48204  1  0
 50205  1  0
 51206  1  0
 51207  1  0
 54208  1  0
 55209  1  6
 56210  1  0
 56211  1  0
 57212  1  0
 57213  1  0
 58214  1  0
 58215  1  0
 59216  1  0
 61217  1  0
 62218  1  0
 62219  1  0
 65220  1  0
 66221  1  6
 67222  1  0
 67223  1  0
 68224  1  0
 68225  1  0
 70226  1  0
 70227  1  0
 74228  1  0
 76229  1  0
 76230  1  0
 77231  1  0
 77232  1  0
 78233  1  0
 78234  1  0
 79235  1  0
 80236  1  0
 80237  1  0
 81238  1  0
 81239  1  0
 82240  1  0
 82241  1  0
 83242  1  0
 86243  1  0
 87244  1  6
 88245  1  0
 88246  1  0
 89247  1  0
 89248  1  0
 90249  1  0
 90250  1  0
 91251  1  0
 93252  1  0
 94253  1  0
 94254  1  0
 97255  1  0
 98256  1  6
 99257  1  0
 99258  1  0
100259  1  0
100260  1  0
101261  1  0
101262  1  0
102263  1  0
104264  1  0
105265  1  0
105266  1  0
108267  1  0
109268  1  6
110269  1  0
110270  1  0
111271  1  0
111272  1  0
112273  1  0
112274  1  0
113275  1  0
115276  1  0
116277  1  0
116278  1  0
119279  1  0
120280  1  6
121281  1  0
121282  1  0
123283  1  0
124284  1  0
126285  1  0
127286  1  0
128287  1  0
129288  1  0
133289  1  0
134290  1  6
135291  1  0
135292  1  0
136293  1  0
136294  1  0
137295  1  0
137296  1  0
138297  1  0
140298  1  0
141299  1  0
141300  1  0
144301  1  0
145302  1  6
146303  1  0
146304  1  0
147305  1  0
147306  1  0
148307  1  0
148308  1  0
149309  1  0
151310  1  0
152311  1  0
152312  1  0
155313  1  0
157314  1  0
157315  1  0
158316  1  0
158317  1  0
159318  1  0
159319  1  0
160320  1  0
160321  1  0
161322  1  0
161323  1  0
162324  1  0
162325  1  0
163326  1  0
164327  1  0
164328  1  0
164329  1  0
167330  1  0
M  END
