
     RDKit          2D

467473  0  0  0  0  0  0  0  0999 V2000
   31.6931  -13.5093    0.0000 C   0  0  0  0  0  0  0  0  0  0  0  0
   32.9442  -14.3369    0.0000 N   0  0  0  0  0  0  0  0  0  0  0  0
   32.8531  -15.8341    0.0000 C   0  0  0  0  0  0  0  0  0  0  0  0
   31.5109  -16.5038    0.0000 C   0  0  0  0  0  0  0  0  0  0  0  0
   31.4197  -18.0010    0.0000 C   0  0  0  0  0  0  0  0  0  0  0  0
   32.6708  -18.8286    0.0000 C   0  0  0  0  0  0  0  0  0  0  0  0
   34.0130  -18.1589    0.0000 C   0  0  0  0  0  0  0  0  0  0  0  0
   34.1041  -16.6617    0.0000 C   0  0  0  0  0  0  0  0  0  0  0  0
   35.0647  -19.2285    0.0000 C   0  0  0  0  0  0  0  0  0  0  0  0
   34.3724  -20.5592    0.0000 O   0  0  0  0  0  0  0  0  0  0  0  0
   32.8929  -20.3120    0.0000 C   0  0  0  0  0  0  0  0  0  0  0  0
   31.8234  -21.3637    0.0000 O   0  0  0  0  0  0  0  0  0  0  0  0
   35.9988  -20.4021    0.0000 C   0  0  0  0  0  0  0  0  0  0  0  0
   37.4822  -20.1799    0.0000 C   0  0  0  0  0  0  0  0  0  0  0  0
   38.4164  -21.3536    0.0000 C   0  0  0  0  0  0  0  0  0  0  0  0
   37.8670  -22.7494    0.0000 C   0  0  0  0  0  0  0  0  0  0  0  0
   36.3836  -22.9715    0.0000 C   0  0  0  0  0  0  0  0  0  0  0  0
   35.4494  -21.7979    0.0000 C   0  0  0  0  0  0  0  0  0  0  0  0
   38.8011  -23.9230    0.0000 O   0  0  0  0  0  0  0  0  0  0  0  0
   38.0316  -18.7842    0.0000 O   0  0  0  0  0  0  0  0  0  0  0  0
   37.0975  -17.6105    0.0000 C   0  0  0  0  0  0  0  0  0  0  0  0
   35.6140  -17.8327    0.0000 C   0  0  0  0  0  0  0  0  0  0  0  0
   35.3722  -16.5554    0.0000 C   0  0  0  0  0  0  0  0  0  0  0  0
   35.6652  -15.8109    0.0000 C   0  0  0  0  0  0  0  0  0  0  0  0
   36.4563  -15.6925    0.0000 C   0  0  0  0  0  0  0  0  0  0  0  0
   36.9545  -16.3184    0.0000 C   0  0  0  0  0  0  0  0  0  0  0  0
   37.2621  -13.6453    0.0000 O   0  0  0  0  0  0  0  0  0  0  0  0
   30.3509  -14.1790    0.0000 S   0  0  0  0  0  0  0  0  0  0  0  0
   31.7843  -12.0121    0.0000 N   0  0  0  0  0  0  0  0  0  0  0  0
   30.5332  -11.1846    0.0000 C   0  0  0  0  0  0  0  0  0  0  0  0
   30.6243   -9.6873    0.0000 C   0  0  0  0  0  0  0  0  0  0  0  0
   29.3733   -8.8598    0.0000 C   0  0  0  0  0  0  0  0  0  0  0  0
   28.7087   -9.3000    0.0000 O   0  0  0  0  0  0  0  0  0  0  0  0
   29.4644   -7.3626    0.0000 N   0  0  0  0  0  0  0  0  0  0  0  0
   28.2133   -6.5350    0.0000 C   0  0  0  0  0  0  0  0  0  0  0  0
   27.6156   -7.9108    0.0000 C   0  0  0  0  0  0  0  0  0  0  0  0
   28.3546   -9.2161    0.0000 O   0  0  0  0  0  0  0  0  0  0  0  0
   27.3207   -5.3295    0.0000 C   0  0  0  0  0  0  0  0  0  0  0  0
   25.9159   -5.8553    0.0000 O   0  0  0  0  0  0  0  0  0  0  0  0
   27.9185   -3.9537    0.0000 N   0  0  0  0  0  0  0  0  0  0  0  0
   27.0259   -2.7482    0.0000 C   0  0  0  0  0  0  0  0  0  0  0  0
   25.9937   -3.8366    0.0000 C   0  0  0  0  0  0  0  0  0  0  0  0
   26.4201   -5.2747    0.0000 C   0  0  0  0  0  0  0  0  0  0  0  0
   25.3879   -6.3631    0.0000 C   0  0  0  0  0  0  0  0  0  0  0  0
   25.6359   -7.8424    0.0000 O   0  0  0  0  0  0  0  0  0  0  0  0
   23.9292   -6.0133    0.0000 O   0  0  0  0  0  0  0  0  0  0  0  0
   26.5994   -1.3101    0.0000 C   0  0  0  0  0  0  0  0  0  0  0  0
   25.0995   -1.3237    0.0000 O   0  0  0  0  0  0  0  0  0  0  0  0
   27.6316   -0.2218    0.0000 N   0  0  0  0  0  0  0  0  0  0  0  0
   27.2052    1.2164    0.0000 C   0  0  0  0  0  0  0  0  0  0  0  0
   26.1060    0.1956    0.0000 C   0  0  0  0  0  0  0  0  0  0  0  0
   24.8336   -0.5986    0.0000 C   0  0  0  0  0  0  0  0  0  0  0  0
   23.4338   -1.1377    0.0000 C   0  0  0  0  0  0  0  0  0  0  0  0
   21.9573   -1.4021    0.0000 C   0  0  0  0  0  0  0  0  0  0  0  0
   20.4574   -1.3823    0.0000 C   0  0  0  0  0  0  0  0  0  0  0  0
   18.9884   -1.0790    0.0000 C   0  0  0  0  0  0  0  0  0  0  0  0
   17.6033   -0.5032    0.0000 C   0  0  0  0  0  0  0  0  0  0  0  0
   28.6831    0.9598    0.0000 C   0  0  0  0  0  0  0  0  0  0  0  0
   28.0913    2.4266    0.0000 C   0  0  0  0  0  0  0  0  0  0  0  0
   29.4643    1.8224    0.0000 O   0  0  0  0  0  0  0  0  0  0  0  0
   28.7324    3.7827    0.0000 N   0  0  0  0  0  0  0  0  0  0  0  0
   29.1052    5.2357    0.0000 C   0  0  0  0  0  0  0  0  0  0  0  0
   30.4872    5.8189    0.0000 C   0  0  0  0  0  0  0  0  0  0  0  0
   31.6833    4.9137    0.0000 C   0  0  0  0  0  0  0  0  0  0  0  0
   33.0653    5.4969    0.0000 C   0  0  0  0  0  0  0  0  0  0  0  0
   32.4976    3.6539    0.0000 C   0  0  0  0  0  0  0  0  0  0  0  0
   29.1964    6.7329    0.0000 C   0  0  0  0  0  0  0  0  0  0  0  0
   30.6780    6.9668    0.0000 O   0  0  0  0  0  0  0  0  0  0  0  0
   29.0025    8.2203    0.0000 N   0  0  0  0  0  0  0  0  0  0  0  0
   28.5307    9.6442    0.0000 C   0  0  0  0  0  0  0  0  0  0  0  0
   29.3779   10.8819    0.0000 C   0  0  0  0  0  0  0  0  0  0  0  0
   30.8735   10.7671    0.0000 C   0  0  0  0  0  0  0  0  0  0  0  0
   27.7979   10.9530    0.0000 C   0  0  0  0  0  0  0  0  0  0  0  0
   28.9178   11.9508    0.0000 O   0  0  0  0  0  0  0  0  0  0  0  0
   26.8306   12.0995    0.0000 N   0  0  0  0  0  0  0  0  0  0  0  0
   25.6639   13.0422    0.0000 C   0  0  0  0  0  0  0  0  0  0  0  0
   25.7075   14.5415    0.0000 C   0  0  0  0  0  0  0  0  0  0  0  0
   24.3398   13.7471    0.0000 C   0  0  0  0  0  0  0  0  0  0  0  0
   24.7425   15.1920    0.0000 O   0  0  0  0  0  0  0  0  0  0  0  0
   22.9063   14.1886    0.0000 N   0  0  0  0  0  0  0  0  0  0  0  0
   21.4151   14.3509    0.0000 C   0  0  0  0  0  0  0  0  0  0  0  0
   20.6411   15.6358    0.0000 C   0  0  0  0  0  0  0  0  0  0  0  0
   21.3669   16.9485    0.0000 C   0  0  0  0  0  0  0  0  0  0  0  0
   20.5930   18.2334    0.0000 C   0  0  0  0  0  0  0  0  0  0  0  0
   21.3188   19.5461    0.0000 O   0  0  0  0  0  0  0  0  0  0  0  0
   19.0932   18.2056    0.0000 O   0  0  0  0  0  0  0  0  0  0  0  0
   19.9201   14.2280    0.0000 C   0  0  0  0  0  0  0  0  0  0  0  0
   19.4777   15.6613    0.0000 O   0  0  0  0  0  0  0  0  0  0  0  0
   18.4754   13.8244    0.0000 N   0  0  0  0  0  0  0  0  0  0  0  0
   17.1332   13.1547    0.0000 C   0  0  0  0  0  0  0  0  0  0  0  0
   15.7875   13.8173    0.0000 C   0  0  0  0  0  0  0  0  0  0  0  0
   15.9420   12.2431    0.0000 C   0  0  0  0  0  0  0  0  0  0  0  0
   14.7949   13.2097    0.0000 O   0  0  0  0  0  0  0  0  0  0  0  0
   14.9448   11.1226    0.0000 N   0  0  0  0  0  0  0  0  0  0  0  0
   14.1778    9.8336    0.0000 C   0  0  0  0  0  0  0  0  0  0  0  0
   12.6875    9.6633    0.0000 C   0  0  0  0  0  0  0  0  0  0  0  0
   11.7949   10.8688    0.0000 C   0  0  0  0  0  0  0  0  0  0  0  0
   10.2949   10.8553    0.0000 C   0  0  0  0  0  0  0  0  0  0  0  0
    9.8186   12.2777    0.0000 N   0  0  0  0  0  0  0  0  0  0  0  0
   11.0241   13.1702    0.0000 C   0  0  0  0  0  0  0  0  0  0  0  0
   12.2455   12.2995    0.0000 N   0  0  0  0  0  0  0  0  0  0  0  0
   13.6685    8.4226    0.0000 C   0  0  0  0  0  0  0  0  0  0  0  0
   12.1810    8.6156    0.0000 O   0  0  0  0  0  0  0  0  0  0  0  0
   13.4355    6.9409    0.0000 N   0  0  0  0  0  0  0  0  0  0  0  0
   13.4871    5.4417    0.0000 C   0  0  0  0  0  0  0  0  0  0  0  0
   13.8214    3.9795    0.0000 C   0  0  0  0  0  0  0  0  0  0  0  0
   14.4265    2.6069    0.0000 C   0  0  0  0  0  0  0  0  0  0  0  0
   15.2804    1.3737    0.0000 C   0  0  0  0  0  0  0  0  0  0  0  0
   16.3522    0.3244    0.0000 C   0  0  0  0  0  0  0  0  0  0  0  0
   12.1210    6.0612    0.0000 C   0  0  0  0  0  0  0  0  0  0  0  0
   12.3254    4.4928    0.0000 C   0  0  0  0  0  0  0  0  0  0  0  0
   12.2009    2.9980    0.0000 O   0  0  0  0  0  0  0  0  0  0  0  0
   10.9227    5.0244    0.0000 N   0  0  0  0  0  0  0  0  0  0  0  0
    9.7610    4.0755    0.0000 C   0  0  0  0  0  0  0  0  0  0  0  0
    8.9940    2.7864    0.0000 C   0  0  0  0  0  0  0  0  0  0  0  0
    7.4941    2.8062    0.0000 C   0  0  0  0  0  0  0  0  0  0  0  0
    6.7270    1.5172    0.0000 C   0  0  0  0  0  0  0  0  0  0  0  0
    6.0914    3.3378    0.0000 C   0  0  0  0  0  0  0  0  0  0  0  0
    8.3584    4.6070    0.0000 C   0  0  0  0  0  0  0  0  0  0  0  0
    8.1174    6.0876    0.0000 O   0  0  0  0  0  0  0  0  0  0  0  0
    7.1967    3.6581    0.0000 N   0  0  0  0  0  0  0  0  0  0  0  0
    5.7941    4.1897    0.0000 C   0  0  0  0  0  0  0  0  0  0  0  0
    4.6578    5.1689    0.0000 C   0  0  0  0  0  0  0  0  0  0  0  0
    4.9378    6.6426    0.0000 S   0  0  0  0  0  0  0  0  0  0  0  0
    4.6324    3.2408    0.0000 C   0  0  0  0  0  0  0  0  0  0  0  0
    4.6911    1.7419    0.0000 O   0  0  0  0  0  0  0  0  0  0  0  0
    3.2297    3.7723    0.0000 N   0  0  0  0  0  0  0  0  0  0  0  0
    2.0680    2.8234    0.0000 C   0  0  0  0  0  0  0  0  0  0  0  0
    1.3010    1.5344    0.0000 C   0  0  0  0  0  0  0  0  0  0  0  0
    1.0210    0.0607    0.0000 O   0  0  0  0  0  0  0  0  0  0  0  0
   -0.1901    1.3712    0.0000 C   0  0  0  0  0  0  0  0  0  0  0  0
    0.6654    3.3550    0.0000 C   0  0  0  0  0  0  0  0  0  0  0  0
    0.4244    4.8355    0.0000 O   0  0  0  0  0  0  0  0  0  0  0  0
   -0.4963    2.4060    0.0000 N   0  0  0  0  0  0  0  0  0  0  0  0
   -1.8990    2.9376    0.0000 C   0  0  0  0  0  0  0  0  0  0  0  0
   -3.0352    3.9169    0.0000 C   0  0  0  0  0  0  0  0  0  0  0  0
   -2.7553    5.3905    0.0000 C   0  0  0  0  0  0  0  0  0  0  0  0
   -3.8915    6.3698    0.0000 C   0  0  0  0  0  0  0  0  0  0  0  0
   -1.9882    6.6796    0.0000 C   0  0  0  0  0  0  0  0  0  0  0  0
   -3.0606    1.9887    0.0000 C   0  0  0  0  0  0  0  0  0  0  0  0
   -2.8197    0.5082    0.0000 O   0  0  0  0  0  0  0  0  0  0  0  0
   -4.4633    2.5203    0.0000 N   0  0  0  0  0  0  0  0  0  0  0  0
   -5.6250    1.5713    0.0000 C   0  0  0  0  0  0  0  0  0  0  0  0
   -6.3920    0.2823    0.0000 C   0  0  0  0  0  0  0  0  0  0  0  0
   -7.8919    0.3021    0.0000 C   0  0  0  0  0  0  0  0  0  0  0  0
   -8.6590   -0.9869    0.0000 C   0  0  0  0  0  0  0  0  0  0  0  0
   -9.2946    0.8337    0.0000 C   0  0  0  0  0  0  0  0  0  0  0  0
   -7.0276    2.1029    0.0000 C   0  0  0  0  0  0  0  0  0  0  0  0
   -7.2686    3.5834    0.0000 O   0  0  0  0  0  0  0  0  0  0  0  0
   -8.1893    1.1540    0.0000 N   0  0  0  0  0  0  0  0  0  0  0  0
   -9.5920    1.6856    0.0000 C   0  0  0  0  0  0  0  0  0  0  0  0
  -10.7282    2.6648    0.0000 C   0  0  0  0  0  0  0  0  0  0  0  0
  -10.4483    4.1385    0.0000 C   0  0  0  0  0  0  0  0  0  0  0  0
  -11.5845    5.1177    0.0000 C   0  0  0  0  0  0  0  0  0  0  0  0
  -11.3046    6.5914    0.0000 O   0  0  0  0  0  0  0  0  0  0  0  0
  -13.0007    4.6233    0.0000 O   0  0  0  0  0  0  0  0  0  0  0  0
  -10.7536    0.7366    0.0000 C   0  0  0  0  0  0  0  0  0  0  0  0
  -10.6950   -0.7622    0.0000 O   0  0  0  0  0  0  0  0  0  0  0  0
  -12.1563    1.2682    0.0000 N   0  0  0  0  0  0  0  0  0  0  0  0
  -13.3180    0.3193    0.0000 C   0  0  0  0  0  0  0  0  0  0  0  0
  -14.0851   -0.9697    0.0000 C   0  0  0  0  0  0  0  0  0  0  0  0
  -15.5849   -0.9500    0.0000 C   0  0  0  0  0  0  0  0  0  0  0  0
  -16.3520   -2.2390    0.0000 N   0  0  0  0  0  0  0  0  0  0  0  0
  -16.6126    0.1427    0.0000 O   0  0  0  0  0  0  0  0  0  0  0  0
  -14.7206    0.8509    0.0000 C   0  0  0  0  0  0  0  0  0  0  0  0
  -14.9616    2.3314    0.0000 O   0  0  0  0  0  0  0  0  0  0  0  0
  -15.8823   -0.0981    0.0000 N   0  0  0  0  0  0  0  0  0  0  0  0
  -17.2850    0.4335    0.0000 C   0  0  0  0  0  0  0  0  0  0  0  0
  -18.4212    1.4128    0.0000 C   0  0  0  0  0  0  0  0  0  0  0  0
  -18.4467   -0.5154    0.0000 C   0  0  0  0  0  0  0  0  0  0  0  0
  -18.3880   -2.0143    0.0000 O   0  0  0  0  0  0  0  0  0  0  0  0
  -19.8493    0.0162    0.0000 N   0  0  0  0  0  0  0  0  0  0  0  0
  -21.0110   -0.9328    0.0000 C   0  0  0  0  0  0  0  0  0  0  0  0
  -21.7781   -2.2218    0.0000 C   0  0  0  0  0  0  0  0  0  0  0  0
  -23.2692   -2.3850    0.0000 C   0  0  0  0  0  0  0  0  0  0  0  0
  -22.0580   -3.6955    0.0000 C   0  0  0  0  0  0  0  0  0  0  0  0
  -20.9218   -4.6747    0.0000 C   0  0  0  0  0  0  0  0  0  0  0  0
  -22.4136   -0.4012    0.0000 C   0  0  0  0  0  0  0  0  0  0  0  0
  -22.6546    1.0793    0.0000 O   0  0  0  0  0  0  0  0  0  0  0  0
  -23.5753   -1.3501    0.0000 N   0  0  0  0  0  0  0  0  0  0  0  0
  -24.9780   -0.8185    0.0000 C   0  0  0  0  0  0  0  0  0  0  0  0
  -26.1142    0.1607    0.0000 C   0  0  0  0  0  0  0  0  0  0  0  0
  -25.8343    1.6344    0.0000 C   0  0  0  0  0  0  0  0  0  0  0  0
  -26.9705    2.6136    0.0000 C   0  0  0  0  0  0  0  0  0  0  0  0
  -26.6906    4.0873    0.0000 N   0  0  0  0  0  0  0  0  0  0  0  0
  -28.3867    2.1192    0.0000 O   0  0  0  0  0  0  0  0  0  0  0  0
  -26.1397   -1.7675    0.0000 C   0  0  0  0  0  0  0  0  0  0  0  0
  -25.8987   -3.2480    0.0000 O   0  0  0  0  0  0  0  0  0  0  0  0
  -27.5423   -1.2359    0.0000 N   0  0  0  0  0  0  0  0  0  0  0  0
  -28.7040   -2.1848    0.0000 C   0  0  0  0  0  0  0  0  0  0  0  0
  -29.4711   -3.4739    0.0000 C   0  0  0  0  0  0  0  0  0  0  0  0
  -30.9709   -3.4541    0.0000 C   0  0  0  0  0  0  0  0  0  0  0  0
  -31.7380   -4.7431    0.0000 O   0  0  0  0  0  0  0  0  0  0  0  0
  -31.9987   -2.3615    0.0000 O   0  0  0  0  0  0  0  0  0  0  0  0
  -30.1066   -1.6533    0.0000 C   0  0  0  0  0  0  0  0  0  0  0  0
  -30.3476   -0.1727    0.0000 O   0  0  0  0  0  0  0  0  0  0  0  0
  -31.2683   -2.6022    0.0000 N   0  0  0  0  0  0  0  0  0  0  0  0
  -32.6710   -2.0706    0.0000 C   0  0  0  0  0  0  0  0  0  0  0  0
  -33.8072   -1.0913    0.0000 C   0  0  0  0  0  0  0  0  0  0  0  0
  -34.5400    0.2175    0.0000 O   0  0  0  0  0  0  0  0  0  0  0  0
  -35.2731   -1.4094    0.0000 C   0  0  0  0  0  0  0  0  0  0  0  0
  -33.8327   -3.0195    0.0000 C   0  0  0  0  0  0  0  0  0  0  0  0
  -33.5917   -4.5001    0.0000 O   0  0  0  0  0  0  0  0  0  0  0  0
  -35.2353   -2.4880    0.0000 N   0  0  0  0  0  0  0  0  0  0  0  0
  -36.3970   -3.4369    0.0000 C   0  0  0  0  0  0  0  0  0  0  0  0
  -37.1641   -4.7259    0.0000 C   0  0  0  0  0  0  0  0  0  0  0  0
  -38.6552   -4.8891    0.0000 C   0  0  0  0  0  0  0  0  0  0  0  0
  -37.7996   -2.9053    0.0000 C   0  0  0  0  0  0  0  0  0  0  0  0
  -38.0406   -1.4248    0.0000 O   0  0  0  0  0  0  0  0  0  0  0  0
  -38.9613   -3.8542    0.0000 N   0  0  0  0  0  0  0  0  0  0  0  0
  -40.3640   -3.3227    0.0000 C   0  0  0  0  0  0  0  0  0  0  0  0
  -41.5002   -2.3434    0.0000 C   0  0  0  0  0  0  0  0  0  0  0  0
  -41.2203   -0.8698    0.0000 C   0  0  0  0  0  0  0  0  0  0  0  0
  -42.3565    0.1095    0.0000 C   0  0  0  0  0  0  0  0  0  0  0  0
  -42.0766    1.5831    0.0000 N   0  0  0  0  0  0  0  0  0  0  0  0
  -43.2128    2.5624    0.0000 C   0  0  0  0  0  0  0  0  0  0  0  0
  -42.9329    4.0361    0.0000 N   0  0  0  0  0  0  0  0  0  0  0  0
  -44.6290    2.0680    0.0000 N   0  0  0  0  0  0  0  0  0  0  0  0
  -41.5257   -4.2716    0.0000 C   0  0  0  0  0  0  0  0  0  0  0  0
  -41.2847   -5.7521    0.0000 O   0  0  0  0  0  0  0  0  0  0  0  0
  -42.9283   -3.7400    0.0000 N   0  0  0  0  0  0  0  0  0  0  0  0
  -44.0900   -4.6890    0.0000 C   0  0  0  0  0  0  0  0  0  0  0  0
  -44.8571   -5.9780    0.0000 C   0  0  0  0  0  0  0  0  0  0  0  0
  -46.3570   -5.9582    0.0000 C   0  0  0  0  0  0  0  0  0  0  0  0
  -47.1240   -7.2472    0.0000 C   0  0  0  0  0  0  0  0  0  0  0  0
  -48.6151   -7.4104    0.0000 O   0  0  0  0  0  0  0  0  0  0  0  0
  -46.3912   -8.5560    0.0000 O   0  0  0  0  0  0  0  0  0  0  0  0
  -45.4927   -4.1574    0.0000 C   0  0  0  0  0  0  0  0  0  0  0  0
  -45.7336   -2.6768    0.0000 O   0  0  0  0  0  0  0  0  0  0  0  0
  -46.6543   -5.1063    0.0000 N   0  0  0  0  0  0  0  0  0  0  0  0
  -48.0570   -4.5747    0.0000 C   0  0  0  0  0  0  0  0  0  0  0  0
  -49.1932   -3.5955    0.0000 C   0  0  0  0  0  0  0  0  0  0  0  0
  -48.9133   -2.1218    0.0000 C   0  0  0  0  0  0  0  0  0  0  0  0
  -50.0495   -1.1426    0.0000 C   0  0  0  0  0  0  0  0  0  0  0  0
  -49.7696    0.3311    0.0000 N   0  0  0  0  0  0  0  0  0  0  0  0
  -51.4657   -1.6369    0.0000 O   0  0  0  0  0  0  0  0  0  0  0  0
  -49.2187   -5.5237    0.0000 C   0  0  0  0  0  0  0  0  0  0  0  0
  -50.6757   -5.1670    0.0000 O   0  0  0  0  0  0  0  0  0  0  0  0
  -49.1600   -7.0225    0.0000 O   0  0  0  0  0  0  0  0  0  0  0  0
   34.1948  -13.5086    0.0000 H   0  0  0  0  0  0  0  0  0  0  0  0
   30.2598  -15.6763    0.0000 H   0  0  0  0  0  0  0  0  0  0  0  0
   30.0775  -18.6707    0.0000 H   0  0  0  0  0  0  0  0  0  0  0  0
   35.2444  -15.6871    0.0000 H   0  0  0  0  0  0  0  0  0  0  0  0
   39.8998  -21.1314    0.0000 H   0  0  0  0  0  0  0  0  0  0  0  0
   35.8342  -24.3673    0.0000 H   0  0  0  0  0  0  0  0  0  0  0  0
   33.9660  -22.0200    0.0000 H   0  0  0  0  0  0  0  0  0  0  0  0
   38.2518  -25.3188    0.0000 H   0  0  0  0  0  0  0  0  0  0  0  0
   33.1964  -16.8812    0.0000 H   0  0  0  0  0  0  0  0  0  0  0  0
   34.4452  -13.9845    0.0000 H   0  0  0  0  0  0  0  0  0  0  0  0
   39.1303  -15.9926    0.0000 H   0  0  0  0  0  0  0  0  0  0  0  0
   38.7455  -13.4232    0.0000 H   0  0  0  0  0  0  0  0  0  0  0  0
   33.1265  -11.3424    0.0000 H   0  0  0  0  0  0  0  0  0  0  0  0
   29.9355  -12.5603    0.0000 H   0  0  0  0  0  0  0  0  0  0  0  0
   29.0745  -10.8348    0.0000 H   0  0  0  0  0  0  0  0  0  0  0  0
   32.0830  -10.0371    0.0000 H   0  0  0  0  0  0  0  0  0  0  0  0
   31.2221   -8.3116    0.0000 H   0  0  0  0  0  0  0  0  0  0  0  0
   30.8066   -6.6929    0.0000 H   0  0  0  0  0  0  0  0  0  0  0  0
   29.2455   -5.4467    0.0000 H   0  0  0  0  0  0  0  0  0  0  0  0
   26.5834   -8.9992    0.0000 H   0  0  0  0  0  0  0  0  0  0  0  0
   26.2730   -7.2419    0.0000 H   0  0  0  0  0  0  0  0  0  0  0  0
   27.9105  -10.4921    0.0000 H   0  0  0  0  0  0  0  0  0  0  0  0
   29.4088   -3.7835    0.0000 H   0  0  0  0  0  0  0  0  0  0  0  0
   28.3681   -2.0785    0.0000 H   0  0  0  0  0  0  0  0  0  0  0  0
   24.6515   -4.5063    0.0000 H   0  0  0  0  0  0  0  0  0  0  0  0
   25.1011   -2.6311    0.0000 H   0  0  0  0  0  0  0  0  0  0  0  0
   27.3127   -6.4802    0.0000 H   0  0  0  0  0  0  0  0  0  0  0  0
   27.8845   -4.9497    0.0000 H   0  0  0  0  0  0  0  0  0  0  0  0
   22.8970   -7.1017    0.0000 H   0  0  0  0  0  0  0  0  0  0  0  0
   29.0368   -0.7467    0.0000 H   0  0  0  0  0  0  0  0  0  0  0  0
   27.3384   -0.6595    0.0000 H   0  0  0  0  0  0  0  0  0  0  0  0
   26.0696   -1.3039    0.0000 H   0  0  0  0  0  0  0  0  0  0  0  0
   25.7432   -1.7913    0.0000 H   0  0  0  0  0  0  0  0  0  0  0  0
   24.6950   -2.0922    0.0000 H   0  0  0  0  0  0  0  0  0  0  0  0
   24.5384   -2.1525    0.0000 H   0  0  0  0  0  0  0  0  0  0  0  0
   23.1937   -2.6183    0.0000 H   0  0  0  0  0  0  0  0  0  0  0  0
   22.6963   -2.7074    0.0000 H   0  0  0  0  0  0  0  0  0  0  0  0
   21.4413   -2.8106    0.0000 H   0  0  0  0  0  0  0  0  0  0  0  0
   20.9360   -2.8039    0.0000 H   0  0  0  0  0  0  0  0  0  0  0  0
   19.6842   -2.6677    0.0000 H   0  0  0  0  0  0  0  0  0  0  0  0
   19.1893   -2.5655    0.0000 H   0  0  0  0  0  0  0  0  0  0  0  0
   17.8574   -2.0643    0.0000 H   0  0  0  0  0  0  0  0  0  0  0  0
   16.8984   -1.8273    0.0000 H   0  0  0  0  0  0  0  0  0  0  0  0
   29.3677   -0.3748    0.0000 H   0  0  0  0  0  0  0  0  0  0  0  0
   30.1808    1.0423    0.0000 H   0  0  0  0  0  0  0  0  0  0  0  0
   29.0422    2.4162    0.0000 H   0  0  0  0  0  0  0  0  0  0  0  0
   30.0707    3.1053    0.0000 H   0  0  0  0  0  0  0  0  0  0  0  0
   30.1137    4.1252    0.0000 H   0  0  0  0  0  0  0  0  0  0  0  0
   31.5864    6.8396    0.0000 H   0  0  0  0  0  0  0  0  0  0  0  0
   30.0019    7.2382    0.0000 H   0  0  0  0  0  0  0  0  0  0  0  0
   30.8638    3.6573    0.0000 H   0  0  0  0  0  0  0  0  0  0  0  0
   34.3628    4.7442    0.0000 H   0  0  0  0  0  0  0  0  0  0  0  0
   34.1644    6.5176    0.0000 H   0  0  0  0  0  0  0  0  0  0  0  0
   32.4106    6.8464    0.0000 H   0  0  0  0  0  0  0  0  0  0  0  0
   33.9937    3.5461    0.0000 H   0  0  0  0  0  0  0  0  0  0  0  0
   32.8320    2.1917    0.0000 H   0  0  0  0  0  0  0  0  0  0  0  0
   31.1156    3.0707    0.0000 H   0  0  0  0  0  0  0  0  0  0  0  0
   30.4946    8.3739    0.0000 H   0  0  0  0  0  0  0  0  0  0  0  0
   29.9793    9.2552    0.0000 H   0  0  0  0  0  0  0  0  0  0  0  0
   29.9251   12.2786    0.0000 H   0  0  0  0  0  0  0  0  0  0  0  0
   28.2023   11.8136    0.0000 H   0  0  0  0  0  0  0  0  0  0  0  0
   31.7208   12.0048    0.0000 H   0  0  0  0  0  0  0  0  0  0  0  0
   32.2397   10.1476    0.0000 H   0  0  0  0  0  0  0  0  0  0  0  0
   30.8634    9.2671    0.0000 H   0  0  0  0  0  0  0  0  0  0  0  0
   27.8800   13.1713    0.0000 H   0  0  0  0  0  0  0  0  0  0  0  0
   27.0267   13.6689    0.0000 H   0  0  0  0  0  0  0  0  0  0  0  0
   27.0277   15.2535    0.0000 H   0  0  0  0  0  0  0  0  0  0  0  0
   25.4127   16.0123    0.0000 H   0  0  0  0  0  0  0  0  0  0  0  0
   24.2148   14.6897    0.0000 H   0  0  0  0  0  0  0  0  0  0  0  0
   23.3864   15.6097    0.0000 H   0  0  0  0  0  0  0  0  0  0  0  0
   22.3707   15.5071    0.0000 H   0  0  0  0  0  0  0  0  0  0  0  0
   19.5980   16.7137    0.0000 H   0  0  0  0  0  0  0  0  0  0  0  0
   19.3053   14.9534    0.0000 H   0  0  0  0  0  0  0  0  0  0  0  0
   22.4979   17.9338    0.0000 H   0  0  0  0  0  0  0  0  0  0  0  0
   22.7271   16.3161    0.0000 H   0  0  0  0  0  0  0  0  0  0  0  0
   18.3193   19.4905    0.0000 H   0  0  0  0  0  0  0  0  0  0  0  0
   17.9364   15.2242    0.0000 H   0  0  0  0  0  0  0  0  0  0  0  0
   17.1292   14.6547    0.0000 H   0  0  0  0  0  0  0  0  0  0  0  0
   15.6883   15.3140    0.0000 H   0  0  0  0  0  0  0  0  0  0  0  0
   14.3272   14.1601    0.0000 H   0  0  0  0  0  0  0  0  0  0  0  0
   15.0326   12.5210    0.0000 H   0  0  0  0  0  0  0  0  0  0  0  0
   13.7346   12.0087    0.0000 H   0  0  0  0  0  0  0  0  0  0  0  0
   13.3634   11.0933    0.0000 H   0  0  0  0  0  0  0  0  0  0  0  0
   11.2736    9.1622    0.0000 H   0  0  0  0  0  0  0  0  0  0  0  0
   12.7532    8.1648    0.0000 H   0  0  0  0  0  0  0  0  0  0  0  0
    9.4242    9.6339    0.0000 H   0  0  0  0  0  0  0  0  0  0  0  0
    8.3879   12.7283    0.0000 H   0  0  0  0  0  0  0  0  0  0  0  0
   11.0106   14.6702    0.0000 H   0  0  0  0  0  0  0  0  0  0  0  0
   11.9605    7.2138    0.0000 H   0  0  0  0  0  0  0  0  0  0  0  0
   12.8603    2.8279    0.0000 H   0  0  0  0  0  0  0  0  0  0  0  0
   12.3215    3.9659    0.0000 H   0  0  0  0  0  0  0  0  0  0  0  0
   13.5461    1.3925    0.0000 H   0  0  0  0  0  0  0  0  0  0  0  0
   12.9562    2.3097    0.0000 H   0  0  0  0  0  0  0  0  0  0  0  0
   14.8161   -0.0526    0.0000 H   0  0  0  0  0  0  0  0  0  0  0  0
   13.8338    0.9770    0.0000 H   0  0  0  0  0  0  0  0  0  0  0  0
   15.4095   -0.8424    0.0000 H   0  0  0  0  0  0  0  0  0  0  0  0
   10.7263    5.5089    0.0000 H   0  0  0  0  0  0  0  0  0  0  0  0
   11.0491    7.1106    0.0000 H   0  0  0  0  0  0  0  0  0  0  0  0
   12.6435    7.4672    0.0000 H   0  0  0  0  0  0  0  0  0  0  0  0
   10.5031    6.4645    0.0000 H   0  0  0  0  0  0  0  0  0  0  0  0
   10.8973    3.0962    0.0000 H   0  0  0  0  0  0  0  0  0  0  0  0
    8.8957    1.2897    0.0000 H   0  0  0  0  0  0  0  0  0  0  0  0
   10.3966    2.2548    0.0000 H   0  0  0  0  0  0  0  0  0  0  0  0
    7.0493    4.2388    0.0000 H   0  0  0  0  0  0  0  0  0  0  0  0
    5.2669    1.1735    0.0000 H   0  0  0  0  0  0  0  0  0  0  0  0
    6.4471    0.0435    0.0000 H   0  0  0  0  0  0  0  0  0  0  0  0
    8.0544    0.8186    0.0000 H   0  0  0  0  0  0  0  0  0  0  0  0
    5.4994    4.7160    0.0000 H   0  0  0  0  0  0  0  0  0  0  0  0
    4.6841    2.8187    0.0000 H   0  0  0  0  0  0  0  0  0  0  0  0
    5.6340    1.9093    0.0000 H   0  0  0  0  0  0  0  0  0  0  0  0
    7.0723    2.1633    0.0000 H   0  0  0  0  0  0  0  0  0  0  0  0
    6.5611    5.4787    0.0000 H   0  0  0  0  0  0  0  0  0  0  0  0
    3.3304    5.8675    0.0000 H   0  0  0  0  0  0  0  0  0  0  0  0
    3.4797    4.2405    0.0000 H   0  0  0  0  0  0  0  0  0  0  0  0
    3.8015    7.6219    0.0000 H   0  0  0  0  0  0  0  0  0  0  0  0
    2.8101    5.2124    0.0000 H   0  0  0  0  0  0  0  0  0  0  0  0
    3.2043    1.8441    0.0000 H   0  0  0  0  0  0  0  0  0  0  0  0
    2.7036    1.0028    0.0000 H   0  0  0  0  0  0  0  0  0  0  0  0
    2.1573   -0.9185    0.0000 H   0  0  0  0  0  0  0  0  0  0  0  0
   -0.9660    0.2651    0.0000 H   0  0  0  0  0  0  0  0  0  0  0  0
   -1.6016    2.0857    0.0000 H   0  0  0  0  0  0  0  0  0  0  0  0
   -0.6437    2.9867    0.0000 H   0  0  0  0  0  0  0  0  0  0  0  0
   -0.4376    0.9072    0.0000 H   0  0  0  0  0  0  0  0  0  0  0  0
   -0.9805    4.1235    0.0000 H   0  0  0  0  0  0  0  0  0  0  0  0
   -4.4378    4.4485    0.0000 H   0  0  0  0  0  0  0  0  0  0  0  0
   -4.0914    2.8518    0.0000 H   0  0  0  0  0  0  0  0  0  0  0  0
   -1.2983    5.0339    0.0000 H   0  0  0  0  0  0  0  0  0  0  0  0
   -3.7933    7.8666    0.0000 H   0  0  0  0  0  0  0  0  0  0  0  0
   -5.2941    6.9014    0.0000 H   0  0  0  0  0  0  0  0  0  0  0  0
   -4.8100    5.1839    0.0000 H   0  0  0  0  0  0  0  0  0  0  0  0
   -2.5560    8.0680    0.0000 H   0  0  0  0  0  0  0  0  0  0  0  0
   -0.8265    7.6285    0.0000 H   0  0  0  0  0  0  0  0  0  0  0  0
   -0.8519    5.7003    0.0000 H   0  0  0  0  0  0  0  0  0  0  0  0
   -4.8829    3.9604    0.0000 H   0  0  0  0  0  0  0  0  0  0  0  0
   -4.4887    0.5921    0.0000 H   0  0  0  0  0  0  0  0  0  0  0  0
   -6.4903   -1.2145    0.0000 H   0  0  0  0  0  0  0  0  0  0  0  0
   -4.9894   -0.2493    0.0000 H   0  0  0  0  0  0  0  0  0  0  0  0
   -8.3367    1.7346    0.0000 H   0  0  0  0  0  0  0  0  0  0  0  0
  -10.1191   -1.3307    0.0000 H   0  0  0  0  0  0  0  0  0  0  0  0
   -8.9389   -2.4606    0.0000 H   0  0  0  0  0  0  0  0  0  0  0  0
   -7.3316   -1.6855    0.0000 H   0  0  0  0  0  0  0  0  0  0  0  0
   -9.8866    2.2119    0.0000 H   0  0  0  0  0  0  0  0  0  0  0  0
  -10.7019    0.3145    0.0000 H   0  0  0  0  0  0  0  0  0  0  0  0
   -9.7521   -0.5948    0.0000 H   0  0  0  0  0  0  0  0  0  0  0  0
   -8.3138   -0.3408    0.0000 H   0  0  0  0  0  0  0  0  0  0  0  0
   -8.6735    2.8715    0.0000 H   0  0  0  0  0  0  0  0  0  0  0  0
  -12.0556    3.3634    0.0000 H   0  0  0  0  0  0  0  0  0  0  0  0
  -11.9064    1.7364    0.0000 H   0  0  0  0  0  0  0  0  0  0  0  0
   -9.6812    5.4275    0.0000 H   0  0  0  0  0  0  0  0  0  0  0  0
   -8.9913    3.7818    0.0000 H   0  0  0  0  0  0  0  0  0  0  0  0
  -14.1369    5.6026    0.0000 H   0  0  0  0  0  0  0  0  0  0  0  0
  -12.5759    2.7083    0.0000 H   0  0  0  0  0  0  0  0  0  0  0  0
  -12.1817   -0.6600    0.0000 H   0  0  0  0  0  0  0  0  0  0  0  0
  -14.3650   -2.4434    0.0000 H   0  0  0  0  0  0  0  0  0  0  0  0
  -12.6824   -1.5013    0.0000 H   0  0  0  0  0  0  0  0  0  0  0  0
  -17.8431   -2.4022    0.0000 H   0  0  0  0  0  0  0  0  0  0  0  0
  -15.6192   -3.5478    0.0000 H   0  0  0  0  0  0  0  0  0  0  0  0
  -16.0068   -1.5929    0.0000 H   0  0  0  0  0  0  0  0  0  0  0  0
  -16.5179    1.7225    0.0000 H   0  0  0  0  0  0  0  0  0  0  0  0
  -19.9205    1.4589    0.0000 H   0  0  0  0  0  0  0  0  0  0  0  0
  -19.1540    2.7216    0.0000 H   0  0  0  0  0  0  0  0  0  0  0  0
  -17.2595    2.3617    0.0000 H   0  0  0  0  0  0  0  0  0  0  0  0
  -20.2689    1.4563    0.0000 H   0  0  0  0  0  0  0  0  0  0  0  0
  -19.8747   -1.9120    0.0000 H   0  0  0  0  0  0  0  0  0  0  0  0
  -20.3211   -2.5784    0.0000 H   0  0  0  0  0  0  0  0  0  0  0  0
  -24.1964   -3.3879    0.0000 H   0  0  0  0  0  0  0  0  0  0  0  0
  -24.6806   -1.6704    0.0000 H   0  0  0  0  0  0  0  0  0  0  0  0
  -23.7227   -0.7695    0.0000 H   0  0  0  0  0  0  0  0  0  0  0  0
  -22.8251   -4.9845    0.0000 H   0  0  0  0  0  0  0  0  0  0  0  0
  -23.5476   -3.5191    0.0000 H   0  0  0  0  0  0  0  0  0  0  0  0
  -21.2017   -6.1484    0.0000 H   0  0  0  0  0  0  0  0  0  0  0  0
  -19.5191   -5.2063    0.0000 H   0  0  0  0  0  0  0  0  0  0  0  0
  -20.0033   -3.4888    0.0000 H   0  0  0  0  0  0  0  0  0  0  0  0
  -23.6998   -2.8450    0.0000 H   0  0  0  0  0  0  0  0  0  0  0  0
  -24.0595    0.3674    0.0000 H   0  0  0  0  0  0  0  0  0  0  0  0
  -27.4416    0.8593    0.0000 H   0  0  0  0  0  0  0  0  0  0  0  0
  -27.1704   -0.9044    0.0000 H   0  0  0  0  0  0  0  0  0  0  0  0
  -25.0672    2.9234    0.0000 H   0  0  0  0  0  0  0  0  0  0  0  0
  -24.3773    1.2777    0.0000 H   0  0  0  0  0  0  0  0  0  0  0  0
  -27.8268    5.0665    0.0000 H   0  0  0  0  0  0  0  0  0  0  0  0
  -25.2744    4.5817    0.0000 H   0  0  0  0  0  0  0  0  0  0  0  0
  -27.9619    0.2042    0.0000 H   0  0  0  0  0  0  0  0  0  0  0  0
  -27.5677   -3.1641    0.0000 H   0  0  0  0  0  0  0  0  0  0  0  0
  -29.7510   -4.9475    0.0000 H   0  0  0  0  0  0  0  0  0  0  0  0
  -28.0684   -4.0054    0.0000 H   0  0  0  0  0  0  0  0  0  0  0  0
  -33.1107   -1.8409    0.0000 H   0  0  0  0  0  0  0  0  0  0  0  0
  -31.3928   -4.0970    0.0000 H   0  0  0  0  0  0  0  0  0  0  0  0
  -31.9039   -0.7816    0.0000 H   0  0  0  0  0  0  0  0  0  0  0  0
  -32.6455   -0.1424    0.0000 H   0  0  0  0  0  0  0  0  0  0  0  0
  -33.7729    1.5065    0.0000 H   0  0  0  0  0  0  0  0  0  0  0  0
  -36.3597   -0.6065    0.0000 H   0  0  0  0  0  0  0  0  0  0  0  0
  -36.3851   -2.5347    0.0000 H   0  0  0  0  0  0  0  0  0  0  0  0
  -35.1910   -3.0854    0.0000 H   0  0  0  0  0  0  0  0  0  0  0  0
  -35.6549   -1.0478    0.0000 H   0  0  0  0  0  0  0  0  0  0  0  0
  -35.2608   -4.4162    0.0000 H   0  0  0  0  0  0  0  0  0  0  0  0
  -37.4440   -6.1996    0.0000 H   0  0  0  0  0  0  0  0  0  0  0  0
  -35.7614   -5.2575    0.0000 H   0  0  0  0  0  0  0  0  0  0  0  0
  -39.4310   -5.9952    0.0000 H   0  0  0  0  0  0  0  0  0  0  0  0
  -40.0666   -4.1745    0.0000 H   0  0  0  0  0  0  0  0  0  0  0  0
  -39.1088   -3.2736    0.0000 H   0  0  0  0  0  0  0  0  0  0  0  0
  -38.9026   -5.3531    0.0000 H   0  0  0  0  0  0  0  0  0  0  0  0
  -39.4455   -2.1367    0.0000 H   0  0  0  0  0  0  0  0  0  0  0  0
  -42.9029   -1.8118    0.0000 H   0  0  0  0  0  0  0  0  0  0  0  0
  -42.5564   -3.4085    0.0000 H   0  0  0  0  0  0  0  0  0  0  0  0
  -40.4532    0.4193    0.0000 H   0  0  0  0  0  0  0  0  0  0  0  0
  -39.7633   -1.2264    0.0000 H   0  0  0  0  0  0  0  0  0  0  0  0
  -43.7592    0.6411    0.0000 H   0  0  0  0  0  0  0  0  0  0  0  0
  -43.2750   -1.0764    0.0000 H   0  0  0  0  0  0  0  0  0  0  0  0
  -40.6604    2.0775    0.0000 H   0  0  0  0  0  0  0  0  0  0  0  0
  -44.0691    5.0153    0.0000 H   0  0  0  0  0  0  0  0  0  0  0  0
  -45.7653    3.0473    0.0000 H   0  0  0  0  0  0  0  0  0  0  0  0
  -44.9090    0.5944    0.0000 H   0  0  0  0  0  0  0  0  0  0  0  0
  -43.3480   -2.2999    0.0000 H   0  0  0  0  0  0  0  0  0  0  0  0
  -42.9538   -5.6682    0.0000 H   0  0  0  0  0  0  0  0  0  0  0  0
  -45.1370   -7.4516    0.0000 H   0  0  0  0  0  0  0  0  0  0  0  0
  -43.4544   -6.5096    0.0000 H   0  0  0  0  0  0  0  0  0  0  0  0
  -47.7596   -5.4266    0.0000 H   0  0  0  0  0  0  0  0  0  0  0  0
  -46.8018   -4.5257    0.0000 H   0  0  0  0  0  0  0  0  0  0  0  0
  -47.1583   -9.8451    0.0000 H   0  0  0  0  0  0  0  0  0  0  0  0
  -46.7788   -6.6011    0.0000 H   0  0  0  0  0  0  0  0  0  0  0  0
  -47.1385   -3.3888    0.0000 H   0  0  0  0  0  0  0  0  0  0  0  0
  -50.5959   -3.0639    0.0000 H   0  0  0  0  0  0  0  0  0  0  0  0
  -50.1117   -4.7814    0.0000 H   0  0  0  0  0  0  0  0  0  0  0  0
  -48.1462   -0.8328    0.0000 H   0  0  0  0  0  0  0  0  0  0  0  0
  -47.4563   -2.4785    0.0000 H   0  0  0  0  0  0  0  0  0  0  0  0
  -50.9058    1.3103    0.0000 H   0  0  0  0  0  0  0  0  0  0  0  0
  -48.3534    0.8255    0.0000 H   0  0  0  0  0  0  0  0  0  0  0  0
  -50.1394   -7.9531    0.0000 H   0  0  0  0  0  0  0  0  0  0  0  0
  1  2  1  0
  2  3  1  0
  3  4  2  0
  4  5  1  0
  5  6  2  0
  6  7  1  0
  7  8  2  0
  7  9  1  0
  9 10  1  0
 10 11  1  0
 11 12  2  0
  9 13  1  0
 13 14  1  0
 14 15  2  0
 15 16  1  0
 16 17  2  0
 17 18  1  0
 16 19  1  0
 14 20  1  0
 20 21  1  0
 21 22  2  0
 22 23  1  0
 23 24  2  0
 24 25  1  0
 25 26  2  0
 25 27  1  0
  1 28  2  0
  1 29  1  0
 29 30  1  0
 30 31  1  0
 31 32  1  0
 32 33  2  0
 32 34  1  0
 34 35  1  0
 35 36  1  0
 36 37  1  0
 35 38  1  0
 38 39  2  0
 38 40  1  0
 40 41  1  0
 41 42  1  0
 42 43  1  0
 43 44  1  0
 44 45  2  0
 44 46  1  0
 41 47  1  0
 47 48  2  0
 47 49  1  0
 50 49  1  6
 50 51  1  0
 51 52  1  0
 52 53  1  0
 53 54  1  0
 54 55  1  0
 55 56  1  0
 56 57  1  0
 50 58  1  0
 50 59  1  0
 59 60  2  0
 59 61  1  0
 61 62  1  0
 62 63  1  0
 63 64  1  0
 64 65  1  0
 64 66  1  0
 62 67  1  0
 67 68  2  0
 67 69  1  0
 69 70  1  0
 70 71  1  0
 71 72  1  0
 70 73  1  0
 73 74  2  0
 73 75  1  0
 75 76  1  0
 76 77  1  0
 76 78  1  0
 78 79  2  0
 78 80  1  0
 80 81  1  0
 81 82  1  0
 82 83  1  0
 83 84  1  0
 84 85  2  0
 84 86  1  0
 81 87  1  0
 87 88  2  0
 87 89  1  0
 89 90  1  0
 90 91  1  0
 90 92  1  0
 92 93  2  0
 92 94  1  0
 94 95  1  0
 95 96  1  0
 96 97  1  0
 97 98  2  0
 98 99  1  0
 99100  1  0
100101  2  0
 95102  1  0
102103  2  0
102104  1  0
104105  1  0
105106  1  0
106107  1  0
107108  1  0
108109  1  0
105110  1  0
105111  1  1
111112  2  0
111113  1  0
113114  1  0
114115  1  0
115116  1  0
116117  1  0
116118  1  0
114119  1  0
119120  2  0
119121  1  0
121122  1  0
122123  1  0
123124  1  0
122125  1  0
125126  2  0
125127  1  0
127128  1  0
128129  1  0
129130  1  0
129131  1  0
128132  1  0
132133  2  0
132134  1  0
134135  1  0
135136  1  0
136137  1  0
137138  1  0
137139  1  0
135140  1  0
140141  2  0
140142  1  0
142143  1  0
143144  1  0
144145  1  0
145146  1  0
145147  1  0
143148  1  0
148149  2  0
148150  1  0
150151  1  0
151152  1  0
152153  1  0
153154  1  0
154155  2  0
154156  1  0
151157  1  0
157158  2  0
157159  1  0
159160  1  0
160161  1  0
161162  1  0
162163  1  0
162164  2  0
160165  1  0
165166  2  0
165167  1  0
167168  1  0
168169  1  0
168170  1  0
170171  2  0
170172  1  0
172173  1  0
173174  1  0
174175  1  0
174176  1  0
176177  1  0
173178  1  0
178179  2  0
178180  1  0
180181  1  0
181182  1  0
182183  1  0
183184  1  0
184185  1  0
184186  2  0
181187  1  0
187188  2  0
187189  1  0
189190  1  0
190191  1  0
191192  1  0
192193  2  0
192194  1  0
190195  1  0
195196  2  0
195197  1  0
197198  1  0
198199  1  0
199200  1  0
199201  1  0
198202  1  0
202203  2  0
202204  1  0
204205  1  0
205206  1  0
206207  1  0
205208  1  0
208209  2  0
208210  1  0
210211  1  0
211212  1  0
212213  1  0
213214  1  0
214215  1  0
215216  1  0
216217  2  3
216218  1  0
211219  1  0
219220  2  0
219221  1  0
221222  1  0
222223  1  0
223224  1  0
224225  1  0
225226  2  0
225227  1  0
222228  1  0
228229  2  0
228230  1  0
230231  1  0
231232  1  0
232233  1  0
233234  1  0
234235  1  0
234236  2  0
231237  1  0
237238  2  0
237239  1  0
  8  3  1  0
101 97  1  0
 11  6  1  0
 57109  2  0
 18 13  2  0
 22  9  1  0
 26 21  1  0
  2240  1  0
  4241  1  0
  5242  1  0
  8243  1  0
 15244  1  0
 17245  1  0
 18246  1  0
 19247  1  0
 23248  1  0
 24249  1  0
 26250  1  0
 27251  1  0
 29252  1  0
 30253  1  0
 30254  1  0
 31255  1  0
 31256  1  0
 34257  1  0
 35258  1  1
 36259  1  0
 36260  1  0
 37261  1  0
 40262  1  0
 41263  1  1
 42264  1  0
 42265  1  0
 43266  1  0
 43267  1  0
 46268  1  0
 49269  1  0
 51270  1  0
 51271  1  0
 52272  1  0
 52273  1  0
 53274  1  0
 53275  1  0
 54276  1  0
 54277  1  0
 55278  1  0
 55279  1  0
 56280  1  0
 56281  1  0
 57282  1  0
 58283  1  0
 58284  1  0
 58285  1  0
 61286  1  0
 62287  1  6
 63288  1  0
 63289  1  0
 64290  1  0
 65291  1  0
 65292  1  0
 65293  1  0
 66294  1  0
 66295  1  0
 66296  1  0
 69297  1  0
 70298  1  6
 71299  1  0
 71300  1  0
 72301  1  0
 72302  1  0
 72303  1  0
 75304  1  0
 76305  1  6
 77306  1  0
 77307  1  0
 77308  1  0
 80309  1  0
 81310  1  6
 82311  1  0
 82312  1  0
 83313  1  0
 83314  1  0
 86315  1  0
 89316  1  0
 90317  1  6
 91318  1  0
 91319  1  0
 91320  1  0
 94321  1  0
 95322  1  6
 96323  1  0
 96324  1  0
 98325  1  0
 99326  1  0
100327  1  0
104328  1  0
106329  1  0
106330  1  0
107331  1  0
107332  1  0
108333  1  0
108334  1  0
109335  1  0
110336  1  0
110337  1  0
110338  1  0
113339  1  0
114340  1  1
115341  1  0
115342  1  0
116343  1  0
117344  1  0
117345  1  0
117346  1  0
118347  1  0
118348  1  0
118349  1  0
121350  1  0
122351  1  6
123352  1  0
123353  1  0
124354  1  0
127355  1  0
128356  1  1
129357  1  1
130358  1  0
131359  1  0
131360  1  0
131361  1  0
134362  1  0
135363  1  6
136364  1  0
136365  1  0
137366  1  0
138367  1  0
138368  1  0
138369  1  0
139370  1  0
139371  1  0
139372  1  0
142373  1  0
143374  1  1
144375  1  0
144376  1  0
145377  1  0
146378  1  0
146379  1  0
146380  1  0
147381  1  0
147382  1  0
147383  1  0
150384  1  0
151385  1  6
152386  1  0
152387  1  0
153388  1  0
153389  1  0
156390  1  0
159391  1  0
160392  1  1
161393  1  0
161394  1  0
163395  1  0
163396  1  0
167397  1  0
168398  1  6
169399  1  0
169400  1  0
169401  1  0
172402  1  0
173403  1  1
174404  1  1
175405  1  0
175406  1  0
175407  1  0
176408  1  0
176409  1  0
177410  1  0
177411  1  0
177412  1  0
180413  1  0
181414  1  6
182415  1  0
182416  1  0
183417  1  0
183418  1  0
185419  1  0
185420  1  0
189421  1  0
190422  1  1
191423  1  0
191424  1  0
194425  1  0
197426  1  0
198427  1  6
199428  1  6
200429  1  0
201430  1  0
201431  1  0
201432  1  0
204433  1  0
205434  1  1
206435  1  0
206436  1  0
207437  1  0
207438  1  0
207439  1  0
210440  1  0
211441  1  6
212442  1  0
212443  1  0
213444  1  0
213445  1  0
214446  1  0
214447  1  0
215448  1  0
217449  1  0
218450  1  0
218451  1  0
221452  1  0
222453  1  1
223454  1  0
223455  1  0
224456  1  0
224457  1  0
227458  1  0
230459  1  0
231460  1  6
232461  1  0
232462  1  0
233463  1  0
233464  1  0
235465  1  0
235466  1  0
239467  1  0
M  END
