
     RDKit          2D

454459  0  0  0  0  0  0  0  0999 V2000
   47.1785   -1.1145    0.0000 C   0  0  0  0  0  0  0  0  0  0  0  0
   48.4856   -0.3787    0.0000 N   0  0  0  0  0  0  0  0  0  0  0  0
   49.7764   -1.1429    0.0000 C   0  0  0  0  0  0  0  0  0  0  0  0
   49.7600   -2.6428    0.0000 C   0  0  0  0  0  0  0  0  0  0  0  0
   51.0507   -3.4070    0.0000 C   0  0  0  0  0  0  0  0  0  0  0  0
   52.3579   -2.6713    0.0000 C   0  0  0  0  0  0  0  0  0  0  0  0
   52.3743   -1.1713    0.0000 C   0  0  0  0  0  0  0  0  0  0  0  0
   51.0835   -0.4072    0.0000 C   0  0  0  0  0  0  0  0  0  0  0  0
   53.8059   -0.7235    0.0000 C   0  0  0  0  0  0  0  0  0  0  0  0
   54.6742   -1.9466    0.0000 O   0  0  0  0  0  0  0  0  0  0  0  0
   53.7793   -3.1504    0.0000 C   0  0  0  0  0  0  0  0  0  0  0  0
   54.2272   -4.5819    0.0000 O   0  0  0  0  0  0  0  0  0  0  0  0
   55.2764   -0.4277    0.0000 C   0  0  0  0  0  0  0  0  0  0  0  0
   55.7555    0.9937    0.0000 C   0  0  0  0  0  0  0  0  0  0  0  0
   57.2261    1.2895    0.0000 C   0  0  0  0  0  0  0  0  0  0  0  0
   58.2175    0.1639    0.0000 C   0  0  0  0  0  0  0  0  0  0  0  0
   57.7384   -1.2575    0.0000 C   0  0  0  0  0  0  0  0  0  0  0  0
   56.2678   -1.5533    0.0000 C   0  0  0  0  0  0  0  0  0  0  0  0
   59.6881    0.4597    0.0000 O   0  0  0  0  0  0  0  0  0  0  0  0
   54.7641    2.1194    0.0000 O   0  0  0  0  0  0  0  0  0  0  0  0
   53.2935    1.8236    0.0000 C   0  0  0  0  0  0  0  0  0  0  0  0
   52.8144    0.4022    0.0000 C   0  0  0  0  0  0  0  0  0  0  0  0
   51.5675    0.7697    0.0000 C   0  0  0  0  0  0  0  0  0  0  0  0
   51.0387    1.3701    0.0000 C   0  0  0  0  0  0  0  0  0  0  0  0
   51.2942    2.1281    0.0000 C   0  0  0  0  0  0  0  0  0  0  0  0
   52.0785    2.2859    0.0000 C   0  0  0  0  0  0  0  0  0  0  0  0
   49.8401    3.7791    0.0000 O   0  0  0  0  0  0  0  0  0  0  0  0
   47.1620   -2.6144    0.0000 S   0  0  0  0  0  0  0  0  0  0  0  0
   45.8877   -0.3503    0.0000 N   0  0  0  0  0  0  0  0  0  0  0  0
   44.5805   -1.0860    0.0000 C   0  0  0  0  0  0  0  0  0  0  0  0
   43.2898   -0.3219    0.0000 C   0  0  0  0  0  0  0  0  0  0  0  0
   41.9826   -1.0576    0.0000 C   0  0  0  0  0  0  0  0  0  0  0  0
   41.9662   -2.5575    0.0000 O   0  0  0  0  0  0  0  0  0  0  0  0
   40.6919   -0.2934    0.0000 N   0  0  0  0  0  0  0  0  0  0  0  0
   39.3847   -1.0291    0.0000 C   0  0  0  0  0  0  0  0  0  0  0  0
   38.4080   -2.1676    0.0000 C   0  0  0  0  0  0  0  0  0  0  0  0
   37.8796   -3.5714    0.0000 O   0  0  0  0  0  0  0  0  0  0  0  0
   36.9110   -2.0727    0.0000 C   0  0  0  0  0  0  0  0  0  0  0  0
   38.0939   -0.2650    0.0000 C   0  0  0  0  0  0  0  0  0  0  0  0
   38.1104    1.2349    0.0000 O   0  0  0  0  0  0  0  0  0  0  0  0
   36.7868   -1.0007    0.0000 N   0  0  0  0  0  0  0  0  0  0  0  0
   35.4960   -0.2365    0.0000 C   0  0  0  0  0  0  0  0  0  0  0  0
   34.5445    0.9230    0.0000 C   0  0  0  0  0  0  0  0  0  0  0  0
   35.2401    2.2520    0.0000 C   0  0  0  0  0  0  0  0  0  0  0  0
   33.2537    1.6872    0.0000 C   0  0  0  0  0  0  0  0  0  0  0  0
   33.2701    3.1871    0.0000 C   0  0  0  0  0  0  0  0  0  0  0  0
   34.1888   -0.9723    0.0000 C   0  0  0  0  0  0  0  0  0  0  0  0
   34.1724   -2.4722    0.0000 O   0  0  0  0  0  0  0  0  0  0  0  0
   32.8981   -0.2081    0.0000 N   0  0  0  0  0  0  0  0  0  0  0  0
   31.5909   -0.9438    0.0000 C   0  0  0  0  0  0  0  0  0  0  0  0
   30.6142   -2.0823    0.0000 C   0  0  0  0  0  0  0  0  0  0  0  0
   29.1400   -1.8056    0.0000 C   0  0  0  0  0  0  0  0  0  0  0  0
   28.1633   -2.9441    0.0000 C   0  0  0  0  0  0  0  0  0  0  0  0
   27.8492   -1.0415    0.0000 C   0  0  0  0  0  0  0  0  0  0  0  0
   30.3002   -0.1796    0.0000 C   0  0  0  0  0  0  0  0  0  0  0  0
   30.3166    1.3203    0.0000 O   0  0  0  0  0  0  0  0  0  0  0  0
   28.9930   -0.9154    0.0000 N   0  0  0  0  0  0  0  0  0  0  0  0
   27.7023   -0.1512    0.0000 C   0  0  0  0  0  0  0  0  0  0  0  0
   26.7507    1.0083    0.0000 C   0  0  0  0  0  0  0  0  0  0  0  0
   27.2791    2.4122    0.0000 C   0  0  0  0  0  0  0  0  0  0  0  0
   26.3276    3.5717    0.0000 C   0  0  0  0  0  0  0  0  0  0  0  0
   26.8560    4.9756    0.0000 C   0  0  0  0  0  0  0  0  0  0  0  0
   25.9045    6.1351    0.0000 N   0  0  0  0  0  0  0  0  0  0  0  0
   26.3951   -0.8869    0.0000 C   0  0  0  0  0  0  0  0  0  0  0  0
   26.1960   -2.3737    0.0000 O   0  0  0  0  0  0  0  0  0  0  0  0
   25.1043   -0.1228    0.0000 N   0  0  0  0  0  0  0  0  0  0  0  0
   23.7972   -0.8585    0.0000 C   0  0  0  0  0  0  0  0  0  0  0  0
   22.8205   -1.9969    0.0000 C   0  0  0  0  0  0  0  0  0  0  0  0
   22.5064   -0.0943    0.0000 C   0  0  0  0  0  0  0  0  0  0  0  0
   22.5228    1.4056    0.0000 O   0  0  0  0  0  0  0  0  0  0  0  0
   21.1992   -0.8301    0.0000 N   0  0  0  0  0  0  0  0  0  0  0  0
   19.9085   -0.0659    0.0000 C   0  0  0  0  0  0  0  0  0  0  0  0
   18.9570    1.0937    0.0000 C   0  0  0  0  0  0  0  0  0  0  0  0
   19.4854    2.4975    0.0000 O   0  0  0  0  0  0  0  0  0  0  0  0
   18.6013   -0.8016    0.0000 C   0  0  0  0  0  0  0  0  0  0  0  0
   18.5849   -2.3015    0.0000 O   0  0  0  0  0  0  0  0  0  0  0  0
   17.3106   -0.0374    0.0000 N   0  0  0  0  0  0  0  0  0  0  0  0
   16.0034   -0.7732    0.0000 C   0  0  0  0  0  0  0  0  0  0  0  0
   15.0267   -1.9116    0.0000 C   0  0  0  0  0  0  0  0  0  0  0  0
   13.5297   -1.8168    0.0000 C   0  0  0  0  0  0  0  0  0  0  0  0
   14.7127   -0.0090    0.0000 C   0  0  0  0  0  0  0  0  0  0  0  0
   14.7291    1.4909    0.0000 O   0  0  0  0  0  0  0  0  0  0  0  0
   13.4055   -0.7447    0.0000 N   0  0  0  0  0  0  0  0  0  0  0  0
   12.1147    0.0194    0.0000 C   0  0  0  0  0  0  0  0  0  0  0  0
   11.1632    1.1790    0.0000 C   0  0  0  0  0  0  0  0  0  0  0  0
   11.6916    2.5828    0.0000 C   0  0  0  0  0  0  0  0  0  0  0  0
   10.7401    3.7424    0.0000 O   0  0  0  0  0  0  0  0  0  0  0  0
   13.1716    2.8271    0.0000 O   0  0  0  0  0  0  0  0  0  0  0  0
   10.8076   -0.7163    0.0000 C   0  0  0  0  0  0  0  0  0  0  0  0
   10.7911   -2.2162    0.0000 O   0  0  0  0  0  0  0  0  0  0  0  0
    9.5168    0.0479    0.0000 N   0  0  0  0  0  0  0  0  0  0  0  0
    8.2096   -0.6879    0.0000 C   0  0  0  0  0  0  0  0  0  0  0  0
    7.2329   -1.8263    0.0000 C   0  0  0  0  0  0  0  0  0  0  0  0
    5.7587   -1.5497    0.0000 C   0  0  0  0  0  0  0  0  0  0  0  0
    5.2611   -0.1346    0.0000 C   0  0  0  0  0  0  0  0  0  0  0  0
    3.7868    0.1420    0.0000 C   0  0  0  0  0  0  0  0  0  0  0  0
    2.8101   -0.9964    0.0000 C   0  0  0  0  0  0  0  0  0  0  0  0
    1.3359   -0.7198    0.0000 O   0  0  0  0  0  0  0  0  0  0  0  0
    3.3077   -2.4115    0.0000 C   0  0  0  0  0  0  0  0  0  0  0  0
    4.7820   -2.6881    0.0000 C   0  0  0  0  0  0  0  0  0  0  0  0
    6.9189    0.0763    0.0000 C   0  0  0  0  0  0  0  0  0  0  0  0
    7.1180    1.5630    0.0000 O   0  0  0  0  0  0  0  0  0  0  0  0
    5.6117   -0.6594    0.0000 N   0  0  0  0  0  0  0  0  0  0  0  0
    4.3210    0.1048    0.0000 C   0  0  0  0  0  0  0  0  0  0  0  0
    3.3694    1.2643    0.0000 C   0  0  0  0  0  0  0  0  0  0  0  0
    4.0650    2.5933    0.0000 C   0  0  0  0  0  0  0  0  0  0  0  0
    2.0787    2.0285    0.0000 C   0  0  0  0  0  0  0  0  0  0  0  0
    2.0951    3.5284    0.0000 C   0  0  0  0  0  0  0  0  0  0  0  0
    3.0138   -0.6310    0.0000 C   0  0  0  0  0  0  0  0  0  0  0  0
    2.6349   -2.0823    0.0000 O   0  0  0  0  0  0  0  0  0  0  0  0
    1.7231    0.1332    0.0000 N   0  0  0  0  0  0  0  0  0  0  0  0
    0.4159   -0.6025    0.0000 C   0  0  0  0  0  0  0  0  0  0  0  0
   -0.5608   -1.7410    0.0000 C   0  0  0  0  0  0  0  0  0  0  0  0
   -2.0351   -1.4643    0.0000 C   0  0  0  0  0  0  0  0  0  0  0  0
   -3.0118   -2.6028    0.0000 C   0  0  0  0  0  0  0  0  0  0  0  0
   -4.4861   -2.3262    0.0000 N   0  0  0  0  0  0  0  0  0  0  0  0
   -5.4628   -3.4646    0.0000 C   0  0  0  0  0  0  0  0  0  0  0  0
   -6.8923   -3.0103    0.0000 N   0  0  0  0  0  0  0  0  0  0  0  0
   -4.9652   -4.8797    0.0000 N   0  0  0  0  0  0  0  0  0  0  0  0
   -0.8749    0.1616    0.0000 C   0  0  0  0  0  0  0  0  0  0  0  0
   -0.8584    1.6616    0.0000 O   0  0  0  0  0  0  0  0  0  0  0  0
   -2.1820   -0.5741    0.0000 N   0  0  0  0  0  0  0  0  0  0  0  0
   -3.4728    0.1901    0.0000 C   0  0  0  0  0  0  0  0  0  0  0  0
   -4.4243    1.3496    0.0000 C   0  0  0  0  0  0  0  0  0  0  0  0
   -3.8959    2.7535    0.0000 C   0  0  0  0  0  0  0  0  0  0  0  0
   -4.8474    3.9130    0.0000 C   0  0  0  0  0  0  0  0  0  0  0  0
   -4.3190    5.3169    0.0000 C   0  0  0  0  0  0  0  0  0  0  0  0
   -5.2706    6.4764    0.0000 N   0  0  0  0  0  0  0  0  0  0  0  0
   -4.7800   -0.5456    0.0000 C   0  0  0  0  0  0  0  0  0  0  0  0
   -5.1588   -1.9970    0.0000 O   0  0  0  0  0  0  0  0  0  0  0  0
   -6.0707    0.2185    0.0000 N   0  0  0  0  0  0  0  0  0  0  0  0
   -7.3779   -0.5172    0.0000 C   0  0  0  0  0  0  0  0  0  0  0  0
   -8.3546   -1.6557    0.0000 C   0  0  0  0  0  0  0  0  0  0  0  0
   -9.8289   -1.3790    0.0000 C   0  0  0  0  0  0  0  0  0  0  0  0
  -10.8056   -2.5175    0.0000 C   0  0  0  0  0  0  0  0  0  0  0  0
  -11.1196   -0.6148    0.0000 C   0  0  0  0  0  0  0  0  0  0  0  0
   -8.6686    0.2470    0.0000 C   0  0  0  0  0  0  0  0  0  0  0  0
   -8.6522    1.7469    0.0000 O   0  0  0  0  0  0  0  0  0  0  0  0
   -9.9758   -0.4888    0.0000 N   0  0  0  0  0  0  0  0  0  0  0  0
  -11.2665    0.2754    0.0000 C   0  0  0  0  0  0  0  0  0  0  0  0
  -12.2181    1.4350    0.0000 C   0  0  0  0  0  0  0  0  0  0  0  0
  -11.6897    2.8388    0.0000 C   0  0  0  0  0  0  0  0  0  0  0  0
  -12.6412    3.9984    0.0000 C   0  0  0  0  0  0  0  0  0  0  0  0
  -12.1128    5.4022    0.0000 N   0  0  0  0  0  0  0  0  0  0  0  0
  -14.1212    3.7541    0.0000 O   0  0  0  0  0  0  0  0  0  0  0  0
  -12.5737   -0.4603    0.0000 C   0  0  0  0  0  0  0  0  0  0  0  0
  -12.7729   -1.9471    0.0000 O   0  0  0  0  0  0  0  0  0  0  0  0
  -13.8645    0.3038    0.0000 N   0  0  0  0  0  0  0  0  0  0  0  0
  -15.1716   -0.4319    0.0000 C   0  0  0  0  0  0  0  0  0  0  0  0
  -16.1483   -1.5703    0.0000 C   0  0  0  0  0  0  0  0  0  0  0  0
  -17.6226   -1.2937    0.0000 C   0  0  0  0  0  0  0  0  0  0  0  0
  -18.5993   -2.4321    0.0000 C   0  0  0  0  0  0  0  0  0  0  0  0
  -20.0736   -2.1555    0.0000 N   0  0  0  0  0  0  0  0  0  0  0  0
  -21.0503   -3.2940    0.0000 C   0  0  0  0  0  0  0  0  0  0  0  0
  -22.4798   -2.8397    0.0000 N   0  0  0  0  0  0  0  0  0  0  0  0
  -20.5527   -4.7090    0.0000 N   0  0  0  0  0  0  0  0  0  0  0  0
  -16.4624    0.3323    0.0000 C   0  0  0  0  0  0  0  0  0  0  0  0
  -16.4460    1.8322    0.0000 O   0  0  0  0  0  0  0  0  0  0  0  0
  -17.7696   -0.4034    0.0000 N   0  0  0  0  0  0  0  0  0  0  0  0
  -19.0603    0.3607    0.0000 C   0  0  0  0  0  0  0  0  0  0  0  0
  -20.0119    1.5203    0.0000 C   0  0  0  0  0  0  0  0  0  0  0  0
  -19.4834    2.9241    0.0000 C   0  0  0  0  0  0  0  0  0  0  0  0
  -20.4350    4.0837    0.0000 C   0  0  0  0  0  0  0  0  0  0  0  0
  -19.9065    5.4875    0.0000 O   0  0  0  0  0  0  0  0  0  0  0  0
  -21.9149    3.8394    0.0000 O   0  0  0  0  0  0  0  0  0  0  0  0
  -20.3675   -0.3750    0.0000 C   0  0  0  0  0  0  0  0  0  0  0  0
  -20.7464   -1.8264    0.0000 O   0  0  0  0  0  0  0  0  0  0  0  0
  -21.6582    0.3892    0.0000 N   0  0  0  0  0  0  0  0  0  0  0  0
  -22.9654   -0.3466    0.0000 C   0  0  0  0  0  0  0  0  0  0  0  0
  -23.9421   -1.4850    0.0000 C   0  0  0  0  0  0  0  0  0  0  0  0
  -25.4164   -1.2084    0.0000 C   0  0  0  0  0  0  0  0  0  0  0  0
  -26.3931   -2.3468    0.0000 C   0  0  0  0  0  0  0  0  0  0  0  0
  -27.8901   -2.2520    0.0000 N   0  0  0  0  0  0  0  0  0  0  0  0
  -25.8955   -3.7619    0.0000 O   0  0  0  0  0  0  0  0  0  0  0  0
  -24.2562    0.4176    0.0000 C   0  0  0  0  0  0  0  0  0  0  0  0
  -24.2397    1.9175    0.0000 O   0  0  0  0  0  0  0  0  0  0  0  0
  -25.5633   -0.3181    0.0000 N   0  0  0  0  0  0  0  0  0  0  0  0
  -26.8541    0.4461    0.0000 C   0  0  0  0  0  0  0  0  0  0  0  0
  -27.8056    1.6056    0.0000 C   0  0  0  0  0  0  0  0  0  0  0  0
  -27.2772    3.0094    0.0000 C   0  0  0  0  0  0  0  0  0  0  0  0
  -28.2287    4.1690    0.0000 C   0  0  0  0  0  0  0  0  0  0  0  0
  -27.7003    5.5728    0.0000 N   0  0  0  0  0  0  0  0  0  0  0  0
  -29.7087    3.9247    0.0000 O   0  0  0  0  0  0  0  0  0  0  0  0
  -28.1612   -0.2897    0.0000 C   0  0  0  0  0  0  0  0  0  0  0  0
  -28.3604   -1.7764    0.0000 O   0  0  0  0  0  0  0  0  0  0  0  0
  -29.4520    0.4745    0.0000 N   0  0  0  0  0  0  0  0  0  0  0  0
  -30.7592   -0.2612    0.0000 C   0  0  0  0  0  0  0  0  0  0  0  0
  -31.7359   -1.3997    0.0000 C   0  0  0  0  0  0  0  0  0  0  0  0
  -33.2101   -1.1231    0.0000 C   0  0  0  0  0  0  0  0  0  0  0  0
  -34.1868   -2.2615    0.0000 C   0  0  0  0  0  0  0  0  0  0  0  0
  -35.6611   -1.9849    0.0000 N   0  0  0  0  0  0  0  0  0  0  0  0
  -36.6378   -3.1233    0.0000 C   0  0  0  0  0  0  0  0  0  0  0  0
  -38.0674   -2.6690    0.0000 N   0  0  0  0  0  0  0  0  0  0  0  0
  -36.1402   -4.5384    0.0000 N   0  0  0  0  0  0  0  0  0  0  0  0
  -32.0499    0.5029    0.0000 C   0  0  0  0  0  0  0  0  0  0  0  0
  -32.0335    2.0028    0.0000 O   0  0  0  0  0  0  0  0  0  0  0  0
  -33.3571   -0.2328    0.0000 N   0  0  0  0  0  0  0  0  0  0  0  0
  -34.6478    0.5314    0.0000 C   0  0  0  0  0  0  0  0  0  0  0  0
  -35.5994    1.6909    0.0000 C   0  0  0  0  0  0  0  0  0  0  0  0
  -35.9550   -0.2044    0.0000 C   0  0  0  0  0  0  0  0  0  0  0  0
  -36.3339   -1.6557    0.0000 O   0  0  0  0  0  0  0  0  0  0  0  0
  -37.2458    0.5598    0.0000 N   0  0  0  0  0  0  0  0  0  0  0  0
  -38.5529   -0.1759    0.0000 C   0  0  0  0  0  0  0  0  0  0  0  0
  -39.5296   -1.3144    0.0000 C   0  0  0  0  0  0  0  0  0  0  0  0
  -41.0039   -1.0377    0.0000 C   0  0  0  0  0  0  0  0  0  0  0  0
  -41.9806   -2.1762    0.0000 C   0  0  0  0  0  0  0  0  0  0  0  0
  -43.4549   -1.8995    0.0000 C   0  0  0  0  0  0  0  0  0  0  0  0
  -44.4316   -3.0380    0.0000 N   0  0  0  0  0  0  0  0  0  0  0  0
  -39.8437    0.5883    0.0000 C   0  0  0  0  0  0  0  0  0  0  0  0
  -39.8273    2.0882    0.0000 O   0  0  0  0  0  0  0  0  0  0  0  0
  -41.1508   -0.1475    0.0000 N   0  0  0  0  0  0  0  0  0  0  0  0
  -42.4416    0.6167    0.0000 C   0  0  0  0  0  0  0  0  0  0  0  0
  -43.3931    1.7763    0.0000 C   0  0  0  0  0  0  0  0  0  0  0  0
  -42.8647    3.1801    0.0000 C   0  0  0  0  0  0  0  0  0  0  0  0
  -43.8163    4.3396    0.0000 C   0  0  0  0  0  0  0  0  0  0  0  0
  -43.2878    5.7435    0.0000 O   0  0  0  0  0  0  0  0  0  0  0  0
  -45.2962    4.0954    0.0000 O   0  0  0  0  0  0  0  0  0  0  0  0
  -43.7488   -0.1190    0.0000 C   0  0  0  0  0  0  0  0  0  0  0  0
  -44.1276   -1.5704    0.0000 O   0  0  0  0  0  0  0  0  0  0  0  0
  -45.0395    0.6451    0.0000 N   0  0  0  0  0  0  0  0  0  0  0  0
  -46.3467   -0.0906    0.0000 C   0  0  0  0  0  0  0  0  0  0  0  0
  -47.3234   -1.2290    0.0000 C   0  0  0  0  0  0  0  0  0  0  0  0
  -48.7977   -0.9524    0.0000 C   0  0  0  0  0  0  0  0  0  0  0  0
  -49.7744   -2.0909    0.0000 C   0  0  0  0  0  0  0  0  0  0  0  0
  -50.0884   -0.1882    0.0000 C   0  0  0  0  0  0  0  0  0  0  0  0
  -47.6374    0.6736    0.0000 C   0  0  0  0  0  0  0  0  0  0  0  0
  -49.0245    0.1027    0.0000 O   0  0  0  0  0  0  0  0  0  0  0  0
  -47.6210    2.1735    0.0000 O   0  0  0  0  0  0  0  0  0  0  0  0
   48.3191    1.1120    0.0000 H   0  0  0  0  0  0  0  0  0  0  0  0
   48.4528   -3.3786    0.0000 H   0  0  0  0  0  0  0  0  0  0  0  0
   51.0343   -4.9069    0.0000 H   0  0  0  0  0  0  0  0  0  0  0  0
   50.7365    1.0521    0.0000 H   0  0  0  0  0  0  0  0  0  0  0  0
   57.7052    2.7110    0.0000 H   0  0  0  0  0  0  0  0  0  0  0  0
   58.7298   -2.3832    0.0000 H   0  0  0  0  0  0  0  0  0  0  0  0
   55.7887   -2.9747    0.0000 H   0  0  0  0  0  0  0  0  0  0  0  0
   60.6795   -0.6660    0.0000 H   0  0  0  0  0  0  0  0  0  0  0  0
   50.8648   -1.3150    0.0000 H   0  0  0  0  0  0  0  0  0  0  0  0
   48.8568    1.1177    0.0000 H   0  0  0  0  0  0  0  0  0  0  0  0
   52.7812    4.3707    0.0000 H   0  0  0  0  0  0  0  0  0  0  0  0
   50.3192    5.2005    0.0000 H   0  0  0  0  0  0  0  0  0  0  0  0
   45.9041    1.1496    0.0000 H   0  0  0  0  0  0  0  0  0  0  0  0
   43.6038   -2.2245    0.0000 H   0  0  0  0  0  0  0  0  0  0  0  0
   45.5321   -2.2456    0.0000 H   0  0  0  0  0  0  0  0  0  0  0  0
   42.3382    0.8377    0.0000 H   0  0  0  0  0  0  0  0  0  0  0  0
   44.2665    0.8166    0.0000 H   0  0  0  0  0  0  0  0  0  0  0  0
   40.7083    1.2065    0.0000 H   0  0  0  0  0  0  0  0  0  0  0  0
   40.3362   -2.1887    0.0000 H   0  0  0  0  0  0  0  0  0  0  0  0
   39.6987   -2.9318    0.0000 H   0  0  0  0  0  0  0  0  0  0  0  0
   38.8311   -4.7310    0.0000 H   0  0  0  0  0  0  0  0  0  0  0  0
   35.9570   -3.0294    0.0000 H   0  0  0  0  0  0  0  0  0  0  0  0
   35.6430   -1.1268    0.0000 H   0  0  0  0  0  0  0  0  0  0  0  0
   36.7411   -0.4034    0.0000 H   0  0  0  0  0  0  0  0  0  0  0  0
   36.5876   -2.4874    0.0000 H   0  0  0  0  0  0  0  0  0  0  0  0
   36.6042    0.7744    0.0000 H   0  0  0  0  0  0  0  0  0  0  0  0
   33.3213    0.0547    0.0000 H   0  0  0  0  0  0  0  0  0  0  0  0
   34.2802    3.6136    0.0000 H   0  0  0  0  0  0  0  0  0  0  0  0
   36.0496    3.4653    0.0000 H   0  0  0  0  0  0  0  0  0  0  0  0
   36.4472    1.7257    0.0000 H   0  0  0  0  0  0  0  0  0  0  0  0
   31.7795    1.9638    0.0000 H   0  0  0  0  0  0  0  0  0  0  0  0
   32.4013    0.4529    0.0000 H   0  0  0  0  0  0  0  0  0  0  0  0
   31.9794    3.9513    0.0000 H   0  0  0  0  0  0  0  0  0  0  0  0
   33.7986    4.5909    0.0000 H   0  0  0  0  0  0  0  0  0  0  0  0
   34.7675    3.2754    0.0000 H   0  0  0  0  0  0  0  0  0  0  0  0
   32.5511    1.2512    0.0000 H   0  0  0  0  0  0  0  0  0  0  0  0
   32.5425   -2.1034    0.0000 H   0  0  0  0  0  0  0  0  0  0  0  0
   30.2609   -3.5400    0.0000 H   0  0  0  0  0  0  0  0  0  0  0  0
   31.9050   -2.8464    0.0000 H   0  0  0  0  0  0  0  0  0  0  0  0
   28.9473   -0.3181    0.0000 H   0  0  0  0  0  0  0  0  0  0  0  0
   26.6659   -3.0324    0.0000 H   0  0  0  0  0  0  0  0  0  0  0  0
   27.6348   -4.3479    0.0000 H   0  0  0  0  0  0  0  0  0  0  0  0
   29.3512   -3.8599    0.0000 H   0  0  0  0  0  0  0  0  0  0  0  0
   27.5022    0.4178    0.0000 H   0  0  0  0  0  0  0  0  0  0  0  0
   26.3737   -1.3117    0.0000 H   0  0  0  0  0  0  0  0  0  0  0  0
   27.1536   -2.3704    0.0000 H   0  0  0  0  0  0  0  0  0  0  0  0
   28.6141   -2.3667    0.0000 H   0  0  0  0  0  0  0  0  0  0  0  0
   28.8104    0.8597    0.0000 H   0  0  0  0  0  0  0  0  0  0  0  0
   25.4600    1.7725    0.0000 H   0  0  0  0  0  0  0  0  0  0  0  0
   25.4308    0.2956    0.0000 H   0  0  0  0  0  0  0  0  0  0  0  0
   28.3873    3.4231    0.0000 H   0  0  0  0  0  0  0  0  0  0  0  0
   28.6534    1.8110    0.0000 H   0  0  0  0  0  0  0  0  0  0  0  0
   25.0368    4.3359    0.0000 H   0  0  0  0  0  0  0  0  0  0  0  0
   25.2194    2.5608    0.0000 H   0  0  0  0  0  0  0  0  0  0  0  0
   27.8327    6.1140    0.0000 H   0  0  0  0  0  0  0  0  0  0  0  0
   28.2303    4.3744    0.0000 H   0  0  0  0  0  0  0  0  0  0  0  0
   26.4329    7.5390    0.0000 H   0  0  0  0  0  0  0  0  0  0  0  0
   24.4245    5.8908    0.0000 H   0  0  0  0  0  0  0  0  0  0  0  0
   24.9378    1.3680    0.0000 H   0  0  0  0  0  0  0  0  0  0  0  0
   24.7487   -2.0181    0.0000 H   0  0  0  0  0  0  0  0  0  0  0  0
   21.3450   -2.2671    0.0000 H   0  0  0  0  0  0  0  0  0  0  0  0
   22.2920   -3.4008    0.0000 H   0  0  0  0  0  0  0  0  0  0  0  0
   24.1112   -2.7611    0.0000 H   0  0  0  0  0  0  0  0  0  0  0  0
   21.0001   -2.3168    0.0000 H   0  0  0  0  0  0  0  0  0  0  0  0
   20.8852    1.0726    0.0000 H   0  0  0  0  0  0  0  0  0  0  0  0
   17.7690    2.0095    0.0000 H   0  0  0  0  0  0  0  0  0  0  0  0
   17.7338    0.2254    0.0000 H   0  0  0  0  0  0  0  0  0  0  0  0
   18.5338    3.6571    0.0000 H   0  0  0  0  0  0  0  0  0  0  0  0
   17.1440    1.4533    0.0000 H   0  0  0  0  0  0  0  0  0  0  0  0
   16.9550   -1.9327    0.0000 H   0  0  0  0  0  0  0  0  0  0  0  0
   14.4983   -3.3155    0.0000 H   0  0  0  0  0  0  0  0  0  0  0  0
   16.3175   -2.6758    0.0000 H   0  0  0  0  0  0  0  0  0  0  0  0
   12.5757   -2.7734    0.0000 H   0  0  0  0  0  0  0  0  0  0  0  0
   12.2617   -0.8708    0.0000 H   0  0  0  0  0  0  0  0  0  0  0  0
   13.3598   -0.1474    0.0000 H   0  0  0  0  0  0  0  0  0  0  0  0
   13.2064   -2.2315    0.0000 H   0  0  0  0  0  0  0  0  0  0  0  0
   13.0914    1.1579    0.0000 H   0  0  0  0  0  0  0  0  0  0  0  0
    9.9752    2.0948    0.0000 H   0  0  0  0  0  0  0  0  0  0  0  0
    9.9400    0.3107    0.0000 H   0  0  0  0  0  0  0  0  0  0  0  0
   13.7000    4.2310    0.0000 H   0  0  0  0  0  0  0  0  0  0  0  0
    9.3503    1.5386    0.0000 H   0  0  0  0  0  0  0  0  0  0  0  0
    9.1612   -1.8474    0.0000 H   0  0  0  0  0  0  0  0  0  0  0  0
    6.7045   -3.2301    0.0000 H   0  0  0  0  0  0  0  0  0  0  0  0
    8.5237   -2.5905    0.0000 H   0  0  0  0  0  0  0  0  0  0  0  0
    6.0917    1.1144    0.0000 H   0  0  0  0  0  0  0  0  0  0  0  0
    2.9616    1.3946    0.0000 H   0  0  0  0  0  0  0  0  0  0  0  0
    0.5052   -1.9688    0.0000 H   0  0  0  0  0  0  0  0  0  0  0  0
    2.3310   -3.5499    0.0000 H   0  0  0  0  0  0  0  0  0  0  0  0
    5.2795   -4.1032    0.0000 H   0  0  0  0  0  0  0  0  0  0  0  0
    5.2329   -2.1108    0.0000 H   0  0  0  0  0  0  0  0  0  0  0  0
    5.4292    1.1157    0.0000 H   0  0  0  0  0  0  0  0  0  0  0  0
    2.1463    0.3960    0.0000 H   0  0  0  0  0  0  0  0  0  0  0  0
    3.1051    3.9549    0.0000 H   0  0  0  0  0  0  0  0  0  0  0  0
    4.8746    3.8066    0.0000 H   0  0  0  0  0  0  0  0  0  0  0  0
    5.2721    2.0670    0.0000 H   0  0  0  0  0  0  0  0  0  0  0  0
    0.6044    2.3051    0.0000 H   0  0  0  0  0  0  0  0  0  0  0  0
    1.2263    0.7942    0.0000 H   0  0  0  0  0  0  0  0  0  0  0  0
    0.8043    4.2926    0.0000 H   0  0  0  0  0  0  0  0  0  0  0  0
    2.6235    4.9322    0.0000 H   0  0  0  0  0  0  0  0  0  0  0  0
    3.5925    3.6167    0.0000 H   0  0  0  0  0  0  0  0  0  0  0  0
    1.3760    1.5925    0.0000 H   0  0  0  0  0  0  0  0  0  0  0  0
    1.3674   -1.7621    0.0000 H   0  0  0  0  0  0  0  0  0  0  0  0
   -0.9142   -3.1988    0.0000 H   0  0  0  0  0  0  0  0  0  0  0  0
    0.6272   -2.6568    0.0000 H   0  0  0  0  0  0  0  0  0  0  0  0
   -3.3258   -0.7002    0.0000 H   0  0  0  0  0  0  0  0  0  0  0  0
   -2.2277    0.0232    0.0000 H   0  0  0  0  0  0  0  0  0  0  0  0
   -3.5402   -4.0066    0.0000 H   0  0  0  0  0  0  0  0  0  0  0  0
   -1.8238   -3.5186    0.0000 H   0  0  0  0  0  0  0  0  0  0  0  0
   -5.3113   -1.0735    0.0000 H   0  0  0  0  0  0  0  0  0  0  0  0
   -7.9137   -4.3264    0.0000 H   0  0  0  0  0  0  0  0  0  0  0  0
   -5.9419   -6.0181    0.0000 H   0  0  0  0  0  0  0  0  0  0  0  0
   -3.4909   -5.1563    0.0000 H   0  0  0  0  0  0  0  0  0  0  0  0
   -2.5609   -2.0255    0.0000 H   0  0  0  0  0  0  0  0  0  0  0  0
   -2.3646    1.2010    0.0000 H   0  0  0  0  0  0  0  0  0  0  0  0
   -5.7151    2.1138    0.0000 H   0  0  0  0  0  0  0  0  0  0  0  0
   -5.6475    0.4814    0.0000 H   0  0  0  0  0  0  0  0  0  0  0  0
   -2.7877    3.7644    0.0000 H   0  0  0  0  0  0  0  0  0  0  0  0
   -2.5216    2.1523    0.0000 H   0  0  0  0  0  0  0  0  0  0  0  0
   -6.1382    4.6772    0.0000 H   0  0  0  0  0  0  0  0  0  0  0  0
   -5.9556    2.9021    0.0000 H   0  0  0  0  0  0  0  0  0  0  0  0
   -3.3423    6.4553    0.0000 H   0  0  0  0  0  0  0  0  0  0  0  0
   -2.9447    4.7157    0.0000 H   0  0  0  0  0  0  0  0  0  0  0  0
   -4.7421    7.8803    0.0000 H   0  0  0  0  0  0  0  0  0  0  0  0
   -6.7505    6.2321    0.0000 H   0  0  0  0  0  0  0  0  0  0  0  0
   -6.2372    1.7093    0.0000 H   0  0  0  0  0  0  0  0  0  0  0  0
   -6.4263   -1.6768    0.0000 H   0  0  0  0  0  0  0  0  0  0  0  0
   -8.7079   -3.1134    0.0000 H   0  0  0  0  0  0  0  0  0  0  0  0
   -6.9803   -2.2568    0.0000 H   0  0  0  0  0  0  0  0  0  0  0  0
  -10.0215    0.1086    0.0000 H   0  0  0  0  0  0  0  0  0  0  0  0
  -12.3030   -2.6058    0.0000 H   0  0  0  0  0  0  0  0  0  0  0  0
  -11.3340   -3.9213    0.0000 H   0  0  0  0  0  0  0  0  0  0  0  0
   -9.6176   -3.4333    0.0000 H   0  0  0  0  0  0  0  0  0  0  0  0
  -11.4666    0.8445    0.0000 H   0  0  0  0  0  0  0  0  0  0  0  0
  -12.5951   -0.8850    0.0000 H   0  0  0  0  0  0  0  0  0  0  0  0
  -11.8152   -1.9438    0.0000 H   0  0  0  0  0  0  0  0  0  0  0  0
  -10.3547   -1.9401    0.0000 H   0  0  0  0  0  0  0  0  0  0  0  0
  -10.1584    1.2863    0.0000 H   0  0  0  0  0  0  0  0  0  0  0  0
  -13.4061    2.3508    0.0000 H   0  0  0  0  0  0  0  0  0  0  0  0
  -13.5380    0.7223    0.0000 H   0  0  0  0  0  0  0  0  0  0  0  0
  -10.7130    3.9772    0.0000 H   0  0  0  0  0  0  0  0  0  0  0  0
  -10.3154    2.2377    0.0000 H   0  0  0  0  0  0  0  0  0  0  0  0
  -13.0643    6.5617    0.0000 H   0  0  0  0  0  0  0  0  0  0  0  0
  -10.6328    5.6465    0.0000 H   0  0  0  0  0  0  0  0  0  0  0  0
  -14.0310    1.7946    0.0000 H   0  0  0  0  0  0  0  0  0  0  0  0
  -14.2201   -1.5914    0.0000 H   0  0  0  0  0  0  0  0  0  0  0  0
  -16.5017   -3.0281    0.0000 H   0  0  0  0  0  0  0  0  0  0  0  0
  -14.8576   -2.3345    0.0000 H   0  0  0  0  0  0  0  0  0  0  0  0
  -18.9134   -0.5295    0.0000 H   0  0  0  0  0  0  0  0  0  0  0  0
  -17.8153    0.1939    0.0000 H   0  0  0  0  0  0  0  0  0  0  0  0
  -19.1277   -3.8360    0.0000 H   0  0  0  0  0  0  0  0  0  0  0  0
  -17.4113   -3.3480    0.0000 H   0  0  0  0  0  0  0  0  0  0  0  0
  -20.8988   -0.9029    0.0000 H   0  0  0  0  0  0  0  0  0  0  0  0
  -23.5013   -4.1558    0.0000 H   0  0  0  0  0  0  0  0  0  0  0  0
  -21.5294   -5.8475    0.0000 H   0  0  0  0  0  0  0  0  0  0  0  0
  -19.0785   -4.9857    0.0000 H   0  0  0  0  0  0  0  0  0  0  0  0
  -18.1484   -1.8548    0.0000 H   0  0  0  0  0  0  0  0  0  0  0  0
  -17.9521    1.3716    0.0000 H   0  0  0  0  0  0  0  0  0  0  0  0
  -21.1998    2.4361    0.0000 H   0  0  0  0  0  0  0  0  0  0  0  0
  -21.2350    0.6520    0.0000 H   0  0  0  0  0  0  0  0  0  0  0  0
  -18.5067    4.0626    0.0000 H   0  0  0  0  0  0  0  0  0  0  0  0
  -18.1092    2.3230    0.0000 H   0  0  0  0  0  0  0  0  0  0  0  0
  -22.8665    4.9989    0.0000 H   0  0  0  0  0  0  0  0  0  0  0  0
  -21.8248    1.8799    0.0000 H   0  0  0  0  0  0  0  0  0  0  0  0
  -22.0139   -1.5061    0.0000 H   0  0  0  0  0  0  0  0  0  0  0  0
  -24.4705   -2.8888    0.0000 H   0  0  0  0  0  0  0  0  0  0  0  0
  -22.5678   -2.0861    0.0000 H   0  0  0  0  0  0  0  0  0  0  0  0
  -26.7071   -0.4442    0.0000 H   0  0  0  0  0  0  0  0  0  0  0  0
  -25.6090    0.2792    0.0000 H   0  0  0  0  0  0  0  0  0  0  0  0
  -28.8441   -3.2086    0.0000 H   0  0  0  0  0  0  0  0  0  0  0  0
  -28.7372   -0.8175    0.0000 H   0  0  0  0  0  0  0  0  0  0  0  0
  -25.9422   -1.7695    0.0000 H   0  0  0  0  0  0  0  0  0  0  0  0
  -25.7459    1.4570    0.0000 H   0  0  0  0  0  0  0  0  0  0  0  0
  -28.9936    2.5214    0.0000 H   0  0  0  0  0  0  0  0  0  0  0  0
  -29.0288    0.7373    0.0000 H   0  0  0  0  0  0  0  0  0  0  0  0
  -26.3005    4.1479    0.0000 H   0  0  0  0  0  0  0  0  0  0  0  0
  -25.9029    2.4083    0.0000 H   0  0  0  0  0  0  0  0  0  0  0  0
  -28.6518    6.7324    0.0000 H   0  0  0  0  0  0  0  0  0  0  0  0
  -26.2203    5.8171    0.0000 H   0  0  0  0  0  0  0  0  0  0  0  0
  -29.6185    1.9652    0.0000 H   0  0  0  0  0  0  0  0  0  0  0  0
  -29.8076   -1.4208    0.0000 H   0  0  0  0  0  0  0  0  0  0  0  0
  -32.0892   -2.8575    0.0000 H   0  0  0  0  0  0  0  0  0  0  0  0
  -30.4451   -2.1639    0.0000 H   0  0  0  0  0  0  0  0  0  0  0  0
  -34.5009   -0.3589    0.0000 H   0  0  0  0  0  0  0  0  0  0  0  0
  -33.4028    0.3645    0.0000 H   0  0  0  0  0  0  0  0  0  0  0  0
  -34.7153   -3.6653    0.0000 H   0  0  0  0  0  0  0  0  0  0  0  0
  -32.9989   -3.1773    0.0000 H   0  0  0  0  0  0  0  0  0  0  0  0
  -36.4863   -0.7323    0.0000 H   0  0  0  0  0  0  0  0  0  0  0  0
  -39.0888   -3.9851    0.0000 H   0  0  0  0  0  0  0  0  0  0  0  0
  -37.1169   -5.6768    0.0000 H   0  0  0  0  0  0  0  0  0  0  0  0
  -34.6660   -4.8150    0.0000 H   0  0  0  0  0  0  0  0  0  0  0  0
  -33.7360   -1.6842    0.0000 H   0  0  0  0  0  0  0  0  0  0  0  0
  -33.6711    1.6698    0.0000 H   0  0  0  0  0  0  0  0  0  0  0  0
  -35.0709    3.0948    0.0000 H   0  0  0  0  0  0  0  0  0  0  0  0
  -36.7874    2.6067    0.0000 H   0  0  0  0  0  0  0  0  0  0  0  0
  -36.8225    0.8227    0.0000 H   0  0  0  0  0  0  0  0  0  0  0  0
  -37.4123    2.0505    0.0000 H   0  0  0  0  0  0  0  0  0  0  0  0
  -37.6014   -1.3355    0.0000 H   0  0  0  0  0  0  0  0  0  0  0  0
  -39.8830   -2.7721    0.0000 H   0  0  0  0  0  0  0  0  0  0  0  0
  -38.1554   -1.9155    0.0000 H   0  0  0  0  0  0  0  0  0  0  0  0
  -42.1919   -0.1219    0.0000 H   0  0  0  0  0  0  0  0  0  0  0  0
  -41.1965    0.4498    0.0000 H   0  0  0  0  0  0  0  0  0  0  0  0
  -42.5090   -3.5800    0.0000 H   0  0  0  0  0  0  0  0  0  0  0  0
  -40.7926   -3.0920    0.0000 H   0  0  0  0  0  0  0  0  0  0  0  0
  -44.8291   -1.2984    0.0000 H   0  0  0  0  0  0  0  0  0  0  0  0
  -43.1015   -0.4418    0.0000 H   0  0  0  0  0  0  0  0  0  0  0  0
  -45.8611   -2.5837    0.0000 H   0  0  0  0  0  0  0  0  0  0  0  0
  -43.9340   -4.4531    0.0000 H   0  0  0  0  0  0  0  0  0  0  0  0
  -41.5297   -1.5988    0.0000 H   0  0  0  0  0  0  0  0  0  0  0  0
  -41.3334    1.6276    0.0000 H   0  0  0  0  0  0  0  0  0  0  0  0
  -44.5811    2.6921    0.0000 H   0  0  0  0  0  0  0  0  0  0  0  0
  -44.6163    0.9080    0.0000 H   0  0  0  0  0  0  0  0  0  0  0  0
  -41.8880    4.3185    0.0000 H   0  0  0  0  0  0  0  0  0  0  0  0
  -41.4904    2.5789    0.0000 H   0  0  0  0  0  0  0  0  0  0  0  0
  -46.2478    5.2549    0.0000 H   0  0  0  0  0  0  0  0  0  0  0  0
  -45.2061    2.1359    0.0000 H   0  0  0  0  0  0  0  0  0  0  0  0
  -45.5436   -1.3575    0.0000 H   0  0  0  0  0  0  0  0  0  0  0  0
  -47.6768   -2.6868    0.0000 H   0  0  0  0  0  0  0  0  0  0  0  0
  -45.9491   -1.8302    0.0000 H   0  0  0  0  0  0  0  0  0  0  0  0
  -48.8075    0.5476    0.0000 H   0  0  0  0  0  0  0  0  0  0  0  0
  -51.2714   -1.9960    0.0000 H   0  0  0  0  0  0  0  0  0  0  0  0
  -50.3028   -3.4947    0.0000 H   0  0  0  0  0  0  0  0  0  0  0  0
  -48.5864   -3.0067    0.0000 H   0  0  0  0  0  0  0  0  0  0  0  0
  -51.4755   -0.7591    0.0000 H   0  0  0  0  0  0  0  0  0  0  0  0
  -51.0400    0.9713    0.0000 H   0  0  0  0  0  0  0  0  0  0  0  0
  -49.1117    0.9502    0.0000 H   0  0  0  0  0  0  0  0  0  0  0  0
  -48.9118    2.9377    0.0000 H   0  0  0  0  0  0  0  0  0  0  0  0
  1  2  1  0
  2  3  1  0
  3  4  2  0
  4  5  1  0
  5  6  2  0
  6  7  1  0
  7  8  2  0
  7  9  1  0
  9 10  1  0
 10 11  1  0
 11 12  2  0
  9 13  1  0
 13 14  1  0
 14 15  2  0
 15 16  1  0
 16 17  2  0
 17 18  1  0
 16 19  1  0
 14 20  1  0
 20 21  1  0
 21 22  2  0
 22 23  1  0
 23 24  2  0
 24 25  1  0
 25 26  2  0
 25 27  1  0
  1 28  2  0
  1 29  1  0
 29 30  1  0
 30 31  1  0
 31 32  1  0
 32 33  2  0
 32 34  1  0
 34 35  1  0
 35 36  1  0
 36 37  1  0
 36 38  1  0
 35 39  1  0
 39 40  2  0
 39 41  1  0
 41 42  1  0
 42 43  1  0
 43 44  1  0
 43 45  1  0
 45 46  1  0
 42 47  1  0
 47 48  2  0
 47 49  1  0
 49 50  1  0
 50 51  1  0
 51 52  1  0
 52 53  1  0
 52 54  1  0
 50 55  1  0
 55 56  2  0
 55 57  1  0
 57 58  1  0
 58 59  1  0
 59 60  1  0
 60 61  1  0
 61 62  1  0
 62 63  1  0
 58 64  1  0
 64 65  2  0
 64 66  1  0
 66 67  1  0
 67 68  1  0
 67 69  1  0
 69 70  2  0
 69 71  1  0
 71 72  1  0
 72 73  1  0
 73 74  1  0
 72 75  1  0
 75 76  2  0
 75 77  1  0
 77 78  1  0
 78 79  1  0
 79 80  1  0
 78 81  1  0
 81 82  2  0
 81 83  1  0
 83 84  1  0
 84 85  1  0
 85 86  1  0
 86 87  2  0
 86 88  1  0
 84 89  1  0
 89 90  2  0
 89 91  1  0
 91 92  1  0
 92 93  1  0
 93 94  1  0
 94 95  2  0
 95 96  1  0
 96 97  2  0
 97 98  1  0
 97 99  1  0
 99100  2  0
 92101  1  0
101102  2  0
101103  1  0
103104  1  0
104105  1  0
105106  1  0
105107  1  0
107108  1  0
104109  1  0
109110  2  0
109111  1  0
111112  1  0
112113  1  0
113114  1  0
114115  1  0
115116  1  0
116117  1  0
117118  2  3
117119  1  0
112120  1  0
120121  2  0
120122  1  0
122123  1  0
123124  1  0
124125  1  0
125126  1  0
126127  1  0
127128  1  0
123129  1  0
129130  2  0
129131  1  0
131132  1  0
132133  1  0
133134  1  0
134135  1  0
134136  1  0
132137  1  0
137138  2  0
137139  1  0
139140  1  0
140141  1  0
141142  1  0
142143  1  0
143144  1  0
143145  2  0
140146  1  0
146147  2  0
146148  1  0
148149  1  0
149150  1  0
150151  1  0
151152  1  0
152153  1  0
153154  1  0
154155  2  3
154156  1  0
149157  1  0
157158  2  0
157159  1  0
159160  1  0
160161  1  0
161162  1  0
162163  1  0
163164  2  0
163165  1  0
160166  1  0
166167  2  0
166168  1  0
168169  1  0
169170  1  0
170171  1  0
171172  1  0
172173  1  0
172174  2  0
169175  1  0
175176  2  0
175177  1  0
177178  1  0
178179  1  0
179180  1  0
180181  1  0
181182  1  0
181183  2  0
178184  1  0
184185  2  0
184186  1  0
186187  1  0
187188  1  0
188189  1  0
189190  1  0
190191  1  0
191192  1  0
192193  2  3
192194  1  0
187195  1  0
195196  2  0
195197  1  0
197198  1  0
198199  1  0
198200  1  0
200201  2  0
200202  1  0
202203  1  0
203204  1  0
204205  1  0
205206  1  0
206207  1  0
207208  1  0
203209  1  0
209210  2  0
209211  1  0
211212  1  0
212213  1  0
213214  1  0
214215  1  0
215216  2  0
215217  1  0
212218  1  0
218219  2  0
218220  1  0
220221  1  0
221222  1  0
222223  1  0
223224  1  0
223225  1  0
221226  1  0
226227  2  0
226228  1  0
  8  3  1  0
100 94  1  0
 11  6  1  0
 18 13  2  0
 22  9  1  0
 26 21  1  0
  2229  1  0
  4230  1  0
  5231  1  0
  8232  1  0
 15233  1  0
 17234  1  0
 18235  1  0
 19236  1  0
 23237  1  0
 24238  1  0
 26239  1  0
 27240  1  0
 29241  1  0
 30242  1  0
 30243  1  0
 31244  1  0
 31245  1  0
 34246  1  0
 35247  1  1
 36248  1  1
 37249  1  0
 38250  1  0
 38251  1  0
 38252  1  0
 41253  1  0
 42254  1  6
 43255  1  1
 44256  1  0
 44257  1  0
 44258  1  0
 45259  1  0
 45260  1  0
 46261  1  0
 46262  1  0
 46263  1  0
 49264  1  0
 50265  1  1
 51266  1  0
 51267  1  0
 52268  1  0
 53269  1  0
 53270  1  0
 53271  1  0
 54272  1  0
 54273  1  0
 54274  1  0
 57275  1  0
 58276  1  6
 59277  1  0
 59278  1  0
 60279  1  0
 60280  1  0
 61281  1  0
 61282  1  0
 62283  1  0
 62284  1  0
 63285  1  0
 63286  1  0
 66287  1  0
 67288  1  1
 68289  1  0
 68290  1  0
 68291  1  0
 71292  1  0
 72293  1  6
 73294  1  0
 73295  1  0
 74296  1  0
 77297  1  0
 78298  1  1
 79299  1  0
 79300  1  0
 80301  1  0
 80302  1  0
 80303  1  0
 83304  1  0
 84305  1  6
 85306  1  0
 85307  1  0
 88308  1  0
 91309  1  0
 92310  1  1
 93311  1  0
 93312  1  0
 95313  1  0
 96314  1  0
 98315  1  0
 99316  1  0
100317  1  0
103318  1  0
104319  1  6
105320  1  1
106321  1  0
106322  1  0
106323  1  0
107324  1  0
107325  1  0
108326  1  0
108327  1  0
108328  1  0
111329  1  0
112330  1  1
113331  1  0
113332  1  0
114333  1  0
114334  1  0
115335  1  0
115336  1  0
116337  1  0
118338  1  0
119339  1  0
119340  1  0
122341  1  0
123342  1  6
124343  1  0
124344  1  0
125345  1  0
125346  1  0
126347  1  0
126348  1  0
127349  1  0
127350  1  0
128351  1  0
128352  1  0
131353  1  0
132354  1  1
133355  1  0
133356  1  0
134357  1  0
135358  1  0
135359  1  0
135360  1  0
136361  1  0
136362  1  0
136363  1  0
139364  1  0
140365  1  6
141366  1  0
141367  1  0
142368  1  0
142369  1  0
144370  1  0
144371  1  0
148372  1  0
149373  1  1
150374  1  0
150375  1  0
151376  1  0
151377  1  0
152378  1  0
152379  1  0
153380  1  0
155381  1  0
156382  1  0
156383  1  0
159384  1  0
160385  1  6
161386  1  0
161387  1  0
162388  1  0
162389  1  0
165390  1  0
168391  1  0
169392  1  1
170393  1  0
170394  1  0
171395  1  0
171396  1  0
173397  1  0
173398  1  0
177399  1  0
178400  1  6
179401  1  0
179402  1  0
180403  1  0
180404  1  0
182405  1  0
182406  1  0
186407  1  0
187408  1  1
188409  1  0
188410  1  0
189411  1  0
189412  1  0
190413  1  0
190414  1  0
191415  1  0
193416  1  0
194417  1  0
194418  1  0
197419  1  0
198420  1  6
199421  1  0
199422  1  0
199423  1  0
202424  1  0
203425  1  1
204426  1  0
204427  1  0
205428  1  0
205429  1  0
206430  1  0
206431  1  0
207432  1  0
207433  1  0
208434  1  0
208435  1  0
211436  1  0
212437  1  6
213438  1  0
213439  1  0
214440  1  0
214441  1  0
217442  1  0
220443  1  0
221444  1  1
222445  1  0
222446  1  0
223447  1  0
224448  1  0
224449  1  0
224450  1  0
225451  1  0
225452  1  0
225453  1  0
228454  1  0
M  END
