
     RDKit          2D

296302  0  0  0  0  0  0  0  0999 V2000
  -29.1308   -0.5736    0.0000 C   0  0  0  0  0  0  0  0  0  0  0  0
  -30.3635   -1.4283    0.0000 N   0  0  0  0  0  0  0  0  0  0  0  0
  -31.7200   -0.7882    0.0000 C   0  0  0  0  0  0  0  0  0  0  0  0
  -31.8440    0.7066    0.0000 C   0  0  0  0  0  0  0  0  0  0  0  0
  -33.2005    1.3467    0.0000 C   0  0  0  0  0  0  0  0  0  0  0  0
  -34.4332    0.4920    0.0000 C   0  0  0  0  0  0  0  0  0  0  0  0
  -34.3092   -1.0029    0.0000 C   0  0  0  0  0  0  0  0  0  0  0  0
  -32.9527   -1.6430    0.0000 C   0  0  0  0  0  0  0  0  0  0  0  0
  -35.6926   -1.5827    0.0000 C   0  0  0  0  0  0  0  0  0  0  0  0
  -36.6716   -0.4462    0.0000 O   0  0  0  0  0  0  0  0  0  0  0  0
  -35.8932    0.8360    0.0000 C   0  0  0  0  0  0  0  0  0  0  0  0
  -36.4730    2.2194    0.0000 O   0  0  0  0  0  0  0  0  0  0  0  0
  -37.1291   -2.0147    0.0000 C   0  0  0  0  0  0  0  0  0  0  0  0
  -37.4731   -3.4747    0.0000 C   0  0  0  0  0  0  0  0  0  0  0  0
  -38.9096   -3.9068    0.0000 C   0  0  0  0  0  0  0  0  0  0  0  0
  -40.0019   -2.8788    0.0000 C   0  0  0  0  0  0  0  0  0  0  0  0
  -39.6579   -1.4188    0.0000 C   0  0  0  0  0  0  0  0  0  0  0  0
  -38.2214   -0.9868    0.0000 C   0  0  0  0  0  0  0  0  0  0  0  0
  -41.4384   -3.3108    0.0000 O   0  0  0  0  0  0  0  0  0  0  0  0
  -36.3808   -4.5027    0.0000 O   0  0  0  0  0  0  0  0  0  0  0  0
  -34.9443   -4.0707    0.0000 C   0  0  0  0  0  0  0  0  0  0  0  0
  -34.6003   -2.6107    0.0000 C   0  0  0  0  0  0  0  0  0  0  0  0
  -33.3244   -2.8600    0.0000 C   0  0  0  0  0  0  0  0  0  0  0  0
  -32.7418   -3.4082    0.0000 C   0  0  0  0  0  0  0  0  0  0  0  0
  -32.9253   -4.1869    0.0000 C   0  0  0  0  0  0  0  0  0  0  0  0
  -33.6914   -4.4173    0.0000 C   0  0  0  0  0  0  0  0  0  0  0  0
  -31.3232   -5.6946    0.0000 O   0  0  0  0  0  0  0  0  0  0  0  0
  -29.2548    0.9213    0.0000 S   0  0  0  0  0  0  0  0  0  0  0  0
  -27.7743   -1.2137    0.0000 N   0  0  0  0  0  0  0  0  0  0  0  0
  -26.5416   -0.3589    0.0000 C   0  0  0  0  0  0  0  0  0  0  0  0
  -25.1851   -0.9990    0.0000 C   0  0  0  0  0  0  0  0  0  0  0  0
  -23.9525   -0.1442    0.0000 C   0  0  0  0  0  0  0  0  0  0  0  0
  -24.0764    1.3506    0.0000 O   0  0  0  0  0  0  0  0  0  0  0  0
  -22.5959   -0.7843    0.0000 N   0  0  0  0  0  0  0  0  0  0  0  0
  -21.3633    0.0704    0.0000 C   0  0  0  0  0  0  0  0  0  0  0  0
  -20.4973    1.2952    0.0000 C   0  0  0  0  0  0  0  0  0  0  0  0
  -20.1025    2.7423    0.0000 O   0  0  0  0  0  0  0  0  0  0  0  0
  -18.9980    1.3408    0.0000 C   0  0  0  0  0  0  0  0  0  0  0  0
  -20.0067   -0.5697    0.0000 C   0  0  0  0  0  0  0  0  0  0  0  0
  -20.0659   -2.0685    0.0000 O   0  0  0  0  0  0  0  0  0  0  0  0
  -18.7741    0.2851    0.0000 N   0  0  0  0  0  0  0  0  0  0  0  0
  -17.4175   -0.3550    0.0000 C   0  0  0  0  0  0  0  0  0  0  0  0
  -16.3617   -1.4205    0.0000 C   0  0  0  0  0  0  0  0  0  0  0  0
  -16.7565   -2.8676    0.0000 C   0  0  0  0  0  0  0  0  0  0  0  0
  -18.2071   -3.2492    0.0000 C   0  0  0  0  0  0  0  0  0  0  0  0
  -18.6019   -4.6963    0.0000 C   0  0  0  0  0  0  0  0  0  0  0  0
  -17.5461   -5.7618    0.0000 C   0  0  0  0  0  0  0  0  0  0  0  0
  -17.9409   -7.2089    0.0000 O   0  0  0  0  0  0  0  0  0  0  0  0
  -16.0955   -5.3802    0.0000 C   0  0  0  0  0  0  0  0  0  0  0  0
  -15.7007   -3.9331    0.0000 C   0  0  0  0  0  0  0  0  0  0  0  0
  -16.1849    0.4997    0.0000 C   0  0  0  0  0  0  0  0  0  0  0  0
  -16.3088    1.9946    0.0000 O   0  0  0  0  0  0  0  0  0  0  0  0
  -14.8283   -0.1404    0.0000 N   0  0  0  0  0  0  0  0  0  0  0  0
  -13.5957    0.7144    0.0000 C   0  0  0  0  0  0  0  0  0  0  0  0
  -12.7297    1.9392    0.0000 C   0  0  0  0  0  0  0  0  0  0  0  0
  -11.2361    1.8017    0.0000 C   0  0  0  0  0  0  0  0  0  0  0  0
  -10.3701    3.0265    0.0000 C   0  0  0  0  0  0  0  0  0  0  0  0
   -8.8764    2.8890    0.0000 N   0  0  0  0  0  0  0  0  0  0  0  0
   -8.0105    4.1138    0.0000 C   0  0  0  0  0  0  0  0  0  0  0  0
   -6.5447    3.7952    0.0000 N   0  0  0  0  0  0  0  0  0  0  0  0
   -8.6382    5.4761    0.0000 N   0  0  0  0  0  0  0  0  0  0  0  0
  -12.2391    0.0743    0.0000 C   0  0  0  0  0  0  0  0  0  0  0  0
  -12.1152   -1.4206    0.0000 O   0  0  0  0  0  0  0  0  0  0  0  0
  -11.0065    0.9291    0.0000 N   0  0  0  0  0  0  0  0  0  0  0  0
   -9.6499    0.2890    0.0000 C   0  0  0  0  0  0  0  0  0  0  0  0
   -8.4173    1.1437    0.0000 C   0  0  0  0  0  0  0  0  0  0  0  0
   -8.2413    2.2230    0.0000 O   0  0  0  0  0  0  0  0  0  0  0  0
   -7.0607    0.5036    0.0000 N   0  0  0  0  0  0  0  0  0  0  0  0
   -5.8281    1.3584    0.0000 C   0  0  0  0  0  0  0  0  0  0  0  0
   -4.9622    2.5832    0.0000 C   0  0  0  0  0  0  0  0  0  0  0  0
   -4.4715    0.7183    0.0000 C   0  0  0  0  0  0  0  0  0  0  0  0
   -4.3476   -0.7766    0.0000 O   0  0  0  0  0  0  0  0  0  0  0  0
   -3.2389    1.5731    0.0000 N   0  0  0  0  0  0  0  0  0  0  0  0
   -1.8823    0.9330    0.0000 C   0  0  0  0  0  0  0  0  0  0  0  0
   -0.8265   -0.1325    0.0000 C   0  0  0  0  0  0  0  0  0  0  0  0
   -0.6497    1.7877    0.0000 C   0  0  0  0  0  0  0  0  0  0  0  0
   -0.7737    3.2826    0.0000 O   0  0  0  0  0  0  0  0  0  0  0  0
    0.7068    1.1476    0.0000 N   0  0  0  0  0  0  0  0  0  0  0  0
    1.9395    2.0024    0.0000 C   0  0  0  0  0  0  0  0  0  0  0  0
    2.8054    3.2272    0.0000 C   0  0  0  0  0  0  0  0  0  0  0  0
    4.2991    3.0897    0.0000 C   0  0  0  0  0  0  0  0  0  0  0  0
    5.1650    4.3145    0.0000 C   0  0  0  0  0  0  0  0  0  0  0  0
    6.6476    4.5425    0.0000 N   0  0  0  0  0  0  0  0  0  0  0  0
    4.3759    5.5901    0.0000 O   0  0  0  0  0  0  0  0  0  0  0  0
    3.2960    1.3623    0.0000 C   0  0  0  0  0  0  0  0  0  0  0  0
    3.2368   -0.1365    0.0000 O   0  0  0  0  0  0  0  0  0  0  0  0
    4.5287    2.2171    0.0000 N   0  0  0  0  0  0  0  0  0  0  0  0
    5.8852    1.5770    0.0000 C   0  0  0  0  0  0  0  0  0  0  0  0
    6.3029    0.1363    0.0000 C   0  0  0  0  0  0  0  0  0  0  0  0
    7.1267   -1.1173    0.0000 C   0  0  0  0  0  0  0  0  0  0  0  0
    8.2834   -2.0723    0.0000 C   0  0  0  0  0  0  0  0  0  0  0  0
    9.6701   -2.6440    0.0000 C   0  0  0  0  0  0  0  0  0  0  0  0
    4.6337    0.7501    0.0000 C   0  0  0  0  0  0  0  0  0  0  0  0
    5.9108    3.0767    0.0000 C   0  0  0  0  0  0  0  0  0  0  0  0
    5.2243    3.4819    0.0000 O   0  0  0  0  0  0  0  0  0  0  0  0
    6.3772    4.5024    0.0000 N   0  0  0  0  0  0  0  0  0  0  0  0
    7.2432    5.7272    0.0000 C   0  0  0  0  0  0  0  0  0  0  0  0
    6.8978    7.1869    0.0000 C   0  0  0  0  0  0  0  0  0  0  0  0
    8.4316    6.6423    0.0000 C   0  0  0  0  0  0  0  0  0  0  0  0
    7.7039    7.9539    0.0000 O   0  0  0  0  0  0  0  0  0  0  0  0
    9.8371    7.1665    0.0000 N   0  0  0  0  0  0  0  0  0  0  0  0
   11.3346    7.2531    0.0000 C   0  0  0  0  0  0  0  0  0  0  0  0
   12.2605    8.4332    0.0000 C   0  0  0  0  0  0  0  0  0  0  0  0
   12.7911    6.8945    0.0000 C   0  0  0  0  0  0  0  0  0  0  0  0
   13.3628    8.2813    0.0000 O   0  0  0  0  0  0  0  0  0  0  0  0
   14.0772    6.1225    0.0000 N   0  0  0  0  0  0  0  0  0  0  0  0
   15.0786    5.0057    0.0000 C   0  0  0  0  0  0  0  0  0  0  0  0
   16.5785    5.0176    0.0000 C   0  0  0  0  0  0  0  0  0  0  0  0
   17.3182    6.3226    0.0000 C   0  0  0  0  0  0  0  0  0  0  0  0
   18.8182    6.3344    0.0000 C   0  0  0  0  0  0  0  0  0  0  0  0
   19.5579    7.6394    0.0000 N   0  0  0  0  0  0  0  0  0  0  0  0
   19.5784    5.0414    0.0000 O   0  0  0  0  0  0  0  0  0  0  0  0
   15.7063    3.6434    0.0000 C   0  0  0  0  0  0  0  0  0  0  0  0
   17.1470    4.0611    0.0000 O   0  0  0  0  0  0  0  0  0  0  0  0
   15.9046    2.1566    0.0000 N   0  0  0  0  0  0  0  0  0  0  0  0
   15.6558    0.6773    0.0000 C   0  0  0  0  0  0  0  0  0  0  0  0
   14.9821   -0.6628    0.0000 C   0  0  0  0  0  0  0  0  0  0  0  0
   13.9433   -1.7449    0.0000 C   0  0  0  0  0  0  0  0  0  0  0  0
   12.6317   -2.4727    0.0000 C   0  0  0  0  0  0  0  0  0  0  0  0
   11.1638   -2.7815    0.0000 C   0  0  0  0  0  0  0  0  0  0  0  0
   17.1065    1.0590    0.0000 C   0  0  0  0  0  0  0  0  0  0  0  0
   16.6003   -0.4880    0.0000 C   0  0  0  0  0  0  0  0  0  0  0  0
   16.4183   -1.9769    0.0000 O   0  0  0  0  0  0  0  0  0  0  0  0
   18.0818   -0.2527    0.0000 N   0  0  0  0  0  0  0  0  0  0  0  0
   19.0262   -1.4180    0.0000 C   0  0  0  0  0  0  0  0  0  0  0  0
   19.5152   -2.8360    0.0000 C   0  0  0  0  0  0  0  0  0  0  0  0
   18.5316   -3.9685    0.0000 C   0  0  0  0  0  0  0  0  0  0  0  0
   20.5077   -1.1827    0.0000 C   0  0  0  0  0  0  0  0  0  0  0  0
   21.0446    0.2179    0.0000 O   0  0  0  0  0  0  0  0  0  0  0  0
   21.4522   -2.3480    0.0000 N   0  0  0  0  0  0  0  0  0  0  0  0
   22.9336   -2.1127    0.0000 C   0  0  0  0  0  0  0  0  0  0  0  0
   24.2452   -1.3849    0.0000 C   0  0  0  0  0  0  0  0  0  0  0  0
   25.5313   -2.1569    0.0000 C   0  0  0  0  0  0  0  0  0  0  0  0
   26.8429   -1.4291    0.0000 C   0  0  0  0  0  0  0  0  0  0  0  0
   28.1290   -2.2011    0.0000 N   0  0  0  0  0  0  0  0  0  0  0  0
   29.4406   -1.4733    0.0000 C   0  0  0  0  0  0  0  0  0  0  0  0
   30.6230   -2.3963    0.0000 N   0  0  0  0  0  0  0  0  0  0  0  0
   29.4661    0.0265    0.0000 N   0  0  0  0  0  0  0  0  0  0  0  0
   23.8781   -3.2780    0.0000 C   0  0  0  0  0  0  0  0  0  0  0  0
   23.3412   -4.6786    0.0000 O   0  0  0  0  0  0  0  0  0  0  0  0
   25.3595   -3.0427    0.0000 N   0  0  0  0  0  0  0  0  0  0  0  0
   26.3040   -4.2080    0.0000 C   0  0  0  0  0  0  0  0  0  0  0  0
   26.7930   -5.6260    0.0000 C   0  0  0  0  0  0  0  0  0  0  0  0
   25.8094   -6.7585    0.0000 C   0  0  0  0  0  0  0  0  0  0  0  0
   26.2984   -8.1766    0.0000 C   0  0  0  0  0  0  0  0  0  0  0  0
   25.3148   -9.3091    0.0000 O   0  0  0  0  0  0  0  0  0  0  0  0
   27.7709   -8.4622    0.0000 O   0  0  0  0  0  0  0  0  0  0  0  0
   27.7854   -3.9727    0.0000 C   0  0  0  0  0  0  0  0  0  0  0  0
   28.6453   -2.7436    0.0000 O   0  0  0  0  0  0  0  0  0  0  0  0
   28.7299   -5.1380    0.0000 N   0  0  0  0  0  0  0  0  0  0  0  0
   30.2114   -4.9027    0.0000 C   0  0  0  0  0  0  0  0  0  0  0  0
   31.5230   -4.1749    0.0000 C   0  0  0  0  0  0  0  0  0  0  0  0
   32.8091   -4.9469    0.0000 C   0  0  0  0  0  0  0  0  0  0  0  0
   31.1559   -6.0680    0.0000 C   0  0  0  0  0  0  0  0  0  0  0  0
   32.6549   -6.0150    0.0000 O   0  0  0  0  0  0  0  0  0  0  0  0
   30.6189   -7.4686    0.0000 O   0  0  0  0  0  0  0  0  0  0  0  0
  -30.0582   -2.8970    0.0000 H   0  0  0  0  0  0  0  0  0  0  0  0
  -30.6113    1.5614    0.0000 H   0  0  0  0  0  0  0  0  0  0  0  0
  -33.3245    2.8416    0.0000 H   0  0  0  0  0  0  0  0  0  0  0  0
  -32.4707   -3.0635    0.0000 H   0  0  0  0  0  0  0  0  0  0  0  0
  -39.2536   -5.3668    0.0000 H   0  0  0  0  0  0  0  0  0  0  0  0
  -40.7502   -0.3908    0.0000 H   0  0  0  0  0  0  0  0  0  0  0  0
  -37.8774    0.4732    0.0000 H   0  0  0  0  0  0  0  0  0  0  0  0
  -42.5307   -2.2829    0.0000 H   0  0  0  0  0  0  0  0  0  0  0  0
  -32.8198   -0.7187    0.0000 H   0  0  0  0  0  0  0  0  0  0  0  0
  -30.5931   -2.9529    0.0000 H   0  0  0  0  0  0  0  0  0  0  0  0
  -34.1960   -6.5587    0.0000 H   0  0  0  0  0  0  0  0  0  0  0  0
  -31.6672   -7.1546    0.0000 H   0  0  0  0  0  0  0  0  0  0  0  0
  -27.6503   -2.7085    0.0000 H   0  0  0  0  0  0  0  0  0  0  0  0
  -25.6757    0.8659    0.0000 H   0  0  0  0  0  0  0  0  0  0  0  0
  -27.5975    0.7066    0.0000 H   0  0  0  0  0  0  0  0  0  0  0  0
  -24.1293   -2.0645    0.0000 H   0  0  0  0  0  0  0  0  0  0  0  0
  -26.0510   -2.2238    0.0000 H   0  0  0  0  0  0  0  0  0  0  0  0
  -22.4720   -2.2792    0.0000 H   0  0  0  0  0  0  0  0  0  0  0  0
  -22.4191    1.1359    0.0000 H   0  0  0  0  0  0  0  0  0  0  0  0
  -21.8539    1.9353    0.0000 H   0  0  0  0  0  0  0  0  0  0  0  0
  -21.1583    3.8078    0.0000 H   0  0  0  0  0  0  0  0  0  0  0  0
  -18.1377    2.3825    0.0000 H   0  0  0  0  0  0  0  0  0  0  0  0
  -17.6471    0.5176    0.0000 H   0  0  0  0  0  0  0  0  0  0  0  0
  -18.6727   -0.3053    0.0000 H   0  0  0  0  0  0  0  0  0  0  0  0
  -18.7149    1.7839    0.0000 H   0  0  0  0  0  0  0  0  0  0  0  0
  -18.2834   -1.5798    0.0000 H   0  0  0  0  0  0  0  0  0  0  0  0
  -15.0933   -2.2212    0.0000 H   0  0  0  0  0  0  0  0  0  0  0  0
  -15.2251   -0.4416    0.0000 H   0  0  0  0  0  0  0  0  0  0  0  0
  -19.3850   -2.3204    0.0000 H   0  0  0  0  0  0  0  0  0  0  0  0
  -20.0526   -5.0780    0.0000 H   0  0  0  0  0  0  0  0  0  0  0  0
  -16.8851   -8.2744    0.0000 H   0  0  0  0  0  0  0  0  0  0  0  0
  -15.0397   -6.4457    0.0000 H   0  0  0  0  0  0  0  0  0  0  0  0
  -14.2500   -3.5514    0.0000 H   0  0  0  0  0  0  0  0  0  0  0  0
  -14.5231   -1.6090    0.0000 H   0  0  0  0  0  0  0  0  0  0  0  0
  -14.6515    1.7799    0.0000 H   0  0  0  0  0  0  0  0  0  0  0  0
  -12.5143    3.4237    0.0000 H   0  0  0  0  0  0  0  0  0  0  0  0
  -14.0863    2.5793    0.0000 H   0  0  0  0  0  0  0  0  0  0  0  0
   -9.8795    1.1616    0.0000 H   0  0  0  0  0  0  0  0  0  0  0  0
  -10.9051    0.3386    0.0000 H   0  0  0  0  0  0  0  0  0  0  0  0
   -9.9753    4.4736    0.0000 H   0  0  0  0  0  0  0  0  0  0  0  0
  -11.6385    3.8272    0.0000 H   0  0  0  0  0  0  0  0  0  0  0  0
   -7.9377    1.7190    0.0000 H   0  0  0  0  0  0  0  0  0  0  0  0
   -5.6509    5.2010    0.0000 H   0  0  0  0  0  0  0  0  0  0  0  0
   -6.0379    2.5428    0.0000 H   0  0  0  0  0  0  0  0  0  0  0  0
   -7.7723    6.7009    0.0000 H   0  0  0  0  0  0  0  0  0  0  0  0
  -10.1319    5.6136    0.0000 H   0  0  0  0  0  0  0  0  0  0  0  0
  -10.7650    2.4095    0.0000 H   0  0  0  0  0  0  0  0  0  0  0  0
   -8.5941   -0.7765    0.0000 H   0  0  0  0  0  0  0  0  0  0  0  0
  -10.5159   -0.9358    0.0000 H   0  0  0  0  0  0  0  0  0  0  0  0
   -6.9368   -0.9912    0.0000 H   0  0  0  0  0  0  0  0  0  0  0  0
   -6.8839    2.4239    0.0000 H   0  0  0  0  0  0  0  0  0  0  0  0
   -3.5184    2.9902    0.0000 H   0  0  0  0  0  0  0  0  0  0  0  0
   -4.5673    4.0303    0.0000 H   0  0  0  0  0  0  0  0  0  0  0  0
   -6.4333    2.8760    0.0000 H   0  0  0  0  0  0  0  0  0  0  0  0
   -3.1797    3.0719    0.0000 H   0  0  0  0  0  0  0  0  0  0  0  0
   -2.7483   -0.2918    0.0000 H   0  0  0  0  0  0  0  0  0  0  0  0
   -1.2213   -1.5796    0.0000 H   0  0  0  0  0  0  0  0  0  0  0  0
    0.4419   -0.9332    0.0000 H   0  0  0  0  0  0  0  0  0  0  0  0
    0.3101    0.8464    0.0000 H   0  0  0  0  0  0  0  0  0  0  0  0
    1.0121   -0.3210    0.0000 H   0  0  0  0  0  0  0  0  0  0  0  0
    0.8836    3.0679    0.0000 H   0  0  0  0  0  0  0  0  0  0  0  0
    3.2002    4.6743    0.0000 H   0  0  0  0  0  0  0  0  0  0  0  0
    1.4489    3.8673    0.0000 H   0  0  0  0  0  0  0  0  0  0  0  0
    5.7702    2.7968    0.0000 H   0  0  0  0  0  0  0  0  0  0  0  0
    4.4492    1.5972    0.0000 H   0  0  0  0  0  0  0  0  0  0  0  0
    7.7065    5.1640    0.0000 H   0  0  0  0  0  0  0  0  0  0  0  0
    7.2865    2.8146    0.0000 H   0  0  0  0  0  0  0  0  0  0  0  0
    4.5879    3.7159    0.0000 H   0  0  0  0  0  0  0  0  0  0  0  0
    4.8032    0.1655    0.0000 H   0  0  0  0  0  0  0  0  0  0  0  0
    5.4991   -1.1302    0.0000 H   0  0  0  0  0  0  0  0  0  0  0  0
    5.7462   -1.7040    0.0000 H   0  0  0  0  0  0  0  0  0  0  0  0
    6.5584   -2.5055    0.0000 H   0  0  0  0  0  0  0  0  0  0  0  0
    7.0278   -2.8930    0.0000 H   0  0  0  0  0  0  0  0  0  0  0  0
    8.3326   -3.5715    0.0000 H   0  0  0  0  0  0  0  0  0  0  0  0
    9.3115   -4.1005    0.0000 H   0  0  0  0  0  0  0  0  0  0  0  0
    4.6123   -0.9157    0.0000 H   0  0  0  0  0  0  0  0  0  0  0  0
    3.4298   -0.0734    0.0000 H   0  0  0  0  0  0  0  0  0  0  0  0
    3.6158    1.5875    0.0000 H   0  0  0  0  0  0  0  0  0  0  0  0
    5.1291    5.3344    0.0000 H   0  0  0  0  0  0  0  0  0  0  0  0
    5.7706    6.0127    0.0000 H   0  0  0  0  0  0  0  0  0  0  0  0
    5.4610    7.6176    0.0000 H   0  0  0  0  0  0  0  0  0  0  0  0
    7.0725    8.6767    0.0000 H   0  0  0  0  0  0  0  0  0  0  0  0
    8.3298    7.6333    0.0000 H   0  0  0  0  0  0  0  0  0  0  0  0
    9.5282    8.6344    0.0000 H   0  0  0  0  0  0  0  0  0  0  0  0
   10.6397    8.5825    0.0000 H   0  0  0  0  0  0  0  0  0  0  0  0
   11.7014    9.8252    0.0000 H   0  0  0  0  0  0  0  0  0  0  0  0
   13.5342    9.2255    0.0000 H   0  0  0  0  0  0  0  0  0  0  0  0
   13.5024    7.5920    0.0000 H   0  0  0  0  0  0  0  0  0  0  0  0
   15.0322    7.2792    0.0000 H   0  0  0  0  0  0  0  0  0  0  0  0
   15.5129    6.4415    0.0000 H   0  0  0  0  0  0  0  0  0  0  0  0
   17.9921    4.5158    0.0000 H   0  0  0  0  0  0  0  0  0  0  0  0
   16.6951    3.5222    0.0000 H   0  0  0  0  0  0  0  0  0  0  0  0
   17.5670    7.8018    0.0000 H   0  0  0  0  0  0  0  0  0  0  0  0
   15.9764    6.9930    0.0000 H   0  0  0  0  0  0  0  0  0  0  0  0
   21.0578    7.6512    0.0000 H   0  0  0  0  0  0  0  0  0  0  0  0
   18.7976    8.9324    0.0000 H   0  0  0  0  0  0  0  0  0  0  0  0
   17.4044    2.1311    0.0000 H   0  0  0  0  0  0  0  0  0  0  0  0
   15.5412   -2.0548    0.0000 H   0  0  0  0  0  0  0  0  0  0  0  0
   16.4210   -1.0865    0.0000 H   0  0  0  0  0  0  0  0  0  0  0  0
   14.2485   -3.2135    0.0000 H   0  0  0  0  0  0  0  0  0  0  0  0
   15.1934   -2.5739    0.0000 H   0  0  0  0  0  0  0  0  0  0  0  0
   12.3095   -3.9377    0.0000 H   0  0  0  0  0  0  0  0  0  0  0  0
   13.7163   -3.5088    0.0000 H   0  0  0  0  0  0  0  0  0  0  0  0
   11.2504   -4.2790    0.0000 H   0  0  0  0  0  0  0  0  0  0  0  0
   18.3887    0.2807    0.0000 H   0  0  0  0  0  0  0  0  0  0  0  0
   18.2257    2.0576    0.0000 H   0  0  0  0  0  0  0  0  0  0  0  0
   16.8270    2.5327    0.0000 H   0  0  0  0  0  0  0  0  0  0  0  0
   18.7854    1.0721    0.0000 H   0  0  0  0  0  0  0  0  0  0  0  0
   17.6357   -1.9804    0.0000 H   0  0  0  0  0  0  0  0  0  0  0  0
   20.3106   -4.1078    0.0000 H   0  0  0  0  0  0  0  0  0  0  0  0
   20.9640   -2.4472    0.0000 H   0  0  0  0  0  0  0  0  0  0  0  0
   19.0206   -5.3866    0.0000 H   0  0  0  0  0  0  0  0  0  0  0  0
   17.2200   -4.6963    0.0000 H   0  0  0  0  0  0  0  0  0  0  0  0
   17.4521   -2.9270    0.0000 H   0  0  0  0  0  0  0  0  0  0  0  0
   21.0900   -3.8036    0.0000 H   0  0  0  0  0  0  0  0  0  0  0  0
   22.4446   -0.6946    0.0000 H   0  0  0  0  0  0  0  0  0  0  0  0
   25.0834   -0.1409    0.0000 H   0  0  0  0  0  0  0  0  0  0  0  0
   23.3007   -0.2196    0.0000 H   0  0  0  0  0  0  0  0  0  0  0  0
   26.4758   -3.3222    0.0000 H   0  0  0  0  0  0  0  0  0  0  0  0
   25.1947   -3.6186    0.0000 H   0  0  0  0  0  0  0  0  0  0  0  0
   27.8265   -0.2966    0.0000 H   0  0  0  0  0  0  0  0  0  0  0  0
   26.0475   -0.1573    0.0000 H   0  0  0  0  0  0  0  0  0  0  0  0
   28.4671   -3.6625    0.0000 H   0  0  0  0  0  0  0  0  0  0  0  0
   32.0383   -1.5175    0.0000 H   0  0  0  0  0  0  0  0  0  0  0  0
   30.5362   -3.7445    0.0000 H   0  0  0  0  0  0  0  0  0  0  0  0
   30.7777    0.7543    0.0000 H   0  0  0  0  0  0  0  0  0  0  0  0
   28.1800    0.7985    0.0000 H   0  0  0  0  0  0  0  0  0  0  0  0
   26.2194   -1.8136    0.0000 H   0  0  0  0  0  0  0  0  0  0  0  0
   24.9135   -4.7705    0.0000 H   0  0  0  0  0  0  0  0  0  0  0  0
   27.5884   -6.8978    0.0000 H   0  0  0  0  0  0  0  0  0  0  0  0
   28.2417   -5.2372    0.0000 H   0  0  0  0  0  0  0  0  0  0  0  0
   24.4978   -7.4863    0.0000 H   0  0  0  0  0  0  0  0  0  0  0  0
   24.7299   -5.7170    0.0000 H   0  0  0  0  0  0  0  0  0  0  0  0
   28.3677   -6.5936    0.0000 H   0  0  0  0  0  0  0  0  0  0  0  0
   29.7224   -3.4846    0.0000 H   0  0  0  0  0  0  0  0  0  0  0  0
   32.5066   -3.0424    0.0000 H   0  0  0  0  0  0  0  0  0  0  0  0
   30.3246   -3.2727    0.0000 H   0  0  0  0  0  0  0  0  0  0  0  0
   34.1207   -4.2191    0.0000 H   0  0  0  0  0  0  0  0  0  0  0  0
   33.7536   -6.1122    0.0000 H   0  0  0  0  0  0  0  0  0  0  0  0
   32.2968   -6.3567    0.0000 H   0  0  0  0  0  0  0  0  0  0  0  0
  1  2  1  0
  2  3  1  0
  3  4  2  0
  4  5  1  0
  5  6  2  0
  6  7  1  0
  7  8  2  0
  7  9  1  0
  9 10  1  0
 10 11  1  0
 11 12  2  0
  9 13  1  0
 13 14  1  0
 14 15  2  0
 15 16  1  0
 16 17  2  0
 17 18  1  0
 16 19  1  0
 14 20  1  0
 20 21  1  0
 21 22  2  0
 22 23  1  0
 23 24  2  0
 24 25  1  0
 25 26  2  0
 25 27  1  0
  1 28  2  0
  1 29  1  0
 29 30  1  0
 30 31  1  0
 31 32  1  0
 32 33  2  0
 32 34  1  0
 34 35  1  0
 35 36  1  0
 36 37  1  0
 36 38  1  0
 35 39  1  0
 39 40  2  0
 39 41  1  0
 41 42  1  0
 42 43  1  0
 43 44  1  0
 44 45  2  0
 45 46  1  0
 46 47  2  0
 47 48  1  0
 47 49  1  0
 49 50  2  0
 42 51  1  0
 51 52  2  0
 51 53  1  0
 53 54  1  0
 54 55  1  0
 55 56  1  0
 56 57  1  0
 57 58  1  0
 58 59  1  0
 59 60  2  3
 59 61  1  0
 54 62  1  0
 62 63  2  0
 62 64  1  0
 64 65  1  0
 65 66  1  0
 66 67  2  0
 66 68  1  0
 68 69  1  0
 69 70  1  0
 69 71  1  0
 71 72  2  0
 71 73  1  0
 73 74  1  0
 74 75  1  0
 74 76  1  0
 76 77  2  0
 76 78  1  0
 78 79  1  0
 79 80  1  0
 80 81  1  0
 81 82  1  0
 82 83  1  0
 82 84  2  0
 79 85  1  0
 85 86  2  0
 85 87  1  0
 88 87  1  6
 88 89  1  0
 89 90  1  0
 90 91  1  0
 91 92  1  0
 88 93  1  0
 88 94  1  0
 94 95  2  0
 94 96  1  0
 96 97  1  0
 97 98  1  0
 97 99  1  0
 99100  2  0
 99101  1  0
101102  1  0
102103  1  0
102104  1  0
104105  2  0
104106  1  0
106107  1  0
107108  1  0
108109  1  0
109110  1  0
110111  1  0
110112  2  0
107113  1  0
113114  2  0
113115  1  0
115116  1  0
116117  1  0
117118  1  0
118119  1  0
119120  1  0
116121  1  0
116122  1  6
122123  2  0
122124  1  0
124125  1  0
125126  1  0
126127  1  0
125128  1  0
128129  2  0
128130  1  0
130131  1  0
131132  1  0
132133  1  0
133134  1  0
134135  1  0
135136  1  0
136137  2  3
136138  1  0
131139  1  0
139140  2  0
139141  1  0
141142  1  0
142143  1  0
143144  1  0
144145  1  0
145146  2  0
145147  1  0
142148  1  0
148149  2  0
148150  1  0
150151  1  0
151152  1  0
152153  1  0
151154  1  0
154155  2  0
154156  1  0
  8  3  1  0
 50 44  1  0
 11  6  1  0
 92120  2  0
 18 13  2  0
 22  9  1  0
 26 21  1  0
  2157  1  0
  4158  1  0
  5159  1  0
  8160  1  0
 15161  1  0
 17162  1  0
 18163  1  0
 19164  1  0
 23165  1  0
 24166  1  0
 26167  1  0
 27168  1  0
 29169  1  0
 30170  1  0
 30171  1  0
 31172  1  0
 31173  1  0
 34174  1  0
 35175  1  1
 36176  1  1
 37177  1  0
 38178  1  0
 38179  1  0
 38180  1  0
 41181  1  0
 42182  1  6
 43183  1  0
 43184  1  0
 45185  1  0
 46186  1  0
 48187  1  0
 49188  1  0
 50189  1  0
 53190  1  0
 54191  1  1
 55192  1  0
 55193  1  0
 56194  1  0
 56195  1  0
 57196  1  0
 57197  1  0
 58198  1  0
 60199  1  0
 60200  1  0
 61201  1  0
 61202  1  0
 64203  1  0
 65204  1  0
 65205  1  0
 68206  1  0
 69207  1  1
 70208  1  0
 70209  1  0
 70210  1  0
 73211  1  0
 74212  1  6
 75213  1  0
 75214  1  0
 75215  1  0
 78216  1  0
 79217  1  1
 80218  1  0
 80219  1  0
 81220  1  0
 81221  1  0
 83222  1  0
 83223  1  0
 87224  1  0
 89225  1  0
 89226  1  0
 90227  1  0
 90228  1  0
 91229  1  0
 91230  1  0
 92231  1  0
 93232  1  0
 93233  1  0
 93234  1  0
 96235  1  0
 97236  1  1
 98237  1  0
 98238  1  0
 98239  1  0
101240  1  0
102241  1  1
103242  1  0
103243  1  0
103244  1  0
106245  1  0
107246  1  1
108247  1  0
108248  1  0
109249  1  0
109250  1  0
111251  1  0
111252  1  0
115253  1  0
117254  1  0
117255  1  0
118256  1  0
118257  1  0
119258  1  0
119259  1  0
120260  1  0
121261  1  0
121262  1  0
121263  1  0
124264  1  0
125265  1  6
126266  1  0
126267  1  0
127268  1  0
127269  1  0
127270  1  0
130271  1  0
131272  1  1
132273  1  0
132274  1  0
133275  1  0
133276  1  0
134277  1  0
134278  1  0
135279  1  0
137280  1  0
137281  1  0
138282  1  0
138283  1  0
141284  1  0
142285  1  6
143286  1  0
143287  1  0
144288  1  0
144289  1  0
150290  1  0
151291  1  1
152292  1  0
152293  1  0
153294  1  0
153295  1  0
153296  1  0
M  CHG  4  60   1 137   1 147  -1 156  -1
M  END
