
     RDKit          2D

271274  0  0  0  0  0  0  0  0999 V2000
   17.9271   10.3724    0.0000 N   0  0  0  0  0  0  0  0  0  0  0  0
   16.6158    9.6440    0.0000 C   0  0  0  0  0  0  0  0  0  0  0  0
   16.5909    8.1442    0.0000 C   0  0  0  0  0  0  0  0  0  0  0  0
   15.2797    7.4159    0.0000 C   0  0  0  0  0  0  0  0  0  0  0  0
   14.0969    8.3383    0.0000 O   0  0  0  0  0  0  0  0  0  0  0  0
   15.2548    5.9161    0.0000 N   0  0  0  0  0  0  0  0  0  0  0  0
   13.9436    5.1877    0.0000 C   0  0  0  0  0  0  0  0  0  0  0  0
   13.4539    6.6055    0.0000 C   0  0  0  0  0  0  0  0  0  0  0  0
   11.9812    6.8904    0.0000 C   0  0  0  0  0  0  0  0  0  0  0  0
   11.4916    8.3082    0.0000 C   0  0  0  0  0  0  0  0  0  0  0  0
   10.0189    8.5931    0.0000 C   0  0  0  0  0  0  0  0  0  0  0  0
    9.5293   10.0110    0.0000 N   0  0  0  0  0  0  0  0  0  0  0  0
   12.9605    4.0547    0.0000 C   0  0  0  0  0  0  0  0  0  0  0  0
   11.5335    4.5170    0.0000 O   0  0  0  0  0  0  0  0  0  0  0  0
   13.4501    2.6369    0.0000 N   0  0  0  0  0  0  0  0  0  0  0  0
   12.4670    1.5039    0.0000 C   0  0  0  0  0  0  0  0  0  0  0  0
   11.5220    2.6688    0.0000 C   0  0  0  0  0  0  0  0  0  0  0  0
   10.0407    2.4328    0.0000 C   0  0  0  0  0  0  0  0  0  0  0  0
    9.0957    3.5977    0.0000 C   0  0  0  0  0  0  0  0  0  0  0  0
    7.6144    3.3617    0.0000 N   0  0  0  0  0  0  0  0  0  0  0  0
    9.6320    4.9985    0.0000 O   0  0  0  0  0  0  0  0  0  0  0  0
   11.9308    0.1031    0.0000 C   0  0  0  0  0  0  0  0  0  0  0  0
   10.4494   -0.1329    0.0000 O   0  0  0  0  0  0  0  0  0  0  0  0
   12.8758   -1.0618    0.0000 N   0  0  0  0  0  0  0  0  0  0  0  0
   12.3395   -2.4626    0.0000 C   0  0  0  0  0  0  0  0  0  0  0  0
   13.8122   -2.7475    0.0000 C   0  0  0  0  0  0  0  0  0  0  0  0
   14.7953   -1.6146    0.0000 C   0  0  0  0  0  0  0  0  0  0  0  0
   16.2680   -1.8995    0.0000 C   0  0  0  0  0  0  0  0  0  0  0  0
   17.2510   -0.7665    0.0000 C   0  0  0  0  0  0  0  0  0  0  0  0
   18.7237   -1.0514    0.0000 N   0  0  0  0  0  0  0  0  0  0  0  0
   11.3564   -3.5956    0.0000 C   0  0  0  0  0  0  0  0  0  0  0  0
   11.7912   -4.2637    0.0000 O   0  0  0  0  0  0  0  0  0  0  0  0
    9.8837   -3.3107    0.0000 N   0  0  0  0  0  0  0  0  0  0  0  0
    8.9006   -4.4436    0.0000 C   0  0  0  0  0  0  0  0  0  0  0  0
   10.1871   -5.2150    0.0000 C   0  0  0  0  0  0  0  0  0  0  0  0
   11.4984   -4.4867    0.0000 C   0  0  0  0  0  0  0  0  0  0  0  0
   12.7848   -5.2581    0.0000 C   0  0  0  0  0  0  0  0  0  0  0  0
   14.0961   -4.5297    0.0000 N   0  0  0  0  0  0  0  0  0  0  0  0
   15.3825   -5.3011    0.0000 C   0  0  0  0  0  0  0  0  0  0  0  0
   16.6938   -4.5727    0.0000 N   0  0  0  0  0  0  0  0  0  0  0  0
   15.3577   -6.8009    0.0000 N   0  0  0  0  0  0  0  0  0  0  0  0
    7.5894   -5.1720    0.0000 C   0  0  0  0  0  0  0  0  0  0  0  0
    8.1038   -6.5811    0.0000 O   0  0  0  0  0  0  0  0  0  0  0  0
    6.3029   -4.4006    0.0000 N   0  0  0  0  0  0  0  0  0  0  0  0
    4.9916   -5.1290    0.0000 C   0  0  0  0  0  0  0  0  0  0  0  0
    5.9367   -6.2939    0.0000 C   0  0  0  0  0  0  0  0  0  0  0  0
    7.4180   -6.0579    0.0000 C   0  0  0  0  0  0  0  0  0  0  0  0
    8.3630   -7.2228    0.0000 C   0  0  0  0  0  0  0  0  0  0  0  0
    9.8443   -6.9868    0.0000 C   0  0  0  0  0  0  0  0  0  0  0  0
   10.7894   -8.1517    0.0000 N   0  0  0  0  0  0  0  0  0  0  0  0
    3.5103   -5.3650    0.0000 C   0  0  0  0  0  0  0  0  0  0  0  0
    3.3289   -6.8540    0.0000 O   0  0  0  0  0  0  0  0  0  0  0  0
    2.5653   -4.2001    0.0000 N   0  0  0  0  0  0  0  0  0  0  0  0
    1.0840   -4.4361    0.0000 C   0  0  0  0  0  0  0  0  0  0  0  0
    1.5736   -5.8540    0.0000 C   0  0  0  0  0  0  0  0  0  0  0  0
    3.0463   -6.1388    0.0000 C   0  0  0  0  0  0  0  0  0  0  0  0
    3.5359   -7.5567    0.0000 C   0  0  0  0  0  0  0  0  0  0  0  0
    2.5529   -8.6896    0.0000 F   0  0  0  0  0  0  0  0  0  0  0  0
    5.0086   -7.8416    0.0000 C   0  0  0  0  0  0  0  0  0  0  0  0
    5.4983   -9.2594    0.0000 F   0  0  0  0  0  0  0  0  0  0  0  0
    5.9917   -6.7086    0.0000 C   0  0  0  0  0  0  0  0  0  0  0  0
    7.4187   -7.1709    0.0000 F   0  0  0  0  0  0  0  0  0  0  0  0
    5.5021   -5.2908    0.0000 C   0  0  0  0  0  0  0  0  0  0  0  0
    6.6159   -4.2861    0.0000 F   0  0  0  0  0  0  0  0  0  0  0  0
    4.0294   -5.0059    0.0000 C   0  0  0  0  0  0  0  0  0  0  0  0
    3.7162   -3.5390    0.0000 F   0  0  0  0  0  0  0  0  0  0  0  0
   -0.3887   -4.1512    0.0000 C   0  0  0  0  0  0  0  0  0  0  0  0
   -1.2264   -5.3956    0.0000 O   0  0  0  0  0  0  0  0  0  0  0  0
   -0.8783   -2.7334    0.0000 N   0  0  0  0  0  0  0  0  0  0  0  0
   -2.3510   -2.4485    0.0000 C   0  0  0  0  0  0  0  0  0  0  0  0
   -2.3759   -3.9483    0.0000 C   0  0  0  0  0  0  0  0  0  0  0  0
   -1.1931   -4.8708    0.0000 O   0  0  0  0  0  0  0  0  0  0  0  0
   -3.6375   -1.6771    0.0000 C   0  0  0  0  0  0  0  0  0  0  0  0
   -4.6005   -2.8271    0.0000 O   0  0  0  0  0  0  0  0  0  0  0  0
   -3.6127   -0.1773    0.0000 N   0  0  0  0  0  0  0  0  0  0  0  0
   -4.8991    0.5941    0.0000 C   0  0  0  0  0  0  0  0  0  0  0  0
   -5.0731   -0.8958    0.0000 C   0  0  0  0  0  0  0  0  0  0  0  0
   -5.6786   -2.2681    0.0000 C   0  0  0  0  0  0  0  0  0  0  0  0
   -6.6617   -3.4011    0.0000 C   0  0  0  0  0  0  0  0  0  0  0  0
   -7.9350   -4.1939    0.0000 C   0  0  0  0  0  0  0  0  0  0  0  0
   -3.6669    1.4494    0.0000 C   0  0  0  0  0  0  0  0  0  0  0  0
   -5.1719    2.0691    0.0000 C   0  0  0  0  0  0  0  0  0  0  0  0
   -3.7541    2.5587    0.0000 O   0  0  0  0  0  0  0  0  0  0  0  0
   -5.8674    3.3981    0.0000 N   0  0  0  0  0  0  0  0  0  0  0  0
   -6.9237    4.4631    0.0000 C   0  0  0  0  0  0  0  0  0  0  0  0
   -6.8242    5.9598    0.0000 C   0  0  0  0  0  0  0  0  0  0  0  0
   -5.4782    6.6219    0.0000 C   0  0  0  0  0  0  0  0  0  0  0  0
   -4.2318    5.7873    0.0000 C   0  0  0  0  0  0  0  0  0  0  0  0
   -2.8859    6.4495    0.0000 C   0  0  0  0  0  0  0  0  0  0  0  0
   -2.7863    7.9462    0.0000 C   0  0  0  0  0  0  0  0  0  0  0  0
   -4.0327    8.7807    0.0000 C   0  0  0  0  0  0  0  0  0  0  0  0
   -5.3787    8.1186    0.0000 C   0  0  0  0  0  0  0  0  0  0  0  0
   -8.2470    5.1694    0.0000 C   0  0  0  0  0  0  0  0  0  0  0  0
   -7.7458    6.5832    0.0000 O   0  0  0  0  0  0  0  0  0  0  0  0
   -9.7197    5.4543    0.0000 N   0  0  0  0  0  0  0  0  0  0  0  0
  -11.2110    5.2925    0.0000 C   0  0  0  0  0  0  0  0  0  0  0  0
  -12.3190    6.3035    0.0000 C   0  0  0  0  0  0  0  0  0  0  0  0
  -11.9975    7.7686    0.0000 C   0  0  0  0  0  0  0  0  0  0  0  0
  -10.5679    8.2227    0.0000 C   0  0  0  0  0  0  0  0  0  0  0  0
  -10.2464    9.6879    0.0000 C   0  0  0  0  0  0  0  0  0  0  0  0
  -11.3545   10.6989    0.0000 C   0  0  0  0  0  0  0  0  0  0  0  0
  -12.7841   10.2447    0.0000 C   0  0  0  0  0  0  0  0  0  0  0  0
  -13.1056    8.7796    0.0000 C   0  0  0  0  0  0  0  0  0  0  0  0
  -12.5882    4.6982    0.0000 C   0  0  0  0  0  0  0  0  0  0  0  0
  -13.3811    5.9716    0.0000 O   0  0  0  0  0  0  0  0  0  0  0  0
  -13.7292    3.7245    0.0000 N   0  0  0  0  0  0  0  0  0  0  0  0
  -14.5324    2.4577    0.0000 C   0  0  0  0  0  0  0  0  0  0  0  0
  -16.0138    2.2217    0.0000 C   0  0  0  0  0  0  0  0  0  0  0  0
  -16.9588    3.3865    0.0000 C   0  0  0  0  0  0  0  0  0  0  0  0
  -18.4401    3.1506    0.0000 C   0  0  0  0  0  0  0  0  0  0  0  0
  -19.3851    4.3154    0.0000 C   0  0  0  0  0  0  0  0  0  0  0  0
  -20.8664    4.0794    0.0000 N   0  0  0  0  0  0  0  0  0  0  0  0
  -14.9266    1.0104    0.0000 C   0  0  0  0  0  0  0  0  0  0  0  0
  -16.4164    1.1844    0.0000 O   0  0  0  0  0  0  0  0  0  0  0  0
  -14.8766   -0.4888    0.0000 N   0  0  0  0  0  0  0  0  0  0  0  0
  -14.3870   -1.9066    0.0000 C   0  0  0  0  0  0  0  0  0  0  0  0
  -13.5012   -3.1172    0.0000 C   0  0  0  0  0  0  0  0  0  0  0  0
  -12.2980   -4.0128    0.0000 C   0  0  0  0  0  0  0  0  0  0  0  0
  -10.8842   -4.5140    0.0000 C   0  0  0  0  0  0  0  0  0  0  0  0
   -9.3855   -4.5762    0.0000 C   0  0  0  0  0  0  0  0  0  0  0  0
  -15.8807   -1.7698    0.0000 C   0  0  0  0  0  0  0  0  0  0  0  0
  -15.1261   -3.2119    0.0000 C   0  0  0  0  0  0  0  0  0  0  0  0
  -14.7006   -4.6503    0.0000 O   0  0  0  0  0  0  0  0  0  0  0  0
  -16.6260   -3.2245    0.0000 N   0  0  0  0  0  0  0  0  0  0  0  0
  -17.3651   -4.5298    0.0000 C   0  0  0  0  0  0  0  0  0  0  0  0
  -17.6132   -6.0091    0.0000 C   0  0  0  0  0  0  0  0  0  0  0  0
  -19.0184   -6.5339    0.0000 C   0  0  0  0  0  0  0  0  0  0  0  0
  -19.2665   -8.0133    0.0000 C   0  0  0  0  0  0  0  0  0  0  0  0
  -20.5183   -6.5465    0.0000 C   0  0  0  0  0  0  0  0  0  0  0  0
  -18.8651   -4.5423    0.0000 C   0  0  0  0  0  0  0  0  0  0  0  0
  -19.7578   -5.7478    0.0000 O   0  0  0  0  0  0  0  0  0  0  0  0
  -19.6259   -3.2496    0.0000 O   0  0  0  0  0  0  0  0  0  0  0  0
   17.9519   11.8722    0.0000 H   0  0  0  0  0  0  0  0  0  0  0  0
   19.2135    9.6010    0.0000 H   0  0  0  0  0  0  0  0  0  0  0  0
   16.1262   11.0619    0.0000 H   0  0  0  0  0  0  0  0  0  0  0  0
   15.1345    9.4081    0.0000 H   0  0  0  0  0  0  0  0  0  0  0  0
   18.0723    8.3802    0.0000 H   0  0  0  0  0  0  0  0  0  0  0  0
   17.0806    6.7264    0.0000 H   0  0  0  0  0  0  0  0  0  0  0  0
   16.5413    5.1447    0.0000 H   0  0  0  0  0  0  0  0  0  0  0  0
   14.8886    4.0228    0.0000 H   0  0  0  0  0  0  0  0  0  0  0  0
   13.4788    8.1053    0.0000 H   0  0  0  0  0  0  0  0  0  0  0  0
   14.8341    7.1929    0.0000 H   0  0  0  0  0  0  0  0  0  0  0  0
   10.5397    6.4756    0.0000 H   0  0  0  0  0  0  0  0  0  0  0  0
   11.9564    5.3906    0.0000 H   0  0  0  0  0  0  0  0  0  0  0  0
   11.6991    9.7938    0.0000 H   0  0  0  0  0  0  0  0  0  0  0  0
   12.9331    8.7230    0.0000 H   0  0  0  0  0  0  0  0  0  0  0  0
    8.5376    8.3571    0.0000 H   0  0  0  0  0  0  0  0  0  0  0  0
    9.8115    7.1075    0.0000 H   0  0  0  0  0  0  0  0  0  0  0  0
    8.0566   10.2959    0.0000 H   0  0  0  0  0  0  0  0  0  0  0  0
    9.5541   11.5108    0.0000 H   0  0  0  0  0  0  0  0  0  0  0  0
   10.9708   10.4258    0.0000 H   0  0  0  0  0  0  0  0  0  0  0  0
   14.9228    2.3520    0.0000 H   0  0  0  0  0  0  0  0  0  0  0  0
   13.7535    0.7325    0.0000 H   0  0  0  0  0  0  0  0  0  0  0  0
   10.8632    4.0164    0.0000 H   0  0  0  0  0  0  0  0  0  0  0  0
   12.6181    3.6928    0.0000 H   0  0  0  0  0  0  0  0  0  0  0  0
    8.7294    1.7044    0.0000 H   0  0  0  0  0  0  0  0  0  0  0  0
   10.5303    1.0150    0.0000 H   0  0  0  0  0  0  0  0  0  0  0  0
    6.6693    4.5266    0.0000 H   0  0  0  0  0  0  0  0  0  0  0  0
    7.0781    1.9609    0.0000 H   0  0  0  0  0  0  0  0  0  0  0  0
   14.3173   -0.6470    0.0000 H   0  0  0  0  0  0  0  0  0  0  0  0
   11.0530   -1.6912    0.0000 H   0  0  0  0  0  0  0  0  0  0  0  0
   14.9950   -3.6700    0.0000 H   0  0  0  0  0  0  0  0  0  0  0  0
   13.6308   -4.2365    0.0000 H   0  0  0  0  0  0  0  0  0  0  0  0
   15.1568   -0.1588    0.0000 H   0  0  0  0  0  0  0  0  0  0  0  0
   13.8708   -0.4333    0.0000 H   0  0  0  0  0  0  0  0  0  0  0  0
   17.4508   -2.8219    0.0000 H   0  0  0  0  0  0  0  0  0  0  0  0
   15.9064   -3.3553    0.0000 H   0  0  0  0  0  0  0  0  0  0  0  0
   17.7873    0.6343    0.0000 H   0  0  0  0  0  0  0  0  0  0  0  0
   16.0682    0.1559    0.0000 H   0  0  0  0  0  0  0  0  0  0  0  0
   19.7068    0.0815    0.0000 H   0  0  0  0  0  0  0  0  0  0  0  0
   20.0102   -1.8228    0.0000 H   0  0  0  0  0  0  0  0  0  0  0  0
   18.3622   -2.5072    0.0000 H   0  0  0  0  0  0  0  0  0  0  0  0
    9.3941   -1.8929    0.0000 H   0  0  0  0  0  0  0  0  0  0  0  0
    7.9556   -3.2788    0.0000 H   0  0  0  0  0  0  0  0  0  0  0  0
   11.1321   -6.3799    0.0000 H   0  0  0  0  0  0  0  0  0  0  0  0
    9.0732   -6.2197    0.0000 H   0  0  0  0  0  0  0  0  0  0  0  0
   12.4814   -3.3537    0.0000 H   0  0  0  0  0  0  0  0  0  0  0  0
   10.8633   -3.1277    0.0000 H   0  0  0  0  0  0  0  0  0  0  0  0
   13.7298   -6.4229    0.0000 H   0  0  0  0  0  0  0  0  0  0  0  0
   12.1051   -6.5952    0.0000 H   0  0  0  0  0  0  0  0  0  0  0  0
   14.4831   -3.0804    0.0000 H   0  0  0  0  0  0  0  0  0  0  0  0
   17.9803   -5.3441    0.0000 H   0  0  0  0  0  0  0  0  0  0  0  0
   16.7186   -3.0729    0.0000 H   0  0  0  0  0  0  0  0  0  0  0  0
   16.6441   -7.5723    0.0000 H   0  0  0  0  0  0  0  0  0  0  0  0
   14.0464   -7.5293    0.0000 H   0  0  0  0  0  0  0  0  0  0  0  0
    6.3278   -2.9008    0.0000 H   0  0  0  0  0  0  0  0  0  0  0  0
    4.5020   -3.7112    0.0000 H   0  0  0  0  0  0  0  0  0  0  0  0
    6.2498   -7.7608    0.0000 H   0  0  0  0  0  0  0  0  0  0  0  0
    4.6254   -7.0223    0.0000 H   0  0  0  0  0  0  0  0  0  0  0  0
    8.6307   -5.1751    0.0000 H   0  0  0  0  0  0  0  0  0  0  0  0
    7.4691   -4.5588    0.0000 H   0  0  0  0  0  0  0  0  0  0  0  0
    8.6762   -8.6897    0.0000 H   0  0  0  0  0  0  0  0  0  0  0  0
    7.1503   -8.1056    0.0000 H   0  0  0  0  0  0  0  0  0  0  0  0
   11.2929   -6.5974    0.0000 H   0  0  0  0  0  0  0  0  0  0  0  0
    9.3547   -5.5690    0.0000 H   0  0  0  0  0  0  0  0  0  0  0  0
   12.2707   -7.9157    0.0000 H   0  0  0  0  0  0  0  0  0  0  0  0
   11.2790   -9.5695    0.0000 H   0  0  0  0  0  0  0  0  0  0  0  0
    9.5767   -9.0345    0.0000 H   0  0  0  0  0  0  0  0  0  0  0  0
    2.9268   -2.7444    0.0000 H   0  0  0  0  0  0  0  0  0  0  0  0
    1.1088   -2.9363    0.0000 H   0  0  0  0  0  0  0  0  0  0  0  0
    1.5488   -7.3538    0.0000 H   0  0  0  0  0  0  0  0  0  0  0  0
    0.0923   -6.0899    0.0000 H   0  0  0  0  0  0  0  0  0  0  0  0
    0.1047   -1.6004    0.0000 H   0  0  0  0  0  0  0  0  0  0  0  0
   -1.8147   -1.0476    0.0000 H   0  0  0  0  0  0  0  0  0  0  0  0
   -2.9122   -5.3491    0.0000 H   0  0  0  0  0  0  0  0  0  0  0  0
   -3.8486   -3.6634    0.0000 H   0  0  0  0  0  0  0  0  0  0  0  0
   -1.1143   -6.2195    0.0000 H   0  0  0  0  0  0  0  0  0  0  0  0
   -2.2224    0.3858    0.0000 H   0  0  0  0  0  0  0  0  0  0  0  0
   -3.5761   -0.8011    0.0000 H   0  0  0  0  0  0  0  0  0  0  0  0
   -4.2148   -2.1259    0.0000 H   0  0  0  0  0  0  0  0  0  0  0  0
   -4.3484   -2.9614    0.0000 H   0  0  0  0  0  0  0  0  0  0  0  0
   -4.8889   -3.5434    0.0000 H   0  0  0  0  0  0  0  0  0  0  0  0
   -5.2878   -4.0032    0.0000 H   0  0  0  0  0  0  0  0  0  0  0  0
   -6.4627   -4.8878    0.0000 H   0  0  0  0  0  0  0  0  0  0  0  0
   -7.3408   -5.5712    0.0000 H   0  0  0  0  0  0  0  0  0  0  0  0
   -2.2422    0.9801    0.0000 H   0  0  0  0  0  0  0  0  0  0  0  0
   -2.8015    2.6746    0.0000 H   0  0  0  0  0  0  0  0  0  0  0  0
   -4.4341    2.7384    0.0000 H   0  0  0  0  0  0  0  0  0  0  0  0
   -4.5579    4.1297    0.0000 H   0  0  0  0  0  0  0  0  0  0  0  0
   -5.5185    4.9879    0.0000 H   0  0  0  0  0  0  0  0  0  0  0  0
   -7.2425    7.4003    0.0000 H   0  0  0  0  0  0  0  0  0  0  0  0
   -8.3103    6.1636    0.0000 H   0  0  0  0  0  0  0  0  0  0  0  0
   -4.1482    4.2897    0.0000 H   0  0  0  0  0  0  0  0  0  0  0  0
   -1.6395    5.6149    0.0000 H   0  0  0  0  0  0  0  0  0  0  0  0
   -1.4404    8.6083    0.0000 H   0  0  0  0  0  0  0  0  0  0  0  0
   -3.9331   10.2774    0.0000 H   0  0  0  0  0  0  0  0  0  0  0  0
   -6.6250    8.9532    0.0000 H   0  0  0  0  0  0  0  0  0  0  0  0
   -9.4753    6.9343    0.0000 H   0  0  0  0  0  0  0  0  0  0  0  0
  -10.7452    6.7183    0.0000 H   0  0  0  0  0  0  0  0  0  0  0  0
  -13.7061    6.8745    0.0000 H   0  0  0  0  0  0  0  0  0  0  0  0
  -13.4049    5.2687    0.0000 H   0  0  0  0  0  0  0  0  0  0  0  0
   -9.3449    7.3543    0.0000 H   0  0  0  0  0  0  0  0  0  0  0  0
   -8.8168   10.1420    0.0000 H   0  0  0  0  0  0  0  0  0  0  0  0
  -11.0330   12.1640    0.0000 H   0  0  0  0  0  0  0  0  0  0  0  0
  -13.8922   11.2558    0.0000 H   0  0  0  0  0  0  0  0  0  0  0  0
  -14.5352    8.3255    0.0000 H   0  0  0  0  0  0  0  0  0  0  0  0
  -14.8621    4.7075    0.0000 H   0  0  0  0  0  0  0  0  0  0  0  0
  -15.1979    3.8020    0.0000 H   0  0  0  0  0  0  0  0  0  0  0  0
  -17.2265    1.3389    0.0000 H   0  0  0  0  0  0  0  0  0  0  0  0
  -15.8818    0.7275    0.0000 H   0  0  0  0  0  0  0  0  0  0  0  0
  -17.2719    4.8535    0.0000 H   0  0  0  0  0  0  0  0  0  0  0  0
  -15.7461    4.2693    0.0000 H   0  0  0  0  0  0  0  0  0  0  0  0
  -19.6528    2.2678    0.0000 H   0  0  0  0  0  0  0  0  0  0  0  0
  -18.1270    1.6836    0.0000 H   0  0  0  0  0  0  0  0  0  0  0  0
  -19.8748    5.7333    0.0000 H   0  0  0  0  0  0  0  0  0  0  0  0
  -18.1724    5.1982    0.0000 H   0  0  0  0  0  0  0  0  0  0  0  0
  -21.8115    5.2443    0.0000 H   0  0  0  0  0  0  0  0  0  0  0  0
  -22.1777    3.3511    0.0000 H   0  0  0  0  0  0  0  0  0  0  0  0
  -20.5533    2.6125    0.0000 H   0  0  0  0  0  0  0  0  0  0  0  0
  -16.3516   -0.7616    0.0000 H   0  0  0  0  0  0  0  0  0  0  0  0
  -13.8227   -4.5823    0.0000 H   0  0  0  0  0  0  0  0  0  0  0  0
  -14.8504   -3.7726    0.0000 H   0  0  0  0  0  0  0  0  0  0  0  0
  -12.3565   -5.5117    0.0000 H   0  0  0  0  0  0  0  0  0  0  0  0
  -13.3940   -5.0369    0.0000 H   0  0  0  0  0  0  0  0  0  0  0  0
  -10.3245   -5.9057    0.0000 H   0  0  0  0  0  0  0  0  0  0  0  0
  -11.7828   -5.7151    0.0000 H   0  0  0  0  0  0  0  0  0  0  0  0
   -9.2236   -6.0675    0.0000 H   0  0  0  0  0  0  0  0  0  0  0  0
  -17.0169   -2.7492    0.0000 H   0  0  0  0  0  0  0  0  0  0  0  0
  -17.1495   -0.9697    0.0000 H   0  0  0  0  0  0  0  0  0  0  0  0
  -15.8485   -0.2701    0.0000 H   0  0  0  0  0  0  0  0  0  0  0  0
  -17.5388   -2.0342    0.0000 H   0  0  0  0  0  0  0  0  0  0  0  0
  -15.9513   -5.0310    0.0000 H   0  0  0  0  0  0  0  0  0  0  0  0
  -17.1626   -7.4398    0.0000 H   0  0  0  0  0  0  0  0  0  0  0  0
  -16.1133   -5.9965    0.0000 H   0  0  0  0  0  0  0  0  0  0  0  0
  -19.8018   -5.2548    0.0000 H   0  0  0  0  0  0  0  0  0  0  0  0
  -20.5972   -8.7055    0.0000 H   0  0  0  0  0  0  0  0  0  0  0  0
  -18.9936   -9.4882    0.0000 H   0  0  0  0  0  0  0  0  0  0  0  0
  -17.7762   -8.1836    0.0000 H   0  0  0  0  0  0  0  0  0  0  0  0
  -21.4110   -7.7519    0.0000 H   0  0  0  0  0  0  0  0  0  0  0  0
  -21.9321   -6.0453    0.0000 H   0  0  0  0  0  0  0  0  0  0  0  0
  -20.2703   -5.0671    0.0000 H   0  0  0  0  0  0  0  0  0  0  0  0
  1  2  1  0
  2  3  1  0
  3  4  1  0
  4  5  2  0
  4  6  1  0
  6  7  1  0
  7  8  1  0
  8  9  1  0
  9 10  1  0
 10 11  1  0
 11 12  1  0
  7 13  1  0
 13 14  2  0
 13 15  1  0
 15 16  1  0
 16 17  1  0
 17 18  1  0
 18 19  1  0
 19 20  1  0
 19 21  2  0
 16 22  1  0
 22 23  2  0
 22 24  1  0
 24 25  1  0
 25 26  1  0
 26 27  1  0
 27 28  1  0
 28 29  1  0
 29 30  1  0
 25 31  1  0
 31 32  2  0
 31 33  1  0
 33 34  1  0
 34 35  1  0
 35 36  1  0
 36 37  1  0
 37 38  1  0
 38 39  1  0
 39 40  2  3
 39 41  1  0
 34 42  1  0
 42 43  2  0
 42 44  1  0
 44 45  1  0
 45 46  1  0
 46 47  1  0
 47 48  1  0
 48 49  1  0
 49 50  1  0
 45 51  1  0
 51 52  2  0
 51 53  1  0
 53 54  1  0
 54 55  1  0
 55 56  1  0
 56 57  2  0
 57 58  1  0
 57 59  1  0
 59 60  1  0
 59 61  2  0
 61 62  1  0
 61 63  1  0
 63 64  1  0
 63 65  2  0
 65 66  1  0
 54 67  1  0
 67 68  2  0
 67 69  1  0
 69 70  1  0
 70 71  1  0
 71 72  1  0
 70 73  1  0
 73 74  2  0
 73 75  1  0
 76 75  1  1
 76 77  1  0
 77 78  1  0
 78 79  1  0
 79 80  1  0
 76 81  1  0
 76 82  1  0
 82 83  2  0
 82 84  1  0
 84 85  1  0
 85 86  1  0
 86 87  1  0
 87 88  2  0
 88 89  1  0
 89 90  2  0
 90 91  1  0
 91 92  2  0
 85 93  1  0
 93 94  2  0
 93 95  1  0
 95 96  1  0
 96 97  1  0
 97 98  1  0
 98 99  2  0
 99100  1  0
100101  2  0
101102  1  0
102103  2  0
 96104  1  0
104105  2  0
104106  1  0
106107  1  0
107108  1  0
108109  1  0
109110  1  0
110111  1  0
111112  1  0
107113  1  0
113114  2  0
113115  1  0
115116  1  0
116117  1  0
117118  1  0
118119  1  0
119120  1  0
116121  1  0
116122  1  1
122123  2  0
122124  1  0
124125  1  0
125126  1  0
126127  1  0
127128  1  0
127129  1  0
125130  1  0
130131  2  0
130132  1  0
 65 56  1  0
 92 87  1  0
103 98  1  0
 80120  2  0
  1133  1  0
  1134  1  0
  2135  1  0
  2136  1  0
  3137  1  0
  3138  1  0
  6139  1  0
  7140  1  6
  8141  1  0
  8142  1  0
  9143  1  0
  9144  1  0
 10145  1  0
 10146  1  0
 11147  1  0
 11148  1  0
 12149  1  0
 12150  1  0
 12151  1  0
 15152  1  0
 16153  1  6
 17154  1  0
 17155  1  0
 18156  1  0
 18157  1  0
 20158  1  0
 20159  1  0
 24160  1  0
 25161  1  1
 26162  1  0
 26163  1  0
 27164  1  0
 27165  1  0
 28166  1  0
 28167  1  0
 29168  1  0
 29169  1  0
 30170  1  0
 30171  1  0
 30172  1  0
 33173  1  0
 34174  1  1
 35175  1  0
 35176  1  0
 36177  1  0
 36178  1  0
 37179  1  0
 37180  1  0
 38181  1  0
 40182  1  0
 40183  1  0
 41184  1  0
 41185  1  0
 44186  1  0
 45187  1  1
 46188  1  0
 46189  1  0
 47190  1  0
 47191  1  0
 48192  1  0
 48193  1  0
 49194  1  0
 49195  1  0
 50196  1  0
 50197  1  0
 50198  1  0
 53199  1  0
 54200  1  6
 55201  1  0
 55202  1  0
 69203  1  0
 70204  1  1
 71205  1  0
 71206  1  0
 72207  1  0
 75208  1  0
 77209  1  0
 77210  1  0
 78211  1  0
 78212  1  0
 79213  1  0
 79214  1  0
 80215  1  0
 81216  1  0
 81217  1  0
 81218  1  0
 84219  1  0
 85220  1  6
 86221  1  0
 86222  1  0
 88223  1  0
 89224  1  0
 90225  1  0
 91226  1  0
 92227  1  0
 95228  1  0
 96229  1  6
 97230  1  0
 97231  1  0
 99232  1  0
100233  1  0
101234  1  0
102235  1  0
103236  1  0
106237  1  0
107238  1  6
108239  1  0
108240  1  0
109241  1  0
109242  1  0
110243  1  0
110244  1  0
111245  1  0
111246  1  0
112247  1  0
112248  1  0
112249  1  0
115250  1  0
117251  1  0
117252  1  0
118253  1  0
118254  1  0
119255  1  0
119256  1  0
120257  1  0
121258  1  0
121259  1  0
121260  1  0
124261  1  0
125262  1  1
126263  1  0
126264  1  0
127265  1  0
128266  1  0
128267  1  0
128268  1  0
129269  1  0
129270  1  0
129271  1  0
M  CHG  6  12   1  30   1  40   1  50   1 112   1 132  -1
M  END
