
     RDKit          2D

414420  0  0  0  0  0  0  0  0999 V2000
  -38.5881   -5.0163    0.0000 C   0  0  0  0  0  0  0  0  0  0  0  0
  -39.6000   -6.1236    0.0000 N   0  0  0  0  0  0  0  0  0  0  0  0
  -41.0649   -5.8009    0.0000 C   0  0  0  0  0  0  0  0  0  0  0  0
  -41.5178   -4.3709    0.0000 C   0  0  0  0  0  0  0  0  0  0  0  0
  -42.9827   -4.0482    0.0000 C   0  0  0  0  0  0  0  0  0  0  0  0
  -43.9946   -5.1555    0.0000 C   0  0  0  0  0  0  0  0  0  0  0  0
  -43.5416   -6.5855    0.0000 C   0  0  0  0  0  0  0  0  0  0  0  0
  -42.0767   -6.9082    0.0000 C   0  0  0  0  0  0  0  0  0  0  0  0
  -44.7616   -7.4582    0.0000 C   0  0  0  0  0  0  0  0  0  0  0  0
  -45.9686   -6.5676    0.0000 O   0  0  0  0  0  0  0  0  0  0  0  0
  -45.4946   -5.1444    0.0000 C   0  0  0  0  0  0  0  0  0  0  0  0
  -46.3673   -3.9244    0.0000 O   0  0  0  0  0  0  0  0  0  0  0  0
  -46.0662   -8.1986    0.0000 C   0  0  0  0  0  0  0  0  0  0  0  0
  -46.0772   -9.6985    0.0000 C   0  0  0  0  0  0  0  0  0  0  0  0
  -47.3818  -10.4389    0.0000 C   0  0  0  0  0  0  0  0  0  0  0  0
  -48.6752   -9.6794    0.0000 C   0  0  0  0  0  0  0  0  0  0  0  0
  -48.6642   -8.1794    0.0000 C   0  0  0  0  0  0  0  0  0  0  0  0
  -47.3596   -7.4390    0.0000 C   0  0  0  0  0  0  0  0  0  0  0  0
  -49.9798  -10.4198    0.0000 O   0  0  0  0  0  0  0  0  0  0  0  0
  -44.7838  -10.4581    0.0000 O   0  0  0  0  0  0  0  0  0  0  0  0
  -43.4792   -9.7177    0.0000 C   0  0  0  0  0  0  0  0  0  0  0  0
  -43.4682   -8.2177    0.0000 C   0  0  0  0  0  0  0  0  0  0  0  0
  -42.1688   -8.1773    0.0000 C   0  0  0  0  0  0  0  0  0  0  0  0
  -41.4789   -8.5824    0.0000 C   0  0  0  0  0  0  0  0  0  0  0  0
  -41.4848   -9.3824    0.0000 C   0  0  0  0  0  0  0  0  0  0  0  0
  -42.1806   -9.7773    0.0000 C   0  0  0  0  0  0  0  0  0  0  0  0
  -39.5878  -10.4964    0.0000 O   0  0  0  0  0  0  0  0  0  0  0  0
  -39.0411   -3.5863    0.0000 S   0  0  0  0  0  0  0  0  0  0  0  0
  -37.1232   -5.3390    0.0000 N   0  0  0  0  0  0  0  0  0  0  0  0
  -36.1113   -4.2317    0.0000 C   0  0  0  0  0  0  0  0  0  0  0  0
  -34.6464   -4.5544    0.0000 C   0  0  0  0  0  0  0  0  0  0  0  0
  -33.6345   -3.4471    0.0000 C   0  0  0  0  0  0  0  0  0  0  0  0
  -34.0875   -2.0171    0.0000 O   0  0  0  0  0  0  0  0  0  0  0  0
  -32.1697   -3.7698    0.0000 N   0  0  0  0  0  0  0  0  0  0  0  0
  -31.1578   -2.6625    0.0000 C   0  0  0  0  0  0  0  0  0  0  0  0
  -30.5856   -1.2759    0.0000 C   0  0  0  0  0  0  0  0  0  0  0  0
  -29.2684   -0.5583    0.0000 O   0  0  0  0  0  0  0  0  0  0  0  0
  -29.6929   -2.9852    0.0000 C   0  0  0  0  0  0  0  0  0  0  0  0
  -29.2399   -4.4152    0.0000 O   0  0  0  0  0  0  0  0  0  0  0  0
  -28.6810   -1.8779    0.0000 N   0  0  0  0  0  0  0  0  0  0  0  0
  -27.2161   -2.2006    0.0000 C   0  0  0  0  0  0  0  0  0  0  0  0
  -25.9499   -3.0048    0.0000 C   0  0  0  0  0  0  0  0  0  0  0  0
  -24.5353   -3.5037    0.0000 O   0  0  0  0  0  0  0  0  0  0  0  0
  -26.0133   -4.5035    0.0000 C   0  0  0  0  0  0  0  0  0  0  0  0
  -26.2042   -1.0933    0.0000 C   0  0  0  0  0  0  0  0  0  0  0  0
  -26.6572    0.3367    0.0000 O   0  0  0  0  0  0  0  0  0  0  0  0
  -24.7393   -1.4160    0.0000 N   0  0  0  0  0  0  0  0  0  0  0  0
  -23.7274   -0.3087    0.0000 C   0  0  0  0  0  0  0  0  0  0  0  0
  -23.1553    1.0779    0.0000 C   0  0  0  0  0  0  0  0  0  0  0  0
  -22.2626   -0.6314    0.0000 C   0  0  0  0  0  0  0  0  0  0  0  0
  -21.8096   -2.0614    0.0000 O   0  0  0  0  0  0  0  0  0  0  0  0
  -21.2507    0.4759    0.0000 N   0  0  0  0  0  0  0  0  0  0  0  0
  -19.7858    0.1532    0.0000 C   0  0  0  0  0  0  0  0  0  0  0  0
  -18.5196   -0.6511    0.0000 C   0  0  0  0  0  0  0  0  0  0  0  0
  -18.5830   -2.1497    0.0000 C   0  0  0  0  0  0  0  0  0  0  0  0
  -17.3168   -2.9540    0.0000 C   0  0  0  0  0  0  0  0  0  0  0  0
  -19.1552   -3.5363    0.0000 C   0  0  0  0  0  0  0  0  0  0  0  0
  -18.7739    1.2605    0.0000 C   0  0  0  0  0  0  0  0  0  0  0  0
  -19.2269    2.6904    0.0000 O   0  0  0  0  0  0  0  0  0  0  0  0
  -17.3090    0.9378    0.0000 N   0  0  0  0  0  0  0  0  0  0  0  0
  -16.2971    2.0451    0.0000 C   0  0  0  0  0  0  0  0  0  0  0  0
  -15.7250    3.4317    0.0000 C   0  0  0  0  0  0  0  0  0  0  0  0
  -14.2381    3.6295    0.0000 C   0  0  0  0  0  0  0  0  0  0  0  0
  -13.6659    5.0160    0.0000 C   0  0  0  0  0  0  0  0  0  0  0  0
  -12.1790    5.2138    0.0000 N   0  0  0  0  0  0  0  0  0  0  0  0
  -11.6068    6.6004    0.0000 C   0  0  0  0  0  0  0  0  0  0  0  0
  -10.1199    6.7982    0.0000 N   0  0  0  0  0  0  0  0  0  0  0  0
  -12.2067    7.9752    0.0000 N   0  0  0  0  0  0  0  0  0  0  0  0
  -14.8322    1.7224    0.0000 C   0  0  0  0  0  0  0  0  0  0  0  0
  -14.5569    0.2479    0.0000 O   0  0  0  0  0  0  0  0  0  0  0  0
  -13.8203    2.8297    0.0000 N   0  0  0  0  0  0  0  0  0  0  0  0
  -12.3555    2.5070    0.0000 C   0  0  0  0  0  0  0  0  0  0  0  0
  -11.6281    1.1951    0.0000 C   0  0  0  0  0  0  0  0  0  0  0  0
  -10.5464    0.1559    0.0000 C   0  0  0  0  0  0  0  0  0  0  0  0
   -9.2064   -0.5182    0.0000 C   0  0  0  0  0  0  0  0  0  0  0  0
   -7.7273   -0.7675    0.0000 C   0  0  0  0  0  0  0  0  0  0  0  0
  -13.3920    1.4227    0.0000 C   0  0  0  0  0  0  0  0  0  0  0  0
  -12.6638    3.9749    0.0000 C   0  0  0  0  0  0  0  0  0  0  0  0
  -13.4232    4.2175    0.0000 O   0  0  0  0  0  0  0  0  0  0  0  0
  -12.5258    5.4686    0.0000 N   0  0  0  0  0  0  0  0  0  0  0  0
  -11.9536    6.8552    0.0000 C   0  0  0  0  0  0  0  0  0  0  0  0
  -12.6147    8.2016    0.0000 C   0  0  0  0  0  0  0  0  0  0  0  0
  -14.1113    8.3024    0.0000 C   0  0  0  0  0  0  0  0  0  0  0  0
  -14.7723    9.6489    0.0000 C   0  0  0  0  0  0  0  0  0  0  0  0
  -15.5521    7.8852    0.0000 C   0  0  0  0  0  0  0  0  0  0  0  0
  -10.9982    8.0115    0.0000 C   0  0  0  0  0  0  0  0  0  0  0  0
  -11.8556    9.2423    0.0000 O   0  0  0  0  0  0  0  0  0  0  0  0
   -9.7443    8.8349    0.0000 N   0  0  0  0  0  0  0  0  0  0  0  0
   -8.3035    9.2521    0.0000 C   0  0  0  0  0  0  0  0  0  0  0  0
   -7.6630   10.6084    0.0000 C   0  0  0  0  0  0  0  0  0  0  0  0
   -8.6612   11.7280    0.0000 C   0  0  0  0  0  0  0  0  0  0  0  0
   -6.5971   11.6639    0.0000 C   0  0  0  0  0  0  0  0  0  0  0  0
   -6.9783   13.1146    0.0000 C   0  0  0  0  0  0  0  0  0  0  0  0
   -6.8038    9.2260    0.0000 C   0  0  0  0  0  0  0  0  0  0  0  0
   -6.3761   10.6638    0.0000 O   0  0  0  0  0  0  0  0  0  0  0  0
   -5.3783    8.7591    0.0000 N   0  0  0  0  0  0  0  0  0  0  0  0
   -4.1538    7.8927    0.0000 C   0  0  0  0  0  0  0  0  0  0  0  0
   -2.6940    8.2376    0.0000 C   0  0  0  0  0  0  0  0  0  0  0  0
   -2.2627    9.6743    0.0000 C   0  0  0  0  0  0  0  0  0  0  0  0
   -0.8029   10.0191    0.0000 C   0  0  0  0  0  0  0  0  0  0  0  0
   -0.3716   11.4558    0.0000 O   0  0  0  0  0  0  0  0  0  0  0  0
    0.2257    8.9273    0.0000 O   0  0  0  0  0  0  0  0  0  0  0  0
   -3.2390    6.7039    0.0000 C   0  0  0  0  0  0  0  0  0  0  0  0
   -1.9272    7.4313    0.0000 O   0  0  0  0  0  0  0  0  0  0  0  0
   -2.7153    5.2983    0.0000 N   0  0  0  0  0  0  0  0  0  0  0  0
   -2.6292    3.8008    0.0000 C   0  0  0  0  0  0  0  0  0  0  0  0
   -2.9883    2.3444    0.0000 C   0  0  0  0  0  0  0  0  0  0  0  0
   -3.7607    1.0586    0.0000 C   0  0  0  0  0  0  0  0  0  0  0  0
   -4.8779    0.0576    0.0000 C   0  0  0  0  0  0  0  0  0  0  0  0
   -6.2404   -0.5697    0.0000 C   0  0  0  0  0  0  0  0  0  0  0  0
   -1.2996    4.4952    0.0000 C   0  0  0  0  0  0  0  0  0  0  0  0
   -1.4494    2.8745    0.0000 C   0  0  0  0  0  0  0  0  0  0  0  0
   -1.2961    1.3823    0.0000 O   0  0  0  0  0  0  0  0  0  0  0  0
   -0.0573    3.4331    0.0000 N   0  0  0  0  0  0  0  0  0  0  0  0
    1.1225    2.5067    0.0000 C   0  0  0  0  0  0  0  0  0  0  0  0
    1.9143    1.2328    0.0000 C   0  0  0  0  0  0  0  0  0  0  0  0
    1.2070   -0.0900    0.0000 C   0  0  0  0  0  0  0  0  0  0  0  0
    1.9988   -1.3639    0.0000 C   0  0  0  0  0  0  0  0  0  0  0  0
    0.0899   -1.0910    0.0000 C   0  0  0  0  0  0  0  0  0  0  0  0
    2.5146    3.0653    0.0000 C   0  0  0  0  0  0  0  0  0  0  0  0
    2.7269    4.5502    0.0000 O   0  0  0  0  0  0  0  0  0  0  0  0
    3.6944    2.1390    0.0000 N   0  0  0  0  0  0  0  0  0  0  0  0
    5.0866    2.6976    0.0000 C   0  0  0  0  0  0  0  0  0  0  0  0
    6.2037    3.6986    0.0000 C   0  0  0  0  0  0  0  0  0  0  0  0
    7.6754    3.4089    0.0000 C   0  0  0  0  0  0  0  0  0  0  0  0
    6.2664    1.7713    0.0000 C   0  0  0  0  0  0  0  0  0  0  0  0
    6.0540    0.2864    0.0000 O   0  0  0  0  0  0  0  0  0  0  0  0
    7.6585    2.3299    0.0000 N   0  0  0  0  0  0  0  0  0  0  0  0
    8.8383    1.4035    0.0000 C   0  0  0  0  0  0  0  0  0  0  0  0
    9.6301    0.1296    0.0000 C   0  0  0  0  0  0  0  0  0  0  0  0
    8.9227   -1.1932    0.0000 C   0  0  0  0  0  0  0  0  0  0  0  0
    9.7146   -2.4671    0.0000 N   0  0  0  0  0  0  0  0  0  0  0  0
    7.4235   -1.2419    0.0000 O   0  0  0  0  0  0  0  0  0  0  0  0
   10.2304    1.9621    0.0000 C   0  0  0  0  0  0  0  0  0  0  0  0
   10.4427    3.4470    0.0000 O   0  0  0  0  0  0  0  0  0  0  0  0
   11.4102    1.0358    0.0000 N   0  0  0  0  0  0  0  0  0  0  0  0
   12.8023    1.5944    0.0000 C   0  0  0  0  0  0  0  0  0  0  0  0
   13.9194    2.5954    0.0000 C   0  0  0  0  0  0  0  0  0  0  0  0
   15.3912    2.3057    0.0000 C   0  0  0  0  0  0  0  0  0  0  0  0
   14.6268    3.9181    0.0000 C   0  0  0  0  0  0  0  0  0  0  0  0
   13.8350    5.1921    0.0000 C   0  0  0  0  0  0  0  0  0  0  0  0
   13.9821    0.6681    0.0000 C   0  0  0  0  0  0  0  0  0  0  0  0
   13.7698   -0.8168    0.0000 O   0  0  0  0  0  0  0  0  0  0  0  0
   15.3742    1.2266    0.0000 N   0  0  0  0  0  0  0  0  0  0  0  0
   16.5540    0.3003    0.0000 C   0  0  0  0  0  0  0  0  0  0  0  0
   17.3459   -0.9736    0.0000 C   0  0  0  0  0  0  0  0  0  0  0  0
   18.4040   -2.0369    0.0000 O   0  0  0  0  0  0  0  0  0  0  0  0
   16.6385   -2.2964    0.0000 C   0  0  0  0  0  0  0  0  0  0  0  0
   17.9461    0.8589    0.0000 C   0  0  0  0  0  0  0  0  0  0  0  0
   18.1585    2.3438    0.0000 O   0  0  0  0  0  0  0  0  0  0  0  0
   19.1260   -0.0674    0.0000 N   0  0  0  0  0  0  0  0  0  0  0  0
   20.5181    0.4912    0.0000 C   0  0  0  0  0  0  0  0  0  0  0  0
   21.6352    1.4922    0.0000 C   0  0  0  0  0  0  0  0  0  0  0  0
   23.0607    1.0253    0.0000 C   0  0  0  0  0  0  0  0  0  0  0  0
   24.1778    2.0263    0.0000 C   0  0  0  0  0  0  0  0  0  0  0  0
   25.6495    1.7366    0.0000 N   0  0  0  0  0  0  0  0  0  0  0  0
   23.8694    3.4943    0.0000 O   0  0  0  0  0  0  0  0  0  0  0  0
   21.6979   -0.4351    0.0000 C   0  0  0  0  0  0  0  0  0  0  0  0
   21.4856   -1.9200    0.0000 O   0  0  0  0  0  0  0  0  0  0  0  0
   23.0900    0.1234    0.0000 N   0  0  0  0  0  0  0  0  0  0  0  0
   24.2698   -0.8029    0.0000 C   0  0  0  0  0  0  0  0  0  0  0  0
   25.0616   -2.0768    0.0000 C   0  0  0  0  0  0  0  0  0  0  0  0
   24.3543   -3.3996    0.0000 C   0  0  0  0  0  0  0  0  0  0  0  0
   25.1461   -4.6736    0.0000 N   0  0  0  0  0  0  0  0  0  0  0  0
   22.8550   -3.4483    0.0000 O   0  0  0  0  0  0  0  0  0  0  0  0
   25.6619   -0.2443    0.0000 C   0  0  0  0  0  0  0  0  0  0  0  0
   26.0536    1.2036    0.0000 O   0  0  0  0  0  0  0  0  0  0  0  0
   26.8417   -1.1706    0.0000 N   0  0  0  0  0  0  0  0  0  0  0  0
   28.2338   -0.6120    0.0000 C   0  0  0  0  0  0  0  0  0  0  0  0
   29.3509    0.3890    0.0000 C   0  0  0  0  0  0  0  0  0  0  0  0
   30.7764   -0.0779    0.0000 C   0  0  0  0  0  0  0  0  0  0  0  0
   31.8935    0.9231    0.0000 C   0  0  0  0  0  0  0  0  0  0  0  0
   33.3653    0.6334    0.0000 N   0  0  0  0  0  0  0  0  0  0  0  0
   31.5852    2.3910    0.0000 O   0  0  0  0  0  0  0  0  0  0  0  0
   29.4136   -1.5384    0.0000 C   0  0  0  0  0  0  0  0  0  0  0  0
   29.2013   -3.0233    0.0000 O   0  0  0  0  0  0  0  0  0  0  0  0
   30.8057   -0.9798    0.0000 N   0  0  0  0  0  0  0  0  0  0  0  0
   31.9855   -1.9061    0.0000 C   0  0  0  0  0  0  0  0  0  0  0  0
   32.7774   -3.1801    0.0000 C   0  0  0  0  0  0  0  0  0  0  0  0
   32.0700   -4.5028    0.0000 C   0  0  0  0  0  0  0  0  0  0  0  0
   32.8618   -5.7768    0.0000 C   0  0  0  0  0  0  0  0  0  0  0  0
   32.1545   -7.0995    0.0000 C   0  0  0  0  0  0  0  0  0  0  0  0
   32.9463   -8.3735    0.0000 N   0  0  0  0  0  0  0  0  0  0  0  0
   33.3777   -1.3475    0.0000 C   0  0  0  0  0  0  0  0  0  0  0  0
   33.7694    0.1004    0.0000 O   0  0  0  0  0  0  0  0  0  0  0  0
   34.5575   -2.2738    0.0000 N   0  0  0  0  0  0  0  0  0  0  0  0
   35.9496   -1.7152    0.0000 C   0  0  0  0  0  0  0  0  0  0  0  0
   36.9363   -0.5855    0.0000 C   0  0  0  0  0  0  0  0  0  0  0  0
   37.1294   -2.6416    0.0000 C   0  0  0  0  0  0  0  0  0  0  0  0
   36.9171   -4.1265    0.0000 O   0  0  0  0  0  0  0  0  0  0  0  0
   38.5215   -2.0830    0.0000 N   0  0  0  0  0  0  0  0  0  0  0  0
   38.8879   -0.6284    0.0000 C   0  0  0  0  0  0  0  0  0  0  0  0
   40.3845   -0.5274    0.0000 C   0  0  0  0  0  0  0  0  0  0  0  0
   40.9430   -1.9195    0.0000 C   0  0  0  0  0  0  0  0  0  0  0  0
   39.7917   -2.8809    0.0000 C   0  0  0  0  0  0  0  0  0  0  0  0
   40.8682   -3.9255    0.0000 C   0  0  0  0  0  0  0  0  0  0  0  0
   42.3503   -3.6944    0.0000 O   0  0  0  0  0  0  0  0  0  0  0  0
   40.5018   -5.3800    0.0000 N   0  0  0  0  0  0  0  0  0  0  0  0
   41.5783   -6.4246    0.0000 C   0  0  0  0  0  0  0  0  0  0  0  0
   42.9472   -7.0380    0.0000 C   0  0  0  0  0  0  0  0  0  0  0  0
   43.1004   -8.5301    0.0000 C   0  0  0  0  0  0  0  0  0  0  0  0
   44.4693   -9.1435    0.0000 C   0  0  0  0  0  0  0  0  0  0  0  0
   42.7340   -9.9847    0.0000 C   0  0  0  0  0  0  0  0  0  0  0  0
   41.2120   -7.8792    0.0000 C   0  0  0  0  0  0  0  0  0  0  0  0
   42.1531   -9.0472    0.0000 O   0  0  0  0  0  0  0  0  0  0  0  0
   39.7691   -8.2892    0.0000 O   0  0  0  0  0  0  0  0  0  0  0  0
  -38.9761   -7.4877    0.0000 H   0  0  0  0  0  0  0  0  0  0  0  0
  -40.5059   -3.2636    0.0000 H   0  0  0  0  0  0  0  0  0  0  0  0
  -43.4357   -2.6183    0.0000 H   0  0  0  0  0  0  0  0  0  0  0  0
  -41.2912   -8.1860    0.0000 H   0  0  0  0  0  0  0  0  0  0  0  0
  -47.3928  -11.9389    0.0000 H   0  0  0  0  0  0  0  0  0  0  0  0
  -49.9576   -7.4198    0.0000 H   0  0  0  0  0  0  0  0  0  0  0  0
  -47.3486   -5.9390    0.0000 H   0  0  0  0  0  0  0  0  0  0  0  0
  -51.2732   -9.6602    0.0000 H   0  0  0  0  0  0  0  0  0  0  0  0
  -42.1526   -5.9774    0.0000 H   0  0  0  0  0  0  0  0  0  0  0  0
  -39.4851   -7.6611    0.0000 H   0  0  0  0  0  0  0  0  0  0  0  0
  -42.1968  -11.9772    0.0000 H   0  0  0  0  0  0  0  0  0  0  0  0
  -39.5988  -11.9964    0.0000 H   0  0  0  0  0  0  0  0  0  0  0  0
  -36.6702   -6.7689    0.0000 H   0  0  0  0  0  0  0  0  0  0  0  0
  -35.5391   -2.8451    0.0000 H   0  0  0  0  0  0  0  0  0  0  0  0
  -37.3775   -3.4274    0.0000 H   0  0  0  0  0  0  0  0  0  0  0  0
  -33.3803   -5.3586    0.0000 H   0  0  0  0  0  0  0  0  0  0  0  0
  -35.2186   -5.9410    0.0000 H   0  0  0  0  0  0  0  0  0  0  0  0
  -31.7167   -5.1997    0.0000 H   0  0  0  0  0  0  0  0  0  0  0  0
  -32.4239   -1.8583    0.0000 H   0  0  0  0  0  0  0  0  0  0  0  0
  -30.5222    0.2227    0.0000 H   0  0  0  0  0  0  0  0  0  0  0  0
  -32.0505   -0.9532    0.0000 H   0  0  0  0  0  0  0  0  0  0  0  0
  -28.5265    0.3085    0.0000 H   0  0  0  0  0  0  0  0  0  0  0  0
  -28.9563   -0.4034    0.0000 H   0  0  0  0  0  0  0  0  0  0  0  0
  -27.9530   -3.5071    0.0000 H   0  0  0  0  0  0  0  0  0  0  0  0
  -25.0593   -1.7979    0.0000 H   0  0  0  0  0  0  0  0  0  0  0  0
  -23.8611   -4.6916    0.0000 H   0  0  0  0  0  0  0  0  0  0  0  0
  -24.8546   -5.4561    0.0000 H   0  0  0  0  0  0  0  0  0  0  0  0
  -26.5855   -5.8901    0.0000 H   0  0  0  0  0  0  0  0  0  0  0  0
  -27.5066   -4.3618    0.0000 H   0  0  0  0  0  0  0  0  0  0  0  0
  -24.1154   -2.7801    0.0000 H   0  0  0  0  0  0  0  0  0  0  0  0
  -24.9936    0.4955    0.0000 H   0  0  0  0  0  0  0  0  0  0  0  0
  -21.8381    1.7955    0.0000 H   0  0  0  0  0  0  0  0  0  0  0  0
  -23.0919    2.5765    0.0000 H   0  0  0  0  0  0  0  0  0  0  0  0
  -24.6202    1.4006    0.0000 H   0  0  0  0  0  0  0  0  0  0  0  0
  -21.5260    1.9504    0.0000 H   0  0  0  0  0  0  0  0  0  0  0  0
  -20.5227   -1.1533    0.0000 H   0  0  0  0  0  0  0  0  0  0  0  0
  -17.0547   -0.9737    0.0000 H   0  0  0  0  0  0  0  0  0  0  0  0
  -17.6289    0.5559    0.0000 H   0  0  0  0  0  0  0  0  0  0  0  0
  -20.0763   -2.0080    0.0000 H   0  0  0  0  0  0  0  0  0  0  0  0
  -17.1971   -4.4492    0.0000 H   0  0  0  0  0  0  0  0  0  0  0  0
  -15.8520   -3.2766    0.0000 H   0  0  0  0  0  0  0  0  0  0  0  0
  -16.5799   -1.6474    0.0000 H   0  0  0  0  0  0  0  0  0  0  0  0
  -18.3922   -4.8277    0.0000 H   0  0  0  0  0  0  0  0  0  0  0  0
  -20.1671   -4.6436    0.0000 H   0  0  0  0  0  0  0  0  0  0  0  0
  -20.4213   -2.7321    0.0000 H   0  0  0  0  0  0  0  0  0  0  0  0
  -16.6851   -0.4263    0.0000 H   0  0  0  0  0  0  0  0  0  0  0  0
  -17.5633    2.8493    0.0000 H   0  0  0  0  0  0  0  0  0  0  0  0
  -15.8447    4.9269    0.0000 H   0  0  0  0  0  0  0  0  0  0  0  0
  -17.1898    3.7543    0.0000 H   0  0  0  0  0  0  0  0  0  0  0  0
  -12.7386    3.6708    0.0000 H   0  0  0  0  0  0  0  0  0  0  0  0
  -13.7601    2.2076    0.0000 H   0  0  0  0  0  0  0  0  0  0  0  0
  -14.1439    6.4378    0.0000 H   0  0  0  0  0  0  0  0  0  0  0  0
  -15.0805    5.5149    0.0000 H   0  0  0  0  0  0  0  0  0  0  0  0
  -11.2642    4.0250    0.0000 H   0  0  0  0  0  0  0  0  0  0  0  0
   -9.2293    8.0052    0.0000 H   0  0  0  0  0  0  0  0  0  0  0  0
   -9.2052    5.6094    0.0000 H   0  0  0  0  0  0  0  0  0  0  0  0
  -12.0977    9.1982    0.0000 H   0  0  0  0  0  0  0  0  0  0  0  0
  -13.7512    6.9711    0.0000 H   0  0  0  0  0  0  0  0  0  0  0  0
  -14.0956    4.3042    0.0000 H   0  0  0  0  0  0  0  0  0  0  0  0
  -13.0968    0.8904    0.0000 H   0  0  0  0  0  0  0  0  0  0  0  0
  -12.1304   -0.2183    0.0000 H   0  0  0  0  0  0  0  0  0  0  0  0
  -11.7620   -0.7229    0.0000 H   0  0  0  0  0  0  0  0  0  0  0  0
  -10.7920   -1.3238    0.0000 H   0  0  0  0  0  0  0  0  0  0  0  0
  -10.2483   -1.5974    0.0000 H   0  0  0  0  0  0  0  0  0  0  0  0
   -8.8253   -1.9690    0.0000 H   0  0  0  0  0  0  0  0  0  0  0  0
   -7.7533   -2.2673    0.0000 H   0  0  0  0  0  0  0  0  0  0  0  0
  -13.0427   -0.2062    0.0000 H   0  0  0  0  0  0  0  0  0  0  0  0
  -14.3828    0.3523    0.0000 H   0  0  0  0  0  0  0  0  0  0  0  0
  -14.5706    2.0130    0.0000 H   0  0  0  0  0  0  0  0  0  0  0  0
  -13.9275    6.0025    0.0000 H   0  0  0  0  0  0  0  0  0  0  0  0
  -13.4528    6.8064    0.0000 H   0  0  0  0  0  0  0  0  0  0  0  0
  -12.5923    9.7015    0.0000 H   0  0  0  0  0  0  0  0  0  0  0  0
  -11.3176    8.9551    0.0000 H   0  0  0  0  0  0  0  0  0  0  0  0
  -14.4959    6.8525    0.0000 H   0  0  0  0  0  0  0  0  0  0  0  0
  -16.2455    9.9313    0.0000 H   0  0  0  0  0  0  0  0  0  0  0  0
  -14.9330   11.1403    0.0000 H   0  0  0  0  0  0  0  0  0  0  0  0
  -13.3931   10.2386    0.0000 H   0  0  0  0  0  0  0  0  0  0  0  0
  -16.7524    8.7848    0.0000 H   0  0  0  0  0  0  0  0  0  0  0  0
  -16.7633    7.0004    0.0000 H   0  0  0  0  0  0  0  0  0  0  0  0
  -14.8911    6.5387    0.0000 H   0  0  0  0  0  0  0  0  0  0  0  0
  -10.3716   10.1974    0.0000 H   0  0  0  0  0  0  0  0  0  0  0  0
   -9.4083   10.2667    0.0000 H   0  0  0  0  0  0  0  0  0  0  0  0
   -6.2652   10.0641    0.0000 H   0  0  0  0  0  0  0  0  0  0  0  0
   -8.0618   13.2823    0.0000 H   0  0  0  0  0  0  0  0  0  0  0  0
   -9.7418   12.7077    0.0000 H   0  0  0  0  0  0  0  0  0  0  0  0
   -9.7039   10.9236    0.0000 H   0  0  0  0  0  0  0  0  0  0  0  0
   -5.2346   12.2911    0.0000 H   0  0  0  0  0  0  0  0  0  0  0  0
   -5.5989   10.5443    0.0000 H   0  0  0  0  0  0  0  0  0  0  0  0
   -5.9125   14.1701    0.0000 H   0  0  0  0  0  0  0  0  0  0  0  0
   -7.8326   14.3476    0.0000 H   0  0  0  0  0  0  0  0  0  0  0  0
   -8.4521   12.8357    0.0000 H   0  0  0  0  0  0  0  0  0  0  0  0
   -4.7041   10.0990    0.0000 H   0  0  0  0  0  0  0  0  0  0  0  0
   -4.0493    9.3891    0.0000 H   0  0  0  0  0  0  0  0  0  0  0  0
   -1.2042    8.0624    0.0000 H   0  0  0  0  0  0  0  0  0  0  0  0
   -2.2480    6.8054    0.0000 H   0  0  0  0  0  0  0  0  0  0  0  0
   -2.3488   11.1718    0.0000 H   0  0  0  0  0  0  0  0  0  0  0  0
   -3.7200   10.0298    0.0000 H   0  0  0  0  0  0  0  0  0  0  0  0
   -1.2474    5.6067    0.0000 H   0  0  0  0  0  0  0  0  0  0  0  0
   -2.1340    1.1115    0.0000 H   0  0  0  0  0  0  0  0  0  0  0  0
   -1.4912    2.2511    0.0000 H   0  0  0  0  0  0  0  0  0  0  0  0
   -3.1368   -0.3055    0.0000 H   0  0  0  0  0  0  0  0  0  0  0  0
   -2.3577    0.5281    0.0000 H   0  0  0  0  0  0  0  0  0  0  0  0
   -4.8665   -1.4424    0.0000 H   0  0  0  0  0  0  0  0  0  0  0  0
   -3.5901   -0.7117    0.0000 H   0  0  0  0  0  0  0  0  0  0  0  0
   -5.8232   -2.0105    0.0000 H   0  0  0  0  0  0  0  0  0  0  0  0
    0.1235    4.0213    0.0000 H   0  0  0  0  0  0  0  0  0  0  0  0
   -0.4303    5.7176    0.0000 H   0  0  0  0  0  0  0  0  0  0  0  0
   -1.8995    5.8700    0.0000 H   0  0  0  0  0  0  0  0  0  0  0  0
    0.3344    4.8810    0.0000 H   0  0  0  0  0  0  0  0  0  0  0  0
   -0.1083    1.6494    0.0000 H   0  0  0  0  0  0  0  0  0  0  0  0
    3.0942    0.3065    0.0000 H   0  0  0  0  0  0  0  0  0  0  0  0
    3.2405    1.9337    0.0000 H   0  0  0  0  0  0  0  0  0  0  0  0
   -0.0769    0.6856    0.0000 H   0  0  0  0  0  0  0  0  0  0  0  0
    1.4579   -2.7630    0.0000 H   0  0  0  0  0  0  0  0  0  0  0  0
    3.1786   -2.2902    0.0000 H   0  0  0  0  0  0  0  0  0  0  0  0
    3.2296   -0.5065    0.0000 H   0  0  0  0  0  0  0  0  0  0  0  0
    0.2170   -2.5856    0.0000 H   0  0  0  0  0  0  0  0  0  0  0  0
   -1.3023   -1.6496    0.0000 H   0  0  0  0  0  0  0  0  0  0  0  0
   -0.7020    0.1830    0.0000 H   0  0  0  0  0  0  0  0  0  0  0  0
    3.6647    0.6393    0.0000 H   0  0  0  0  0  0  0  0  0  0  0  0
    4.2947    3.9716    0.0000 H   0  0  0  0  0  0  0  0  0  0  0  0
    6.9110    5.0214    0.0000 H   0  0  0  0  0  0  0  0  0  0  0  0
    5.0239    4.6249    0.0000 H   0  0  0  0  0  0  0  0  0  0  0  0
    8.7463    4.2327    0.0000 H   0  0  0  0  0  0  0  0  0  0  0  0
    8.8089    2.3054    0.0000 H   0  0  0  0  0  0  0  0  0  0  0  0
    7.6257    1.7317    0.0000 H   0  0  0  0  0  0  0  0  0  0  0  0
    8.0502    3.7778    0.0000 H   0  0  0  0  0  0  0  0  0  0  0  0
    7.7212    0.4025    0.0000 H   0  0  0  0  0  0  0  0  0  0  0  0
   10.6882   -0.9337    0.0000 H   0  0  0  0  0  0  0  0  0  0  0  0
   10.9562    0.8305    0.0000 H   0  0  0  0  0  0  0  0  0  0  0  0
    9.0072   -3.7899    0.0000 H   0  0  0  0  0  0  0  0  0  0  0  0
   11.2138   -2.4184    0.0000 H   0  0  0  0  0  0  0  0  0  0  0  0
   11.3805   -0.4639    0.0000 H   0  0  0  0  0  0  0  0  0  0  0  0
   12.0105    2.8684    0.0000 H   0  0  0  0  0  0  0  0  0  0  0  0
   12.6355    3.3710    0.0000 H   0  0  0  0  0  0  0  0  0  0  0  0
   16.5757    2.9859    0.0000 H   0  0  0  0  0  0  0  0  0  0  0  0
   16.5247    1.2022    0.0000 H   0  0  0  0  0  0  0  0  0  0  0  0
   15.3415    0.6285    0.0000 H   0  0  0  0  0  0  0  0  0  0  0  0
   15.7439    4.9192    0.0000 H   0  0  0  0  0  0  0  0  0  0  0  0
   15.9957    3.3048    0.0000 H   0  0  0  0  0  0  0  0  0  0  0  0
   14.5423    6.5148    0.0000 H   0  0  0  0  0  0  0  0  0  0  0  0
   12.6552    6.1184    0.0000 H   0  0  0  0  0  0  0  0  0  0  0  0
   12.6042    4.3347    0.0000 H   0  0  0  0  0  0  0  0  0  0  0  0
   15.9395    2.6160    0.0000 H   0  0  0  0  0  0  0  0  0  0  0  0
   15.3232   -0.5571    0.0000 H   0  0  0  0  0  0  0  0  0  0  0  0
   18.6720   -0.2727    0.0000 H   0  0  0  0  0  0  0  0  0  0  0  0
   18.4959   -3.3997    0.0000 H   0  0  0  0  0  0  0  0  0  0  0  0
   17.2691   -3.6574    0.0000 H   0  0  0  0  0  0  0  0  0  0  0  0
   15.5214   -3.2974    0.0000 H   0  0  0  0  0  0  0  0  0  0  0  0
   15.3546   -1.5208    0.0000 H   0  0  0  0  0  0  0  0  0  0  0  0
   19.0962   -1.5671    0.0000 H   0  0  0  0  0  0  0  0  0  0  0  0
   19.7262    1.7651    0.0000 H   0  0  0  0  0  0  0  0  0  0  0  0
   22.3426    2.8149    0.0000 H   0  0  0  0  0  0  0  0  0  0  0  0
   20.4554    2.4185    0.0000 H   0  0  0  0  0  0  0  0  0  0  0  0
   24.2405    0.0989    0.0000 H   0  0  0  0  0  0  0  0  0  0  0  0
   23.0572   -0.4747    0.0000 H   0  0  0  0  0  0  0  0  0  0  0  0
   26.7204    2.5604    0.0000 H   0  0  0  0  0  0  0  0  0  0  0  0
   26.3019    0.2037    0.0000 H   0  0  0  0  0  0  0  0  0  0  0  0
   23.6553    1.5128    0.0000 H   0  0  0  0  0  0  0  0  0  0  0  0
   23.1527   -1.8039    0.0000 H   0  0  0  0  0  0  0  0  0  0  0  0
   26.1197   -3.1401    0.0000 H   0  0  0  0  0  0  0  0  0  0  0  0
   26.3878   -1.3759    0.0000 H   0  0  0  0  0  0  0  0  0  0  0  0
   24.4387   -5.9963    0.0000 H   0  0  0  0  0  0  0  0  0  0  0  0
   26.6453   -4.6248    0.0000 H   0  0  0  0  0  0  0  0  0  0  0  0
   26.8120   -2.6703    0.0000 H   0  0  0  0  0  0  0  0  0  0  0  0
   27.4420    0.6619    0.0000 H   0  0  0  0  0  0  0  0  0  0  0  0
   30.0583    1.7117    0.0000 H   0  0  0  0  0  0  0  0  0  0  0  0
   28.1711    1.3153    0.0000 H   0  0  0  0  0  0  0  0  0  0  0  0
   31.9562   -1.0043    0.0000 H   0  0  0  0  0  0  0  0  0  0  0  0
   30.7730   -1.5779    0.0000 H   0  0  0  0  0  0  0  0  0  0  0  0
   34.4361    1.4572    0.0000 H   0  0  0  0  0  0  0  0  0  0  0  0
   34.0177   -0.8995    0.0000 H   0  0  0  0  0  0  0  0  0  0  0  0
   31.3711    0.4096    0.0000 H   0  0  0  0  0  0  0  0  0  0  0  0
   30.7547   -2.7635    0.0000 H   0  0  0  0  0  0  0  0  0  0  0  0
   33.9572   -4.1064    0.0000 H   0  0  0  0  0  0  0  0  0  0  0  0
   34.1035   -2.4791    0.0000 H   0  0  0  0  0  0  0  0  0  0  0  0
   30.8392   -5.3602    0.0000 H   0  0  0  0  0  0  0  0  0  0  0  0
   30.7861   -3.7272    0.0000 H   0  0  0  0  0  0  0  0  0  0  0  0
   34.1458   -6.5524    0.0000 H   0  0  0  0  0  0  0  0  0  0  0  0
   34.0926   -4.9194    0.0000 H   0  0  0  0  0  0  0  0  0  0  0  0
   31.0374   -8.1005    0.0000 H   0  0  0  0  0  0  0  0  0  0  0  0
   30.8705   -6.3239    0.0000 H   0  0  0  0  0  0  0  0  0  0  0  0
   32.2389   -9.6962    0.0000 H   0  0  0  0  0  0  0  0  0  0  0  0
   34.1261   -9.2998    0.0000 H   0  0  0  0  0  0  0  0  0  0  0  0
   34.1771   -7.5161    0.0000 H   0  0  0  0  0  0  0  0  0  0  0  0
   34.5277   -3.7735    0.0000 H   0  0  0  0  0  0  0  0  0  0  0  0
   35.1578   -0.4413    0.0000 H   0  0  0  0  0  0  0  0  0  0  0  0
   38.5445   -0.4571    0.0000 H   0  0  0  0  0  0  0  0  0  0  0  0
   37.7741    0.6085    0.0000 H   0  0  0  0  0  0  0  0  0  0  0  0
   35.8869    0.2121    0.0000 H   0  0  0  0  0  0  0  0  0  0  0  0
   37.4399   -0.2367    0.0000 H   0  0  0  0  0  0  0  0  0  0  0  0
   38.9438    0.8705    0.0000 H   0  0  0  0  0  0  0  0  0  0  0  0
   40.1275    0.9505    0.0000 H   0  0  0  0  0  0  0  0  0  0  0  0
   41.8273   -0.1173    0.0000 H   0  0  0  0  0  0  0  0  0  0  0  0
   42.2691   -1.2184    0.0000 H   0  0  0  0  0  0  0  0  0  0  0  0
   41.9244   -3.0539    0.0000 H   0  0  0  0  0  0  0  0  0  0  0  0
   38.8654   -4.0607    0.0000 H   0  0  0  0  0  0  0  0  0  0  0  0
   39.0589   -5.7900    0.0000 H   0  0  0  0  0  0  0  0  0  0  0  0
   42.4201   -5.1831    0.0000 H   0  0  0  0  0  0  0  0  0  0  0  0
   44.4453   -6.9630    0.0000 H   0  0  0  0  0  0  0  0  0  0  0  0
   43.3136   -5.5834    0.0000 H   0  0  0  0  0  0  0  0  0  0  0  0
   41.6649   -8.9654    0.0000 H   0  0  0  0  0  0  0  0  0  0  0  0
   44.8032  -10.6059    0.0000 H   0  0  0  0  0  0  0  0  0  0  0  0
   45.9654   -9.2517    0.0000 H   0  0  0  0  0  0  0  0  0  0  0  0
   45.0102   -7.7445    0.0000 H   0  0  0  0  0  0  0  0  0  0  0  0
   43.6752  -11.1527    0.0000 H   0  0  0  0  0  0  0  0  0  0  0  0
   41.8923  -11.2263    0.0000 H   0  0  0  0  0  0  0  0  0  0  0  0
   41.3652   -9.3713    0.0000 H   0  0  0  0  0  0  0  0  0  0  0  0
  1  2  1  0
  2  3  1  0
  3  4  2  0
  4  5  1  0
  5  6  2  0
  6  7  1  0
  7  8  2  0
  7  9  1  0
  9 10  1  0
 10 11  1  0
 11 12  2  0
  9 13  1  0
 13 14  1  0
 14 15  2  0
 15 16  1  0
 16 17  2  0
 17 18  1  0
 16 19  1  0
 14 20  1  0
 20 21  1  0
 21 22  2  0
 22 23  1  0
 23 24  2  0
 24 25  1  0
 25 26  2  0
 25 27  1  0
  1 28  2  0
  1 29  1  0
 29 30  1  0
 30 31  1  0
 31 32  1  0
 32 33  2  0
 32 34  1  0
 34 35  1  0
 35 36  1  0
 36 37  1  0
 35 38  1  0
 38 39  2  0
 38 40  1  0
 40 41  1  0
 41 42  1  0
 42 43  1  0
 42 44  1  0
 41 45  1  0
 45 46  2  0
 45 47  1  0
 47 48  1  0
 48 49  1  0
 48 50  1  0
 50 51  2  0
 50 52  1  0
 52 53  1  0
 53 54  1  0
 54 55  1  0
 55 56  1  0
 55 57  1  0
 53 58  1  0
 58 59  2  0
 58 60  1  0
 60 61  1  0
 61 62  1  0
 62 63  1  0
 63 64  1  0
 64 65  1  0
 65 66  1  0
 66 67  2  3
 66 68  1  0
 61 69  1  0
 69 70  2  0
 69 71  1  0
 72 71  1  6
 72 73  1  0
 73 74  1  0
 74 75  1  0
 75 76  1  0
 72 77  1  0
 72 78  1  0
 78 79  2  0
 78 80  1  0
 80 81  1  0
 81 82  1  0
 82 83  1  0
 83 84  1  0
 83 85  1  0
 81 86  1  0
 86 87  2  0
 86 88  1  0
 88 89  1  0
 89 90  1  0
 90 91  1  0
 90 92  1  0
 92 93  1  0
 89 94  1  0
 94 95  2  0
 94 96  1  0
 96 97  1  0
 97 98  1  0
 98 99  1  0
 99100  1  0
100101  2  0
100102  1  0
 97103  1  0
103104  2  0
103105  1  0
105106  1  0
106107  1  0
107108  1  0
108109  1  0
109110  1  0
106111  1  0
106112  1  6
112113  2  0
112114  1  0
114115  1  0
115116  1  0
116117  1  0
117118  1  0
117119  1  0
115120  1  0
120121  2  0
120122  1  0
122123  1  0
123124  1  0
124125  1  0
123126  1  0
126127  2  0
126128  1  0
128129  1  0
129130  1  0
130131  1  0
131132  1  0
131133  2  0
129134  1  0
134135  2  0
134136  1  0
136137  1  0
137138  1  0
138139  1  0
138140  1  0
140141  1  0
137142  1  0
142143  2  0
142144  1  0
144145  1  0
145146  1  0
146147  1  0
146148  1  0
145149  1  0
149150  2  0
149151  1  0
151152  1  0
152153  1  0
153154  1  0
154155  1  0
155156  1  0
155157  2  0
152158  1  0
158159  2  0
158160  1  0
160161  1  0
161162  1  0
162163  1  0
163164  1  0
163165  2  0
161166  1  0
166167  2  0
166168  1  0
168169  1  0
169170  1  0
170171  1  0
171172  1  0
172173  1  0
172174  2  0
169175  1  0
175176  2  0
175177  1  0
177178  1  0
178179  1  0
179180  1  0
180181  1  0
181182  1  0
182183  1  0
178184  1  0
184185  2  0
184186  1  0
186187  1  0
187188  1  0
187189  1  0
189190  2  0
189191  1  0
191192  1  0
192193  1  0
193194  1  0
194195  1  0
195196  1  0
196197  2  0
196198  1  0
198199  1  0
199200  1  0
200201  1  0
201202  1  0
201203  1  0
199204  1  0
204205  2  0
204206  1  0
  8  3  1  0
195191  1  0
 11  6  1  0
 76110  2  0
 18 13  2  0
 22  9  1  0
 26 21  1  0
  2207  1  0
  4208  1  0
  5209  1  0
  8210  1  0
 15211  1  0
 17212  1  0
 18213  1  0
 19214  1  0
 23215  1  0
 24216  1  0
 26217  1  0
 27218  1  0
 29219  1  0
 30220  1  0
 30221  1  0
 31222  1  0
 31223  1  0
 34224  1  0
 35225  1  1
 36226  1  0
 36227  1  0
 37228  1  0
 40229  1  0
 41230  1  6
 42231  1  1
 43232  1  0
 44233  1  0
 44234  1  0
 44235  1  0
 47236  1  0
 48237  1  1
 49238  1  0
 49239  1  0
 49240  1  0
 52241  1  0
 53242  1  6
 54243  1  0
 54244  1  0
 55245  1  0
 56246  1  0
 56247  1  0
 56248  1  0
 57249  1  0
 57250  1  0
 57251  1  0
 60252  1  0
 61253  1  1
 62254  1  0
 62255  1  0
 63256  1  0
 63257  1  0
 64258  1  0
 64259  1  0
 65260  1  0
 67261  1  0
 67262  1  0
 68263  1  0
 68264  1  0
 71265  1  0
 73266  1  0
 73267  1  0
 74268  1  0
 74269  1  0
 75270  1  0
 75271  1  0
 76272  1  0
 77273  1  0
 77274  1  0
 77275  1  0
 80276  1  0
 81277  1  1
 82278  1  0
 82279  1  0
 83280  1  0
 84281  1  0
 84282  1  0
 84283  1  0
 85284  1  0
 85285  1  0
 85286  1  0
 88287  1  0
 89288  1  1
 90289  1  6
 91290  1  0
 91291  1  0
 91292  1  0
 92293  1  0
 92294  1  0
 93295  1  0
 93296  1  0
 93297  1  0
 96298  1  0
 97299  1  1
 98300  1  0
 98301  1  0
 99302  1  0
 99303  1  0
105304  1  0
107305  1  0
107306  1  0
108307  1  0
108308  1  0
109309  1  0
109310  1  0
110311  1  0
111312  1  0
111313  1  0
111314  1  0
114315  1  0
115316  1  6
116317  1  0
116318  1  0
117319  1  0
118320  1  0
118321  1  0
118322  1  0
119323  1  0
119324  1  0
119325  1  0
122326  1  0
123327  1  1
124328  1  0
124329  1  0
125330  1  0
125331  1  0
125332  1  0
128333  1  0
129334  1  6
130335  1  0
130336  1  0
132337  1  0
132338  1  0
136339  1  0
137340  1  1
138341  1  1
139342  1  0
139343  1  0
139344  1  0
140345  1  0
140346  1  0
141347  1  0
141348  1  0
141349  1  0
144350  1  0
145351  1  6
146352  1  1
147353  1  0
148354  1  0
148355  1  0
148356  1  0
151357  1  0
152358  1  1
153359  1  0
153360  1  0
154361  1  0
154362  1  0
156363  1  0
156364  1  0
160365  1  0
161366  1  6
162367  1  0
162368  1  0
164369  1  0
164370  1  0
168371  1  0
169372  1  1
170373  1  0
170374  1  0
171375  1  0
171376  1  0
173377  1  0
173378  1  0
177379  1  0
178380  1  6
179381  1  0
179382  1  0
180383  1  0
180384  1  0
181385  1  0
181386  1  0
182387  1  0
182388  1  0
183389  1  0
183390  1  0
183391  1  0
186392  1  0
187393  1  1
188394  1  0
188395  1  0
188396  1  0
192397  1  0
192398  1  0
193399  1  0
193400  1  0
194401  1  0
194402  1  0
195403  1  0
198404  1  0
199405  1  1
200406  1  0
200407  1  0
201408  1  0
202409  1  0
202410  1  0
202411  1  0
203412  1  0
203413  1  0
203414  1  0
M  CHG  4  67   1 102  -1 183   1 206  -1
M  END
