
     RDKit          2D

414422  0  0  0  0  0  0  0  0999 V2000
   25.4034   -4.0092    0.0000 C   0  0  0  0  0  0  0  0  0  0  0  0
   26.7851   -3.4253    0.0000 N   0  0  0  0  0  0  0  0  0  0  0  0
   27.9816   -4.3299    0.0000 C   0  0  0  0  0  0  0  0  0  0  0  0
   27.7964   -5.8184    0.0000 C   0  0  0  0  0  0  0  0  0  0  0  0
   28.9929   -6.7230    0.0000 C   0  0  0  0  0  0  0  0  0  0  0  0
   30.3746   -6.1391    0.0000 C   0  0  0  0  0  0  0  0  0  0  0  0
   30.5598   -4.6506    0.0000 C   0  0  0  0  0  0  0  0  0  0  0  0
   29.3633   -3.7460    0.0000 C   0  0  0  0  0  0  0  0  0  0  0  0
   32.0327   -4.3667    0.0000 C   0  0  0  0  0  0  0  0  0  0  0  0
   32.7578   -5.6798    0.0000 O   0  0  0  0  0  0  0  0  0  0  0  0
   31.7331   -6.7752    0.0000 C   0  0  0  0  0  0  0  0  0  0  0  0
   32.0170   -8.2481    0.0000 O   0  0  0  0  0  0  0  0  0  0  0  0
   33.5272   -4.2384    0.0000 C   0  0  0  0  0  0  0  0  0  0  0  0
   34.1633   -2.8799    0.0000 C   0  0  0  0  0  0  0  0  0  0  0  0
   35.6578   -2.7515    0.0000 C   0  0  0  0  0  0  0  0  0  0  0  0
   36.5162   -3.9816    0.0000 C   0  0  0  0  0  0  0  0  0  0  0  0
   35.8801   -5.3401    0.0000 C   0  0  0  0  0  0  0  0  0  0  0  0
   34.3856   -5.4685    0.0000 C   0  0  0  0  0  0  0  0  0  0  0  0
   38.0107   -3.8533    0.0000 O   0  0  0  0  0  0  0  0  0  0  0  0
   33.3049   -1.6498    0.0000 O   0  0  0  0  0  0  0  0  0  0  0  0
   31.8104   -1.7782    0.0000 C   0  0  0  0  0  0  0  0  0  0  0  0
   31.1743   -3.1366    0.0000 C   0  0  0  0  0  0  0  0  0  0  0  0
   29.9766   -2.6310    0.0000 C   0  0  0  0  0  0  0  0  0  0  0  0
   29.5188   -1.9750    0.0000 C   0  0  0  0  0  0  0  0  0  0  0  0
   29.8581   -1.2505    0.0000 C   0  0  0  0  0  0  0  0  0  0  0  0
   30.6551   -1.1820    0.0000 C   0  0  0  0  0  0  0  0  0  0  0  0
   28.5990    0.5536    0.0000 O   0  0  0  0  0  0  0  0  0  0  0  0
   25.2182   -5.4977    0.0000 S   0  0  0  0  0  0  0  0  0  0  0  0
   24.2069   -3.1045    0.0000 N   0  0  0  0  0  0  0  0  0  0  0  0
   22.8252   -3.6884    0.0000 C   0  0  0  0  0  0  0  0  0  0  0  0
   21.6287   -2.7838    0.0000 C   0  0  0  0  0  0  0  0  0  0  0  0
   20.2470   -3.3677    0.0000 C   0  0  0  0  0  0  0  0  0  0  0  0
   20.2457   -4.1649    0.0000 O   0  0  0  0  0  0  0  0  0  0  0  0
   19.0505   -2.4631    0.0000 N   0  0  0  0  0  0  0  0  0  0  0  0
   17.6688   -3.0470    0.0000 C   0  0  0  0  0  0  0  0  0  0  0  0
   18.4837   -4.3063    0.0000 C   0  0  0  0  0  0  0  0  0  0  0  0
   18.8188   -5.7684    0.0000 O   0  0  0  0  0  0  0  0  0  0  0  0
   19.9799   -4.4133    0.0000 C   0  0  0  0  0  0  0  0  0  0  0  0
   16.1707   -3.1231    0.0000 C   0  0  0  0  0  0  0  0  0  0  0  0
   15.8310   -4.5842    0.0000 O   0  0  0  0  0  0  0  0  0  0  0  0
   15.3558   -1.8638    0.0000 N   0  0  0  0  0  0  0  0  0  0  0  0
   13.8577   -1.9399    0.0000 C   0  0  0  0  0  0  0  0  0  0  0  0
   14.1928   -3.4020    0.0000 C   0  0  0  0  0  0  0  0  0  0  0  0
   15.6266   -3.8429    0.0000 C   0  0  0  0  0  0  0  0  0  0  0  0
   15.9617   -5.3050    0.0000 C   0  0  0  0  0  0  0  0  0  0  0  0
   17.3954   -5.7458    0.0000 N   0  0  0  0  0  0  0  0  0  0  0  0
   17.7305   -7.2079    0.0000 C   0  0  0  0  0  0  0  0  0  0  0  0
   19.1643   -7.6487    0.0000 N   0  0  0  0  0  0  0  0  0  0  0  0
   16.6319   -8.2291    0.0000 N   0  0  0  0  0  0  0  0  0  0  0  0
   12.4239   -1.4991    0.0000 C   0  0  0  0  0  0  0  0  0  0  0  0
   11.6050   -2.7559    0.0000 O   0  0  0  0  0  0  0  0  0  0  0  0
   12.0888   -0.0370    0.0000 N   0  0  0  0  0  0  0  0  0  0  0  0
   10.6551    0.4038    0.0000 C   0  0  0  0  0  0  0  0  0  0  0  0
   10.4699   -1.0847    0.0000 C   0  0  0  0  0  0  0  0  0  0  0  0
   11.6664   -1.9893    0.0000 C   0  0  0  0  0  0  0  0  0  0  0  0
   11.4812   -3.4779    0.0000 C   0  0  0  0  0  0  0  0  0  0  0  0
   12.5586   -4.5216    0.0000 N   0  0  0  0  0  0  0  0  0  0  0  0
   10.0996   -4.0618    0.0000 O   0  0  0  0  0  0  0  0  0  0  0  0
    9.4585    1.3084    0.0000 C   0  0  0  0  0  0  0  0  0  0  0  0
    8.3780    0.2681    0.0000 O   0  0  0  0  0  0  0  0  0  0  0  0
    9.6437    2.7970    0.0000 N   0  0  0  0  0  0  0  0  0  0  0  0
    8.4472    3.7016    0.0000 C   0  0  0  0  0  0  0  0  0  0  0  0
    8.1147    2.2389    0.0000 C   0  0  0  0  0  0  0  0  0  0  0  0
    7.3659    0.9392    0.0000 C   0  0  0  0  0  0  0  0  0  0  0  0
    6.2673   -0.0821    0.0000 C   0  0  0  0  0  0  0  0  0  0  0  0
    4.9164   -0.7341    0.0000 C   0  0  0  0  0  0  0  0  0  0  0  0
    9.7639    4.4202    0.0000 C   0  0  0  0  0  0  0  0  0  0  0  0
    8.3337    5.1973    0.0000 C   0  0  0  0  0  0  0  0  0  0  0  0
    9.7958    5.5324    0.0000 O   0  0  0  0  0  0  0  0  0  0  0  0
    7.7845    6.5931    0.0000 N   0  0  0  0  0  0  0  0  0  0  0  0
    6.8482    7.7650    0.0000 C   0  0  0  0  0  0  0  0  0  0  0  0
    7.1073    9.2425    0.0000 C   0  0  0  0  0  0  0  0  0  0  0  0
    8.5164    9.7568    0.0000 C   0  0  0  0  0  0  0  0  0  0  0  0
    8.7755   11.2342    0.0000 C   0  0  0  0  0  0  0  0  0  0  0  0
   10.1846   11.7485    0.0000 N   0  0  0  0  0  0  0  0  0  0  0  0
   10.4437   13.2260    0.0000 C   0  0  0  0  0  0  0  0  0  0  0  0
   11.8528   13.7403    0.0000 N   0  0  0  0  0  0  0  0  0  0  0  0
    9.2938   14.1891    0.0000 N   0  0  0  0  0  0  0  0  0  0  0  0
    5.6081    8.6089    0.0000 C   0  0  0  0  0  0  0  0  0  0  0  0
    6.2577    9.9609    0.0000 O   0  0  0  0  0  0  0  0  0  0  0  0
    4.1743    9.0497    0.0000 N   0  0  0  0  0  0  0  0  0  0  0  0
    2.6743    9.0483    0.0000 C   0  0  0  0  0  0  0  0  0  0  0  0
    1.6807   10.1721    0.0000 C   0  0  0  0  0  0  0  0  0  0  0  0
    2.1572   11.5944    0.0000 C   0  0  0  0  0  0  0  0  0  0  0  0
    1.1636   12.7182    0.0000 C   0  0  0  0  0  0  0  0  0  0  0  0
    1.6401   14.1405    0.0000 N   0  0  0  0  0  0  0  0  0  0  0  0
    0.6465   15.2643    0.0000 C   0  0  0  0  0  0  0  0  0  0  0  0
    1.1230   16.6866    0.0000 N   0  0  0  0  0  0  0  0  0  0  0  0
   -0.8234   14.9658    0.0000 N   0  0  0  0  0  0  0  0  0  0  0  0
    1.2413    8.6049    0.0000 C   0  0  0  0  0  0  0  0  0  0  0  0
    0.5893    9.9558    0.0000 O   0  0  0  0  0  0  0  0  0  0  0  0
    0.0027    7.7588    0.0000 N   0  0  0  0  0  0  0  0  0  0  0  0
   -0.9314    6.5852    0.0000 C   0  0  0  0  0  0  0  0  0  0  0  0
   -2.4295    6.5091    0.0000 C   0  0  0  0  0  0  0  0  0  0  0  0
   -3.2445    7.7684    0.0000 C   0  0  0  0  0  0  0  0  0  0  0  0
   -4.6703    8.2343    0.0000 N   0  0  0  0  0  0  0  0  0  0  0  0
   -2.4037    9.0106    0.0000 O   0  0  0  0  0  0  0  0  0  0  0  0
   -1.4782    5.1884    0.0000 C   0  0  0  0  0  0  0  0  0  0  0  0
   -2.7245    6.0231    0.0000 O   0  0  0  0  0  0  0  0  0  0  0  0
   -1.5889    3.6925    0.0000 N   0  0  0  0  0  0  0  0  0  0  0  0
   -1.2538    2.2304    0.0000 C   0  0  0  0  0  0  0  0  0  0  0  0
   -0.5026    0.9321    0.0000 C   0  0  0  0  0  0  0  0  0  0  0  0
    0.5979   -0.0872    0.0000 C   0  0  0  0  0  0  0  0  0  0  0  0
    1.9499   -0.7368    0.0000 C   0  0  0  0  0  0  0  0  0  0  0  0
    3.4334   -0.9590    0.0000 C   0  0  0  0  0  0  0  0  0  0  0  0
   -0.8397    0.7887    0.0000 C   0  0  0  0  0  0  0  0  0  0  0  0
   -0.7059   -0.7053    0.0000 C   0  0  0  0  0  0  0  0  0  0  0  0
   -0.8573   -2.1977    0.0000 C   0  0  0  0  0  0  0  0  0  0  0  0
   -1.2884   -3.6344    0.0000 C   0  0  0  0  0  0  0  0  0  0  0  0
   -1.9333    3.5677    0.0000 C   0  0  0  0  0  0  0  0  0  0  0  0
   -0.6666    4.3712    0.0000 O   0  0  0  0  0  0  0  0  0  0  0  0
   -2.8536    4.7522    0.0000 N   0  0  0  0  0  0  0  0  0  0  0  0
   -3.9814    5.7412    0.0000 C   0  0  0  0  0  0  0  0  0  0  0  0
   -3.8774    7.2376    0.0000 C   0  0  0  0  0  0  0  0  0  0  0  0
   -5.1213    8.0758    0.0000 C   0  0  0  0  0  0  0  0  0  0  0  0
   -5.0174    9.5722    0.0000 C   0  0  0  0  0  0  0  0  0  0  0  0
   -6.2613   10.4104    0.0000 N   0  0  0  0  0  0  0  0  0  0  0  0
   -6.1574   11.9068    0.0000 C   0  0  0  0  0  0  0  0  0  0  0  0
   -7.1615   13.0211    0.0000 N   0  0  0  0  0  0  0  0  0  0  0  0
   -4.8095   12.5650    0.0000 N   0  0  0  0  0  0  0  0  0  0  0  0
   -5.2760    6.4988    0.0000 C   0  0  0  0  0  0  0  0  0  0  0  0
   -5.1745    7.9954    0.0000 O   0  0  0  0  0  0  0  0  0  0  0  0
   -6.6905    6.9978    0.0000 N   0  0  0  0  0  0  0  0  0  0  0  0
   -8.1740    7.2200    0.0000 C   0  0  0  0  0  0  0  0  0  0  0  0
   -8.8955    8.5350    0.0000 C   0  0  0  0  0  0  0  0  0  0  0  0
   -8.1175    9.8175    0.0000 C   0  0  0  0  0  0  0  0  0  0  0  0
   -8.8390   11.1325    0.0000 C   0  0  0  0  0  0  0  0  0  0  0  0
   -8.0609   12.4149    0.0000 N   0  0  0  0  0  0  0  0  0  0  0  0
   -8.7825   13.7300    0.0000 C   0  0  0  0  0  0  0  0  0  0  0  0
   -8.0044   15.0124    0.0000 N   0  0  0  0  0  0  0  0  0  0  0  0
  -10.2821   13.7626    0.0000 N   0  0  0  0  0  0  0  0  0  0  0  0
   -9.6727    7.1575    0.0000 C   0  0  0  0  0  0  0  0  0  0  0  0
  -10.0570    8.6074    0.0000 O   0  0  0  0  0  0  0  0  0  0  0  0
  -11.1325    6.8124    0.0000 N   0  0  0  0  0  0  0  0  0  0  0  0
  -12.5006    6.1973    0.0000 C   0  0  0  0  0  0  0  0  0  0  0  0
  -13.8185    6.9135    0.0000 C   0  0  0  0  0  0  0  0  0  0  0  0
  -13.8573    8.4130    0.0000 C   0  0  0  0  0  0  0  0  0  0  0  0
  -15.1753    9.1292    0.0000 C   0  0  0  0  0  0  0  0  0  0  0  0
  -15.2140   10.6287    0.0000 N   0  0  0  0  0  0  0  0  0  0  0  0
  -16.5320   11.3449    0.0000 C   0  0  0  0  0  0  0  0  0  0  0  0
  -16.5708   12.8444    0.0000 N   0  0  0  0  0  0  0  0  0  0  0  0
  -17.8112   10.5616    0.0000 N   0  0  0  0  0  0  0  0  0  0  0  0
  -13.7275    5.3345    0.0000 C   0  0  0  0  0  0  0  0  0  0  0  0
  -14.8347    6.3465    0.0000 O   0  0  0  0  0  0  0  0  0  0  0  0
  -14.7690    4.2550    0.0000 N   0  0  0  0  0  0  0  0  0  0  0  0
  -15.5874    2.9979    0.0000 C   0  0  0  0  0  0  0  0  0  0  0  0
  -17.0834    2.8879    0.0000 C   0  0  0  0  0  0  0  0  0  0  0  0
  -17.9267    4.1284    0.0000 C   0  0  0  0  0  0  0  0  0  0  0  0
  -17.4188    5.5398    0.0000 C   0  0  0  0  0  0  0  0  0  0  0  0
  -18.6041    6.4590    0.0000 N   0  0  0  0  0  0  0  0  0  0  0  0
  -19.8446    5.6157    0.0000 C   0  0  0  0  0  0  0  0  0  0  0  0
  -21.3014    5.9733    0.0000 C   0  0  0  0  0  0  0  0  0  0  0  0
  -22.3394    4.8905    0.0000 C   0  0  0  0  0  0  0  0  0  0  0  0
  -21.9208    3.4501    0.0000 C   0  0  0  0  0  0  0  0  0  0  0  0
  -20.4640    3.0925    0.0000 C   0  0  0  0  0  0  0  0  0  0  0  0
  -19.4259    4.1753    0.0000 C   0  0  0  0  0  0  0  0  0  0  0  0
  -16.1531    1.6087    0.0000 C   0  0  0  0  0  0  0  0  0  0  0  0
  -17.6317    1.8614    0.0000 O   0  0  0  0  0  0  0  0  0  0  0  0
  -16.4457    0.1375    0.0000 N   0  0  0  0  0  0  0  0  0  0  0  0
  -16.4545   -1.3625    0.0000 C   0  0  0  0  0  0  0  0  0  0  0  0
  -17.6535   -2.2638    0.0000 C   0  0  0  0  0  0  0  0  0  0  0  0
  -19.0336   -1.6762    0.0000 C   0  0  0  0  0  0  0  0  0  0  0  0
  -20.2326   -2.5775    0.0000 C   0  0  0  0  0  0  0  0  0  0  0  0
  -21.6126   -1.9899    0.0000 N   0  0  0  0  0  0  0  0  0  0  0  0
  -22.8116   -2.8912    0.0000 C   0  0  0  0  0  0  0  0  0  0  0  0
  -24.1917   -2.3036    0.0000 N   0  0  0  0  0  0  0  0  0  0  0  0
  -22.6305   -4.3803    0.0000 N   0  0  0  0  0  0  0  0  0  0  0  0
  -16.1793   -2.8370    0.0000 C   0  0  0  0  0  0  0  0  0  0  0  0
  -17.5598   -3.4238    0.0000 O   0  0  0  0  0  0  0  0  0  0  0  0
  -15.6300   -4.2328    0.0000 N   0  0  0  0  0  0  0  0  0  0  0  0
  -14.8265   -5.4995    0.0000 C   0  0  0  0  0  0  0  0  0  0  0  0
  -15.3479   -6.9060    0.0000 C   0  0  0  0  0  0  0  0  0  0  0  0
  -16.8266   -7.1577    0.0000 C   0  0  0  0  0  0  0  0  0  0  0  0
  -17.3479   -8.5642    0.0000 C   0  0  0  0  0  0  0  0  0  0  0  0
  -18.8266   -8.8160    0.0000 O   0  0  0  0  0  0  0  0  0  0  0  0
  -16.3905   -9.7190    0.0000 O   0  0  0  0  0  0  0  0  0  0  0  0
  -13.7978   -6.5912    0.0000 C   0  0  0  0  0  0  0  0  0  0  0  0
  -14.6419   -7.8311    0.0000 O   0  0  0  0  0  0  0  0  0  0  0  0
  -12.5811   -7.4684    0.0000 N   0  0  0  0  0  0  0  0  0  0  0  0
  -11.2204   -8.0996    0.0000 C   0  0  0  0  0  0  0  0  0  0  0  0
   -9.7648   -8.4618    0.0000 C   0  0  0  0  0  0  0  0  0  0  0  0
   -8.2669   -8.5420    0.0000 C   0  0  0  0  0  0  0  0  0  0  0  0
   -6.7809   -8.3373    0.0000 C   0  0  0  0  0  0  0  0  0  0  0  0
   -5.3606   -7.8551    0.0000 C   0  0  0  0  0  0  0  0  0  0  0  0
   -4.0571   -7.1127    0.0000 C   0  0  0  0  0  0  0  0  0  0  0  0
   -2.9177   -6.1371    0.0000 C   0  0  0  0  0  0  0  0  0  0  0  0
   -1.9836   -4.9636    0.0000 C   0  0  0  0  0  0  0  0  0  0  0  0
  -12.3901   -9.0385    0.0000 C   0  0  0  0  0  0  0  0  0  0  0  0
  -10.8985   -9.5647    0.0000 C   0  0  0  0  0  0  0  0  0  0  0  0
   -9.6211  -10.3509    0.0000 O   0  0  0  0  0  0  0  0  0  0  0  0
  -12.0064  -10.5759    0.0000 N   0  0  0  0  0  0  0  0  0  0  0  0
  -11.6846  -12.0410    0.0000 C   0  0  0  0  0  0  0  0  0  0  0  0
  -10.8811  -13.3076    0.0000 C   0  0  0  0  0  0  0  0  0  0  0  0
  -11.5762  -14.6368    0.0000 C   0  0  0  0  0  0  0  0  0  0  0  0
  -10.7727  -15.9034    0.0000 C   0  0  0  0  0  0  0  0  0  0  0  0
  -11.3007  -17.3074    0.0000 N   0  0  0  0  0  0  0  0  0  0  0  0
   -9.2740  -15.8409    0.0000 O   0  0  0  0  0  0  0  0  0  0  0  0
  -12.7924  -13.0522    0.0000 C   0  0  0  0  0  0  0  0  0  0  0  0
  -14.2221  -12.5984    0.0000 O   0  0  0  0  0  0  0  0  0  0  0  0
  -12.4706  -14.5173    0.0000 N   0  0  0  0  0  0  0  0  0  0  0  0
  -13.5785  -15.5285    0.0000 C   0  0  0  0  0  0  0  0  0  0  0  0
  -14.9654  -16.0999    0.0000 C   0  0  0  0  0  0  0  0  0  0  0  0
  -16.1537  -15.1845    0.0000 C   0  0  0  0  0  0  0  0  0  0  0  0
  -17.5406  -15.7558    0.0000 C   0  0  0  0  0  0  0  0  0  0  0  0
  -18.7289  -14.8404    0.0000 N   0  0  0  0  0  0  0  0  0  0  0  0
  -20.1158  -15.4117    0.0000 C   0  0  0  0  0  0  0  0  0  0  0  0
  -21.3040  -14.4963    0.0000 N   0  0  0  0  0  0  0  0  0  0  0  0
  -20.3144  -16.8985    0.0000 N   0  0  0  0  0  0  0  0  0  0  0  0
  -13.2566  -16.9936    0.0000 C   0  0  0  0  0  0  0  0  0  0  0  0
  -14.2330  -18.1324    0.0000 O   0  0  0  0  0  0  0  0  0  0  0  0
  -11.8929  -17.6183    0.0000 O   0  0  0  0  0  0  0  0  0  0  0  0
   26.7874   -1.9253    0.0000 H   0  0  0  0  0  0  0  0  0  0  0  0
   26.4147   -6.4023    0.0000 H   0  0  0  0  0  0  0  0  0  0  0  0
   28.8078   -8.2116    0.0000 H   0  0  0  0  0  0  0  0  0  0  0  0
   29.1828   -2.2569    0.0000 H   0  0  0  0  0  0  0  0  0  0  0  0
   36.2939   -1.3931    0.0000 H   0  0  0  0  0  0  0  0  0  0  0  0
   36.7385   -6.5702    0.0000 H   0  0  0  0  0  0  0  0  0  0  0  0
   33.7495   -6.8269    0.0000 H   0  0  0  0  0  0  0  0  0  0  0  0
   38.8691   -5.0834    0.0000 H   0  0  0  0  0  0  0  0  0  0  0  0
   29.0437   -4.6234    0.0000 H   0  0  0  0  0  0  0  0  0  0  0  0
   27.3224   -1.9801    0.0000 H   0  0  0  0  0  0  0  0  0  0  0  0
   31.5880    0.8104    0.0000 H   0  0  0  0  0  0  0  0  0  0  0  0
   29.2351    1.9121    0.0000 H   0  0  0  0  0  0  0  0  0  0  0  0
   24.3920   -1.6160    0.0000 H   0  0  0  0  0  0  0  0  0  0  0  0
   23.6401   -4.9477    0.0000 H   0  0  0  0  0  0  0  0  0  0  0  0
   21.7265   -4.7097    0.0000 H   0  0  0  0  0  0  0  0  0  0  0  0
   22.7273   -1.7626    0.0000 H   0  0  0  0  0  0  0  0  0  0  0  0
   20.8137   -1.5245    0.0000 H   0  0  0  0  0  0  0  0  0  0  0  0
   19.2356   -0.9746    0.0000 H   0  0  0  0  0  0  0  0  0  0  0  0
   17.3337   -1.5849    0.0000 H   0  0  0  0  0  0  0  0  0  0  0  0
   17.2844   -5.2072    0.0000 H   0  0  0  0  0  0  0  0  0  0  0  0
   20.1882   -6.3807    0.0000 H   0  0  0  0  0  0  0  0  0  0  0  0
   20.9219   -5.3819    0.0000 H   0  0  0  0  0  0  0  0  0  0  0  0
   21.3635   -3.6463    0.0000 H   0  0  0  0  0  0  0  0  0  0  0  0
   20.0547   -2.7363    0.0000 H   0  0  0  0  0  0  0  0  0  0  0  0
   16.0389   -0.5284    0.0000 H   0  0  0  0  0  0  0  0  0  0  0  0
   14.0429   -0.4514    0.0000 H   0  0  0  0  0  0  0  0  0  0  0  0
   13.8276   -4.8569    0.0000 H   0  0  0  0  0  0  0  0  0  0  0  0
   12.7152   -3.6602    0.0000 H   0  0  0  0  0  0  0  0  0  0  0  0
   17.1246   -3.7667    0.0000 H   0  0  0  0  0  0  0  0  0  0  0  0
   16.1664   -2.4434    0.0000 H   0  0  0  0  0  0  0  0  0  0  0  0
   15.7765   -6.7935    0.0000 H   0  0  0  0  0  0  0  0  0  0  0  0
   14.4840   -5.5631    0.0000 H   0  0  0  0  0  0  0  0  0  0  0  0
   18.7085   -5.0207    0.0000 H   0  0  0  0  0  0  0  0  0  0  0  0
   19.4994   -9.1108    0.0000 H   0  0  0  0  0  0  0  0  0  0  0  0
   16.9670   -9.6912    0.0000 H   0  0  0  0  0  0  0  0  0  0  0  0
   15.1981   -7.7883    0.0000 H   0  0  0  0  0  0  0  0  0  0  0  0
   13.1875    0.9842    0.0000 H   0  0  0  0  0  0  0  0  0  0  0  0
   11.3382    1.7392    0.0000 H   0  0  0  0  0  0  0  0  0  0  0  0
    9.7868   -2.4201    0.0000 H   0  0  0  0  0  0  0  0  0  0  0  0
    9.0361   -0.6439    0.0000 H   0  0  0  0  0  0  0  0  0  0  0  0
   13.1002   -2.4302    0.0000 H   0  0  0  0  0  0  0  0  0  0  0  0
   12.6524   -0.8589    0.0000 H   0  0  0  0  0  0  0  0  0  0  0  0
   12.4926   -5.8710    0.0000 H   0  0  0  0  0  0  0  0  0  0  0  0
   14.1898   -4.1832    0.0000 H   0  0  0  0  0  0  0  0  0  0  0  0
   11.0863    3.2081    0.0000 H   0  0  0  0  0  0  0  0  0  0  0  0
    9.6133    2.1729    0.0000 H   0  0  0  0  0  0  0  0  0  0  0  0
    8.8366    0.9240    0.0000 H   0  0  0  0  0  0  0  0  0  0  0  0
    8.6143    0.1076    0.0000 H   0  0  0  0  0  0  0  0  0  0  0  0
    8.0146   -0.4133    0.0000 H   0  0  0  0  0  0  0  0  0  0  0  0
    7.5688   -0.8277    0.0000 H   0  0  0  0  0  0  0  0  0  0  0  0
    6.3060   -1.5816    0.0000 H   0  0  0  0  0  0  0  0  0  0  0  0
    5.3598   -2.1671    0.0000 H   0  0  0  0  0  0  0  0  0  0  0  0
   11.1302    3.8011    0.0000 H   0  0  0  0  0  0  0  0  0  0  0  0
   10.7554    5.5457    0.0000 H   0  0  0  0  0  0  0  0  0  0  0  0
    9.1390    5.7838    0.0000 H   0  0  0  0  0  0  0  0  0  0  0  0
    9.0828    7.3443    0.0000 H   0  0  0  0  0  0  0  0  0  0  0  0
    8.3359    7.9565    0.0000 H   0  0  0  0  0  0  0  0  0  0  0  0
    6.6674   10.6765    0.0000 H   0  0  0  0  0  0  0  0  0  0  0  0
    5.6516    9.6041    0.0000 H   0  0  0  0  0  0  0  0  0  0  0  0
   10.0164    9.7581    0.0000 H   0  0  0  0  0  0  0  0  0  0  0  0
    8.9563    8.3227    0.0000 H   0  0  0  0  0  0  0  0  0  0  0  0
    8.5137   12.7112    0.0000 H   0  0  0  0  0  0  0  0  0  0  0  0
    7.2865   11.4157    0.0000 H   0  0  0  0  0  0  0  0  0  0  0  0
   11.3345   10.7854    0.0000 H   0  0  0  0  0  0  0  0  0  0  0  0
   12.1119   15.2177    0.0000 H   0  0  0  0  0  0  0  0  0  0  0  0
    9.5529   15.6665    0.0000 H   0  0  0  0  0  0  0  0  0  0  0  0
    7.8847   13.6748    0.0000 H   0  0  0  0  0  0  0  0  0  0  0  0
    4.3965   10.5332    0.0000 H   0  0  0  0  0  0  0  0  0  0  0  0
    3.4521   10.3309    0.0000 H   0  0  0  0  0  0  0  0  0  0  0  0
    0.2853   10.7223    0.0000 H   0  0  0  0  0  0  0  0  0  0  0  0
    0.4904    9.2594    0.0000 H   0  0  0  0  0  0  0  0  0  0  0  0
    3.0914   12.7680    0.0000 H   0  0  0  0  0  0  0  0  0  0  0  0
    3.5526   11.0443    0.0000 H   0  0  0  0  0  0  0  0  0  0  0  0
   -0.1543   13.4344    0.0000 H   0  0  0  0  0  0  0  0  0  0  0  0
    0.0934   11.6672    0.0000 H   0  0  0  0  0  0  0  0  0  0  0  0
    3.1101   14.4391    0.0000 H   0  0  0  0  0  0  0  0  0  0  0  0
    0.1294   17.8104    0.0000 H   0  0  0  0  0  0  0  0  0  0  0  0
   -1.8170   16.0895    0.0000 H   0  0  0  0  0  0  0  0  0  0  0  0
   -1.2999   13.5434    0.0000 H   0  0  0  0  0  0  0  0  0  0  0  0
   -1.0185    8.8575    0.0000 H   0  0  0  0  0  0  0  0  0  0  0  0
   -1.6170    7.9194    0.0000 H   0  0  0  0  0  0  0  0  0  0  0  0
   -3.9114    6.2769    0.0000 H   0  0  0  0  0  0  0  0  0  0  0  0
   -2.6407    5.0240    0.0000 H   0  0  0  0  0  0  0  0  0  0  0  0
   -5.5575    8.9516    0.0000 H   0  0  0  0  0  0  0  0  0  0  0  0
   -5.6489    6.4629    0.0000 H   0  0  0  0  0  0  0  0  0  0  0  0
   -3.0846    3.5791    0.0000 H   0  0  0  0  0  0  0  0  0  0  0  0
   -0.8022   -0.5377    0.0000 H   0  0  0  0  0  0  0  0  0  0  0  0
   -1.9950    0.7814    0.0000 H   0  0  0  0  0  0  0  0  0  0  0  0
    0.7449   -1.5800    0.0000 H   0  0  0  0  0  0  0  0  0  0  0  0
   -0.4827   -1.1276    0.0000 H   0  0  0  0  0  0  0  0  0  0  0  0
    2.3575   -2.1804    0.0000 H   0  0  0  0  0  0  0  0  0  0  0  0
    1.2240   -2.0495    0.0000 H   0  0  0  0  0  0  0  0  0  0  0  0
    3.4347   -2.4590    0.0000 H   0  0  0  0  0  0  0  0  0  0  0  0
    0.2682    1.8000    0.0000 H   0  0  0  0  0  0  0  0  0  0  0  0
    0.4817    0.0788    0.0000 H   0  0  0  0  0  0  0  0  0  0  0  0
    0.7691   -0.4326    0.0000 H   0  0  0  0  0  0  0  0  0  0  0  0
    0.4572   -1.6525    0.0000 H   0  0  0  0  0  0  0  0  0  0  0  0
    0.6426   -2.2090    0.0000 H   0  0  0  0  0  0  0  0  0  0  0  0
    0.2386   -3.2219    0.0000 H   0  0  0  0  0  0  0  0  0  0  0  0
    0.1009   -4.2001    0.0000 H   0  0  0  0  0  0  0  0  0  0  0  0
   -1.8954    5.9063    0.0000 H   0  0  0  0  0  0  0  0  0  0  0  0
   -2.7739    6.6312    0.0000 H   0  0  0  0  0  0  0  0  0  0  0  0
   -3.2679    8.6082    0.0000 H   0  0  0  0  0  0  0  0  0  0  0  0
   -2.4768    6.7006    0.0000 H   0  0  0  0  0  0  0  0  0  0  0  0
   -6.5219    8.6128    0.0000 H   0  0  0  0  0  0  0  0  0  0  0  0
   -6.1816    7.0147    0.0000 H   0  0  0  0  0  0  0  0  0  0  0  0
   -4.4079   10.9428    0.0000 H   0  0  0  0  0  0  0  0  0  0  0  0
   -3.5285    9.3901    0.0000 H   0  0  0  0  0  0  0  0  0  0  0  0
   -7.7284   10.0980    0.0000 H   0  0  0  0  0  0  0  0  0  0  0  0
   -7.2973   14.2414    0.0000 H   0  0  0  0  0  0  0  0  0  0  0  0
   -4.7055   14.0614    0.0000 H   0  0  0  0  0  0  0  0  0  0  0  0
   -3.5655   11.7268    0.0000 H   0  0  0  0  0  0  0  0  0  0  0  0
   -6.3283    8.4534    0.0000 H   0  0  0  0  0  0  0  0  0  0  0  0
   -7.3161    8.4505    0.0000 H   0  0  0  0  0  0  0  0  0  0  0  0
  -10.0234    9.5240    0.0000 H   0  0  0  0  0  0  0  0  0  0  0  0
  -10.2578    7.9071    0.0000 H   0  0  0  0  0  0  0  0  0  0  0  0
   -7.2097   11.0116    0.0000 H   0  0  0  0  0  0  0  0  0  0  0  0
   -6.8775    8.9734    0.0000 H   0  0  0  0  0  0  0  0  0  0  0  0
   -9.9668   12.1215    0.0000 H   0  0  0  0  0  0  0  0  0  0  0  0
  -10.1145   10.3432    0.0000 H   0  0  0  0  0  0  0  0  0  0  0  0
   -6.5979   12.7461    0.0000 H   0  0  0  0  0  0  0  0  0  0  0  0
   -8.7259   16.3274    0.0000 H   0  0  0  0  0  0  0  0  0  0  0  0
  -11.0037   15.0777    0.0000 H   0  0  0  0  0  0  0  0  0  0  0  0
  -11.0602   12.4802    0.0000 H   0  0  0  0  0  0  0  0  0  0  0  0
  -11.4380    8.2810    0.0000 H   0  0  0  0  0  0  0  0  0  0  0  0
  -12.2618    7.6782    0.0000 H   0  0  0  0  0  0  0  0  0  0  0  0
  -15.3020    7.1358    0.0000 H   0  0  0  0  0  0  0  0  0  0  0  0
  -14.6250    5.6488    0.0000 H   0  0  0  0  0  0  0  0  0  0  0  0
  -13.3809    9.8354    0.0000 H   0  0  0  0  0  0  0  0  0  0  0  0
  -12.3642    8.5564    0.0000 H   0  0  0  0  0  0  0  0  0  0  0  0
  -16.6587    9.3514    0.0000 H   0  0  0  0  0  0  0  0  0  0  0  0
  -15.8215    7.7756    0.0000 H   0  0  0  0  0  0  0  0  0  0  0  0
  -13.9348   11.4120    0.0000 H   0  0  0  0  0  0  0  0  0  0  0  0
  -17.8887   13.5606    0.0000 H   0  0  0  0  0  0  0  0  0  0  0  0
  -19.1292   11.2778    0.0000 H   0  0  0  0  0  0  0  0  0  0  0  0
  -17.7725    9.0621    0.0000 H   0  0  0  0  0  0  0  0  0  0  0  0
  -15.8200    5.3253    0.0000 H   0  0  0  0  0  0  0  0  0  0  0  0
  -16.3503    4.2894    0.0000 H   0  0  0  0  0  0  0  0  0  0  0  0
  -18.5162    2.4441    0.0000 H   0  0  0  0  0  0  0  0  0  0  0  0
  -17.0780    1.3879    0.0000 H   0  0  0  0  0  0  0  0  0  0  0  0
  -16.0401    6.1309    0.0000 H   0  0  0  0  0  0  0  0  0  0  0  0
  -18.5572    7.9582    0.0000 H   0  0  0  0  0  0  0  0  0  0  0  0
  -21.7200    7.4137    0.0000 H   0  0  0  0  0  0  0  0  0  0  0  0
  -23.7962    5.2481    0.0000 H   0  0  0  0  0  0  0  0  0  0  0  0
  -22.9588    2.3673    0.0000 H   0  0  0  0  0  0  0  0  0  0  0  0
  -20.0453    1.6521    0.0000 H   0  0  0  0  0  0  0  0  0  0  0  0
  -17.9084    0.4697    0.0000 H   0  0  0  0  0  0  0  0  0  0  0  0
  -17.7024   -0.5302    0.0000 H   0  0  0  0  0  0  0  0  0  0  0  0
  -18.4719   -3.5209    0.0000 H   0  0  0  0  0  0  0  0  0  0  0  0
  -16.8380   -3.5228    0.0000 H   0  0  0  0  0  0  0  0  0  0  0  0
  -20.1294   -0.6519    0.0000 H   0  0  0  0  0  0  0  0  0  0  0  0
  -18.5437   -0.2584    0.0000 H   0  0  0  0  0  0  0  0  0  0  0  0
  -21.0509   -3.8346    0.0000 H   0  0  0  0  0  0  0  0  0  0  0  0
  -19.2697   -3.7277    0.0000 H   0  0  0  0  0  0  0  0  0  0  0  0
  -21.7938   -0.5009    0.0000 H   0  0  0  0  0  0  0  0  0  0  0  0
  -25.3907   -3.2049    0.0000 H   0  0  0  0  0  0  0  0  0  0  0  0
  -23.8295   -5.2816    0.0000 H   0  0  0  0  0  0  0  0  0  0  0  0
  -21.2504   -4.9679    0.0000 H   0  0  0  0  0  0  0  0  0  0  0  0
  -17.0402   -4.7442    0.0000 H   0  0  0  0  0  0  0  0  0  0  0  0
  -16.3263   -5.4739    0.0000 H   0  0  0  0  0  0  0  0  0  0  0  0
  -15.5395   -8.3937    0.0000 H   0  0  0  0  0  0  0  0  0  0  0  0
  -13.9812   -7.5242    0.0000 H   0  0  0  0  0  0  0  0  0  0  0  0
  -18.3022   -6.8886    0.0000 H   0  0  0  0  0  0  0  0  0  0  0  0
  -17.1810   -5.7002    0.0000 H   0  0  0  0  0  0  0  0  0  0  0  0
  -16.9119  -11.1254    0.0000 H   0  0  0  0  0  0  0  0  0  0  0  0
  -13.4909   -8.6610    0.0000 H   0  0  0  0  0  0  0  0  0  0  0  0
   -9.1715   -9.8395    0.0000 H   0  0  0  0  0  0  0  0  0  0  0  0
  -10.4302   -9.8061    0.0000 H   0  0  0  0  0  0  0  0  0  0  0  0
   -7.5811   -9.8761    0.0000 H   0  0  0  0  0  0  0  0  0  0  0  0
   -8.6659   -9.9880    0.0000 H   0  0  0  0  0  0  0  0  0  0  0  0
   -5.8551   -9.5175    0.0000 H   0  0  0  0  0  0  0  0  0  0  0  0
   -7.0805   -9.8071    0.0000 H   0  0  0  0  0  0  0  0  0  0  0  0
   -4.2281   -8.8387    0.0000 H   0  0  0  0  0  0  0  0  0  0  0  0
   -5.3765   -9.3550    0.0000 H   0  0  0  0  0  0  0  0  0  0  0  0
   -2.7590   -7.8642    0.0000 H   0  0  0  0  0  0  0  0  0  0  0  0
   -3.7889   -8.5886    0.0000 H   0  0  0  0  0  0  0  0  0  0  0  0
   -1.4514   -6.4530    0.0000 H   0  0  0  0  0  0  0  0  0  0  0  0
   -2.3751   -7.5355    0.0000 H   0  0  0  0  0  0  0  0  0  0  0  0
   -0.7265   -5.7819    0.0000 H   0  0  0  0  0  0  0  0  0  0  0  0
  -12.5274  -10.5322    0.0000 H   0  0  0  0  0  0  0  0  0  0  0  0
  -13.8105   -9.5208    0.0000 H   0  0  0  0  0  0  0  0  0  0  0  0
  -13.4085   -7.9372    0.0000 H   0  0  0  0  0  0  0  0  0  0  0  0
  -13.4808  -10.2998    0.0000 H   0  0  0  0  0  0  0  0  0  0  0  0
  -10.2976  -11.4696    0.0000 H   0  0  0  0  0  0  0  0  0  0  0  0
   -9.6928  -14.2231    0.0000 H   0  0  0  0  0  0  0  0  0  0  0  0
   -9.7732  -12.2964    0.0000 H   0  0  0  0  0  0  0  0  0  0  0  0
  -12.6841  -15.6480    0.0000 H   0  0  0  0  0  0  0  0  0  0  0  0
  -13.0552  -14.3865    0.0000 H   0  0  0  0  0  0  0  0  0  0  0  0
  -10.6644  -18.4993    0.0000 H   0  0  0  0  0  0  0  0  0  0  0  0
  -12.9201  -17.6986    0.0000 H   0  0  0  0  0  0  0  0  0  0  0  0
  -11.1932  -15.3036    0.0000 H   0  0  0  0  0  0  0  0  0  0  0  0
  -14.2216  -14.1734    0.0000 H   0  0  0  0  0  0  0  0  0  0  0  0
  -15.9417  -17.2387    0.0000 H   0  0  0  0  0  0  0  0  0  0  0  0
  -14.3223  -17.4550    0.0000 H   0  0  0  0  0  0  0  0  0  0  0  0
  -16.9572  -13.9178    0.0000 H   0  0  0  0  0  0  0  0  0  0  0  0
  -15.1773  -14.0457    0.0000 H   0  0  0  0  0  0  0  0  0  0  0  0
  -18.6485  -16.7671    0.0000 H   0  0  0  0  0  0  0  0  0  0  0  0
  -16.8975  -17.1110    0.0000 H   0  0  0  0  0  0  0  0  0  0  0  0
  -18.5302  -13.3536    0.0000 H   0  0  0  0  0  0  0  0  0  0  0  0
  -22.6910  -15.0676    0.0000 H   0  0  0  0  0  0  0  0  0  0  0  0
  -21.7014  -17.4699    0.0000 H   0  0  0  0  0  0  0  0  0  0  0  0
  -19.1262  -17.8140    0.0000 H   0  0  0  0  0  0  0  0  0  0  0  0
  -11.5051  -18.9125    0.0000 H   0  0  0  0  0  0  0  0  0  0  0  0
  1  2  1  0
  2  3  1  0
  3  4  2  0
  4  5  1  0
  5  6  2  0
  6  7  1  0
  7  8  2  0
  7  9  1  0
  9 10  1  0
 10 11  1  0
 11 12  2  0
  9 13  1  0
 13 14  1  0
 14 15  2  0
 15 16  1  0
 16 17  2  0
 17 18  1  0
 16 19  1  0
 14 20  1  0
 20 21  1  0
 21 22  2  0
 22 23  1  0
 23 24  2  0
 24 25  1  0
 25 26  2  0
 25 27  1  0
  1 28  2  0
  1 29  1  0
 29 30  1  0
 30 31  1  0
 31 32  1  0
 32 33  2  0
 32 34  1  0
 34 35  1  0
 35 36  1  0
 36 37  1  0
 36 38  1  0
 35 39  1  0
 39 40  2  0
 39 41  1  0
 41 42  1  0
 42 43  1  0
 43 44  1  0
 44 45  1  0
 45 46  1  0
 46 47  1  0
 47 48  2  3
 47 49  1  0
 42 50  1  0
 50 51  2  0
 50 52  1  0
 52 53  1  0
 53 54  1  0
 54 55  1  0
 55 56  1  0
 56 57  1  0
 56 58  2  0
 53 59  1  0
 59 60  2  0
 59 61  1  0
 62 61  1  1
 62 63  1  0
 63 64  1  0
 64 65  1  0
 65 66  1  0
 62 67  1  0
 62 68  1  0
 68 69  2  0
 68 70  1  0
 70 71  1  0
 71 72  1  0
 72 73  1  0
 73 74  1  0
 74 75  1  0
 75 76  1  0
 76 77  2  3
 76 78  1  0
 71 79  1  0
 79 80  2  0
 79 81  1  0
 81 82  1  0
 82 83  1  0
 83 84  1  0
 84 85  1  0
 85 86  1  0
 86 87  1  0
 87 88  2  3
 87 89  1  0
 82 90  1  0
 90 91  2  0
 90 92  1  0
 92 93  1  0
 93 94  1  0
 94 95  1  0
 95 96  1  0
 95 97  2  0
 93 98  1  0
 98 99  2  0
 98100  1  0
100101  1  0
101102  1  0
102103  1  0
103104  1  0
104105  1  0
101106  1  0
106107  1  0
107108  1  0
108109  1  0
101110  1  0
110111  2  0
110112  1  0
112113  1  0
113114  1  0
114115  1  0
115116  1  0
116117  1  0
117118  1  0
118119  2  3
118120  1  0
113121  1  0
121122  2  0
121123  1  0
123124  1  0
124125  1  0
125126  1  0
126127  1  0
127128  1  0
128129  1  0
129130  2  3
129131  1  0
124132  1  0
132133  2  0
132134  1  0
134135  1  0
135136  1  0
136137  1  0
137138  1  0
138139  1  0
139140  1  0
140141  2  3
140142  1  0
135143  1  0
143144  2  0
143145  1  0
145146  1  0
146147  1  0
147148  1  0
148149  2  0
149150  1  0
150151  1  0
151152  2  0
152153  1  0
153154  2  0
154155  1  0
155156  2  0
146157  1  0
157158  2  0
157159  1  0
159160  1  0
160161  1  0
161162  1  0
162163  1  0
163164  1  0
164165  1  0
165166  2  3
165167  1  0
160168  1  0
168169  2  0
168170  1  0
170171  1  0
171172  1  0
172173  1  0
173174  1  0
174175  2  0
174176  1  0
171177  1  0
177178  2  0
177179  1  0
179180  1  0
180181  1  0
181182  1  0
182183  1  0
183184  1  0
184185  1  0
185186  1  0
186187  1  0
180188  1  0
180189  1  1
189190  2  0
189191  1  0
191192  1  0
192193  1  0
193194  1  0
194195  1  0
195196  1  0
195197  2  0
192198  1  0
198199  2  0
198200  1  0
200201  1  0
201202  1  0
202203  1  0
203204  1  0
204205  1  0
205206  1  0
206207  2  3
206208  1  0
201209  1  0
209210  2  0
209211  1  0
  8  3  1  0
156148  1  0
 11  6  1  0
 66105  2  0
156151  1  0
 18 13  2  0
109187  2  0
 22  9  1  0
 26 21  1  0
  2212  1  0
  4213  1  0
  5214  1  0
  8215  1  0
 15216  1  0
 17217  1  0
 18218  1  0
 19219  1  0
 23220  1  0
 24221  1  0
 26222  1  0
 27223  1  0
 29224  1  0
 30225  1  0
 30226  1  0
 31227  1  0
 31228  1  0
 34229  1  0
 35230  1  1
 36231  1  6
 37232  1  0
 38233  1  0
 38234  1  0
 38235  1  0
 41236  1  0
 42237  1  1
 43238  1  0
 43239  1  0
 44240  1  0
 44241  1  0
 45242  1  0
 45243  1  0
 46244  1  0
 48245  1  0
 49246  1  0
 49247  1  0
 52248  1  0
 53249  1  1
 54250  1  0
 54251  1  0
 55252  1  0
 55253  1  0
 57254  1  0
 57255  1  0
 61256  1  0
 63257  1  0
 63258  1  0
 64259  1  0
 64260  1  0
 65261  1  0
 65262  1  0
 66263  1  0
 67264  1  0
 67265  1  0
 67266  1  0
 70267  1  0
 71268  1  6
 72269  1  0
 72270  1  0
 73271  1  0
 73272  1  0
 74273  1  0
 74274  1  0
 75275  1  0
 77276  1  0
 78277  1  0
 78278  1  0
 81279  1  0
 82280  1  6
 83281  1  0
 83282  1  0
 84283  1  0
 84284  1  0
 85285  1  0
 85286  1  0
 86287  1  0
 88288  1  0
 89289  1  0
 89290  1  0
 92291  1  0
 93292  1  6
 94293  1  0
 94294  1  0
 96295  1  0
 96296  1  0
100297  1  0
102298  1  0
102299  1  0
103300  1  0
103301  1  0
104302  1  0
104303  1  0
105304  1  0
106305  1  0
106306  1  0
107307  1  0
107308  1  0
108309  1  0
108310  1  0
109311  1  0
112312  1  0
113313  1  6
114314  1  0
114315  1  0
115316  1  0
115317  1  0
116318  1  0
116319  1  0
117320  1  0
119321  1  0
120322  1  0
120323  1  0
123324  1  0
124325  1  6
125326  1  0
125327  1  0
126328  1  0
126329  1  0
127330  1  0
127331  1  0
128332  1  0
130333  1  0
131334  1  0
131335  1  0
134336  1  0
135337  1  6
136338  1  0
136339  1  0
137340  1  0
137341  1  0
138342  1  0
138343  1  0
139344  1  0
141345  1  0
142346  1  0
142347  1  0
145348  1  0
146349  1  6
147350  1  0
147351  1  0
149352  1  0
150353  1  0
152354  1  0
153355  1  0
154356  1  0
155357  1  0
159358  1  0
160359  1  6
161360  1  0
161361  1  0
162362  1  0
162363  1  0
163364  1  0
163365  1  0
164366  1  0
166367  1  0
167368  1  0
167369  1  0
170370  1  0
171371  1  6
172372  1  0
172373  1  0
173374  1  0
173375  1  0
176376  1  0
179377  1  0
181378  1  0
181379  1  0
182380  1  0
182381  1  0
183382  1  0
183383  1  0
184384  1  0
184385  1  0
185386  1  0
185387  1  0
186388  1  0
186389  1  0
187390  1  0
188391  1  0
188392  1  0
188393  1  0
191394  1  0
192395  1  1
193396  1  0
193397  1  0
194398  1  0
194399  1  0
196400  1  0
196401  1  0
200402  1  0
201403  1  6
202404  1  0
202405  1  0
203406  1  0
203407  1  0
204408  1  0
204409  1  0
205410  1  0
207411  1  0
208412  1  0
208413  1  0
211414  1  0
M  END
