
     RDKit          2D

220227  0  0  0  0  0  0  0  0999 V2000
   14.8735   -0.7022    0.0000 C   0  0  0  0  0  0  0  0  0  0  0  0
   16.2345   -0.0716    0.0000 N   0  0  0  0  0  0  0  0  0  0  0  0
   17.4611   -0.9350    0.0000 C   0  0  0  0  0  0  0  0  0  0  0  0
   17.3267   -2.4289    0.0000 C   0  0  0  0  0  0  0  0  0  0  0  0
   18.5534   -3.2923    0.0000 C   0  0  0  0  0  0  0  0  0  0  0  0
   19.9144   -2.6617    0.0000 C   0  0  0  0  0  0  0  0  0  0  0  0
   20.0488   -1.1677    0.0000 C   0  0  0  0  0  0  0  0  0  0  0  0
   18.8222   -0.3044    0.0000 C   0  0  0  0  0  0  0  0  0  0  0  0
   21.5111   -0.8339    0.0000 C   0  0  0  0  0  0  0  0  0  0  0  0
   22.2805   -2.1215    0.0000 O   0  0  0  0  0  0  0  0  0  0  0  0
   21.2937   -3.2512    0.0000 C   0  0  0  0  0  0  0  0  0  0  0  0
   21.6275   -4.7136    0.0000 O   0  0  0  0  0  0  0  0  0  0  0  0
   23.0004   -0.6548    0.0000 C   0  0  0  0  0  0  0  0  0  0  0  0
   23.5899    0.7246    0.0000 C   0  0  0  0  0  0  0  0  0  0  0  0
   25.0792    0.9037    0.0000 C   0  0  0  0  0  0  0  0  0  0  0  0
   25.9789   -0.2964    0.0000 C   0  0  0  0  0  0  0  0  0  0  0  0
   25.3895   -1.6758    0.0000 C   0  0  0  0  0  0  0  0  0  0  0  0
   23.9002   -1.8549    0.0000 C   0  0  0  0  0  0  0  0  0  0  0  0
   27.4682   -0.1173    0.0000 O   0  0  0  0  0  0  0  0  0  0  0  0
   22.6901    1.9247    0.0000 O   0  0  0  0  0  0  0  0  0  0  0  0
   21.2008    1.7456    0.0000 C   0  0  0  0  0  0  0  0  0  0  0  0
   20.6114    0.3663    0.0000 C   0  0  0  0  0  0  0  0  0  0  0  0
   19.3972    0.8308    0.0000 C   0  0  0  0  0  0  0  0  0  0  0  0
   18.9173    1.4709    0.0000 C   0  0  0  0  0  0  0  0  0  0  0  0
   19.2317    2.2065    0.0000 C   0  0  0  0  0  0  0  0  0  0  0  0
   20.0260    2.3021    0.0000 C   0  0  0  0  0  0  0  0  0  0  0  0
   17.9120    3.9668    0.0000 O   0  0  0  0  0  0  0  0  0  0  0  0
   14.7391   -2.1961    0.0000 S   0  0  0  0  0  0  0  0  0  0  0  0
   13.6469    0.1612    0.0000 N   0  0  0  0  0  0  0  0  0  0  0  0
   12.2859   -0.4694    0.0000 C   0  0  0  0  0  0  0  0  0  0  0  0
   11.0593    0.3940    0.0000 C   0  0  0  0  0  0  0  0  0  0  0  0
    9.6983   -0.2366    0.0000 C   0  0  0  0  0  0  0  0  0  0  0  0
    9.5639   -1.7306    0.0000 O   0  0  0  0  0  0  0  0  0  0  0  0
    8.4716    0.6268    0.0000 N   0  0  0  0  0  0  0  0  0  0  0  0
    7.1106   -0.0038    0.0000 C   0  0  0  0  0  0  0  0  0  0  0  0
    6.0474   -1.0619    0.0000 C   0  0  0  0  0  0  0  0  0  0  0  0
    4.5994   -0.6701    0.0000 C   0  0  0  0  0  0  0  0  0  0  0  0
    3.5362   -1.7282    0.0000 C   0  0  0  0  0  0  0  0  0  0  0  0
    2.0883   -1.3364    0.0000 N   0  0  0  0  0  0  0  0  0  0  0  0
    1.0250   -2.3944    0.0000 C   0  0  0  0  0  0  0  0  0  0  0  0
   -0.3644   -1.8291    0.0000 N   0  0  0  0  0  0  0  0  0  0  0  0
    1.4097   -3.8443    0.0000 N   0  0  0  0  0  0  0  0  0  0  0  0
    5.8840    0.8596    0.0000 C   0  0  0  0  0  0  0  0  0  0  0  0
    6.0184    2.3535    0.0000 O   0  0  0  0  0  0  0  0  0  0  0  0
    4.5230    0.2290    0.0000 N   0  0  0  0  0  0  0  0  0  0  0  0
    3.2964    1.0923    0.0000 C   0  0  0  0  0  0  0  0  0  0  0  0
    2.4390    2.3232    0.0000 C   0  0  0  0  0  0  0  0  0  0  0  0
    3.0763    3.6811    0.0000 C   0  0  0  0  0  0  0  0  0  0  0  0
    2.2190    4.9119    0.0000 C   0  0  0  0  0  0  0  0  0  0  0  0
    2.8562    6.2698    0.0000 C   0  0  0  0  0  0  0  0  0  0  0  0
    1.9989    7.5006    0.0000 N   0  0  0  0  0  0  0  0  0  0  0  0
    1.9354    0.4617    0.0000 C   0  0  0  0  0  0  0  0  0  0  0  0
    1.5768   -0.5713    0.0000 O   0  0  0  0  0  0  0  0  0  0  0  0
    0.7088    1.3251    0.0000 N   0  0  0  0  0  0  0  0  0  0  0  0
   -0.6522    0.6945    0.0000 C   0  0  0  0  0  0  0  0  0  0  0  0
   -1.7155   -0.3635    0.0000 C   0  0  0  0  0  0  0  0  0  0  0  0
   -3.1634    0.0283    0.0000 C   0  0  0  0  0  0  0  0  0  0  0  0
   -3.5481    1.4781    0.0000 C   0  0  0  0  0  0  0  0  0  0  0  0
   -2.5051    2.1012    0.0000 F   0  0  0  0  0  0  0  0  0  0  0  0
   -4.9960    1.8699    0.0000 C   0  0  0  0  0  0  0  0  0  0  0  0
   -5.7201    3.1835    0.0000 F   0  0  0  0  0  0  0  0  0  0  0  0
   -6.0593    0.8118    0.0000 C   0  0  0  0  0  0  0  0  0  0  0  0
   -7.5072    1.2036    0.0000 F   0  0  0  0  0  0  0  0  0  0  0  0
   -5.6746   -0.6380    0.0000 C   0  0  0  0  0  0  0  0  0  0  0  0
   -6.9623   -1.4074    0.0000 F   0  0  0  0  0  0  0  0  0  0  0  0
   -4.2267   -1.0298    0.0000 C   0  0  0  0  0  0  0  0  0  0  0  0
   -3.5026   -2.3435    0.0000 F   0  0  0  0  0  0  0  0  0  0  0  0
   -1.8789    1.5579    0.0000 C   0  0  0  0  0  0  0  0  0  0  0  0
   -1.3870    2.9750    0.0000 O   0  0  0  0  0  0  0  0  0  0  0  0
   -3.2399    0.9273    0.0000 N   0  0  0  0  0  0  0  0  0  0  0  0
   -4.4665    1.7907    0.0000 C   0  0  0  0  0  0  0  0  0  0  0  0
   -4.6308    3.2817    0.0000 C   0  0  0  0  0  0  0  0  0  0  0  0
   -5.2272    4.6580    0.0000 C   0  0  0  0  0  0  0  0  0  0  0  0
   -6.2029    5.7973    0.0000 C   0  0  0  0  0  0  0  0  0  0  0  0
   -7.4710    6.5985    0.0000 C   0  0  0  0  0  0  0  0  0  0  0  0
   -3.1750    2.5537    0.0000 C   0  0  0  0  0  0  0  0  0  0  0  0
   -4.7490    0.3175    0.0000 C   0  0  0  0  0  0  0  0  0  0  0  0
   -3.6072   -0.6553    0.0000 O   0  0  0  0  0  0  0  0  0  0  0  0
   -5.4531   -1.0069    0.0000 N   0  0  0  0  0  0  0  0  0  0  0  0
   -6.5164   -2.0650    0.0000 C   0  0  0  0  0  0  0  0  0  0  0  0
   -6.4266   -3.5623    0.0000 C   0  0  0  0  0  0  0  0  0  0  0  0
   -5.0850   -4.2332    0.0000 C   0  0  0  0  0  0  0  0  0  0  0  0
   -4.9953   -5.7305    0.0000 C   0  0  0  0  0  0  0  0  0  0  0  0
   -3.6537   -6.4014    0.0000 N   0  0  0  0  0  0  0  0  0  0  0  0
   -3.5639   -7.8987    0.0000 C   0  0  0  0  0  0  0  0  0  0  0  0
   -2.2223   -8.5697    0.0000 N   0  0  0  0  0  0  0  0  0  0  0  0
   -4.8157   -8.7251    0.0000 N   0  0  0  0  0  0  0  0  0  0  0  0
   -7.8443   -2.7626    0.0000 C   0  0  0  0  0  0  0  0  0  0  0  0
   -7.3523   -4.1797    0.0000 O   0  0  0  0  0  0  0  0  0  0  0  0
   -9.3188   -3.0379    0.0000 N   0  0  0  0  0  0  0  0  0  0  0  0
  -10.8089   -2.8663    0.0000 C   0  0  0  0  0  0  0  0  0  0  0  0
  -11.9236   -3.8700    0.0000 C   0  0  0  0  0  0  0  0  0  0  0  0
  -11.6117   -5.3372    0.0000 C   0  0  0  0  0  0  0  0  0  0  0  0
  -12.7264   -6.3410    0.0000 C   0  0  0  0  0  0  0  0  0  0  0  0
  -10.8168   -6.6093    0.0000 C   0  0  0  0  0  0  0  0  0  0  0  0
  -12.1823   -2.2631    0.0000 C   0  0  0  0  0  0  0  0  0  0  0  0
  -12.9835   -3.5312    0.0000 O   0  0  0  0  0  0  0  0  0  0  0  0
  -13.3169   -1.2819    0.0000 N   0  0  0  0  0  0  0  0  0  0  0  0
  -14.1118   -0.0098    0.0000 C   0  0  0  0  0  0  0  0  0  0  0  0
  -15.5915    0.2359    0.0000 C   0  0  0  0  0  0  0  0  0  0  0  0
  -16.5442   -0.9228    0.0000 C   0  0  0  0  0  0  0  0  0  0  0  0
  -18.0239   -0.6771    0.0000 C   0  0  0  0  0  0  0  0  0  0  0  0
  -18.9765   -1.8358    0.0000 C   0  0  0  0  0  0  0  0  0  0  0  0
  -18.4494   -3.2401    0.0000 C   0  0  0  0  0  0  0  0  0  0  0  0
  -16.9697   -3.4858    0.0000 C   0  0  0  0  0  0  0  0  0  0  0  0
  -16.0171   -2.3271    0.0000 C   0  0  0  0  0  0  0  0  0  0  0  0
  -14.4965    1.4400    0.0000 C   0  0  0  0  0  0  0  0  0  0  0  0
  -15.9875    1.2757    0.0000 O   0  0  0  0  0  0  0  0  0  0  0  0
  -14.4367    2.9388    0.0000 N   0  0  0  0  0  0  0  0  0  0  0  0
  -13.9378    4.3534    0.0000 C   0  0  0  0  0  0  0  0  0  0  0  0
  -13.0441    5.5581    0.0000 C   0  0  0  0  0  0  0  0  0  0  0  0
  -11.8351    6.4459    0.0000 C   0  0  0  0  0  0  0  0  0  0  0  0
  -10.4180    6.9379    0.0000 C   0  0  0  0  0  0  0  0  0  0  0  0
   -8.9189    6.9903    0.0000 C   0  0  0  0  0  0  0  0  0  0  0  0
  -15.4324    4.2264    0.0000 C   0  0  0  0  0  0  0  0  0  0  0  0
  -14.6684    5.6635    0.0000 C   0  0  0  0  0  0  0  0  0  0  0  0
  -16.1543    5.8686    0.0000 O   0  0  0  0  0  0  0  0  0  0  0  0
  -14.2335    7.0991    0.0000 O   0  0  0  0  0  0  0  0  0  0  0  0
   16.1858    1.4276    0.0000 H   0  0  0  0  0  0  0  0  0  0  0  0
   15.9657   -3.0595    0.0000 H   0  0  0  0  0  0  0  0  0  0  0  0
   18.4190   -4.7863    0.0000 H   0  0  0  0  0  0  0  0  0  0  0  0
   18.5911    1.1777    0.0000 H   0  0  0  0  0  0  0  0  0  0  0  0
   25.6686    2.2830    0.0000 H   0  0  0  0  0  0  0  0  0  0  0  0
   26.2892   -2.8759    0.0000 H   0  0  0  0  0  0  0  0  0  0  0  0
   23.3107   -3.2342    0.0000 H   0  0  0  0  0  0  0  0  0  0  0  0
   28.3680   -1.3175    0.0000 H   0  0  0  0  0  0  0  0  0  0  0  0
   18.5326   -1.1922    0.0000 H   0  0  0  0  0  0  0  0  0  0  0  0
   16.7223    1.3910    0.0000 H   0  0  0  0  0  0  0  0  0  0  0  0
   20.8905    4.3251    0.0000 H   0  0  0  0  0  0  0  0  0  0  0  0
   18.5015    5.3461    0.0000 H   0  0  0  0  0  0  0  0  0  0  0  0
   13.7813    1.6552    0.0000 H   0  0  0  0  0  0  0  0  0  0  0  0
   11.2226   -1.5274    0.0000 H   0  0  0  0  0  0  0  0  0  0  0  0
   13.1432   -1.7002    0.0000 H   0  0  0  0  0  0  0  0  0  0  0  0
   10.2019    1.6248    0.0000 H   0  0  0  0  0  0  0  0  0  0  0  0
   12.1225    1.4520    0.0000 H   0  0  0  0  0  0  0  0  0  0  0  0
    8.6060    2.1207    0.0000 H   0  0  0  0  0  0  0  0  0  0  0  0
    7.9680   -1.2347    0.0000 H   0  0  0  0  0  0  0  0  0  0  0  0
    5.5804   -2.4873    0.0000 H   0  0  0  0  0  0  0  0  0  0  0  0
    7.2740   -1.9253    0.0000 H   0  0  0  0  0  0  0  0  0  0  0  0
    3.3728    0.1933    0.0000 H   0  0  0  0  0  0  0  0  0  0  0  0
    4.5245    0.8280    0.0000 H   0  0  0  0  0  0  0  0  0  0  0  0
    2.8989   -3.0861    0.0000 H   0  0  0  0  0  0  0  0  0  0  0  0
    4.6484   -2.7346    0.0000 H   0  0  0  0  0  0  0  0  0  0  0  0
    1.3642   -0.0227    0.0000 H   0  0  0  0  0  0  0  0  0  0  0  0
   -1.4862   -3.0607    0.0000 H   0  0  0  0  0  0  0  0  0  0  0  0
   -0.6487   -0.5083    0.0000 H   0  0  0  0  0  0  0  0  0  0  0  0
    0.3464   -4.9023    0.0000 H   0  0  0  0  0  0  0  0  0  0  0  0
    2.8576   -4.2360    0.0000 H   0  0  0  0  0  0  0  0  0  0  0  0
    4.0311   -1.1881    0.0000 H   0  0  0  0  0  0  0  0  0  0  0  0
    4.4807    2.0129    0.0000 H   0  0  0  0  0  0  0  0  0  0  0  0
    1.2124    3.1865    0.0000 H   0  0  0  0  0  0  0  0  0  0  0  0
    1.1514    1.5538    0.0000 H   0  0  0  0  0  0  0  0  0  0  0  0
    4.2606    4.6016    0.0000 H   0  0  0  0  0  0  0  0  0  0  0  0
    4.3990    2.9737    0.0000 H   0  0  0  0  0  0  0  0  0  0  0  0
    0.8962    5.6193    0.0000 H   0  0  0  0  0  0  0  0  0  0  0  0
    1.0347    3.9913    0.0000 H   0  0  0  0  0  0  0  0  0  0  0  0
    3.9195    7.3279    0.0000 H   0  0  0  0  0  0  0  0  0  0  0  0
    4.1789    5.5624    0.0000 H   0  0  0  0  0  0  0  0  0  0  0  0
    2.6361    8.8585    0.0000 H   0  0  0  0  0  0  0  0  0  0  0  0
    0.7723    8.3640    0.0000 H   0  0  0  0  0  0  0  0  0  0  0  0
    0.8146    6.5801    0.0000 H   0  0  0  0  0  0  0  0  0  0  0  0
    0.6601    2.8243    0.0000 H   0  0  0  0  0  0  0  0  0  0  0  0
    0.2051   -0.5363    0.0000 H   0  0  0  0  0  0  0  0  0  0  0  0
   -2.3528   -1.7214    0.0000 H   0  0  0  0  0  0  0  0  0  0  0  0
   -0.3164   -0.9044    0.0000 H   0  0  0  0  0  0  0  0  0  0  0  0
   -3.5554   -0.5391    0.0000 H   0  0  0  0  0  0  0  0  0  0  0  0
   -3.1344    3.1772    0.0000 H   0  0  0  0  0  0  0  0  0  0  0  0
   -3.6216    4.3914    0.0000 H   0  0  0  0  0  0  0  0  0  0  0  0
   -3.7666    4.9992    0.0000 H   0  0  0  0  0  0  0  0  0  0  0  0
   -4.4292    5.9281    0.0000 H   0  0  0  0  0  0  0  0  0  0  0  0
   -4.8251    6.3904    0.0000 H   0  0  0  0  0  0  0  0  0  0  0  0
   -5.9942    7.2827    0.0000 H   0  0  0  0  0  0  0  0  0  0  0  0
   -6.8678    7.9719    0.0000 H   0  0  0  0  0  0  0  0  0  0  0  0
   -2.8267    4.0126    0.0000 H   0  0  0  0  0  0  0  0  0  0  0  0
   -1.8109    3.1775    0.0000 H   0  0  0  0  0  0  0  0  0  0  0  0
   -2.3238    1.3186    0.0000 H   0  0  0  0  0  0  0  0  0  0  0  0
   -4.3663   -2.0408    0.0000 H   0  0  0  0  0  0  0  0  0  0  0  0
   -5.0600   -2.4241    0.0000 H   0  0  0  0  0  0  0  0  0  0  0  0
   -7.0264   -4.9371    0.0000 H   0  0  0  0  0  0  0  0  0  0  0  0
   -7.9140   -3.7564    0.0000 H   0  0  0  0  0  0  0  0  0  0  0  0
   -3.5949   -4.4048    0.0000 H   0  0  0  0  0  0  0  0  0  0  0  0
   -4.3221   -2.9417    0.0000 H   0  0  0  0  0  0  0  0  0  0  0  0
   -5.4230   -7.1682    0.0000 H   0  0  0  0  0  0  0  0  0  0  0  0
   -6.4952   -5.7418    0.0000 H   0  0  0  0  0  0  0  0  0  0  0  0
   -2.4018   -5.5750    0.0000 H   0  0  0  0  0  0  0  0  0  0  0  0
   -2.1325  -10.0670    0.0000 H   0  0  0  0  0  0  0  0  0  0  0  0
   -0.9705   -7.7433    0.0000 H   0  0  0  0  0  0  0  0  0  0  0  0
   -4.7259  -10.2225    0.0000 H   0  0  0  0  0  0  0  0  0  0  0  0
   -6.1573   -8.0542    0.0000 H   0  0  0  0  0  0  0  0  0  0  0  0
   -9.2664   -4.5370    0.0000 H   0  0  0  0  0  0  0  0  0  0  0  0
  -10.1817   -4.2288    0.0000 H   0  0  0  0  0  0  0  0  0  0  0  0
  -13.3725   -4.2583    0.0000 H   0  0  0  0  0  0  0  0  0  0  0  0
  -13.0027   -2.8281    0.0000 H   0  0  0  0  0  0  0  0  0  0  0  0
  -10.1628   -4.9490    0.0000 H   0  0  0  0  0  0  0  0  0  0  0  0
  -12.5956   -7.8353    0.0000 H   0  0  0  0  0  0  0  0  0  0  0  0
  -14.1171   -6.9029    0.0000 H   0  0  0  0  0  0  0  0  0  0  0  0
  -13.6704   -5.1753    0.0000 H   0  0  0  0  0  0  0  0  0  0  0  0
  -11.3542   -8.0097    0.0000 H   0  0  0  0  0  0  0  0  0  0  0  0
   -9.6347   -7.5327    0.0000 H   0  0  0  0  0  0  0  0  0  0  0  0
   -9.7021   -5.6055    0.0000 H   0  0  0  0  0  0  0  0  0  0  0  0
  -14.3288   -2.3891    0.0000 H   0  0  0  0  0  0  0  0  0  0  0  0
  -14.9443   -1.2576    0.0000 H   0  0  0  0  0  0  0  0  0  0  0  0
  -16.8980    0.9728    0.0000 H   0  0  0  0  0  0  0  0  0  0  0  0
  -15.4498    1.7291    0.0000 H   0  0  0  0  0  0  0  0  0  0  0  0
  -18.5510    0.7272    0.0000 H   0  0  0  0  0  0  0  0  0  0  0  0
  -20.4563   -1.5901    0.0000 H   0  0  0  0  0  0  0  0  0  0  0  0
  -19.4021   -4.3988    0.0000 H   0  0  0  0  0  0  0  0  0  0  0  0
  -16.4426   -4.8901    0.0000 H   0  0  0  0  0  0  0  0  0  0  0  0
  -14.5783   -2.7514    0.0000 H   0  0  0  0  0  0  0  0  0  0  0  0
  -15.9099    3.2213    0.0000 H   0  0  0  0  0  0  0  0  0  0  0  0
  -13.3561    7.0254    0.0000 H   0  0  0  0  0  0  0  0  0  0  0  0
  -14.3890    6.2224    0.0000 H   0  0  0  0  0  0  0  0  0  0  0  0
  -11.8838    7.9451    0.0000 H   0  0  0  0  0  0  0  0  0  0  0  0
  -12.9244    7.4771    0.0000 H   0  0  0  0  0  0  0  0  0  0  0  0
   -9.8492    8.3258    0.0000 H   0  0  0  0  0  0  0  0  0  0  0  0
  -11.3088    8.1447    0.0000 H   0  0  0  0  0  0  0  0  0  0  0  0
   -8.7473    8.4804    0.0000 H   0  0  0  0  0  0  0  0  0  0  0  0
  -16.4334    5.3435    0.0000 H   0  0  0  0  0  0  0  0  0  0  0  0
  -16.7934    3.5958    0.0000 H   0  0  0  0  0  0  0  0  0  0  0  0
  -15.4100    2.7265    0.0000 H   0  0  0  0  0  0  0  0  0  0  0  0
  1  2  1  0
  2  3  1  0
  3  4  2  0
  4  5  1  0
  5  6  2  0
  6  7  1  0
  7  8  2  0
  7  9  1  0
  9 10  1  0
 10 11  1  0
 11 12  2  0
  9 13  1  0
 13 14  1  0
 14 15  2  0
 15 16  1  0
 16 17  2  0
 17 18  1  0
 16 19  1  0
 14 20  1  0
 20 21  1  0
 21 22  2  0
 22 23  1  0
 23 24  2  0
 24 25  1  0
 25 26  2  0
 25 27  1  0
  1 28  2  0
  1 29  1  0
 29 30  1  0
 30 31  1  0
 31 32  1  0
 32 33  2  0
 32 34  1  0
 34 35  1  0
 35 36  1  0
 36 37  1  0
 37 38  1  0
 38 39  1  0
 39 40  1  0
 40 41  2  3
 40 42  1  0
 35 43  1  0
 43 44  2  0
 43 45  1  0
 45 46  1  0
 46 47  1  0
 47 48  1  0
 48 49  1  0
 49 50  1  0
 50 51  1  0
 46 52  1  0
 52 53  2  0
 52 54  1  0
 54 55  1  0
 55 56  1  0
 56 57  1  0
 57 58  2  0
 58 59  1  0
 58 60  1  0
 60 61  1  0
 60 62  2  0
 62 63  1  0
 62 64  1  0
 64 65  1  0
 64 66  2  0
 66 67  1  0
 55 68  1  0
 68 69  2  0
 68 70  1  0
 71 70  1  6
 71 72  1  0
 72 73  1  0
 73 74  1  0
 74 75  1  0
 71 76  1  0
 71 77  1  0
 77 78  2  0
 77 79  1  0
 79 80  1  0
 80 81  1  0
 81 82  1  0
 82 83  1  0
 83 84  1  0
 84 85  1  0
 85 86  2  3
 85 87  1  0
 80 88  1  0
 88 89  2  0
 88 90  1  0
 90 91  1  0
 91 92  1  0
 92 93  1  0
 93 94  1  0
 93 95  1  0
 91 96  1  0
 96 97  2  0
 96 98  1  0
 98 99  1  0
 99100  1  0
100101  1  0
101102  2  0
102103  1  0
103104  2  0
104105  1  0
105106  2  0
 99107  1  0
107108  2  0
107109  1  0
109110  1  0
110111  1  0
111112  1  0
112113  1  0
113114  1  0
110115  1  0
110116  1  6
116117  2  0
116118  1  0
  8  3  1  0
 66 57  1  0
106101  1  0
 11  6  1  0
 75114  2  0
 18 13  2  0
 22  9  1  0
 26 21  1  0
  2119  1  0
  4120  1  0
  5121  1  0
  8122  1  0
 15123  1  0
 17124  1  0
 18125  1  0
 19126  1  0
 23127  1  0
 24128  1  0
 26129  1  0
 27130  1  0
 29131  1  0
 30132  1  0
 30133  1  0
 31134  1  0
 31135  1  0
 34136  1  0
 35137  1  1
 36138  1  0
 36139  1  0
 37140  1  0
 37141  1  0
 38142  1  0
 38143  1  0
 39144  1  0
 41145  1  0
 41146  1  0
 42147  1  0
 42148  1  0
 45149  1  0
 46150  1  6
 47151  1  0
 47152  1  0
 48153  1  0
 48154  1  0
 49155  1  0
 49156  1  0
 50157  1  0
 50158  1  0
 51159  1  0
 51160  1  0
 51161  1  0
 54162  1  0
 55163  1  6
 56164  1  0
 56165  1  0
 70166  1  0
 72167  1  0
 72168  1  0
 73169  1  0
 73170  1  0
 74171  1  0
 74172  1  0
 75173  1  0
 76174  1  0
 76175  1  0
 76176  1  0
 79177  1  0
 80178  1  1
 81179  1  0
 81180  1  0
 82181  1  0
 82182  1  0
 83183  1  0
 83184  1  0
 84185  1  0
 86186  1  0
 86187  1  0
 87188  1  0
 87189  1  0
 90190  1  0
 91191  1  1
 92192  1  0
 92193  1  0
 93194  1  0
 94195  1  0
 94196  1  0
 94197  1  0
 95198  1  0
 95199  1  0
 95200  1  0
 98201  1  0
 99202  1  1
100203  1  0
100204  1  0
102205  1  0
103206  1  0
104207  1  0
105208  1  0
106209  1  0
109210  1  0
111211  1  0
111212  1  0
112213  1  0
112214  1  0
113215  1  0
113216  1  0
114217  1  0
115218  1  0
115219  1  0
115220  1  0
M  CHG  4  41   1  51   1  86   1 118  -1
M  END
