
     RDKit          2D

342342  0  0  0  0  0  0  0  0999 V2000
  -23.4947   -2.6595    0.0000 N   0  0  0  0  0  0  0  0  0  0  0  0
  -22.0133   -2.8950    0.0000 C   0  0  0  0  0  0  0  0  0  0  0  0
  -21.0687   -1.7298    0.0000 C   0  0  0  0  0  0  0  0  0  0  0  0
  -19.5873   -1.9653    0.0000 C   0  0  0  0  0  0  0  0  0  0  0  0
  -19.0505   -3.3660    0.0000 O   0  0  0  0  0  0  0  0  0  0  0  0
  -18.6426   -0.8002    0.0000 N   0  0  0  0  0  0  0  0  0  0  0  0
  -17.1612   -1.0356    0.0000 C   0  0  0  0  0  0  0  0  0  0  0  0
  -17.1866    0.4641    0.0000 C   0  0  0  0  0  0  0  0  0  0  0  0
  -18.4981    1.1921    0.0000 C   0  0  0  0  0  0  0  0  0  0  0  0
  -18.5234    2.6919    0.0000 C   0  0  0  0  0  0  0  0  0  0  0  0
  -19.8349    3.4198    0.0000 N   0  0  0  0  0  0  0  0  0  0  0  0
  -19.8602    4.9196    0.0000 C   0  0  0  0  0  0  0  0  0  0  0  0
  -21.1718    5.6476    0.0000 N   0  0  0  0  0  0  0  0  0  0  0  0
  -18.5741    5.6915    0.0000 N   0  0  0  0  0  0  0  0  0  0  0  0
  -15.8497   -1.7636    0.0000 C   0  0  0  0  0  0  0  0  0  0  0  0
  -14.5635   -0.9918    0.0000 O   0  0  0  0  0  0  0  0  0  0  0  0
  -15.8244   -3.2634    0.0000 N   0  0  0  0  0  0  0  0  0  0  0  0
  -14.5129   -3.9914    0.0000 C   0  0  0  0  0  0  0  0  0  0  0  0
  -15.4575   -5.1565    0.0000 C   0  0  0  0  0  0  0  0  0  0  0  0
  -16.9389   -4.9210    0.0000 C   0  0  0  0  0  0  0  0  0  0  0  0
  -17.8835   -6.0862    0.0000 C   0  0  0  0  0  0  0  0  0  0  0  0
  -19.3649   -5.8507    0.0000 N   0  0  0  0  0  0  0  0  0  0  0  0
  -20.3096   -7.0159    0.0000 C   0  0  0  0  0  0  0  0  0  0  0  0
  -21.7910   -6.7804    0.0000 N   0  0  0  0  0  0  0  0  0  0  0  0
  -19.7728   -8.4166    0.0000 N   0  0  0  0  0  0  0  0  0  0  0  0
  -13.0315   -4.2268    0.0000 C   0  0  0  0  0  0  0  0  0  0  0  0
  -12.6694   -5.6825    0.0000 O   0  0  0  0  0  0  0  0  0  0  0  0
  -12.0868   -3.0617    0.0000 N   0  0  0  0  0  0  0  0  0  0  0  0
  -10.6054   -3.2972    0.0000 C   0  0  0  0  0  0  0  0  0  0  0  0
  -11.0946   -4.7152    0.0000 C   0  0  0  0  0  0  0  0  0  0  0  0
  -10.1111   -5.8478    0.0000 C   0  0  0  0  0  0  0  0  0  0  0  0
  -10.6003   -7.2658    0.0000 C   0  0  0  0  0  0  0  0  0  0  0  0
   -9.6168   -8.3984    0.0000 N   0  0  0  0  0  0  0  0  0  0  0  0
  -10.1060   -9.8164    0.0000 C   0  0  0  0  0  0  0  0  0  0  0  0
   -9.1226  -10.9490    0.0000 N   0  0  0  0  0  0  0  0  0  0  0  0
  -11.5786  -10.1018    0.0000 N   0  0  0  0  0  0  0  0  0  0  0  0
   -9.1328   -3.0118    0.0000 C   0  0  0  0  0  0  0  0  0  0  0  0
   -8.1494   -4.1444    0.0000 O   0  0  0  0  0  0  0  0  0  0  0  0
   -8.6437   -1.5938    0.0000 N   0  0  0  0  0  0  0  0  0  0  0  0
   -7.1711   -1.3084    0.0000 C   0  0  0  0  0  0  0  0  0  0  0  0
   -7.7078    0.0923    0.0000 C   0  0  0  0  0  0  0  0  0  0  0  0
   -9.1892    0.3278    0.0000 C   0  0  0  0  0  0  0  0  0  0  0  0
   -9.7260    1.7284    0.0000 C   0  0  0  0  0  0  0  0  0  0  0  0
  -11.2074    1.9639    0.0000 N   0  0  0  0  0  0  0  0  0  0  0  0
  -11.7441    3.3646    0.0000 C   0  0  0  0  0  0  0  0  0  0  0  0
  -13.2255    3.6001    0.0000 N   0  0  0  0  0  0  0  0  0  0  0  0
  -10.7995    4.5298    0.0000 N   0  0  0  0  0  0  0  0  0  0  0  0
   -5.6897   -1.5439    0.0000 C   0  0  0  0  0  0  0  0  0  0  0  0
   -4.8941   -0.2722    0.0000 O   0  0  0  0  0  0  0  0  0  0  0  0
   -5.1529   -2.9446    0.0000 N   0  0  0  0  0  0  0  0  0  0  0  0
   -3.6715   -3.1801    0.0000 C   0  0  0  0  0  0  0  0  0  0  0  0
   -2.9618   -4.5015    0.0000 C   0  0  0  0  0  0  0  0  0  0  0  0
   -2.0147   -5.6648    0.0000 C   0  0  0  0  0  0  0  0  0  0  0  0
   -0.8647   -6.6278    0.0000 C   0  0  0  0  0  0  0  0  0  0  0  0
    0.4468   -7.3557    0.0000 C   0  0  0  0  0  0  0  0  0  0  0  0
    1.8724   -7.8223    0.0000 C   0  0  0  0  0  0  0  0  0  0  0  0
    3.3605   -8.0107    0.0000 C   0  0  0  0  0  0  0  0  0  0  0  0
    4.8574   -7.9140    0.0000 C   0  0  0  0  0  0  0  0  0  0  0  0
   -4.6829   -4.2878    0.0000 C   0  0  0  0  0  0  0  0  0  0  0  0
   -4.1183   -1.7482    0.0000 C   0  0  0  0  0  0  0  0  0  0  0  0
   -4.9150   -1.7186    0.0000 O   0  0  0  0  0  0  0  0  0  0  0  0
   -4.2861   -0.2576    0.0000 N   0  0  0  0  0  0  0  0  0  0  0  0
   -4.1688    1.2378    0.0000 C   0  0  0  0  0  0  0  0  0  0  0  0
   -5.5608    0.6789    0.0000 C   0  0  0  0  0  0  0  0  0  0  0  0
   -6.7408    1.6050    0.0000 C   0  0  0  0  0  0  0  0  0  0  0  0
   -8.1328    1.0460    0.0000 C   0  0  0  0  0  0  0  0  0  0  0  0
   -9.3128    1.9721    0.0000 N   0  0  0  0  0  0  0  0  0  0  0  0
  -10.7048    1.4132    0.0000 C   0  0  0  0  0  0  0  0  0  0  0  0
  -12.0738    2.0261    0.0000 N   0  0  0  0  0  0  0  0  0  0  0  0
  -11.0962   -0.0349    0.0000 N   0  0  0  0  0  0  0  0  0  0  0  0
   -3.7705    2.6840    0.0000 C   0  0  0  0  0  0  0  0  0  0  0  0
   -5.0968    3.3848    0.0000 O   0  0  0  0  0  0  0  0  0  0  0  0
   -3.1058    4.0287    0.0000 N   0  0  0  0  0  0  0  0  0  0  0  0
   -2.1986    5.2232    0.0000 C   0  0  0  0  0  0  0  0  0  0  0  0
   -3.6718    5.5056    0.0000 C   0  0  0  0  0  0  0  0  0  0  0  0
   -4.1638    6.9226    0.0000 C   0  0  0  0  0  0  0  0  0  0  0  0
   -5.6370    7.2050    0.0000 C   0  0  0  0  0  0  0  0  0  0  0  0
   -6.1291    8.6220    0.0000 N   0  0  0  0  0  0  0  0  0  0  0  0
   -6.6182    6.0704    0.0000 O   0  0  0  0  0  0  0  0  0  0  0  0
   -1.0817    6.2245    0.0000 C   0  0  0  0  0  0  0  0  0  0  0  0
   -1.8186    7.5311    0.0000 O   0  0  0  0  0  0  0  0  0  0  0  0
    0.2045    6.9964    0.0000 N   0  0  0  0  0  0  0  0  0  0  0  0
    1.6135    7.5108    0.0000 C   0  0  0  0  0  0  0  0  0  0  0  0
    0.5268    8.5448    0.0000 C   0  0  0  0  0  0  0  0  0  0  0  0
    0.8790   10.0029    0.0000 C   0  0  0  0  0  0  0  0  0  0  0  0
   -0.2077   11.0369    0.0000 C   0  0  0  0  0  0  0  0  0  0  0  0
    0.1445   12.4950    0.0000 N   0  0  0  0  0  0  0  0  0  0  0  0
   -0.9422   13.5290    0.0000 C   0  0  0  0  0  0  0  0  0  0  0  0
   -0.5900   14.9871    0.0000 N   0  0  0  0  0  0  0  0  0  0  0  0
   -2.3810   13.1050    0.0000 N   0  0  0  0  0  0  0  0  0  0  0  0
    3.0944    7.7493    0.0000 C   0  0  0  0  0  0  0  0  0  0  0  0
    3.1809    9.2468    0.0000 O   0  0  0  0  0  0  0  0  0  0  0  0
    4.5937    7.7033    0.0000 N   0  0  0  0  0  0  0  0  0  0  0  0
    6.0572    7.3743    0.0000 C   0  0  0  0  0  0  0  0  0  0  0  0
    5.7020    8.8317    0.0000 C   0  0  0  0  0  0  0  0  0  0  0  0
    6.7866    9.8679    0.0000 C   0  0  0  0  0  0  0  0  0  0  0  0
    6.4315   11.3252    0.0000 C   0  0  0  0  0  0  0  0  0  0  0  0
    7.5160   12.3615    0.0000 N   0  0  0  0  0  0  0  0  0  0  0  0
    7.1609   13.8188    0.0000 C   0  0  0  0  0  0  0  0  0  0  0  0
    8.2454   14.8550    0.0000 N   0  0  0  0  0  0  0  0  0  0  0  0
    5.7212   14.2400    0.0000 N   0  0  0  0  0  0  0  0  0  0  0  0
    7.4319    6.7743    0.0000 C   0  0  0  0  0  0  0  0  0  0  0  0
    8.3143    7.9873    0.0000 O   0  0  0  0  0  0  0  0  0  0  0  0
    8.6683    5.9250    0.0000 N   0  0  0  0  0  0  0  0  0  0  0  0
    9.7216    4.8570    0.0000 C   0  0  0  0  0  0  0  0  0  0  0  0
   10.2108    6.2750    0.0000 C   0  0  0  0  0  0  0  0  0  0  0  0
   11.6834    6.5604    0.0000 C   0  0  0  0  0  0  0  0  0  0  0  0
   12.1725    7.9784    0.0000 C   0  0  0  0  0  0  0  0  0  0  0  0
   13.6451    8.2638    0.0000 N   0  0  0  0  0  0  0  0  0  0  0  0
   14.1343    9.6818    0.0000 C   0  0  0  0  0  0  0  0  0  0  0  0
   15.6069    9.9671    0.0000 N   0  0  0  0  0  0  0  0  0  0  0  0
   13.1508   10.8144    0.0000 N   0  0  0  0  0  0  0  0  0  0  0  0
   10.5538    3.6090    0.0000 C   0  0  0  0  0  0  0  0  0  0  0  0
   11.9519    4.1524    0.0000 O   0  0  0  0  0  0  0  0  0  0  0  0
   11.1347    2.2261    0.0000 N   0  0  0  0  0  0  0  0  0  0  0  0
   11.4434    0.7582    0.0000 C   0  0  0  0  0  0  0  0  0  0  0  0
   12.6215    1.6866    0.0000 C   0  0  0  0  0  0  0  0  0  0  0  0
   14.0147    1.1305    0.0000 C   0  0  0  0  0  0  0  0  0  0  0  0
   15.1928    2.0590    0.0000 C   0  0  0  0  0  0  0  0  0  0  0  0
   16.5859    1.5029    0.0000 N   0  0  0  0  0  0  0  0  0  0  0  0
   17.7640    2.4313    0.0000 C   0  0  0  0  0  0  0  0  0  0  0  0
   19.1572    1.8753    0.0000 N   0  0  0  0  0  0  0  0  0  0  0  0
   17.5491    3.9159    0.0000 N   0  0  0  0  0  0  0  0  0  0  0  0
   11.4687   -0.7416    0.0000 C   0  0  0  0  0  0  0  0  0  0  0  0
   12.9387   -1.0404    0.0000 O   0  0  0  0  0  0  0  0  0  0  0  0
   11.2098   -2.2191    0.0000 N   0  0  0  0  0  0  0  0  0  0  0  0
   10.6759   -3.6209    0.0000 C   0  0  0  0  0  0  0  0  0  0  0  0
    9.8863   -4.8963    0.0000 C   0  0  0  0  0  0  0  0  0  0  0  0
    8.8697   -5.9992    0.0000 C   0  0  0  0  0  0  0  0  0  0  0  0
    7.6627   -6.8898    0.0000 C   0  0  0  0  0  0  0  0  0  0  0  0
    6.3090   -7.5358    0.0000 C   0  0  0  0  0  0  0  0  0  0  0  0
   11.6174   -4.7886    0.0000 C   0  0  0  0  0  0  0  0  0  0  0  0
   12.1689   -3.4768    0.0000 C   0  0  0  0  0  0  0  0  0  0  0  0
   12.9524   -2.1976    0.0000 O   0  0  0  0  0  0  0  0  0  0  0  0
   13.0403   -4.6977    0.0000 N   0  0  0  0  0  0  0  0  0  0  0  0
   14.5333   -4.5536    0.0000 C   0  0  0  0  0  0  0  0  0  0  0  0
   15.8871   -3.9075    0.0000 C   0  0  0  0  0  0  0  0  0  0  0  0
   17.1234   -4.7569    0.0000 C   0  0  0  0  0  0  0  0  0  0  0  0
   18.4772   -4.1108    0.0000 C   0  0  0  0  0  0  0  0  0  0  0  0
   19.7135   -4.9601    0.0000 N   0  0  0  0  0  0  0  0  0  0  0  0
   21.0673   -4.3141    0.0000 C   0  0  0  0  0  0  0  0  0  0  0  0
   22.3037   -5.1634    0.0000 N   0  0  0  0  0  0  0  0  0  0  0  0
   21.1846   -2.8187    0.0000 N   0  0  0  0  0  0  0  0  0  0  0  0
   15.4047   -5.7746    0.0000 C   0  0  0  0  0  0  0  0  0  0  0  0
   14.7829   -7.1397    0.0000 O   0  0  0  0  0  0  0  0  0  0  0  0
   16.8977   -5.6305    0.0000 N   0  0  0  0  0  0  0  0  0  0  0  0
   17.7690   -6.8515    0.0000 C   0  0  0  0  0  0  0  0  0  0  0  0
   18.1702   -8.2968    0.0000 C   0  0  0  0  0  0  0  0  0  0  0  0
   17.1191   -9.3669    0.0000 C   0  0  0  0  0  0  0  0  0  0  0  0
   17.5203  -10.8123    0.0000 C   0  0  0  0  0  0  0  0  0  0  0  0
   16.4692  -11.8824    0.0000 N   0  0  0  0  0  0  0  0  0  0  0  0
   16.8704  -13.3278    0.0000 C   0  0  0  0  0  0  0  0  0  0  0  0
   15.8192  -14.3979    0.0000 N   0  0  0  0  0  0  0  0  0  0  0  0
   18.3227  -13.7030    0.0000 N   0  0  0  0  0  0  0  0  0  0  0  0
   19.2621   -6.7074    0.0000 C   0  0  0  0  0  0  0  0  0  0  0  0
   20.2758   -7.8130    0.0000 O   0  0  0  0  0  0  0  0  0  0  0  0
   20.1957   -5.5333    0.0000 O   0  0  0  0  0  0  0  0  0  0  0  0
  -24.4393   -3.8247    0.0000 H   0  0  0  0  0  0  0  0  0  0  0  0
  -24.0315   -1.2589    0.0000 H   0  0  0  0  0  0  0  0  0  0  0  0
  -22.5025   -4.3130    0.0000 H   0  0  0  0  0  0  0  0  0  0  0  0
  -20.7018   -3.6230    0.0000 H   0  0  0  0  0  0  0  0  0  0  0  0
  -22.3802   -1.0019    0.0000 H   0  0  0  0  0  0  0  0  0  0  0  0
  -20.5795   -0.3118    0.0000 H   0  0  0  0  0  0  0  0  0  0  0  0
  -19.3461    0.5246    0.0000 H   0  0  0  0  0  0  0  0  0  0  0  0
  -17.6504   -2.4536    0.0000 H   0  0  0  0  0  0  0  0  0  0  0  0
  -16.5282    1.8119    0.0000 H   0  0  0  0  0  0  0  0  0  0  0  0
  -15.7052    0.2286    0.0000 H   0  0  0  0  0  0  0  0  0  0  0  0
  -19.9795    1.4276    0.0000 H   0  0  0  0  0  0  0  0  0  0  0  0
  -19.4630    0.0437    0.0000 H   0  0  0  0  0  0  0  0  0  0  0  0
  -18.0342    4.1099    0.0000 H   0  0  0  0  0  0  0  0  0  0  0  0
  -17.0243    2.6387    0.0000 H   0  0  0  0  0  0  0  0  0  0  0  0
  -21.1211    2.6480    0.0000 H   0  0  0  0  0  0  0  0  0  0  0  0
  -21.1971    7.1474    0.0000 H   0  0  0  0  0  0  0  0  0  0  0  0
  -22.4579    4.8758    0.0000 H   0  0  0  0  0  0  0  0  0  0  0  0
  -18.5994    7.1912    0.0000 H   0  0  0  0  0  0  0  0  0  0  0  0
  -17.2625    4.9635    0.0000 H   0  0  0  0  0  0  0  0  0  0  0  0
  -17.1951   -3.8727    0.0000 H   0  0  0  0  0  0  0  0  0  0  0  0
  -14.0237   -2.5734    0.0000 H   0  0  0  0  0  0  0  0  0  0  0  0
  -15.7702   -6.6236    0.0000 H   0  0  0  0  0  0  0  0  0  0  0  0
  -14.1460   -5.8845    0.0000 H   0  0  0  0  0  0  0  0  0  0  0  0
  -18.2504   -4.1931    0.0000 H   0  0  0  0  0  0  0  0  0  0  0  0
  -16.9905   -3.4219    0.0000 H   0  0  0  0  0  0  0  0  0  0  0  0
  -18.3727   -7.5042    0.0000 H   0  0  0  0  0  0  0  0  0  0  0  0
  -16.6705   -6.9686    0.0000 H   0  0  0  0  0  0  0  0  0  0  0  0
  -19.9017   -4.4501    0.0000 H   0  0  0  0  0  0  0  0  0  0  0  0
  -22.7356   -7.9456    0.0000 H   0  0  0  0  0  0  0  0  0  0  0  0
  -22.3277   -5.3797    0.0000 H   0  0  0  0  0  0  0  0  0  0  0  0
  -20.7175   -9.5818    0.0000 H   0  0  0  0  0  0  0  0  0  0  0  0
  -18.2914   -8.6521    0.0000 H   0  0  0  0  0  0  0  0  0  0  0  0
  -12.6236   -1.6610    0.0000 H   0  0  0  0  0  0  0  0  0  0  0  0
  -10.6308   -1.7974    0.0000 H   0  0  0  0  0  0  0  0  0  0  0  0
  -12.0392   -5.8803    0.0000 H   0  0  0  0  0  0  0  0  0  0  0  0
  -12.5433   -4.3262    0.0000 H   0  0  0  0  0  0  0  0  0  0  0  0
   -8.7996   -6.5757    0.0000 H   0  0  0  0  0  0  0  0  0  0  0  0
   -9.1665   -4.6826    0.0000 H   0  0  0  0  0  0  0  0  0  0  0  0
  -11.5449   -8.4310    0.0000 H   0  0  0  0  0  0  0  0  0  0  0  0
  -11.9908   -6.7031    0.0000 H   0  0  0  0  0  0  0  0  0  0  0  0
   -8.1442   -8.1130    0.0000 H   0  0  0  0  0  0  0  0  0  0  0  0
   -9.6117  -12.3670    0.0000 H   0  0  0  0  0  0  0  0  0  0  0  0
   -7.6500  -10.6636    0.0000 H   0  0  0  0  0  0  0  0  0  0  0  0
  -12.0678  -11.5198    0.0000 H   0  0  0  0  0  0  0  0  0  0  0  0
  -12.5621   -8.9692    0.0000 H   0  0  0  0  0  0  0  0  0  0  0  0
   -9.9677   -0.8889    0.0000 H   0  0  0  0  0  0  0  0  0  0  0  0
   -7.1457   -2.8082    0.0000 H   0  0  0  0  0  0  0  0  0  0  0  0
   -7.9158    1.5778    0.0000 H   0  0  0  0  0  0  0  0  0  0  0  0
   -6.2737   -0.3472    0.0000 H   0  0  0  0  0  0  0  0  0  0  0  0
  -10.6161   -0.1350    0.0000 H   0  0  0  0  0  0  0  0  0  0  0  0
   -9.5276   -1.1336    0.0000 H   0  0  0  0  0  0  0  0  0  0  0  0
   -9.9339    3.2140    0.0000 H   0  0  0  0  0  0  0  0  0  0  0  0
   -8.2991    2.1912    0.0000 H   0  0  0  0  0  0  0  0  0  0  0  0
  -12.1520    0.7988    0.0000 H   0  0  0  0  0  0  0  0  0  0  0  0
  -13.7623    5.0008    0.0000 H   0  0  0  0  0  0  0  0  0  0  0  0
  -14.1702    2.4349    0.0000 H   0  0  0  0  0  0  0  0  0  0  0  0
  -11.3362    5.9305    0.0000 H   0  0  0  0  0  0  0  0  0  0  0  0
   -9.3004    4.4766    0.0000 H   0  0  0  0  0  0  0  0  0  0  0  0
   -6.2325   -3.9859    0.0000 H   0  0  0  0  0  0  0  0  0  0  0  0
   -3.7452   -5.7806    0.0000 H   0  0  0  0  0  0  0  0  0  0  0  0
   -4.4438   -4.7330    0.0000 H   0  0  0  0  0  0  0  0  0  0  0  0
   -2.5420   -7.0690    0.0000 H   0  0  0  0  0  0  0  0  0  0  0  0
   -3.4262   -6.1726    0.0000 H   0  0  0  0  0  0  0  0  0  0  0  0
   -1.1167   -8.1065    0.0000 H   0  0  0  0  0  0  0  0  0  0  0  0
   -2.1545   -7.3935    0.0000 H   0  0  0  0  0  0  0  0  0  0  0  0
    0.4793   -8.8554    0.0000 H   0  0  0  0  0  0  0  0  0  0  0  0
   -0.6748   -8.3517    0.0000 H   0  0  0  0  0  0  0  0  0  0  0  0
    2.1881   -9.2887    0.0000 H   0  0  0  0  0  0  0  0  0  0  0  0
    0.9596   -9.0126    0.0000 H   0  0  0  0  0  0  0  0  0  0  0  0
    4.1119   -9.3090    0.0000 H   0  0  0  0  0  0  0  0  0  0  0  0
    2.6895   -9.3522    0.0000 H   0  0  0  0  0  0  0  0  0  0  0  0
    5.0959   -9.3950    0.0000 H   0  0  0  0  0  0  0  0  0  0  0  0
   -6.0268   -4.4266    0.0000 H   0  0  0  0  0  0  0  0  0  0  0  0
   -4.9386   -5.8490    0.0000 H   0  0  0  0  0  0  0  0  0  0  0  0
   -3.4133   -5.3860    0.0000 H   0  0  0  0  0  0  0  0  0  0  0  0
   -5.7352   -0.6451    0.0000 H   0  0  0  0  0  0  0  0  0  0  0  0
   -5.1576    2.3658    0.0000 H   0  0  0  0  0  0  0  0  0  0  0  0
   -6.5472   -0.4510    0.0000 H   0  0  0  0  0  0  0  0  0  0  0  0
   -4.9298   -0.6819    0.0000 H   0  0  0  0  0  0  0  0  0  0  0  0
   -7.5329    2.8787    0.0000 H   0  0  0  0  0  0  0  0  0  0  0  0
   -5.8994    2.8467    0.0000 H   0  0  0  0  0  0  0  0  0  0  0  0
   -9.5343    0.5116    0.0000 H   0  0  0  0  0  0  0  0  0  0  0  0
   -7.1913   -0.1217    0.0000 H   0  0  0  0  0  0  0  0  0  0  0  0
   -8.7478    3.3616    0.0000 H   0  0  0  0  0  0  0  0  0  0  0  0
  -13.2768    1.7803    0.0000 H   0  0  0  0  0  0  0  0  0  0  0  0
  -12.1198    3.8677    0.0000 H   0  0  0  0  0  0  0  0  0  0  0  0
  -12.3087   -0.6307    0.0000 H   0  0  0  0  0  0  0  0  0  0  0  0
  -10.0101   -1.2982    0.0000 H   0  0  0  0  0  0  0  0  0  0  0  0
   -4.4679    4.6569    0.0000 H   0  0  0  0  0  0  0  0  0  0  0  0
   -2.4206    6.7067    0.0000 H   0  0  0  0  0  0  0  0  0  0  0  0
   -5.1707    5.4494    0.0000 H   0  0  0  0  0  0  0  0  0  0  0  0
   -4.0563    4.0557    0.0000 H   0  0  0  0  0  0  0  0  0  0  0  0
   -4.1416    8.4225    0.0000 H   0  0  0  0  0  0  0  0  0  0  0  0
   -2.7846    7.5124    0.0000 H   0  0  0  0  0  0  0  0  0  0  0  0
   -7.6022    8.9044    0.0000 H   0  0  0  0  0  0  0  0  0  0  0  0
   -5.1479    9.7566    0.0000 H   0  0  0  0  0  0  0  0  0  0  0  0
   -0.6018    8.2612    0.0000 H   0  0  0  0  0  0  0  0  0  0  0  0
    2.2287    8.8788    0.0000 H   0  0  0  0  0  0  0  0  0  0  0  0
   -0.8480    9.1448    0.0000 H   0  0  0  0  0  0  0  0  0  0  0  0
   -0.5805    7.5330    0.0000 H   0  0  0  0  0  0  0  0  0  0  0  0
    1.7086   11.2526    0.0000 H   0  0  0  0  0  0  0  0  0  0  0  0
    2.3581    9.7534    0.0000 H   0  0  0  0  0  0  0  0  0  0  0  0
   -1.5825   11.6369    0.0000 H   0  0  0  0  0  0  0  0  0  0  0  0
   -1.1834    9.8977    0.0000 H   0  0  0  0  0  0  0  0  0  0  0  0
    1.5833   12.9191    0.0000 H   0  0  0  0  0  0  0  0  0  0  0  0
   -1.6767   16.0211    0.0000 H   0  0  0  0  0  0  0  0  0  0  0  0
    0.8488   15.4112    0.0000 H   0  0  0  0  0  0  0  0  0  0  0  0
   -3.4677   14.1390    0.0000 H   0  0  0  0  0  0  0  0  0  0  0  0
   -2.7332   11.6469    0.0000 H   0  0  0  0  0  0  0  0  0  0  0  0
    4.5993    9.2033    0.0000 H   0  0  0  0  0  0  0  0  0  0  0  0
    7.3144    8.1925    0.0000 H   0  0  0  0  0  0  0  0  0  0  0  0
    4.8699   10.0797    0.0000 H   0  0  0  0  0  0  0  0  0  0  0  0
    4.2234    8.5791    0.0000 H   0  0  0  0  0  0  0  0  0  0  0  0
    8.1601   10.4707    0.0000 H   0  0  0  0  0  0  0  0  0  0  0  0
    7.8960    8.8583    0.0000 H   0  0  0  0  0  0  0  0  0  0  0  0
    5.5993   12.5732    0.0000 H   0  0  0  0  0  0  0  0  0  0  0  0
    4.9947   10.8944    0.0000 H   0  0  0  0  0  0  0  0  0  0  0  0
    8.9557   11.9403    0.0000 H   0  0  0  0  0  0  0  0  0  0  0  0
    7.8903   16.3124    0.0000 H   0  0  0  0  0  0  0  0  0  0  0  0
    9.6851   14.4339    0.0000 H   0  0  0  0  0  0  0  0  0  0  0  0
    5.3661   15.6973    0.0000 H   0  0  0  0  0  0  0  0  0  0  0  0
    4.6367   13.2037    0.0000 H   0  0  0  0  0  0  0  0  0  0  0  0
    9.4840    7.1838    0.0000 H   0  0  0  0  0  0  0  0  0  0  0  0
   11.2216    4.8656    0.0000 H   0  0  0  0  0  0  0  0  0  0  0  0
   10.1854    7.7748    0.0000 H   0  0  0  0  0  0  0  0  0  0  0  0
    8.8304    6.8620    0.0000 H   0  0  0  0  0  0  0  0  0  0  0  0
   13.1648    6.3249    0.0000 H   0  0  0  0  0  0  0  0  0  0  0  0
   12.0709    5.1113    0.0000 H   0  0  0  0  0  0  0  0  0  0  0  0
   12.1472    9.4782    0.0000 H   0  0  0  0  0  0  0  0  0  0  0  0
   10.7309    8.3927    0.0000 H   0  0  0  0  0  0  0  0  0  0  0  0
   14.6286    7.1311    0.0000 H   0  0  0  0  0  0  0  0  0  0  0  0
   16.0961   11.3851    0.0000 H   0  0  0  0  0  0  0  0  0  0  0  0
   16.5903    8.8345    0.0000 H   0  0  0  0  0  0  0  0  0  0  0  0
   13.6400   12.2324    0.0000 H   0  0  0  0  0  0  0  0  0  0  0  0
   11.6782   10.5290    0.0000 H   0  0  0  0  0  0  0  0  0  0  0  0
   12.5015    2.8441    0.0000 H   0  0  0  0  0  0  0  0  0  0  0  0
   12.7099   -0.0455    0.0000 H   0  0  0  0  0  0  0  0  0  0  0  0
   13.4111    2.9620    0.0000 H   0  0  0  0  0  0  0  0  0  0  0  0
   11.7776    2.9267    0.0000 H   0  0  0  0  0  0  0  0  0  0  0  0
   15.1336    0.1315    0.0000 H   0  0  0  0  0  0  0  0  0  0  0  0
   13.5572   -0.2980    0.0000 H   0  0  0  0  0  0  0  0  0  0  0  0
   15.9823    3.3344    0.0000 H   0  0  0  0  0  0  0  0  0  0  0  0
   14.2040    3.1869    0.0000 H   0  0  0  0  0  0  0  0  0  0  0  0
   16.8009    0.0184    0.0000 H   0  0  0  0  0  0  0  0  0  0  0  0
   20.3353    2.8037    0.0000 H   0  0  0  0  0  0  0  0  0  0  0  0
   19.3722    0.3908    0.0000 H   0  0  0  0  0  0  0  0  0  0  0  0
   18.7272    4.8443    0.0000 H   0  0  0  0  0  0  0  0  0  0  0  0
   16.1559    4.4719    0.0000 H   0  0  0  0  0  0  0  0  0  0  0  0
   12.6937   -2.4381    0.0000 H   0  0  0  0  0  0  0  0  0  0  0  0
   11.3513   -5.2183    0.0000 H   0  0  0  0  0  0  0  0  0  0  0  0
   10.4231   -6.2969    0.0000 H   0  0  0  0  0  0  0  0  0  0  0  0
   10.1647   -6.7562    0.0000 H   0  0  0  0  0  0  0  0  0  0  0  0
    9.3097   -7.4332    0.0000 H   0  0  0  0  0  0  0  0  0  0  0  0
    8.9031   -7.7332    0.0000 H   0  0  0  0  0  0  0  0  0  0  0  0
    7.6404   -8.3896    0.0000 H   0  0  0  0  0  0  0  0  0  0  0  0
    6.8234   -8.9449    0.0000 H   0  0  0  0  0  0  0  0  0  0  0  0
   11.1322   -6.3823    0.0000 H   0  0  0  0  0  0  0  0  0  0  0  0
   12.5145   -5.9386    0.0000 H   0  0  0  0  0  0  0  0  0  0  0  0
   12.7728   -4.1541    0.0000 H   0  0  0  0  0  0  0  0  0  0  0  0
   12.5896   -6.1284    0.0000 H   0  0  0  0  0  0  0  0  0  0  0  0
   14.1321   -3.1083    0.0000 H   0  0  0  0  0  0  0  0  0  0  0  0
   16.7999   -2.7173    0.0000 H   0  0  0  0  0  0  0  0  0  0  0  0
   15.0157   -2.6866    0.0000 H   0  0  0  0  0  0  0  0  0  0  0  0
   17.9948   -5.9779    0.0000 H   0  0  0  0  0  0  0  0  0  0  0  0
   16.6979   -6.1952    0.0000 H   0  0  0  0  0  0  0  0  0  0  0  0
   19.5283   -3.0407    0.0000 H   0  0  0  0  0  0  0  0  0  0  0  0
   17.7612   -2.7927    0.0000 H   0  0  0  0  0  0  0  0  0  0  0  0
   19.9615   -6.4395    0.0000 H   0  0  0  0  0  0  0  0  0  0  0  0
   23.6574   -4.5173    0.0000 H   0  0  0  0  0  0  0  0  0  0  0  0
   22.1863   -6.6588    0.0000 H   0  0  0  0  0  0  0  0  0  0  0  0
   22.5384   -2.1726    0.0000 H   0  0  0  0  0  0  0  0  0  0  0  0
   19.9482   -1.9693    0.0000 H   0  0  0  0  0  0  0  0  0  0  0  0
   17.8313   -4.4564    0.0000 H   0  0  0  0  0  0  0  0  0  0  0  0
   16.3467   -7.3277    0.0000 H   0  0  0  0  0  0  0  0  0  0  0  0
   19.1839   -9.4025    0.0000 H   0  0  0  0  0  0  0  0  0  0  0  0
   19.5926   -7.8206    0.0000 H   0  0  0  0  0  0  0  0  0  0  0  0
   15.7654  -10.0130    0.0000 H   0  0  0  0  0  0  0  0  0  0  0  0
   16.1054   -8.2613    0.0000 H   0  0  0  0  0  0  0  0  0  0  0  0
   18.3916  -12.0333    0.0000 H   0  0  0  0  0  0  0  0  0  0  0  0
   18.9427  -10.3361    0.0000 H   0  0  0  0  0  0  0  0  0  0  0  0
   15.0169  -11.5072    0.0000 H   0  0  0  0  0  0  0  0  0  0  0  0
   16.2204  -15.8432    0.0000 H   0  0  0  0  0  0  0  0  0  0  0  0
   14.3669  -14.0226    0.0000 H   0  0  0  0  0  0  0  0  0  0  0  0
   18.7238  -15.1484    0.0000 H   0  0  0  0  0  0  0  0  0  0  0  0
   19.3738  -12.6329    0.0000 H   0  0  0  0  0  0  0  0  0  0  0  0
  1  2  1  0
  2  3  1  0
  3  4  1  0
  4  5  2  0
  4  6  1  0
  6  7  1  0
  7  8  1  0
  8  9  1  0
  9 10  1  0
 10 11  1  0
 11 12  1  0
 12 13  2  3
 12 14  1  0
  7 15  1  0
 15 16  2  0
 15 17  1  0
 17 18  1  0
 18 19  1  0
 19 20  1  0
 20 21  1  0
 21 22  1  0
 22 23  1  0
 23 24  2  3
 23 25  1  0
 18 26  1  0
 26 27  2  0
 26 28  1  0
 28 29  1  0
 29 30  1  0
 30 31  1  0
 31 32  1  0
 32 33  1  0
 33 34  1  0
 34 35  2  3
 34 36  1  0
 29 37  1  0
 37 38  2  0
 37 39  1  0
 39 40  1  0
 40 41  1  0
 41 42  1  0
 42 43  1  0
 43 44  1  0
 44 45  1  0
 45 46  2  3
 45 47  1  0
 40 48  1  0
 48 49  2  0
 48 50  1  0
 51 50  1  1
 51 52  1  0
 52 53  1  0
 53 54  1  0
 54 55  1  0
 55 56  1  0
 56 57  1  0
 57 58  1  0
 51 59  1  0
 51 60  1  0
 60 61  2  0
 60 62  1  0
 62 63  1  0
 63 64  1  0
 64 65  1  0
 65 66  1  0
 66 67  1  0
 67 68  1  0
 68 69  2  3
 68 70  1  0
 63 71  1  0
 71 72  2  0
 71 73  1  0
 73 74  1  0
 74 75  1  0
 75 76  1  0
 76 77  1  0
 77 78  1  0
 77 79  2  0
 74 80  1  0
 80 81  2  0
 80 82  1  0
 82 83  1  0
 83 84  1  0
 84 85  1  0
 85 86  1  0
 86 87  1  0
 87 88  1  0
 88 89  2  3
 88 90  1  0
 83 91  1  0
 91 92  2  0
 91 93  1  0
 93 94  1  0
 94 95  1  0
 95 96  1  0
 96 97  1  0
 97 98  1  0
 98 99  1  0
 99100  2  3
 99101  1  0
 94102  1  0
102103  2  0
102104  1  0
104105  1  0
105106  1  0
106107  1  0
107108  1  0
108109  1  0
109110  1  0
110111  2  3
110112  1  0
105113  1  0
113114  2  0
113115  1  0
115116  1  0
116117  1  0
117118  1  0
118119  1  0
119120  1  0
120121  1  0
121122  2  3
121123  1  0
116124  1  0
124125  2  0
124126  1  0
126127  1  0
127128  1  0
128129  1  0
129130  1  0
130131  1  0
127132  1  0
127133  1  6
133134  2  0
133135  1  0
135136  1  0
136137  1  0
137138  1  0
138139  1  0
139140  1  0
140141  1  0
141142  2  3
141143  1  0
136144  1  0
144145  2  0
144146  1  0
146147  1  0
147148  1  0
148149  1  0
149150  1  0
150151  1  0
151152  1  0
152153  2  3
152154  1  0
147155  1  0
155156  2  0
155157  1  0
 58131  2  0
  1158  1  0
  1159  1  0
  2160  1  0
  2161  1  0
  3162  1  0
  3163  1  0
  6164  1  0
  7165  1  1
  8166  1  0
  8167  1  0
  9168  1  0
  9169  1  0
 10170  1  0
 10171  1  0
 11172  1  0
 13173  1  0
 13174  1  0
 14175  1  0
 14176  1  0
 17177  1  0
 18178  1  6
 19179  1  0
 19180  1  0
 20181  1  0
 20182  1  0
 21183  1  0
 21184  1  0
 22185  1  0
 24186  1  0
 24187  1  0
 25188  1  0
 25189  1  0
 28190  1  0
 29191  1  6
 30192  1  0
 30193  1  0
 31194  1  0
 31195  1  0
 32196  1  0
 32197  1  0
 33198  1  0
 35199  1  0
 35200  1  0
 36201  1  0
 36202  1  0
 39203  1  0
 40204  1  1
 41205  1  0
 41206  1  0
 42207  1  0
 42208  1  0
 43209  1  0
 43210  1  0
 44211  1  0
 46212  1  0
 46213  1  0
 47214  1  0
 47215  1  0
 50216  1  0
 52217  1  0
 52218  1  0
 53219  1  0
 53220  1  0
 54221  1  0
 54222  1  0
 55223  1  0
 55224  1  0
 56225  1  0
 56226  1  0
 57227  1  0
 57228  1  0
 58229  1  0
 59230  1  0
 59231  1  0
 59232  1  0
 62233  1  0
 63234  1  1
 64235  1  0
 64236  1  0
 65237  1  0
 65238  1  0
 66239  1  0
 66240  1  0
 67241  1  0
 69242  1  0
 69243  1  0
 70244  1  0
 70245  1  0
 73246  1  0
 74247  1  1
 75248  1  0
 75249  1  0
 76250  1  0
 76251  1  0
 78252  1  0
 78253  1  0
 82254  1  0
 83255  1  1
 84256  1  0
 84257  1  0
 85258  1  0
 85259  1  0
 86260  1  0
 86261  1  0
 87262  1  0
 89263  1  0
 89264  1  0
 90265  1  0
 90266  1  0
 93267  1  0
 94268  1  1
 95269  1  0
 95270  1  0
 96271  1  0
 96272  1  0
 97273  1  0
 97274  1  0
 98275  1  0
100276  1  0
100277  1  0
101278  1  0
101279  1  0
104280  1  0
105281  1  1
106282  1  0
106283  1  0
107284  1  0
107285  1  0
108286  1  0
108287  1  0
109288  1  0
111289  1  0
111290  1  0
112291  1  0
112292  1  0
115293  1  0
116294  1  1
117295  1  0
117296  1  0
118297  1  0
118298  1  0
119299  1  0
119300  1  0
120301  1  0
122302  1  0
122303  1  0
123304  1  0
123305  1  0
126306  1  0
128307  1  0
128308  1  0
129309  1  0
129310  1  0
130311  1  0
130312  1  0
131313  1  0
132314  1  0
132315  1  0
132316  1  0
135317  1  0
136318  1  1
137319  1  0
137320  1  0
138321  1  0
138322  1  0
139323  1  0
139324  1  0
140325  1  0
142326  1  0
142327  1  0
143328  1  0
143329  1  0
146330  1  0
147331  1  6
148332  1  0
148333  1  0
149334  1  0
149335  1  0
150336  1  0
150337  1  0
151338  1  0
153339  1  0
153340  1  0
154341  1  0
154342  1  0
M  CHG  8  13   1  24   1  35   1  46   1  69   1  89   1 100   1 111   1
M  CHG  4 122   1 142   1 153   1 157  -1
M  END
