
     RDKit          2D

293300  0  0  0  0  0  0  0  0999 V2000
  -18.7115   -6.7078    0.0000 C   0  0  0  0  0  0  0  0  0  0  0  0
  -18.4730   -8.1887    0.0000 N   0  0  0  0  0  0  0  0  0  0  0  0
  -19.6363   -9.1357    0.0000 C   0  0  0  0  0  0  0  0  0  0  0  0
  -21.0380   -8.6018    0.0000 C   0  0  0  0  0  0  0  0  0  0  0  0
  -22.2013   -9.5487    0.0000 C   0  0  0  0  0  0  0  0  0  0  0  0
  -21.9628  -11.0297    0.0000 C   0  0  0  0  0  0  0  0  0  0  0  0
  -20.5611  -11.5636    0.0000 C   0  0  0  0  0  0  0  0  0  0  0  0
  -19.3978  -10.6166    0.0000 C   0  0  0  0  0  0  0  0  0  0  0  0
  -20.6357  -13.0617    0.0000 C   0  0  0  0  0  0  0  0  0  0  0  0
  -22.0836  -13.4537    0.0000 O   0  0  0  0  0  0  0  0  0  0  0  0
  -22.9038  -12.1978    0.0000 C   0  0  0  0  0  0  0  0  0  0  0  0
  -24.4019  -12.1232    0.0000 O   0  0  0  0  0  0  0  0  0  0  0  0
  -20.8665  -14.5439    0.0000 C   0  0  0  0  0  0  0  0  0  0  0  0
  -19.6984  -15.4848    0.0000 C   0  0  0  0  0  0  0  0  0  0  0  0
  -19.9292  -16.9670    0.0000 C   0  0  0  0  0  0  0  0  0  0  0  0
  -21.3282  -17.5081    0.0000 C   0  0  0  0  0  0  0  0  0  0  0  0
  -22.4963  -16.5672    0.0000 C   0  0  0  0  0  0  0  0  0  0  0  0
  -22.2655  -15.0850    0.0000 C   0  0  0  0  0  0  0  0  0  0  0  0
  -21.5590  -18.9903    0.0000 O   0  0  0  0  0  0  0  0  0  0  0  0
  -18.2994  -14.9437    0.0000 O   0  0  0  0  0  0  0  0  0  0  0  0
  -18.0686  -13.4615    0.0000 C   0  0  0  0  0  0  0  0  0  0  0  0
  -19.2367  -12.5206    0.0000 C   0  0  0  0  0  0  0  0  0  0  0  0
  -18.4608  -11.4775    0.0000 C   0  0  0  0  0  0  0  0  0  0  0  0
  -17.7147  -11.1889    0.0000 C   0  0  0  0  0  0  0  0  0  0  0  0
  -17.0916  -11.6908    0.0000 C   0  0  0  0  0  0  0  0  0  0  0  0
  -17.2147  -12.4812    0.0000 C   0  0  0  0  0  0  0  0  0  0  0  0
  -15.0398  -10.8970    0.0000 O   0  0  0  0  0  0  0  0  0  0  0  0
  -20.1133   -6.1738    0.0000 S   0  0  0  0  0  0  0  0  0  0  0  0
  -17.5482   -5.7608    0.0000 N   0  0  0  0  0  0  0  0  0  0  0  0
  -17.7867   -4.2799    0.0000 C   0  0  0  0  0  0  0  0  0  0  0  0
  -16.6234   -3.3329    0.0000 C   0  0  0  0  0  0  0  0  0  0  0  0
  -16.8619   -1.8519    0.0000 C   0  0  0  0  0  0  0  0  0  0  0  0
  -18.2637   -1.3180    0.0000 O   0  0  0  0  0  0  0  0  0  0  0  0
  -15.6986   -0.9049    0.0000 N   0  0  0  0  0  0  0  0  0  0  0  0
  -15.9371    0.5760    0.0000 C   0  0  0  0  0  0  0  0  0  0  0  0
  -16.6677    1.8860    0.0000 C   0  0  0  0  0  0  0  0  0  0  0  0
  -15.8985    3.1738    0.0000 C   0  0  0  0  0  0  0  0  0  0  0  0
  -16.6291    4.4838    0.0000 C   0  0  0  0  0  0  0  0  0  0  0  0
  -15.8599    5.7715    0.0000 C   0  0  0  0  0  0  0  0  0  0  0  0
  -16.4253    7.1609    0.0000 N   0  0  0  0  0  0  0  0  0  0  0  0
  -14.7739    1.5230    0.0000 C   0  0  0  0  0  0  0  0  0  0  0  0
  -13.3721    0.9890    0.0000 O   0  0  0  0  0  0  0  0  0  0  0  0
  -15.0123    3.0039    0.0000 N   0  0  0  0  0  0  0  0  0  0  0  0
  -16.3506    3.6814    0.0000 C   0  0  0  0  0  0  0  0  0  0  0  0
  -16.1198    5.1635    0.0000 C   0  0  0  0  0  0  0  0  0  0  0  0
  -14.6389    5.4020    0.0000 C   0  0  0  0  0  0  0  0  0  0  0  0
  -13.9544    4.0673    0.0000 C   0  0  0  0  0  0  0  0  0  0  0  0
  -12.6985    4.8875    0.0000 C   0  0  0  0  0  0  0  0  0  0  0  0
  -12.5977    6.3841    0.0000 O   0  0  0  0  0  0  0  0  0  0  0  0
  -11.3603    4.2100    0.0000 N   0  0  0  0  0  0  0  0  0  0  0  0
  -10.1044    5.0302    0.0000 C   0  0  0  0  0  0  0  0  0  0  0  0
   -9.2048    6.2305    0.0000 C   0  0  0  0  0  0  0  0  0  0  0  0
   -7.7155    6.0515    0.0000 C   0  0  0  0  0  0  0  0  0  0  0  0
   -6.8158    7.2518    0.0000 C   0  0  0  0  0  0  0  0  0  0  0  0
   -5.3275    7.4385    0.0000 O   0  0  0  0  0  0  0  0  0  0  0  0
   -7.7217    8.4474    0.0000 O   0  0  0  0  0  0  0  0  0  0  0  0
   -8.7661    4.3526    0.0000 C   0  0  0  0  0  0  0  0  0  0  0  0
   -8.8669    2.8560    0.0000 O   0  0  0  0  0  0  0  0  0  0  0  0
   -7.5102    5.1729    0.0000 N   0  0  0  0  0  0  0  0  0  0  0  0
   -6.1720    4.4953    0.0000 C   0  0  0  0  0  0  0  0  0  0  0  0
   -5.7944    3.0436    0.0000 C   0  0  0  0  0  0  0  0  0  0  0  0
   -5.0058    1.7677    0.0000 C   0  0  0  0  0  0  0  0  0  0  0  0
   -3.8761    0.7809    0.0000 C   0  0  0  0  0  0  0  0  0  0  0  0
   -2.5057    0.1709    0.0000 C   0  0  0  0  0  0  0  0  0  0  0  0
   -7.4460    3.7035    0.0000 C   0  0  0  0  0  0  0  0  0  0  0  0
   -6.1048    5.9938    0.0000 C   0  0  0  0  0  0  0  0  0  0  0  0
   -7.3749    6.7919    0.0000 O   0  0  0  0  0  0  0  0  0  0  0  0
   -5.5989    7.4060    0.0000 N   0  0  0  0  0  0  0  0  0  0  0  0
   -4.6993    8.6062    0.0000 C   0  0  0  0  0  0  0  0  0  0  0  0
   -5.0040   10.0750    0.0000 C   0  0  0  0  0  0  0  0  0  0  0  0
   -6.4750   10.3683    0.0000 C   0  0  0  0  0  0  0  0  0  0  0  0
   -4.7880   11.5593    0.0000 C   0  0  0  0  0  0  0  0  0  0  0  0
   -5.9654   12.4886    0.0000 C   0  0  0  0  0  0  0  0  0  0  0  0
   -3.4859    9.4880    0.0000 C   0  0  0  0  0  0  0  0  0  0  0  0
   -4.0095   10.8937    0.0000 O   0  0  0  0  0  0  0  0  0  0  0  0
   -2.0664    9.9730    0.0000 N   0  0  0  0  0  0  0  0  0  0  0  0
   -0.5671   10.0180    0.0000 C   0  0  0  0  0  0  0  0  0  0  0  0
    0.3912   11.1719    0.0000 C   0  0  0  0  0  0  0  0  0  0  0  0
   -0.1289   12.5788    0.0000 C   0  0  0  0  0  0  0  0  0  0  0  0
    0.8294   13.7328    0.0000 C   0  0  0  0  0  0  0  0  0  0  0  0
   -1.0990   13.7230    0.0000 C   0  0  0  0  0  0  0  0  0  0  0  0
    0.8789    9.6191    0.0000 C   0  0  0  0  0  0  0  0  0  0  0  0
    1.4889   10.9894    0.0000 O   0  0  0  0  0  0  0  0  0  0  0  0
    2.1430    8.8117    0.0000 N   0  0  0  0  0  0  0  0  0  0  0  0
    3.1130    7.6675    0.0000 C   0  0  0  0  0  0  0  0  0  0  0  0
    4.6128    7.6377    0.0000 C   0  0  0  0  0  0  0  0  0  0  0  0
    5.3884    8.9216    0.0000 C   0  0  0  0  0  0  0  0  0  0  0  0
    6.8881    8.8918    0.0000 O   0  0  0  0  0  0  0  0  0  0  0  0
    4.6643   10.2353    0.0000 O   0  0  0  0  0  0  0  0  0  0  0  0
    3.7027    6.2883    0.0000 C   0  0  0  0  0  0  0  0  0  0  0  0
    5.1544    6.6658    0.0000 O   0  0  0  0  0  0  0  0  0  0  0  0
    3.8596    4.7965    0.0000 N   0  0  0  0  0  0  0  0  0  0  0  0
    3.5699    3.3247    0.0000 C   0  0  0  0  0  0  0  0  0  0  0  0
    2.8592    2.0038    0.0000 C   0  0  0  0  0  0  0  0  0  0  0  0
    1.7907    0.9510    0.0000 C   0  0  0  0  0  0  0  0  0  0  0  0
    0.4594    0.2599    0.0000 C   0  0  0  0  0  0  0  0  0  0  0  0
   -1.0164   -0.0081    0.0000 C   0  0  0  0  0  0  0  0  0  0  0  0
    5.0306    3.6659    0.0000 C   0  0  0  0  0  0  0  0  0  0  0  0
    4.4817    2.1337    0.0000 C   0  0  0  0  0  0  0  0  0  0  0  0
    4.2583    0.6504    0.0000 O   0  0  0  0  0  0  0  0  0  0  0  0
    5.9691    2.3277    0.0000 N   0  0  0  0  0  0  0  0  0  0  0  0
    6.8808    1.1366    0.0000 C   0  0  0  0  0  0  0  0  0  0  0  0
    7.3302   -0.2944    0.0000 C   0  0  0  0  0  0  0  0  0  0  0  0
    6.3156   -1.3992    0.0000 C   0  0  0  0  0  0  0  0  0  0  0  0
    6.6129   -2.8694    0.0000 C   0  0  0  0  0  0  0  0  0  0  0  0
    5.3065   -3.6066    0.0000 N   0  0  0  0  0  0  0  0  0  0  0  0
    4.2018   -2.5919    0.0000 C   0  0  0  0  0  0  0  0  0  0  0  0
    4.8254   -1.2277    0.0000 N   0  0  0  0  0  0  0  0  0  0  0  0
    8.3682    1.3307    0.0000 C   0  0  0  0  0  0  0  0  0  0  0  0
    8.9438    2.7159    0.0000 O   0  0  0  0  0  0  0  0  0  0  0  0
    9.2800    0.1396    0.0000 N   0  0  0  0  0  0  0  0  0  0  0  0
   10.7674    0.3337    0.0000 C   0  0  0  0  0  0  0  0  0  0  0  0
   12.0987    1.0248    0.0000 C   0  0  0  0  0  0  0  0  0  0  0  0
   13.4518    0.3775    0.0000 C   0  0  0  0  0  0  0  0  0  0  0  0
   11.6791   -0.8574    0.0000 C   0  0  0  0  0  0  0  0  0  0  0  0
   11.1035   -2.2425    0.0000 O   0  0  0  0  0  0  0  0  0  0  0  0
   13.1665   -0.6633    0.0000 N   0  0  0  0  0  0  0  0  0  0  0  0
   14.0783   -1.8544    0.0000 C   0  0  0  0  0  0  0  0  0  0  0  0
   14.5277   -3.2855    0.0000 C   0  0  0  0  0  0  0  0  0  0  0  0
   13.5131   -4.3902    0.0000 C   0  0  0  0  0  0  0  0  0  0  0  0
   13.9625   -5.8213    0.0000 C   0  0  0  0  0  0  0  0  0  0  0  0
   12.9478   -6.9261    0.0000 N   0  0  0  0  0  0  0  0  0  0  0  0
   15.4265   -6.1477    0.0000 O   0  0  0  0  0  0  0  0  0  0  0  0
   15.5657   -1.6603    0.0000 C   0  0  0  0  0  0  0  0  0  0  0  0
   16.1413   -0.2752    0.0000 O   0  0  0  0  0  0  0  0  0  0  0  0
   16.4775   -2.8514    0.0000 N   0  0  0  0  0  0  0  0  0  0  0  0
   17.9649   -2.6573    0.0000 C   0  0  0  0  0  0  0  0  0  0  0  0
   19.2962   -1.9662    0.0000 C   0  0  0  0  0  0  0  0  0  0  0  0
   20.5603   -2.7736    0.0000 C   0  0  0  0  0  0  0  0  0  0  0  0
   21.8916   -2.0826    0.0000 C   0  0  0  0  0  0  0  0  0  0  0  0
   23.1558   -2.8900    0.0000 N   0  0  0  0  0  0  0  0  0  0  0  0
   24.4871   -2.1989    0.0000 C   0  0  0  0  0  0  0  0  0  0  0  0
   25.6434   -3.1544    0.0000 N   0  0  0  0  0  0  0  0  0  0  0  0
   24.5543   -0.7004    0.0000 N   0  0  0  0  0  0  0  0  0  0  0  0
   18.8766   -3.8484    0.0000 C   0  0  0  0  0  0  0  0  0  0  0  0
   18.3010   -5.2336    0.0000 O   0  0  0  0  0  0  0  0  0  0  0  0
   20.3640   -3.6543    0.0000 N   0  0  0  0  0  0  0  0  0  0  0  0
   21.2758   -4.8454    0.0000 C   0  0  0  0  0  0  0  0  0  0  0  0
   21.7252   -6.2765    0.0000 C   0  0  0  0  0  0  0  0  0  0  0  0
   20.7105   -7.3813    0.0000 C   0  0  0  0  0  0  0  0  0  0  0  0
   22.7632   -4.6513    0.0000 C   0  0  0  0  0  0  0  0  0  0  0  0
   23.6569   -3.4466    0.0000 O   0  0  0  0  0  0  0  0  0  0  0  0
   23.6749   -5.8424    0.0000 N   0  0  0  0  0  0  0  0  0  0  0  0
   25.1623   -5.6483    0.0000 C   0  0  0  0  0  0  0  0  0  0  0  0
   26.4937   -4.9573    0.0000 C   0  0  0  0  0  0  0  0  0  0  0  0
   27.7578   -5.7647    0.0000 C   0  0  0  0  0  0  0  0  0  0  0  0
   29.0891   -5.0736    0.0000 S   0  0  0  0  0  0  0  0  0  0  0  0
   30.3533   -5.8810    0.0000 C   0  0  0  0  0  0  0  0  0  0  0  0
   26.0741   -6.8394    0.0000 C   0  0  0  0  0  0  0  0  0  0  0  0
   27.5741   -6.8281    0.0000 O   0  0  0  0  0  0  0  0  0  0  0  0
   25.4985   -8.2246    0.0000 O   0  0  0  0  0  0  0  0  0  0  0  0
  -17.0166   -8.5478    0.0000 H   0  0  0  0  0  0  0  0  0  0  0  0
  -21.2765   -7.1208    0.0000 H   0  0  0  0  0  0  0  0  0  0  0  0
  -23.6031   -9.0148    0.0000 H   0  0  0  0  0  0  0  0  0  0  0  0
  -17.9085  -10.7955    0.0000 H   0  0  0  0  0  0  0  0  0  0  0  0
  -18.7610  -17.9079    0.0000 H   0  0  0  0  0  0  0  0  0  0  0  0
  -23.8953  -17.1083    0.0000 H   0  0  0  0  0  0  0  0  0  0  0  0
  -23.4337  -14.1441    0.0000 H   0  0  0  0  0  0  0  0  0  0  0  0
  -22.9580  -19.5314    0.0000 H   0  0  0  0  0  0  0  0  0  0  0  0
  -20.1741  -10.0975    0.0000 H   0  0  0  0  0  0  0  0  0  0  0  0
  -17.1972   -9.0543    0.0000 H   0  0  0  0  0  0  0  0  0  0  0  0
  -15.5015  -13.8613    0.0000 H   0  0  0  0  0  0  0  0  0  0  0  0
  -13.8717  -11.8380    0.0000 H   0  0  0  0  0  0  0  0  0  0  0  0
  -16.1465   -6.2947    0.0000 H   0  0  0  0  0  0  0  0  0  0  0  0
  -18.5173   -2.9698    0.0000 H   0  0  0  0  0  0  0  0  0  0  0  0
  -19.2037   -4.7719    0.0000 H   0  0  0  0  0  0  0  0  0  0  0  0
  -15.2064   -2.8408    0.0000 H   0  0  0  0  0  0  0  0  0  0  0  0
  -15.8928   -4.6429    0.0000 H   0  0  0  0  0  0  0  0  0  0  0  0
  -14.2969   -1.4389    0.0000 H   0  0  0  0  0  0  0  0  0  0  0  0
  -17.3541    0.0840    0.0000 H   0  0  0  0  0  0  0  0  0  0  0  0
  -17.9135    2.7216    0.0000 H   0  0  0  0  0  0  0  0  0  0  0  0
  -17.8310    0.9390    0.0000 H   0  0  0  0  0  0  0  0  0  0  0  0
  -14.8593    4.2555    0.0000 H   0  0  0  0  0  0  0  0  0  0  0  0
  -14.4360    2.8403    0.0000 H   0  0  0  0  0  0  0  0  0  0  0  0
  -17.9674    5.1613    0.0000 H   0  0  0  0  0  0  0  0  0  0  0  0
  -17.9870    3.8464    0.0000 H   0  0  0  0  0  0  0  0  0  0  0  0
  -14.8207    6.8533    0.0000 H   0  0  0  0  0  0  0  0  0  0  0  0
  -14.4490    5.2623    0.0000 H   0  0  0  0  0  0  0  0  0  0  0  0
  -15.8212    8.3693    0.0000 H   0  0  0  0  0  0  0  0  0  0  0  0
  -17.7251    8.0628    0.0000 H   0  0  0  0  0  0  0  0  0  0  0  0
  -17.9483    6.4442    0.0000 H   0  0  0  0  0  0  0  0  0  0  0  0
  -17.2079    2.4505    0.0000 H   0  0  0  0  0  0  0  0  0  0  0  0
  -17.8365    3.8863    0.0000 H   0  0  0  0  0  0  0  0  0  0  0  0
  -17.6179    5.2382    0.0000 H   0  0  0  0  0  0  0  0  0  0  0  0
  -16.3841    6.6401    0.0000 H   0  0  0  0  0  0  0  0  0  0  0  0
  -14.8514    6.8869    0.0000 H   0  0  0  0  0  0  0  0  0  0  0  0
  -13.3163    6.1097    0.0000 H   0  0  0  0  0  0  0  0  0  0  0  0
  -13.0074    2.9040    0.0000 H   0  0  0  0  0  0  0  0  0  0  0  0
  -11.2779    2.7122    0.0000 H   0  0  0  0  0  0  0  0  0  0  0  0
  -11.1302    6.1246    0.0000 H   0  0  0  0  0  0  0  0  0  0  0  0
   -8.7699    7.6660    0.0000 H   0  0  0  0  0  0  0  0  0  0  0  0
  -10.5430    6.9080    0.0000 H   0  0  0  0  0  0  0  0  0  0  0  0
   -6.2530    5.7179    0.0000 H   0  0  0  0  0  0  0  0  0  0  0  0
   -7.6068    4.5554    0.0000 H   0  0  0  0  0  0  0  0  0  0  0  0
   -7.4094    6.6695    0.0000 H   0  0  0  0  0  0  0  0  0  0  0  0
   -7.2928    3.1145    0.0000 H   0  0  0  0  0  0  0  0  0  0  0  0
   -6.6331    1.8000    0.0000 H   0  0  0  0  0  0  0  0  0  0  0  0
   -6.4020    1.2194    0.0000 H   0  0  0  0  0  0  0  0  0  0  0  0
   -5.6124    0.3958    0.0000 H   0  0  0  0  0  0  0  0  0  0  0  0
   -5.1540   -0.0046    0.0000 H   0  0  0  0  0  0  0  0  0  0  0  0
   -3.8685   -0.7191    0.0000 H   0  0  0  0  0  0  0  0  0  0  0  0
   -2.9046   -1.2751    0.0000 H   0  0  0  0  0  0  0  0  0  0  0  0
   -7.5136    2.0390    0.0000 H   0  0  0  0  0  0  0  0  0  0  0  0
   -8.6723    2.9138    0.0000 H   0  0  0  0  0  0  0  0  0  0  0  0
   -8.4403    4.5689    0.0000 H   0  0  0  0  0  0  0  0  0  0  0  0
   -6.8234    8.2724    0.0000 H   0  0  0  0  0  0  0  0  0  0  0  0
   -6.1922    8.7517    0.0000 H   0  0  0  0  0  0  0  0  0  0  0  0
   -3.5601   10.4814    0.0000 H   0  0  0  0  0  0  0  0  0  0  0  0
   -6.9317   11.9705    0.0000 H   0  0  0  0  0  0  0  0  0  0  0  0
   -7.9276   10.5005    0.0000 H   0  0  0  0  0  0  0  0  0  0  0  0
   -6.9971    9.1575    0.0000 H   0  0  0  0  0  0  0  0  0  0  0  0
   -4.0773   12.8803    0.0000 H   0  0  0  0  0  0  0  0  0  0  0  0
   -3.3169   11.2660    0.0000 H   0  0  0  0  0  0  0  0  0  0  0  0
   -5.7494   13.9730    0.0000 H   0  0  0  0  0  0  0  0  0  0  0  0
   -7.3897   12.9591    0.0000 H   0  0  0  0  0  0  0  0  0  0  0  0
   -6.9746   11.3789    0.0000 H   0  0  0  0  0  0  0  0  0  0  0  0
   -2.3344   11.4488    0.0000 H   0  0  0  0  0  0  0  0  0  0  0  0
   -1.3842   11.2759    0.0000 H   0  0  0  0  0  0  0  0  0  0  0  0
    1.7690   11.7650    0.0000 H   0  0  0  0  0  0  0  0  0  0  0  0
    1.6093   10.2965    0.0000 H   0  0  0  0  0  0  0  0  0  0  0  0
   -1.5067   11.9858    0.0000 H   0  0  0  0  0  0  0  0  0  0  0  0
    0.4846   15.1926    0.0000 H   0  0  0  0  0  0  0  0  0  0  0  0
    2.1246   14.4894    0.0000 H   0  0  0  0  0  0  0  0  0  0  0  0
    1.9316   12.7154    0.0000 H   0  0  0  0  0  0  0  0  0  0  0  0
   -0.7690   15.1863    0.0000 H   0  0  0  0  0  0  0  0  0  0  0  0
   -2.4018   14.4664    0.0000 H   0  0  0  0  0  0  0  0  0  0  0  0
   -2.0573   12.5691    0.0000 H   0  0  0  0  0  0  0  0  0  0  0  0
    3.1298    9.9414    0.0000 H   0  0  0  0  0  0  0  0  0  0  0  0
    3.7570    9.0222    0.0000 H   0  0  0  0  0  0  0  0  0  0  0  0
    6.0118    7.0968    0.0000 H   0  0  0  0  0  0  0  0  0  0  0  0
    4.6877    6.1396    0.0000 H   0  0  0  0  0  0  0  0  0  0  0  0
    5.3581    4.7293    0.0000 H   0  0  0  0  0  0  0  0  0  0  0  0
    3.3794    0.5969    0.0000 H   0  0  0  0  0  0  0  0  0  0  0  0
    4.2858    1.5403    0.0000 H   0  0  0  0  0  0  0  0  0  0  0  0
    2.0551   -0.5255    0.0000 H   0  0  0  0  0  0  0  0  0  0  0  0
    3.0174    0.0876    0.0000 H   0  0  0  0  0  0  0  0  0  0  0  0
    0.0967   -1.1956    0.0000 H   0  0  0  0  0  0  0  0  0  0  0  0
    1.5149   -0.8060    0.0000 H   0  0  0  0  0  0  0  0  0  0  0  0
   -0.9714   -1.5074    0.0000 H   0  0  0  0  0  0  0  0  0  0  0  0
    6.2907    2.8523    0.0000 H   0  0  0  0  0  0  0  0  0  0  0  0
    6.1771    4.6331    0.0000 H   0  0  0  0  0  0  0  0  0  0  0  0
    4.7922    5.1469    0.0000 H   0  0  0  0  0  0  0  0  0  0  0  0
    6.7092    3.6324    0.0000 H   0  0  0  0  0  0  0  0  0  0  0  0
    5.5495    0.4456    0.0000 H   0  0  0  0  0  0  0  0  0  0  0  0
    8.0900   -1.5878    0.0000 H   0  0  0  0  0  0  0  0  0  0  0  0
    8.7892    0.0540    0.0000 H   0  0  0  0  0  0  0  0  0  0  0  0
    7.9772   -3.4930    0.0000 H   0  0  0  0  0  0  0  0  0  0  0  0
    5.1350   -5.0967    0.0000 H   0  0  0  0  0  0  0  0  0  0  0  0
    2.7316   -2.8892    0.0000 H   0  0  0  0  0  0  0  0  0  0  0  0
    8.8775   -1.3054    0.0000 H   0  0  0  0  0  0  0  0  0  0  0  0
   10.3180    1.7648    0.0000 H   0  0  0  0  0  0  0  0  0  0  0  0
   13.1134    2.1295    0.0000 H   0  0  0  0  0  0  0  0  0  0  0  0
   11.1869    2.2159    0.0000 H   0  0  0  0  0  0  0  0  0  0  0  0
   14.6942    0.9085    0.0000 H   0  0  0  0  0  0  0  0  0  0  0  0
   14.2746   -0.9737    0.0000 H   0  0  0  0  0  0  0  0  0  0  0  0
   12.9858   -1.2344    0.0000 H   0  0  0  0  0  0  0  0  0  0  0  0
   13.9067    0.6414    0.0000 H   0  0  0  0  0  0  0  0  0  0  0  0
   12.6727   -2.3780    0.0000 H   0  0  0  0  0  0  0  0  0  0  0  0
   15.2875   -4.5788    0.0000 H   0  0  0  0  0  0  0  0  0  0  0  0
   15.9867   -2.9371    0.0000 H   0  0  0  0  0  0  0  0  0  0  0  0
   12.1817   -5.0813    0.0000 H   0  0  0  0  0  0  0  0  0  0  0  0
   12.4629   -3.3192    0.0000 H   0  0  0  0  0  0  0  0  0  0  0  0
   13.3972   -8.3572    0.0000 H   0  0  0  0  0  0  0  0  0  0  0  0
   11.4837   -6.5997    0.0000 H   0  0  0  0  0  0  0  0  0  0  0  0
   16.0750   -4.2964    0.0000 H   0  0  0  0  0  0  0  0  0  0  0  0
   17.5155   -1.2262    0.0000 H   0  0  0  0  0  0  0  0  0  0  0  0
   20.1686   -0.7460    0.0000 H   0  0  0  0  0  0  0  0  0  0  0  0
   18.3844   -0.7751    0.0000 H   0  0  0  0  0  0  0  0  0  0  0  0
   21.4721   -3.9647    0.0000 H   0  0  0  0  0  0  0  0  0  0  0  0
   20.1832   -4.2255    0.0000 H   0  0  0  0  0  0  0  0  0  0  0  0
   22.9063   -0.9778    0.0000 H   0  0  0  0  0  0  0  0  0  0  0  0
   21.1319   -0.7892    0.0000 H   0  0  0  0  0  0  0  0  0  0  0  0
   23.4532   -4.3602    0.0000 H   0  0  0  0  0  0  0  0  0  0  0  0
   27.0826   -2.3152    0.0000 H   0  0  0  0  0  0  0  0  0  0  0  0
   25.5192   -4.4997    0.0000 H   0  0  0  0  0  0  0  0  0  0  0  0
   25.8856   -0.0093    0.0000 H   0  0  0  0  0  0  0  0  0  0  0  0
   23.2901    0.1070    0.0000 H   0  0  0  0  0  0  0  0  0  0  0  0
   21.2577   -2.4496    0.0000 H   0  0  0  0  0  0  0  0  0  0  0  0
   19.8702   -5.3691    0.0000 H   0  0  0  0  0  0  0  0  0  0  0  0
   22.4850   -7.5698    0.0000 H   0  0  0  0  0  0  0  0  0  0  0  0
   23.1842   -5.9281    0.0000 H   0  0  0  0  0  0  0  0  0  0  0  0
   21.1599   -8.8123    0.0000 H   0  0  0  0  0  0  0  0  0  0  0  0
   19.3792   -8.0723    0.0000 H   0  0  0  0  0  0  0  0  0  0  0  0
   19.6604   -6.3102    0.0000 H   0  0  0  0  0  0  0  0  0  0  0  0
   23.2725   -7.2874    0.0000 H   0  0  0  0  0  0  0  0  0  0  0  0
   24.7129   -4.2173    0.0000 H   0  0  0  0  0  0  0  0  0  0  0  0
   27.5083   -3.8525    0.0000 H   0  0  0  0  0  0  0  0  0  0  0  0
   25.3208   -4.0222    0.0000 H   0  0  0  0  0  0  0  0  0  0  0  0
   28.5176   -7.0580    0.0000 H   0  0  0  0  0  0  0  0  0  0  0  0
   27.2066   -7.1597    0.0000 H   0  0  0  0  0  0  0  0  0  0  0  0
   31.6846   -5.1899    0.0000 H   0  0  0  0  0  0  0  0  0  0  0  0
   31.2651   -7.0721    0.0000 H   0  0  0  0  0  0  0  0  0  0  0  0
   29.4809   -7.1012    0.0000 H   0  0  0  0  0  0  0  0  0  0  0  0
  1  2  1  0
  2  3  1  0
  3  4  2  0
  4  5  1  0
  5  6  2  0
  6  7  1  0
  7  8  2  0
  7  9  1  0
  9 10  1  0
 10 11  1  0
 11 12  2  0
  9 13  1  0
 13 14  1  0
 14 15  2  0
 15 16  1  0
 16 17  2  0
 17 18  1  0
 16 19  1  0
 14 20  1  0
 20 21  1  0
 21 22  2  0
 22 23  1  0
 23 24  2  0
 24 25  1  0
 25 26  2  0
 25 27  1  0
  1 28  2  0
  1 29  1  0
 29 30  1  0
 30 31  1  0
 31 32  1  0
 32 33  2  0
 32 34  1  0
 34 35  1  0
 35 36  1  0
 36 37  1  0
 37 38  1  0
 38 39  1  0
 39 40  1  0
 35 41  1  0
 41 42  2  0
 41 43  1  0
 43 44  1  0
 44 45  1  0
 45 46  1  0
 46 47  1  0
 47 48  1  0
 48 49  2  0
 48 50  1  0
 50 51  1  0
 51 52  1  0
 52 53  1  0
 53 54  1  0
 54 55  2  0
 54 56  1  0
 51 57  1  0
 57 58  2  0
 57 59  1  0
 60 59  1  6
 60 61  1  0
 61 62  1  0
 62 63  1  0
 63 64  1  0
 60 65  1  0
 60 66  1  0
 66 67  2  0
 66 68  1  0
 68 69  1  0
 69 70  1  0
 70 71  1  0
 70 72  1  0
 72 73  1  0
 69 74  1  0
 74 75  2  0
 74 76  1  0
 76 77  1  0
 77 78  1  0
 78 79  1  0
 79 80  1  0
 79 81  1  0
 77 82  1  0
 82 83  2  0
 82 84  1  0
 84 85  1  0
 85 86  1  0
 86 87  1  0
 87 88  2  0
 87 89  1  0
 85 90  1  0
 90 91  2  0
 90 92  1  0
 92 93  1  0
 93 94  1  0
 94 95  1  0
 95 96  1  0
 96 97  1  0
 93 98  1  0
 93 99  1  6
 99100  2  0
 99101  1  0
101102  1  0
102103  1  0
103104  1  0
104105  2  0
105106  1  0
106107  1  0
107108  2  0
102109  1  0
109110  2  0
109111  1  0
111112  1  0
112113  1  0
113114  1  0
112115  1  0
115116  2  0
115117  1  0
117118  1  0
118119  1  0
119120  1  0
120121  1  0
121122  1  0
121123  2  0
118124  1  0
124125  2  0
124126  1  0
126127  1  0
127128  1  0
128129  1  0
129130  1  0
130131  1  0
131132  1  0
132133  2  3
132134  1  0
127135  1  0
135136  2  0
135137  1  0
137138  1  0
138139  1  0
139140  1  0
138141  1  0
141142  2  0
141143  1  0
143144  1  0
144145  1  0
145146  1  0
146147  1  0
147148  1  0
144149  1  0
149150  2  0
149151  1  0
  8  3  1  0
 47 43  1  0
108104  1  0
 11  6  1  0
 64 97  2  0
 18 13  2  0
 22  9  1  0
 26 21  1  0
  2152  1  0
  4153  1  0
  5154  1  0
  8155  1  0
 15156  1  0
 17157  1  0
 18158  1  0
 19159  1  0
 23160  1  0
 24161  1  0
 26162  1  0
 27163  1  0
 29164  1  0
 30165  1  0
 30166  1  0
 31167  1  0
 31168  1  0
 34169  1  0
 35170  1  1
 36171  1  0
 36172  1  0
 37173  1  0
 37174  1  0
 38175  1  0
 38176  1  0
 39177  1  0
 39178  1  0
 40179  1  0
 40180  1  0
 40181  1  0
 44182  1  0
 44183  1  0
 45184  1  0
 45185  1  0
 46186  1  0
 46187  1  0
 47188  1  0
 50189  1  0
 51190  1  1
 52191  1  0
 52192  1  0
 53193  1  0
 53194  1  0
 59195  1  0
 61196  1  0
 61197  1  0
 62198  1  0
 62199  1  0
 63200  1  0
 63201  1  0
 64202  1  0
 65203  1  0
 65204  1  0
 65205  1  0
 68206  1  0
 69207  1  1
 70208  1  6
 71209  1  0
 71210  1  0
 71211  1  0
 72212  1  0
 72213  1  0
 73214  1  0
 73215  1  0
 73216  1  0
 76217  1  0
 77218  1  1
 78219  1  0
 78220  1  0
 79221  1  0
 80222  1  0
 80223  1  0
 80224  1  0
 81225  1  0
 81226  1  0
 81227  1  0
 84228  1  0
 85229  1  1
 86230  1  0
 86231  1  0
 92232  1  0
 94233  1  0
 94234  1  0
 95235  1  0
 95236  1  0
 96237  1  0
 96238  1  0
 97239  1  0
 98240  1  0
 98241  1  0
 98242  1  0
101243  1  0
102244  1  6
103245  1  0
103246  1  0
105247  1  0
106248  1  0
107249  1  0
111250  1  0
112251  1  1
113252  1  0
113253  1  0
114254  1  0
114255  1  0
114256  1  0
117257  1  0
118258  1  6
119259  1  0
119260  1  0
120261  1  0
120262  1  0
122263  1  0
122264  1  0
126265  1  0
127266  1  1
128267  1  0
128268  1  0
129269  1  0
129270  1  0
130271  1  0
130272  1  0
131273  1  0
133274  1  0
133275  1  0
134276  1  0
134277  1  0
137278  1  0
138279  1  6
139280  1  0
139281  1  0
140282  1  0
140283  1  0
140284  1  0
143285  1  0
144286  1  1
145287  1  0
145288  1  0
146289  1  0
146290  1  0
148291  1  0
148292  1  0
148293  1  0
M  CHG  5  40   1  56  -1  89  -1 133   1 151  -1
M  END
