
     RDKit          2D

210216  0  0  0  0  0  0  0  0999 V2000
   14.6304   -0.6784    0.0000 C   0  0  0  0  0  0  0  0  0  0  0  0
   15.9918   -0.0486    0.0000 N   0  0  0  0  0  0  0  0  0  0  0  0
   17.2179   -0.9127    0.0000 C   0  0  0  0  0  0  0  0  0  0  0  0
   17.0826   -2.4066    0.0000 C   0  0  0  0  0  0  0  0  0  0  0  0
   18.3087   -3.2707    0.0000 C   0  0  0  0  0  0  0  0  0  0  0  0
   19.6701   -2.6409    0.0000 C   0  0  0  0  0  0  0  0  0  0  0  0
   19.8054   -1.1470    0.0000 C   0  0  0  0  0  0  0  0  0  0  0  0
   18.5792   -0.2829    0.0000 C   0  0  0  0  0  0  0  0  0  0  0  0
   21.2679   -0.8140    0.0000 C   0  0  0  0  0  0  0  0  0  0  0  0
   22.0366   -2.1021    0.0000 O   0  0  0  0  0  0  0  0  0  0  0  0
   21.0491   -3.2311    0.0000 C   0  0  0  0  0  0  0  0  0  0  0  0
   21.3820   -4.6937    0.0000 O   0  0  0  0  0  0  0  0  0  0  0  0
   22.7573   -0.6357    0.0000 C   0  0  0  0  0  0  0  0  0  0  0  0
   23.3476    0.7433    0.0000 C   0  0  0  0  0  0  0  0  0  0  0  0
   24.8370    0.9215    0.0000 C   0  0  0  0  0  0  0  0  0  0  0  0
   25.7360   -0.2791    0.0000 C   0  0  0  0  0  0  0  0  0  0  0  0
   25.1457   -1.6581    0.0000 C   0  0  0  0  0  0  0  0  0  0  0  0
   23.6564   -1.8364    0.0000 C   0  0  0  0  0  0  0  0  0  0  0  0
   27.2254   -0.1009    0.0000 O   0  0  0  0  0  0  0  0  0  0  0  0
   22.4485    1.9440    0.0000 O   0  0  0  0  0  0  0  0  0  0  0  0
   20.9591    1.7657    0.0000 C   0  0  0  0  0  0  0  0  0  0  0  0
   20.3688    0.3867    0.0000 C   0  0  0  0  0  0  0  0  0  0  0  0
   19.1549    0.8519    0.0000 C   0  0  0  0  0  0  0  0  0  0  0  0
   18.6754    1.4923    0.0000 C   0  0  0  0  0  0  0  0  0  0  0  0
   18.9903    2.2278    0.0000 C   0  0  0  0  0  0  0  0  0  0  0  0
   19.7846    2.3228    0.0000 C   0  0  0  0  0  0  0  0  0  0  0  0
   17.6716    3.9888    0.0000 O   0  0  0  0  0  0  0  0  0  0  0  0
   14.4951   -2.1723    0.0000 S   0  0  0  0  0  0  0  0  0  0  0  0
   13.4043    0.1857    0.0000 N   0  0  0  0  0  0  0  0  0  0  0  0
   12.0429   -0.4441    0.0000 C   0  0  0  0  0  0  0  0  0  0  0  0
   10.8168    0.4200    0.0000 C   0  0  0  0  0  0  0  0  0  0  0  0
    9.4554   -0.2098    0.0000 C   0  0  0  0  0  0  0  0  0  0  0  0
    9.3201   -1.7037    0.0000 O   0  0  0  0  0  0  0  0  0  0  0  0
    8.2293    0.6543    0.0000 N   0  0  0  0  0  0  0  0  0  0  0  0
    6.8679    0.0245    0.0000 C   0  0  0  0  0  0  0  0  0  0  0  0
    5.8040   -1.0329    0.0000 C   0  0  0  0  0  0  0  0  0  0  0  0
    4.3563   -0.6403    0.0000 C   0  0  0  0  0  0  0  0  0  0  0  0
    3.2924   -1.6977    0.0000 C   0  0  0  0  0  0  0  0  0  0  0  0
    1.8447   -1.3051    0.0000 N   0  0  0  0  0  0  0  0  0  0  0  0
    0.7809   -2.3625    0.0000 C   0  0  0  0  0  0  0  0  0  0  0  0
   -0.6082   -1.7964    0.0000 N   0  0  0  0  0  0  0  0  0  0  0  0
    1.1647   -3.8126    0.0000 N   0  0  0  0  0  0  0  0  0  0  0  0
    5.6418    0.8886    0.0000 C   0  0  0  0  0  0  0  0  0  0  0  0
    5.7771    2.3825    0.0000 O   0  0  0  0  0  0  0  0  0  0  0  0
    4.2804    0.2588    0.0000 N   0  0  0  0  0  0  0  0  0  0  0  0
    3.0543    1.1229    0.0000 C   0  0  0  0  0  0  0  0  0  0  0  0
    2.1977    2.3542    0.0000 C   0  0  0  0  0  0  0  0  0  0  0  0
    2.8357    3.7118    0.0000 C   0  0  0  0  0  0  0  0  0  0  0  0
    1.9791    4.9431    0.0000 C   0  0  0  0  0  0  0  0  0  0  0  0
    2.6172    6.3006    0.0000 C   0  0  0  0  0  0  0  0  0  0  0  0
    1.7605    7.5320    0.0000 N   0  0  0  0  0  0  0  0  0  0  0  0
    1.6929    0.4931    0.0000 C   0  0  0  0  0  0  0  0  0  0  0  0
    1.3337   -0.5397    0.0000 O   0  0  0  0  0  0  0  0  0  0  0  0
    0.4668    1.3572    0.0000 N   0  0  0  0  0  0  0  0  0  0  0  0
   -0.8946    0.7274    0.0000 C   0  0  0  0  0  0  0  0  0  0  0  0
   -1.9584   -0.3300    0.0000 C   0  0  0  0  0  0  0  0  0  0  0  0
   -2.1207    1.5915    0.0000 C   0  0  0  0  0  0  0  0  0  0  0  0
   -1.8043    3.0578    0.0000 O   0  0  0  0  0  0  0  0  0  0  0  0
   -3.4821    0.9617    0.0000 N   0  0  0  0  0  0  0  0  0  0  0  0
   -4.7082    1.8258    0.0000 C   0  0  0  0  0  0  0  0  0  0  0  0
   -4.8716    3.3169    0.0000 C   0  0  0  0  0  0  0  0  0  0  0  0
   -5.4672    4.6935    0.0000 C   0  0  0  0  0  0  0  0  0  0  0  0
   -6.4422    5.8335    0.0000 C   0  0  0  0  0  0  0  0  0  0  0  0
   -7.7099    6.6354    0.0000 C   0  0  0  0  0  0  0  0  0  0  0  0
   -3.3330    2.4249    0.0000 C   0  0  0  0  0  0  0  0  0  0  0  0
   -4.9915    0.3528    0.0000 C   0  0  0  0  0  0  0  0  0  0  0  0
   -3.7401   -0.4743    0.0000 O   0  0  0  0  0  0  0  0  0  0  0  0
   -5.6964   -0.9712    0.0000 N   0  0  0  0  0  0  0  0  0  0  0  0
   -6.7603   -2.0287    0.0000 C   0  0  0  0  0  0  0  0  0  0  0  0
   -6.6714   -3.5260    0.0000 C   0  0  0  0  0  0  0  0  0  0  0  0
   -5.3302   -4.1977    0.0000 C   0  0  0  0  0  0  0  0  0  0  0  0
   -5.2413   -5.6951    0.0000 C   0  0  0  0  0  0  0  0  0  0  0  0
   -3.9001   -6.3668    0.0000 N   0  0  0  0  0  0  0  0  0  0  0  0
   -3.8112   -7.8642    0.0000 C   0  0  0  0  0  0  0  0  0  0  0  0
   -2.4700   -8.5359    0.0000 N   0  0  0  0  0  0  0  0  0  0  0  0
   -5.0635   -8.6898    0.0000 N   0  0  0  0  0  0  0  0  0  0  0  0
   -8.0886   -2.7255    0.0000 C   0  0  0  0  0  0  0  0  0  0  0  0
   -7.5975   -4.1429    0.0000 O   0  0  0  0  0  0  0  0  0  0  0  0
   -9.5633   -2.9999    0.0000 N   0  0  0  0  0  0  0  0  0  0  0  0
  -11.0534   -2.8275    0.0000 C   0  0  0  0  0  0  0  0  0  0  0  0
  -12.1686   -3.8305    0.0000 C   0  0  0  0  0  0  0  0  0  0  0  0
  -11.8575   -5.2979    0.0000 C   0  0  0  0  0  0  0  0  0  0  0  0
  -12.9728   -6.3010    0.0000 C   0  0  0  0  0  0  0  0  0  0  0  0
  -11.0634   -6.5704    0.0000 C   0  0  0  0  0  0  0  0  0  0  0  0
  -12.4264   -2.2234    0.0000 C   0  0  0  0  0  0  0  0  0  0  0  0
  -13.2283   -3.4911    0.0000 O   0  0  0  0  0  0  0  0  0  0  0  0
  -13.5603   -1.2416    0.0000 N   0  0  0  0  0  0  0  0  0  0  0  0
  -14.3545    0.0309    0.0000 C   0  0  0  0  0  0  0  0  0  0  0  0
  -15.8341    0.2775    0.0000 C   0  0  0  0  0  0  0  0  0  0  0  0
  -16.7874   -0.8806    0.0000 C   0  0  0  0  0  0  0  0  0  0  0  0
  -18.2670   -0.6341    0.0000 C   0  0  0  0  0  0  0  0  0  0  0  0
  -19.2203   -1.7922    0.0000 C   0  0  0  0  0  0  0  0  0  0  0  0
  -18.6940   -3.1969    0.0000 C   0  0  0  0  0  0  0  0  0  0  0  0
  -17.2144   -3.4434    0.0000 C   0  0  0  0  0  0  0  0  0  0  0  0
  -16.2611   -2.2853    0.0000 C   0  0  0  0  0  0  0  0  0  0  0  0
  -14.7384    1.4810    0.0000 C   0  0  0  0  0  0  0  0  0  0  0  0
  -16.2294    1.3176    0.0000 O   0  0  0  0  0  0  0  0  0  0  0  0
  -14.6777    2.9798    0.0000 N   0  0  0  0  0  0  0  0  0  0  0  0
  -14.1780    4.3941    0.0000 C   0  0  0  0  0  0  0  0  0  0  0  0
  -13.2836    5.5983    0.0000 C   0  0  0  0  0  0  0  0  0  0  0  0
  -12.0740    6.4853    0.0000 C   0  0  0  0  0  0  0  0  0  0  0  0
  -10.6567    6.9764    0.0000 C   0  0  0  0  0  0  0  0  0  0  0  0
   -9.1576    7.0280    0.0000 C   0  0  0  0  0  0  0  0  0  0  0  0
  -15.6727    4.2679    0.0000 C   0  0  0  0  0  0  0  0  0  0  0  0
  -14.9078    5.7046    0.0000 C   0  0  0  0  0  0  0  0  0  0  0  0
  -16.3936    5.9105    0.0000 O   0  0  0  0  0  0  0  0  0  0  0  0
  -14.4721    7.1399    0.0000 O   0  0  0  0  0  0  0  0  0  0  0  0
   15.9439    1.4507    0.0000 H   0  0  0  0  0  0  0  0  0  0  0  0
   15.7212   -3.0364    0.0000 H   0  0  0  0  0  0  0  0  0  0  0  0
   18.1734   -4.7645    0.0000 H   0  0  0  0  0  0  0  0  0  0  0  0
   18.4569    0.5048    0.0000 H   0  0  0  0  0  0  0  0  0  0  0  0
   25.4272    2.3005    0.0000 H   0  0  0  0  0  0  0  0  0  0  0  0
   26.0448   -2.8588    0.0000 H   0  0  0  0  0  0  0  0  0  0  0  0
   23.0661   -3.2154    0.0000 H   0  0  0  0  0  0  0  0  0  0  0  0
   28.1245   -1.3016    0.0000 H   0  0  0  0  0  0  0  0  0  0  0  0
   18.2892   -1.1705    0.0000 H   0  0  0  0  0  0  0  0  0  0  0  0
   16.4804    1.4137    0.0000 H   0  0  0  0  0  0  0  0  0  0  0  0
   20.6503    4.3453    0.0000 H   0  0  0  0  0  0  0  0  0  0  0  0
   18.2619    5.3677    0.0000 H   0  0  0  0  0  0  0  0  0  0  0  0
   13.5395    1.6796    0.0000 H   0  0  0  0  0  0  0  0  0  0  0  0
   10.9790   -1.5015    0.0000 H   0  0  0  0  0  0  0  0  0  0  0  0
   12.8995   -1.6754    0.0000 H   0  0  0  0  0  0  0  0  0  0  0  0
    9.9601    1.6513    0.0000 H   0  0  0  0  0  0  0  0  0  0  0  0
   11.8807    1.4774    0.0000 H   0  0  0  0  0  0  0  0  0  0  0  0
    8.3646    2.1482    0.0000 H   0  0  0  0  0  0  0  0  0  0  0  0
    7.7245   -1.2068    0.0000 H   0  0  0  0  0  0  0  0  0  0  0  0
    5.3362   -2.4581    0.0000 H   0  0  0  0  0  0  0  0  0  0  0  0
    7.0301   -1.8970    0.0000 H   0  0  0  0  0  0  0  0  0  0  0  0
    3.1302    0.2238    0.0000 H   0  0  0  0  0  0  0  0  0  0  0  0
    4.2822    0.8579    0.0000 H   0  0  0  0  0  0  0  0  0  0  0  0
    2.6544   -3.0553    0.0000 H   0  0  0  0  0  0  0  0  0  0  0  0
    4.4041   -2.7048    0.0000 H   0  0  0  0  0  0  0  0  0  0  0  0
    1.1214    0.0090    0.0000 H   0  0  0  0  0  0  0  0  0  0  0  0
   -1.7307   -3.0273    0.0000 H   0  0  0  0  0  0  0  0  0  0  0  0
   -0.8918   -0.4754    0.0000 H   0  0  0  0  0  0  0  0  0  0  0  0
    0.1008   -4.8700    0.0000 H   0  0  0  0  0  0  0  0  0  0  0  0
    2.6124   -4.2052    0.0000 H   0  0  0  0  0  0  0  0  0  0  0  0
    3.7877   -1.1579    0.0000 H   0  0  0  0  0  0  0  0  0  0  0  0
    4.2391    2.0428    0.0000 H   0  0  0  0  0  0  0  0  0  0  0  0
    0.9716    3.2183    0.0000 H   0  0  0  0  0  0  0  0  0  0  0  0
    0.9095    1.5857    0.0000 H   0  0  0  0  0  0  0  0  0  0  0  0
    4.0206    4.6316    0.0000 H   0  0  0  0  0  0  0  0  0  0  0  0
    4.1580    3.0036    0.0000 H   0  0  0  0  0  0  0  0  0  0  0  0
    0.6568    5.6513    0.0000 H   0  0  0  0  0  0  0  0  0  0  0  0
    0.7943    4.0232    0.0000 H   0  0  0  0  0  0  0  0  0  0  0  0
    3.6810    7.3581    0.0000 H   0  0  0  0  0  0  0  0  0  0  0  0
    3.9394    5.5924    0.0000 H   0  0  0  0  0  0  0  0  0  0  0  0
    2.3986    8.8895    0.0000 H   0  0  0  0  0  0  0  0  0  0  0  0
    0.5344    8.3961    0.0000 H   0  0  0  0  0  0  0  0  0  0  0  0
    0.5757    6.6121    0.0000 H   0  0  0  0  0  0  0  0  0  0  0  0
    0.4190    2.8564    0.0000 H   0  0  0  0  0  0  0  0  0  0  0  0
   -0.0379   -0.5039    0.0000 H   0  0  0  0  0  0  0  0  0  0  0  0
   -3.4210   -0.6632    0.0000 H   0  0  0  0  0  0  0  0  0  0  0  0
   -2.5965   -1.6876    0.0000 H   0  0  0  0  0  0  0  0  0  0  0  0
   -0.5597   -0.8718    0.0000 H   0  0  0  0  0  0  0  0  0  0  0  0
   -3.6173   -0.5322    0.0000 H   0  0  0  0  0  0  0  0  0  0  0  0
   -3.3993    3.0299    0.0000 H   0  0  0  0  0  0  0  0  0  0  0  0
   -3.8617    4.4260    0.0000 H   0  0  0  0  0  0  0  0  0  0  0  0
   -4.0064    5.0339    0.0000 H   0  0  0  0  0  0  0  0  0  0  0  0
   -4.6685    5.9632    0.0000 H   0  0  0  0  0  0  0  0  0  0  0  0
   -5.0641    6.4257    0.0000 H   0  0  0  0  0  0  0  0  0  0  0  0
   -6.2326    7.3187    0.0000 H   0  0  0  0  0  0  0  0  0  0  0  0
   -7.1059    8.0084    0.0000 H   0  0  0  0  0  0  0  0  0  0  0  0
   -3.0251    4.0621    0.0000 H   0  0  0  0  0  0  0  0  0  0  0  0
   -2.0053    3.0287    0.0000 H   0  0  0  0  0  0  0  0  0  0  0  0
   -2.6027    1.3275    0.0000 H   0  0  0  0  0  0  0  0  0  0  0  0
   -4.4923   -1.8656    0.0000 H   0  0  0  0  0  0  0  0  0  0  0  0
   -5.3042   -2.3887    0.0000 H   0  0  0  0  0  0  0  0  0  0  0  0
   -7.2720   -4.9005    0.0000 H   0  0  0  0  0  0  0  0  0  0  0  0
   -8.1589   -3.7192    0.0000 H   0  0  0  0  0  0  0  0  0  0  0  0
   -3.8402   -4.3702    0.0000 H   0  0  0  0  0  0  0  0  0  0  0  0
   -4.7296   -2.8232    0.0000 H   0  0  0  0  0  0  0  0  0  0  0  0
   -5.6699   -7.1326    0.0000 H   0  0  0  0  0  0  0  0  0  0  0  0
   -6.7413   -5.7055    0.0000 H   0  0  0  0  0  0  0  0  0  0  0  0
   -2.6478   -5.5411    0.0000 H   0  0  0  0  0  0  0  0  0  0  0  0
   -2.3811  -10.0332    0.0000 H   0  0  0  0  0  0  0  0  0  0  0  0
   -1.2177   -7.7102    0.0000 H   0  0  0  0  0  0  0  0  0  0  0  0
   -4.9747  -10.1872    0.0000 H   0  0  0  0  0  0  0  0  0  0  0  0
   -6.4047   -8.0181    0.0000 H   0  0  0  0  0  0  0  0  0  0  0  0
   -9.5118   -4.4990    0.0000 H   0  0  0  0  0  0  0  0  0  0  0  0
  -10.4269   -4.1904    0.0000 H   0  0  0  0  0  0  0  0  0  0  0  0
  -13.6177   -4.2179    0.0000 H   0  0  0  0  0  0  0  0  0  0  0  0
  -13.2471   -2.7880    0.0000 H   0  0  0  0  0  0  0  0  0  0  0  0
  -10.4084   -4.9105    0.0000 H   0  0  0  0  0  0  0  0  0  0  0  0
  -12.8429   -7.7954    0.0000 H   0  0  0  0  0  0  0  0  0  0  0  0
  -14.3639   -6.8622    0.0000 H   0  0  0  0  0  0  0  0  0  0  0  0
  -13.9162   -5.1348    0.0000 H   0  0  0  0  0  0  0  0  0  0  0  0
  -11.6016   -7.9705    0.0000 H   0  0  0  0  0  0  0  0  0  0  0  0
   -9.8818   -7.4946    0.0000 H   0  0  0  0  0  0  0  0  0  0  0  0
   -9.9481   -5.5674    0.0000 H   0  0  0  0  0  0  0  0  0  0  0  0
  -14.5729   -2.3482    0.0000 H   0  0  0  0  0  0  0  0  0  0  0  0
  -15.1878   -1.2163    0.0000 H   0  0  0  0  0  0  0  0  0  0  0  0
  -17.1402    1.0152    0.0000 H   0  0  0  0  0  0  0  0  0  0  0  0
  -15.6915    1.7707    0.0000 H   0  0  0  0  0  0  0  0  0  0  0  0
  -18.7933    0.7705    0.0000 H   0  0  0  0  0  0  0  0  0  0  0  0
  -20.6999   -1.5457    0.0000 H   0  0  0  0  0  0  0  0  0  0  0  0
  -19.6473   -4.3550    0.0000 H   0  0  0  0  0  0  0  0  0  0  0  0
  -16.6881   -4.8480    0.0000 H   0  0  0  0  0  0  0  0  0  0  0  0
  -14.8226   -2.7103    0.0000 H   0  0  0  0  0  0  0  0  0  0  0  0
  -16.1507    3.2631    0.0000 H   0  0  0  0  0  0  0  0  0  0  0  0
  -13.5947    7.0657    0.0000 H   0  0  0  0  0  0  0  0  0  0  0  0
  -14.6281    6.2633    0.0000 H   0  0  0  0  0  0  0  0  0  0  0  0
  -12.1219    7.9846    0.0000 H   0  0  0  0  0  0  0  0  0  0  0  0
  -13.1627    7.5172    0.0000 H   0  0  0  0  0  0  0  0  0  0  0  0
  -10.0871    8.3641    0.0000 H   0  0  0  0  0  0  0  0  0  0  0  0
  -11.5467    8.1839    0.0000 H   0  0  0  0  0  0  0  0  0  0  0  0
   -8.9851    8.5180    0.0000 H   0  0  0  0  0  0  0  0  0  0  0  0
  -16.6730    5.3856    0.0000 H   0  0  0  0  0  0  0  0  0  0  0  0
  -17.0341    3.6381    0.0000 H   0  0  0  0  0  0  0  0  0  0  0  0
  -15.6511    2.7680    0.0000 H   0  0  0  0  0  0  0  0  0  0  0  0
  1  2  1  0
  2  3  1  0
  3  4  2  0
  4  5  1  0
  5  6  2  0
  6  7  1  0
  7  8  2  0
  7  9  1  0
  9 10  1  0
 10 11  1  0
 11 12  2  0
  9 13  1  0
 13 14  1  0
 14 15  2  0
 15 16  1  0
 16 17  2  0
 17 18  1  0
 16 19  1  0
 14 20  1  0
 20 21  1  0
 21 22  2  0
 22 23  1  0
 23 24  2  0
 24 25  1  0
 25 26  2  0
 25 27  1  0
  1 28  2  0
  1 29  1  0
 29 30  1  0
 30 31  1  0
 31 32  1  0
 32 33  2  0
 32 34  1  0
 34 35  1  0
 35 36  1  0
 36 37  1  0
 37 38  1  0
 38 39  1  0
 39 40  1  0
 40 41  2  3
 40 42  1  0
 35 43  1  0
 43 44  2  0
 43 45  1  0
 45 46  1  0
 46 47  1  0
 47 48  1  0
 48 49  1  0
 49 50  1  0
 50 51  1  0
 46 52  1  0
 52 53  2  0
 52 54  1  0
 54 55  1  0
 55 56  1  0
 55 57  1  0
 57 58  2  0
 57 59  1  0
 60 59  1  6
 60 61  1  0
 61 62  1  0
 62 63  1  0
 63 64  1  0
 60 65  1  0
 60 66  1  0
 66 67  2  0
 66 68  1  0
 68 69  1  0
 69 70  1  0
 70 71  1  0
 71 72  1  0
 72 73  1  0
 73 74  1  0
 74 75  2  3
 74 76  1  0
 69 77  1  0
 77 78  2  0
 77 79  1  0
 79 80  1  0
 80 81  1  0
 81 82  1  0
 82 83  1  0
 82 84  1  0
 80 85  1  0
 85 86  2  0
 85 87  1  0
 87 88  1  0
 88 89  1  0
 89 90  1  0
 90 91  2  0
 91 92  1  0
 92 93  2  0
 93 94  1  0
 94 95  2  0
 88 96  1  0
 96 97  2  0
 96 98  1  0
 98 99  1  0
 99100  1  0
100101  1  0
101102  1  0
102103  1  0
 99104  1  0
 99105  1  6
105106  2  0
105107  1  0
  8  3  1  0
 95 90  1  0
 11  6  1  0
 64103  2  0
 18 13  2  0
 22  9  1  0
 26 21  1  0
  2108  1  0
  4109  1  0
  5110  1  0
  8111  1  0
 15112  1  0
 17113  1  0
 18114  1  0
 19115  1  0
 23116  1  0
 24117  1  0
 26118  1  0
 27119  1  0
 29120  1  0
 30121  1  0
 30122  1  0
 31123  1  0
 31124  1  0
 34125  1  0
 35126  1  1
 36127  1  0
 36128  1  0
 37129  1  0
 37130  1  0
 38131  1  0
 38132  1  0
 39133  1  0
 41134  1  0
 41135  1  0
 42136  1  0
 42137  1  0
 45138  1  0
 46139  1  6
 47140  1  0
 47141  1  0
 48142  1  0
 48143  1  0
 49144  1  0
 49145  1  0
 50146  1  0
 50147  1  0
 51148  1  0
 51149  1  0
 51150  1  0
 54151  1  0
 55152  1  1
 56153  1  0
 56154  1  0
 56155  1  0
 59156  1  0
 61157  1  0
 61158  1  0
 62159  1  0
 62160  1  0
 63161  1  0
 63162  1  0
 64163  1  0
 65164  1  0
 65165  1  0
 65166  1  0
 68167  1  0
 69168  1  1
 70169  1  0
 70170  1  0
 71171  1  0
 71172  1  0
 72173  1  0
 72174  1  0
 73175  1  0
 75176  1  0
 75177  1  0
 76178  1  0
 76179  1  0
 79180  1  0
 80181  1  1
 81182  1  0
 81183  1  0
 82184  1  0
 83185  1  0
 83186  1  0
 83187  1  0
 84188  1  0
 84189  1  0
 84190  1  0
 87191  1  0
 88192  1  1
 89193  1  0
 89194  1  0
 91195  1  0
 92196  1  0
 93197  1  0
 94198  1  0
 95199  1  0
 98200  1  0
100201  1  0
100202  1  0
101203  1  0
101204  1  0
102205  1  0
102206  1  0
103207  1  0
104208  1  0
104209  1  0
104210  1  0
M  CHG  4  41   1  51   1  75   1 107  -1
M  END
