
     RDKit          2D

256260  0  0  0  0  0  0  0  0999 V2000
   23.7397   -4.2474    0.0000 N   0  0  0  0  0  0  0  0  0  0  0  0
   22.4521   -3.4780    0.0000 C   0  0  0  0  0  0  0  0  0  0  0  0
   21.1419   -4.2083    0.0000 C   0  0  0  0  0  0  0  0  0  0  0  0
   19.8543   -3.4389    0.0000 C   0  0  0  0  0  0  0  0  0  0  0  0
   19.8769   -1.9391    0.0000 O   0  0  0  0  0  0  0  0  0  0  0  0
   18.5442   -4.1693    0.0000 N   0  0  0  0  0  0  0  0  0  0  0  0
   17.2566   -3.3998    0.0000 C   0  0  0  0  0  0  0  0  0  0  0  0
   16.7224   -4.8015    0.0000 C   0  0  0  0  0  0  0  0  0  0  0  0
   17.6692   -5.9649    0.0000 C   0  0  0  0  0  0  0  0  0  0  0  0
   19.1669   -5.8828    0.0000 C   0  0  0  0  0  0  0  0  0  0  0  0
   19.7079   -7.2819    0.0000 N   0  0  0  0  0  0  0  0  0  0  0  0
   18.5444   -8.2287    0.0000 C   0  0  0  0  0  0  0  0  0  0  0  0
   18.4695   -9.7268    0.0000 C   0  0  0  0  0  0  0  0  0  0  0  0
   17.1347  -10.4110    0.0000 C   0  0  0  0  0  0  0  0  0  0  0  0
   15.8747   -9.5971    0.0000 C   0  0  0  0  0  0  0  0  0  0  0  0
   15.9496   -8.0990    0.0000 C   0  0  0  0  0  0  0  0  0  0  0  0
   17.2845   -7.4147    0.0000 C   0  0  0  0  0  0  0  0  0  0  0  0
   16.3098   -2.2364    0.0000 C   0  0  0  0  0  0  0  0  0  0  0  0
   14.8288   -2.4746    0.0000 O   0  0  0  0  0  0  0  0  0  0  0  0
   16.8439   -0.8347    0.0000 N   0  0  0  0  0  0  0  0  0  0  0  0
   18.2919   -0.4430    0.0000 C   0  0  0  0  0  0  0  0  0  0  0  0
   18.3668    1.0551    0.0000 C   0  0  0  0  0  0  0  0  0  0  0  0
   16.9651    1.5893    0.0000 C   0  0  0  0  0  0  0  0  0  0  0  0
   16.0239    0.4213    0.0000 C   0  0  0  0  0  0  0  0  0  0  0  0
   14.9607    1.4794    0.0000 C   0  0  0  0  0  0  0  0  0  0  0  0
   15.3454    2.9292    0.0000 O   0  0  0  0  0  0  0  0  0  0  0  0
   13.5128    1.0877    0.0000 N   0  0  0  0  0  0  0  0  0  0  0  0
   12.4495    2.1458    0.0000 C   0  0  0  0  0  0  0  0  0  0  0  0
   13.6762    3.0091    0.0000 C   0  0  0  0  0  0  0  0  0  0  0  0
   13.5419    4.5031    0.0000 C   0  0  0  0  0  0  0  0  0  0  0  0
   14.7685    5.3664    0.0000 C   0  0  0  0  0  0  0  0  0  0  0  0
   14.6342    6.8604    0.0000 O   0  0  0  0  0  0  0  0  0  0  0  0
   16.1295    4.7358    0.0000 O   0  0  0  0  0  0  0  0  0  0  0  0
   11.0886    2.7764    0.0000 C   0  0  0  0  0  0  0  0  0  0  0  0
   11.1373    4.2756    0.0000 O   0  0  0  0  0  0  0  0  0  0  0  0
    9.8619    1.9131    0.0000 N   0  0  0  0  0  0  0  0  0  0  0  0
    8.5009    2.5437    0.0000 C   0  0  0  0  0  0  0  0  0  0  0  0
    8.4858    1.0438    0.0000 C   0  0  0  0  0  0  0  0  0  0  0  0
    8.0293   -0.3850    0.0000 C   0  0  0  0  0  0  0  0  0  0  0  0
    7.1719   -1.6158    0.0000 C   0  0  0  0  0  0  0  0  0  0  0  0
    5.9898   -2.5392    0.0000 C   0  0  0  0  0  0  0  0  0  0  0  0
    9.6355    3.5249    0.0000 C   0  0  0  0  0  0  0  0  0  0  0  0
    8.0732    3.9815    0.0000 C   0  0  0  0  0  0  0  0  0  0  0  0
    9.4311    4.6187    0.0000 O   0  0  0  0  0  0  0  0  0  0  0  0
    7.2407    5.2292    0.0000 N   0  0  0  0  0  0  0  0  0  0  0  0
    6.0775    6.1762    0.0000 C   0  0  0  0  0  0  0  0  0  0  0  0
    6.0177    7.6750    0.0000 C   0  0  0  0  0  0  0  0  0  0  0  0
    7.3741    8.3156    0.0000 C   0  0  0  0  0  0  0  0  0  0  0  0
    5.4490    9.0630    0.0000 C   0  0  0  0  0  0  0  0  0  0  0  0
    6.3667   10.2496    0.0000 C   0  0  0  0  0  0  0  0  0  0  0  0
    4.6867    6.7382    0.0000 C   0  0  0  0  0  0  0  0  0  0  0  0
    4.8547    8.2288    0.0000 O   0  0  0  0  0  0  0  0  0  0  0  0
    3.1921    6.8654    0.0000 N   0  0  0  0  0  0  0  0  0  0  0  0
    1.7264    6.5463    0.0000 C   0  0  0  0  0  0  0  0  0  0  0  0
    0.5174    7.4341    0.0000 C   0  0  0  0  0  0  0  0  0  0  0  0
    0.6817    8.9251    0.0000 C   0  0  0  0  0  0  0  0  0  0  0  0
   -0.5273    9.8129    0.0000 C   0  0  0  0  0  0  0  0  0  0  0  0
    1.3461   10.2699    0.0000 C   0  0  0  0  0  0  0  0  0  0  0  0
    0.4199    5.8094    0.0000 C   0  0  0  0  0  0  0  0  0  0  0  0
   -0.5035    6.9915    0.0000 O   0  0  0  0  0  0  0  0  0  0  0  0
   -0.6113    4.7201    0.0000 N   0  0  0  0  0  0  0  0  0  0  0  0
   -1.2757    3.3753    0.0000 C   0  0  0  0  0  0  0  0  0  0  0  0
   -2.7237    2.9836    0.0000 C   0  0  0  0  0  0  0  0  0  0  0  0
   -3.7869    4.0416    0.0000 C   0  0  0  0  0  0  0  0  0  0  0  0
   -5.2348    3.6499    0.0000 O   0  0  0  0  0  0  0  0  0  0  0  0
   -3.4021    5.4915    0.0000 O   0  0  0  0  0  0  0  0  0  0  0  0
   -1.5142    1.8944    0.0000 C   0  0  0  0  0  0  0  0  0  0  0  0
   -3.0141    1.9094    0.0000 O   0  0  0  0  0  0  0  0  0  0  0  0
   -1.3055    0.4089    0.0000 N   0  0  0  0  0  0  0  0  0  0  0  0
   -0.6683   -0.9490    0.0000 C   0  0  0  0  0  0  0  0  0  0  0  0
    0.3408   -2.0588    0.0000 C   0  0  0  0  0  0  0  0  0  0  0  0
    1.6323   -2.8218    0.0000 C   0  0  0  0  0  0  0  0  0  0  0  0
    3.0912   -3.1702    0.0000 C   0  0  0  0  0  0  0  0  0  0  0  0
    4.5881   -3.0732    0.0000 C   0  0  0  0  0  0  0  0  0  0  0  0
   -2.1681   -0.9713    0.0000 C   0  0  0  0  0  0  0  0  0  0  0  0
   -1.2648   -2.3253    0.0000 C   0  0  0  0  0  0  0  0  0  0  0  0
   -0.6893   -3.7105    0.0000 O   0  0  0  0  0  0  0  0  0  0  0  0
   -2.7550   -2.4968    0.0000 N   0  0  0  0  0  0  0  0  0  0  0  0
   -3.3515   -3.8731    0.0000 C   0  0  0  0  0  0  0  0  0  0  0  0
   -3.4413   -5.3704    0.0000 C   0  0  0  0  0  0  0  0  0  0  0  0
   -2.1895   -6.1969    0.0000 C   0  0  0  0  0  0  0  0  0  0  0  0
   -2.1223   -7.6954    0.0000 C   0  0  0  0  0  0  0  0  0  0  0  0
   -0.6764   -8.0945    0.0000 N   0  0  0  0  0  0  0  0  0  0  0  0
    0.1500   -6.8427    0.0000 C   0  0  0  0  0  0  0  0  0  0  0  0
   -0.7851   -5.6699    0.0000 N   0  0  0  0  0  0  0  0  0  0  0  0
   -4.8417   -4.0447    0.0000 C   0  0  0  0  0  0  0  0  0  0  0  0
   -5.6015   -5.3380    0.0000 O   0  0  0  0  0  0  0  0  0  0  0  0
   -5.7353   -2.8399    0.0000 N   0  0  0  0  0  0  0  0  0  0  0  0
   -7.2255   -3.0115    0.0000 C   0  0  0  0  0  0  0  0  0  0  0  0
   -8.5671   -3.6823    0.0000 C   0  0  0  0  0  0  0  0  0  0  0  0
   -8.6569   -5.1796    0.0000 C   0  0  0  0  0  0  0  0  0  0  0  0
   -8.1191   -1.8067    0.0000 C   0  0  0  0  0  0  0  0  0  0  0  0
   -7.5226   -0.4304    0.0000 O   0  0  0  0  0  0  0  0  0  0  0  0
   -9.6093   -1.9783    0.0000 N   0  0  0  0  0  0  0  0  0  0  0  0
  -10.5029   -0.7735    0.0000 C   0  0  0  0  0  0  0  0  0  0  0  0
  -10.9306    0.6642    0.0000 C   0  0  0  0  0  0  0  0  0  0  0  0
  -12.3896    1.0127    0.0000 C   0  0  0  0  0  0  0  0  0  0  0  0
  -12.8173    2.4504    0.0000 C   0  0  0  0  0  0  0  0  0  0  0  0
  -14.3078    2.6184    0.0000 N   0  0  0  0  0  0  0  0  0  0  0  0
  -11.7860    3.5397    0.0000 O   0  0  0  0  0  0  0  0  0  0  0  0
  -11.9931   -0.9451    0.0000 C   0  0  0  0  0  0  0  0  0  0  0  0
  -12.5896   -2.3214    0.0000 O   0  0  0  0  0  0  0  0  0  0  0  0
  -12.8867    0.2597    0.0000 N   0  0  0  0  0  0  0  0  0  0  0  0
  -14.3769    0.0881    0.0000 C   0  0  0  0  0  0  0  0  0  0  0  0
  -15.8358    0.4366    0.0000 C   0  0  0  0  0  0  0  0  0  0  0  0
  -16.2635    1.8743    0.0000 C   0  0  0  0  0  0  0  0  0  0  0  0
  -17.7225    2.2228    0.0000 C   0  0  0  0  0  0  0  0  0  0  0  0
  -18.1502    3.6605    0.0000 N   0  0  0  0  0  0  0  0  0  0  0  0
  -19.6092    4.0090    0.0000 C   0  0  0  0  0  0  0  0  0  0  0  0
  -20.0369    5.4467    0.0000 N   0  0  0  0  0  0  0  0  0  0  0  0
  -20.6404    2.9197    0.0000 N   0  0  0  0  0  0  0  0  0  0  0  0
  -14.9734   -1.2882    0.0000 C   0  0  0  0  0  0  0  0  0  0  0  0
  -14.0797   -2.4929    0.0000 O   0  0  0  0  0  0  0  0  0  0  0  0
  -16.4635   -1.4597    0.0000 N   0  0  0  0  0  0  0  0  0  0  0  0
  -17.0601   -2.8360    0.0000 C   0  0  0  0  0  0  0  0  0  0  0  0
  -17.1499   -4.3333    0.0000 C   0  0  0  0  0  0  0  0  0  0  0  0
  -18.3997   -5.1627    0.0000 C   0  0  0  0  0  0  0  0  0  0  0  0
  -18.5502   -3.0075    0.0000 C   0  0  0  0  0  0  0  0  0  0  0  0
  -19.4439   -1.8028    0.0000 O   0  0  0  0  0  0  0  0  0  0  0  0
  -19.1467   -4.3838    0.0000 N   0  0  0  0  0  0  0  0  0  0  0  0
  -20.6369   -4.5554    0.0000 C   0  0  0  0  0  0  0  0  0  0  0  0
  -22.0958   -4.2069    0.0000 C   0  0  0  0  0  0  0  0  0  0  0  0
  -22.5236   -2.7692    0.0000 C   0  0  0  0  0  0  0  0  0  0  0  0
  -23.9825   -2.4207    0.0000 S   0  0  0  0  0  0  0  0  0  0  0  0
  -24.4102   -0.9830    0.0000 C   0  0  0  0  0  0  0  0  0  0  0  0
  -21.2334   -5.9317    0.0000 C   0  0  0  0  0  0  0  0  0  0  0  0
  -22.6915   -6.2836    0.0000 O   0  0  0  0  0  0  0  0  0  0  0  0
  -20.3398   -7.1364    0.0000 O   0  0  0  0  0  0  0  0  0  0  0  0
   25.0499   -3.5170    0.0000 H   0  0  0  0  0  0  0  0  0  0  0  0
   23.7172   -5.7472    0.0000 H   0  0  0  0  0  0  0  0  0  0  0  0
   23.4335   -2.3435    0.0000 H   0  0  0  0  0  0  0  0  0  0  0  0
   21.5053   -2.3145    0.0000 H   0  0  0  0  0  0  0  0  0  0  0  0
   22.0887   -5.3718    0.0000 H   0  0  0  0  0  0  0  0  0  0  0  0
   20.4851   -4.8026    0.0000 H   0  0  0  0  0  0  0  0  0  0  0  0
   18.7254   -4.9456    0.0000 H   0  0  0  0  0  0  0  0  0  0  0  0
   18.3689   -2.3935    0.0000 H   0  0  0  0  0  0  0  0  0  0  0  0
   15.7410   -5.9359    0.0000 H   0  0  0  0  0  0  0  0  0  0  0  0
   15.4348   -4.0320    0.0000 H   0  0  0  0  0  0  0  0  0  0  0  0
   19.5146   -5.1655    0.0000 H   0  0  0  0  0  0  0  0  0  0  0  0
   21.1577   -7.6666    0.0000 H   0  0  0  0  0  0  0  0  0  0  0  0
   19.7295  -10.5407    0.0000 H   0  0  0  0  0  0  0  0  0  0  0  0
   17.0598  -11.9091    0.0000 H   0  0  0  0  0  0  0  0  0  0  0  0
   14.5398  -10.2813    0.0000 H   0  0  0  0  0  0  0  0  0  0  0  0
   14.6896   -7.2850    0.0000 H   0  0  0  0  0  0  0  0  0  0  0  0
   18.7089   -1.8839    0.0000 H   0  0  0  0  0  0  0  0  0  0  0  0
   19.7896   -0.3609    0.0000 H   0  0  0  0  0  0  0  0  0  0  0  0
   19.8489    0.8241    0.0000 H   0  0  0  0  0  0  0  0  0  0  0  0
   18.7515    2.5050    0.0000 H   0  0  0  0  0  0  0  0  0  0  0  0
   17.6428    2.9275    0.0000 H   0  0  0  0  0  0  0  0  0  0  0  0
   15.8137    2.5507    0.0000 H   0  0  0  0  0  0  0  0  0  0  0  0
   14.8605   -0.5255    0.0000 H   0  0  0  0  0  0  0  0  0  0  0  0
   13.1280   -0.3621    0.0000 H   0  0  0  0  0  0  0  0  0  0  0  0
   11.5922    0.9150    0.0000 H   0  0  0  0  0  0  0  0  0  0  0  0
   15.0656    3.5744    0.0000 H   0  0  0  0  0  0  0  0  0  0  0  0
   14.6231    1.8457    0.0000 H   0  0  0  0  0  0  0  0  0  0  0  0
   12.9046    5.8610    0.0000 H   0  0  0  0  0  0  0  0  0  0  0  0
   12.0939    4.1113    0.0000 H   0  0  0  0  0  0  0  0  0  0  0  0
   10.3538    0.4960    0.0000 H   0  0  0  0  0  0  0  0  0  0  0  0
    9.9644    1.2967    0.0000 H   0  0  0  0  0  0  0  0  0  0  0  0
    9.6005    0.0400    0.0000 H   0  0  0  0  0  0  0  0  0  0  0  0
    9.5167   -0.5792    0.0000 H   0  0  0  0  0  0  0  0  0  0  0  0
    8.9498   -1.5694    0.0000 H   0  0  0  0  0  0  0  0  0  0  0  0
    8.6019   -2.0688    0.0000 H   0  0  0  0  0  0  0  0  0  0  0  0
    7.5274   -3.0731    0.0000 H   0  0  0  0  0  0  0  0  0  0  0  0
    6.7268   -3.8458    0.0000 H   0  0  0  0  0  0  0  0  0  0  0  0
   11.1295    3.3904    0.0000 H   0  0  0  0  0  0  0  0  0  0  0  0
   10.2010    4.9142    0.0000 H   0  0  0  0  0  0  0  0  0  0  0  0
    8.7359    4.7252    0.0000 H   0  0  0  0  0  0  0  0  0  0  0  0
    8.3505    6.2384    0.0000 H   0  0  0  0  0  0  0  0  0  0  0  0
    7.4908    6.6785    0.0000 H   0  0  0  0  0  0  0  0  0  0  0  0
    4.5184    7.7201    0.0000 H   0  0  0  0  0  0  0  0  0  0  0  0
    7.4296    9.9806    0.0000 H   0  0  0  0  0  0  0  0  0  0  0  0
    8.7516    8.7952    0.0000 H   0  0  0  0  0  0  0  0  0  0  0  0
    8.0196    7.1678    0.0000 H   0  0  0  0  0  0  0  0  0  0  0  0
    4.4399   10.1728    0.0000 H   0  0  0  0  0  0  0  0  0  0  0  0
    4.0927    8.4225    0.0000 H   0  0  0  0  0  0  0  0  0  0  0  0
    5.7980   11.6376    0.0000 H   0  0  0  0  0  0  0  0  0  0  0  0
    7.6348   11.0507    0.0000 H   0  0  0  0  0  0  0  0  0  0  0  0
    7.6144    9.4170    0.0000 H   0  0  0  0  0  0  0  0  0  0  0  0
    3.0951    8.3622    0.0000 H   0  0  0  0  0  0  0  0  0  0  0  0
    2.2149    7.9645    0.0000 H   0  0  0  0  0  0  0  0  0  0  0  0
   -0.9629    7.6762    0.0000 H   0  0  0  0  0  0  0  0  0  0  0  0
   -0.4527    6.2900    0.0000 H   0  0  0  0  0  0  0  0  0  0  0  0
    2.1621    8.6830    0.0000 H   0  0  0  0  0  0  0  0  0  0  0  0
   -0.5459   11.3128    0.0000 H   0  0  0  0  0  0  0  0  0  0  0  0
   -1.9671   10.2336    0.0000 H   0  0  0  0  0  0  0  0  0  0  0  0
   -1.3507    8.5591    0.0000 H   0  0  0  0  0  0  0  0  0  0  0  0
    0.6719   11.6099    0.0000 H   0  0  0  0  0  0  0  0  0  0  0  0
    2.4304   11.3064    0.0000 H   0  0  0  0  0  0  0  0  0  0  0  0
    2.5552    9.3821    0.0000 H   0  0  0  0  0  0  0  0  0  0  0  0
   -1.8421    5.5775    0.0000 H   0  0  0  0  0  0  0  0  0  0  0  0
   -2.2283    4.5340    0.0000 H   0  0  0  0  0  0  0  0  0  0  0  0
   -3.9503    2.1202    0.0000 H   0  0  0  0  0  0  0  0  0  0  0  0
   -2.4340    1.5118    0.0000 H   0  0  0  0  0  0  0  0  0  0  0  0
   -2.7433   -0.0188    0.0000 H   0  0  0  0  0  0  0  0  0  0  0  0
    0.1765   -3.5497    0.0000 H   0  0  0  0  0  0  0  0  0  0  0  0
   -0.9312   -2.8536    0.0000 H   0  0  0  0  0  0  0  0  0  0  0  0
    1.7330   -4.3184    0.0000 H   0  0  0  0  0  0  0  0  0  0  0  0
    0.6510   -3.9563    0.0000 H   0  0  0  0  0  0  0  0  0  0  0  0
    3.7953   -4.4947    0.0000 H   0  0  0  0  0  0  0  0  0  0  0  0
    2.3250   -4.4598    0.0000 H   0  0  0  0  0  0  0  0  0  0  0  0
    4.9072   -4.5389    0.0000 H   0  0  0  0  0  0  0  0  0  0  0  0
   -3.1940   -2.0657    0.0000 H   0  0  0  0  0  0  0  0  0  0  0  0
   -3.5146   -0.3103    0.0000 H   0  0  0  0  0  0  0  0  0  0  0  0
   -2.2951    0.5233    0.0000 H   0  0  0  0  0  0  0  0  0  0  0  0
   -3.7888   -1.4100    0.0000 H   0  0  0  0  0  0  0  0  0  0  0  0
   -1.8925   -4.2216    0.0000 H   0  0  0  0  0  0  0  0  0  0  0  0
   -4.0378   -6.7467    0.0000 H   0  0  0  0  0  0  0  0  0  0  0  0
   -4.9319   -5.2024    0.0000 H   0  0  0  0  0  0  0  0  0  0  0  0
   -3.2952   -8.6305    0.0000 H   0  0  0  0  0  0  0  0  0  0  0  0
   -0.1495   -9.4989    0.0000 H   0  0  0  0  0  0  0  0  0  0  0  0
    1.6485   -6.7755    0.0000 H   0  0  0  0  0  0  0  0  0  0  0  0
   -5.1388   -1.4636    0.0000 H   0  0  0  0  0  0  0  0  0  0  0  0
   -6.6257   -4.3863    0.0000 H   0  0  0  0  0  0  0  0  0  0  0  0
  -10.0252   -4.0342    0.0000 H   0  0  0  0  0  0  0  0  0  0  0  0
   -9.3300   -2.3908    0.0000 H   0  0  0  0  0  0  0  0  0  0  0  0
   -9.9985   -5.8505    0.0000 H   0  0  0  0  0  0  0  0  0  0  0  0
   -8.2292   -6.6174    0.0000 H   0  0  0  0  0  0  0  0  0  0  0  0
   -7.1569   -5.1910    0.0000 H   0  0  0  0  0  0  0  0  0  0  0  0
  -10.3691   -3.2716    0.0000 H   0  0  0  0  0  0  0  0  0  0  0  0
   -9.1613   -0.1027    0.0000 H   0  0  0  0  0  0  0  0  0  0  0  0
  -10.8408    2.1615    0.0000 H   0  0  0  0  0  0  0  0  0  0  0  0
   -9.4404    0.8357    0.0000 H   0  0  0  0  0  0  0  0  0  0  0  0
  -13.8895    1.0240    0.0000 H   0  0  0  0  0  0  0  0  0  0  0  0
  -13.1720   -0.2671    0.0000 H   0  0  0  0  0  0  0  0  0  0  0  0
  -14.7039    4.2366    0.0000 H   0  0  0  0  0  0  0  0  0  0  0  0
  -15.1893    1.5945    0.0000 H   0  0  0  0  0  0  0  0  0  0  0  0
  -12.6409    1.7394    0.0000 H   0  0  0  0  0  0  0  0  0  0  0  0
  -14.2870    1.5854    0.0000 H   0  0  0  0  0  0  0  0  0  0  0  0
  -17.3260    0.2650    0.0000 H   0  0  0  0  0  0  0  0  0  0  0  0
  -16.2853   -0.9945    0.0000 H   0  0  0  0  0  0  0  0  0  0  0  0
  -16.1737    3.3716    0.0000 H   0  0  0  0  0  0  0  0  0  0  0  0
  -14.7636    1.8629    0.0000 H   0  0  0  0  0  0  0  0  0  0  0  0
  -19.2127    2.0512    0.0000 H   0  0  0  0  0  0  0  0  0  0  0  0
  -17.9942    0.7476    0.0000 H   0  0  0  0  0  0  0  0  0  0  0  0
  -17.1189    4.7498    0.0000 H   0  0  0  0  0  0  0  0  0  0  0  0
  -21.4958    5.7952    0.0000 H   0  0  0  0  0  0  0  0  0  0  0  0
  -19.0056    6.5360    0.0000 H   0  0  0  0  0  0  0  0  0  0  0  0
  -22.0994    3.2682    0.0000 H   0  0  0  0  0  0  0  0  0  0  0  0
  -20.2127    1.4820    0.0000 H   0  0  0  0  0  0  0  0  0  0  0  0
  -17.4974   -0.3729    0.0000 H   0  0  0  0  0  0  0  0  0  0  0  0
  -15.6011   -3.1845    0.0000 H   0  0  0  0  0  0  0  0  0  0  0  0
  -16.7222   -5.7710    0.0000 H   0  0  0  0  0  0  0  0  0  0  0  0
  -15.6597   -4.1618    0.0000 H   0  0  0  0  0  0  0  0  0  0  0  0
  -18.5813   -6.5015    0.0000 H   0  0  0  0  0  0  0  0  0  0  0  0
  -19.9817   -5.1757    0.0000 H   0  0  0  0  0  0  0  0  0  0  0  0
  -19.5442   -3.9356    0.0000 H   0  0  0  0  0  0  0  0  0  0  0  0
  -18.4066   -5.6885    0.0000 H   0  0  0  0  0  0  0  0  0  0  0  0
  -20.3652   -3.0802    0.0000 H   0  0  0  0  0  0  0  0  0  0  0  0
  -23.5860   -4.3785    0.0000 H   0  0  0  0  0  0  0  0  0  0  0  0
  -22.3675   -5.6821    0.0000 H   0  0  0  0  0  0  0  0  0  0  0  0
  -22.2519   -1.2940    0.0000 H   0  0  0  0  0  0  0  0  0  0  0  0
  -21.0654   -2.4173    0.0000 H   0  0  0  0  0  0  0  0  0  0  0  0
  -25.8692   -0.6345    0.0000 H   0  0  0  0  0  0  0  0  0  0  0  0
  -24.3204    0.5143    0.0000 H   0  0  0  0  0  0  0  0  0  0  0  0
  -22.9521   -0.6311    0.0000 H   0  0  0  0  0  0  0  0  0  0  0  0
  1  2  1  0
  2  3  1  0
  3  4  1  0
  4  5  2  0
  4  6  1  0
  6  7  1  0
  7  8  1  0
  8  9  1  0
  9 10  2  0
 10 11  1  0
 11 12  1  0
 12 13  2  0
 13 14  1  0
 14 15  2  0
 15 16  1  0
 16 17  2  0
  7 18  1  0
 18 19  2  0
 18 20  1  0
 20 21  1  0
 21 22  1  0
 22 23  1  0
 23 24  1  0
 24 25  1  0
 25 26  2  0
 25 27  1  0
 27 28  1  0
 28 29  1  0
 29 30  1  0
 30 31  1  0
 31 32  2  0
 31 33  1  0
 28 34  1  0
 34 35  2  0
 34 36  1  0
 37 36  1  1
 37 38  1  0
 38 39  1  0
 39 40  1  0
 40 41  1  0
 37 42  1  0
 37 43  1  0
 43 44  2  0
 43 45  1  0
 45 46  1  0
 46 47  1  0
 47 48  1  0
 47 49  1  0
 49 50  1  0
 46 51  1  0
 51 52  2  0
 51 53  1  0
 53 54  1  0
 54 55  1  0
 55 56  1  0
 56 57  1  0
 56 58  1  0
 54 59  1  0
 59 60  2  0
 59 61  1  0
 61 62  1  0
 62 63  1  0
 63 64  1  0
 64 65  2  0
 64 66  1  0
 62 67  1  0
 67 68  2  0
 67 69  1  0
 69 70  1  0
 70 71  1  0
 71 72  1  0
 72 73  1  0
 73 74  1  0
 70 75  1  0
 70 76  1  1
 76 77  2  0
 76 78  1  0
 78 79  1  0
 79 80  1  0
 80 81  1  0
 81 82  2  0
 82 83  1  0
 83 84  1  0
 84 85  2  0
 79 86  1  0
 86 87  2  0
 86 88  1  0
 88 89  1  0
 89 90  1  0
 90 91  1  0
 89 92  1  0
 92 93  2  0
 92 94  1  0
 94 95  1  0
 95 96  1  0
 96 97  1  0
 97 98  1  0
 98 99  1  0
 98100  2  0
 95101  1  0
101102  2  0
101103  1  0
103104  1  0
104105  1  0
105106  1  0
106107  1  0
107108  1  0
108109  1  0
109110  2  3
109111  1  0
104112  1  0
112113  2  0
112114  1  0
114115  1  0
115116  1  0
116117  1  0
115118  1  0
118119  2  0
118120  1  0
120121  1  0
121122  1  0
122123  1  0
123124  1  0
124125  1  0
121126  1  0
126127  2  0
126128  1  0
 17  9  1  0
 24 20  1  0
 85 81  1  0
 17 12  1  0
 41 74  2  0
  1129  1  0
  1130  1  0
  2131  1  0
  2132  1  0
  3133  1  0
  3134  1  0
  6135  1  0
  7136  1  1
  8137  1  0
  8138  1  0
 10139  1  0
 11140  1  0
 13141  1  0
 14142  1  0
 15143  1  0
 16144  1  0
 21145  1  0
 21146  1  0
 22147  1  0
 22148  1  0
 23149  1  0
 23150  1  0
 24151  1  0
 27152  1  0
 28153  1  6
 29154  1  0
 29155  1  0
 30156  1  0
 30157  1  0
 36158  1  0
 38159  1  0
 38160  1  0
 39161  1  0
 39162  1  0
 40163  1  0
 40164  1  0
 41165  1  0
 42166  1  0
 42167  1  0
 42168  1  0
 45169  1  0
 46170  1  6
 47171  1  1
 48172  1  0
 48173  1  0
 48174  1  0
 49175  1  0
 49176  1  0
 50177  1  0
 50178  1  0
 50179  1  0
 53180  1  0
 54181  1  6
 55182  1  0
 55183  1  0
 56184  1  0
 57185  1  0
 57186  1  0
 57187  1  0
 58188  1  0
 58189  1  0
 58190  1  0
 61191  1  0
 62192  1  6
 63193  1  0
 63194  1  0
 69195  1  0
 71196  1  0
 71197  1  0
 72198  1  0
 72199  1  0
 73200  1  0
 73201  1  0
 74202  1  0
 75203  1  0
 75204  1  0
 75205  1  0
 78206  1  0
 79207  1  1
 80208  1  0
 80209  1  0
 82210  1  0
 83211  1  0
 84212  1  0
 88213  1  0
 89214  1  1
 90215  1  0
 90216  1  0
 91217  1  0
 91218  1  0
 91219  1  0
 94220  1  0
 95221  1  6
 96222  1  0
 96223  1  0
 97224  1  0
 97225  1  0
 99226  1  0
 99227  1  0
103228  1  0
104229  1  6
105230  1  0
105231  1  0
106232  1  0
106233  1  0
107234  1  0
107235  1  0
108236  1  0
110237  1  0
110238  1  0
111239  1  0
111240  1  0
114241  1  0
115242  1  1
116243  1  0
116244  1  0
117245  1  0
117246  1  0
117247  1  0
120248  1  0
121249  1  6
122250  1  0
122251  1  0
123252  1  0
123253  1  0
125254  1  0
125255  1  0
125256  1  0
M  CHG  4  33  -1  66  -1 110   1 128  -1
M  END
