
     RDKit          2D

283293  0  0  0  0  0  0  0  0999 V2000
  -29.5685   -0.4387    0.0000 C   0  0  0  0  0  0  0  0  0  0  0  0
  -30.7883   -1.3116    0.0000 N   0  0  0  0  0  0  0  0  0  0  0  0
  -32.1542   -0.6917    0.0000 C   0  0  0  0  0  0  0  0  0  0  0  0
  -32.3003    0.8012    0.0000 C   0  0  0  0  0  0  0  0  0  0  0  0
  -33.6662    1.4211    0.0000 C   0  0  0  0  0  0  0  0  0  0  0  0
  -34.8860    0.5481    0.0000 C   0  0  0  0  0  0  0  0  0  0  0  0
  -34.7399   -0.9447    0.0000 C   0  0  0  0  0  0  0  0  0  0  0  0
  -33.3740   -1.5647    0.0000 C   0  0  0  0  0  0  0  0  0  0  0  0
  -36.1146   -1.5450    0.0000 C   0  0  0  0  0  0  0  0  0  0  0  0
  -37.1103   -0.4231    0.0000 O   0  0  0  0  0  0  0  0  0  0  0  0
  -36.3510    0.8705    0.0000 C   0  0  0  0  0  0  0  0  0  0  0  0
  -36.9512    2.2452    0.0000 O   0  0  0  0  0  0  0  0  0  0  0  0
  -37.5445   -1.9983    0.0000 C   0  0  0  0  0  0  0  0  0  0  0  0
  -37.8669   -3.4632    0.0000 C   0  0  0  0  0  0  0  0  0  0  0  0
  -39.2967   -3.9165    0.0000 C   0  0  0  0  0  0  0  0  0  0  0  0
  -40.4042   -2.9049    0.0000 C   0  0  0  0  0  0  0  0  0  0  0  0
  -40.0818   -1.4399    0.0000 C   0  0  0  0  0  0  0  0  0  0  0  0
  -38.6520   -0.9866    0.0000 C   0  0  0  0  0  0  0  0  0  0  0  0
  -41.8341   -3.3581    0.0000 O   0  0  0  0  0  0  0  0  0  0  0  0
  -36.7594   -4.4749    0.0000 O   0  0  0  0  0  0  0  0  0  0  0  0
  -35.3295   -4.0216    0.0000 C   0  0  0  0  0  0  0  0  0  0  0  0
  -35.0071   -2.5567    0.0000 C   0  0  0  0  0  0  0  0  0  0  0  0
  -33.7277   -2.7870    0.0000 C   0  0  0  0  0  0  0  0  0  0  0  0
  -33.1370   -3.3266    0.0000 C   0  0  0  0  0  0  0  0  0  0  0  0
  -33.3090   -4.1079    0.0000 C   0  0  0  0  0  0  0  0  0  0  0  0
  -34.0716   -4.3496    0.0000 C   0  0  0  0  0  0  0  0  0  0  0  0
  -31.6846   -5.5917    0.0000 O   0  0  0  0  0  0  0  0  0  0  0  0
  -29.7146    1.0542    0.0000 S   0  0  0  0  0  0  0  0  0  0  0  0
  -28.2026   -1.0586    0.0000 N   0  0  0  0  0  0  0  0  0  0  0  0
  -26.9828   -0.1856    0.0000 C   0  0  0  0  0  0  0  0  0  0  0  0
  -25.6169   -0.8056    0.0000 C   0  0  0  0  0  0  0  0  0  0  0  0
  -24.3970    0.0674    0.0000 C   0  0  0  0  0  0  0  0  0  0  0  0
  -24.5431    1.5603    0.0000 O   0  0  0  0  0  0  0  0  0  0  0  0
  -23.0311   -0.5525    0.0000 N   0  0  0  0  0  0  0  0  0  0  0  0
  -21.8113    0.3204    0.0000 C   0  0  0  0  0  0  0  0  0  0  0  0
  -20.9636    1.5579    0.0000 C   0  0  0  0  0  0  0  0  0  0  0  0
  -19.4681    1.4426    0.0000 C   0  0  0  0  0  0  0  0  0  0  0  0
  -18.6204    2.6801    0.0000 N   0  0  0  0  0  0  0  0  0  0  0  0
  -18.9600    0.8283    0.0000 O   0  0  0  0  0  0  0  0  0  0  0  0
  -20.4454   -0.2995    0.0000 C   0  0  0  0  0  0  0  0  0  0  0  0
  -20.2993   -1.7923    0.0000 O   0  0  0  0  0  0  0  0  0  0  0  0
  -19.2256    0.5735    0.0000 N   0  0  0  0  0  0  0  0  0  0  0  0
  -17.8597   -0.0464    0.0000 C   0  0  0  0  0  0  0  0  0  0  0  0
  -16.7882   -1.0961    0.0000 C   0  0  0  0  0  0  0  0  0  0  0  0
  -15.2949   -1.2377    0.0000 O   0  0  0  0  0  0  0  0  0  0  0  0
  -16.6399    0.8265    0.0000 C   0  0  0  0  0  0  0  0  0  0  0  0
  -16.6029    2.3261    0.0000 O   0  0  0  0  0  0  0  0  0  0  0  0
  -15.2740    0.2066    0.0000 N   0  0  0  0  0  0  0  0  0  0  0  0
  -14.0541    1.0795    0.0000 C   0  0  0  0  0  0  0  0  0  0  0  0
  -13.2065    2.3171    0.0000 C   0  0  0  0  0  0  0  0  0  0  0  0
  -11.7689    2.7454    0.0000 O   0  0  0  0  0  0  0  0  0  0  0  0
  -12.6882    0.4596    0.0000 C   0  0  0  0  0  0  0  0  0  0  0  0
  -12.7252   -1.0399    0.0000 O   0  0  0  0  0  0  0  0  0  0  0  0
  -11.4684    1.3326    0.0000 N   0  0  0  0  0  0  0  0  0  0  0  0
  -10.1025    0.7127    0.0000 C   0  0  0  0  0  0  0  0  0  0  0  0
   -9.0310   -0.3370    0.0000 C   0  0  0  0  0  0  0  0  0  0  0  0
   -9.4043   -1.7898    0.0000 C   0  0  0  0  0  0  0  0  0  0  0  0
  -10.8491   -2.1929    0.0000 C   0  0  0  0  0  0  0  0  0  0  0  0
  -11.2224   -3.6457    0.0000 C   0  0  0  0  0  0  0  0  0  0  0  0
  -10.1509   -4.6954    0.0000 C   0  0  0  0  0  0  0  0  0  0  0  0
   -8.7061   -4.2923    0.0000 C   0  0  0  0  0  0  0  0  0  0  0  0
   -8.3328   -2.8395    0.0000 C   0  0  0  0  0  0  0  0  0  0  0  0
   -8.8827    1.5856    0.0000 C   0  0  0  0  0  0  0  0  0  0  0  0
   -9.0288    3.0785    0.0000 O   0  0  0  0  0  0  0  0  0  0  0  0
   -7.5168    0.9657    0.0000 N   0  0  0  0  0  0  0  0  0  0  0  0
   -6.2970    1.8387    0.0000 C   0  0  0  0  0  0  0  0  0  0  0  0
   -5.4493    3.0762    0.0000 C   0  0  0  0  0  0  0  0  0  0  0  0
   -4.9311    1.2187    0.0000 C   0  0  0  0  0  0  0  0  0  0  0  0
   -4.7850   -0.2741    0.0000 O   0  0  0  0  0  0  0  0  0  0  0  0
   -3.7112    2.0917    0.0000 N   0  0  0  0  0  0  0  0  0  0  0  0
   -2.3453    1.4718    0.0000 C   0  0  0  0  0  0  0  0  0  0  0  0
   -1.2738    0.4221    0.0000 C   0  0  0  0  0  0  0  0  0  0  0  0
   -1.6471   -1.0307    0.0000 C   0  0  0  0  0  0  0  0  0  0  0  0
   -0.5756   -2.0804    0.0000 O   0  0  0  0  0  0  0  0  0  0  0  0
   -3.0920   -1.4338    0.0000 O   0  0  0  0  0  0  0  0  0  0  0  0
   -1.1255    2.3447    0.0000 C   0  0  0  0  0  0  0  0  0  0  0  0
   -1.2716    3.8376    0.0000 O   0  0  0  0  0  0  0  0  0  0  0  0
    0.2404    1.7248    0.0000 N   0  0  0  0  0  0  0  0  0  0  0  0
    1.4602    2.5978    0.0000 C   0  0  0  0  0  0  0  0  0  0  0  0
    2.3079    3.8353    0.0000 C   0  0  0  0  0  0  0  0  0  0  0  0
    3.8034    3.7199    0.0000 C   0  0  0  0  0  0  0  0  0  0  0  0
    4.4513    2.3670    0.0000 C   0  0  0  0  0  0  0  0  0  0  0  0
    5.9469    2.2517    0.0000 C   0  0  0  0  0  0  0  0  0  0  0  0
    6.7946    3.4892    0.0000 C   0  0  0  0  0  0  0  0  0  0  0  0
    6.1467    4.8421    0.0000 C   0  0  0  0  0  0  0  0  0  0  0  0
    4.6511    4.9574    0.0000 C   0  0  0  0  0  0  0  0  0  0  0  0
    2.8261    1.9778    0.0000 C   0  0  0  0  0  0  0  0  0  0  0  0
    2.6066    0.4940    0.0000 O   0  0  0  0  0  0  0  0  0  0  0  0
    4.0459    2.8508    0.0000 N   0  0  0  0  0  0  0  0  0  0  0  0
    5.4118    2.2309    0.0000 C   0  0  0  0  0  0  0  0  0  0  0  0
    6.4833    1.1812    0.0000 C   0  0  0  0  0  0  0  0  0  0  0  0
    6.1100   -0.2716    0.0000 C   0  0  0  0  0  0  0  0  0  0  0  0
    4.6652   -0.6747    0.0000 C   0  0  0  0  0  0  0  0  0  0  0  0
    4.2919   -2.1275    0.0000 C   0  0  0  0  0  0  0  0  0  0  0  0
    5.3634   -3.1772    0.0000 C   0  0  0  0  0  0  0  0  0  0  0  0
    6.8082   -2.7741    0.0000 C   0  0  0  0  0  0  0  0  0  0  0  0
    7.1815   -1.3213    0.0000 C   0  0  0  0  0  0  0  0  0  0  0  0
    6.6317    3.1038    0.0000 C   0  0  0  0  0  0  0  0  0  0  0  0
    6.8511    4.5877    0.0000 O   0  0  0  0  0  0  0  0  0  0  0  0
    7.9976    2.4839    0.0000 N   0  0  0  0  0  0  0  0  0  0  0  0
    9.2174    3.3569    0.0000 C   0  0  0  0  0  0  0  0  0  0  0  0
   10.0651    4.5944    0.0000 C   0  0  0  0  0  0  0  0  0  0  0  0
   11.5606    4.4790    0.0000 C   0  0  0  0  0  0  0  0  0  0  0  0
   12.5330    5.6211    0.0000 C   0  0  0  0  0  0  0  0  0  0  0  0
   13.9197    5.0493    0.0000 N   0  0  0  0  0  0  0  0  0  0  0  0
   13.8044    3.5537    0.0000 C   0  0  0  0  0  0  0  0  0  0  0  0
   12.3464    3.2013    0.0000 N   0  0  0  0  0  0  0  0  0  0  0  0
   10.5833    2.7370    0.0000 C   0  0  0  0  0  0  0  0  0  0  0  0
   10.7294    1.2441    0.0000 O   0  0  0  0  0  0  0  0  0  0  0  0
   11.8031    3.6099    0.0000 N   0  0  0  0  0  0  0  0  0  0  0  0
   13.1690    2.9900    0.0000 C   0  0  0  0  0  0  0  0  0  0  0  0
   14.2405    1.9403    0.0000 C   0  0  0  0  0  0  0  0  0  0  0  0
   15.5207    1.1585    0.0000 O   0  0  0  0  0  0  0  0  0  0  0  0
   13.8672    0.4875    0.0000 C   0  0  0  0  0  0  0  0  0  0  0  0
   14.3888    3.8629    0.0000 C   0  0  0  0  0  0  0  0  0  0  0  0
   14.6083    5.3468    0.0000 O   0  0  0  0  0  0  0  0  0  0  0  0
   15.7547    3.2430    0.0000 N   0  0  0  0  0  0  0  0  0  0  0  0
   16.9746    4.1160    0.0000 C   0  0  0  0  0  0  0  0  0  0  0  0
   17.8222    5.3535    0.0000 C   0  0  0  0  0  0  0  0  0  0  0  0
   19.3013    5.6034    0.0000 C   0  0  0  0  0  0  0  0  0  0  0  0
   18.3405    3.4961    0.0000 C   0  0  0  0  0  0  0  0  0  0  0  0
   18.4865    2.0032    0.0000 O   0  0  0  0  0  0  0  0  0  0  0  0
   19.5603    4.3690    0.0000 N   0  0  0  0  0  0  0  0  0  0  0  0
   19.5710    5.8690    0.0000 C   0  0  0  0  0  0  0  0  0  0  0  0
   21.0009    6.3223    0.0000 C   0  0  0  0  0  0  0  0  0  0  0  0
   21.8739    5.1024    0.0000 C   0  0  0  0  0  0  0  0  0  0  0  0
   20.9835    3.8953    0.0000 C   0  0  0  0  0  0  0  0  0  0  0  0
   22.2771    3.1360    0.0000 C   0  0  0  0  0  0  0  0  0  0  0  0
   23.6621    3.7121    0.0000 O   0  0  0  0  0  0  0  0  0  0  0  0
   22.2664    1.6360    0.0000 N   0  0  0  0  0  0  0  0  0  0  0  0
   23.5600    0.8767    0.0000 C   0  0  0  0  0  0  0  0  0  0  0  0
   25.0353    0.6057    0.0000 C   0  0  0  0  0  0  0  0  0  0  0  0
   25.5382   -0.8075    0.0000 C   0  0  0  0  0  0  0  0  0  0  0  0
   24.5658   -1.9496    0.0000 C   0  0  0  0  0  0  0  0  0  0  0  0
   25.0687   -3.3628    0.0000 C   0  0  0  0  0  0  0  0  0  0  0  0
   26.5440   -3.6339    0.0000 C   0  0  0  0  0  0  0  0  0  0  0  0
   27.0469   -5.0471    0.0000 O   0  0  0  0  0  0  0  0  0  0  0  0
   27.5164   -2.4918    0.0000 C   0  0  0  0  0  0  0  0  0  0  0  0
   27.0135   -1.0786    0.0000 C   0  0  0  0  0  0  0  0  0  0  0  0
   23.5492   -0.6232    0.0000 C   0  0  0  0  0  0  0  0  0  0  0  0
   22.1643   -1.1994    0.0000 O   0  0  0  0  0  0  0  0  0  0  0  0
   24.8429   -1.3825    0.0000 N   0  0  0  0  0  0  0  0  0  0  0  0
   24.8321   -2.8825    0.0000 C   0  0  0  0  0  0  0  0  0  0  0  0
   24.3090   -4.2883    0.0000 C   0  0  0  0  0  0  0  0  0  0  0  0
   22.8299   -4.5382    0.0000 C   0  0  0  0  0  0  0  0  0  0  0  0
   22.3068   -5.9440    0.0000 N   0  0  0  0  0  0  0  0  0  0  0  0
   21.8740   -3.3822    0.0000 O   0  0  0  0  0  0  0  0  0  0  0  0
   26.1257   -3.6418    0.0000 C   0  0  0  0  0  0  0  0  0  0  0  0
   27.5706   -3.2388    0.0000 O   0  0  0  0  0  0  0  0  0  0  0  0
   26.1150   -5.1418    0.0000 N   0  0  0  0  0  0  0  0  0  0  0  0
   27.4086   -5.9011    0.0000 C   0  0  0  0  0  0  0  0  0  0  0  0
   28.8839   -6.1721    0.0000 C   0  0  0  0  0  0  0  0  0  0  0  0
   29.3868   -7.5853    0.0000 C   0  0  0  0  0  0  0  0  0  0  0  0
   30.8621   -7.8564    0.0000 C   0  0  0  0  0  0  0  0  0  0  0  0
   29.3761   -9.0853    0.0000 C   0  0  0  0  0  0  0  0  0  0  0  0
   27.3978   -7.4010    0.0000 C   0  0  0  0  0  0  0  0  0  0  0  0
   28.5893   -8.3123    0.0000 O   0  0  0  0  0  0  0  0  0  0  0  0
   26.0935   -8.1417    0.0000 O   0  0  0  0  0  0  0  0  0  0  0  0
  -30.4613   -2.7756    0.0000 H   0  0  0  0  0  0  0  0  0  0  0  0
  -31.0805    1.6741    0.0000 H   0  0  0  0  0  0  0  0  0  0  0  0
  -33.8123    2.9139    0.0000 H   0  0  0  0  0  0  0  0  0  0  0  0
  -32.8711   -2.9778    0.0000 H   0  0  0  0  0  0  0  0  0  0  0  0
  -39.6191   -5.3815    0.0000 H   0  0  0  0  0  0  0  0  0  0  0  0
  -41.1893   -0.4282    0.0000 H   0  0  0  0  0  0  0  0  0  0  0  0
  -38.3296    0.4783    0.0000 H   0  0  0  0  0  0  0  0  0  0  0  0
  -42.9416   -2.3465    0.0000 H   0  0  0  0  0  0  0  0  0  0  0  0
  -33.2549   -0.6384    0.0000 H   0  0  0  0  0  0  0  0  0  0  0  0
  -30.9953   -2.8394    0.0000 H   0  0  0  0  0  0  0  0  0  0  0  0
  -34.5444   -6.4982    0.0000 H   0  0  0  0  0  0  0  0  0  0  0  0
  -32.0070   -7.0566    0.0000 H   0  0  0  0  0  0  0  0  0  0  0  0
  -28.0565   -2.5515    0.0000 H   0  0  0  0  0  0  0  0  0  0  0  0
  -26.1351    1.0519    0.0000 H   0  0  0  0  0  0  0  0  0  0  0  0
  -28.0543    0.8641    0.0000 H   0  0  0  0  0  0  0  0  0  0  0  0
  -24.5454   -1.8553    0.0000 H   0  0  0  0  0  0  0  0  0  0  0  0
  -26.4645   -2.0431    0.0000 H   0  0  0  0  0  0  0  0  0  0  0  0
  -22.8850   -2.0454    0.0000 H   0  0  0  0  0  0  0  0  0  0  0  0
  -22.8828    1.3701    0.0000 H   0  0  0  0  0  0  0  0  0  0  0  0
  -20.5903    3.0107    0.0000 H   0  0  0  0  0  0  0  0  0  0  0  0
  -22.3295    2.1779    0.0000 H   0  0  0  0  0  0  0  0  0  0  0  0
  -17.1219    2.7479    0.0000 H   0  0  0  0  0  0  0  0  0  0  0  0
  -19.2683    4.0330    0.0000 H   0  0  0  0  0  0  0  0  0  0  0  0
  -19.0061    2.0573    0.0000 H   0  0  0  0  0  0  0  0  0  0  0  0
  -18.7074   -1.2840    0.0000 H   0  0  0  0  0  0  0  0  0  0  0  0
  -16.1403   -2.4490    0.0000 H   0  0  0  0  0  0  0  0  0  0  0  0
  -18.0080   -1.9691    0.0000 H   0  0  0  0  0  0  0  0  0  0  0  0
  -14.2718   -1.7427    0.0000 H   0  0  0  0  0  0  0  0  0  0  0  0
  -14.9470   -1.2573    0.0000 H   0  0  0  0  0  0  0  0  0  0  0  0
  -15.1257    2.1292    0.0000 H   0  0  0  0  0  0  0  0  0  0  0  0
  -12.8332    3.7699    0.0000 H   0  0  0  0  0  0  0  0  0  0  0  0
  -14.5724    2.9370    0.0000 H   0  0  0  0  0  0  0  0  0  0  0  0
  -10.8632    3.4392    0.0000 H   0  0  0  0  0  0  0  0  0  0  0  0
  -11.4314    2.8321    0.0000 H   0  0  0  0  0  0  0  0  0  0  0  0
  -10.9502   -0.5248    0.0000 H   0  0  0  0  0  0  0  0  0  0  0  0
   -7.7508   -1.1188    0.0000 H   0  0  0  0  0  0  0  0  0  0  0  0
   -7.9091    0.6586    0.0000 H   0  0  0  0  0  0  0  0  0  0  0  0
  -12.0406   -1.2817    0.0000 H   0  0  0  0  0  0  0  0  0  0  0  0
  -12.6673   -4.0489    0.0000 H   0  0  0  0  0  0  0  0  0  0  0  0
  -10.5242   -6.1482    0.0000 H   0  0  0  0  0  0  0  0  0  0  0  0
   -7.6346   -5.3420    0.0000 H   0  0  0  0  0  0  0  0  0  0  0  0
   -6.8880   -2.4364    0.0000 H   0  0  0  0  0  0  0  0  0  0  0  0
   -7.1898   -0.4982    0.0000 H   0  0  0  0  0  0  0  0  0  0  0  0
   -7.3685    2.8884    0.0000 H   0  0  0  0  0  0  0  0  0  0  0  0
   -4.0118    3.5045    0.0000 H   0  0  0  0  0  0  0  0  0  0  0  0
   -5.0760    4.5290    0.0000 H   0  0  0  0  0  0  0  0  0  0  0  0
   -6.8152    3.6961    0.0000 H   0  0  0  0  0  0  0  0  0  0  0  0
   -3.6743    3.5912    0.0000 H   0  0  0  0  0  0  0  0  0  0  0  0
   -3.1930    0.2343    0.0000 H   0  0  0  0  0  0  0  0  0  0  0  0
    0.0063   -0.3597    0.0000 H   0  0  0  0  0  0  0  0  0  0  0  0
   -0.1519    1.4177    0.0000 H   0  0  0  0  0  0  0  0  0  0  0  0
   -3.4653   -2.8866    0.0000 H   0  0  0  0  0  0  0  0  0  0  0  0
    0.5674    0.2609    0.0000 H   0  0  0  0  0  0  0  0  0  0  0  0
    0.3887    3.6475    0.0000 H   0  0  0  0  0  0  0  0  0  0  0  0
    2.6812    5.2881    0.0000 H   0  0  0  0  0  0  0  0  0  0  0  0
    0.9420    4.4552    0.0000 H   0  0  0  0  0  0  0  0  0  0  0  0
    3.6036    1.1295    0.0000 H   0  0  0  0  0  0  0  0  0  0  0  0
    6.9029    1.0958    0.0000 H   0  0  0  0  0  0  0  0  0  0  0  0
    8.2901    3.3738    0.0000 H   0  0  0  0  0  0  0  0  0  0  0  0
    6.9944    6.0796    0.0000 H   0  0  0  0  0  0  0  0  0  0  0  0
    4.0033    6.3103    0.0000 H   0  0  0  0  0  0  0  0  0  0  0  0
    4.2654    4.3347    0.0000 H   0  0  0  0  0  0  0  0  0  0  0  0
    4.5641    0.9934    0.0000 H   0  0  0  0  0  0  0  0  0  0  0  0
    7.7635    0.3994    0.0000 H   0  0  0  0  0  0  0  0  0  0  0  0
    7.6053    2.1768    0.0000 H   0  0  0  0  0  0  0  0  0  0  0  0
    3.3715    0.0845    0.0000 H   0  0  0  0  0  0  0  0  0  0  0  0
    2.8471   -2.5306    0.0000 H   0  0  0  0  0  0  0  0  0  0  0  0
    4.9901   -4.6300    0.0000 H   0  0  0  0  0  0  0  0  0  0  0  0
    7.8797   -3.8238    0.0000 H   0  0  0  0  0  0  0  0  0  0  0  0
    8.6264   -0.9182    0.0000 H   0  0  0  0  0  0  0  0  0  0  0  0
    8.3245    1.0200    0.0000 H   0  0  0  0  0  0  0  0  0  0  0  0
    8.1459    4.4066    0.0000 H   0  0  0  0  0  0  0  0  0  0  0  0
   10.4384    6.0472    0.0000 H   0  0  0  0  0  0  0  0  0  0  0  0
    8.6992    5.2143    0.0000 H   0  0  0  0  0  0  0  0  0  0  0  0
   12.1806    7.0792    0.0000 H   0  0  0  0  0  0  0  0  0  0  0  0
   15.1975    5.8350    0.0000 H   0  0  0  0  0  0  0  0  0  0  0  0
   15.0565    2.7278    0.0000 H   0  0  0  0  0  0  0  0  0  0  0  0
   12.0226    5.0938    0.0000 H   0  0  0  0  0  0  0  0  0  0  0  0
   12.1768    1.8650    0.0000 H   0  0  0  0  0  0  0  0  0  0  0  0
   15.4755    2.7917    0.0000 H   0  0  0  0  0  0  0  0  0  0  0  0
   15.9334   -0.1436    0.0000 H   0  0  0  0  0  0  0  0  0  0  0  0
   14.8028   -0.6850    0.0000 H   0  0  0  0  0  0  0  0  0  0  0  0
   13.0195   -0.7500    0.0000 H   0  0  0  0  0  0  0  0  0  0  0  0
   12.4359    0.9363    0.0000 H   0  0  0  0  0  0  0  0  0  0  0  0
   16.0817    1.7791    0.0000 H   0  0  0  0  0  0  0  0  0  0  0  0
   15.9030    5.1657    0.0000 H   0  0  0  0  0  0  0  0  0  0  0  0
   18.1955    6.8063    0.0000 H   0  0  0  0  0  0  0  0  0  0  0  0
   16.4563    5.9734    0.0000 H   0  0  0  0  0  0  0  0  0  0  0  0
   20.1655    6.4756    0.0000 H   0  0  0  0  0  0  0  0  0  0  0  0
   20.8810    4.9820    0.0000 H   0  0  0  0  0  0  0  0  0  0  0  0
   19.8400    3.8307    0.0000 H   0  0  0  0  0  0  0  0  0  0  0  0
   18.0872    6.0885    0.0000 H   0  0  0  0  0  0  0  0  0  0  0  0
   19.2697    7.3384    0.0000 H   0  0  0  0  0  0  0  0  0  0  0  0
   20.4006    7.6969    0.0000 H   0  0  0  0  0  0  0  0  0  0  0  0
   22.3053    7.0629    0.0000 H   0  0  0  0  0  0  0  0  0  0  0  0
   22.9957    6.0981    0.0000 H   0  0  0  0  0  0  0  0  0  0  0  0
   23.0964    4.2333    0.0000 H   0  0  0  0  0  0  0  0  0  0  0  0
   20.3636    2.5294    0.0000 H   0  0  0  0  0  0  0  0  0  0  0  0
   20.9620    0.8954    0.0000 H   0  0  0  0  0  0  0  0  0  0  0  0
   24.0831    2.2825    0.0000 H   0  0  0  0  0  0  0  0  0  0  0  0
   26.5143    0.8555    0.0000 H   0  0  0  0  0  0  0  0  0  0  0  0
   25.0461    2.1056    0.0000 H   0  0  0  0  0  0  0  0  0  0  0  0
   23.0685   -1.8604    0.0000 H   0  0  0  0  0  0  0  0  0  0  0  0
   24.4016   -4.7063    0.0000 H   0  0  0  0  0  0  0  0  0  0  0  0
   28.5443   -5.1363    0.0000 H   0  0  0  0  0  0  0  0  0  0  0  0
   28.9917   -2.7628    0.0000 H   0  0  0  0  0  0  0  0  0  0  0  0
   27.9859    0.0635    0.0000 H   0  0  0  0  0  0  0  0  0  0  0  0
   26.2877   -0.9795    0.0000 H   0  0  0  0  0  0  0  0  0  0  0  0
   23.3568   -2.6114    0.0000 H   0  0  0  0  0  0  0  0  0  0  0  0
   24.1155   -5.7758    0.0000 H   0  0  0  0  0  0  0  0  0  0  0  0
   25.6749   -4.9083    0.0000 H   0  0  0  0  0  0  0  0  0  0  0  0
   20.8278   -6.1939    0.0000 H   0  0  0  0  0  0  0  0  0  0  0  0
   23.2627   -7.1000    0.0000 H   0  0  0  0  0  0  0  0  0  0  0  0
   24.9106   -6.0359    0.0000 H   0  0  0  0  0  0  0  0  0  0  0  0
   27.9317   -4.4952    0.0000 H   0  0  0  0  0  0  0  0  0  0  0  0
   30.3215   -5.7438    0.0000 H   0  0  0  0  0  0  0  0  0  0  0  0
   29.0774   -4.6846    0.0000 H   0  0  0  0  0  0  0  0  0  0  0  0
   28.0956   -8.3487    0.0000 H   0  0  0  0  0  0  0  0  0  0  0  0
   31.5335   -9.1977    0.0000 H   0  0  0  0  0  0  0  0  0  0  0  0
   32.3412   -7.6065    0.0000 H   0  0  0  0  0  0  0  0  0  0  0  0
   31.0556   -6.3689    0.0000 H   0  0  0  0  0  0  0  0  0  0  0  0
   30.5675   -9.9966    0.0000 H   0  0  0  0  0  0  0  0  0  0  0  0
   28.8529  -10.4911    0.0000 H   0  0  0  0  0  0  0  0  0  0  0  0
   27.9008   -8.8142    0.0000 H   0  0  0  0  0  0  0  0  0  0  0  0
   26.0827   -9.6416    0.0000 H   0  0  0  0  0  0  0  0  0  0  0  0
  1  2  1  0
  2  3  1  0
  3  4  2  0
  4  5  1  0
  5  6  2  0
  6  7  1  0
  7  8  2  0
  7  9  1  0
  9 10  1  0
 10 11  1  0
 11 12  2  0
  9 13  1  0
 13 14  1  0
 14 15  2  0
 15 16  1  0
 16 17  2  0
 17 18  1  0
 16 19  1  0
 14 20  1  0
 20 21  1  0
 21 22  2  0
 22 23  1  0
 23 24  2  0
 24 25  1  0
 25 26  2  0
 25 27  1  0
  1 28  2  0
  1 29  1  0
 29 30  1  0
 30 31  1  0
 31 32  1  0
 32 33  2  0
 32 34  1  0
 34 35  1  0
 35 36  1  0
 36 37  1  0
 37 38  1  0
 37 39  2  0
 35 40  1  0
 40 41  2  0
 40 42  1  0
 42 43  1  0
 43 44  1  0
 44 45  1  0
 43 46  1  0
 46 47  2  0
 46 48  1  0
 48 49  1  0
 49 50  1  0
 50 51  1  0
 49 52  1  0
 52 53  2  0
 52 54  1  0
 54 55  1  0
 55 56  1  0
 56 57  1  0
 57 58  2  0
 58 59  1  0
 59 60  2  0
 60 61  1  0
 61 62  2  0
 55 63  1  0
 63 64  2  0
 63 65  1  0
 65 66  1  0
 66 67  1  0
 66 68  1  0
 68 69  2  0
 68 70  1  0
 70 71  1  0
 71 72  1  0
 72 73  1  0
 73 74  2  0
 73 75  1  0
 71 76  1  0
 76 77  2  0
 76 78  1  0
 78 79  1  0
 79 80  1  0
 80 81  1  0
 81 82  2  0
 82 83  1  0
 83 84  2  0
 84 85  1  0
 85 86  2  0
 79 87  1  0
 87 88  2  0
 87 89  1  0
 89 90  1  0
 90 91  1  0
 91 92  1  0
 92 93  2  0
 93 94  1  0
 94 95  2  0
 95 96  1  0
 96 97  2  0
 90 98  1  0
 98 99  2  0
 98100  1  0
100101  1  0
101102  1  0
102103  1  0
103104  2  0
104105  1  0
105106  1  0
106107  2  0
101108  1  0
108109  2  0
108110  1  0
110111  1  0
111112  1  0
112113  1  0
112114  1  0
111115  1  0
115116  2  0
115117  1  0
117118  1  0
118119  1  0
119120  1  0
118121  1  0
121122  2  0
121123  1  0
123124  1  0
124125  1  0
125126  1  0
126127  1  0
127128  1  0
128129  2  0
128130  1  0
130131  1  0
131132  1  0
132133  1  0
133134  2  0
134135  1  0
135136  2  0
136137  1  0
136138  1  0
138139  2  0
131140  1  0
140141  2  0
140142  1  0
142143  1  0
143144  1  0
144145  1  0
145146  1  0
145147  2  0
143148  1  0
148149  2  0
148150  1  0
150151  1  0
151152  1  0
152153  1  0
153154  1  0
153155  1  0
151156  1  0
156157  2  0
156158  1  0
  8  3  1  0
 62 57  1  0
 86 81  1  0
 97 92  1  0
107103  1  0
127123  1  0
139133  1  0
 11  6  1  0
 18 13  2  0
 22  9  1  0
 26 21  1  0
  2159  1  0
  4160  1  0
  5161  1  0
  8162  1  0
 15163  1  0
 17164  1  0
 18165  1  0
 19166  1  0
 23167  1  0
 24168  1  0
 26169  1  0
 27170  1  0
 29171  1  0
 30172  1  0
 30173  1  0
 31174  1  0
 31175  1  0
 34176  1  0
 35177  1  1
 36178  1  0
 36179  1  0
 38180  1  0
 38181  1  0
 42182  1  0
 43183  1  6
 44184  1  0
 44185  1  0
 45186  1  0
 48187  1  0
 49188  1  1
 50189  1  0
 50190  1  0
 51191  1  0
 54192  1  0
 55193  1  6
 56194  1  0
 56195  1  0
 58196  1  0
 59197  1  0
 60198  1  0
 61199  1  0
 62200  1  0
 65201  1  0
 66202  1  1
 67203  1  0
 67204  1  0
 67205  1  0
 70206  1  0
 71207  1  6
 72208  1  0
 72209  1  0
 75210  1  0
 78211  1  0
 79212  1  1
 80213  1  0
 80214  1  0
 82215  1  0
 83216  1  0
 84217  1  0
 85218  1  0
 86219  1  0
 89220  1  0
 90221  1  6
 91222  1  0
 91223  1  0
 93224  1  0
 94225  1  0
 95226  1  0
 96227  1  0
 97228  1  0
100229  1  0
101230  1  1
102231  1  0
102232  1  0
104233  1  0
105234  1  0
106235  1  0
110236  1  0
111237  1  6
112238  1  1
113239  1  0
114240  1  0
114241  1  0
114242  1  0
117243  1  0
118244  1  1
119245  1  0
119246  1  0
120247  1  0
120248  1  0
120249  1  0
124250  1  0
124251  1  0
125252  1  0
125253  1  0
126254  1  0
126255  1  0
127256  1  0
130257  1  0
131258  1  1
132259  1  0
132260  1  0
134261  1  0
135262  1  0
137263  1  0
138264  1  0
139265  1  0
142266  1  0
143267  1  1
144268  1  0
144269  1  0
146270  1  0
146271  1  0
150272  1  0
151273  1  1
152274  1  0
152275  1  0
153276  1  0
154277  1  0
154278  1  0
154279  1  0
155280  1  0
155281  1  0
155282  1  0
158283  1  0
M  END
