
     RDKit          2D

219225  0  0  0  0  0  0  0  0999 V2000
  -16.5715    0.8439    0.0000 C   0  0  0  0  0  0  0  0  0  0  0  0
  -17.8680    0.0896    0.0000 N   0  0  0  0  0  0  0  0  0  0  0  0
  -19.1695    0.8354    0.0000 C   0  0  0  0  0  0  0  0  0  0  0  0
  -19.1745    2.3354    0.0000 C   0  0  0  0  0  0  0  0  0  0  0  0
  -20.4760    3.0811    0.0000 C   0  0  0  0  0  0  0  0  0  0  0  0
  -21.7725    2.3268    0.0000 C   0  0  0  0  0  0  0  0  0  0  0  0
  -21.7676    0.8268    0.0000 C   0  0  0  0  0  0  0  0  0  0  0  0
  -20.4661    0.0811    0.0000 C   0  0  0  0  0  0  0  0  0  0  0  0
  -23.1927    0.3586    0.0000 C   0  0  0  0  0  0  0  0  0  0  0  0
  -24.0783    1.5693    0.0000 O   0  0  0  0  0  0  0  0  0  0  0  0
  -23.2006    2.7857    0.0000 C   0  0  0  0  0  0  0  0  0  0  0  0
  -23.6688    4.2107    0.0000 O   0  0  0  0  0  0  0  0  0  0  0  0
  -24.6588    0.0420    0.0000 C   0  0  0  0  0  0  0  0  0  0  0  0
  -25.1177   -1.3861    0.0000 C   0  0  0  0  0  0  0  0  0  0  0  0
  -26.5839   -1.7028    0.0000 C   0  0  0  0  0  0  0  0  0  0  0  0
  -27.5912   -0.5914    0.0000 C   0  0  0  0  0  0  0  0  0  0  0  0
  -27.1324    0.8367    0.0000 C   0  0  0  0  0  0  0  0  0  0  0  0
  -25.6662    1.1534    0.0000 C   0  0  0  0  0  0  0  0  0  0  0  0
  -29.0574   -0.9081    0.0000 O   0  0  0  0  0  0  0  0  0  0  0  0
  -24.1103   -2.4976    0.0000 O   0  0  0  0  0  0  0  0  0  0  0  0
  -22.6441   -2.1809    0.0000 C   0  0  0  0  0  0  0  0  0  0  0  0
  -22.1853   -0.7528    0.0000 C   0  0  0  0  0  0  0  0  0  0  0  0
  -20.9332   -1.1025    0.0000 C   0  0  0  0  0  0  0  0  0  0  0  0
  -20.3960   -1.6953    0.0000 C   0  0  0  0  0  0  0  0  0  0  0  0
  -20.6407   -2.4569    0.0000 C   0  0  0  0  0  0  0  0  0  0  0  0
  -21.4227   -2.6258    0.0000 C   0  0  0  0  0  0  0  0  0  0  0  0
  -19.1633   -4.0870    0.0000 O   0  0  0  0  0  0  0  0  0  0  0  0
  -16.5764    2.3439    0.0000 S   0  0  0  0  0  0  0  0  0  0  0  0
  -15.2700    0.0982    0.0000 N   0  0  0  0  0  0  0  0  0  0  0  0
  -13.9734    0.8524    0.0000 C   0  0  0  0  0  0  0  0  0  0  0  0
  -12.6719    0.1067    0.0000 C   0  0  0  0  0  0  0  0  0  0  0  0
  -11.3754    0.8610    0.0000 C   0  0  0  0  0  0  0  0  0  0  0  0
  -11.3803    2.3610    0.0000 O   0  0  0  0  0  0  0  0  0  0  0  0
  -10.0739    0.1152    0.0000 N   0  0  0  0  0  0  0  0  0  0  0  0
   -8.7773    0.8695    0.0000 C   0  0  0  0  0  0  0  0  0  0  0  0
   -7.8169    2.0217    0.0000 C   0  0  0  0  0  0  0  0  0  0  0  0
   -6.3388    1.7661    0.0000 C   0  0  0  0  0  0  0  0  0  0  0  0
   -5.3784    2.9183    0.0000 C   0  0  0  0  0  0  0  0  0  0  0  0
   -3.9004    2.6627    0.0000 N   0  0  0  0  0  0  0  0  0  0  0  0
   -2.9400    3.8149    0.0000 C   0  0  0  0  0  0  0  0  0  0  0  0
   -1.5041    3.3811    0.0000 N   0  0  0  0  0  0  0  0  0  0  0  0
   -3.4576    5.2228    0.0000 N   0  0  0  0  0  0  0  0  0  0  0  0
   -7.4758    0.1238    0.0000 C   0  0  0  0  0  0  0  0  0  0  0  0
   -7.4709   -1.3762    0.0000 O   0  0  0  0  0  0  0  0  0  0  0  0
   -6.1792    0.8780    0.0000 N   0  0  0  0  0  0  0  0  0  0  0  0
   -4.8777    0.1323    0.0000 C   0  0  0  0  0  0  0  0  0  0  0  0
   -3.9098   -1.0136    0.0000 C   0  0  0  0  0  0  0  0  0  0  0  0
   -4.4182   -2.4248    0.0000 C   0  0  0  0  0  0  0  0  0  0  0  0
   -3.4502   -3.5707    0.0000 C   0  0  0  0  0  0  0  0  0  0  0  0
   -3.9586   -4.9819    0.0000 C   0  0  0  0  0  0  0  0  0  0  0  0
   -2.9907   -6.1278    0.0000 N   0  0  0  0  0  0  0  0  0  0  0  0
   -3.5812    0.8866    0.0000 C   0  0  0  0  0  0  0  0  0  0  0  0
   -3.3201    1.9484    0.0000 O   0  0  0  0  0  0  0  0  0  0  0  0
   -2.2797    0.1408    0.0000 N   0  0  0  0  0  0  0  0  0  0  0  0
   -0.9831    0.8951    0.0000 C   0  0  0  0  0  0  0  0  0  0  0  0
   -0.0227    2.0473    0.0000 C   0  0  0  0  0  0  0  0  0  0  0  0
    1.4554    1.7917    0.0000 C   0  0  0  0  0  0  0  0  0  0  0  0
    1.9730    0.3839    0.0000 C   0  0  0  0  0  0  0  0  0  0  0  0
    3.4511    0.1282    0.0000 C   0  0  0  0  0  0  0  0  0  0  0  0
    4.4115    1.2805    0.0000 C   0  0  0  0  0  0  0  0  0  0  0  0
    3.8938    2.6883    0.0000 C   0  0  0  0  0  0  0  0  0  0  0  0
    2.4158    2.9439    0.0000 C   0  0  0  0  0  0  0  0  0  0  0  0
    0.3184    0.1494    0.0000 C   0  0  0  0  0  0  0  0  0  0  0  0
    0.1404   -1.3400    0.0000 O   0  0  0  0  0  0  0  0  0  0  0  0
    1.6150    0.9036    0.0000 N   0  0  0  0  0  0  0  0  0  0  0  0
    2.9165    0.1579    0.0000 C   0  0  0  0  0  0  0  0  0  0  0  0
    3.8844   -0.9880    0.0000 C   0  0  0  0  0  0  0  0  0  0  0  0
    3.3760   -2.3992    0.0000 C   0  0  0  0  0  0  0  0  0  0  0  0
    4.3440   -3.5451    0.0000 C   0  0  0  0  0  0  0  0  0  0  0  0
    3.8356   -4.9563    0.0000 C   0  0  0  0  0  0  0  0  0  0  0  0
    4.8035   -6.1022    0.0000 N   0  0  0  0  0  0  0  0  0  0  0  0
    4.2130    0.9122    0.0000 C   0  0  0  0  0  0  0  0  0  0  0  0
    4.5712    2.3688    0.0000 O   0  0  0  0  0  0  0  0  0  0  0  0
    5.5145    0.1664    0.0000 N   0  0  0  0  0  0  0  0  0  0  0  0
    6.8111    0.9207    0.0000 C   0  0  0  0  0  0  0  0  0  0  0  0
    7.7715    2.0729    0.0000 C   0  0  0  0  0  0  0  0  0  0  0  0
    9.2495    1.8173    0.0000 C   0  0  0  0  0  0  0  0  0  0  0  0
   10.2099    2.9695    0.0000 C   0  0  0  0  0  0  0  0  0  0  0  0
   11.6880    2.7139    0.0000 N   0  0  0  0  0  0  0  0  0  0  0  0
   12.6484    3.8661    0.0000 C   0  0  0  0  0  0  0  0  0  0  0  0
   14.0843    3.4323    0.0000 N   0  0  0  0  0  0  0  0  0  0  0  0
   12.1308    5.2740    0.0000 N   0  0  0  0  0  0  0  0  0  0  0  0
    8.1126    0.1750    0.0000 C   0  0  0  0  0  0  0  0  0  0  0  0
    8.1175   -1.3250    0.0000 O   0  0  0  0  0  0  0  0  0  0  0  0
    9.4091    0.9292    0.0000 N   0  0  0  0  0  0  0  0  0  0  0  0
   10.7106    0.1835    0.0000 C   0  0  0  0  0  0  0  0  0  0  0  0
   11.6786   -0.9624    0.0000 C   0  0  0  0  0  0  0  0  0  0  0  0
   11.1702   -2.3736    0.0000 C   0  0  0  0  0  0  0  0  0  0  0  0
   12.1381   -3.5195    0.0000 C   0  0  0  0  0  0  0  0  0  0  0  0
   10.2098   -3.5258    0.0000 C   0  0  0  0  0  0  0  0  0  0  0  0
   12.0072    0.9378    0.0000 C   0  0  0  0  0  0  0  0  0  0  0  0
   12.3654    2.3944    0.0000 O   0  0  0  0  0  0  0  0  0  0  0  0
   13.3087    0.1920    0.0000 N   0  0  0  0  0  0  0  0  0  0  0  0
   14.6053    0.9463    0.0000 C   0  0  0  0  0  0  0  0  0  0  0  0
   15.5657    2.0985    0.0000 C   0  0  0  0  0  0  0  0  0  0  0  0
   17.0437    1.8429    0.0000 C   0  0  0  0  0  0  0  0  0  0  0  0
   17.5614    0.4351    0.0000 C   0  0  0  0  0  0  0  0  0  0  0  0
   19.0394    0.1794    0.0000 C   0  0  0  0  0  0  0  0  0  0  0  0
   19.9998    1.3317    0.0000 C   0  0  0  0  0  0  0  0  0  0  0  0
   19.4822    2.7395    0.0000 C   0  0  0  0  0  0  0  0  0  0  0  0
   18.0041    2.9951    0.0000 C   0  0  0  0  0  0  0  0  0  0  0  0
   15.9068    0.2006    0.0000 C   0  0  0  0  0  0  0  0  0  0  0  0
   15.7288   -1.2888    0.0000 O   0  0  0  0  0  0  0  0  0  0  0  0
   17.2033    0.9548    0.0000 N   0  0  0  0  0  0  0  0  0  0  0  0
   18.5048    0.2091    0.0000 C   0  0  0  0  0  0  0  0  0  0  0  0
   19.4728   -0.9368    0.0000 C   0  0  0  0  0  0  0  0  0  0  0  0
   18.9644   -2.3480    0.0000 C   0  0  0  0  0  0  0  0  0  0  0  0
   19.9323   -3.4939    0.0000 C   0  0  0  0  0  0  0  0  0  0  0  0
   19.4239   -4.9051    0.0000 N   0  0  0  0  0  0  0  0  0  0  0  0
   21.4087   -3.2286    0.0000 O   0  0  0  0  0  0  0  0  0  0  0  0
   19.8014    0.9634    0.0000 C   0  0  0  0  0  0  0  0  0  0  0  0
   21.1841    0.3818    0.0000 O   0  0  0  0  0  0  0  0  0  0  0  0
   20.1596    2.4200    0.0000 O   0  0  0  0  0  0  0  0  0  0  0  0
  -17.6803   -1.3986    0.0000 H   0  0  0  0  0  0  0  0  0  0  0  0
  -17.8779    3.0896    0.0000 H   0  0  0  0  0  0  0  0  0  0  0  0
  -20.4809    4.5811    0.0000 H   0  0  0  0  0  0  0  0  0  0  0  0
  -20.0984   -1.3731    0.0000 H   0  0  0  0  0  0  0  0  0  0  0  0
  -27.0427   -3.1309    0.0000 H   0  0  0  0  0  0  0  0  0  0  0  0
  -28.1397    1.9481    0.0000 H   0  0  0  0  0  0  0  0  0  0  0  0
  -25.2074    2.5815    0.0000 H   0  0  0  0  0  0  0  0  0  0  0  0
  -30.0648    0.2033    0.0000 H   0  0  0  0  0  0  0  0  0  0  0  0
  -20.2603    0.9920    0.0000 H   0  0  0  0  0  0  0  0  0  0  0  0
  -18.2179   -1.4119    0.0000 H   0  0  0  0  0  0  0  0  0  0  0  0
  -22.0956   -4.7204    0.0000 H   0  0  0  0  0  0  0  0  0  0  0  0
  -19.6221   -5.5151    0.0000 H   0  0  0  0  0  0  0  0  0  0  0  0
  -15.2651   -1.4018    0.0000 H   0  0  0  0  0  0  0  0  0  0  0  0
  -13.0130    2.0047    0.0000 H   0  0  0  0  0  0  0  0  0  0  0  0
  -14.9414    1.9983    0.0000 H   0  0  0  0  0  0  0  0  0  0  0  0
  -11.7040   -1.0392    0.0000 H   0  0  0  0  0  0  0  0  0  0  0  0
  -13.6323   -1.0455    0.0000 H   0  0  0  0  0  0  0  0  0  0  0  0
  -10.0689   -1.3847    0.0000 H   0  0  0  0  0  0  0  0  0  0  0  0
   -9.7452    2.0154    0.0000 H   0  0  0  0  0  0  0  0  0  0  0  0
   -7.4843    3.4844    0.0000 H   0  0  0  0  0  0  0  0  0  0  0  0
   -9.1184    2.7675    0.0000 H   0  0  0  0  0  0  0  0  0  0  0  0
   -5.0373    1.0204    0.0000 H   0  0  0  0  0  0  0  0  0  0  0  0
   -6.1250    0.2814    0.0000 H   0  0  0  0  0  0  0  0  0  0  0  0
   -4.8700    4.3296    0.0000 H   0  0  0  0  0  0  0  0  0  0  0  0
   -6.5793    3.8172    0.0000 H   0  0  0  0  0  0  0  0  0  0  0  0
   -3.0574    1.4220    0.0000 H   0  0  0  0  0  0  0  0  0  0  0  0
   -0.5015    4.7116    0.0000 H   0  0  0  0  0  0  0  0  0  0  0  0
   -1.0983    2.0924    0.0000 H   0  0  0  0  0  0  0  0  0  0  0  0
   -2.4972    6.3750    0.0000 H   0  0  0  0  0  0  0  0  0  0  0  0
   -4.9357    5.4784    0.0000 H   0  0  0  0  0  0  0  0  0  0  0  0
   -5.8210    2.3346    0.0000 H   0  0  0  0  0  0  0  0  0  0  0  0
   -5.9714   -0.8943    0.0000 H   0  0  0  0  0  0  0  0  0  0  0  0
   -2.6083   -1.7593    0.0000 H   0  0  0  0  0  0  0  0  0  0  0  0
   -2.6991   -0.1280    0.0000 H   0  0  0  0  0  0  0  0  0  0  0  0
   -5.5119   -3.4514    0.0000 H   0  0  0  0  0  0  0  0  0  0  0  0
   -5.8009   -1.8433    0.0000 H   0  0  0  0  0  0  0  0  0  0  0  0
   -2.0675   -4.1522    0.0000 H   0  0  0  0  0  0  0  0  0  0  0  0
   -2.3565   -2.5441    0.0000 H   0  0  0  0  0  0  0  0  0  0  0  0
   -4.9190   -6.1341    0.0000 H   0  0  0  0  0  0  0  0  0  0  0  0
   -5.3413   -4.4004    0.0000 H   0  0  0  0  0  0  0  0  0  0  0  0
   -3.4991   -7.5390    0.0000 H   0  0  0  0  0  0  0  0  0  0  0  0
   -1.6892   -6.8735    0.0000 H   0  0  0  0  0  0  0  0  0  0  0  0
   -1.8970   -5.1012    0.0000 H   0  0  0  0  0  0  0  0  0  0  0  0
   -2.0919   -1.3474    0.0000 H   0  0  0  0  0  0  0  0  0  0  0  0
   -1.9511    2.0410    0.0000 H   0  0  0  0  0  0  0  0  0  0  0  0
    0.4857    3.4585    0.0000 H   0  0  0  0  0  0  0  0  0  0  0  0
   -1.4660    2.4560    0.0000 H   0  0  0  0  0  0  0  0  0  0  0  0
    1.1602   -0.8768    0.0000 H   0  0  0  0  0  0  0  0  0  0  0  0
    4.2940   -1.1125    0.0000 H   0  0  0  0  0  0  0  0  0  0  0  0
    5.8895    1.0248    0.0000 H   0  0  0  0  0  0  0  0  0  0  0  0
    4.8542    3.8405    0.0000 H   0  0  0  0  0  0  0  0  0  0  0  0
    1.8981    4.3518    0.0000 H   0  0  0  0  0  0  0  0  0  0  0  0
    1.9731    2.3602    0.0000 H   0  0  0  0  0  0  0  0  0  0  0  0
    1.8228   -0.8687    0.0000 H   0  0  0  0  0  0  0  0  0  0  0  0
    5.1859   -1.7337    0.0000 H   0  0  0  0  0  0  0  0  0  0  0  0
    5.0951   -0.1024    0.0000 H   0  0  0  0  0  0  0  0  0  0  0  0
    2.2823   -3.4258    0.0000 H   0  0  0  0  0  0  0  0  0  0  0  0
    1.9933   -1.8177    0.0000 H   0  0  0  0  0  0  0  0  0  0  0  0
    5.7266   -4.1266    0.0000 H   0  0  0  0  0  0  0  0  0  0  0  0
    5.4376   -2.5185    0.0000 H   0  0  0  0  0  0  0  0  0  0  0  0
    2.8752   -6.1085    0.0000 H   0  0  0  0  0  0  0  0  0  0  0  0
    2.4529   -4.3748    0.0000 H   0  0  0  0  0  0  0  0  0  0  0  0
    4.2951   -7.5134    0.0000 H   0  0  0  0  0  0  0  0  0  0  0  0
    6.1050   -6.8479    0.0000 H   0  0  0  0  0  0  0  0  0  0  0  0
    5.8972   -5.0756    0.0000 H   0  0  0  0  0  0  0  0  0  0  0  0
    5.7022   -1.3218    0.0000 H   0  0  0  0  0  0  0  0  0  0  0  0
    5.8431    2.0666    0.0000 H   0  0  0  0  0  0  0  0  0  0  0  0
    8.1041    3.5356    0.0000 H   0  0  0  0  0  0  0  0  0  0  0  0
    6.4700    2.8187    0.0000 H   0  0  0  0  0  0  0  0  0  0  0  0
   10.5510    1.0716    0.0000 H   0  0  0  0  0  0  0  0  0  0  0  0
    9.4633    0.3326    0.0000 H   0  0  0  0  0  0  0  0  0  0  0  0
   10.7183    4.3807    0.0000 H   0  0  0  0  0  0  0  0  0  0  0  0
    9.0091    3.8683    0.0000 H   0  0  0  0  0  0  0  0  0  0  0  0
   12.5309    1.4732    0.0000 H   0  0  0  0  0  0  0  0  0  0  0  0
   15.0869    4.7627    0.0000 H   0  0  0  0  0  0  0  0  0  0  0  0
   14.4901    2.1436    0.0000 H   0  0  0  0  0  0  0  0  0  0  0  0
   13.0912    6.4262    0.0000 H   0  0  0  0  0  0  0  0  0  0  0  0
   10.6527    5.5296    0.0000 H   0  0  0  0  0  0  0  0  0  0  0  0
    9.7673    2.3858    0.0000 H   0  0  0  0  0  0  0  0  0  0  0  0
    9.6169   -0.8431    0.0000 H   0  0  0  0  0  0  0  0  0  0  0  0
   12.9801   -1.7081    0.0000 H   0  0  0  0  0  0  0  0  0  0  0  0
   12.8893   -0.0768    0.0000 H   0  0  0  0  0  0  0  0  0  0  0  0
    9.7875   -1.7921    0.0000 H   0  0  0  0  0  0  0  0  0  0  0  0
   11.8056   -4.9822    0.0000 H   0  0  0  0  0  0  0  0  0  0  0  0
   13.4396   -4.2652    0.0000 H   0  0  0  0  0  0  0  0  0  0  0  0
   13.2318   -2.4929    0.0000 H   0  0  0  0  0  0  0  0  0  0  0  0
   10.5520   -4.9863    0.0000 H   0  0  0  0  0  0  0  0  0  0  0  0
    8.9132   -4.2801    0.0000 H   0  0  0  0  0  0  0  0  0  0  0  0
    9.2418   -2.3799    0.0000 H   0  0  0  0  0  0  0  0  0  0  0  0
   13.4964   -1.2962    0.0000 H   0  0  0  0  0  0  0  0  0  0  0  0
   13.6373    2.0922    0.0000 H   0  0  0  0  0  0  0  0  0  0  0  0
   16.0741    3.5097    0.0000 H   0  0  0  0  0  0  0  0  0  0  0  0
   14.1224    2.5072    0.0000 H   0  0  0  0  0  0  0  0  0  0  0  0
   16.7486   -0.8257    0.0000 H   0  0  0  0  0  0  0  0  0  0  0  0
   19.8824   -1.0613    0.0000 H   0  0  0  0  0  0  0  0  0  0  0  0
   21.4779    1.0760    0.0000 H   0  0  0  0  0  0  0  0  0  0  0  0
   20.4426    3.8917    0.0000 H   0  0  0  0  0  0  0  0  0  0  0  0
   17.4865    4.4030    0.0000 H   0  0  0  0  0  0  0  0  0  0  0  0
   17.5615    2.4114    0.0000 H   0  0  0  0  0  0  0  0  0  0  0  0
   17.4111   -0.8175    0.0000 H   0  0  0  0  0  0  0  0  0  0  0  0
   20.7743   -1.6825    0.0000 H   0  0  0  0  0  0  0  0  0  0  0  0
   20.5665    0.0898    0.0000 H   0  0  0  0  0  0  0  0  0  0  0  0
   18.0040   -3.5002    0.0000 H   0  0  0  0  0  0  0  0  0  0  0  0
   17.5817   -1.7665    0.0000 H   0  0  0  0  0  0  0  0  0  0  0  0
   20.3919   -6.0510    0.0000 H   0  0  0  0  0  0  0  0  0  0  0  0
   17.9476   -5.1704    0.0000 H   0  0  0  0  0  0  0  0  0  0  0  0
  1  2  1  0
  2  3  1  0
  3  4  2  0
  4  5  1  0
  5  6  2  0
  6  7  1  0
  7  8  2  0
  7  9  1  0
  9 10  1  0
 10 11  1  0
 11 12  2  0
  9 13  1  0
 13 14  1  0
 14 15  2  0
 15 16  1  0
 16 17  2  0
 17 18  1  0
 16 19  1  0
 14 20  1  0
 20 21  1  0
 21 22  2  0
 22 23  1  0
 23 24  2  0
 24 25  1  0
 25 26  2  0
 25 27  1  0
  1 28  2  0
  1 29  1  0
 29 30  1  0
 30 31  1  0
 31 32  1  0
 32 33  2  0
 32 34  1  0
 34 35  1  0
 35 36  1  0
 36 37  1  0
 37 38  1  0
 38 39  1  0
 39 40  1  0
 40 41  2  3
 40 42  1  0
 35 43  1  0
 43 44  2  0
 43 45  1  0
 45 46  1  0
 46 47  1  0
 47 48  1  0
 48 49  1  0
 49 50  1  0
 50 51  1  0
 46 52  1  0
 52 53  2  0
 52 54  1  0
 54 55  1  0
 55 56  1  0
 56 57  1  0
 57 58  2  0
 58 59  1  0
 59 60  2  0
 60 61  1  0
 61 62  2  0
 55 63  1  0
 63 64  2  0
 63 65  1  0
 65 66  1  0
 66 67  1  0
 67 68  1  0
 68 69  1  0
 69 70  1  0
 70 71  1  0
 66 72  1  0
 72 73  2  0
 72 74  1  0
 74 75  1  0
 75 76  1  0
 76 77  1  0
 77 78  1  0
 78 79  1  0
 79 80  1  0
 80 81  2  3
 80 82  1  0
 75 83  1  0
 83 84  2  0
 83 85  1  0
 85 86  1  0
 86 87  1  0
 87 88  1  0
 88 89  1  0
 88 90  1  0
 86 91  1  0
 91 92  2  0
 91 93  1  0
 93 94  1  0
 94 95  1  0
 95 96  1  0
 96 97  2  0
 97 98  1  0
 98 99  2  0
 99100  1  0
100101  2  0
 94102  1  0
102103  2  0
102104  1  0
104105  1  0
105106  1  0
106107  1  0
107108  1  0
108109  1  0
108110  2  0
105111  1  0
111112  2  0
111113  1  0
  8  3  1  0
 62 57  1  0
101 96  1  0
 11  6  1  0
 18 13  2  0
 22  9  1  0
 26 21  1  0
  2114  1  0
  4115  1  0
  5116  1  0
  8117  1  0
 15118  1  0
 17119  1  0
 18120  1  0
 19121  1  0
 23122  1  0
 24123  1  0
 26124  1  0
 27125  1  0
 29126  1  0
 30127  1  0
 30128  1  0
 31129  1  0
 31130  1  0
 34131  1  0
 35132  1  1
 36133  1  0
 36134  1  0
 37135  1  0
 37136  1  0
 38137  1  0
 38138  1  0
 39139  1  0
 41140  1  0
 41141  1  0
 42142  1  0
 42143  1  0
 45144  1  0
 46145  1  6
 47146  1  0
 47147  1  0
 48148  1  0
 48149  1  0
 49150  1  0
 49151  1  0
 50152  1  0
 50153  1  0
 51154  1  0
 51155  1  0
 51156  1  0
 54157  1  0
 55158  1  1
 56159  1  0
 56160  1  0
 58161  1  0
 59162  1  0
 60163  1  0
 61164  1  0
 62165  1  0
 65166  1  0
 66167  1  6
 67168  1  0
 67169  1  0
 68170  1  0
 68171  1  0
 69172  1  0
 69173  1  0
 70174  1  0
 70175  1  0
 71176  1  0
 71177  1  0
 71178  1  0
 74179  1  0
 75180  1  1
 76181  1  0
 76182  1  0
 77183  1  0
 77184  1  0
 78185  1  0
 78186  1  0
 79187  1  0
 81188  1  0
 81189  1  0
 82190  1  0
 82191  1  0
 85192  1  0
 86193  1  6
 87194  1  0
 87195  1  0
 88196  1  0
 89197  1  0
 89198  1  0
 89199  1  0
 90200  1  0
 90201  1  0
 90202  1  0
 93203  1  0
 94204  1  1
 95205  1  0
 95206  1  0
 97207  1  0
 98208  1  0
 99209  1  0
100210  1  0
101211  1  0
104212  1  0
105213  1  6
106214  1  0
106215  1  0
107216  1  0
107217  1  0
109218  1  0
109219  1  0
M  CHG  5  41   1  51   1  71   1  81   1 113  -1
M  END
