
     RDKit          2D

465471  0  0  0  0  0  0  0  0999 V2000
    7.3490   10.5084    0.0000 C   0  0  0  0  0  0  0  0  0  0  0  0
    5.8930   10.1480    0.0000 N   0  0  0  0  0  0  0  0  0  0  0  0
    4.8529   11.2288    0.0000 C   0  0  0  0  0  0  0  0  0  0  0  0
    3.3968   10.8684    0.0000 C   0  0  0  0  0  0  0  0  0  0  0  0
    2.3567   11.9492    0.0000 C   0  0  0  0  0  0  0  0  0  0  0  0
    2.7726   13.3904    0.0000 C   0  0  0  0  0  0  0  0  0  0  0  0
    4.2287   13.7508    0.0000 C   0  0  0  0  0  0  0  0  0  0  0  0
    5.2688   12.6700    0.0000 C   0  0  0  0  0  0  0  0  0  0  0  0
    4.3359   15.2469    0.0000 C   0  0  0  0  0  0  0  0  0  0  0  0
    2.9461   15.8113    0.0000 O   0  0  0  0  0  0  0  0  0  0  0  0
    1.9799   14.6639    0.0000 C   0  0  0  0  0  0  0  0  0  0  0  0
    0.4838   14.7711    0.0000 O   0  0  0  0  0  0  0  0  0  0  0  0
    4.2861   16.7461    0.0000 C   0  0  0  0  0  0  0  0  0  0  0  0
    5.5596   17.5388    0.0000 C   0  0  0  0  0  0  0  0  0  0  0  0
    5.5098   19.0380    0.0000 C   0  0  0  0  0  0  0  0  0  0  0  0
    4.1866   19.7445    0.0000 C   0  0  0  0  0  0  0  0  0  0  0  0
    2.9132   18.9518    0.0000 C   0  0  0  0  0  0  0  0  0  0  0  0
    2.9629   17.4526    0.0000 C   0  0  0  0  0  0  0  0  0  0  0  0
    4.1369   21.2436    0.0000 O   0  0  0  0  0  0  0  0  0  0  0  0
    6.8828   16.8323    0.0000 O   0  0  0  0  0  0  0  0  0  0  0  0
    6.9326   15.3331    0.0000 C   0  0  0  0  0  0  0  0  0  0  0  0
    5.6591   14.5404    0.0000 C   0  0  0  0  0  0  0  0  0  0  0  0
    6.3031   13.4112    0.0000 C   0  0  0  0  0  0  0  0  0  0  0  0
    7.0088   13.0344    0.0000 C   0  0  0  0  0  0  0  0  0  0  0  0
    7.6880   13.4572    0.0000 C   0  0  0  0  0  0  0  0  0  0  0  0
    7.6615   14.2567    0.0000 C   0  0  0  0  0  0  0  0  0  0  0  0
    9.6287   12.4210    0.0000 O   0  0  0  0  0  0  0  0  0  0  0  0
    7.7650   11.9495    0.0000 S   0  0  0  0  0  0  0  0  0  0  0  0
    8.3892    9.4275    0.0000 N   0  0  0  0  0  0  0  0  0  0  0  0
    9.8452    9.7879    0.0000 C   0  0  0  0  0  0  0  0  0  0  0  0
   10.8854    8.7071    0.0000 C   0  0  0  0  0  0  0  0  0  0  0  0
   12.3414    9.0675    0.0000 C   0  0  0  0  0  0  0  0  0  0  0  0
   12.4675    9.8546    0.0000 O   0  0  0  0  0  0  0  0  0  0  0  0
   13.3815    7.9866    0.0000 N   0  0  0  0  0  0  0  0  0  0  0  0
   14.8376    8.3470    0.0000 C   0  0  0  0  0  0  0  0  0  0  0  0
   14.2299    9.7184    0.0000 C   0  0  0  0  0  0  0  0  0  0  0  0
   12.7689   10.0584    0.0000 O   0  0  0  0  0  0  0  0  0  0  0  0
   16.3291    8.1876    0.0000 C   0  0  0  0  0  0  0  0  0  0  0  0
   16.8934    9.5775    0.0000 O   0  0  0  0  0  0  0  0  0  0  0  0
   16.9369    6.8163    0.0000 N   0  0  0  0  0  0  0  0  0  0  0  0
   18.4284    6.6569    0.0000 C   0  0  0  0  0  0  0  0  0  0  0  0
   18.3263    8.1534    0.0000 C   0  0  0  0  0  0  0  0  0  0  0  0
   16.9793    8.8133    0.0000 C   0  0  0  0  0  0  0  0  0  0  0  0
   16.8772   10.3098    0.0000 C   0  0  0  0  0  0  0  0  0  0  0  0
   15.6206   11.1290    0.0000 O   0  0  0  0  0  0  0  0  0  0  0  0
   18.1222   11.1465    0.0000 O   0  0  0  0  0  0  0  0  0  0  0  0
   19.7754    5.9970    0.0000 C   0  0  0  0  0  0  0  0  0  0  0  0
   20.7810    7.1100    0.0000 O   0  0  0  0  0  0  0  0  0  0  0  0
   19.8775    4.5005    0.0000 N   0  0  0  0  0  0  0  0  0  0  0  0
   21.2245    3.8406    0.0000 C   0  0  0  0  0  0  0  0  0  0  0  0
   21.6405    5.2818    0.0000 C   0  0  0  0  0  0  0  0  0  0  0  0
   20.6003    6.3626    0.0000 C   0  0  0  0  0  0  0  0  0  0  0  0
   21.0163    7.8038    0.0000 C   0  0  0  0  0  0  0  0  0  0  0  0
   20.1157    9.0033    0.0000 O   0  0  0  0  0  0  0  0  0  0  0  0
   22.4724    8.1641    0.0000 O   0  0  0  0  0  0  0  0  0  0  0  0
   22.2646    2.7598    0.0000 C   0  0  0  0  0  0  0  0  0  0  0  0
   23.5902    3.4618    0.0000 O   0  0  0  0  0  0  0  0  0  0  0  0
   21.8487    1.3186    0.0000 N   0  0  0  0  0  0  0  0  0  0  0  0
   22.8888    0.2378    0.0000 C   0  0  0  0  0  0  0  0  0  0  0  0
   23.7726    1.4498    0.0000 C   0  0  0  0  0  0  0  0  0  0  0  0
   23.1648    2.8212    0.0000 C   0  0  0  0  0  0  0  0  0  0  0  0
   24.0486    4.0332    0.0000 C   0  0  0  0  0  0  0  0  0  0  0  0
   22.1247    3.9020    0.0000 C   0  0  0  0  0  0  0  0  0  0  0  0
   23.4965   -1.1336    0.0000 C   0  0  0  0  0  0  0  0  0  0  0  0
   24.9963   -1.1099    0.0000 O   0  0  0  0  0  0  0  0  0  0  0  0
   22.6128   -2.3456    0.0000 N   0  0  0  0  0  0  0  0  0  0  0  0
   23.2205   -3.7169    0.0000 C   0  0  0  0  0  0  0  0  0  0  0  0
   24.4655   -2.8803    0.0000 C   0  0  0  0  0  0  0  0  0  0  0  0
   24.5466   -1.3825    0.0000 C   0  0  0  0  0  0  0  0  0  0  0  0
   23.3225   -5.2135    0.0000 C   0  0  0  0  0  0  0  0  0  0  0  0
   24.7400   -5.7042    0.0000 O   0  0  0  0  0  0  0  0  0  0  0  0
   22.0775   -6.0501    0.0000 N   0  0  0  0  0  0  0  0  0  0  0  0
   22.1796   -7.5466    0.0000 C   0  0  0  0  0  0  0  0  0  0  0  0
   23.6357   -7.1863    0.0000 C   0  0  0  0  0  0  0  0  0  0  0  0
   21.7636   -8.9878    0.0000 C   0  0  0  0  0  0  0  0  0  0  0  0
   23.0344   -9.7848    0.0000 O   0  0  0  0  0  0  0  0  0  0  0  0
   20.3076   -9.3482    0.0000 N   0  0  0  0  0  0  0  0  0  0  0  0
   19.8916  -10.7893    0.0000 C   0  0  0  0  0  0  0  0  0  0  0  0
   21.3831  -10.9487    0.0000 C   0  0  0  0  0  0  0  0  0  0  0  0
   22.2669   -9.7367    0.0000 C   0  0  0  0  0  0  0  0  0  0  0  0
   23.7584   -9.8961    0.0000 C   0  0  0  0  0  0  0  0  0  0  0  0
   24.7833   -8.8009    0.0000 O   0  0  0  0  0  0  0  0  0  0  0  0
   24.3661  -11.2675    0.0000 O   0  0  0  0  0  0  0  0  0  0  0  0
   19.0078  -12.0013    0.0000 C   0  0  0  0  0  0  0  0  0  0  0  0
   19.7782  -13.2884    0.0000 O   0  0  0  0  0  0  0  0  0  0  0  0
   17.5163  -11.8420    0.0000 N   0  0  0  0  0  0  0  0  0  0  0  0
   16.6326  -13.0540    0.0000 C   0  0  0  0  0  0  0  0  0  0  0  0
   18.0993  -13.3683    0.0000 C   0  0  0  0  0  0  0  0  0  0  0  0
   15.3875  -13.8906    0.0000 C   0  0  0  0  0  0  0  0  0  0  0  0
   15.8487  -15.3180    0.0000 O   0  0  0  0  0  0  0  0  0  0  0  0
   14.0405  -13.2307    0.0000 N   0  0  0  0  0  0  0  0  0  0  0  0
   12.7955  -14.0674    0.0000 C   0  0  0  0  0  0  0  0  0  0  0  0
   13.8356  -15.1482    0.0000 C   0  0  0  0  0  0  0  0  0  0  0  0
   15.2917  -14.7878    0.0000 C   0  0  0  0  0  0  0  0  0  0  0  0
   15.8560  -13.3980    0.0000 C   0  0  0  0  0  0  0  0  0  0  0  0
   17.3522  -13.5052    0.0000 N   0  0  0  0  0  0  0  0  0  0  0  0
   17.7125  -14.9613    0.0000 C   0  0  0  0  0  0  0  0  0  0  0  0
   16.4391  -15.7540    0.0000 N   0  0  0  0  0  0  0  0  0  0  0  0
   11.3394  -14.4277    0.0000 C   0  0  0  0  0  0  0  0  0  0  0  0
   11.2846  -15.9267    0.0000 O   0  0  0  0  0  0  0  0  0  0  0  0
   10.2993  -13.3469    0.0000 N   0  0  0  0  0  0  0  0  0  0  0  0
    8.8432  -13.7073    0.0000 C   0  0  0  0  0  0  0  0  0  0  0  0
    9.4510  -15.0786    0.0000 C   0  0  0  0  0  0  0  0  0  0  0  0
   10.9425  -15.2380    0.0000 C   0  0  0  0  0  0  0  0  0  0  0  0
   11.5502  -16.6094    0.0000 N   0  0  0  0  0  0  0  0  0  0  0  0
   12.0933  -14.2759    0.0000 O   0  0  0  0  0  0  0  0  0  0  0  0
    7.3517  -13.5479    0.0000 C   0  0  0  0  0  0  0  0  0  0  0  0
    6.7875  -14.9377    0.0000 O   0  0  0  0  0  0  0  0  0  0  0  0
    6.7440  -12.1765    0.0000 N   0  0  0  0  0  0  0  0  0  0  0  0
    5.2525  -12.0172    0.0000 C   0  0  0  0  0  0  0  0  0  0  0  0
    5.3545  -13.5137    0.0000 C   0  0  0  0  0  0  0  0  0  0  0  0
    6.7016  -14.1736    0.0000 C   0  0  0  0  0  0  0  0  0  0  0  0
    6.8036  -15.6701    0.0000 C   0  0  0  0  0  0  0  0  0  0  0  0
    8.1931  -14.3329    0.0000 C   0  0  0  0  0  0  0  0  0  0  0  0
    3.9054  -11.3573    0.0000 C   0  0  0  0  0  0  0  0  0  0  0  0
    2.7717  -12.3394    0.0000 O   0  0  0  0  0  0  0  0  0  0  0  0
    3.8034   -9.8607    0.0000 N   0  0  0  0  0  0  0  0  0  0  0  0
    2.4563   -9.2009    0.0000 C   0  0  0  0  0  0  0  0  0  0  0  0
    2.0404  -10.6420    0.0000 C   0  0  0  0  0  0  0  0  0  0  0  0
    2.9410  -11.8416    0.0000 S   0  0  0  0  0  0  0  0  0  0  0  0
    1.4162   -8.1200    0.0000 C   0  0  0  0  0  0  0  0  0  0  0  0
    0.0149   -8.6552    0.0000 O   0  0  0  0  0  0  0  0  0  0  0  0
    1.8322   -6.6789    0.0000 N   0  0  0  0  0  0  0  0  0  0  0  0
    0.7920   -5.5981    0.0000 C   0  0  0  0  0  0  0  0  0  0  0  0
   -0.0917   -6.8101    0.0000 C   0  0  0  0  0  0  0  0  0  0  0  0
   -1.3367   -7.6467    0.0000 O   0  0  0  0  0  0  0  0  0  0  0  0
    0.3443   -8.2453    0.0000 C   0  0  0  0  0  0  0  0  0  0  0  0
    0.1843   -4.2267    0.0000 C   0  0  0  0  0  0  0  0  0  0  0  0
   -1.3014   -4.4330    0.0000 O   0  0  0  0  0  0  0  0  0  0  0  0
    1.0681   -3.0147    0.0000 N   0  0  0  0  0  0  0  0  0  0  0  0
    0.4603   -1.6433    0.0000 C   0  0  0  0  0  0  0  0  0  0  0  0
   -0.4985   -2.7968    0.0000 C   0  0  0  0  0  0  0  0  0  0  0  0
   -1.6584   -3.7480    0.0000 C   0  0  0  0  0  0  0  0  0  0  0  0
   -2.9773   -4.4625    0.0000 C   0  0  0  0  0  0  0  0  0  0  0  0
   -4.4075   -4.9145    0.0000 C   0  0  0  0  0  0  0  0  0  0  0  0
   -5.8975   -5.0877    0.0000 C   0  0  0  0  0  0  0  0  0  0  0  0
   -7.3933   -4.9757    0.0000 C   0  0  0  0  0  0  0  0  0  0  0  0
   -8.8409   -4.5827    0.0000 C   0  0  0  0  0  0  0  0  0  0  0  0
    1.9590   -1.7078    0.0000 C   0  0  0  0  0  0  0  0  0  0  0  0
    1.1836   -0.3292    0.0000 C   0  0  0  0  0  0  0  0  0  0  0  0
    2.6228   -0.7520    0.0000 O   0  0  0  0  0  0  0  0  0  0  0  0
    1.6450    1.0981    0.0000 N   0  0  0  0  0  0  0  0  0  0  0  0
    1.8281    2.5869    0.0000 C   0  0  0  0  0  0  0  0  0  0  0  0
    3.1236    3.3428    0.0000 C   0  0  0  0  0  0  0  0  0  0  0  0
    4.4261    2.5988    0.0000 C   0  0  0  0  0  0  0  0  0  0  0  0
    5.7217    3.3548    0.0000 C   0  0  0  0  0  0  0  0  0  0  0  0
    5.3956    1.4542    0.0000 C   0  0  0  0  0  0  0  0  0  0  0  0
    1.7260    4.0834    0.0000 C   0  0  0  0  0  0  0  0  0  0  0  0
    3.1653    4.5058    0.0000 O   0  0  0  0  0  0  0  0  0  0  0  0
    1.3426    5.5335    0.0000 N   0  0  0  0  0  0  0  0  0  0  0  0
    0.6917    6.8849    0.0000 C   0  0  0  0  0  0  0  0  0  0  0  0
    1.3728    8.2214    0.0000 C   0  0  0  0  0  0  0  0  0  0  0  0
    2.8708    8.2996    0.0000 C   0  0  0  0  0  0  0  0  0  0  0  0
    3.5520    9.6361    0.0000 C   0  0  0  0  0  0  0  0  0  0  0  0
    5.0499    9.7143    0.0000 O   0  0  0  0  0  0  0  0  0  0  0  0
    2.4550   10.6592    0.0000 O   0  0  0  0  0  0  0  0  0  0  0  0
   -0.2033    8.0887    0.0000 C   0  0  0  0  0  0  0  0  0  0  0  0
    0.7792    9.2222    0.0000 O   0  0  0  0  0  0  0  0  0  0  0  0
   -1.3098    9.1014    0.0000 N   0  0  0  0  0  0  0  0  0  0  0  0
   -2.5881    9.8863    0.0000 C   0  0  0  0  0  0  0  0  0  0  0  0
   -2.7375   11.3789    0.0000 C   0  0  0  0  0  0  0  0  0  0  0  0
   -1.5197   12.2546    0.0000 C   0  0  0  0  0  0  0  0  0  0  0  0
   -1.6692   13.7471    0.0000 N   0  0  0  0  0  0  0  0  0  0  0  0
   -0.1524   11.6378    0.0000 O   0  0  0  0  0  0  0  0  0  0  0  0
   -3.9917   10.4152    0.0000 C   0  0  0  0  0  0  0  0  0  0  0  0
   -3.7781   11.8999    0.0000 O   0  0  0  0  0  0  0  0  0  0  0  0
   -5.4701   10.6688    0.0000 N   0  0  0  0  0  0  0  0  0  0  0  0
   -6.9698   10.6381    0.0000 C   0  0  0  0  0  0  0  0  0  0  0  0
   -7.9025   11.8129    0.0000 C   0  0  0  0  0  0  0  0  0  0  0  0
   -8.4366   10.3241    0.0000 C   0  0  0  0  0  0  0  0  0  0  0  0
   -9.0596   11.6887    0.0000 O   0  0  0  0  0  0  0  0  0  0  0  0
   -9.8174    9.7382    0.0000 N   0  0  0  0  0  0  0  0  0  0  0  0
  -11.0624    8.9016    0.0000 C   0  0  0  0  0  0  0  0  0  0  0  0
  -12.4822    9.3857    0.0000 C   0  0  0  0  0  0  0  0  0  0  0  0
  -12.5913   10.8817    0.0000 C   0  0  0  0  0  0  0  0  0  0  0  0
  -13.9819    9.3549    0.0000 C   0  0  0  0  0  0  0  0  0  0  0  0
  -14.7583   10.6383    0.0000 C   0  0  0  0  0  0  0  0  0  0  0  0
  -12.1266    7.8445    0.0000 C   0  0  0  0  0  0  0  0  0  0  0  0
  -13.2801    8.8033    0.0000 O   0  0  0  0  0  0  0  0  0  0  0  0
  -12.9715    6.6050    0.0000 N   0  0  0  0  0  0  0  0  0  0  0  0
  -13.5665    5.2281    0.0000 C   0  0  0  0  0  0  0  0  0  0  0  0
  -15.0226    4.8677    0.0000 C   0  0  0  0  0  0  0  0  0  0  0  0
  -16.0627    5.9486    0.0000 C   0  0  0  0  0  0  0  0  0  0  0  0
  -17.5188    5.5882    0.0000 C   0  0  0  0  0  0  0  0  0  0  0  0
  -18.5589    6.6690    0.0000 N   0  0  0  0  0  0  0  0  0  0  0  0
  -17.9347    4.1470    0.0000 O   0  0  0  0  0  0  0  0  0  0  0  0
  -13.8902    3.7635    0.0000 C   0  0  0  0  0  0  0  0  0  0  0  0
  -15.3902    3.7636    0.0000 O   0  0  0  0  0  0  0  0  0  0  0  0
  -13.9309    2.2640    0.0000 N   0  0  0  0  0  0  0  0  0  0  0  0
  -13.6871    0.7840    0.0000 C   0  0  0  0  0  0  0  0  0  0  0  0
  -13.1675   -0.6232    0.0000 C   0  0  0  0  0  0  0  0  0  0  0  0
  -12.3911   -1.9066    0.0000 C   0  0  0  0  0  0  0  0  0  0  0  0
  -11.3858   -3.0199    0.0000 C   0  0  0  0  0  0  0  0  0  0  0  0
  -10.1880   -3.9228    0.0000 C   0  0  0  0  0  0  0  0  0  0  0  0
  -15.1215    1.2227    0.0000 C   0  0  0  0  0  0  0  0  0  0  0  0
  -14.7172   -0.3064    0.0000 C   0  0  0  0  0  0  0  0  0  0  0  0
  -14.6485   -1.8048    0.0000 O   0  0  0  0  0  0  0  0  0  0  0  0
  -16.1765    0.0405    0.0000 N   0  0  0  0  0  0  0  0  0  0  0  0
  -17.2066   -1.0499    0.0000 C   0  0  0  0  0  0  0  0  0  0  0  0
  -17.8016   -2.4268    0.0000 C   0  0  0  0  0  0  0  0  0  0  0  0
  -17.8899   -3.9242    0.0000 O   0  0  0  0  0  0  0  0  0  0  0  0
  -19.2594   -2.7803    0.0000 C   0  0  0  0  0  0  0  0  0  0  0  0
  -18.6659   -0.7030    0.0000 C   0  0  0  0  0  0  0  0  0  0  0  0
  -19.0952    0.7343    0.0000 O   0  0  0  0  0  0  0  0  0  0  0  0
  -19.6960   -1.7933    0.0000 N   0  0  0  0  0  0  0  0  0  0  0  0
  -21.1554   -1.4464    0.0000 C   0  0  0  0  0  0  0  0  0  0  0  0
  -22.4080   -0.6213    0.0000 C   0  0  0  0  0  0  0  0  0  0  0  0
  -22.3198    0.8761    0.0000 C   0  0  0  0  0  0  0  0  0  0  0  0
  -22.1855   -2.5368    0.0000 C   0  0  0  0  0  0  0  0  0  0  0  0
  -21.7562   -3.9741    0.0000 O   0  0  0  0  0  0  0  0  0  0  0  0
  -23.6448   -2.1899    0.0000 N   0  0  0  0  0  0  0  0  0  0  0  0
  -24.6749   -3.2803    0.0000 C   0  0  0  0  0  0  0  0  0  0  0  0
  -25.2699   -4.6572    0.0000 C   0  0  0  0  0  0  0  0  0  0  0  0
  -26.7599   -4.8303    0.0000 C   0  0  0  0  0  0  0  0  0  0  0  0
  -27.3550   -6.2073    0.0000 C   0  0  0  0  0  0  0  0  0  0  0  0
  -28.8449   -6.3804    0.0000 N   0  0  0  0  0  0  0  0  0  0  0  0
  -29.4400   -7.7573    0.0000 C   0  0  0  0  0  0  0  0  0  0  0  0
  -30.9399   -7.7475    0.0000 N   0  0  0  0  0  0  0  0  0  0  0  0
  -28.5450   -8.9611    0.0000 N   0  0  0  0  0  0  0  0  0  0  0  0
  -26.1342   -2.9334    0.0000 C   0  0  0  0  0  0  0  0  0  0  0  0
  -26.5635   -1.4961    0.0000 O   0  0  0  0  0  0  0  0  0  0  0  0
  -27.1643   -4.0237    0.0000 N   0  0  0  0  0  0  0  0  0  0  0  0
  -28.6237   -3.6768    0.0000 C   0  0  0  0  0  0  0  0  0  0  0  0
  -29.8763   -2.8517    0.0000 C   0  0  0  0  0  0  0  0  0  0  0  0
  -29.7881   -1.3543    0.0000 C   0  0  0  0  0  0  0  0  0  0  0  0
  -31.0408   -0.5292    0.0000 C   0  0  0  0  0  0  0  0  0  0  0  0
  -30.9526    0.9682    0.0000 O   0  0  0  0  0  0  0  0  0  0  0  0
  -32.3817   -1.2015    0.0000 O   0  0  0  0  0  0  0  0  0  0  0  0
  -29.6538   -4.7672    0.0000 C   0  0  0  0  0  0  0  0  0  0  0  0
  -29.5851   -6.2656    0.0000 O   0  0  0  0  0  0  0  0  0  0  0  0
  -31.1131   -4.4203    0.0000 N   0  0  0  0  0  0  0  0  0  0  0  0
  -32.1432   -5.5107    0.0000 C   0  0  0  0  0  0  0  0  0  0  0  0
  -32.7382   -6.8876    0.0000 C   0  0  0  0  0  0  0  0  0  0  0  0
  -34.2282   -7.0607    0.0000 C   0  0  0  0  0  0  0  0  0  0  0  0
  -34.8232   -8.4377    0.0000 C   0  0  0  0  0  0  0  0  0  0  0  0
  -36.3132   -8.6108    0.0000 N   0  0  0  0  0  0  0  0  0  0  0  0
  -33.9283   -9.6414    0.0000 O   0  0  0  0  0  0  0  0  0  0  0  0
  -33.6025   -5.1638    0.0000 C   0  0  0  0  0  0  0  0  0  0  0  0
  -34.7578   -6.1204    0.0000 O   0  0  0  0  0  0  0  0  0  0  0  0
  -34.0318   -3.7265    0.0000 O   0  0  0  0  0  0  0  0  0  0  0  0
    5.4770    8.7068    0.0000 H   0  0  0  0  0  0  0  0  0  0  0  0
    2.6445    9.5707    0.0000 H   0  0  0  0  0  0  0  0  0  0  0  0
    0.9006   11.5889    0.0000 H   0  0  0  0  0  0  0  0  0  0  0  0
    6.7688   12.6673    0.0000 H   0  0  0  0  0  0  0  0  0  0  0  0
    6.7833   19.8306    0.0000 H   0  0  0  0  0  0  0  0  0  0  0  0
    1.5900   19.6583    0.0000 H   0  0  0  0  0  0  0  0  0  0  0  0
    1.6895   16.6599    0.0000 H   0  0  0  0  0  0  0  0  0  0  0  0
    2.8137   21.9501    0.0000 H   0  0  0  0  0  0  0  0  0  0  0  0
    4.4354   12.2486    0.0000 H   0  0  0  0  0  0  0  0  0  0  0  0
    7.4431   10.8922    0.0000 H   0  0  0  0  0  0  0  0  0  0  0  0
    9.5292   15.4193    0.0000 H   0  0  0  0  0  0  0  0  0  0  0  0
   10.9022   13.2136    0.0000 H   0  0  0  0  0  0  0  0  0  0  0  0
    7.9732    7.9864    0.0000 H   0  0  0  0  0  0  0  0  0  0  0  0
    9.2375   11.1593    0.0000 H   0  0  0  0  0  0  0  0  0  0  0  0
   11.0902   10.6245    0.0000 H   0  0  0  0  0  0  0  0  0  0  0  0
    9.6403    7.8705    0.0000 H   0  0  0  0  0  0  0  0  0  0  0  0
   11.4931    7.3357    0.0000 H   0  0  0  0  0  0  0  0  0  0  0  0
   12.9656    6.5455    0.0000 H   0  0  0  0  0  0  0  0  0  0  0  0
   14.9397    6.8505    0.0000 H   0  0  0  0  0  0  0  0  0  0  0  0
   14.1278   11.2149    0.0000 H   0  0  0  0  0  0  0  0  0  0  0  0
   15.6312   10.2536    0.0000 H   0  0  0  0  0  0  0  0  0  0  0  0
   12.1306   11.2491    0.0000 H   0  0  0  0  0  0  0  0  0  0  0  0
   16.0531    5.6043    0.0000 H   0  0  0  0  0  0  0  0  0  0  0  0
   18.0124    5.2157    0.0000 H   0  0  0  0  0  0  0  0  0  0  0  0
   18.7423    9.5946    0.0000 H   0  0  0  0  0  0  0  0  0  0  0  0
   19.8261    8.1770    0.0000 H   0  0  0  0  0  0  0  0  0  0  0  0
   15.4878    8.9727    0.0000 H   0  0  0  0  0  0  0  0  0  0  0  0
   16.2269    7.5156    0.0000 H   0  0  0  0  0  0  0  0  0  0  0  0
   18.0202   12.6430    0.0000 H   0  0  0  0  0  0  0  0  0  0  0  0
   18.6325    3.6638    0.0000 H   0  0  0  0  0  0  0  0  0  0  0  0
   20.1996    2.7454    0.0000 H   0  0  0  0  0  0  0  0  0  0  0  0
   22.5242    6.4938    0.0000 H   0  0  0  0  0  0  0  0  0  0  0  0
   23.1072    4.9674    0.0000 H   0  0  0  0  0  0  0  0  0  0  0  0
   19.2533    7.0225    0.0000 H   0  0  0  0  0  0  0  0  0  0  0  0
   19.4496    5.4005    0.0000 H   0  0  0  0  0  0  0  0  0  0  0  0
   22.8883    9.6053    0.0000 H   0  0  0  0  0  0  0  0  0  0  0  0
   20.3926    0.9582    0.0000 H   0  0  0  0  0  0  0  0  0  0  0  0
   21.6438   -0.5988    0.0000 H   0  0  0  0  0  0  0  0  0  0  0  0
   25.1103    2.1284    0.0000 H   0  0  0  0  0  0  0  0  0  0  0  0
   24.8127    0.3690    0.0000 H   0  0  0  0  0  0  0  0  0  0  0  0
   21.7544    2.3107    0.0000 H   0  0  0  0  0  0  0  0  0  0  0  0
   23.7908    5.5108    0.0000 H   0  0  0  0  0  0  0  0  0  0  0  0
   25.2936    4.8698    0.0000 H   0  0  0  0  0  0  0  0  0  0  0  0
   25.2127    3.0872    0.0000 H   0  0  0  0  0  0  0  0  0  0  0  0
   22.5407    5.3432    0.0000 H   0  0  0  0  0  0  0  0  0  0  0  0
   20.9774    4.8682    0.0000 H   0  0  0  0  0  0  0  0  0  0  0  0
   21.3953    2.5913    0.0000 H   0  0  0  0  0  0  0  0  0  0  0  0
   21.1213   -2.1862    0.0000 H   0  0  0  0  0  0  0  0  0  0  0  0
   21.7644   -4.0773    0.0000 H   0  0  0  0  0  0  0  0  0  0  0  0
   25.9216   -2.5199    0.0000 H   0  0  0  0  0  0  0  0  0  0  0  0
   25.0732   -4.2517    0.0000 H   0  0  0  0  0  0  0  0  0  0  0  0
   25.6085   -0.5471    0.0000 H   0  0  0  0  0  0  0  0  0  0  0  0
   23.7557   -0.0124    0.0000 H   0  0  0  0  0  0  0  0  0  0  0  0
   22.8686   -1.3367    0.0000 H   0  0  0  0  0  0  0  0  0  0  0  0
   20.7305   -5.3902    0.0000 H   0  0  0  0  0  0  0  0  0  0  0  0
   20.6881   -7.3873    0.0000 H   0  0  0  0  0  0  0  0  0  0  0  0
   24.2242   -5.8065    0.0000 H   0  0  0  0  0  0  0  0  0  0  0  0
   25.1272   -7.3456    0.0000 H   0  0  0  0  0  0  0  0  0  0  0  0
   23.9194   -8.6592    0.0000 H   0  0  0  0  0  0  0  0  0  0  0  0
   19.2674   -8.2674    0.0000 H   0  0  0  0  0  0  0  0  0  0  0  0
   18.5446  -10.1295    0.0000 H   0  0  0  0  0  0  0  0  0  0  0  0
   22.7302  -11.6086    0.0000 H   0  0  0  0  0  0  0  0  0  0  0  0
   20.9672  -12.3899    0.0000 H   0  0  0  0  0  0  0  0  0  0  0  0
   22.6828   -8.2955    0.0000 H   0  0  0  0  0  0  0  0  0  0  0  0
   21.1196   -8.7705    0.0000 H   0  0  0  0  0  0  0  0  0  0  0  0
   25.8577  -11.4268    0.0000 H   0  0  0  0  0  0  0  0  0  0  0  0
   16.9086  -10.4706    0.0000 H   0  0  0  0  0  0  0  0  0  0  0  0
   15.7319  -11.8544    0.0000 H   0  0  0  0  0  0  0  0  0  0  0  0
   19.2761  -13.0181    0.0000 H   0  0  0  0  0  0  0  0  0  0  0  0
   19.1867  -14.6718    0.0000 H   0  0  0  0  0  0  0  0  0  0  0  0
   17.5025  -15.1224    0.0000 H   0  0  0  0  0  0  0  0  0  0  0  0
   13.9385  -11.7342    0.0000 H   0  0  0  0  0  0  0  0  0  0  0  0
   12.1878  -12.6960    0.0000 H   0  0  0  0  0  0  0  0  0  0  0  0
   14.4433  -16.5195    0.0000 H   0  0  0  0  0  0  0  0  0  0  0  0
   12.7019  -16.1303    0.0000 H   0  0  0  0  0  0  0  0  0  0  0  0
   14.9140  -12.2307    0.0000 H   0  0  0  0  0  0  0  0  0  0  0  0
   18.5673  -12.6257    0.0000 H   0  0  0  0  0  0  0  0  0  0  0  0
   19.0232  -15.6908    0.0000 H   0  0  0  0  0  0  0  0  0  0  0  0
   10.7153  -11.9057    0.0000 H   0  0  0  0  0  0  0  0  0  0  0  0
    8.9244  -12.2095    0.0000 H   0  0  0  0  0  0  0  0  0  0  0  0
    9.5530  -16.5752    0.0000 H   0  0  0  0  0  0  0  0  0  0  0  0
    8.1254  -15.7806    0.0000 H   0  0  0  0  0  0  0  0  0  0  0  0
   13.0112  -16.9494    0.0000 H   0  0  0  0  0  0  0  0  0  0  0  0
   10.6664  -17.8214    0.0000 H   0  0  0  0  0  0  0  0  0  0  0  0
    7.6278  -10.9645    0.0000 H   0  0  0  0  0  0  0  0  0  0  0  0
    5.6684  -10.5760    0.0000 H   0  0  0  0  0  0  0  0  0  0  0  0
    4.7660  -14.8934    0.0000 H   0  0  0  0  0  0  0  0  0  0  0  0
    3.8630  -13.3543    0.0000 H   0  0  0  0  0  0  0  0  0  0  0  0
    7.4539  -12.8759    0.0000 H   0  0  0  0  0  0  0  0  0  0  0  0
    7.9510  -16.6363    0.0000 H   0  0  0  0  0  0  0  0  0  0  0  0
    6.3877  -17.1113    0.0000 H   0  0  0  0  0  0  0  0  0  0  0  0
    5.3038  -15.6937    0.0000 H   0  0  0  0  0  0  0  0  0  0  0  0
    8.8008  -15.7043    0.0000 H   0  0  0  0  0  0  0  0  0  0  0  0
    9.6931  -14.3356    0.0000 H   0  0  0  0  0  0  0  0  0  0  0  0
    7.9094  -12.8600    0.0000 H   0  0  0  0  0  0  0  0  0  0  0  0
    5.0484   -9.0241    0.0000 H   0  0  0  0  0  0  0  0  0  0  0  0
    3.3401   -7.9889    0.0000 H   0  0  0  0  0  0  0  0  0  0  0  0
    1.1566  -11.8540    0.0000 H   0  0  0  0  0  0  0  0  0  0  0  0
    0.6933   -9.9821    0.0000 H   0  0  0  0  0  0  0  0  0  0  0  0
    2.6646  -13.1640    0.0000 H   0  0  0  0  0  0  0  0  0  0  0  0
    3.2882   -6.3185    0.0000 H   0  0  0  0  0  0  0  0  0  0  0  0
    2.0370   -4.7614    0.0000 H   0  0  0  0  0  0  0  0  0  0  0  0
   -1.1319   -5.7293    0.0000 H   0  0  0  0  0  0  0  0  0  0  0  0
   -1.4179   -9.1445    0.0000 H   0  0  0  0  0  0  0  0  0  0  0  0
   -0.2225   -9.4717    0.0000 H   0  0  0  0  0  0  0  0  0  0  0  0
    1.5561   -9.2622    0.0000 H   0  0  0  0  0  0  0  0  0  0  0  0
    1.9368   -7.7144    0.0000 H   0  0  0  0  0  0  0  0  0  0  0  0
    2.5290   -3.3547    0.0000 H   0  0  0  0  0  0  0  0  0  0  0  0
    0.8335   -3.4865    0.0000 H   0  0  0  0  0  0  0  0  0  0  0  0
   -0.3420   -4.2886    0.0000 H   0  0  0  0  0  0  0  0  0  0  0  0
   -0.6030   -4.8140    0.0000 H   0  0  0  0  0  0  0  0  0  0  0  0
   -1.6038   -5.2470    0.0000 H   0  0  0  0  0  0  0  0  0  0  0  0
   -1.7514   -5.3270    0.0000 H   0  0  0  0  0  0  0  0  0  0  0  0
   -3.0250   -5.9618    0.0000 H   0  0  0  0  0  0  0  0  0  0  0  0
   -3.5069   -6.1141    0.0000 H   0  0  0  0  0  0  0  0  0  0  0  0
   -4.7382   -6.3776    0.0000 H   0  0  0  0  0  0  0  0  0  0  0  0
   -5.2402   -6.4360    0.0000 H   0  0  0  0  0  0  0  0  0  0  0  0
   -6.4991   -6.4617    0.0000 H   0  0  0  0  0  0  0  0  0  0  0  0
   -7.0030   -6.4240    0.0000 H   0  0  0  0  0  0  0  0  0  0  0  0
   -8.3883   -6.0982    0.0000 H   0  0  0  0  0  0  0  0  0  0  0  0
   -9.3698   -5.9863    0.0000 H   0  0  0  0  0  0  0  0  0  0  0  0
    2.8094   -2.9434    0.0000 H   0  0  0  0  0  0  0  0  0  0  0  0
    3.4337   -1.4335    0.0000 H   0  0  0  0  0  0  0  0  0  0  0  0
    2.1279   -0.2173    0.0000 H   0  0  0  0  0  0  0  0  0  0  0  0
    3.0593    0.5982    0.0000 H   0  0  0  0  0  0  0  0  0  0  0  0
    2.9708    1.6152    0.0000 H   0  0  0  0  0  0  0  0  0  0  0  0
    4.0825    4.4963    0.0000 H   0  0  0  0  0  0  0  0  0  0  0  0
    2.4599    4.6880    0.0000 H   0  0  0  0  0  0  0  0  0  0  0  0
    3.7749    1.2476    0.0000 H   0  0  0  0  0  0  0  0  0  0  0  0
    7.1051    2.7752    0.0000 H   0  0  0  0  0  0  0  0  0  0  0  0
    6.6805    4.5083    0.0000 H   0  0  0  0  0  0  0  0  0  0  0  0
    4.8990    4.6091    0.0000 H   0  0  0  0  0  0  0  0  0  0  0  0
    6.8932    1.5396    0.0000 H   0  0  0  0  0  0  0  0  0  0  0  0
    5.9151    0.0471    0.0000 H   0  0  0  0  0  0  0  0  0  0  0  0
    4.1000    0.6983    0.0000 H   0  0  0  0  0  0  0  0  0  0  0  0
    2.8026    5.8777    0.0000 H   0  0  0  0  0  0  0  0  0  0  0  0
    2.1783    6.6854    0.0000 H   0  0  0  0  0  0  0  0  0  0  0  0
    1.7360    9.6767    0.0000 H   0  0  0  0  0  0  0  0  0  0  0  0
    0.0872    8.9942    0.0000 H   0  0  0  0  0  0  0  0  0  0  0  0
    4.3052    7.8609    0.0000 H   0  0  0  0  0  0  0  0  0  0  0  0
    3.0535    6.8108    0.0000 H   0  0  0  0  0  0  0  0  0  0  0  0
    3.4164   12.2306    0.0000 H   0  0  0  0  0  0  0  0  0  0  0  0
   -0.4070   10.2992    0.0000 H   0  0  0  0  0  0  0  0  0  0  0  0
   -1.3171   10.6831    0.0000 H   0  0  0  0  0  0  0  0  0  0  0  0
   -3.2189   12.7995    0.0000 H   0  0  0  0  0  0  0  0  0  0  0  0
   -4.2369   11.3340    0.0000 H   0  0  0  0  0  0  0  0  0  0  0  0
   -0.4514   14.6228    0.0000 H   0  0  0  0  0  0  0  0  0  0  0  0
   -3.0365   14.3639    0.0000 H   0  0  0  0  0  0  0  0  0  0  0  0
   -5.3582   12.1647    0.0000 H   0  0  0  0  0  0  0  0  0  0  0  0
   -6.3314   11.9955    0.0000 H   0  0  0  0  0  0  0  0  0  0  0  0
   -7.3514   13.2080    0.0000 H   0  0  0  0  0  0  0  0  0  0  0  0
   -9.0755   12.7478    0.0000 H   0  0  0  0  0  0  0  0  0  0  0  0
   -9.1395   10.9645    0.0000 H   0  0  0  0  0  0  0  0  0  0  0  0
  -10.3659   11.1344    0.0000 H   0  0  0  0  0  0  0  0  0  0  0  0
  -11.0765   10.4015    0.0000 H   0  0  0  0  0  0  0  0  0  0  0  0
  -13.0642    8.0032    0.0000 H   0  0  0  0  0  0  0  0  0  0  0  0
  -14.1247   11.5330    0.0000 H   0  0  0  0  0  0  0  0  0  0  0  0
  -12.5427   12.3395    0.0000 H   0  0  0  0  0  0  0  0  0  0  0  0
  -11.3252   11.2499    0.0000 H   0  0  0  0  0  0  0  0  0  0  0  0
  -15.3806    8.8131    0.0000 H   0  0  0  0  0  0  0  0  0  0  0  0
  -13.8728    7.8589    0.0000 H   0  0  0  0  0  0  0  0  0  0  0  0
  -16.2580   10.6076    0.0000 H   0  0  0  0  0  0  0  0  0  0  0  0
  -15.0490   12.1099    0.0000 H   0  0  0  0  0  0  0  0  0  0  0  0
  -13.5323   11.5025    0.0000 H   0  0  0  0  0  0  0  0  0  0  0  0
  -14.2856    7.3283    0.0000 H   0  0  0  0  0  0  0  0  0  0  0  0
  -14.3893    6.4824    0.0000 H   0  0  0  0  0  0  0  0  0  0  0  0
  -16.3603    4.1891    0.0000 H   0  0  0  0  0  0  0  0  0  0  0  0
  -14.7648    3.3901    0.0000 H   0  0  0  0  0  0  0  0  0  0  0  0
  -16.6705    7.3199    0.0000 H   0  0  0  0  0  0  0  0  0  0  0  0
  -15.0572    7.0616    0.0000 H   0  0  0  0  0  0  0  0  0  0  0  0
  -20.0150    6.3086    0.0000 H   0  0  0  0  0  0  0  0  0  0  0  0
  -18.1430    8.1102    0.0000 H   0  0  0  0  0  0  0  0  0  0  0  0
  -15.4287    2.3451    0.0000 H   0  0  0  0  0  0  0  0  0  0  0  0
  -13.9727   -1.8888    0.0000 H   0  0  0  0  0  0  0  0  0  0  0  0
  -14.6533   -0.8295    0.0000 H   0  0  0  0  0  0  0  0  0  0  0  0
  -13.1081   -3.2241    0.0000 H   0  0  0  0  0  0  0  0  0  0  0  0
  -13.8110   -2.3903    0.0000 H   0  0  0  0  0  0  0  0  0  0  0  0
  -11.6629   -4.4941    0.0000 H   0  0  0  0  0  0  0  0  0  0  0  0
  -12.7694   -3.5992    0.0000 H   0  0  0  0  0  0  0  0  0  0  0  0
  -10.9729   -5.2010    0.0000 H   0  0  0  0  0  0  0  0  0  0  0  0
  -16.4335    0.4958    0.0000 H   0  0  0  0  0  0  0  0  0  0  0  0
  -16.3193    2.1256    0.0000 H   0  0  0  0  0  0  0  0  0  0  0  0
  -14.7839    2.6842    0.0000 H   0  0  0  0  0  0  0  0  0  0  0  0
  -16.7777    1.4147    0.0000 H   0  0  0  0  0  0  0  0  0  0  0  0
  -15.9539   -1.8750    0.0000 H   0  0  0  0  0  0  0  0  0  0  0  0
  -16.3423   -2.7737    0.0000 H   0  0  0  0  0  0  0  0  0  0  0  0
  -16.6372   -4.7493    0.0000 H   0  0  0  0  0  0  0  0  0  0  0  0
  -19.8867   -3.9769    0.0000 H   0  0  0  0  0  0  0  0  0  0  0  0
  -20.7510   -2.2530    0.0000 H   0  0  0  0  0  0  0  0  0  0  0  0
  -19.9169   -1.2365    0.0000 H   0  0  0  0  0  0  0  0  0  0  0  0
  -19.4452   -3.2722    0.0000 H   0  0  0  0  0  0  0  0  0  0  0  0
  -20.3969   -0.1523    0.0000 H   0  0  0  0  0  0  0  0  0  0  0  0
  -23.8142   -0.0991    0.0000 H   0  0  0  0  0  0  0  0  0  0  0  0
  -23.3186   -1.8134    0.0000 H   0  0  0  0  0  0  0  0  0  0  0  0
  -23.5725    1.7012    0.0000 H   0  0  0  0  0  0  0  0  0  0  0  0
  -21.7248    2.2530    0.0000 H   0  0  0  0  0  0  0  0  0  0  0  0
  -20.8291    0.7096    0.0000 H   0  0  0  0  0  0  0  0  0  0  0  0
  -24.2460   -0.8157    0.0000 H   0  0  0  0  0  0  0  0  0  0  0  0
  -23.4222   -4.1054    0.0000 H   0  0  0  0  0  0  0  0  0  0  0  0
  -25.1750   -6.1542    0.0000 H   0  0  0  0  0  0  0  0  0  0  0  0
  -23.8106   -5.0041    0.0000 H   0  0  0  0  0  0  0  0  0  0  0  0
  -28.2192   -4.4834    0.0000 H   0  0  0  0  0  0  0  0  0  0  0  0
  -27.3852   -3.4669    0.0000 H   0  0  0  0  0  0  0  0  0  0  0  0
  -27.4432   -7.7047    0.0000 H   0  0  0  0  0  0  0  0  0  0  0  0
  -25.9488   -6.7295    0.0000 H   0  0  0  0  0  0  0  0  0  0  0  0
  -30.0046   -5.4289    0.0000 H   0  0  0  0  0  0  0  0  0  0  0  0
  -31.5250   -9.3074    0.0000 H   0  0  0  0  0  0  0  0  0  0  0  0
  -29.1401  -10.3380    0.0000 H   0  0  0  0  0  0  0  0  0  0  0  0
  -27.0551   -8.7880    0.0000 H   0  0  0  0  0  0  0  0  0  0  0  0
  -27.0956   -5.5222    0.0000 H   0  0  0  0  0  0  0  0  0  0  0  0
  -27.8652   -2.3827    0.0000 H   0  0  0  0  0  0  0  0  0  0  0  0
  -31.2825   -2.3295    0.0000 H   0  0  0  0  0  0  0  0  0  0  0  0
  -30.7869   -4.0437    0.0000 H   0  0  0  0  0  0  0  0  0  0  0  0
  -29.1931    0.0226    0.0000 H   0  0  0  0  0  0  0  0  0  0  0  0
  -28.2974   -1.5208    0.0000 H   0  0  0  0  0  0  0  0  0  0  0  0
  -33.6344   -0.3764    0.0000 H   0  0  0  0  0  0  0  0  0  0  0  0
  -31.7143   -3.0461    0.0000 H   0  0  0  0  0  0  0  0  0  0  0  0
  -30.8905   -6.3358    0.0000 H   0  0  0  0  0  0  0  0  0  0  0  0
  -32.8265   -8.3850    0.0000 H   0  0  0  0  0  0  0  0  0  0  0  0
  -31.2475   -7.0540    0.0000 H   0  0  0  0  0  0  0  0  0  0  0  0
  -35.6875   -6.7138    0.0000 H   0  0  0  0  0  0  0  0  0  0  0  0
  -34.6826   -5.6312    0.0000 H   0  0  0  0  0  0  0  0  0  0  0  0
  -36.9083   -9.9877    0.0000 H   0  0  0  0  0  0  0  0  0  0  0  0
  -37.2082   -7.4070    0.0000 H   0  0  0  0  0  0  0  0  0  0  0  0
  -35.4911   -3.3796    0.0000 H   0  0  0  0  0  0  0  0  0  0  0  0
  1  2  1  0
  2  3  1  0
  3  4  2  0
  4  5  1  0
  5  6  2  0
  6  7  1  0
  7  8  2  0
  7  9  1  0
  9 10  1  0
 10 11  1  0
 11 12  2  0
  9 13  1  0
 13 14  1  0
 14 15  2  0
 15 16  1  0
 16 17  2  0
 17 18  1  0
 16 19  1  0
 14 20  1  0
 20 21  1  0
 21 22  2  0
 22 23  1  0
 23 24  2  0
 24 25  1  0
 25 26  2  0
 25 27  1  0
  1 28  2  0
  1 29  1  0
 29 30  1  0
 30 31  1  0
 31 32  1  0
 32 33  2  0
 32 34  1  0
 34 35  1  0
 35 36  1  0
 36 37  1  0
 35 38  1  0
 38 39  2  0
 38 40  1  0
 40 41  1  0
 41 42  1  0
 42 43  1  0
 43 44  1  0
 44 45  2  0
 44 46  1  0
 41 47  1  0
 47 48  2  0
 47 49  1  0
 49 50  1  0
 50 51  1  0
 51 52  1  0
 52 53  1  0
 53 54  2  0
 53 55  1  0
 50 56  1  0
 56 57  2  0
 56 58  1  0
 58 59  1  0
 59 60  1  0
 60 61  1  0
 61 62  1  0
 61 63  1  0
 59 64  1  0
 64 65  2  0
 64 66  1  0
 66 67  1  0
 67 68  1  0
 68 69  1  0
 67 70  1  0
 70 71  2  0
 70 72  1  0
 72 73  1  0
 73 74  1  0
 73 75  1  0
 75 76  2  0
 75 77  1  0
 77 78  1  0
 78 79  1  0
 79 80  1  0
 80 81  1  0
 81 82  2  0
 81 83  1  0
 78 84  1  0
 84 85  2  0
 84 86  1  0
 86 87  1  0
 87 88  1  0
 87 89  1  0
 89 90  2  0
 89 91  1  0
 91 92  1  0
 92 93  1  0
 93 94  1  0
 94 95  2  0
 95 96  1  0
 96 97  1  0
 97 98  2  0
 92 99  1  0
 99100  2  0
 99101  1  0
101102  1  0
102103  1  0
103104  1  0
104105  1  0
104106  2  0
102107  1  0
107108  2  0
107109  1  0
109110  1  0
110111  1  0
111112  1  0
112113  1  0
112114  1  0
110115  1  0
115116  2  0
115117  1  0
117118  1  0
118119  1  0
119120  1  0
118121  1  0
121122  2  0
121123  1  0
123124  1  0
124125  1  0
125126  1  0
125127  1  0
124128  1  0
128129  2  0
128130  1  0
131130  1  6
131132  1  0
132133  1  0
133134  1  0
134135  1  0
135136  1  0
136137  1  0
137138  1  0
131139  1  0
131140  1  0
140141  2  0
140142  1  0
142143  1  0
143144  1  0
144145  1  0
145146  1  0
145147  1  0
143148  1  0
148149  2  0
148150  1  0
150151  1  0
151152  1  0
152153  1  0
153154  1  0
154155  2  0
154156  1  0
151157  1  0
157158  2  0
157159  1  0
159160  1  0
160161  1  0
161162  1  0
162163  1  0
162164  2  0
160165  1  0
165166  2  0
165167  1  0
167168  1  0
168169  1  0
168170  1  0
170171  2  0
170172  1  0
172173  1  0
173174  1  0
174175  1  0
174176  1  0
176177  1  0
173178  1  0
178179  2  0
178180  1  0
180181  1  0
181182  1  0
182183  1  0
183184  1  0
184185  1  0
184186  2  0
181187  1  0
187188  2  0
187189  1  0
189190  1  0
190191  1  0
191192  1  0
192193  1  0
193194  1  0
190195  1  0
190196  1  1
196197  2  0
196198  1  0
198199  1  0
199200  1  0
200201  1  0
200202  1  0
199203  1  0
203204  2  0
203205  1  0
205206  1  0
206207  1  0
207208  1  0
206209  1  0
209210  2  0
209211  1  0
211212  1  0
212213  1  0
213214  1  0
214215  1  0
215216  1  0
216217  1  0
217218  2  3
217219  1  0
212220  1  0
220221  2  0
220222  1  0
222223  1  0
223224  1  0
224225  1  0
225226  1  0
226227  2  0
226228  1  0
223229  1  0
229230  2  0
229231  1  0
231232  1  0
232233  1  0
233234  1  0
234235  1  0
235236  1  0
235237  2  0
232238  1  0
238239  2  0
238240  1  0
  8  3  1  0
 98 94  1  0
 11  6  1  0
138194  2  0
 18 13  2  0
 22  9  1  0
 26 21  1  0
  2241  1  0
  4242  1  0
  5243  1  0
  8244  1  0
 15245  1  0
 17246  1  0
 18247  1  0
 19248  1  0
 23249  1  0
 24250  1  0
 26251  1  0
 27252  1  0
 29253  1  0
 30254  1  0
 30255  1  0
 31256  1  0
 31257  1  0
 34258  1  0
 35259  1  1
 36260  1  0
 36261  1  0
 37262  1  0
 40263  1  0
 41264  1  1
 42265  1  0
 42266  1  0
 43267  1  0
 43268  1  0
 46269  1  0
 49270  1  0
 50271  1  1
 51272  1  0
 51273  1  0
 52274  1  0
 52275  1  0
 55276  1  0
 58277  1  0
 59278  1  1
 60279  1  0
 60280  1  0
 61281  1  0
 62282  1  0
 62283  1  0
 62284  1  0
 63285  1  0
 63286  1  0
 63287  1  0
 66288  1  0
 67289  1  1
 68290  1  0
 68291  1  0
 69292  1  0
 69293  1  0
 69294  1  0
 72295  1  0
 73296  1  1
 74297  1  0
 74298  1  0
 74299  1  0
 77300  1  0
 78301  1  1
 79302  1  0
 79303  1  0
 80304  1  0
 80305  1  0
 83306  1  0
 86307  1  0
 87308  1  1
 88309  1  0
 88310  1  0
 88311  1  0
 91312  1  0
 92313  1  1
 93314  1  0
 93315  1  0
 95316  1  0
 96317  1  0
 97318  1  0
101319  1  0
102320  1  1
103321  1  0
103322  1  0
105323  1  0
105324  1  0
109325  1  0
110326  1  1
111327  1  0
111328  1  0
112329  1  0
113330  1  0
113331  1  0
113332  1  0
114333  1  0
114334  1  0
114335  1  0
117336  1  0
118337  1  1
119338  1  0
119339  1  0
120340  1  0
123341  1  0
124342  1  1
125343  1  6
126344  1  0
127345  1  0
127346  1  0
127347  1  0
130348  1  0
132349  1  0
132350  1  0
133351  1  0
133352  1  0
134353  1  0
134354  1  0
135355  1  0
135356  1  0
136357  1  0
136358  1  0
137359  1  0
137360  1  0
138361  1  0
139362  1  0
139363  1  0
139364  1  0
142365  1  0
143366  1  6
144367  1  0
144368  1  0
145369  1  0
146370  1  0
146371  1  0
146372  1  0
147373  1  0
147374  1  0
147375  1  0
150376  1  0
151377  1  6
152378  1  0
152379  1  0
153380  1  0
153381  1  0
156382  1  0
159383  1  0
160384  1  6
161385  1  0
161386  1  0
163387  1  0
163388  1  0
167389  1  0
168390  1  6
169391  1  0
169392  1  0
169393  1  0
172394  1  0
173395  1  6
174396  1  1
175397  1  0
175398  1  0
175399  1  0
176400  1  0
176401  1  0
177402  1  0
177403  1  0
177404  1  0
180405  1  0
181406  1  6
182407  1  0
182408  1  0
183409  1  0
183410  1  0
185411  1  0
185412  1  0
189413  1  0
191414  1  0
191415  1  0
192416  1  0
192417  1  0
193418  1  0
193419  1  0
194420  1  0
195421  1  0
195422  1  0
195423  1  0
198424  1  0
199425  1  1
200426  1  1
201427  1  0
202428  1  0
202429  1  0
202430  1  0
205431  1  0
206432  1  6
207433  1  0
207434  1  0
208435  1  0
208436  1  0
208437  1  0
211438  1  0
212439  1  1
213440  1  0
213441  1  0
214442  1  0
214443  1  0
215444  1  0
215445  1  0
216446  1  0
218447  1  0
219448  1  0
219449  1  0
222450  1  0
223451  1  6
224452  1  0
224453  1  0
225454  1  0
225455  1  0
228456  1  0
231457  1  0
232458  1  1
233459  1  0
233460  1  0
234461  1  0
234462  1  0
236463  1  0
236464  1  0
240465  1  0
M  END
