
     RDKit          2D

300306  0  0  0  0  0  0  0  0999 V2000
   20.2129   -2.9091    0.0000 C   0  0  0  0  0  0  0  0  0  0  0  0
   21.5196   -2.1725    0.0000 N   0  0  0  0  0  0  0  0  0  0  0  0
   22.8109   -2.9358    0.0000 C   0  0  0  0  0  0  0  0  0  0  0  0
   22.7955   -4.4357    0.0000 C   0  0  0  0  0  0  0  0  0  0  0  0
   24.0867   -5.1990    0.0000 C   0  0  0  0  0  0  0  0  0  0  0  0
   25.3934   -4.4624    0.0000 C   0  0  0  0  0  0  0  0  0  0  0  0
   25.4088   -2.9625    0.0000 C   0  0  0  0  0  0  0  0  0  0  0  0
   24.1176   -2.1992    0.0000 C   0  0  0  0  0  0  0  0  0  0  0  0
   26.8401   -2.5137    0.0000 C   0  0  0  0  0  0  0  0  0  0  0  0
   27.7092   -3.7362    0.0000 O   0  0  0  0  0  0  0  0  0  0  0  0
   26.8151   -4.9406    0.0000 C   0  0  0  0  0  0  0  0  0  0  0  0
   27.2640   -6.3718    0.0000 O   0  0  0  0  0  0  0  0  0  0  0  0
   28.3104   -2.2169    0.0000 C   0  0  0  0  0  0  0  0  0  0  0  0
   28.7886   -0.7951    0.0000 C   0  0  0  0  0  0  0  0  0  0  0  0
   30.2590   -0.4984    0.0000 C   0  0  0  0  0  0  0  0  0  0  0  0
   31.2511   -1.6234    0.0000 C   0  0  0  0  0  0  0  0  0  0  0  0
   30.7730   -3.0451    0.0000 C   0  0  0  0  0  0  0  0  0  0  0  0
   29.3026   -3.3419    0.0000 C   0  0  0  0  0  0  0  0  0  0  0  0
   32.7215   -1.3266    0.0000 O   0  0  0  0  0  0  0  0  0  0  0  0
   27.7964    0.3298    0.0000 O   0  0  0  0  0  0  0  0  0  0  0  0
   26.3261    0.0331    0.0000 C   0  0  0  0  0  0  0  0  0  0  0  0
   25.8479   -1.3887    0.0000 C   0  0  0  0  0  0  0  0  0  0  0  0
   24.6007   -1.0220    0.0000 C   0  0  0  0  0  0  0  0  0  0  0  0
   24.0715   -0.4220    0.0000 C   0  0  0  0  0  0  0  0  0  0  0  0
   24.3266    0.3363    0.0000 C   0  0  0  0  0  0  0  0  0  0  0  0
   25.1107    0.4946    0.0000 C   0  0  0  0  0  0  0  0  0  0  0  0
   22.8714    1.9863    0.0000 O   0  0  0  0  0  0  0  0  0  0  0  0
   20.1975   -4.4090    0.0000 S   0  0  0  0  0  0  0  0  0  0  0  0
   18.9217   -2.1457    0.0000 N   0  0  0  0  0  0  0  0  0  0  0  0
   17.6150   -2.8823    0.0000 C   0  0  0  0  0  0  0  0  0  0  0  0
   16.3237   -2.1190    0.0000 C   0  0  0  0  0  0  0  0  0  0  0  0
   15.0171   -2.8556    0.0000 C   0  0  0  0  0  0  0  0  0  0  0  0
   15.2020   -3.6310    0.0000 O   0  0  0  0  0  0  0  0  0  0  0  0
   13.7258   -2.0923    0.0000 N   0  0  0  0  0  0  0  0  0  0  0  0
   12.4191   -2.8289    0.0000 C   0  0  0  0  0  0  0  0  0  0  0  0
   13.3714   -3.9878    0.0000 C   0  0  0  0  0  0  0  0  0  0  0  0
   14.8512   -3.7426    0.0000 C   0  0  0  0  0  0  0  0  0  0  0  0
   15.8036   -4.9015    0.0000 N   0  0  0  0  0  0  0  0  0  0  0  0
   15.7028   -2.5078    0.0000 O   0  0  0  0  0  0  0  0  0  0  0  0
   10.9393   -3.0742    0.0000 C   0  0  0  0  0  0  0  0  0  0  0  0
   10.7673   -4.5643    0.0000 O   0  0  0  0  0  0  0  0  0  0  0  0
    9.9870   -1.9153    0.0000 N   0  0  0  0  0  0  0  0  0  0  0  0
    8.5072   -2.1605    0.0000 C   0  0  0  0  0  0  0  0  0  0  0  0
    9.0057   -3.5753    0.0000 C   0  0  0  0  0  0  0  0  0  0  0  0
   10.4801   -3.8509    0.0000 C   0  0  0  0  0  0  0  0  0  0  0  0
   10.9787   -5.2657    0.0000 C   0  0  0  0  0  0  0  0  0  0  0  0
   12.4085   -5.7190    0.0000 O   0  0  0  0  0  0  0  0  0  0  0  0
   10.0027   -6.4048    0.0000 O   0  0  0  0  0  0  0  0  0  0  0  0
    7.0327   -1.8849    0.0000 C   0  0  0  0  0  0  0  0  0  0  0  0
    6.3614   -3.2263    0.0000 O   0  0  0  0  0  0  0  0  0  0  0  0
    6.5342   -0.4702    0.0000 N   0  0  0  0  0  0  0  0  0  0  0  0
    5.0598   -0.1945    0.0000 C   0  0  0  0  0  0  0  0  0  0  0  0
    5.0443   -1.6944    0.0000 C   0  0  0  0  0  0  0  0  0  0  0  0
    6.3356   -2.4577    0.0000 C   0  0  0  0  0  0  0  0  0  0  0  0
    6.3202   -3.9577    0.0000 C   0  0  0  0  0  0  0  0  0  0  0  0
    7.8101   -2.7334    0.0000 C   0  0  0  0  0  0  0  0  0  0  0  0
    3.7685    0.5688    0.0000 C   0  0  0  0  0  0  0  0  0  0  0  0
    2.6789   -0.4621    0.0000 O   0  0  0  0  0  0  0  0  0  0  0  0
    3.7839    2.0687    0.0000 N   0  0  0  0  0  0  0  0  0  0  0  0
    2.4927    2.8320    0.0000 C   0  0  0  0  0  0  0  0  0  0  0  0
    2.3821    1.3361    0.0000 C   0  0  0  0  0  0  0  0  0  0  0  0
    1.9905   -0.1119    0.0000 C   0  0  0  0  0  0  0  0  0  0  0  0
    1.3319   -1.4595    0.0000 C   0  0  0  0  0  0  0  0  0  0  0  0
    0.4302   -2.6582    0.0000 C   0  0  0  0  0  0  0  0  0  0  0  0
   -0.6821   -3.6646    0.0000 C   0  0  0  0  0  0  0  0  0  0  0  0
   -1.9648   -4.4423    0.0000 C   0  0  0  0  0  0  0  0  0  0  0  0
   -3.3714   -4.9632    0.0000 C   0  0  0  0  0  0  0  0  0  0  0  0
    3.7500    3.6500    0.0000 C   0  0  0  0  0  0  0  0  0  0  0  0
    2.3181    4.3218    0.0000 C   0  0  0  0  0  0  0  0  0  0  0  0
    3.7352    4.8137    0.0000 O   0  0  0  0  0  0  0  0  0  0  0  0
    1.8647    5.7517    0.0000 N   0  0  0  0  0  0  0  0  0  0  0  0
    1.1489    7.0699    0.0000 C   0  0  0  0  0  0  0  0  0  0  0  0
    1.7644    8.4378    0.0000 C   0  0  0  0  0  0  0  0  0  0  0  0
    3.2568    8.5887    0.0000 C   0  0  0  0  0  0  0  0  0  0  0  0
    3.8723    9.9566    0.0000 C   0  0  0  0  0  0  0  0  0  0  0  0
    5.3647   10.1076    0.0000 N   0  0  0  0  0  0  0  0  0  0  0  0
    5.9802   11.4755    0.0000 C   0  0  0  0  0  0  0  0  0  0  0  0
    7.4726   11.6264    0.0000 N   0  0  0  0  0  0  0  0  0  0  0  0
    5.1033   12.6924    0.0000 N   0  0  0  0  0  0  0  0  0  0  0  0
    0.1966    8.2288    0.0000 C   0  0  0  0  0  0  0  0  0  0  0  0
    1.1228    9.4087    0.0000 O   0  0  0  0  0  0  0  0  0  0  0  0
   -0.9578    9.1866    0.0000 N   0  0  0  0  0  0  0  0  0  0  0  0
   -2.2726    9.9085    0.0000 C   0  0  0  0  0  0  0  0  0  0  0  0
   -2.4944   11.3920    0.0000 C   0  0  0  0  0  0  0  0  0  0  0  0
   -1.3205   12.3259    0.0000 O   0  0  0  0  0  0  0  0  0  0  0  0
   -3.7003   10.3686    0.0000 C   0  0  0  0  0  0  0  0  0  0  0  0
   -3.5590   11.8619    0.0000 O   0  0  0  0  0  0  0  0  0  0  0  0
   -5.1893   10.5502    0.0000 N   0  0  0  0  0  0  0  0  0  0  0  0
   -6.6857   10.4467    0.0000 C   0  0  0  0  0  0  0  0  0  0  0  0
   -7.6743   11.5748    0.0000 C   0  0  0  0  0  0  0  0  0  0  0  0
   -7.1917   12.9950    0.0000 C   0  0  0  0  0  0  0  0  0  0  0  0
   -5.7204   13.2871    0.0000 C   0  0  0  0  0  0  0  0  0  0  0  0
   -5.2377   14.7073    0.0000 C   0  0  0  0  0  0  0  0  0  0  0  0
   -6.2263   15.8355    0.0000 C   0  0  0  0  0  0  0  0  0  0  0  0
   -7.6976   15.5434    0.0000 C   0  0  0  0  0  0  0  0  0  0  0  0
   -8.1803   14.1232    0.0000 C   0  0  0  0  0  0  0  0  0  0  0  0
   -8.1355   10.0619    0.0000 C   0  0  0  0  0  0  0  0  0  0  0  0
   -8.8240   11.3945    0.0000 O   0  0  0  0  0  0  0  0  0  0  0  0
   -9.4863    9.4096    0.0000 N   0  0  0  0  0  0  0  0  0  0  0  0
  -10.6892    8.5135    0.0000 C   0  0  0  0  0  0  0  0  0  0  0  0
  -12.1308    8.9281    0.0000 C   0  0  0  0  0  0  0  0  0  0  0  0
  -12.4926   10.3838    0.0000 C   0  0  0  0  0  0  0  0  0  0  0  0
  -13.9341   10.7984    0.0000 C   0  0  0  0  0  0  0  0  0  0  0  0
  -14.2959   12.2541    0.0000 N   0  0  0  0  0  0  0  0  0  0  0  0
  -15.7375   12.6686    0.0000 C   0  0  0  0  0  0  0  0  0  0  0  0
  -16.0993   14.1243    0.0000 N   0  0  0  0  0  0  0  0  0  0  0  0
  -16.8173   11.6275    0.0000 N   0  0  0  0  0  0  0  0  0  0  0  0
  -11.7008    7.4060    0.0000 C   0  0  0  0  0  0  0  0  0  0  0  0
  -13.0005    8.1549    0.0000 O   0  0  0  0  0  0  0  0  0  0  0  0
  -12.4845    6.1270    0.0000 N   0  0  0  0  0  0  0  0  0  0  0  0
  -13.0120    4.7228    0.0000 C   0  0  0  0  0  0  0  0  0  0  0  0
  -14.4489    4.2922    0.0000 C   0  0  0  0  0  0  0  0  0  0  0  0
  -15.5402    5.3212    0.0000 O   0  0  0  0  0  0  0  0  0  0  0  0
  -13.2642    3.2442    0.0000 C   0  0  0  0  0  0  0  0  0  0  0  0
  -14.7625    3.1715    0.0000 O   0  0  0  0  0  0  0  0  0  0  0  0
  -13.2321    1.7445    0.0000 N   0  0  0  0  0  0  0  0  0  0  0  0
  -12.9167    0.2780    0.0000 C   0  0  0  0  0  0  0  0  0  0  0  0
  -13.8926   -0.8611    0.0000 C   0  0  0  0  0  0  0  0  0  0  0  0
  -15.3671   -0.5854    0.0000 C   0  0  0  0  0  0  0  0  0  0  0  0
  -16.3430   -1.7245    0.0000 C   0  0  0  0  0  0  0  0  0  0  0  0
  -16.6583    0.1779    0.0000 C   0  0  0  0  0  0  0  0  0  0  0  0
  -12.3294   -1.1022    0.0000 C   0  0  0  0  0  0  0  0  0  0  0  0
  -13.5505   -1.9734    0.0000 O   0  0  0  0  0  0  0  0  0  0  0  0
  -11.4916   -2.3464    0.0000 N   0  0  0  0  0  0  0  0  0  0  0  0
  -10.4334   -3.4096    0.0000 C   0  0  0  0  0  0  0  0  0  0  0  0
   -9.1932   -4.2533    0.0000 C   0  0  0  0  0  0  0  0  0  0  0  0
   -7.8157   -4.8470    0.0000 C   0  0  0  0  0  0  0  0  0  0  0  0
   -6.3507   -5.1693    0.0000 C   0  0  0  0  0  0  0  0  0  0  0  0
   -4.8512   -5.2085    0.0000 C   0  0  0  0  0  0  0  0  0  0  0  0
  -11.8559   -3.8856    0.0000 C   0  0  0  0  0  0  0  0  0  0  0  0
  -10.6386   -4.8955    0.0000 C   0  0  0  0  0  0  0  0  0  0  0  0
   -9.7123   -6.0753    0.0000 O   0  0  0  0  0  0  0  0  0  0  0  0
  -12.0280   -5.4607    0.0000 N   0  0  0  0  0  0  0  0  0  0  0  0
  -12.2332   -6.9466    0.0000 C   0  0  0  0  0  0  0  0  0  0  0  0
  -11.9178   -8.4131    0.0000 C   0  0  0  0  0  0  0  0  0  0  0  0
  -13.0301   -9.4195    0.0000 C   0  0  0  0  0  0  0  0  0  0  0  0
  -12.7147  -10.8860    0.0000 O   0  0  0  0  0  0  0  0  0  0  0  0
  -14.5267   -9.3185    0.0000 O   0  0  0  0  0  0  0  0  0  0  0  0
  -13.6226   -7.5119    0.0000 C   0  0  0  0  0  0  0  0  0  0  0  0
  -14.8068   -6.5913    0.0000 O   0  0  0  0  0  0  0  0  0  0  0  0
  -13.8278   -8.9978    0.0000 N   0  0  0  0  0  0  0  0  0  0  0  0
  -15.2172   -9.5631    0.0000 C   0  0  0  0  0  0  0  0  0  0  0  0
  -16.7162   -9.6190    0.0000 C   0  0  0  0  0  0  0  0  0  0  0  0
  -17.8459  -10.6058    0.0000 O   0  0  0  0  0  0  0  0  0  0  0  0
  -15.4224  -11.0490    0.0000 C   0  0  0  0  0  0  0  0  0  0  0  0
  -14.2381  -11.9696    0.0000 O   0  0  0  0  0  0  0  0  0  0  0  0
  -16.8118  -11.6142    0.0000 N   0  0  0  0  0  0  0  0  0  0  0  0
  -17.0170  -13.1001    0.0000 C   0  0  0  0  0  0  0  0  0  0  0  0
  -16.7016  -14.5666    0.0000 C   0  0  0  0  0  0  0  0  0  0  0  0
  -17.8139  -15.5730    0.0000 C   0  0  0  0  0  0  0  0  0  0  0  0
  -15.9036  -15.8368    0.0000 C   0  0  0  0  0  0  0  0  0  0  0  0
  -14.4047  -15.7808    0.0000 C   0  0  0  0  0  0  0  0  0  0  0  0
  -18.4064  -13.6654    0.0000 C   0  0  0  0  0  0  0  0  0  0  0  0
  -18.7912  -15.1152    0.0000 O   0  0  0  0  0  0  0  0  0  0  0  0
  -19.5906  -12.7448    0.0000 O   0  0  0  0  0  0  0  0  0  0  0  0
   21.3521   -0.6818    0.0000 H   0  0  0  0  0  0  0  0  0  0  0  0
   21.4888   -5.1723    0.0000 H   0  0  0  0  0  0  0  0  0  0  0  0
   24.0713   -6.6989    0.0000 H   0  0  0  0  0  0  0  0  0  0  0  0
   23.7696   -0.7401    0.0000 H   0  0  0  0  0  0  0  0  0  0  0  0
   30.7371    0.9234    0.0000 H   0  0  0  0  0  0  0  0  0  0  0  0
   31.7652   -4.1701    0.0000 H   0  0  0  0  0  0  0  0  0  0  0  0
   28.8245   -4.7636    0.0000 H   0  0  0  0  0  0  0  0  0  0  0  0
   33.7137   -2.4516    0.0000 H   0  0  0  0  0  0  0  0  0  0  0  0
   23.8994   -3.1072    0.0000 H   0  0  0  0  0  0  0  0  0  0  0  0
   21.8898   -0.6758    0.0000 H   0  0  0  0  0  0  0  0  0  0  0  0
   25.8121    2.5798    0.0000 H   0  0  0  0  0  0  0  0  0  0  0  0
   23.3495    3.4080    0.0000 H   0  0  0  0  0  0  0  0  0  0  0  0
   18.9371   -0.6458    0.0000 H   0  0  0  0  0  0  0  0  0  0  0  0
   18.5673   -4.0413    0.0000 H   0  0  0  0  0  0  0  0  0  0  0  0
   16.7852   -4.1319    0.0000 H   0  0  0  0  0  0  0  0  0  0  0  0
   17.2997   -0.9799    0.0000 H   0  0  0  0  0  0  0  0  0  0  0  0
   15.3714   -0.9601    0.0000 H   0  0  0  0  0  0  0  0  0  0  0  0
   13.7412   -0.5924    0.0000 H   0  0  0  0  0  0  0  0  0  0  0  0
   11.9206   -1.4142    0.0000 H   0  0  0  0  0  0  0  0  0  0  0  0
   13.8699   -5.4026    0.0000 H   0  0  0  0  0  0  0  0  0  0  0  0
   12.1643   -4.8782    0.0000 H   0  0  0  0  0  0  0  0  0  0  0  0
   17.3022   -4.8384    0.0000 H   0  0  0  0  0  0  0  0  0  0  0  0
   15.2761   -6.3057    0.0000 H   0  0  0  0  0  0  0  0  0  0  0  0
   10.5145   -0.5111    0.0000 H   0  0  0  0  0  0  0  0  0  0  0  0
    8.7053   -0.6737    0.0000 H   0  0  0  0  0  0  0  0  0  0  0  0
    8.9903   -5.0752    0.0000 H   0  0  0  0  0  0  0  0  0  0  0  0
    7.6292   -4.1713    0.0000 H   0  0  0  0  0  0  0  0  0  0  0  0
   11.9600   -3.6057    0.0000 H   0  0  0  0  0  0  0  0  0  0  0  0
   10.8581   -2.3993    0.0000 H   0  0  0  0  0  0  0  0  0  0  0  0
   10.5012   -7.8195    0.0000 H   0  0  0  0  0  0  0  0  0  0  0  0
    7.5102    0.6689    0.0000 H   0  0  0  0  0  0  0  0  0  0  0  0
    5.5873    1.2097    0.0000 H   0  0  0  0  0  0  0  0  0  0  0  0
    4.3496   -3.0239    0.0000 H   0  0  0  0  0  0  0  0  0  0  0  0
    3.5699   -1.4188    0.0000 H   0  0  0  0  0  0  0  0  0  0  0  0
    7.1872   -1.2229    0.0000 H   0  0  0  0  0  0  0  0  0  0  0  0
    7.3884   -5.0108    0.0000 H   0  0  0  0  0  0  0  0  0  0  0  0
    5.7927   -5.3619    0.0000 H   0  0  0  0  0  0  0  0  0  0  0  0
    4.8231   -3.8638    0.0000 H   0  0  0  0  0  0  0  0  0  0  0  0
    8.3086   -4.1481    0.0000 H   0  0  0  0  0  0  0  0  0  0  0  0
    9.3052   -2.8535    0.0000 H   0  0  0  0  0  0  0  0  0  0  0  0
    7.6425   -1.2428    0.0000 H   0  0  0  0  0  0  0  0  0  0  0  0
    5.1706    2.6406    0.0000 H   0  0  0  0  0  0  0  0  0  0  0  0
    3.8670    1.5484    0.0000 H   0  0  0  0  0  0  0  0  0  0  0  0
    3.3761    0.2127    0.0000 H   0  0  0  0  0  0  0  0  0  0  0  0
    3.4687   -0.3665    0.0000 H   0  0  0  0  0  0  0  0  0  0  0  0
    2.9056   -1.3004    0.0000 H   0  0  0  0  0  0  0  0  0  0  0  0
    2.8319   -1.4512    0.0000 H   0  0  0  0  0  0  0  0  0  0  0  0
    2.1639   -2.7077    0.0000 H   0  0  0  0  0  0  0  0  0  0  0  0
    1.8601   -3.1116    0.0000 H   0  0  0  0  0  0  0  0  0  0  0  0
    1.0109   -4.0413    0.0000 H   0  0  0  0  0  0  0  0  0  0  0  0
    0.6361   -4.3804    0.0000 H   0  0  0  0  0  0  0  0  0  0  0  0
   -0.3736   -5.1326    0.0000 H   0  0  0  0  0  0  0  0  0  0  0  0
   -0.8058   -5.3946    0.0000 H   0  0  0  0  0  0  0  0  0  0  0  0
   -2.1227   -5.9340    0.0000 H   0  0  0  0  0  0  0  0  0  0  0  0
   -2.9866   -6.4130    0.0000 H   0  0  0  0  0  0  0  0  0  0  0  0
    5.1600    3.1382    0.0000 H   0  0  0  0  0  0  0  0  0  0  0  0
    4.7911    4.7299    0.0000 H   0  0  0  0  0  0  0  0  0  0  0  0
    3.0218    4.9614    0.0000 H   0  0  0  0  0  0  0  0  0  0  0  0
    3.3063    6.1663    0.0000 H   0  0  0  0  0  0  0  0  0  0  0  0
    2.6435    6.9427    0.0000 H   0  0  0  0  0  0  0  0  0  0  0  0
    1.8749    9.9337    0.0000 H   0  0  0  0  0  0  0  0  0  0  0  0
    0.4428    9.1473    0.0000 H   0  0  0  0  0  0  0  0  0  0  0  0
    4.7108    8.2201    0.0000 H   0  0  0  0  0  0  0  0  0  0  0  0
    3.5116    7.1105    0.0000 H   0  0  0  0  0  0  0  0  0  0  0  0
    3.9828   11.4526    0.0000 H   0  0  0  0  0  0  0  0  0  0  0  0
    2.4741   10.4997    0.0000 H   0  0  0  0  0  0  0  0  0  0  0  0
    6.2416    8.8906    0.0000 H   0  0  0  0  0  0  0  0  0  0  0  0
    8.0881   12.9943    0.0000 H   0  0  0  0  0  0  0  0  0  0  0  0
    5.7188   14.0603    0.0000 H   0  0  0  0  0  0  0  0  0  0  0  0
    3.6109   12.5415    0.0000 H   0  0  0  0  0  0  0  0  0  0  0  0
   -0.1141   10.4268    0.0000 H   0  0  0  0  0  0  0  0  0  0  0  0
   -1.0419   10.7660    0.0000 H   0  0  0  0  0  0  0  0  0  0  0  0
   -3.0442   12.7877    0.0000 H   0  0  0  0  0  0  0  0  0  0  0  0
   -3.9898   11.2744    0.0000 H   0  0  0  0  0  0  0  0  0  0  0  0
   -1.5423   13.8094    0.0000 H   0  0  0  0  0  0  0  0  0  0  0  0
   -4.9676   12.0337    0.0000 H   0  0  0  0  0  0  0  0  0  0  0  0
   -6.1140   11.8334    0.0000 H   0  0  0  0  0  0  0  0  0  0  0  0
   -8.8914   12.4517    0.0000 H   0  0  0  0  0  0  0  0  0  0  0  0
   -8.8687   10.6674    0.0000 H   0  0  0  0  0  0  0  0  0  0  0  0
   -4.6016   12.2879    0.0000 H   0  0  0  0  0  0  0  0  0  0  0  0
   -3.7664   14.9994    0.0000 H   0  0  0  0  0  0  0  0  0  0  0  0
   -5.7436   17.2557    0.0000 H   0  0  0  0  0  0  0  0  0  0  0  0
   -8.6862   16.6715    0.0000 H   0  0  0  0  0  0  0  0  0  0  0  0
   -9.6516   13.8311    0.0000 H   0  0  0  0  0  0  0  0  0  0  0  0
  -10.1018   10.7775    0.0000 H   0  0  0  0  0  0  0  0  0  0  0  0
  -10.7760   10.0110    0.0000 H   0  0  0  0  0  0  0  0  0  0  0  0
  -13.6272    8.8246    0.0000 H   0  0  0  0  0  0  0  0  0  0  0  0
  -12.6450    7.5190    0.0000 H   0  0  0  0  0  0  0  0  0  0  0  0
  -12.3346   11.8755    0.0000 H   0  0  0  0  0  0  0  0  0  0  0  0
  -11.0657   10.8463    0.0000 H   0  0  0  0  0  0  0  0  0  0  0  0
  -15.4306   10.6949    0.0000 H   0  0  0  0  0  0  0  0  0  0  0  0
  -14.2727    9.3371    0.0000 H   0  0  0  0  0  0  0  0  0  0  0  0
  -13.2161   13.2952    0.0000 H   0  0  0  0  0  0  0  0  0  0  0  0
  -17.5409   14.5389    0.0000 H   0  0  0  0  0  0  0  0  0  0  0  0
  -18.2589   12.0420    0.0000 H   0  0  0  0  0  0  0  0  0  0  0  0
  -16.4555   10.1717    0.0000 H   0  0  0  0  0  0  0  0  0  0  0  0
  -13.8322    6.7856    0.0000 H   0  0  0  0  0  0  0  0  0  0  0  0
  -14.0359    5.8190    0.0000 H   0  0  0  0  0  0  0  0  0  0  0  0
  -15.7521    3.5494    0.0000 H   0  0  0  0  0  0  0  0  0  0  0  0
  -14.1196    2.8288    0.0000 H   0  0  0  0  0  0  0  0  0  0  0  0
  -16.9771    4.8906    0.0000 H   0  0  0  0  0  0  0  0  0  0  0  0
  -14.7320    1.7528    0.0000 H   0  0  0  0  0  0  0  0  0  0  0  0
  -14.3149    0.8211    0.0000 H   0  0  0  0  0  0  0  0  0  0  0  0
  -14.4201   -2.2652    0.0000 H   0  0  0  0  0  0  0  0  0  0  0  0
  -12.8244   -1.9141    0.0000 H   0  0  0  0  0  0  0  0  0  0  0  0
  -15.1950    0.9047    0.0000 H   0  0  0  0  0  0  0  0  0  0  0  0
  -17.8401   -1.6306    0.0000 H   0  0  0  0  0  0  0  0  0  0  0  0
  -16.8705   -3.1287    0.0000 H   0  0  0  0  0  0  0  0  0  0  0  0
  -15.1544   -2.6395    0.0000 H   0  0  0  0  0  0  0  0  0  0  0  0
  -18.0450   -0.3939    0.0000 H   0  0  0  0  0  0  0  0  0  0  0  0
  -17.6106    1.3368    0.0000 H   0  0  0  0  0  0  0  0  0  0  0  0
  -15.6824    1.3170    0.0000 H   0  0  0  0  0  0  0  0  0  0  0  0
  -12.7579   -3.1504    0.0000 H   0  0  0  0  0  0  0  0  0  0  0  0
   -9.1134   -5.7511    0.0000 H   0  0  0  0  0  0  0  0  0  0  0  0
  -10.2828   -5.2842    0.0000 H   0  0  0  0  0  0  0  0  0  0  0  0
   -7.6340   -6.3359    0.0000 H   0  0  0  0  0  0  0  0  0  0  0  0
   -8.6905   -6.0654    0.0000 H   0  0  0  0  0  0  0  0  0  0  0  0
   -5.7200   -6.5302    0.0000 H   0  0  0  0  0  0  0  0  0  0  0  0
   -7.1405   -6.4445    0.0000 H   0  0  0  0  0  0  0  0  0  0  0  0
   -4.7477   -6.7049    0.0000 H   0  0  0  0  0  0  0  0  0  0  0  0
  -12.5017   -5.2394    0.0000 H   0  0  0  0  0  0  0  0  0  0  0  0
  -13.3554   -3.8464    0.0000 H   0  0  0  0  0  0  0  0  0  0  0  0
  -12.4300   -2.4998    0.0000 H   0  0  0  0  0  0  0  0  0  0  0  0
  -13.3156   -4.6913    0.0000 H   0  0  0  0  0  0  0  0  0  0  0  0
  -10.7342   -6.8907    0.0000 H   0  0  0  0  0  0  0  0  0  0  0  0
  -11.1198   -9.6833    0.0000 H   0  0  0  0  0  0  0  0  0  0  0  0
  -10.5284   -7.8479    0.0000 H   0  0  0  0  0  0  0  0  0  0  0  0
  -15.6957   -9.6941    0.0000 H   0  0  0  0  0  0  0  0  0  0  0  0
  -12.9015  -10.1776    0.0000 H   0  0  0  0  0  0  0  0  0  0  0  0
  -15.5326   -8.0966    0.0000 H   0  0  0  0  0  0  0  0  0  0  0  0
  -18.1438   -9.1590    0.0000 H   0  0  0  0  0  0  0  0  0  0  0  0
  -16.5110   -8.1331    0.0000 H   0  0  0  0  0  0  0  0  0  0  0  0
  -18.9161  -11.0011    0.0000 H   0  0  0  0  0  0  0  0  0  0  0  0
  -18.0994  -10.8448    0.0000 H   0  0  0  0  0  0  0  0  0  0  0  0
  -15.5180  -13.0442    0.0000 H   0  0  0  0  0  0  0  0  0  0  0  0
  -15.3914  -13.8362    0.0000 H   0  0  0  0  0  0  0  0  0  0  0  0
  -17.6796  -17.0670    0.0000 H   0  0  0  0  0  0  0  0  0  0  0  0
  -19.2033  -16.1382    0.0000 H   0  0  0  0  0  0  0  0  0  0  0  0
  -19.0141  -14.6732    0.0000 H   0  0  0  0  0  0  0  0  0  0  0  0
  -15.5882  -17.3032    0.0000 H   0  0  0  0  0  0  0  0  0  0  0  0
  -17.2138  -16.5672    0.0000 H   0  0  0  0  0  0  0  0  0  0  0  0
  -13.6067  -17.0509    0.0000 H   0  0  0  0  0  0  0  0  0  0  0  0
  -13.0152  -15.2155    0.0000 H   0  0  0  0  0  0  0  0  0  0  0  0
  -14.5390  -14.2868    0.0000 H   0  0  0  0  0  0  0  0  0  0  0  0
  -20.9800  -13.3100    0.0000 H   0  0  0  0  0  0  0  0  0  0  0  0
  1  2  1  0
  2  3  1  0
  3  4  2  0
  4  5  1  0
  5  6  2  0
  6  7  1  0
  7  8  2  0
  7  9  1  0
  9 10  1  0
 10 11  1  0
 11 12  2  0
  9 13  1  0
 13 14  1  0
 14 15  2  0
 15 16  1  0
 16 17  2  0
 17 18  1  0
 16 19  1  0
 14 20  1  0
 20 21  1  0
 21 22  2  0
 22 23  1  0
 23 24  2  0
 24 25  1  0
 25 26  2  0
 25 27  1  0
  1 28  2  0
  1 29  1  0
 29 30  1  0
 30 31  1  0
 31 32  1  0
 32 33  2  0
 32 34  1  0
 34 35  1  0
 35 36  1  0
 36 37  1  0
 37 38  1  0
 37 39  2  0
 35 40  1  0
 40 41  2  0
 40 42  1  0
 42 43  1  0
 43 44  1  0
 44 45  1  0
 45 46  1  0
 46 47  2  0
 46 48  1  0
 43 49  1  0
 49 50  2  0
 49 51  1  0
 51 52  1  0
 52 53  1  0
 53 54  1  0
 54 55  1  0
 54 56  1  0
 52 57  1  0
 57 58  2  0
 57 59  1  0
 60 59  1  6
 60 61  1  0
 61 62  1  0
 62 63  1  0
 63 64  1  0
 64 65  1  0
 65 66  1  0
 66 67  1  0
 60 68  1  0
 60 69  1  0
 69 70  2  0
 69 71  1  0
 71 72  1  0
 72 73  1  0
 73 74  1  0
 74 75  1  0
 75 76  1  0
 76 77  1  0
 77 78  2  3
 77 79  1  0
 72 80  1  0
 80 81  2  0
 80 82  1  0
 82 83  1  0
 83 84  1  0
 84 85  1  0
 83 86  1  0
 86 87  2  0
 86 88  1  0
 88 89  1  0
 89 90  1  0
 90 91  1  0
 91 92  2  0
 92 93  1  0
 93 94  2  0
 94 95  1  0
 95 96  2  0
 89 97  1  0
 97 98  2  0
 97 99  1  0
 99100  1  0
100101  1  0
101102  1  0
102103  1  0
103104  1  0
104105  1  0
105106  2  3
105107  1  0
100108  1  0
108109  2  0
108110  1  0
110111  1  0
111112  1  0
112113  1  0
111114  1  0
114115  2  0
114116  1  0
116117  1  0
117118  1  0
118119  1  0
119120  1  0
119121  1  0
117122  1  0
122123  2  0
122124  1  0
124125  1  0
125126  1  0
126127  1  0
127128  1  0
128129  1  0
125130  1  0
125131  1  1
131132  2  0
131133  1  0
133134  1  0
134135  1  0
135136  1  0
136137  2  0
136138  1  0
134139  1  0
139140  2  0
139141  1  0
141142  1  0
142143  1  0
143144  1  0
142145  1  0
145146  2  0
145147  1  0
147148  1  0
148149  1  0
149150  1  0
149151  1  0
151152  1  0
148153  1  0
153154  2  0
153155  1  0
  8  3  1  0
 96 91  1  0
 11  6  1  0
 67129  2  0
 18 13  2  0
 22  9  1  0
 26 21  1  0
  2156  1  0
  4157  1  0
  5158  1  0
  8159  1  0
 15160  1  0
 17161  1  0
 18162  1  0
 19163  1  0
 23164  1  0
 24165  1  0
 26166  1  0
 27167  1  0
 29168  1  0
 30169  1  0
 30170  1  0
 31171  1  0
 31172  1  0
 34173  1  0
 35174  1  1
 36175  1  0
 36176  1  0
 38177  1  0
 38178  1  0
 42179  1  0
 43180  1  1
 44181  1  0
 44182  1  0
 45183  1  0
 45184  1  0
 48185  1  0
 51186  1  0
 52187  1  1
 53188  1  0
 53189  1  0
 54190  1  0
 55191  1  0
 55192  1  0
 55193  1  0
 56194  1  0
 56195  1  0
 56196  1  0
 59197  1  0
 61198  1  0
 61199  1  0
 62200  1  0
 62201  1  0
 63202  1  0
 63203  1  0
 64204  1  0
 64205  1  0
 65206  1  0
 65207  1  0
 66208  1  0
 66209  1  0
 67210  1  0
 68211  1  0
 68212  1  0
 68213  1  0
 71214  1  0
 72215  1  6
 73216  1  0
 73217  1  0
 74218  1  0
 74219  1  0
 75220  1  0
 75221  1  0
 76222  1  0
 78223  1  0
 79224  1  0
 79225  1  0
 82226  1  0
 83227  1  6
 84228  1  0
 84229  1  0
 85230  1  0
 88231  1  0
 89232  1  6
 90233  1  0
 90234  1  0
 92235  1  0
 93236  1  0
 94237  1  0
 95238  1  0
 96239  1  0
 99240  1  0
100241  1  6
101242  1  0
101243  1  0
102244  1  0
102245  1  0
103246  1  0
103247  1  0
104248  1  0
106249  1  0
107250  1  0
107251  1  0
110252  1  0
111253  1  6
112254  1  0
112255  1  0
113256  1  0
116257  1  0
117258  1  6
118259  1  0
118260  1  0
119261  1  0
120262  1  0
120263  1  0
120264  1  0
121265  1  0
121266  1  0
121267  1  0
124268  1  0
126269  1  0
126270  1  0
127271  1  0
127272  1  0
128273  1  0
128274  1  0
129275  1  0
130276  1  0
130277  1  0
130278  1  0
133279  1  0
134280  1  1
135281  1  0
135282  1  0
138283  1  0
141284  1  0
142285  1  6
143286  1  0
143287  1  0
144288  1  0
147289  1  0
148290  1  1
149291  1  1
150292  1  0
150293  1  0
150294  1  0
151295  1  0
151296  1  0
152297  1  0
152298  1  0
152299  1  0
155300  1  0
M  END
