
     RDKit          2D

201203  0  0  0  0  0  0  0  0999 V2000
  -24.2142  -10.3779    0.0000 N   0  0  0  0  0  0  0  0  0  0  0  0
  -22.7249  -10.1991    0.0000 C   0  0  0  0  0  0  0  0  0  0  0  0
  -22.1350   -8.8200    0.0000 C   0  0  0  0  0  0  0  0  0  0  0  0
  -20.6457   -8.6412    0.0000 O   0  0  0  0  0  0  0  0  0  0  0  0
  -20.0559   -7.2620    0.0000 C   0  0  0  0  0  0  0  0  0  0  0  0
  -18.5666   -7.0832    0.0000 O   0  0  0  0  0  0  0  0  0  0  0  0
  -17.9768   -5.7040    0.0000 C   0  0  0  0  0  0  0  0  0  0  0  0
  -16.4875   -5.5252    0.0000 C   0  0  0  0  0  0  0  0  0  0  0  0
  -15.8977   -4.1460    0.0000 O   0  0  0  0  0  0  0  0  0  0  0  0
  -14.4084   -3.9672    0.0000 C   0  0  0  0  0  0  0  0  0  0  0  0
  -13.8186   -2.5881    0.0000 C   0  0  0  0  0  0  0  0  0  0  0  0
  -12.3293   -2.4093    0.0000 C   0  0  0  0  0  0  0  0  0  0  0  0
  -11.5828   -3.7103    0.0000 O   0  0  0  0  0  0  0  0  0  0  0  0
  -11.7395   -1.0301    0.0000 N   0  0  0  0  0  0  0  0  0  0  0  0
  -10.2502   -0.8513    0.0000 C   0  0  0  0  0  0  0  0  0  0  0  0
   -9.1307   -1.8496    0.0000 C   0  0  0  0  0  0  0  0  0  0  0  0
   -7.7666   -2.4737    0.0000 C   0  0  0  0  0  0  0  0  0  0  0  0
   -6.2792   -2.6679    0.0000 C   0  0  0  0  0  0  0  0  0  0  0  0
   -4.8007   -2.4151    0.0000 C   0  0  0  0  0  0  0  0  0  0  0  0
  -10.8708   -2.2169    0.0000 C   0  0  0  0  0  0  0  0  0  0  0  0
  -11.0257    0.4327    0.0000 C   0  0  0  0  0  0  0  0  0  0  0  0
  -12.4707    0.0303    0.0000 O   0  0  0  0  0  0  0  0  0  0  0  0
  -11.3883    1.8882    0.0000 N   0  0  0  0  0  0  0  0  0  0  0  0
  -11.3057    3.3859    0.0000 C   0  0  0  0  0  0  0  0  0  0  0  0
  -10.7854    4.7928    0.0000 C   0  0  0  0  0  0  0  0  0  0  0  0
  -12.0990    5.5170    0.0000 O   0  0  0  0  0  0  0  0  0  0  0  0
   -9.8735    5.9838    0.0000 N   0  0  0  0  0  0  0  0  0  0  0  0
   -8.6511    6.8531    0.0000 C   0  0  0  0  0  0  0  0  0  0  0  0
   -9.9462    7.6098    0.0000 C   0  0  0  0  0  0  0  0  0  0  0  0
   -7.2267    7.3234    0.0000 C   0  0  0  0  0  0  0  0  0  0  0  0
   -7.4795    8.8019    0.0000 O   0  0  0  0  0  0  0  0  0  0  0  0
   -5.7270    7.3530    0.0000 N   0  0  0  0  0  0  0  0  0  0  0  0
   -4.2852    6.9393    0.0000 C   0  0  0  0  0  0  0  0  0  0  0  0
   -4.5011    8.4237    0.0000 C   0  0  0  0  0  0  0  0  0  0  0  0
   -3.3235    9.3528    0.0000 C   0  0  0  0  0  0  0  0  0  0  0  0
   -1.9301    8.7976    0.0000 C   0  0  0  0  0  0  0  0  0  0  0  0
   -0.7525    9.7267    0.0000 C   0  0  0  0  0  0  0  0  0  0  0  0
   -0.9683   11.2111    0.0000 C   0  0  0  0  0  0  0  0  0  0  0  0
   -2.3618   11.7663    0.0000 C   0  0  0  0  0  0  0  0  0  0  0  0
   -3.5394   10.8372    0.0000 C   0  0  0  0  0  0  0  0  0  0  0  0
   -3.0294    6.1189    0.0000 C   0  0  0  0  0  0  0  0  0  0  0  0
   -1.9020    7.1084    0.0000 O   0  0  0  0  0  0  0  0  0  0  0  0
   -2.0712    4.9649    0.0000 N   0  0  0  0  0  0  0  0  0  0  0  0
   -1.4957    3.5797    0.0000 C   0  0  0  0  0  0  0  0  0  0  0  0
   -1.3541    2.0864    0.0000 C   0  0  0  0  0  0  0  0  0  0  0  0
   -1.6589    0.6177    0.0000 C   0  0  0  0  0  0  0  0  0  0  0  0
   -2.3831   -0.6959    0.0000 C   0  0  0  0  0  0  0  0  0  0  0  0
   -3.4624   -1.7377    0.0000 C   0  0  0  0  0  0  0  0  0  0  0  0
   -0.0278    3.2712    0.0000 C   0  0  0  0  0  0  0  0  0  0  0  0
   -0.4698    4.6740    0.0000 C   0  0  0  0  0  0  0  0  0  0  0  0
   -0.7262    6.1519    0.0000 O   0  0  0  0  0  0  0  0  0  0  0  0
    0.9909    4.3326    0.0000 N   0  0  0  0  0  0  0  0  0  0  0  0
    2.0168    5.4269    0.0000 C   0  0  0  0  0  0  0  0  0  0  0  0
    2.6066    6.8060    0.0000 C   0  0  0  0  0  0  0  0  0  0  0  0
    4.0959    6.9848    0.0000 C   0  0  0  0  0  0  0  0  0  0  0  0
    4.6857    8.3640    0.0000 N   0  0  0  0  0  0  0  0  0  0  0  0
    4.6482    6.4099    0.0000 O   0  0  0  0  0  0  0  0  0  0  0  0
    3.4775    5.0855    0.0000 C   0  0  0  0  0  0  0  0  0  0  0  0
    4.0895    5.5963    0.0000 O   0  0  0  0  0  0  0  0  0  0  0  0
    3.9122    3.6499    0.0000 N   0  0  0  0  0  0  0  0  0  0  0  0
    5.3728    3.3085    0.0000 C   0  0  0  0  0  0  0  0  0  0  0  0
    6.8621    3.4873    0.0000 C   0  0  0  0  0  0  0  0  0  0  0  0
    7.7616    2.2869    0.0000 C   0  0  0  0  0  0  0  0  0  0  0  0
    9.2509    2.4657    0.0000 C   0  0  0  0  0  0  0  0  0  0  0  0
    8.1963    0.8513    0.0000 C   0  0  0  0  0  0  0  0  0  0  0  0
    5.8075    1.8729    0.0000 C   0  0  0  0  0  0  0  0  0  0  0  0
    4.7815    0.7786    0.0000 O   0  0  0  0  0  0  0  0  0  0  0  0
    7.2681    1.5315    0.0000 N   0  0  0  0  0  0  0  0  0  0  0  0
    7.7028    0.0959    0.0000 C   0  0  0  0  0  0  0  0  0  0  0  0
    7.6203   -1.4018    0.0000 C   0  0  0  0  0  0  0  0  0  0  0  0
    8.8761   -2.2222    0.0000 C   0  0  0  0  0  0  0  0  0  0  0  0
   10.2144   -1.5448    0.0000 C   0  0  0  0  0  0  0  0  0  0  0  0
   11.4702   -2.3651    0.0000 C   0  0  0  0  0  0  0  0  0  0  0  0
   11.3877   -3.8629    0.0000 C   0  0  0  0  0  0  0  0  0  0  0  0
   10.0494   -4.5402    0.0000 C   0  0  0  0  0  0  0  0  0  0  0  0
    8.7936   -3.7199    0.0000 C   0  0  0  0  0  0  0  0  0  0  0  0
    9.1635   -0.2455    0.0000 C   0  0  0  0  0  0  0  0  0  0  0  0
   10.3152    0.7156    0.0000 O   0  0  0  0  0  0  0  0  0  0  0  0
    9.5982   -1.6811    0.0000 N   0  0  0  0  0  0  0  0  0  0  0  0
   11.0588   -2.0224    0.0000 C   0  0  0  0  0  0  0  0  0  0  0  0
   12.5481   -1.8437    0.0000 C   0  0  0  0  0  0  0  0  0  0  0  0
   13.1379   -0.4645    0.0000 C   0  0  0  0  0  0  0  0  0  0  0  0
   14.6272   -0.2857    0.0000 C   0  0  0  0  0  0  0  0  0  0  0  0
   15.2170    1.0935    0.0000 N   0  0  0  0  0  0  0  0  0  0  0  0
   15.5267   -1.4861    0.0000 O   0  0  0  0  0  0  0  0  0  0  0  0
   11.4935   -3.4581    0.0000 C   0  0  0  0  0  0  0  0  0  0  0  0
   10.7628   -4.7681    0.0000 O   0  0  0  0  0  0  0  0  0  0  0  0
   12.9541   -3.7994    0.0000 N   0  0  0  0  0  0  0  0  0  0  0  0
   13.3888   -5.2351    0.0000 C   0  0  0  0  0  0  0  0  0  0  0  0
   13.3063   -6.7328    0.0000 C   0  0  0  0  0  0  0  0  0  0  0  0
   14.1846   -7.9488    0.0000 O   0  0  0  0  0  0  0  0  0  0  0  0
   14.8495   -5.5764    0.0000 C   0  0  0  0  0  0  0  0  0  0  0  0
   15.8754   -4.4822    0.0000 O   0  0  0  0  0  0  0  0  0  0  0  0
   15.2842   -7.0121    0.0000 N   0  0  0  0  0  0  0  0  0  0  0  0
   16.7448   -7.3534    0.0000 C   0  0  0  0  0  0  0  0  0  0  0  0
   18.2341   -7.1746    0.0000 C   0  0  0  0  0  0  0  0  0  0  0  0
   18.8239   -5.7954    0.0000 C   0  0  0  0  0  0  0  0  0  0  0  0
   17.1795   -8.7891    0.0000 C   0  0  0  0  0  0  0  0  0  0  0  0
   18.5877   -9.3059    0.0000 O   0  0  0  0  0  0  0  0  0  0  0  0
   16.1536   -9.8833    0.0000 O   0  0  0  0  0  0  0  0  0  0  0  0
  -24.8040  -11.7571    0.0000 H   0  0  0  0  0  0  0  0  0  0  0  0
  -25.1137   -9.1776    0.0000 H   0  0  0  0  0  0  0  0  0  0  0  0
  -22.8074  -11.6969    0.0000 H   0  0  0  0  0  0  0  0  0  0  0  0
  -21.2642  -10.5405    0.0000 H   0  0  0  0  0  0  0  0  0  0  0  0
  -23.5957   -8.4786    0.0000 H   0  0  0  0  0  0  0  0  0  0  0  0
  -22.2357   -7.3233    0.0000 H   0  0  0  0  0  0  0  0  0  0  0  0
  -21.4641   -6.7451    0.0000 H   0  0  0  0  0  0  0  0  0  0  0  0
  -20.1566   -5.7654    0.0000 H   0  0  0  0  0  0  0  0  0  0  0  0
  -19.3850   -5.1872    0.0000 H   0  0  0  0  0  0  0  0  0  0  0  0
  -17.8943   -4.2063    0.0000 H   0  0  0  0  0  0  0  0  0  0  0  0
  -16.5700   -7.0229    0.0000 H   0  0  0  0  0  0  0  0  0  0  0  0
  -15.0794   -6.0421    0.0000 H   0  0  0  0  0  0  0  0  0  0  0  0
  -14.3077   -5.4639    0.0000 H   0  0  0  0  0  0  0  0  0  0  0  0
  -12.9478   -4.3086    0.0000 H   0  0  0  0  0  0  0  0  0  0  0  0
  -15.2792   -2.2467    0.0000 H   0  0  0  0  0  0  0  0  0  0  0  0
  -13.7361   -1.0903    0.0000 H   0  0  0  0  0  0  0  0  0  0  0  0
  -12.7786    0.0517    0.0000 H   0  0  0  0  0  0  0  0  0  0  0  0
   -9.1384   -3.3496    0.0000 H   0  0  0  0  0  0  0  0  0  0  0  0
  -10.4165   -2.6220    0.0000 H   0  0  0  0  0  0  0  0  0  0  0  0
   -7.5102   -3.9516    0.0000 H   0  0  0  0  0  0  0  0  0  0  0  0
   -8.7677   -3.5907    0.0000 H   0  0  0  0  0  0  0  0  0  0  0  0
   -5.4407   -3.9116    0.0000 H   0  0  0  0  0  0  0  0  0  0  0  0
   -6.9066   -4.0304    0.0000 H   0  0  0  0  0  0  0  0  0  0  0  0
   -4.3303   -3.8394    0.0000 H   0  0  0  0  0  0  0  0  0  0  0  0
  -12.0306   -2.9098    0.0000 H   0  0  0  0  0  0  0  0  0  0  0  0
  -10.4439   -3.7402    0.0000 H   0  0  0  0  0  0  0  0  0  0  0  0
   -9.4156   -3.0538    0.0000 H   0  0  0  0  0  0  0  0  0  0  0  0
  -12.8816    1.7466    0.0000 H   0  0  0  0  0  0  0  0  0  0  0  0
  -12.7049    2.8451    0.0000 H   0  0  0  0  0  0  0  0  0  0  0  0
  -12.3741    4.4388    0.0000 H   0  0  0  0  0  0  0  0  0  0  0  0
  -10.9153    7.0630    0.0000 H   0  0  0  0  0  0  0  0  0  0  0  0
   -8.4940    8.3448    0.0000 H   0  0  0  0  0  0  0  0  0  0  0  0
   -9.9384    9.1098    0.0000 H   0  0  0  0  0  0  0  0  0  0  0  0
  -11.4221    7.8779    0.0000 H   0  0  0  0  0  0  0  0  0  0  0  0
  -10.7915    6.3706    0.0000 H   0  0  0  0  0  0  0  0  0  0  0  0
   -5.5328    8.8404    0.0000 H   0  0  0  0  0  0  0  0  0  0  0  0
   -3.0210    7.7466    0.0000 H   0  0  0  0  0  0  0  0  0  0  0  0
   -5.2116    9.7447    0.0000 H   0  0  0  0  0  0  0  0  0  0  0  0
   -5.9969    8.3120    0.0000 H   0  0  0  0  0  0  0  0  0  0  0  0
   -1.5349    7.3506    0.0000 H   0  0  0  0  0  0  0  0  0  0  0  0
    0.6410    9.1715    0.0000 H   0  0  0  0  0  0  0  0  0  0  0  0
    0.2092   12.1402    0.0000 H   0  0  0  0  0  0  0  0  0  0  0  0
   -2.5777   13.2507    0.0000 H   0  0  0  0  0  0  0  0  0  0  0  0
   -4.9328   11.3924    0.0000 H   0  0  0  0  0  0  0  0  0  0  0  0
   -0.8913    5.8911    0.0000 H   0  0  0  0  0  0  0  0  0  0  0  0
    0.0297    2.6653    0.0000 H   0  0  0  0  0  0  0  0  0  0  0  0
   -0.1408    1.2045    0.0000 H   0  0  0  0  0  0  0  0  0  0  0  0
   -0.1660    0.7630    0.0000 H   0  0  0  0  0  0  0  0  0  0  0  0
   -0.6198   -0.4641    0.0000 H   0  0  0  0  0  0  0  0  0  0  0  0
   -0.9137   -0.9971    0.0000 H   0  0  0  0  0  0  0  0  0  0  0  0
   -1.8774   -2.1081    0.0000 H   0  0  0  0  0  0  0  0  0  0  0  0
   -2.5931   -2.9601    0.0000 H   0  0  0  0  0  0  0  0  0  0  0  0
    1.2174    3.7956    0.0000 H   0  0  0  0  0  0  0  0  0  0  0  0
    0.9469    2.0252    0.0000 H   0  0  0  0  0  0  0  0  0  0  0  0
   -0.2150    1.6030    0.0000 H   0  0  0  0  0  0  0  0  0  0  0  0
    1.5973    2.9607    0.0000 H   0  0  0  0  0  0  0  0  0  0  0  0
    0.7610    6.2472    0.0000 H   0  0  0  0  0  0  0  0  0  0  0  0
    2.6892    8.3038    0.0000 H   0  0  0  0  0  0  0  0  0  0  0  0
    1.1460    7.1474    0.0000 H   0  0  0  0  0  0  0  0  0  0  0  0
    6.1750    8.5428    0.0000 H   0  0  0  0  0  0  0  0  0  0  0  0
    3.7862    9.5644    0.0000 H   0  0  0  0  0  0  0  0  0  0  0  0
    2.8862    2.5556    0.0000 H   0  0  0  0  0  0  0  0  0  0  0  0
    5.4553    4.8062    0.0000 H   0  0  0  0  0  0  0  0  0  0  0  0
    8.1079    4.3228    0.0000 H   0  0  0  0  0  0  0  0  0  0  0  0
    6.4274    4.9230    0.0000 H   0  0  0  0  0  0  0  0  0  0  0  0
    6.8981    1.0604    0.0000 H   0  0  0  0  0  0  0  0  0  0  0  0
   10.4141    1.5187    0.0000 H   0  0  0  0  0  0  0  0  0  0  0  0
   10.5892    3.1431    0.0000 H   0  0  0  0  0  0  0  0  0  0  0  0
    8.9944    3.9437    0.0000 H   0  0  0  0  0  0  0  0  0  0  0  0
    9.6877    0.6905    0.0000 H   0  0  0  0  0  0  0  0  0  0  0  0
    8.1138   -0.6464    0.0000 H   0  0  0  0  0  0  0  0  0  0  0  0
    6.6963    0.8554    0.0000 H   0  0  0  0  0  0  0  0  0  0  0  0
    8.5284    2.3450    0.0000 H   0  0  0  0  0  0  0  0  0  0  0  0
    6.2464   -0.2631    0.0000 H   0  0  0  0  0  0  0  0  0  0  0  0
    7.0305   -2.7810    0.0000 H   0  0  0  0  0  0  0  0  0  0  0  0
    6.1597   -1.0605    0.0000 H   0  0  0  0  0  0  0  0  0  0  0  0
   10.6569   -0.1115    0.0000 H   0  0  0  0  0  0  0  0  0  0  0  0
   12.9327   -2.0317    0.0000 H   0  0  0  0  0  0  0  0  0  0  0  0
   12.6435   -4.6832    0.0000 H   0  0  0  0  0  0  0  0  0  0  0  0
    9.9668   -6.0380    0.0000 H   0  0  0  0  0  0  0  0  0  0  0  0
    7.4552   -4.3973    0.0000 H   0  0  0  0  0  0  0  0  0  0  0  0
    8.8675   -2.9911    0.0000 H   0  0  0  0  0  0  0  0  0  0  0  0
   10.9582   -0.5258    0.0000 H   0  0  0  0  0  0  0  0  0  0  0  0
   14.0395   -2.0044    0.0000 H   0  0  0  0  0  0  0  0  0  0  0  0
   12.8304   -3.3168    0.0000 H   0  0  0  0  0  0  0  0  0  0  0  0
   13.2205    1.0333    0.0000 H   0  0  0  0  0  0  0  0  0  0  0  0
   11.7298    0.0524    0.0000 H   0  0  0  0  0  0  0  0  0  0  0  0
   16.7063    1.2723    0.0000 H   0  0  0  0  0  0  0  0  0  0  0  0
   14.3175    2.2939    0.0000 H   0  0  0  0  0  0  0  0  0  0  0  0
   14.1058   -2.8384    0.0000 H   0  0  0  0  0  0  0  0  0  0  0  0
   11.8995   -5.4139    0.0000 H   0  0  0  0  0  0  0  0  0  0  0  0
   12.7165   -8.1120    0.0000 H   0  0  0  0  0  0  0  0  0  0  0  0
   11.8457   -6.3914    0.0000 H   0  0  0  0  0  0  0  0  0  0  0  0
   14.4796   -9.0509    0.0000 H   0  0  0  0  0  0  0  0  0  0  0  0
   14.3993   -8.2232    0.0000 H   0  0  0  0  0  0  0  0  0  0  0  0
   16.6442   -5.8568    0.0000 H   0  0  0  0  0  0  0  0  0  0  0  0
   19.6948   -7.5160    0.0000 H   0  0  0  0  0  0  0  0  0  0  0  0
   18.3348   -8.6712    0.0000 H   0  0  0  0  0  0  0  0  0  0  0  0
   20.3132   -5.6166    0.0000 H   0  0  0  0  0  0  0  0  0  0  0  0
   18.9065   -4.2977    0.0000 H   0  0  0  0  0  0  0  0  0  0  0  0
   17.4158   -5.2786    0.0000 H   0  0  0  0  0  0  0  0  0  0  0  0
  1  2  1  0
  2  3  1  0
  3  4  1  0
  4  5  1  0
  5  6  1  0
  6  7  1  0
  7  8  1  0
  8  9  1  0
  9 10  1  0
 10 11  1  0
 11 12  1  0
 12 13  2  0
 12 14  1  0
 15 14  1  6
 15 16  1  0
 16 17  1  0
 17 18  1  0
 18 19  1  0
 15 20  1  0
 15 21  1  0
 21 22  2  0
 21 23  1  0
 23 24  1  0
 24 25  1  0
 25 26  2  0
 25 27  1  0
 27 28  1  0
 28 29  1  0
 28 30  1  0
 30 31  2  0
 30 32  1  0
 32 33  1  0
 33 34  1  0
 34 35  1  0
 35 36  2  0
 36 37  1  0
 37 38  2  0
 38 39  1  0
 39 40  2  0
 33 41  1  0
 41 42  2  0
 41 43  1  0
 43 44  1  0
 44 45  1  0
 45 46  1  0
 46 47  1  0
 47 48  1  0
 44 49  1  0
 44 50  1  6
 50 51  2  0
 50 52  1  0
 52 53  1  0
 53 54  1  0
 54 55  1  0
 55 56  1  0
 55 57  2  0
 53 58  1  0
 58 59  2  0
 58 60  1  0
 60 61  1  0
 61 62  1  0
 62 63  1  0
 63 64  1  0
 63 65  1  0
 61 66  1  0
 66 67  2  0
 66 68  1  0
 68 69  1  0
 69 70  1  0
 70 71  1  0
 71 72  2  0
 72 73  1  0
 73 74  2  0
 74 75  1  0
 75 76  2  0
 69 77  1  0
 77 78  2  0
 77 79  1  0
 79 80  1  0
 80 81  1  0
 81 82  1  0
 82 83  1  0
 83 84  1  0
 83 85  2  0
 80 86  1  0
 86 87  2  0
 86 88  1  0
 88 89  1  0
 89 90  1  0
 90 91  1  0
 89 92  1  0
 92 93  2  0
 92 94  1  0
 94 95  1  0
 95 96  1  0
 96 97  1  0
 95 98  1  0
 98 99  2  0
 98100  1  0
 40 35  1  0
 76 71  1  0
 19 48  2  0
  1101  1  0
  1102  1  0
  2103  1  0
  2104  1  0
  3105  1  0
  3106  1  0
  5107  1  0
  5108  1  0
  7109  1  0
  7110  1  0
  8111  1  0
  8112  1  0
 10113  1  0
 10114  1  0
 11115  1  0
 11116  1  0
 14117  1  0
 16118  1  0
 16119  1  0
 17120  1  0
 17121  1  0
 18122  1  0
 18123  1  0
 19124  1  0
 20125  1  0
 20126  1  0
 20127  1  0
 23128  1  0
 24129  1  0
 24130  1  0
 27131  1  0
 28132  1  1
 29133  1  0
 29134  1  0
 29135  1  0
 32136  1  0
 33137  1  1
 34138  1  0
 34139  1  0
 36140  1  0
 37141  1  0
 38142  1  0
 39143  1  0
 40144  1  0
 43145  1  0
 45146  1  0
 45147  1  0
 46148  1  0
 46149  1  0
 47150  1  0
 47151  1  0
 48152  1  0
 49153  1  0
 49154  1  0
 49155  1  0
 52156  1  0
 53157  1  1
 54158  1  0
 54159  1  0
 56160  1  0
 56161  1  0
 60162  1  0
 61163  1  1
 62164  1  0
 62165  1  0
 63166  1  0
 64167  1  0
 64168  1  0
 64169  1  0
 65170  1  0
 65171  1  0
 65172  1  0
 68173  1  0
 69174  1  6
 70175  1  0
 70176  1  0
 72177  1  0
 73178  1  0
 74179  1  0
 75180  1  0
 76181  1  0
 79182  1  0
 80183  1  1
 81184  1  0
 81185  1  0
 82186  1  0
 82187  1  0
 84188  1  0
 84189  1  0
 88190  1  0
 89191  1  6
 90192  1  0
 90193  1  0
 91194  1  0
 94195  1  0
 95196  1  1
 96197  1  0
 96198  1  0
 97199  1  0
 97200  1  0
 97201  1  0
M  CHG  1 100  -1
M  END
