
     RDKit          2D

462468  0  0  0  0  0  0  0  0999 V2000
  -45.9163   -3.8306    0.0000 C   0  0  0  0  0  0  0  0  0  0  0  0
  -46.8121   -5.0337    0.0000 N   0  0  0  0  0  0  0  0  0  0  0  0
  -48.3019   -4.8594    0.0000 C   0  0  0  0  0  0  0  0  0  0  0  0
  -48.8960   -3.4821    0.0000 C   0  0  0  0  0  0  0  0  0  0  0  0
  -50.3858   -3.3078    0.0000 C   0  0  0  0  0  0  0  0  0  0  0  0
  -51.2816   -4.5109    0.0000 C   0  0  0  0  0  0  0  0  0  0  0  0
  -50.6876   -5.8883    0.0000 C   0  0  0  0  0  0  0  0  0  0  0  0
  -49.1978   -6.0626    0.0000 C   0  0  0  0  0  0  0  0  0  0  0  0
  -51.8140   -6.8789    0.0000 C   0  0  0  0  0  0  0  0  0  0  0  0
  -53.1042   -6.1137    0.0000 O   0  0  0  0  0  0  0  0  0  0  0  0
  -52.7751   -4.6502    0.0000 C   0  0  0  0  0  0  0  0  0  0  0  0
  -53.7657   -3.5238    0.0000 O   0  0  0  0  0  0  0  0  0  0  0  0
  -53.0378   -7.7463    0.0000 C   0  0  0  0  0  0  0  0  0  0  0  0
  -52.8985   -9.2398    0.0000 C   0  0  0  0  0  0  0  0  0  0  0  0
  -54.1222  -10.1072    0.0000 C   0  0  0  0  0  0  0  0  0  0  0  0
  -55.4853   -9.4811    0.0000 C   0  0  0  0  0  0  0  0  0  0  0  0
  -55.6246   -7.9876    0.0000 C   0  0  0  0  0  0  0  0  0  0  0  0
  -54.4009   -7.1202    0.0000 C   0  0  0  0  0  0  0  0  0  0  0  0
  -56.7091  -10.3485    0.0000 O   0  0  0  0  0  0  0  0  0  0  0  0
  -51.5354   -9.8659    0.0000 O   0  0  0  0  0  0  0  0  0  0  0  0
  -50.3116   -8.9985    0.0000 C   0  0  0  0  0  0  0  0  0  0  0  0
  -50.4509   -7.5050    0.0000 C   0  0  0  0  0  0  0  0  0  0  0  0
  -49.1622   -7.3346    0.0000 C   0  0  0  0  0  0  0  0  0  0  0  0
  -48.4352   -7.6685    0.0000 C   0  0  0  0  0  0  0  0  0  0  0  0
  -48.3609   -8.4650    0.0000 C   0  0  0  0  0  0  0  0  0  0  0  0
  -49.0136   -8.9276    0.0000 C   0  0  0  0  0  0  0  0  0  0  0  0
  -46.3617   -9.3833    0.0000 O   0  0  0  0  0  0  0  0  0  0  0  0
  -46.5103   -2.4532    0.0000 S   0  0  0  0  0  0  0  0  0  0  0  0
  -44.4264   -4.0048    0.0000 N   0  0  0  0  0  0  0  0  0  0  0  0
  -43.5306   -2.8017    0.0000 C   0  0  0  0  0  0  0  0  0  0  0  0
  -42.0408   -2.9760    0.0000 C   0  0  0  0  0  0  0  0  0  0  0  0
  -41.1449   -1.7728    0.0000 C   0  0  0  0  0  0  0  0  0  0  0  0
  -41.7389   -0.3955    0.0000 O   0  0  0  0  0  0  0  0  0  0  0  0
  -39.6551   -1.9471    0.0000 N   0  0  0  0  0  0  0  0  0  0  0  0
  -38.7592   -0.7440    0.0000 C   0  0  0  0  0  0  0  0  0  0  0  0
  -38.3289    0.6930    0.0000 C   0  0  0  0  0  0  0  0  0  0  0  0
  -37.2026    1.6837    0.0000 O   0  0  0  0  0  0  0  0  0  0  0  0
  -37.2694   -0.9182    0.0000 C   0  0  0  0  0  0  0  0  0  0  0  0
  -36.8477   -2.3577    0.0000 O   0  0  0  0  0  0  0  0  0  0  0  0
  -36.3736    0.2849    0.0000 N   0  0  0  0  0  0  0  0  0  0  0  0
  -34.8837    0.1106    0.0000 C   0  0  0  0  0  0  0  0  0  0  0  0
  -34.0286   -1.1217    0.0000 C   0  0  0  0  0  0  0  0  0  0  0  0
  -32.8482   -2.0473    0.0000 C   0  0  0  0  0  0  0  0  0  0  0  0
  -31.4474   -2.5838    0.0000 C   0  0  0  0  0  0  0  0  0  0  0  0
  -29.9507   -2.6835    0.0000 C   0  0  0  0  0  0  0  0  0  0  0  0
  -35.8064   -1.0721    0.0000 C   0  0  0  0  0  0  0  0  0  0  0  0
  -35.3377    1.5403    0.0000 C   0  0  0  0  0  0  0  0  0  0  0  0
  -36.2201    1.6169    0.0000 O   0  0  0  0  0  0  0  0  0  0  0  0
  -35.3500    3.0403    0.0000 N   0  0  0  0  0  0  0  0  0  0  0  0
  -34.9197    4.4772    0.0000 C   0  0  0  0  0  0  0  0  0  0  0  0
  -35.7124    5.7507    0.0000 C   0  0  0  0  0  0  0  0  0  0  0  0
  -37.2115    5.7009    0.0000 C   0  0  0  0  0  0  0  0  0  0  0  0
  -38.0042    6.9744    0.0000 C   0  0  0  0  0  0  0  0  0  0  0  0
  -39.5034    6.9246    0.0000 O   0  0  0  0  0  0  0  0  0  0  0  0
  -37.2977    8.2976    0.0000 O   0  0  0  0  0  0  0  0  0  0  0  0
  -34.0849    5.7235    0.0000 C   0  0  0  0  0  0  0  0  0  0  0  0
  -35.1929    6.7346    0.0000 O   0  0  0  0  0  0  0  0  0  0  0  0
  -32.9199    6.6683    0.0000 N   0  0  0  0  0  0  0  0  0  0  0  0
  -31.5282    7.2278    0.0000 C   0  0  0  0  0  0  0  0  0  0  0  0
  -31.0268    8.6415    0.0000 C   0  0  0  0  0  0  0  0  0  0  0  0
  -32.0004    9.7826    0.0000 C   0  0  0  0  0  0  0  0  0  0  0  0
  -31.4990   11.1963    0.0000 C   0  0  0  0  0  0  0  0  0  0  0  0
  -33.3056   10.5219    0.0000 C   0  0  0  0  0  0  0  0  0  0  0  0
  -30.0334    7.3522    0.0000 C   0  0  0  0  0  0  0  0  0  0  0  0
  -29.9336    8.8489    0.0000 O   0  0  0  0  0  0  0  0  0  0  0  0
  -28.5683    7.0305    0.0000 N   0  0  0  0  0  0  0  0  0  0  0  0
  -27.2631    6.2912    0.0000 C   0  0  0  0  0  0  0  0  0  0  0  0
  -25.8452    6.7807    0.0000 C   0  0  0  0  0  0  0  0  0  0  0  0
  -25.5601    8.2533    0.0000 C   0  0  0  0  0  0  0  0  0  0  0  0
  -26.2338    5.2001    0.0000 C   0  0  0  0  0  0  0  0  0  0  0  0
  -25.0015    6.0553    0.0000 O   0  0  0  0  0  0  0  0  0  0  0  0
  -25.5719    3.8540    0.0000 N   0  0  0  0  0  0  0  0  0  0  0  0
  -25.3361    2.3727    0.0000 C   0  0  0  0  0  0  0  0  0  0  0  0
  -25.5475    0.8877    0.0000 C   0  0  0  0  0  0  0  0  0  0  0  0
  -26.1871   -0.4691    0.0000 C   0  0  0  0  0  0  0  0  0  0  0  0
  -27.1983   -1.5771    0.0000 C   0  0  0  0  0  0  0  0  0  0  0  0
  -28.4911   -2.3377    0.0000 C   0  0  0  0  0  0  0  0  0  0  0  0
  -24.0828    3.1969    0.0000 C   0  0  0  0  0  0  0  0  0  0  0  0
  -24.0694    1.5693    0.0000 C   0  0  0  0  0  0  0  0  0  0  0  0
  -23.7673    0.1000    0.0000 O   0  0  0  0  0  0  0  0  0  0  0  0
  -22.7403    2.2646    0.0000 N   0  0  0  0  0  0  0  0  0  0  0  0
  -21.4736    1.4611    0.0000 C   0  0  0  0  0  0  0  0  0  0  0  0
  -20.5581    0.2729    0.0000 C   0  0  0  0  0  0  0  0  0  0  0  0
  -21.1293   -1.1140    0.0000 C   0  0  0  0  0  0  0  0  0  0  0  0
  -20.2138   -2.3022    0.0000 C   0  0  0  0  0  0  0  0  0  0  0  0
  -20.7850   -3.6892    0.0000 O   0  0  0  0  0  0  0  0  0  0  0  0
  -18.7270   -2.1035    0.0000 O   0  0  0  0  0  0  0  0  0  0  0  0
  -20.1445    2.1564    0.0000 C   0  0  0  0  0  0  0  0  0  0  0  0
  -20.0820    3.6551    0.0000 O   0  0  0  0  0  0  0  0  0  0  0  0
  -18.8778    1.3530    0.0000 N   0  0  0  0  0  0  0  0  0  0  0  0
  -17.5486    2.0483    0.0000 C   0  0  0  0  0  0  0  0  0  0  0  0
  -16.5375    3.1562    0.0000 C   0  0  0  0  0  0  0  0  0  0  0  0
  -16.2819    1.2449    0.0000 C   0  0  0  0  0  0  0  0  0  0  0  0
  -16.3444   -0.2538    0.0000 O   0  0  0  0  0  0  0  0  0  0  0  0
  -14.9528    1.9402    0.0000 N   0  0  0  0  0  0  0  0  0  0  0  0
  -13.6861    1.1368    0.0000 C   0  0  0  0  0  0  0  0  0  0  0  0
  -12.7706   -0.0514    0.0000 C   0  0  0  0  0  0  0  0  0  0  0  0
  -13.3418   -1.4384    0.0000 C   0  0  0  0  0  0  0  0  0  0  0  0
  -12.5555   -2.7158    0.0000 C   0  0  0  0  0  0  0  0  0  0  0  0
  -13.5274   -3.8584    0.0000 N   0  0  0  0  0  0  0  0  0  0  0  0
  -14.9144   -3.2871    0.0000 C   0  0  0  0  0  0  0  0  0  0  0  0
  -14.7997   -1.7915    0.0000 N   0  0  0  0  0  0  0  0  0  0  0  0
  -12.3570    1.8320    0.0000 C   0  0  0  0  0  0  0  0  0  0  0  0
  -12.2946    3.3307    0.0000 O   0  0  0  0  0  0  0  0  0  0  0  0
  -11.0903    1.0286    0.0000 N   0  0  0  0  0  0  0  0  0  0  0  0
   -9.7612    1.7239    0.0000 C   0  0  0  0  0  0  0  0  0  0  0  0
   -8.7500    2.8319    0.0000 C   0  0  0  0  0  0  0  0  0  0  0  0
   -7.2849    2.5101    0.0000 C   0  0  0  0  0  0  0  0  0  0  0  0
   -6.2737    3.6181    0.0000 N   0  0  0  0  0  0  0  0  0  0  0  0
   -6.8670    1.8313    0.0000 O   0  0  0  0  0  0  0  0  0  0  0  0
   -8.4945    0.9205    0.0000 C   0  0  0  0  0  0  0  0  0  0  0  0
   -8.5569   -0.5782    0.0000 O   0  0  0  0  0  0  0  0  0  0  0  0
   -7.1653    1.6158    0.0000 N   0  0  0  0  0  0  0  0  0  0  0  0
   -5.8986    0.8124    0.0000 C   0  0  0  0  0  0  0  0  0  0  0  0
   -4.9831   -0.3758    0.0000 C   0  0  0  0  0  0  0  0  0  0  0  0
   -3.4963   -0.1771    0.0000 C   0  0  0  0  0  0  0  0  0  0  0  0
   -2.5808   -1.3653    0.0000 C   0  0  0  0  0  0  0  0  0  0  0  0
   -2.1672    0.5182    0.0000 C   0  0  0  0  0  0  0  0  0  0  0  0
   -4.5695    1.5076    0.0000 C   0  0  0  0  0  0  0  0  0  0  0  0
   -4.3249    2.9876    0.0000 O   0  0  0  0  0  0  0  0  0  0  0  0
   -3.3028    0.7042    0.0000 N   0  0  0  0  0  0  0  0  0  0  0  0
   -1.9737    1.3995    0.0000 C   0  0  0  0  0  0  0  0  0  0  0  0
   -0.9625    2.5075    0.0000 C   0  0  0  0  0  0  0  0  0  0  0  0
    0.5205    2.7323    0.0000 S   0  0  0  0  0  0  0  0  0  0  0  0
   -0.7070    0.5961    0.0000 C   0  0  0  0  0  0  0  0  0  0  0  0
   -0.4049   -0.8732    0.0000 O   0  0  0  0  0  0  0  0  0  0  0  0
    0.6221    1.2914    0.0000 N   0  0  0  0  0  0  0  0  0  0  0  0
    1.8888    0.4880    0.0000 C   0  0  0  0  0  0  0  0  0  0  0  0
    2.8044   -0.7002    0.0000 C   0  0  0  0  0  0  0  0  0  0  0  0
    3.9637   -1.6521    0.0000 O   0  0  0  0  0  0  0  0  0  0  0  0
    2.2331   -2.0872    0.0000 C   0  0  0  0  0  0  0  0  0  0  0  0
    3.2180    1.1833    0.0000 C   0  0  0  0  0  0  0  0  0  0  0  0
    3.2804    2.6820    0.0000 O   0  0  0  0  0  0  0  0  0  0  0  0
    4.4847    0.3798    0.0000 N   0  0  0  0  0  0  0  0  0  0  0  0
    5.8138    1.0751    0.0000 C   0  0  0  0  0  0  0  0  0  0  0  0
    6.8250    2.1831    0.0000 C   0  0  0  0  0  0  0  0  0  0  0  0
    8.2900    1.8613    0.0000 C   0  0  0  0  0  0  0  0  0  0  0  0
    9.3012    2.9693    0.0000 C   0  0  0  0  0  0  0  0  0  0  0  0
    9.5567    1.0579    0.0000 C   0  0  0  0  0  0  0  0  0  0  0  0
    7.0805    0.2717    0.0000 C   0  0  0  0  0  0  0  0  0  0  0  0
    7.0181   -1.2270    0.0000 O   0  0  0  0  0  0  0  0  0  0  0  0
    8.4096    0.9670    0.0000 N   0  0  0  0  0  0  0  0  0  0  0  0
    9.6763    0.1636    0.0000 C   0  0  0  0  0  0  0  0  0  0  0  0
   10.5918   -1.0246    0.0000 C   0  0  0  0  0  0  0  0  0  0  0  0
   10.0206   -2.4116    0.0000 C   0  0  0  0  0  0  0  0  0  0  0  0
   10.9361   -3.5998    0.0000 C   0  0  0  0  0  0  0  0  0  0  0  0
    9.0094   -3.5195    0.0000 C   0  0  0  0  0  0  0  0  0  0  0  0
   11.0054    0.8589    0.0000 C   0  0  0  0  0  0  0  0  0  0  0  0
   11.2501    2.3388    0.0000 O   0  0  0  0  0  0  0  0  0  0  0  0
   12.2721    0.0554    0.0000 N   0  0  0  0  0  0  0  0  0  0  0  0
   13.6013    0.7507    0.0000 C   0  0  0  0  0  0  0  0  0  0  0  0
   14.6124    1.8587    0.0000 C   0  0  0  0  0  0  0  0  0  0  0  0
   16.0775    1.5369    0.0000 C   0  0  0  0  0  0  0  0  0  0  0  0
   17.0887    2.6449    0.0000 C   0  0  0  0  0  0  0  0  0  0  0  0
   18.5821    2.5042    0.0000 O   0  0  0  0  0  0  0  0  0  0  0  0
   16.6348    4.0746    0.0000 O   0  0  0  0  0  0  0  0  0  0  0  0
   14.8680   -0.0527    0.0000 C   0  0  0  0  0  0  0  0  0  0  0  0
   14.8055   -1.5514    0.0000 O   0  0  0  0  0  0  0  0  0  0  0  0
   16.1971    0.6426    0.0000 N   0  0  0  0  0  0  0  0  0  0  0  0
   17.4638   -0.1608    0.0000 C   0  0  0  0  0  0  0  0  0  0  0  0
   18.3793   -1.3490    0.0000 C   0  0  0  0  0  0  0  0  0  0  0  0
   17.8081   -2.7360    0.0000 C   0  0  0  0  0  0  0  0  0  0  0  0
   18.7236   -3.9242    0.0000 N   0  0  0  0  0  0  0  0  0  0  0  0
   16.3213   -2.9347    0.0000 O   0  0  0  0  0  0  0  0  0  0  0  0
   18.7929    0.5345    0.0000 C   0  0  0  0  0  0  0  0  0  0  0  0
   19.0376    2.0144    0.0000 O   0  0  0  0  0  0  0  0  0  0  0  0
   20.0596   -0.2689    0.0000 N   0  0  0  0  0  0  0  0  0  0  0  0
   21.3887    0.4263    0.0000 C   0  0  0  0  0  0  0  0  0  0  0  0
   22.3999    1.5343    0.0000 C   0  0  0  0  0  0  0  0  0  0  0  0
   22.6554   -0.3771    0.0000 C   0  0  0  0  0  0  0  0  0  0  0  0
   22.5930   -1.8758    0.0000 O   0  0  0  0  0  0  0  0  0  0  0  0
   23.9846    0.3182    0.0000 N   0  0  0  0  0  0  0  0  0  0  0  0
   25.2513   -0.4852    0.0000 C   0  0  0  0  0  0  0  0  0  0  0  0
   26.1668   -1.6734    0.0000 C   0  0  0  0  0  0  0  0  0  0  0  0
   25.4307   -2.9804    0.0000 C   0  0  0  0  0  0  0  0  0  0  0  0
   27.4335   -2.4768    0.0000 C   0  0  0  0  0  0  0  0  0  0  0  0
   27.3711   -3.9755    0.0000 C   0  0  0  0  0  0  0  0  0  0  0  0
   26.5804    0.2101    0.0000 C   0  0  0  0  0  0  0  0  0  0  0  0
   26.6428    1.7088    0.0000 O   0  0  0  0  0  0  0  0  0  0  0  0
   27.8471   -0.5933    0.0000 N   0  0  0  0  0  0  0  0  0  0  0  0
   29.1762    0.1020    0.0000 C   0  0  0  0  0  0  0  0  0  0  0  0
   30.1874    1.2099    0.0000 C   0  0  0  0  0  0  0  0  0  0  0  0
   31.6525    0.8882    0.0000 C   0  0  0  0  0  0  0  0  0  0  0  0
   32.6636    1.9961    0.0000 C   0  0  0  0  0  0  0  0  0  0  0  0
   34.1570    1.8554    0.0000 N   0  0  0  0  0  0  0  0  0  0  0  0
   32.2097    3.4258    0.0000 O   0  0  0  0  0  0  0  0  0  0  0  0
   30.4429   -0.7015    0.0000 C   0  0  0  0  0  0  0  0  0  0  0  0
   30.3805   -2.2002    0.0000 O   0  0  0  0  0  0  0  0  0  0  0  0
   31.7720   -0.0062    0.0000 N   0  0  0  0  0  0  0  0  0  0  0  0
   33.0387   -0.8096    0.0000 C   0  0  0  0  0  0  0  0  0  0  0  0
   33.9543   -1.9978    0.0000 C   0  0  0  0  0  0  0  0  0  0  0  0
   33.3830   -3.3848    0.0000 C   0  0  0  0  0  0  0  0  0  0  0  0
   34.2985   -4.5730    0.0000 O   0  0  0  0  0  0  0  0  0  0  0  0
   31.8962   -3.5835    0.0000 O   0  0  0  0  0  0  0  0  0  0  0  0
   34.3679   -0.1143    0.0000 C   0  0  0  0  0  0  0  0  0  0  0  0
   34.6125    1.3656    0.0000 O   0  0  0  0  0  0  0  0  0  0  0  0
   35.6346   -0.9177    0.0000 N   0  0  0  0  0  0  0  0  0  0  0  0
   36.9637   -0.2224    0.0000 C   0  0  0  0  0  0  0  0  0  0  0  0
   37.9749    0.8855    0.0000 C   0  0  0  0  0  0  0  0  0  0  0  0
   38.5461    2.2725    0.0000 O   0  0  0  0  0  0  0  0  0  0  0  0
   39.4682    0.7448    0.0000 C   0  0  0  0  0  0  0  0  0  0  0  0
   38.2304   -1.0259    0.0000 C   0  0  0  0  0  0  0  0  0  0  0  0
   38.1680   -2.5246    0.0000 O   0  0  0  0  0  0  0  0  0  0  0  0
   39.5595   -0.3306    0.0000 N   0  0  0  0  0  0  0  0  0  0  0  0
   40.8262   -1.1340    0.0000 C   0  0  0  0  0  0  0  0  0  0  0  0
   41.7417   -2.3222    0.0000 C   0  0  0  0  0  0  0  0  0  0  0  0
   41.1705   -3.7092    0.0000 C   0  0  0  0  0  0  0  0  0  0  0  0
   42.1553   -0.4387    0.0000 C   0  0  0  0  0  0  0  0  0  0  0  0
   42.2178    1.0600    0.0000 O   0  0  0  0  0  0  0  0  0  0  0  0
   43.4220   -1.2421    0.0000 N   0  0  0  0  0  0  0  0  0  0  0  0
   44.7512   -0.5468    0.0000 C   0  0  0  0  0  0  0  0  0  0  0  0
   45.7623    0.5611    0.0000 C   0  0  0  0  0  0  0  0  0  0  0  0
   47.2274    0.2394    0.0000 C   0  0  0  0  0  0  0  0  0  0  0  0
   48.2386    1.3473    0.0000 C   0  0  0  0  0  0  0  0  0  0  0  0
   49.7037    1.0256    0.0000 N   0  0  0  0  0  0  0  0  0  0  0  0
   50.7149    2.1335    0.0000 C   0  0  0  0  0  0  0  0  0  0  0  0
   52.1298    1.6356    0.0000 N   0  0  0  0  0  0  0  0  0  0  0  0
   50.2609    3.5632    0.0000 N   0  0  0  0  0  0  0  0  0  0  0  0
   46.0179   -1.3502    0.0000 C   0  0  0  0  0  0  0  0  0  0  0  0
   45.9554   -2.8489    0.0000 O   0  0  0  0  0  0  0  0  0  0  0  0
   47.3470   -0.6550    0.0000 N   0  0  0  0  0  0  0  0  0  0  0  0
   48.6137   -1.4584    0.0000 C   0  0  0  0  0  0  0  0  0  0  0  0
   49.5292   -2.6466    0.0000 C   0  0  0  0  0  0  0  0  0  0  0  0
   48.9580   -4.0335    0.0000 C   0  0  0  0  0  0  0  0  0  0  0  0
   49.8735   -5.2217    0.0000 C   0  0  0  0  0  0  0  0  0  0  0  0
   49.3022   -6.6087    0.0000 O   0  0  0  0  0  0  0  0  0  0  0  0
   51.3603   -5.0230    0.0000 O   0  0  0  0  0  0  0  0  0  0  0  0
   49.9428   -0.7631    0.0000 C   0  0  0  0  0  0  0  0  0  0  0  0
   50.3660    0.6760    0.0000 O   0  0  0  0  0  0  0  0  0  0  0  0
   51.2095   -1.5665    0.0000 N   0  0  0  0  0  0  0  0  0  0  0  0
   52.5386   -0.8712    0.0000 C   0  0  0  0  0  0  0  0  0  0  0  0
   53.5498    0.2367    0.0000 C   0  0  0  0  0  0  0  0  0  0  0  0
   55.0149   -0.0850    0.0000 C   0  0  0  0  0  0  0  0  0  0  0  0
   56.0261    1.0229    0.0000 C   0  0  0  0  0  0  0  0  0  0  0  0
   57.4912    0.7012    0.0000 N   0  0  0  0  0  0  0  0  0  0  0  0
   55.5721    2.4526    0.0000 O   0  0  0  0  0  0  0  0  0  0  0  0
   53.8053   -1.6746    0.0000 C   0  0  0  0  0  0  0  0  0  0  0  0
   55.2093   -1.1466    0.0000 O   0  0  0  0  0  0  0  0  0  0  0  0
   53.7429   -3.1733    0.0000 O   0  0  0  0  0  0  0  0  0  0  0  0
  -46.0546   -6.3284    0.0000 H   0  0  0  0  0  0  0  0  0  0  0  0
  -48.0001   -2.2789    0.0000 H   0  0  0  0  0  0  0  0  0  0  0  0
  -50.9798   -1.9304    0.0000 H   0  0  0  0  0  0  0  0  0  0  0  0
  -48.2881   -7.2553    0.0000 H   0  0  0  0  0  0  0  0  0  0  0  0
  -53.9829  -11.6007    0.0000 H   0  0  0  0  0  0  0  0  0  0  0  0
  -56.9877   -7.3615    0.0000 H   0  0  0  0  0  0  0  0  0  0  0  0
  -54.5402   -5.6266    0.0000 H   0  0  0  0  0  0  0  0  0  0  0  0
  -58.0722   -9.7224    0.0000 H   0  0  0  0  0  0  0  0  0  0  0  0
  -49.3665   -5.1441    0.0000 H   0  0  0  0  0  0  0  0  0  0  0  0
  -46.5437   -6.5519    0.0000 H   0  0  0  0  0  0  0  0  0  0  0  0
  -48.8092  -11.1181    0.0000 H   0  0  0  0  0  0  0  0  0  0  0  0
  -46.2224  -10.8768    0.0000 H   0  0  0  0  0  0  0  0  0  0  0  0
  -43.8324   -5.3822    0.0000 H   0  0  0  0  0  0  0  0  0  0  0  0
  -43.1003   -1.3648    0.0000 H   0  0  0  0  0  0  0  0  0  0  0  0
  -44.8710   -2.1284    0.0000 H   0  0  0  0  0  0  0  0  0  0  0  0
  -40.7004   -3.6493    0.0000 H   0  0  0  0  0  0  0  0  0  0  0  0
  -42.4711   -4.4129    0.0000 H   0  0  0  0  0  0  0  0  0  0  0  0
  -39.0611   -3.3245    0.0000 H   0  0  0  0  0  0  0  0  0  0  0  0
  -40.0996   -0.0707    0.0000 H   0  0  0  0  0  0  0  0  0  0  0  0
  -38.4160    2.1904    0.0000 H   0  0  0  0  0  0  0  0  0  0  0  0
  -39.8188    0.8672    0.0000 H   0  0  0  0  0  0  0  0  0  0  0  0
  -36.5413    2.5629    0.0000 H   0  0  0  0  0  0  0  0  0  0  0  0
  -36.9676    1.6623    0.0000 H   0  0  0  0  0  0  0  0  0  0  0  0
  -35.4594   -1.5721    0.0000 H   0  0  0  0  0  0  0  0  0  0  0  0
  -34.3867   -2.5783    0.0000 H   0  0  0  0  0  0  0  0  0  0  0  0
  -33.9696   -3.0435    0.0000 H   0  0  0  0  0  0  0  0  0  0  0  0
  -32.9442   -3.5442    0.0000 H   0  0  0  0  0  0  0  0  0  0  0  0
  -32.3758   -3.7619    0.0000 H   0  0  0  0  0  0  0  0  0  0  0  0
  -30.9228   -3.9890    0.0000 H   0  0  0  0  0  0  0  0  0  0  0  0
  -29.8263   -4.1784    0.0000 H   0  0  0  0  0  0  0  0  0  0  0  0
  -35.2956   -2.6578    0.0000 H   0  0  0  0  0  0  0  0  0  0  0  0
  -36.6850   -2.2363    0.0000 H   0  0  0  0  0  0  0  0  0  0  0  0
  -36.9718   -0.4562    0.0000 H   0  0  0  0  0  0  0  0  0  0  0  0
  -36.7982    3.4310    0.0000 H   0  0  0  0  0  0  0  0  0  0  0  0
  -36.3711    4.0987    0.0000 H   0  0  0  0  0  0  0  0  0  0  0  0
  -36.0217    7.2184    0.0000 H   0  0  0  0  0  0  0  0  0  0  0  0
  -34.4973    6.6303    0.0000 H   0  0  0  0  0  0  0  0  0  0  0  0
  -38.6033    5.1414    0.0000 H   0  0  0  0  0  0  0  0  0  0  0  0
  -37.0834    4.2064    0.0000 H   0  0  0  0  0  0  0  0  0  0  0  0
  -38.0904    9.5710    0.0000 H   0  0  0  0  0  0  0  0  0  0  0  0
  -33.6806    7.9612    0.0000 H   0  0  0  0  0  0  0  0  0  0  0  0
  -32.7291    8.1266    0.0000 H   0  0  0  0  0  0  0  0  0  0  0  0
  -29.9382    9.6735    0.0000 H   0  0  0  0  0  0  0  0  0  0  0  0
  -29.5815    8.2401    0.0000 H   0  0  0  0  0  0  0  0  0  0  0  0
  -33.0890    8.7507    0.0000 H   0  0  0  0  0  0  0  0  0  0  0  0
  -32.3262   12.4476    0.0000 H   0  0  0  0  0  0  0  0  0  0  0  0
  -30.5443   12.3533    0.0000 H   0  0  0  0  0  0  0  0  0  0  0  0
  -30.1134   10.6217    0.0000 H   0  0  0  0  0  0  0  0  0  0  0  0
  -33.5007   12.0092    0.0000 H   0  0  0  0  0  0  0  0  0  0  0  0
  -34.7849   10.7702    0.0000 H   0  0  0  0  0  0  0  0  0  0  0  0
  -33.8070    9.1082    0.0000 H   0  0  0  0  0  0  0  0  0  0  0  0
  -28.0318    8.4313    0.0000 H   0  0  0  0  0  0  0  0  0  0  0  0
  -27.3091    7.7905    0.0000 H   0  0  0  0  0  0  0  0  0  0  0  0
  -24.3454    6.7556    0.0000 H   0  0  0  0  0  0  0  0  0  0  0  0
  -25.2580    5.4004    0.0000 H   0  0  0  0  0  0  0  0  0  0  0  0
  -24.1422    8.7427    0.0000 H   0  0  0  0  0  0  0  0  0  0  0  0
  -25.7959    9.7347    0.0000 H   0  0  0  0  0  0  0  0  0  0  0  0
  -27.0456    8.4610    0.0000 H   0  0  0  0  0  0  0  0  0  0  0  0
  -24.1422    4.3080    0.0000 H   0  0  0  0  0  0  0  0  0  0  0  0
  -24.5738   -0.2534    0.0000 H   0  0  0  0  0  0  0  0  0  0  0  0
  -24.0485    0.9448    0.0000 H   0  0  0  0  0  0  0  0  0  0  0  0
  -25.4296   -1.7638    0.0000 H   0  0  0  0  0  0  0  0  0  0  0  0
  -24.7380   -0.8563    0.0000 H   0  0  0  0  0  0  0  0  0  0  0  0
  -27.0367   -3.0683    0.0000 H   0  0  0  0  0  0  0  0  0  0  0  0
  -25.8400   -2.2134    0.0000 H   0  0  0  0  0  0  0  0  0  0  0  0
  -27.9316   -3.7295    0.0000 H   0  0  0  0  0  0  0  0  0  0  0  0
  -22.6193    2.8679    0.0000 H   0  0  0  0  0  0  0  0  0  0  0  0
  -23.3403    4.5002    0.0000 H   0  0  0  0  0  0  0  0  0  0  0  0
  -24.8175    4.5046    0.0000 H   0  0  0  0  0  0  0  0  0  0  0  0
  -22.4956    3.7445    0.0000 H   0  0  0  0  0  0  0  0  0  0  0  0
  -22.6123    0.4847    0.0000 H   0  0  0  0  0  0  0  0  0  0  0  0
  -19.3988   -0.6789    0.0000 H   0  0  0  0  0  0  0  0  0  0  0  0
  -19.3089    1.1033    0.0000 H   0  0  0  0  0  0  0  0  0  0  0  0
  -22.1405   -2.2220    0.0000 H   0  0  0  0  0  0  0  0  0  0  0  0
  -22.4845   -0.4710    0.0000 H   0  0  0  0  0  0  0  0  0  0  0  0
  -17.8115   -3.2917    0.0000 H   0  0  0  0  0  0  0  0  0  0  0  0
  -18.7570   -0.1421    0.0000 H   0  0  0  0  0  0  0  0  0  0  0  0
  -18.4642    3.2365    0.0000 H   0  0  0  0  0  0  0  0  0  0  0  0
  -15.0544    3.3810    0.0000 H   0  0  0  0  0  0  0  0  0  0  0  0
  -15.9662    4.5432    0.0000 H   0  0  0  0  0  0  0  0  0  0  0  0
  -17.8042    3.9597    0.0000 H   0  0  0  0  0  0  0  0  0  0  0  0
  -14.7082    3.4201    0.0000 H   0  0  0  0  0  0  0  0  0  0  0  0
  -14.6973    0.0288    0.0000 H   0  0  0  0  0  0  0  0  0  0  0  0
  -11.6113   -1.0033    0.0000 H   0  0  0  0  0  0  0  0  0  0  0  0
  -11.5214    0.7789    0.0000 H   0  0  0  0  0  0  0  0  0  0  0  0
  -11.0599   -2.8305    0.0000 H   0  0  0  0  0  0  0  0  0  0  0  0
  -13.1743   -5.3162    0.0000 H   0  0  0  0  0  0  0  0  0  0  0  0
  -16.1918   -4.0734    0.0000 H   0  0  0  0  0  0  0  0  0  0  0  0
  -10.9696   -0.4665    0.0000 H   0  0  0  0  0  0  0  0  0  0  0  0
  -10.6767    2.9121    0.0000 H   0  0  0  0  0  0  0  0  0  0  0  0
   -8.1787    4.2188    0.0000 H   0  0  0  0  0  0  0  0  0  0  0  0
  -10.0167    3.6353    0.0000 H   0  0  0  0  0  0  0  0  0  0  0  0
   -4.7804    3.4773    0.0000 H   0  0  0  0  0  0  0  0  0  0  0  0
   -6.7277    5.0477    0.0000 H   0  0  0  0  0  0  0  0  0  0  0  0
   -6.7421    3.0548    0.0000 H   0  0  0  0  0  0  0  0  0  0  0  0
   -6.9098   -0.2956    0.0000 H   0  0  0  0  0  0  0  0  0  0  0  0
   -4.7069   -1.8502    0.0000 H   0  0  0  0  0  0  0  0  0  0  0  0
   -6.3122   -1.0711    0.0000 H   0  0  0  0  0  0  0  0  0  0  0  0
   -3.2258    1.2983    0.0000 H   0  0  0  0  0  0  0  0  0  0  0  0
   -1.0901   -1.5322    0.0000 H   0  0  0  0  0  0  0  0  0  0  0  0
   -2.1269   -2.7949    0.0000 H   0  0  0  0  0  0  0  0  0  0  0  0
   -3.8153   -2.2174    0.0000 H   0  0  0  0  0  0  0  0  0  0  0  0
   -0.9005   -0.2852    0.0000 H   0  0  0  0  0  0  0  0  0  0  0  0
   -1.1560    1.6262    0.0000 H   0  0  0  0  0  0  0  0  0  0  0  0
   -3.2208    1.5860    0.0000 H   0  0  0  0  0  0  0  0  0  0  0  0
   -3.0007   -0.7650    0.0000 H   0  0  0  0  0  0  0  0  0  0  0  0
   -2.7375    2.6905    0.0000 H   0  0  0  0  0  0  0  0  0  0  0  0
   -0.3913    3.8944    0.0000 H   0  0  0  0  0  0  0  0  0  0  0  0
   -2.2292    3.3109    0.0000 H   0  0  0  0  0  0  0  0  0  0  0  0
    1.5137    3.2937    0.0000 H   0  0  0  0  0  0  0  0  0  0  0  0
    0.8668    2.7713    0.0000 H   0  0  0  0  0  0  0  0  0  0  0  0
    0.7502   -0.4885    0.0000 H   0  0  0  0  0  0  0  0  0  0  0  0
    4.0536    0.1301    0.0000 H   0  0  0  0  0  0  0  0  0  0  0  0
    4.1918   -2.9988    0.0000 H   0  0  0  0  0  0  0  0  0  0  0  0
    2.9970   -3.3781    0.0000 H   0  0  0  0  0  0  0  0  0  0  0  0
    1.2219   -3.1951    0.0000 H   0  0  0  0  0  0  0  0  0  0  0  0
    0.8779   -1.4442    0.0000 H   0  0  0  0  0  0  0  0  0  0  0  0
    4.6054   -1.1153    0.0000 H   0  0  0  0  0  0  0  0  0  0  0  0
    4.8983    2.2633    0.0000 H   0  0  0  0  0  0  0  0  0  0  0  0
    7.2229    3.6293    0.0000 H   0  0  0  0  0  0  0  0  0  0  0  0
    5.5583    2.9865    0.0000 H   0  0  0  0  0  0  0  0  0  0  0  0
    8.4370    0.3686    0.0000 H   0  0  0  0  0  0  0  0  0  0  0  0
   10.8006    3.0116    0.0000 H   0  0  0  0  0  0  0  0  0  0  0  0
    9.8725    4.3562    0.0000 H   0  0  0  0  0  0  0  0  0  0  0  0
    8.1419    3.9211    0.0000 H   0  0  0  0  0  0  0  0  0  0  0  0
    9.8588   -0.4113    0.0000 H   0  0  0  0  0  0  0  0  0  0  0  0
   11.0398    1.2827    0.0000 H   0  0  0  0  0  0  0  0  0  0  0  0
   10.2928    2.3649    0.0000 H   0  0  0  0  0  0  0  0  0  0  0  0
    8.8328    2.4061    0.0000 H   0  0  0  0  0  0  0  0  0  0  0  0
    8.5376   -0.8128    0.0000 H   0  0  0  0  0  0  0  0  0  0  0  0
   11.8585   -1.8280    0.0000 H   0  0  0  0  0  0  0  0  0  0  0  0
   11.9329   -0.3527    0.0000 H   0  0  0  0  0  0  0  0  0  0  0  0
    8.6654   -1.7686    0.0000 H   0  0  0  0  0  0  0  0  0  0  0  0
   10.5382   -5.0460    0.0000 H   0  0  0  0  0  0  0  0  0  0  0  0
   12.2028   -4.4032    0.0000 H   0  0  0  0  0  0  0  0  0  0  0  0
   12.0748   -2.6234    0.0000 H   0  0  0  0  0  0  0  0  0  0  0  0
    9.2857   -4.9939    0.0000 H   0  0  0  0  0  0  0  0  0  0  0  0
    7.6803   -4.2148    0.0000 H   0  0  0  0  0  0  0  0  0  0  0  0
    8.0939   -2.3313    0.0000 H   0  0  0  0  0  0  0  0  0  0  0  0
   12.3929   -1.4397    0.0000 H   0  0  0  0  0  0  0  0  0  0  0  0
   12.6857    1.9389    0.0000 H   0  0  0  0  0  0  0  0  0  0  0  0
   15.1837    3.2456    0.0000 H   0  0  0  0  0  0  0  0  0  0  0  0
   13.3457    2.6621    0.0000 H   0  0  0  0  0  0  0  0  0  0  0  0
   17.3442    0.7335    0.0000 H   0  0  0  0  0  0  0  0  0  0  0  0
   16.2244    0.0442    0.0000 H   0  0  0  0  0  0  0  0  0  0  0  0
   17.6459    5.1825    0.0000 H   0  0  0  0  0  0  0  0  0  0  0  0
   16.6203    2.0817    0.0000 H   0  0  0  0  0  0  0  0  0  0  0  0
   16.4526   -1.2688    0.0000 H   0  0  0  0  0  0  0  0  0  0  0  0
   19.5386   -2.3008    0.0000 H   0  0  0  0  0  0  0  0  0  0  0  0
   19.6285   -0.5187    0.0000 H   0  0  0  0  0  0  0  0  0  0  0  0
   18.1523   -5.3111    0.0000 H   0  0  0  0  0  0  0  0  0  0  0  0
   20.2104   -3.7254    0.0000 H   0  0  0  0  0  0  0  0  0  0  0  0
   20.1803   -1.7641    0.0000 H   0  0  0  0  0  0  0  0  0  0  0  0
   20.4732    1.6145    0.0000 H   0  0  0  0  0  0  0  0  0  0  0  0
   23.8830    1.7591    0.0000 H   0  0  0  0  0  0  0  0  0  0  0  0
   22.9712    2.9213    0.0000 H   0  0  0  0  0  0  0  0  0  0  0  0
   21.1332    2.3377    0.0000 H   0  0  0  0  0  0  0  0  0  0  0  0
   24.2292    1.7981    0.0000 H   0  0  0  0  0  0  0  0  0  0  0  0
   24.1126   -1.4616    0.0000 H   0  0  0  0  0  0  0  0  0  0  0  0
   27.4160   -0.8431    0.0000 H   0  0  0  0  0  0  0  0  0  0  0  0
   26.3484   -4.3708    0.0000 H   0  0  0  0  0  0  0  0  0  0  0  0
   24.5844   -4.1683    0.0000 H   0  0  0  0  0  0  0  0  0  0  0  0
   24.2403   -2.4173    0.0000 H   0  0  0  0  0  0  0  0  0  0  0  0
   28.8986   -2.7985    0.0000 H   0  0  0  0  0  0  0  0  0  0  0  0
   28.3234   -1.2693    0.0000 H   0  0  0  0  0  0  0  0  0  0  0  0
   28.6377   -4.7789    0.0000 H   0  0  0  0  0  0  0  0  0  0  0  0
   26.7998   -5.3625    0.0000 H   0  0  0  0  0  0  0  0  0  0  0  0
   25.8716   -4.0179    0.0000 H   0  0  0  0  0  0  0  0  0  0  0  0
   28.1492   -2.0626    0.0000 H   0  0  0  0  0  0  0  0  0  0  0  0
   28.2607    1.2902    0.0000 H   0  0  0  0  0  0  0  0  0  0  0  0
   30.7586    2.5969    0.0000 H   0  0  0  0  0  0  0  0  0  0  0  0
   28.9207    2.0133    0.0000 H   0  0  0  0  0  0  0  0  0  0  0  0
   32.9192    0.0848    0.0000 H   0  0  0  0  0  0  0  0  0  0  0  0
   31.7994   -0.6046    0.0000 H   0  0  0  0  0  0  0  0  0  0  0  0
   35.1399    2.7823    0.0000 H   0  0  0  0  0  0  0  0  0  0  0  0
   34.9597    0.3956    0.0000 H   0  0  0  0  0  0  0  0  0  0  0  0
   32.1953    1.4329    0.0000 H   0  0  0  0  0  0  0  0  0  0  0  0
   32.0276   -1.9175    0.0000 H   0  0  0  0  0  0  0  0  0  0  0  0
   35.1136   -2.9496    0.0000 H   0  0  0  0  0  0  0  0  0  0  0  0
   35.2035   -1.1675    0.0000 H   0  0  0  0  0  0  0  0  0  0  0  0
   31.3250   -4.9705    0.0000 H   0  0  0  0  0  0  0  0  0  0  0  0
   35.7553   -2.4129    0.0000 H   0  0  0  0  0  0  0  0  0  0  0  0
   36.0482    0.9658    0.0000 H   0  0  0  0  0  0  0  0  0  0  0  0
   36.7082    1.6889    0.0000 H   0  0  0  0  0  0  0  0  0  0  0  0
   39.9976    2.6510    0.0000 H   0  0  0  0  0  0  0  0  0  0  0  0
   40.5786    1.5402    0.0000 H   0  0  0  0  0  0  0  0  0  0  0  0
   40.7066   -0.2396    0.0000 H   0  0  0  0  0  0  0  0  0  0  0  0
   39.5869   -0.9290    0.0000 H   0  0  0  0  0  0  0  0  0  0  0  0
   39.8042    1.1493    0.0000 H   0  0  0  0  0  0  0  0  0  0  0  0
   39.6875   -2.1104    0.0000 H   0  0  0  0  0  0  0  0  0  0  0  0
   42.9011   -3.2740    0.0000 H   0  0  0  0  0  0  0  0  0  0  0  0
   42.9909   -1.4918    0.0000 H   0  0  0  0  0  0  0  0  0  0  0  0
   42.0860   -4.8974    0.0000 H   0  0  0  0  0  0  0  0  0  0  0  0
   40.1593   -4.8171    0.0000 H   0  0  0  0  0  0  0  0  0  0  0  0
   39.8153   -3.0661    0.0000 H   0  0  0  0  0  0  0  0  0  0  0  0
   43.5428   -2.7373    0.0000 H   0  0  0  0  0  0  0  0  0  0  0  0
   43.8356    0.6414    0.0000 H   0  0  0  0  0  0  0  0  0  0  0  0
   46.1603    2.0074    0.0000 H   0  0  0  0  0  0  0  0  0  0  0  0
   44.4956    1.3645    0.0000 H   0  0  0  0  0  0  0  0  0  0  0  0
   48.4941   -0.5640    0.0000 H   0  0  0  0  0  0  0  0  0  0  0  0
   47.3743   -1.2534    0.0000 H   0  0  0  0  0  0  0  0  0  0  0  0
   48.8098    2.7343    0.0000 H   0  0  0  0  0  0  0  0  0  0  0  0
   47.0793    2.2992    0.0000 H   0  0  0  0  0  0  0  0  0  0  0  0
   50.4901   -0.2517    0.0000 H   0  0  0  0  0  0  0  0  0  0  0  0
   53.1911    2.9198    0.0000 H   0  0  0  0  0  0  0  0  0  0  0  0
   51.2721    4.6712    0.0000 H   0  0  0  0  0  0  0  0  0  0  0  0
   48.7958    3.8849    0.0000 H   0  0  0  0  0  0  0  0  0  0  0  0
   47.7702    0.7841    0.0000 H   0  0  0  0  0  0  0  0  0  0  0  0
   47.4750   -2.4348    0.0000 H   0  0  0  0  0  0  0  0  0  0  0  0
   50.6885   -3.5984    0.0000 H   0  0  0  0  0  0  0  0  0  0  0  0
   50.7784   -1.8162    0.0000 H   0  0  0  0  0  0  0  0  0  0  0  0
   47.9468   -5.1415    0.0000 H   0  0  0  0  0  0  0  0  0  0  0  0
   47.6028   -3.3905    0.0000 H   0  0  0  0  0  0  0  0  0  0  0  0
   52.2758   -6.2112    0.0000 H   0  0  0  0  0  0  0  0  0  0  0  0
   51.3302   -3.0616    0.0000 H   0  0  0  0  0  0  0  0  0  0  0  0
   51.6231    0.3170    0.0000 H   0  0  0  0  0  0  0  0  0  0  0  0
   54.1211    1.6237    0.0000 H   0  0  0  0  0  0  0  0  0  0  0  0
   52.1946    0.8797    0.0000 H   0  0  0  0  0  0  0  0  0  0  0  0
   56.2816   -0.8884    0.0000 H   0  0  0  0  0  0  0  0  0  0  0  0
   54.9788   -1.5846    0.0000 H   0  0  0  0  0  0  0  0  0  0  0  0
   58.5023    1.8091    0.0000 H   0  0  0  0  0  0  0  0  0  0  0  0
   57.9451   -0.7285    0.0000 H   0  0  0  0  0  0  0  0  0  0  0  0
   55.0096   -3.9768    0.0000 H   0  0  0  0  0  0  0  0  0  0  0  0
  1  2  1  0
  2  3  1  0
  3  4  2  0
  4  5  1  0
  5  6  2  0
  6  7  1  0
  7  8  2  0
  7  9  1  0
  9 10  1  0
 10 11  1  0
 11 12  2  0
  9 13  1  0
 13 14  1  0
 14 15  2  0
 15 16  1  0
 16 17  2  0
 17 18  1  0
 16 19  1  0
 14 20  1  0
 20 21  1  0
 21 22  2  0
 22 23  1  0
 23 24  2  0
 24 25  1  0
 25 26  2  0
 25 27  1  0
  1 28  2  0
  1 29  1  0
 29 30  1  0
 30 31  1  0
 31 32  1  0
 32 33  2  0
 32 34  1  0
 34 35  1  0
 35 36  1  0
 36 37  1  0
 35 38  1  0
 38 39  2  0
 38 40  1  0
 41 40  1  6
 41 42  1  0
 42 43  1  0
 43 44  1  0
 44 45  1  0
 41 46  1  0
 41 47  1  0
 47 48  2  0
 47 49  1  0
 49 50  1  0
 50 51  1  0
 51 52  1  0
 52 53  1  0
 53 54  2  0
 53 55  1  0
 50 56  1  0
 56 57  2  0
 56 58  1  0
 58 59  1  0
 59 60  1  0
 60 61  1  0
 61 62  1  0
 61 63  1  0
 59 64  1  0
 64 65  2  0
 64 66  1  0
 66 67  1  0
 67 68  1  0
 68 69  1  0
 67 70  1  0
 70 71  2  0
 70 72  1  0
 72 73  1  0
 73 74  1  0
 74 75  1  0
 75 76  1  0
 76 77  1  0
 73 78  1  0
 73 79  1  6
 79 80  2  0
 79 81  1  0
 81 82  1  0
 82 83  1  0
 83 84  1  0
 84 85  1  0
 85 86  2  0
 85 87  1  0
 82 88  1  0
 88 89  2  0
 88 90  1  0
 90 91  1  0
 91 92  1  0
 91 93  1  0
 93 94  2  0
 93 95  1  0
 95 96  1  0
 96 97  1  0
 97 98  1  0
 98 99  2  0
 99100  1  0
100101  1  0
101102  2  0
 96103  1  0
103104  2  0
103105  1  0
105106  1  0
106107  1  0
107108  1  0
108109  1  0
108110  2  0
106111  1  0
111112  2  0
111113  1  0
113114  1  0
114115  1  0
115116  1  0
116117  1  0
116118  1  0
114119  1  0
119120  2  0
119121  1  0
121122  1  0
122123  1  0
123124  1  0
122125  1  0
125126  2  0
125127  1  0
127128  1  0
128129  1  0
129130  1  0
129131  1  0
128132  1  0
132133  2  0
132134  1  0
134135  1  0
135136  1  0
136137  1  0
137138  1  0
137139  1  0
135140  1  0
140141  2  0
140142  1  0
142143  1  0
143144  1  0
144145  1  0
145146  1  0
145147  1  0
143148  1  0
148149  2  0
148150  1  0
150151  1  0
151152  1  0
152153  1  0
153154  1  0
154155  2  0
154156  1  0
151157  1  0
157158  2  0
157159  1  0
159160  1  0
160161  1  0
161162  1  0
162163  1  0
162164  2  0
160165  1  0
165166  2  0
165167  1  0
167168  1  0
168169  1  0
168170  1  0
170171  2  0
170172  1  0
172173  1  0
173174  1  0
174175  1  0
174176  1  0
176177  1  0
173178  1  0
178179  2  0
178180  1  0
180181  1  0
181182  1  0
182183  1  0
183184  1  0
184185  1  0
184186  2  0
181187  1  0
187188  2  0
187189  1  0
189190  1  0
190191  1  0
191192  1  0
192193  2  0
192194  1  0
190195  1  0
195196  2  0
195197  1  0
197198  1  0
198199  1  0
199200  1  0
199201  1  0
198202  1  0
202203  2  0
202204  1  0
204205  1  0
205206  1  0
206207  1  0
205208  1  0
208209  2  0
208210  1  0
210211  1  0
211212  1  0
212213  1  0
213214  1  0
214215  1  0
215216  1  0
216217  2  3
216218  1  0
211219  1  0
219220  2  0
219221  1  0
221222  1  0
222223  1  0
223224  1  0
224225  1  0
225226  2  0
225227  1  0
222228  1  0
228229  2  0
228230  1  0
230231  1  0
231232  1  0
232233  1  0
233234  1  0
234235  1  0
234236  2  0
231237  1  0
237238  2  0
237239  1  0
  8  3  1  0
102 98  1  0
 11  6  1  0
 45 77  2  0
 18 13  2  0
 22  9  1  0
 26 21  1  0
  2240  1  0
  4241  1  0
  5242  1  0
  8243  1  0
 15244  1  0
 17245  1  0
 18246  1  0
 19247  1  0
 23248  1  0
 24249  1  0
 26250  1  0
 27251  1  0
 29252  1  0
 30253  1  0
 30254  1  0
 31255  1  0
 31256  1  0
 34257  1  0
 35258  1  1
 36259  1  0
 36260  1  0
 37261  1  0
 40262  1  0
 42263  1  0
 42264  1  0
 43265  1  0
 43266  1  0
 44267  1  0
 44268  1  0
 45269  1  0
 46270  1  0
 46271  1  0
 46272  1  0
 49273  1  0
 50274  1  1
 51275  1  0
 51276  1  0
 52277  1  0
 52278  1  0
 55279  1  0
 58280  1  0
 59281  1  1
 60282  1  0
 60283  1  0
 61284  1  0
 62285  1  0
 62286  1  0
 62287  1  0
 63288  1  0
 63289  1  0
 63290  1  0
 66291  1  0
 67292  1  1
 68293  1  0
 68294  1  0
 69295  1  0
 69296  1  0
 69297  1  0
 72298  1  0
 74299  1  0
 74300  1  0
 75301  1  0
 75302  1  0
 76303  1  0
 76304  1  0
 77305  1  0
 78306  1  0
 78307  1  0
 78308  1  0
 81309  1  0
 82310  1  6
 83311  1  0
 83312  1  0
 84313  1  0
 84314  1  0
 87315  1  0
 90316  1  0
 91317  1  1
 92318  1  0
 92319  1  0
 92320  1  0
 95321  1  0
 96322  1  6
 97323  1  0
 97324  1  0
 99325  1  0
100326  1  0
101327  1  0
105328  1  0
106329  1  1
107330  1  0
107331  1  0
109332  1  0
109333  1  0
113334  1  0
114335  1  6
115336  1  0
115337  1  0
116338  1  0
117339  1  0
117340  1  0
117341  1  0
118342  1  0
118343  1  0
118344  1  0
121345  1  0
122346  1  1
123347  1  0
123348  1  0
124349  1  0
127350  1  0
128351  1  6
129352  1  1
130353  1  0
131354  1  0
131355  1  0
131356  1  0
134357  1  0
135358  1  1
136359  1  0
136360  1  0
137361  1  0
138362  1  0
138363  1  0
138364  1  0
139365  1  0
139366  1  0
139367  1  0
142368  1  0
143369  1  6
144370  1  0
144371  1  0
145372  1  0
146373  1  0
146374  1  0
146375  1  0
147376  1  0
147377  1  0
147378  1  0
150379  1  0
151380  1  1
152381  1  0
152382  1  0
153383  1  0
153384  1  0
156385  1  0
159386  1  0
160387  1  6
161388  1  0
161389  1  0
163390  1  0
163391  1  0
167392  1  0
168393  1  1
169394  1  0
169395  1  0
169396  1  0
172397  1  0
173398  1  6
174399  1  1
175400  1  0
175401  1  0
175402  1  0
176403  1  0
176404  1  0
177405  1  0
177406  1  0
177407  1  0
180408  1  0
181409  1  1
182410  1  0
182411  1  0
183412  1  0
183413  1  0
185414  1  0
185415  1  0
189416  1  0
190417  1  6
191418  1  0
191419  1  0
194420  1  0
197421  1  0
198422  1  1
199423  1  1
200424  1  0
201425  1  0
201426  1  0
201427  1  0
204428  1  0
205429  1  6
206430  1  0
206431  1  0
207432  1  0
207433  1  0
207434  1  0
210435  1  0
211436  1  1
212437  1  0
212438  1  0
213439  1  0
213440  1  0
214441  1  0
214442  1  0
215443  1  0
217444  1  0
218445  1  0
218446  1  0
221447  1  0
222448  1  6
223449  1  0
223450  1  0
224451  1  0
224452  1  0
227453  1  0
230454  1  0
231455  1  1
232456  1  0
232457  1  0
233458  1  0
233459  1  0
235460  1  0
235461  1  0
239462  1  0
M  END
