
     RDKit          2D

402403  0  0  0  0  0  0  0  0999 V2000
   31.5539   -8.9436    0.0000 N   0  0  0  0  0  0  0  0  0  0  0  0
   30.3321   -8.0734    0.0000 C   0  0  0  0  0  0  0  0  0  0  0  0
   28.9676   -8.6964    0.0000 C   0  0  0  0  0  0  0  0  0  0  0  0
   27.7458   -7.8262    0.0000 C   0  0  0  0  0  0  0  0  0  0  0  0
   27.8886   -6.3330    0.0000 O   0  0  0  0  0  0  0  0  0  0  0  0
   26.3813   -8.4492    0.0000 N   0  0  0  0  0  0  0  0  0  0  0  0
   25.1595   -7.5790    0.0000 C   0  0  0  0  0  0  0  0  0  0  0  0
   24.5147   -8.9333    0.0000 C   0  0  0  0  0  0  0  0  0  0  0  0
   25.2082  -10.2633    0.0000 O   0  0  0  0  0  0  0  0  0  0  0  0
   24.3091   -6.3434    0.0000 C   0  0  0  0  0  0  0  0  0  0  0  0
   22.9864   -6.6135    0.0000 O   0  0  0  0  0  0  0  0  0  0  0  0
   24.9539   -4.9890    0.0000 N   0  0  0  0  0  0  0  0  0  0  0  0
   24.1034   -3.7534    0.0000 C   0  0  0  0  0  0  0  0  0  0  0  0
   23.0343   -4.8055    0.0000 C   0  0  0  0  0  0  0  0  0  0  0  0
   21.5886   -4.4057    0.0000 C   0  0  0  0  0  0  0  0  0  0  0  0
   20.5194   -5.4578    0.0000 C   0  0  0  0  0  0  0  0  0  0  0  0
   19.0737   -5.0579    0.0000 O   0  0  0  0  0  0  0  0  0  0  0  0
   20.8960   -6.9098    0.0000 O   0  0  0  0  0  0  0  0  0  0  0  0
   23.7269   -2.3015    0.0000 C   0  0  0  0  0  0  0  0  0  0  0  0
   22.3915   -2.1029    0.0000 O   0  0  0  0  0  0  0  0  0  0  0  0
   24.7960   -1.2494    0.0000 N   0  0  0  0  0  0  0  0  0  0  0  0
   24.4194    0.2026    0.0000 C   0  0  0  0  0  0  0  0  0  0  0  0
   23.0549   -0.4204    0.0000 C   0  0  0  0  0  0  0  0  0  0  0  0
   21.8331    0.4498    0.0000 C   0  0  0  0  0  0  0  0  0  0  0  0
   20.4686   -0.1732    0.0000 C   0  0  0  0  0  0  0  0  0  0  0  0
   19.2468    0.6970    0.0000 O   0  0  0  0  0  0  0  0  0  0  0  0
   20.3259   -1.6664    0.0000 O   0  0  0  0  0  0  0  0  0  0  0  0
   24.5621    1.6958    0.0000 C   0  0  0  0  0  0  0  0  0  0  0  0
   23.3404    2.5660    0.0000 O   0  0  0  0  0  0  0  0  0  0  0  0
   25.9267    2.3188    0.0000 N   0  0  0  0  0  0  0  0  0  0  0  0
   26.0694    3.8120    0.0000 C   0  0  0  0  0  0  0  0  0  0  0  0
   27.5151    3.4121    0.0000 C   0  0  0  0  0  0  0  0  0  0  0  0
   27.8917    1.9602    0.0000 C   0  0  0  0  0  0  0  0  0  0  0  0
   29.3374    1.5603    0.0000 C   0  0  0  0  0  0  0  0  0  0  0  0
   27.7490    0.4670    0.0000 C   0  0  0  0  0  0  0  0  0  0  0  0
   25.6928    5.2639    0.0000 C   0  0  0  0  0  0  0  0  0  0  0  0
   26.8822    6.1779    0.0000 O   0  0  0  0  0  0  0  0  0  0  0  0
   24.2471    5.6638    0.0000 N   0  0  0  0  0  0  0  0  0  0  0  0
   23.8705    7.1157    0.0000 C   0  0  0  0  0  0  0  0  0  0  0  0
   25.3658    7.2345    0.0000 C   0  0  0  0  0  0  0  0  0  0  0  0
   26.0106    8.5888    0.0000 C   0  0  0  0  0  0  0  0  0  0  0  0
   23.0200    8.3513    0.0000 C   0  0  0  0  0  0  0  0  0  0  0  0
   23.8251    9.6170    0.0000 O   0  0  0  0  0  0  0  0  0  0  0  0
   21.5247    8.2326    0.0000 N   0  0  0  0  0  0  0  0  0  0  0  0
   20.6743    9.4682    0.0000 C   0  0  0  0  0  0  0  0  0  0  0  0
   22.0388   10.0912    0.0000 C   0  0  0  0  0  0  0  0  0  0  0  0
   19.4525   10.3384    0.0000 C   0  0  0  0  0  0  0  0  0  0  0  0
   19.7762   11.8031    0.0000 O   0  0  0  0  0  0  0  0  0  0  0  0
   18.0880    9.7154    0.0000 N   0  0  0  0  0  0  0  0  0  0  0  0
   16.8662   10.5856    0.0000 C   0  0  0  0  0  0  0  0  0  0  0  0
   17.9353   11.6377    0.0000 C   0  0  0  0  0  0  0  0  0  0  0  0
   17.5588   13.0897    0.0000 C   0  0  0  0  0  0  0  0  0  0  0  0
   18.6279   14.1418    0.0000 C   0  0  0  0  0  0  0  0  0  0  0  0
   18.2513   15.5938    0.0000 O   0  0  0  0  0  0  0  0  0  0  0  0
   20.0736   13.7419    0.0000 O   0  0  0  0  0  0  0  0  0  0  0  0
   15.4205   10.9855    0.0000 C   0  0  0  0  0  0  0  0  0  0  0  0
   15.2237   12.4725    0.0000 O   0  0  0  0  0  0  0  0  0  0  0  0
   14.3513    9.9334    0.0000 N   0  0  0  0  0  0  0  0  0  0  0  0
   12.9056   10.3332    0.0000 C   0  0  0  0  0  0  0  0  0  0  0  0
   13.5504   11.6876    0.0000 C   0  0  0  0  0  0  0  0  0  0  0  0
   11.4103   10.2145    0.0000 C   0  0  0  0  0  0  0  0  0  0  0  0
   10.7168   11.5445    0.0000 O   0  0  0  0  0  0  0  0  0  0  0  0
   10.7655    8.8602    0.0000 N   0  0  0  0  0  0  0  0  0  0  0  0
    9.2702    8.7414    0.0000 C   0  0  0  0  0  0  0  0  0  0  0  0
    9.4129   10.2346    0.0000 C   0  0  0  0  0  0  0  0  0  0  0  0
    8.1912   11.1048    0.0000 C   0  0  0  0  0  0  0  0  0  0  0  0
    6.7690   10.6279    0.0000 C   0  0  0  0  0  0  0  0  0  0  0  0
    5.8759   11.8331    0.0000 N   0  0  0  0  0  0  0  0  0  0  0  0
    6.7461   13.0548    0.0000 C   0  0  0  0  0  0  0  0  0  0  0  0
    8.1770   12.6048    0.0000 N   0  0  0  0  0  0  0  0  0  0  0  0
    7.9057    8.1185    0.0000 C   0  0  0  0  0  0  0  0  0  0  0  0
    6.6839    8.9887    0.0000 O   0  0  0  0  0  0  0  0  0  0  0  0
    7.7630    6.6253    0.0000 N   0  0  0  0  0  0  0  0  0  0  0  0
    6.3985    6.0023    0.0000 C   0  0  0  0  0  0  0  0  0  0  0  0
    6.0219    7.4542    0.0000 C   0  0  0  0  0  0  0  0  0  0  0  0
    4.5761    7.8541    0.0000 C   0  0  0  0  0  0  0  0  0  0  0  0
    4.1996    9.3060    0.0000 N   0  0  0  0  0  0  0  0  0  0  0  0
    3.5070    6.8020    0.0000 O   0  0  0  0  0  0  0  0  0  0  0  0
    5.3293    4.9502    0.0000 C   0  0  0  0  0  0  0  0  0  0  0  0
    3.9431    5.5233    0.0000 O   0  0  0  0  0  0  0  0  0  0  0  0
    5.7059    3.4982    0.0000 N   0  0  0  0  0  0  0  0  0  0  0  0
    4.6367    2.4461    0.0000 C   0  0  0  0  0  0  0  0  0  0  0  0
    3.7863    3.6817    0.0000 C   0  0  0  0  0  0  0  0  0  0  0  0
    2.2910    3.5630    0.0000 C   0  0  0  0  0  0  0  0  0  0  0  0
    1.4405    4.7986    0.0000 C   0  0  0  0  0  0  0  0  0  0  0  0
    0.9265    2.9400    0.0000 C   0  0  0  0  0  0  0  0  0  0  0  0
    3.9919    1.0918    0.0000 C   0  0  0  0  0  0  0  0  0  0  0  0
    2.4933    1.1562    0.0000 O   0  0  0  0  0  0  0  0  0  0  0  0
    4.8424   -0.1438    0.0000 N   0  0  0  0  0  0  0  0  0  0  0  0
    4.1976   -1.4982    0.0000 C   0  0  0  0  0  0  0  0  0  0  0  0
    2.9758   -0.6280    0.0000 C   0  0  0  0  0  0  0  0  0  0  0  0
    1.6113   -1.2509    0.0000 S   0  0  0  0  0  0  0  0  0  0  0  0
    4.0548   -2.9914    0.0000 C   0  0  0  0  0  0  0  0  0  0  0  0
    2.6903   -3.6143    0.0000 O   0  0  0  0  0  0  0  0  0  0  0  0
    5.2766   -3.8616    0.0000 N   0  0  0  0  0  0  0  0  0  0  0  0
    5.1339   -5.3548    0.0000 C   0  0  0  0  0  0  0  0  0  0  0  0
    6.6292   -5.2360    0.0000 C   0  0  0  0  0  0  0  0  0  0  0  0
    7.9937   -4.6130    0.0000 O   0  0  0  0  0  0  0  0  0  0  0  0
    7.4796   -6.4716    0.0000 C   0  0  0  0  0  0  0  0  0  0  0  0
    4.4891   -6.7091    0.0000 C   0  0  0  0  0  0  0  0  0  0  0  0
    5.4838   -7.8318    0.0000 O   0  0  0  0  0  0  0  0  0  0  0  0
    2.9938   -6.8278    0.0000 N   0  0  0  0  0  0  0  0  0  0  0  0
    2.3489   -8.1821    0.0000 C   0  0  0  0  0  0  0  0  0  0  0  0
    3.7947   -8.5820    0.0000 C   0  0  0  0  0  0  0  0  0  0  0  0
    4.1712  -10.0339    0.0000 C   0  0  0  0  0  0  0  0  0  0  0  0
    5.6170  -10.4338    0.0000 C   0  0  0  0  0  0  0  0  0  0  0  0
    4.0285  -11.5271    0.0000 C   0  0  0  0  0  0  0  0  0  0  0  0
    1.2798   -9.2342    0.0000 C   0  0  0  0  0  0  0  0  0  0  0  0
    1.8306  -10.6295    0.0000 O   0  0  0  0  0  0  0  0  0  0  0  0
   -0.1659   -8.8344    0.0000 N   0  0  0  0  0  0  0  0  0  0  0  0
   -1.2351   -9.8865    0.0000 C   0  0  0  0  0  0  0  0  0  0  0  0
   -0.0133  -10.7567    0.0000 C   0  0  0  0  0  0  0  0  0  0  0  0
   -0.1560  -12.2499    0.0000 C   0  0  0  0  0  0  0  0  0  0  0  0
    1.0658  -13.1201    0.0000 C   0  0  0  0  0  0  0  0  0  0  0  0
   -0.8009  -13.6042    0.0000 C   0  0  0  0  0  0  0  0  0  0  0  0
   -2.5996  -10.5095    0.0000 C   0  0  0  0  0  0  0  0  0  0  0  0
   -2.5592  -12.0089    0.0000 O   0  0  0  0  0  0  0  0  0  0  0  0
   -3.8214   -9.6393    0.0000 N   0  0  0  0  0  0  0  0  0  0  0  0
   -5.1859  -10.2623    0.0000 C   0  0  0  0  0  0  0  0  0  0  0  0
   -4.3354  -11.4979    0.0000 C   0  0  0  0  0  0  0  0  0  0  0  0
   -4.9802  -12.8522    0.0000 C   0  0  0  0  0  0  0  0  0  0  0  0
   -4.1298  -14.0878    0.0000 C   0  0  0  0  0  0  0  0  0  0  0  0
   -4.7746  -15.4421    0.0000 O   0  0  0  0  0  0  0  0  0  0  0  0
   -2.6345  -13.9691    0.0000 O   0  0  0  0  0  0  0  0  0  0  0  0
   -6.6812  -10.3810    0.0000 C   0  0  0  0  0  0  0  0  0  0  0  0
   -7.1561  -11.8038    0.0000 O   0  0  0  0  0  0  0  0  0  0  0  0
   -7.5316   -9.1454    0.0000 N   0  0  0  0  0  0  0  0  0  0  0  0
   -9.0269   -9.2641    0.0000 C   0  0  0  0  0  0  0  0  0  0  0  0
   -8.6503  -10.7161    0.0000 C   0  0  0  0  0  0  0  0  0  0  0  0
   -9.7195  -11.7682    0.0000 C   0  0  0  0  0  0  0  0  0  0  0  0
   -9.3429  -13.2202    0.0000 N   0  0  0  0  0  0  0  0  0  0  0  0
  -11.1652  -11.3683    0.0000 O   0  0  0  0  0  0  0  0  0  0  0  0
  -10.4727   -8.8643    0.0000 C   0  0  0  0  0  0  0  0  0  0  0  0
  -11.4056  -10.0389    0.0000 O   0  0  0  0  0  0  0  0  0  0  0  0
  -10.8492   -7.4123    0.0000 N   0  0  0  0  0  0  0  0  0  0  0  0
  -12.2950   -7.0125    0.0000 C   0  0  0  0  0  0  0  0  0  0  0  0
  -12.4377   -8.5057    0.0000 C   0  0  0  0  0  0  0  0  0  0  0  0
  -13.5167   -6.1423    0.0000 C   0  0  0  0  0  0  0  0  0  0  0  0
  -14.8812   -6.7652    0.0000 O   0  0  0  0  0  0  0  0  0  0  0  0
  -13.3740   -4.6491    0.0000 N   0  0  0  0  0  0  0  0  0  0  0  0
  -14.5958   -3.7789    0.0000 C   0  0  0  0  0  0  0  0  0  0  0  0
  -13.5266   -2.7268    0.0000 C   0  0  0  0  0  0  0  0  0  0  0  0
  -12.1404   -3.2999    0.0000 C   0  0  0  0  0  0  0  0  0  0  0  0
  -12.8818   -1.3724    0.0000 C   0  0  0  0  0  0  0  0  0  0  0  0
  -11.3865   -1.2537    0.0000 C   0  0  0  0  0  0  0  0  0  0  0  0
  -16.0415   -3.3790    0.0000 C   0  0  0  0  0  0  0  0  0  0  0  0
  -15.8726   -1.8885    0.0000 O   0  0  0  0  0  0  0  0  0  0  0  0
  -17.1107   -4.4311    0.0000 N   0  0  0  0  0  0  0  0  0  0  0  0
  -18.5564   -4.0313    0.0000 C   0  0  0  0  0  0  0  0  0  0  0  0
  -17.5973   -2.8779    0.0000 C   0  0  0  0  0  0  0  0  0  0  0  0
  -17.0208   -1.4931    0.0000 C   0  0  0  0  0  0  0  0  0  0  0  0
  -16.8781    0.0000    0.0000 C   0  0  0  0  0  0  0  0  0  0  0  0
  -17.1818    1.4690    0.0000 C   0  0  0  0  0  0  0  0  0  0  0  0
  -18.3262   -5.5135    0.0000 C   0  0  0  0  0  0  0  0  0  0  0  0
  -19.8128   -4.8507    0.0000 C   0  0  0  0  0  0  0  0  0  0  0  0
  -19.1898   -6.2152    0.0000 O   0  0  0  0  0  0  0  0  0  0  0  0
  -21.2549   -5.2633    0.0000 N   0  0  0  0  0  0  0  0  0  0  0  0
  -22.7546   -5.2326    0.0000 C   0  0  0  0  0  0  0  0  0  0  0  0
  -23.7700   -6.3367    0.0000 C   0  0  0  0  0  0  0  0  0  0  0  0
  -23.3215   -7.7681    0.0000 C   0  0  0  0  0  0  0  0  0  0  0  0
  -24.3369   -8.8721    0.0000 O   0  0  0  0  0  0  0  0  0  0  0  0
  -21.8576   -8.0953    0.0000 O   0  0  0  0  0  0  0  0  0  0  0  0
  -24.1786   -4.7612    0.0000 C   0  0  0  0  0  0  0  0  0  0  0  0
  -24.8570   -6.0990    0.0000 O   0  0  0  0  0  0  0  0  0  0  0  0
  -25.4004   -3.8910    0.0000 N   0  0  0  0  0  0  0  0  0  0  0  0
  -26.3114   -2.6993    0.0000 C   0  0  0  0  0  0  0  0  0  0  0  0
  -27.8077   -2.5938    0.0000 C   0  0  0  0  0  0  0  0  0  0  0  0
  -29.1776   -1.9830    0.0000 O   0  0  0  0  0  0  0  0  0  0  0  0
  -28.6471   -3.8369    0.0000 C   0  0  0  0  0  0  0  0  0  0  0  0
  -26.8307   -1.2920    0.0000 C   0  0  0  0  0  0  0  0  0  0  0  0
  -28.2996   -1.5958    0.0000 O   0  0  0  0  0  0  0  0  0  0  0  0
  -26.9121    0.2058    0.0000 N   0  0  0  0  0  0  0  0  0  0  0  0
  -26.5484    1.6610    0.0000 C   0  0  0  0  0  0  0  0  0  0  0  0
  -27.3988    2.8966    0.0000 C   0  0  0  0  0  0  0  0  0  0  0  0
  -28.8941    2.7779    0.0000 C   0  0  0  0  0  0  0  0  0  0  0  0
  -25.7719    2.9444    0.0000 C   0  0  0  0  0  0  0  0  0  0  0  0
  -26.9252    3.9035    0.0000 O   0  0  0  0  0  0  0  0  0  0  0  0
  -24.6517    3.9419    0.0000 N   0  0  0  0  0  0  0  0  0  0  0  0
  -23.2871    4.5649    0.0000 C   0  0  0  0  0  0  0  0  0  0  0  0
  -21.7996    4.7580    0.0000 C   0  0  0  0  0  0  0  0  0  0  0  0
  -20.3213    4.5041    0.0000 C   0  0  0  0  0  0  0  0  0  0  0  0
  -18.9834    3.8257    0.0000 C   0  0  0  0  0  0  0  0  0  0  0  0
  -17.9050    2.7831    0.0000 C   0  0  0  0  0  0  0  0  0  0  0  0
  -24.4162    5.5524    0.0000 C   0  0  0  0  0  0  0  0  0  0  0  0
  -22.8514    6.0002    0.0000 C   0  0  0  0  0  0  0  0  0  0  0  0
  -21.5162    6.6838    0.0000 O   0  0  0  0  0  0  0  0  0  0  0  0
  -23.8765    7.0952    0.0000 N   0  0  0  0  0  0  0  0  0  0  0  0
  -23.4407    8.5305    0.0000 C   0  0  0  0  0  0  0  0  0  0  0  0
  -22.5403    9.7302    0.0000 C   0  0  0  0  0  0  0  0  0  0  0  0
  -23.1291   11.1099    0.0000 C   0  0  0  0  0  0  0  0  0  0  0  0
  -22.2287   12.3096    0.0000 C   0  0  0  0  0  0  0  0  0  0  0  0
  -22.5659   13.4769    0.0000 O   0  0  0  0  0  0  0  0  0  0  0  0
  -20.7395   12.1297    0.0000 O   0  0  0  0  0  0  0  0  0  0  0  0
  -24.4659    9.6256    0.0000 C   0  0  0  0  0  0  0  0  0  0  0  0
  -25.9268    9.2853    0.0000 O   0  0  0  0  0  0  0  0  0  0  0  0
  -24.0301   11.0609    0.0000 N   0  0  0  0  0  0  0  0  0  0  0  0
  -25.0552   12.1559    0.0000 C   0  0  0  0  0  0  0  0  0  0  0  0
  -26.3930   12.8343    0.0000 C   0  0  0  0  0  0  0  0  0  0  0  0
  -27.6495   12.0149    0.0000 C   0  0  0  0  0  0  0  0  0  0  0  0
  -28.9873   12.6933    0.0000 C   0  0  0  0  0  0  0  0  0  0  0  0
  -30.2437   11.8739    0.0000 N   0  0  0  0  0  0  0  0  0  0  0  0
  -29.0687   14.1911    0.0000 O   0  0  0  0  0  0  0  0  0  0  0  0
  -24.6194   13.5912    0.0000 C   0  0  0  0  0  0  0  0  0  0  0  0
  -25.5034   14.8031    0.0000 O   0  0  0  0  0  0  0  0  0  0  0  0
  -23.4785   14.0090    0.0000 O   0  0  0  0  0  0  0  0  0  0  0  0
   32.9184   -8.3206    0.0000 H   0  0  0  0  0  0  0  0  0  0  0  0
   31.4112  -10.4368    0.0000 H   0  0  0  0  0  0  0  0  0  0  0  0
   31.4013   -7.0213    0.0000 H   0  0  0  0  0  0  0  0  0  0  0  0
   29.4817   -6.8378    0.0000 H   0  0  0  0  0  0  0  0  0  0  0  0
   29.8181   -9.9320    0.0000 H   0  0  0  0  0  0  0  0  0  0  0  0
   27.8985   -9.7485    0.0000 H   0  0  0  0  0  0  0  0  0  0  0  0
   26.4217   -9.9486    0.0000 H   0  0  0  0  0  0  0  0  0  0  0  0
   26.2287   -6.5269    0.0000 H   0  0  0  0  0  0  0  0  0  0  0  0
   23.4456   -9.9854    0.0000 H   0  0  0  0  0  0  0  0  0  0  0  0
   23.2929   -8.0631    0.0000 H   0  0  0  0  0  0  0  0  0  0  0  0
   24.7204  -11.5232    0.0000 H   0  0  0  0  0  0  0  0  0  0  0  0
   26.4492   -4.8703    0.0000 H   0  0  0  0  0  0  0  0  0  0  0  0
   25.4679   -3.1304    0.0000 H   0  0  0  0  0  0  0  0  0  0  0  0
   22.3097   -5.9446    0.0000 H   0  0  0  0  0  0  0  0  0  0  0  0
   23.7450   -5.6366    0.0000 H   0  0  0  0  0  0  0  0  0  0  0  0
   20.3668   -3.5355    0.0000 H   0  0  0  0  0  0  0  0  0  0  0  0
   22.2334   -3.0514    0.0000 H   0  0  0  0  0  0  0  0  0  0  0  0
   26.2417   -1.6492    0.0000 H   0  0  0  0  0  0  0  0  0  0  0  0
   25.8891    0.5027    0.0000 H   0  0  0  0  0  0  0  0  0  0  0  0
   21.9844   -1.2429    0.0000 H   0  0  0  0  0  0  0  0  0  0  0  0
   23.4385   -1.4444    0.0000 H   0  0  0  0  0  0  0  0  0  0  0  0
   20.9827    1.6854    0.0000 H   0  0  0  0  0  0  0  0  0  0  0  0
   22.9023    1.5019    0.0000 H   0  0  0  0  0  0  0  0  0  0  0  0
   26.5801    1.7208    0.0000 H   0  0  0  0  0  0  0  0  0  0  0  0
   24.5741    3.6932    0.0000 H   0  0  0  0  0  0  0  0  0  0  0  0
   28.9848    3.7122    0.0000 H   0  0  0  0  0  0  0  0  0  0  0  0
   27.6578    4.9053    0.0000 H   0  0  0  0  0  0  0  0  0  0  0  0
   27.0925    1.5782    0.0000 H   0  0  0  0  0  0  0  0  0  0  0  0
   29.8882    0.1651    0.0000 H   0  0  0  0  0  0  0  0  0  0  0  0
   30.8327    1.6790    0.0000 H   0  0  0  0  0  0  0  0  0  0  0  0
   29.6611    3.0250    0.0000 H   0  0  0  0  0  0  0  0  0  0  0  0
   28.8556   -0.5457    0.0000 H   0  0  0  0  0  0  0  0  0  0  0  0
   27.1041   -0.8874    0.0000 H   0  0  0  0  0  0  0  0  0  0  0  0
   26.3628    1.0401    0.0000 H   0  0  0  0  0  0  0  0  0  0  0  0
   23.1779    4.6117    0.0000 H   0  0  0  0  0  0  0  0  0  0  0  0
   22.5060    6.4927    0.0000 H   0  0  0  0  0  0  0  0  0  0  0  0
   26.8495    7.0138    0.0000 H   0  0  0  0  0  0  0  0  0  0  0  0
   25.5886    5.7511    0.0000 H   0  0  0  0  0  0  0  0  0  0  0  0
   27.5059    8.7075    0.0000 H   0  0  0  0  0  0  0  0  0  0  0  0
   26.1534   10.0820    0.0000 H   0  0  0  0  0  0  0  0  0  0  0  0
   24.5649    8.9886    0.0000 H   0  0  0  0  0  0  0  0  0  0  0  0
   20.8799    6.8783    0.0000 H   0  0  0  0  0  0  0  0  0  0  0  0
   19.6051    8.4161    0.0000 H   0  0  0  0  0  0  0  0  0  0  0  0
   23.3575    9.3764    0.0000 H   0  0  0  0  0  0  0  0  0  0  0  0
   23.1079   11.1433    0.0000 H   0  0  0  0  0  0  0  0  0  0  0  0
   21.1883   11.3268    0.0000 H   0  0  0  0  0  0  0  0  0  0  0  0
   17.9453    8.2222    0.0000 H   0  0  0  0  0  0  0  0  0  0  0  0
   16.2214    9.2313    0.0000 H   0  0  0  0  0  0  0  0  0  0  0  0
   19.2137   12.4224    0.0000 H   0  0  0  0  0  0  0  0  0  0  0  0
   19.0595   10.6446    0.0000 H   0  0  0  0  0  0  0  0  0  0  0  0
   16.7083   14.3253    0.0000 H   0  0  0  0  0  0  0  0  0  0  0  0
   16.1943   12.4667    0.0000 H   0  0  0  0  0  0  0  0  0  0  0  0
   14.7279    8.4814    0.0000 H   0  0  0  0  0  0  0  0  0  0  0  0
   12.7629    8.8400    0.0000 H   0  0  0  0  0  0  0  0  0  0  0  0
   15.0201   11.9877    0.0000 H   0  0  0  0  0  0  0  0  0  0  0  0
   13.6932   13.1807    0.0000 H   0  0  0  0  0  0  0  0  0  0  0  0
   12.1047   12.0874    0.0000 H   0  0  0  0  0  0  0  0  0  0  0  0
   11.6160    7.6246    0.0000 H   0  0  0  0  0  0  0  0  0  0  0  0
    9.6468    7.2895    0.0000 H   0  0  0  0  0  0  0  0  0  0  0  0
    9.8879   11.6575    0.0000 H   0  0  0  0  0  0  0  0  0  0  0  0
   10.9124   10.1965    0.0000 H   0  0  0  0  0  0  0  0  0  0  0  0
    5.9861    9.3484    0.0000 H   0  0  0  0  0  0  0  0  0  0  0  0
    4.3760   11.8189    0.0000 H   0  0  0  0  0  0  0  0  0  0  0  0
    6.2692   14.4770    0.0000 H   0  0  0  0  0  0  0  0  0  0  0  0
    8.9847    5.7551    0.0000 H   0  0  0  0  0  0  0  0  0  0  0  0
    7.2489    4.7667    0.0000 H   0  0  0  0  0  0  0  0  0  0  0  0
    5.7990    8.9376    0.0000 H   0  0  0  0  0  0  0  0  0  0  0  0
    7.4440    7.9313    0.0000 H   0  0  0  0  0  0  0  0  0  0  0  0
    2.7538    9.7059    0.0000 H   0  0  0  0  0  0  0  0  0  0  0  0
    5.2687   10.3581    0.0000 H   0  0  0  0  0  0  0  0  0  0  0  0
    7.1516    3.0983    0.0000 H   0  0  0  0  0  0  0  0  0  0  0  0
    5.8585    1.5759    0.0000 H   0  0  0  0  0  0  0  0  0  0  0  0
    3.4097    5.1337    0.0000 H   0  0  0  0  0  0  0  0  0  0  0  0
    4.9595    4.6163    0.0000 H   0  0  0  0  0  0  0  0  0  0  0  0
    2.6676    2.1110    0.0000 H   0  0  0  0  0  0  0  0  0  0  0  0
   -0.0581    4.8630    0.0000 H   0  0  0  0  0  0  0  0  0  0  0  0
    1.0639    6.2505    0.0000 H   0  0  0  0  0  0  0  0  0  0  0  0
    2.7189    5.5832    0.0000 H   0  0  0  0  0  0  0  0  0  0  0  0
   -0.3923    3.6548    0.0000 H   0  0  0  0  0  0  0  0  0  0  0  0
   -0.1427    1.8879    0.0000 H   0  0  0  0  0  0  0  0  0  0  0  0
    1.7769    1.7044    0.0000 H   0  0  0  0  0  0  0  0  0  0  0  0
    6.3377   -0.0251    0.0000 H   0  0  0  0  0  0  0  0  0  0  0  0
    5.6433   -1.8980    0.0000 H   0  0  0  0  0  0  0  0  0  0  0  0
    1.9810    0.4948    0.0000 H   0  0  0  0  0  0  0  0  0  0  0  0
    3.7586    0.6516    0.0000 H   0  0  0  0  0  0  0  0  0  0  0  0
    0.3895   -0.3807    0.0000 H   0  0  0  0  0  0  0  0  0  0  0  0
    6.5550   -3.0769    0.0000 H   0  0  0  0  0  0  0  0  0  0  0  0
    3.6882   -4.9549    0.0000 H   0  0  0  0  0  0  0  0  0  0  0  0
    6.4324   -3.7490    0.0000 H   0  0  0  0  0  0  0  0  0  0  0  0
    9.3124   -5.3278    0.0000 H   0  0  0  0  0  0  0  0  0  0  0  0
    8.9783   -6.5360    0.0000 H   0  0  0  0  0  0  0  0  0  0  0  0
    7.8562   -7.9236    0.0000 H   0  0  0  0  0  0  0  0  0  0  0  0
    6.1151   -7.0946    0.0000 H   0  0  0  0  0  0  0  0  0  0  0  0
    2.1433   -5.5922    0.0000 H   0  0  0  0  0  0  0  0  0  0  0  0
    1.1272   -7.3119    0.0000 H   0  0  0  0  0  0  0  0  0  0  0  0
    5.2900   -8.4633    0.0000 H   0  0  0  0  0  0  0  0  0  0  0  0
    4.2945   -7.1677    0.0000 H   0  0  0  0  0  0  0  0  0  0  0  0
    2.6759  -10.1527    0.0000 H   0  0  0  0  0  0  0  0  0  0  0  0
    6.1677  -11.8290    0.0000 H   0  0  0  0  0  0  0  0  0  0  0  0
    7.1123  -10.3151    0.0000 H   0  0  0  0  0  0  0  0  0  0  0  0
    5.9406   -8.9691    0.0000 H   0  0  0  0  0  0  0  0  0  0  0  0
    5.1351  -12.5398    0.0000 H   0  0  0  0  0  0  0  0  0  0  0  0
    3.3837  -12.8815    0.0000 H   0  0  0  0  0  0  0  0  0  0  0  0
    2.5828  -11.1273    0.0000 H   0  0  0  0  0  0  0  0  0  0  0  0
   -0.5425   -7.3824    0.0000 H   0  0  0  0  0  0  0  0  0  0  0  0
   -2.0855   -8.6509    0.0000 H   0  0  0  0  0  0  0  0  0  0  0  0
    1.4324  -11.1566    0.0000 H   0  0  0  0  0  0  0  0  0  0  0  0
    0.9401   -9.5987    0.0000 H   0  0  0  0  0  0  0  0  0  0  0  0
   -1.6018  -11.8500    0.0000 H   0  0  0  0  0  0  0  0  0  0  0  0
    1.1061  -14.6196    0.0000 H   0  0  0  0  0  0  0  0  0  0  0  0
    2.5115  -13.5200    0.0000 H   0  0  0  0  0  0  0  0  0  0  0  0
    1.8709  -11.8545    0.0000 H   0  0  0  0  0  0  0  0  0  0  0  0
   -0.1073  -14.9343    0.0000 H   0  0  0  0  0  0  0  0  0  0  0  0
   -1.8700  -14.6563    0.0000 H   0  0  0  0  0  0  0  0  0  0  0  0
   -2.0226  -12.7340    0.0000 H   0  0  0  0  0  0  0  0  0  0  0  0
   -3.6786   -8.1461    0.0000 H   0  0  0  0  0  0  0  0  0  0  0  0
   -5.5625   -8.8103    0.0000 H   0  0  0  0  0  0  0  0  0  0  0  0
   -3.2288  -12.5105    0.0000 H   0  0  0  0  0  0  0  0  0  0  0  0
   -3.0434  -10.7357    0.0000 H   0  0  0  0  0  0  0  0  0  0  0  0
   -6.0494  -13.9043    0.0000 H   0  0  0  0  0  0  0  0  0  0  0  0
   -6.2020  -11.9820    0.0000 H   0  0  0  0  0  0  0  0  0  0  0  0
   -6.8868   -7.7911    0.0000 H   0  0  0  0  0  0  0  0  0  0  0  0
   -8.8842   -7.7709    0.0000 H   0  0  0  0  0  0  0  0  0  0  0  0
   -7.9568  -12.0461    0.0000 H   0  0  0  0  0  0  0  0  0  0  0  0
   -7.1756  -10.4418    0.0000 H   0  0  0  0  0  0  0  0  0  0  0  0
  -10.4121  -14.2723    0.0000 H   0  0  0  0  0  0  0  0  0  0  0  0
   -7.8972  -13.6200    0.0000 H   0  0  0  0  0  0  0  0  0  0  0  0
   -9.7801   -6.3602    0.0000 H   0  0  0  0  0  0  0  0  0  0  0  0
  -11.6501   -5.6581    0.0000 H   0  0  0  0  0  0  0  0  0  0  0  0
  -11.3311   -9.5183    0.0000 H   0  0  0  0  0  0  0  0  0  0  0  0
  -13.0825   -9.8600    0.0000 H   0  0  0  0  0  0  0  0  0  0  0  0
  -13.8834   -8.1058    0.0000 H   0  0  0  0  0  0  0  0  0  0  0  0
  -11.9437   -4.1971    0.0000 H   0  0  0  0  0  0  0  0  0  0  0  0
  -15.2406   -5.1332    0.0000 H   0  0  0  0  0  0  0  0  0  0  0  0
  -14.7484   -1.8565    0.0000 H   0  0  0  0  0  0  0  0  0  0  0  0
  -10.8708   -2.2212    0.0000 H   0  0  0  0  0  0  0  0  0  0  0  0
  -10.8591   -3.9968    0.0000 H   0  0  0  0  0  0  0  0  0  0  0  0
  -12.1974   -4.6221    0.0000 H   0  0  0  0  0  0  0  0  0  0  0  0
  -12.7391    0.1208    0.0000 H   0  0  0  0  0  0  0  0  0  0  0  0
  -14.3275   -0.9726    0.0000 H   0  0  0  0  0  0  0  0  0  0  0  0
  -10.7417    0.1006    0.0000 H   0  0  0  0  0  0  0  0  0  0  0  0
   -9.9408   -1.6536    0.0000 H   0  0  0  0  0  0  0  0  0  0  0  0
  -11.1637   -2.7371    0.0000 H   0  0  0  0  0  0  0  0  0  0  0  0
  -16.5599   -5.8263    0.0000 H   0  0  0  0  0  0  0  0  0  0  0  0
  -16.6337   -4.0275    0.0000 H   0  0  0  0  0  0  0  0  0  0  0  0
  -16.1145   -2.6514    0.0000 H   0  0  0  0  0  0  0  0  0  0  0  0
  -15.6015   -1.9786    0.0000 H   0  0  0  0  0  0  0  0  0  0  0  0
  -15.5526   -1.1858    0.0000 H   0  0  0  0  0  0  0  0  0  0  0  0
  -15.4947   -0.5799    0.0000 H   0  0  0  0  0  0  0  0  0  0  0  0
  -15.6640    0.8811    0.0000 H   0  0  0  0  0  0  0  0  0  0  0  0
  -15.7745    1.9882    0.0000 H   0  0  0  0  0  0  0  0  0  0  0  0
  -17.0040   -6.2218    0.0000 H   0  0  0  0  0  0  0  0  0  0  0  0
  -18.6169   -6.9851    0.0000 H   0  0  0  0  0  0  0  0  0  0  0  0
  -19.7888   -5.8466    0.0000 H   0  0  0  0  0  0  0  0  0  0  0  0
  -21.0618   -6.7508    0.0000 H   0  0  0  0  0  0  0  0  0  0  0  0
  -22.1658   -6.6122    0.0000 H   0  0  0  0  0  0  0  0  0  0  0  0
  -25.1017   -7.0269    0.0000 H   0  0  0  0  0  0  0  0  0  0  0  0
  -24.9423   -5.4009    0.0000 H   0  0  0  0  0  0  0  0  0  0  0  0
  -26.4430   -4.9694    0.0000 H   0  0  0  0  0  0  0  0  0  0  0  0
  -26.8566   -4.0967    0.0000 H   0  0  0  0  0  0  0  0  0  0  0  0
  -27.8069   -1.0938    0.0000 H   0  0  0  0  0  0  0  0  0  0  0  0
  -30.4900   -2.7094    0.0000 H   0  0  0  0  0  0  0  0  0  0  0  0
  -30.1451   -3.9146    0.0000 H   0  0  0  0  0  0  0  0  0  0  0  0
  -29.0108   -5.2922    0.0000 H   0  0  0  0  0  0  0  0  0  0  0  0
  -27.3618   -4.6102    0.0000 H   0  0  0  0  0  0  0  0  0  0  0  0
  -28.4053    0.3485    0.0000 H   0  0  0  0  0  0  0  0  0  0  0  0
  -27.9809    1.2160    0.0000 H   0  0  0  0  0  0  0  0  0  0  0  0
  -27.7754    4.3486    0.0000 H   0  0  0  0  0  0  0  0  0  0  0  0
  -26.2256    3.8312    0.0000 H   0  0  0  0  0  0  0  0  0  0  0  0
  -29.7446    4.0135    0.0000 H   0  0  0  0  0  0  0  0  0  0  0  0
  -30.2587    2.1549    0.0000 H   0  0  0  0  0  0  0  0  0  0  0  0
  -28.6974    1.2908    0.0000 H   0  0  0  0  0  0  0  0  0  0  0  0
  -25.4711    5.1983    0.0000 H   0  0  0  0  0  0  0  0  0  0  0  0
  -20.9602    6.0011    0.0000 H   0  0  0  0  0  0  0  0  0  0  0  0
  -22.2552    6.1872    0.0000 H   0  0  0  0  0  0  0  0  0  0  0  0
  -19.2760    5.5799    0.0000 H   0  0  0  0  0  0  0  0  0  0  0  0
  -20.3353    6.0040    0.0000 H   0  0  0  0  0  0  0  0  0  0  0  0
  -17.5896    4.3799    0.0000 H   0  0  0  0  0  0  0  0  0  0  0  0
  -18.7332    5.3047    0.0000 H   0  0  0  0  0  0  0  0  0  0  0  0
  -16.7133    3.6941    0.0000 H   0  0  0  0  0  0  0  0  0  0  0  0
  -24.4902    7.0506    0.0000 H   0  0  0  0  0  0  0  0  0  0  0  0
  -25.8705    5.9197    0.0000 H   0  0  0  0  0  0  0  0  0  0  0  0
  -25.4801    4.4950    0.0000 H   0  0  0  0  0  0  0  0  0  0  0  0
  -25.3680    6.9356    0.0000 H   0  0  0  0  0  0  0  0  0  0  0  0
  -22.1029    7.8521    0.0000 H   0  0  0  0  0  0  0  0  0  0  0  0
  -21.2839   10.5496    0.0000 H   0  0  0  0  0  0  0  0  0  0  0  0
  -21.5152    8.6352    0.0000 H   0  0  0  0  0  0  0  0  0  0  0  0
  -24.1542   12.2049    0.0000 H   0  0  0  0  0  0  0  0  0  0  0  0
  -24.6232   10.9764    0.0000 H   0  0  0  0  0  0  0  0  0  0  0  0
  -22.6949   11.7445    0.0000 H   0  0  0  0  0  0  0  0  0  0  0  0
  -25.8027   10.8554    0.0000 H   0  0  0  0  0  0  0  0  0  0  0  0
  -27.4182   13.9294    0.0000 H   0  0  0  0  0  0  0  0  0  0  0  0
  -25.6456   14.1348    0.0000 H   0  0  0  0  0  0  0  0  0  0  0  0
  -28.5499   10.8152    0.0000 H   0  0  0  0  0  0  0  0  0  0  0  0
  -26.7655   10.8031    0.0000 H   0  0  0  0  0  0  0  0  0  0  0  0
  -31.5815   12.5523    0.0000 H   0  0  0  0  0  0  0  0  0  0  0  0
  -30.1623   10.3761    0.0000 H   0  0  0  0  0  0  0  0  0  0  0  0
  1  2  1  0
  2  3  1  0
  3  4  1  0
  4  5  2  0
  4  6  1  0
  6  7  1  0
  7  8  1  0
  8  9  1  0
  7 10  1  0
 10 11  2  0
 10 12  1  0
 12 13  1  0
 13 14  1  0
 14 15  1  0
 15 16  1  0
 16 17  2  0
 16 18  1  0
 13 19  1  0
 19 20  2  0
 19 21  1  0
 21 22  1  0
 22 23  1  0
 23 24  1  0
 24 25  1  0
 25 26  2  0
 25 27  1  0
 22 28  1  0
 28 29  2  0
 28 30  1  0
 30 31  1  0
 31 32  1  0
 32 33  1  0
 33 34  1  0
 33 35  1  0
 31 36  1  0
 36 37  2  0
 36 38  1  0
 38 39  1  0
 39 40  1  0
 40 41  1  0
 39 42  1  0
 42 43  2  0
 42 44  1  0
 44 45  1  0
 45 46  1  0
 45 47  1  0
 47 48  2  0
 47 49  1  0
 49 50  1  0
 50 51  1  0
 51 52  1  0
 52 53  1  0
 53 54  2  0
 53 55  1  0
 50 56  1  0
 56 57  2  0
 56 58  1  0
 58 59  1  0
 59 60  1  0
 59 61  1  0
 61 62  2  0
 61 63  1  0
 63 64  1  0
 64 65  1  0
 65 66  1  0
 66 67  2  0
 67 68  1  0
 68 69  1  0
 69 70  2  0
 64 71  1  0
 71 72  2  0
 71 73  1  0
 73 74  1  0
 74 75  1  0
 75 76  1  0
 76 77  1  0
 76 78  2  0
 74 79  1  0
 79 80  2  0
 79 81  1  0
 81 82  1  0
 82 83  1  0
 83 84  1  0
 84 85  1  0
 84 86  1  0
 82 87  1  0
 87 88  2  0
 87 89  1  0
 89 90  1  0
 90 91  1  0
 91 92  1  0
 90 93  1  0
 93 94  2  0
 93 95  1  0
 95 96  1  0
 96 97  1  0
 97 98  1  0
 97 99  1  0
 96100  1  0
100101  2  0
100102  1  0
102103  1  0
103104  1  0
104105  1  0
105106  1  0
105107  1  0
103108  1  0
108109  2  0
108110  1  0
110111  1  0
111112  1  0
112113  1  0
113114  1  0
113115  1  0
111116  1  0
116117  2  0
116118  1  0
118119  1  0
119120  1  0
120121  1  0
121122  1  0
122123  2  0
122124  1  0
119125  1  0
125126  2  0
125127  1  0
127128  1  0
128129  1  0
129130  1  0
130131  1  0
130132  2  0
128133  1  0
133134  2  0
133135  1  0
135136  1  0
136137  1  0
136138  1  0
138139  2  0
138140  1  0
140141  1  0
141142  1  0
142143  1  0
142144  1  0
144145  1  0
141146  1  0
146147  2  0
146148  1  0
149148  1  6
149150  1  0
150151  1  0
151152  1  0
152153  1  0
149154  1  0
149155  1  0
155156  2  0
155157  1  0
157158  1  0
158159  1  0
159160  1  0
160161  2  0
160162  1  0
158163  1  0
163164  2  0
163165  1  0
165166  1  0
166167  1  0
167168  1  0
167169  1  0
166170  1  0
170171  2  0
170172  1  0
172173  1  0
173174  1  0
174175  1  0
173176  1  0
176177  2  0
176178  1  0
178179  1  0
179180  1  0
180181  1  0
181182  1  0
182183  1  0
179184  1  0
179185  1  6
185186  2  0
185187  1  0
187188  1  0
188189  1  0
189190  1  0
190191  1  0
191192  2  0
191193  1  0
188194  1  0
194195  2  0
194196  1  0
196197  1  0
197198  1  0
198199  1  0
199200  1  0
200201  1  0
200202  2  0
197203  1  0
203204  2  0
203205  1  0
 70 66  1  0
153183  2  0
  1206  1  0
  1207  1  0
  2208  1  0
  2209  1  0
  3210  1  0
  3211  1  0
  6212  1  0
  7213  1  1
  8214  1  0
  8215  1  0
  9216  1  0
 12217  1  0
 13218  1  1
 14219  1  0
 14220  1  0
 15221  1  0
 15222  1  0
 21223  1  0
 22224  1  1
 23225  1  0
 23226  1  0
 24227  1  0
 24228  1  0
 30229  1  0
 31230  1  6
 32231  1  0
 32232  1  0
 33233  1  0
 34234  1  0
 34235  1  0
 34236  1  0
 35237  1  0
 35238  1  0
 35239  1  0
 38240  1  0
 39241  1  6
 40242  1  0
 40243  1  0
 41244  1  0
 41245  1  0
 41246  1  0
 44247  1  0
 45248  1  6
 46249  1  0
 46250  1  0
 46251  1  0
 49252  1  0
 50253  1  6
 51254  1  0
 51255  1  0
 52256  1  0
 52257  1  0
 58258  1  0
 59259  1  6
 60260  1  0
 60261  1  0
 60262  1  0
 63263  1  0
 64264  1  6
 65265  1  0
 65266  1  0
 67267  1  0
 68268  1  0
 69269  1  0
 73270  1  0
 74271  1  6
 75272  1  0
 75273  1  0
 77274  1  0
 77275  1  0
 81276  1  0
 82277  1  6
 83278  1  0
 83279  1  0
 84280  1  0
 85281  1  0
 85282  1  0
 85283  1  0
 86284  1  0
 86285  1  0
 86286  1  0
 89287  1  0
 90288  1  6
 91289  1  0
 91290  1  0
 92291  1  0
 95292  1  0
 96293  1  1
 97294  1  1
 98295  1  0
 99296  1  0
 99297  1  0
 99298  1  0
102299  1  0
103300  1  1
104301  1  0
104302  1  0
105303  1  0
106304  1  0
106305  1  0
106306  1  0
107307  1  0
107308  1  0
107309  1  0
110310  1  0
111311  1  1
112312  1  0
112313  1  0
113314  1  0
114315  1  0
114316  1  0
114317  1  0
115318  1  0
115319  1  0
115320  1  0
118321  1  0
119322  1  1
120323  1  0
120324  1  0
121325  1  0
121326  1  0
127327  1  0
128328  1  1
129329  1  0
129330  1  0
131331  1  0
131332  1  0
135333  1  0
136334  1  1
137335  1  0
137336  1  0
137337  1  0
140338  1  0
141339  1  6
142340  1  1
143341  1  0
143342  1  0
143343  1  0
144344  1  0
144345  1  0
145346  1  0
145347  1  0
145348  1  0
148349  1  0
150350  1  0
150351  1  0
151352  1  0
151353  1  0
152354  1  0
152355  1  0
153356  1  0
154357  1  0
154358  1  0
154359  1  0
157360  1  0
158361  1  1
159362  1  0
159363  1  0
165364  1  0
166365  1  1
167366  1  6
168367  1  0
169368  1  0
169369  1  0
169370  1  0
172371  1  0
173372  1  1
174373  1  0
174374  1  0
175375  1  0
175376  1  0
175377  1  0
178378  1  0
180379  1  0
180380  1  0
181381  1  0
181382  1  0
182383  1  0
182384  1  0
183385  1  0
184386  1  0
184387  1  0
184388  1  0
187389  1  0
188390  1  6
189391  1  0
189392  1  0
190393  1  0
190394  1  0
196395  1  0
197396  1  1
198397  1  0
198398  1  0
199399  1  0
199400  1  0
201401  1  0
201402  1  0
M  CHG  7  18  -1  27  -1  55  -1 124  -1 162  -1 193  -1 205  -1
M  END
