
     RDKit          2D

277278  0  0  0  0  0  0  0  0999 V2000
   19.2790  -10.1744    0.0000 N   0  0  0  0  0  0  0  0  0  0  0  0
   17.9652   -9.4505    0.0000 C   0  0  0  0  0  0  0  0  0  0  0  0
   16.6814  -10.2263    0.0000 C   0  0  0  0  0  0  0  0  0  0  0  0
   15.3677   -9.5024    0.0000 C   0  0  0  0  0  0  0  0  0  0  0  0
   15.3377   -8.0027    0.0000 O   0  0  0  0  0  0  0  0  0  0  0  0
   14.0839  -10.2781    0.0000 N   0  0  0  0  0  0  0  0  0  0  0  0
   12.7701   -9.5542    0.0000 C   0  0  0  0  0  0  0  0  0  0  0  0
   12.2853  -10.9738    0.0000 C   0  0  0  0  0  0  0  0  0  0  0  0
   10.8136  -11.2637    0.0000 C   0  0  0  0  0  0  0  0  0  0  0  0
   10.3288  -12.6832    0.0000 C   0  0  0  0  0  0  0  0  0  0  0  0
    8.8571  -12.9731    0.0000 C   0  0  0  0  0  0  0  0  0  0  0  0
    7.8702  -11.8435    0.0000 C   0  0  0  0  0  0  0  0  0  0  0  0
    8.3550  -10.4240    0.0000 C   0  0  0  0  0  0  0  0  0  0  0  0
    9.8267  -10.1341    0.0000 C   0  0  0  0  0  0  0  0  0  0  0  0
   11.7832   -8.4247    0.0000 C   0  0  0  0  0  0  0  0  0  0  0  0
   11.0010   -8.5787    0.0000 O   0  0  0  0  0  0  0  0  0  0  0  0
   12.2679   -7.0052    0.0000 N   0  0  0  0  0  0  0  0  0  0  0  0
   11.2810   -5.8756    0.0000 C   0  0  0  0  0  0  0  0  0  0  0  0
   10.3400   -7.0437    0.0000 C   0  0  0  0  0  0  0  0  0  0  0  0
    8.8578   -6.8128    0.0000 C   0  0  0  0  0  0  0  0  0  0  0  0
    7.9168   -7.9809    0.0000 N   0  0  0  0  0  0  0  0  0  0  0  0
    8.3168   -5.4138    0.0000 O   0  0  0  0  0  0  0  0  0  0  0  0
   10.7399   -4.4766    0.0000 C   0  0  0  0  0  0  0  0  0  0  0  0
    9.2578   -4.2457    0.0000 O   0  0  0  0  0  0  0  0  0  0  0  0
   11.6810   -3.3085    0.0000 N   0  0  0  0  0  0  0  0  0  0  0  0
   11.1399   -1.9095    0.0000 C   0  0  0  0  0  0  0  0  0  0  0  0
   12.6116   -1.6195    0.0000 C   0  0  0  0  0  0  0  0  0  0  0  0
   13.4535   -2.8610    0.0000 C   0  0  0  0  0  0  0  0  0  0  0  0
   13.8954   -0.8437    0.0000 C   0  0  0  0  0  0  0  0  0  0  0  0
   15.2091   -1.5676    0.0000 C   0  0  0  0  0  0  0  0  0  0  0  0
   10.1529   -0.7799    0.0000 C   0  0  0  0  0  0  0  0  0  0  0  0
   10.8071    0.5699    0.0000 O   0  0  0  0  0  0  0  0  0  0  0  0
    8.6812   -1.0698    0.0000 N   0  0  0  0  0  0  0  0  0  0  0  0
    7.6943    0.0598    0.0000 C   0  0  0  0  0  0  0  0  0  0  0  0
    7.1205   -1.3261    0.0000 C   0  0  0  0  0  0  0  0  0  0  0  0
    6.2947   -2.5784    0.0000 C   0  0  0  0  0  0  0  0  0  0  0  0
    5.2469   -3.6518    0.0000 C   0  0  0  0  0  0  0  0  0  0  0  0
    4.0149   -4.5074    0.0000 C   0  0  0  0  0  0  0  0  0  0  0  0
    2.6432   -5.1144    0.0000 C   0  0  0  0  0  0  0  0  0  0  0  0
    1.1814   -5.4509    0.0000 C   0  0  0  0  0  0  0  0  0  0  0  0
   -0.3176   -5.5047    0.0000 C   0  0  0  0  0  0  0  0  0  0  0  0
    9.1446    0.4424    0.0000 C   0  0  0  0  0  0  0  0  0  0  0  0
    7.9955    1.5292    0.0000 C   0  0  0  0  0  0  0  0  0  0  0  0
    9.4953    1.5521    0.0000 O   0  0  0  0  0  0  0  0  0  0  0  0
    8.0131    3.0291    0.0000 N   0  0  0  0  0  0  0  0  0  0  0  0
    7.7465    4.5052    0.0000 C   0  0  0  0  0  0  0  0  0  0  0  0
    8.7598    5.6113    0.0000 C   0  0  0  0  0  0  0  0  0  0  0  0
   10.2243    5.2869    0.0000 C   0  0  0  0  0  0  0  0  0  0  0  0
   11.2375    6.3929    0.0000 O   0  0  0  0  0  0  0  0  0  0  0  0
   10.6755    3.8563    0.0000 O   0  0  0  0  0  0  0  0  0  0  0  0
    7.2055    5.9043    0.0000 C   0  0  0  0  0  0  0  0  0  0  0  0
    8.4548    6.7344    0.0000 O   0  0  0  0  0  0  0  0  0  0  0  0
    6.4094    7.1756    0.0000 N   0  0  0  0  0  0  0  0  0  0  0  0
    5.3871    8.2733    0.0000 C   0  0  0  0  0  0  0  0  0  0  0  0
    5.6415    9.7515    0.0000 C   0  0  0  0  0  0  0  0  0  0  0  0
    7.0489   10.2704    0.0000 C   0  0  0  0  0  0  0  0  0  0  0  0
    7.3033   11.7486    0.0000 C   0  0  0  0  0  0  0  0  0  0  0  0
    8.7108   12.2675    0.0000 N   0  0  0  0  0  0  0  0  0  0  0  0
    8.9652   13.7457    0.0000 C   0  0  0  0  0  0  0  0  0  0  0  0
   10.3726   14.2645    0.0000 N   0  0  0  0  0  0  0  0  0  0  0  0
    7.8121   14.7052    0.0000 N   0  0  0  0  0  0  0  0  0  0  0  0
    4.1756    9.1577    0.0000 C   0  0  0  0  0  0  0  0  0  0  0  0
    4.7778   10.5315    0.0000 O   0  0  0  0  0  0  0  0  0  0  0  0
    2.8185    9.7968    0.0000 N   0  0  0  0  0  0  0  0  0  0  0  0
    1.3651   10.1675    0.0000 C   0  0  0  0  0  0  0  0  0  0  0  0
    0.7799   11.5487    0.0000 C   0  0  0  0  0  0  0  0  0  0  0  0
    1.8226   12.6270    0.0000 C   0  0  0  0  0  0  0  0  0  0  0  0
   -0.2424   12.6464    0.0000 C   0  0  0  0  0  0  0  0  0  0  0  0
    0.1971   14.0806    0.0000 C   0  0  0  0  0  0  0  0  0  0  0  0
   -0.1323   10.2565    0.0000 C   0  0  0  0  0  0  0  0  0  0  0  0
   -0.1860   11.7556    0.0000 O   0  0  0  0  0  0  0  0  0  0  0  0
   -1.6194   10.0605    0.0000 N   0  0  0  0  0  0  0  0  0  0  0  0
   -3.0426    9.5866    0.0000 C   0  0  0  0  0  0  0  0  0  0  0  0
   -4.2816   10.4321    0.0000 C   0  0  0  0  0  0  0  0  0  0  0  0
   -4.1689   11.9279    0.0000 C   0  0  0  0  0  0  0  0  0  0  0  0
   -5.4079   12.7734    0.0000 C   0  0  0  0  0  0  0  0  0  0  0  0
   -5.2951   14.2692    0.0000 C   0  0  0  0  0  0  0  0  0  0  0  0
   -6.5341   15.1147    0.0000 N   0  0  0  0  0  0  0  0  0  0  0  0
   -4.3504    8.8520    0.0000 C   0  0  0  0  0  0  0  0  0  0  0  0
   -5.3498    9.9705    0.0000 O   0  0  0  0  0  0  0  0  0  0  0  0
   -5.4955    7.8831    0.0000 N   0  0  0  0  0  0  0  0  0  0  0  0
   -6.4365    6.7150    0.0000 C   0  0  0  0  0  0  0  0  0  0  0  0
   -7.9359    6.7564    0.0000 C   0  0  0  0  0  0  0  0  0  0  0  0
   -8.6497    8.0756    0.0000 C   0  0  0  0  0  0  0  0  0  0  0  0
  -10.1492    8.1171    0.0000 C   0  0  0  0  0  0  0  0  0  0  0  0
  -10.8630    9.4363    0.0000 O   0  0  0  0  0  0  0  0  0  0  0  0
  -10.9348    6.8393    0.0000 O   0  0  0  0  0  0  0  0  0  0  0  0
   -7.1395    5.3899    0.0000 C   0  0  0  0  0  0  0  0  0  0  0  0
   -8.5850    5.7905    0.0000 O   0  0  0  0  0  0  0  0  0  0  0  0
   -7.5789    3.9557    0.0000 N   0  0  0  0  0  0  0  0  0  0  0  0
   -7.7391    2.4643    0.0000 C   0  0  0  0  0  0  0  0  0  0  0  0
   -9.0229    1.6885    0.0000 C   0  0  0  0  0  0  0  0  0  0  0  0
  -10.3366    2.4124    0.0000 C   0  0  0  0  0  0  0  0  0  0  0  0
  -11.6204    1.6366    0.0000 C   0  0  0  0  0  0  0  0  0  0  0  0
  -11.3236    3.5420    0.0000 C   0  0  0  0  0  0  0  0  0  0  0  0
   -7.6141    0.9695    0.0000 C   0  0  0  0  0  0  0  0  0  0  0  0
   -9.0467    0.5250    0.0000 O   0  0  0  0  0  0  0  0  0  0  0  0
   -7.2084   -0.4746    0.0000 N   0  0  0  0  0  0  0  0  0  0  0  0
   -6.5368   -1.8159    0.0000 C   0  0  0  0  0  0  0  0  0  0  0  0
   -5.6235   -3.0058    0.0000 C   0  0  0  0  0  0  0  0  0  0  0  0
   -4.5015   -4.0013    0.0000 C   0  0  0  0  0  0  0  0  0  0  0  0
   -3.2114   -4.7665    0.0000 C   0  0  0  0  0  0  0  0  0  0  0  0
   -1.7997   -5.2738    0.0000 C   0  0  0  0  0  0  0  0  0  0  0  0
   -8.0368   -1.8220    0.0000 C   0  0  0  0  0  0  0  0  0  0  0  0
   -7.1974   -3.1626    0.0000 C   0  0  0  0  0  0  0  0  0  0  0  0
   -6.6876   -4.5733    0.0000 O   0  0  0  0  0  0  0  0  0  0  0  0
   -8.6939   -3.2639    0.0000 N   0  0  0  0  0  0  0  0  0  0  0  0
   -9.3545   -4.6106    0.0000 C   0  0  0  0  0  0  0  0  0  0  0  0
   -9.5146   -6.1020    0.0000 C   0  0  0  0  0  0  0  0  0  0  0  0
   -9.1550   -7.5583    0.0000 O   0  0  0  0  0  0  0  0  0  0  0  0
  -10.8021   -6.8717    0.0000 C   0  0  0  0  0  0  0  0  0  0  0  0
  -10.8511   -4.7119    0.0000 C   0  0  0  0  0  0  0  0  0  0  0  0
  -11.6871   -3.4664    0.0000 O   0  0  0  0  0  0  0  0  0  0  0  0
  -11.5117   -6.0586    0.0000 N   0  0  0  0  0  0  0  0  0  0  0  0
  -13.0082   -6.1599    0.0000 C   0  0  0  0  0  0  0  0  0  0  0  0
  -14.4492   -5.7432    0.0000 C   0  0  0  0  0  0  0  0  0  0  0  0
  -14.8088   -4.2869    0.0000 C   0  0  0  0  0  0  0  0  0  0  0  0
  -16.2498   -3.8702    0.0000 C   0  0  0  0  0  0  0  0  0  0  0  0
  -14.6487   -2.7955    0.0000 C   0  0  0  0  0  0  0  0  0  0  0  0
  -13.6688   -7.5066    0.0000 C   0  0  0  0  0  0  0  0  0  0  0  0
  -12.8328   -8.7520    0.0000 O   0  0  0  0  0  0  0  0  0  0  0  0
  -15.1654   -7.6079    0.0000 N   0  0  0  0  0  0  0  0  0  0  0  0
  -15.8260   -8.9546    0.0000 C   0  0  0  0  0  0  0  0  0  0  0  0
  -15.9861  -10.4460    0.0000 C   0  0  0  0  0  0  0  0  0  0  0  0
  -17.3578  -11.0530    0.0000 C   0  0  0  0  0  0  0  0  0  0  0  0
  -15.6265  -11.9023    0.0000 C   0  0  0  0  0  0  0  0  0  0  0  0
  -14.1855  -12.3189    0.0000 C   0  0  0  0  0  0  0  0  0  0  0  0
  -17.3225   -9.0559    0.0000 C   0  0  0  0  0  0  0  0  0  0  0  0
  -18.1423  -10.3120    0.0000 O   0  0  0  0  0  0  0  0  0  0  0  0
  -18.1585   -7.8104    0.0000 O   0  0  0  0  0  0  0  0  0  0  0  0
   20.5628   -9.3986    0.0000 H   0  0  0  0  0  0  0  0  0  0  0  0
   19.3089  -11.6741    0.0000 H   0  0  0  0  0  0  0  0  0  0  0  0
   18.9063   -8.2824    0.0000 H   0  0  0  0  0  0  0  0  0  0  0  0
   16.9783   -8.3209    0.0000 H   0  0  0  0  0  0  0  0  0  0  0  0
   17.6684  -11.3558    0.0000 H   0  0  0  0  0  0  0  0  0  0  0  0
   15.7404  -11.3944    0.0000 H   0  0  0  0  0  0  0  0  0  0  0  0
   14.2233  -11.2524    0.0000 H   0  0  0  0  0  0  0  0  0  0  0  0
   13.7111   -8.3861    0.0000 H   0  0  0  0  0  0  0  0  0  0  0  0
   12.3153  -12.4735    0.0000 H   0  0  0  0  0  0  0  0  0  0  0  0
   13.2320  -11.2427    0.0000 H   0  0  0  0  0  0  0  0  0  0  0  0
   11.3158  -13.8128    0.0000 H   0  0  0  0  0  0  0  0  0  0  0  0
    8.3724  -14.3926    0.0000 H   0  0  0  0  0  0  0  0  0  0  0  0
    6.3985  -12.1335    0.0000 H   0  0  0  0  0  0  0  0  0  0  0  0
    7.3680   -9.2944    0.0000 H   0  0  0  0  0  0  0  0  0  0  0  0
    9.9099   -9.1535    0.0000 H   0  0  0  0  0  0  0  0  0  0  0  0
   13.7397   -6.7152    0.0000 H   0  0  0  0  0  0  0  0  0  0  0  0
   12.5648   -5.0998    0.0000 H   0  0  0  0  0  0  0  0  0  0  0  0
    9.5261   -8.3037    0.0000 H   0  0  0  0  0  0  0  0  0  0  0  0
   10.9892   -7.6461    0.0000 H   0  0  0  0  0  0  0  0  0  0  0  0
    6.4347   -7.7499    0.0000 H   0  0  0  0  0  0  0  0  0  0  0  0
    8.4579   -9.3799    0.0000 H   0  0  0  0  0  0  0  0  0  0  0  0
   13.1239   -3.7183    0.0000 H   0  0  0  0  0  0  0  0  0  0  0  0
    9.8561   -2.6853    0.0000 H   0  0  0  0  0  0  0  0  0  0  0  0
   12.0705   -0.2205    0.0000 H   0  0  0  0  0  0  0  0  0  0  0  0
   15.1072   -2.6593    0.0000 H   0  0  0  0  0  0  0  0  0  0  0  0
   14.1396   -4.1481    0.0000 H   0  0  0  0  0  0  0  0  0  0  0  0
   12.6781   -3.9335    0.0000 H   0  0  0  0  0  0  0  0  0  0  0  0
   14.8364    0.3244    0.0000 H   0  0  0  0  0  0  0  0  0  0  0  0
   12.9084    0.2858    0.0000 H   0  0  0  0  0  0  0  0  0  0  0  0
   16.4929   -0.7918    0.0000 H   0  0  0  0  0  0  0  0  0  0  0  0
   16.1961   -2.6972    0.0000 H   0  0  0  0  0  0  0  0  0  0  0  0
   14.5787   -2.9287    0.0000 H   0  0  0  0  0  0  0  0  0  0  0  0
    8.5543   -2.5644    0.0000 H   0  0  0  0  0  0  0  0  0  0  0  0
    8.5971   -1.5900    0.0000 H   0  0  0  0  0  0  0  0  0  0  0  0
    7.8758   -2.6221    0.0000 H   0  0  0  0  0  0  0  0  0  0  0  0
    7.6947   -3.1169    0.0000 H   0  0  0  0  0  0  0  0  0  0  0  0
    6.9600   -3.9228    0.0000 H   0  0  0  0  0  0  0  0  0  0  0  0
    6.6069   -4.2844    0.0000 H   0  0  0  0  0  0  0  0  0  0  0  0
    5.6457   -5.0978    0.0000 H   0  0  0  0  0  0  0  0  0  0  0  0
    5.2306   -5.3861    0.0000 H   0  0  0  0  0  0  0  0  0  0  0  0
    4.1328   -6.0028    0.0000 H   0  0  0  0  0  0  0  0  0  0  0  0
    3.6707   -6.2073    0.0000 H   0  0  0  0  0  0  0  0  0  0  0  0
    2.4760   -6.6051    0.0000 H   0  0  0  0  0  0  0  0  0  0  0  0
    1.9835   -6.7185    0.0000 H   0  0  0  0  0  0  0  0  0  0  0  0
    0.5639   -6.8179    0.0000 H   0  0  0  0  0  0  0  0  0  0  0  0
   -0.4066   -7.0020    0.0000 H   0  0  0  0  0  0  0  0  0  0  0  0
   10.4275   -0.3350    0.0000 H   0  0  0  0  0  0  0  0  0  0  0  0
   10.3767    1.2981    0.0000 H   0  0  0  0  0  0  0  0  0  0  0  0
    8.8641    1.9160    0.0000 H   0  0  0  0  0  0  0  0  0  0  0  0
    9.5079    3.1541    0.0000 H   0  0  0  0  0  0  0  0  0  0  0  0
    9.1875    4.0886    0.0000 H   0  0  0  0  0  0  0  0  0  0  0  0
    9.4983    6.9169    0.0000 H   0  0  0  0  0  0  0  0  0  0  0  0
    7.7271    6.6993    0.0000 H   0  0  0  0  0  0  0  0  0  0  0  0
    7.7018    7.9370    0.0000 H   0  0  0  0  0  0  0  0  0  0  0  0
    6.8661    8.5234    0.0000 H   0  0  0  0  0  0  0  0  0  0  0  0
    5.3750   11.2277    0.0000 H   0  0  0  0  0  0  0  0  0  0  0  0
    4.1846   10.1085    0.0000 H   0  0  0  0  0  0  0  0  0  0  0  0
    8.5489   10.2765    0.0000 H   0  0  0  0  0  0  0  0  0  0  0  0
    7.6647    8.9026    0.0000 H   0  0  0  0  0  0  0  0  0  0  0  0
    7.0368   13.2248    0.0000 H   0  0  0  0  0  0  0  0  0  0  0  0
    5.8138   11.9254    0.0000 H   0  0  0  0  0  0  0  0  0  0  0  0
    9.8638   11.3080    0.0000 H   0  0  0  0  0  0  0  0  0  0  0  0
   10.6270   15.7428    0.0000 H   0  0  0  0  0  0  0  0  0  0  0  0
   11.5256   13.3051    0.0000 H   0  0  0  0  0  0  0  0  0  0  0  0
    8.0665   16.1834    0.0000 H   0  0  0  0  0  0  0  0  0  0  0  0
    6.4047   14.1864    0.0000 H   0  0  0  0  0  0  0  0  0  0  0  0
    3.4941   11.1361    0.0000 H   0  0  0  0  0  0  0  0  0  0  0  0
    2.4741   11.1775    0.0000 H   0  0  0  0  0  0  0  0  0  0  0  0
   -0.6387   11.0613    0.0000 H   0  0  0  0  0  0  0  0  0  0  0  0
    1.2865   14.2043    0.0000 H   0  0  0  0  0  0  0  0  0  0  0  0
    2.9419   13.5622    0.0000 H   0  0  0  0  0  0  0  0  0  0  0  0
    2.9409   11.9283    0.0000 H   0  0  0  0  0  0  0  0  0  0  0  0
   -1.5785   13.3282    0.0000 H   0  0  0  0  0  0  0  0  0  0  0  0
   -1.2851   11.5681    0.0000 H   0  0  0  0  0  0  0  0  0  0  0  0
   -0.8252   15.1782    0.0000 H   0  0  0  0  0  0  0  0  0  0  0  0
    1.1006   15.2779    0.0000 H   0  0  0  0  0  0  0  0  0  0  0  0
    1.6584   13.7423    0.0000 H   0  0  0  0  0  0  0  0  0  0  0  0
   -1.9559   11.5223    0.0000 H   0  0  0  0  0  0  0  0  0  0  0  0
   -2.6557   11.0359    0.0000 H   0  0  0  0  0  0  0  0  0  0  0  0
   -5.7350   10.8029    0.0000 H   0  0  0  0  0  0  0  0  0  0  0  0
   -5.2115    9.2552    0.0000 H   0  0  0  0  0  0  0  0  0  0  0  0
   -3.3893   13.2094    0.0000 H   0  0  0  0  0  0  0  0  0  0  0  0
   -2.6689   11.9199    0.0000 H   0  0  0  0  0  0  0  0  0  0  0  0
   -6.8957   12.9642    0.0000 H   0  0  0  0  0  0  0  0  0  0  0  0
   -6.1874   11.4919    0.0000 H   0  0  0  0  0  0  0  0  0  0  0  0
   -4.6776   15.6362    0.0000 H   0  0  0  0  0  0  0  0  0  0  0  0
   -3.8073   14.0783    0.0000 H   0  0  0  0  0  0  0  0  0  0  0  0
   -6.4214   16.6104    0.0000 H   0  0  0  0  0  0  0  0  0  0  0  0
   -7.9876   15.4854    0.0000 H   0  0  0  0  0  0  0  0  0  0  0  0
   -7.3137   13.8331    0.0000 H   0  0  0  0  0  0  0  0  0  0  0  0
   -6.4331    9.0539    0.0000 H   0  0  0  0  0  0  0  0  0  0  0  0
   -6.8945    8.1433    0.0000 H   0  0  0  0  0  0  0  0  0  0  0  0
   -9.4062    6.4595    0.0000 H   0  0  0  0  0  0  0  0  0  0  0  0
   -8.0819    5.2635    0.0000 H   0  0  0  0  0  0  0  0  0  0  0  0
   -8.8693    9.5595    0.0000 H   0  0  0  0  0  0  0  0  0  0  0  0
   -7.3835    8.8798    0.0000 H   0  0  0  0  0  0  0  0  0  0  0  0
   -9.0007    4.4338    0.0000 H   0  0  0  0  0  0  0  0  0  0  0  0
   -8.8966    3.4183    0.0000 H   0  0  0  0  0  0  0  0  0  0  0  0
   -9.9639    0.5204    0.0000 H   0  0  0  0  0  0  0  0  0  0  0  0
   -8.3386    0.3537    0.0000 H   0  0  0  0  0  0  0  0  0  0  0  0
   -9.7062    3.7735    0.0000 H   0  0  0  0  0  0  0  0  0  0  0  0
  -13.0126    2.1950    0.0000 H   0  0  0  0  0  0  0  0  0  0  0  0
  -12.5615    0.4685    0.0000 H   0  0  0  0  0  0  0  0  0  0  0  0
  -10.7785    0.3951    0.0000 H   0  0  0  0  0  0  0  0  0  0  0  0
  -12.8197    3.4336    0.0000 H   0  0  0  0  0  0  0  0  0  0  0  0
  -11.8647    4.9410    0.0000 H   0  0  0  0  0  0  0  0  0  0  0  0
  -10.0398    4.3178    0.0000 H   0  0  0  0  0  0  0  0  0  0  0  0
   -8.6629   -0.8411    0.0000 H   0  0  0  0  0  0  0  0  0  0  0  0
   -6.0173   -4.4531    0.0000 H   0  0  0  0  0  0  0  0  0  0  0  0
   -6.9813   -3.6432    0.0000 H   0  0  0  0  0  0  0  0  0  0  0  0
   -4.7957   -5.4722    0.0000 H   0  0  0  0  0  0  0  0  0  0  0  0
   -5.7141   -4.8842    0.0000 H   0  0  0  0  0  0  0  0  0  0  0  0
   -3.0390   -6.2566    0.0000 H   0  0  0  0  0  0  0  0  0  0  0  0
   -4.3610   -5.7300    0.0000 H   0  0  0  0  0  0  0  0  0  0  0  0
   -2.1705   -6.7272    0.0000 H   0  0  0  0  0  0  0  0  0  0  0  0
   -9.0744   -2.9052    0.0000 H   0  0  0  0  0  0  0  0  0  0  0  0
   -9.4484   -1.3148    0.0000 H   0  0  0  0  0  0  0  0  0  0  0  0
   -8.1476   -0.3261    0.0000 H   0  0  0  0  0  0  0  0  0  0  0  0
   -9.6755   -2.1296    0.0000 H   0  0  0  0  0  0  0  0  0  0  0  0
   -7.9136   -5.0273    0.0000 H   0  0  0  0  0  0  0  0  0  0  0  0
   -8.0181   -6.0007    0.0000 H   0  0  0  0  0  0  0  0  0  0  0  0
   -7.7141   -7.9749    0.0000 H   0  0  0  0  0  0  0  0  0  0  0  0
  -11.0465   -8.2005    0.0000 H   0  0  0  0  0  0  0  0  0  0  0  0
  -12.3829   -6.8103    0.0000 H   0  0  0  0  0  0  0  0  0  0  0  0
  -11.8876   -5.5922    0.0000 H   0  0  0  0  0  0  0  0  0  0  0  0
  -10.8337   -7.3966    0.0000 H   0  0  0  0  0  0  0  0  0  0  0  0
  -12.6675   -4.6991    0.0000 H   0  0  0  0  0  0  0  0  0  0  0  0
  -15.9458   -5.8445    0.0000 H   0  0  0  0  0  0  0  0  0  0  0  0
  -14.9655   -7.1515    0.0000 H   0  0  0  0  0  0  0  0  0  0  0  0
  -13.3358   -4.0040    0.0000 H   0  0  0  0  0  0  0  0  0  0  0  0
  -16.7842   -2.4687    0.0000 H   0  0  0  0  0  0  0  0  0  0  0  0
  -17.7464   -3.9715    0.0000 H   0  0  0  0  0  0  0  0  0  0  0  0
  -16.5905   -5.3310    0.0000 H   0  0  0  0  0  0  0  0  0  0  0  0
  -15.7434   -1.7700    0.0000 H   0  0  0  0  0  0  0  0  0  0  0  0
  -13.9881   -1.4488    0.0000 H   0  0  0  0  0  0  0  0  0  0  0  0
  -13.2077   -3.2122    0.0000 H   0  0  0  0  0  0  0  0  0  0  0  0
  -16.1470   -6.4736    0.0000 H   0  0  0  0  0  0  0  0  0  0  0  0
  -14.3850   -9.3713    0.0000 H   0  0  0  0  0  0  0  0  0  0  0  0
  -14.5130  -10.1630    0.0000 H   0  0  0  0  0  0  0  0  0  0  0  0
  -17.6985  -12.5138    0.0000 H   0  0  0  0  0  0  0  0  0  0  0  0
  -18.8543  -11.1543    0.0000 H   0  0  0  0  0  0  0  0  0  0  0  0
  -18.2155   -9.8225    0.0000 H   0  0  0  0  0  0  0  0  0  0  0  0
  -15.7866  -13.3937    0.0000 H   0  0  0  0  0  0  0  0  0  0  0  0
  -17.0995  -12.1852    0.0000 H   0  0  0  0  0  0  0  0  0  0  0  0
  -13.8259  -13.7752    0.0000 H   0  0  0  0  0  0  0  0  0  0  0  0
  -12.6889  -12.2177    0.0000 H   0  0  0  0  0  0  0  0  0  0  0  0
  -13.8448  -10.8582    0.0000 H   0  0  0  0  0  0  0  0  0  0  0  0
  1  2  1  0
  2  3  1  0
  3  4  1  0
  4  5  2  0
  4  6  1  0
  6  7  1  0
  7  8  1  0
  8  9  1  0
  9 10  2  0
 10 11  1  0
 11 12  2  0
 12 13  1  0
 13 14  2  0
  7 15  1  0
 15 16  2  0
 15 17  1  0
 17 18  1  0
 18 19  1  0
 19 20  1  0
 20 21  1  0
 20 22  2  0
 18 23  1  0
 23 24  2  0
 23 25  1  0
 25 26  1  0
 26 27  1  0
 27 28  1  0
 27 29  1  0
 29 30  1  0
 26 31  1  0
 31 32  2  0
 31 33  1  0
 34 33  1  6
 34 35  1  0
 35 36  1  0
 36 37  1  0
 37 38  1  0
 38 39  1  0
 39 40  1  0
 40 41  1  0
 34 42  1  0
 34 43  1  0
 43 44  2  0
 43 45  1  0
 45 46  1  0
 46 47  1  0
 47 48  1  0
 48 49  2  0
 48 50  1  0
 46 51  1  0
 51 52  2  0
 51 53  1  0
 53 54  1  0
 54 55  1  0
 55 56  1  0
 56 57  1  0
 57 58  1  0
 58 59  1  0
 59 60  2  3
 59 61  1  0
 54 62  1  0
 62 63  2  0
 62 64  1  0
 64 65  1  0
 65 66  1  0
 66 67  1  0
 66 68  1  0
 68 69  1  0
 65 70  1  0
 70 71  2  0
 70 72  1  0
 72 73  1  0
 73 74  1  0
 74 75  1  0
 75 76  1  0
 76 77  1  0
 77 78  1  0
 73 79  1  0
 79 80  2  0
 79 81  1  0
 81 82  1  0
 82 83  1  0
 83 84  1  0
 84 85  1  0
 85 86  2  0
 85 87  1  0
 82 88  1  0
 88 89  2  0
 88 90  1  0
 90 91  1  0
 91 92  1  0
 92 93  1  0
 93 94  1  0
 93 95  1  0
 91 96  1  0
 96 97  2  0
 96 98  1  0
 98 99  1  0
 99100  1  0
100101  1  0
101102  1  0
102103  1  0
 99104  1  0
 99105  1  1
105106  2  0
105107  1  0
107108  1  0
108109  1  0
109110  1  0
109111  1  0
108112  1  0
112113  2  0
112114  1  0
114115  1  0
115116  1  0
116117  1  0
117118  1  0
117119  1  0
115120  1  0
120121  2  0
120122  1  0
122123  1  0
123124  1  0
124125  1  0
124126  1  0
126127  1  0
123128  1  0
128129  2  0
128130  1  0
 14  9  1  0
 41103  2  0
  1131  1  0
  1132  1  0
  2133  1  0
  2134  1  0
  3135  1  0
  3136  1  0
  6137  1  0
  7138  1  1
  8139  1  0
  8140  1  0
 10141  1  0
 11142  1  0
 12143  1  0
 13144  1  0
 14145  1  0
 17146  1  0
 18147  1  1
 19148  1  0
 19149  1  0
 21150  1  0
 21151  1  0
 25152  1  0
 26153  1  6
 27154  1  1
 28155  1  0
 28156  1  0
 28157  1  0
 29158  1  0
 29159  1  0
 30160  1  0
 30161  1  0
 30162  1  0
 33163  1  0
 35164  1  0
 35165  1  0
 36166  1  0
 36167  1  0
 37168  1  0
 37169  1  0
 38170  1  0
 38171  1  0
 39172  1  0
 39173  1  0
 40174  1  0
 40175  1  0
 41176  1  0
 42177  1  0
 42178  1  0
 42179  1  0
 45180  1  0
 46181  1  6
 47182  1  0
 47183  1  0
 53184  1  0
 54185  1  6
 55186  1  0
 55187  1  0
 56188  1  0
 56189  1  0
 57190  1  0
 57191  1  0
 58192  1  0
 60193  1  0
 60194  1  0
 61195  1  0
 61196  1  0
 64197  1  0
 65198  1  6
 66199  1  1
 67200  1  0
 67201  1  0
 67202  1  0
 68203  1  0
 68204  1  0
 69205  1  0
 69206  1  0
 69207  1  0
 72208  1  0
 73209  1  6
 74210  1  0
 74211  1  0
 75212  1  0
 75213  1  0
 76214  1  0
 76215  1  0
 77216  1  0
 77217  1  0
 78218  1  0
 78219  1  0
 78220  1  0
 81221  1  0
 82222  1  6
 83223  1  0
 83224  1  0
 84225  1  0
 84226  1  0
 90227  1  0
 91228  1  6
 92229  1  0
 92230  1  0
 93231  1  0
 94232  1  0
 94233  1  0
 94234  1  0
 95235  1  0
 95236  1  0
 95237  1  0
 98238  1  0
100239  1  0
100240  1  0
101241  1  0
101242  1  0
102243  1  0
102244  1  0
103245  1  0
104246  1  0
104247  1  0
104248  1  0
107249  1  0
108250  1  1
109251  1  1
110252  1  0
111253  1  0
111254  1  0
111255  1  0
114256  1  0
115257  1  6
116258  1  0
116259  1  0
117260  1  0
118261  1  0
118262  1  0
118263  1  0
119264  1  0
119265  1  0
119266  1  0
122267  1  0
123268  1  1
124269  1  1
125270  1  0
125271  1  0
125272  1  0
126273  1  0
126274  1  0
127275  1  0
127276  1  0
127277  1  0
M  CHG  5  50  -1  60   1  78   1  87  -1 130  -1
M  END
