
     RDKit          2D

382383  0  0  0  0  0  0  0  0999 V2000
  -35.6638    4.7991    0.0000 N   0  0  0  0  0  0  0  0  0  0  0  0
  -34.7153    3.6371    0.0000 C   0  0  0  0  0  0  0  0  0  0  0  0
  -33.2347    3.8775    0.0000 C   0  0  0  0  0  0  0  0  0  0  0  0
  -32.2861    2.7155    0.0000 C   0  0  0  0  0  0  0  0  0  0  0  0
  -32.8524    1.6405    0.0000 O   0  0  0  0  0  0  0  0  0  0  0  0
  -30.8055    2.9560    0.0000 N   0  0  0  0  0  0  0  0  0  0  0  0
  -29.8570    1.7940    0.0000 C   0  0  0  0  0  0  0  0  0  0  0  0
  -31.1661    1.0616    0.0000 C   0  0  0  0  0  0  0  0  0  0  0  0
  -31.1864   -0.4382    0.0000 C   0  0  0  0  0  0  0  0  0  0  0  0
  -32.4954   -1.1706    0.0000 C   0  0  0  0  0  0  0  0  0  0  0  0
  -30.6925   -1.8546    0.0000 C   0  0  0  0  0  0  0  0  0  0  0  0
  -28.5682    1.0265    0.0000 C   0  0  0  0  0  0  0  0  0  0  0  0
  -28.7509   -0.3111    0.0000 O   0  0  0  0  0  0  0  0  0  0  0  0
  -27.2592    1.7588    0.0000 N   0  0  0  0  0  0  0  0  0  0  0  0
  -25.9704    0.9913    0.0000 C   0  0  0  0  0  0  0  0  0  0  0  0
  -25.6931   -0.4828    0.0000 C   0  0  0  0  0  0  0  0  0  0  0  0
  -24.9936   -1.8098    0.0000 C   0  0  0  0  0  0  0  0  0  0  0  0
  -23.9341   -2.8716    0.0000 C   0  0  0  0  0  0  0  0  0  0  0  0
  -22.6087   -3.5739    0.0000 C   0  0  0  0  0  0  0  0  0  0  0  0
  -27.2956    0.2885    0.0000 C   0  0  0  0  0  0  0  0  0  0  0  0
  -25.8009    2.4817    0.0000 C   0  0  0  0  0  0  0  0  0  0  0  0
  -27.1910    3.0451    0.0000 O   0  0  0  0  0  0  0  0  0  0  0  0
  -25.1996    3.8559    0.0000 N   0  0  0  0  0  0  0  0  0  0  0  0
  -24.2199    4.9918    0.0000 C   0  0  0  0  0  0  0  0  0  0  0  0
  -25.6582    5.4176    0.0000 C   0  0  0  0  0  0  0  0  0  0  0  0
  -25.8283    6.9079    0.0000 C   0  0  0  0  0  0  0  0  0  0  0  0
  -27.1554    5.3257    0.0000 C   0  0  0  0  0  0  0  0  0  0  0  0
  -27.9835    6.5764    0.0000 C   0  0  0  0  0  0  0  0  0  0  0  0
  -22.9490    5.7885    0.0000 C   0  0  0  0  0  0  0  0  0  0  0  0
  -23.5473    7.1640    0.0000 O   0  0  0  0  0  0  0  0  0  0  0  0
  -21.4997    6.1752    0.0000 N   0  0  0  0  0  0  0  0  0  0  0  0
  -20.0008    6.1175    0.0000 C   0  0  0  0  0  0  0  0  0  0  0  0
  -20.5647    7.5075    0.0000 C   0  0  0  0  0  0  0  0  0  0  0  0
  -19.6429    8.6908    0.0000 C   0  0  0  0  0  0  0  0  0  0  0  0
  -20.2068   10.0808    0.0000 C   0  0  0  0  0  0  0  0  0  0  0  0
  -18.3719    9.4875    0.0000 C   0  0  0  0  0  0  0  0  0  0  0  0
  -18.5855    5.6206    0.0000 C   0  0  0  0  0  0  0  0  0  0  0  0
  -17.8832    6.9460    0.0000 O   0  0  0  0  0  0  0  0  0  0  0  0
  -17.3795    4.7286    0.0000 N   0  0  0  0  0  0  0  0  0  0  0  0
  -16.4901    3.5207    0.0000 C   0  0  0  0  0  0  0  0  0  0  0  0
  -15.7550    4.8282    0.0000 C   0  0  0  0  0  0  0  0  0  0  0  0
  -14.2551    4.8453    0.0000 C   0  0  0  0  0  0  0  0  0  0  0  0
  -13.5199    6.1528    0.0000 C   0  0  0  0  0  0  0  0  0  0  0  0
  -12.0200    6.1699    0.0000 N   0  0  0  0  0  0  0  0  0  0  0  0
  -14.2847    7.4432    0.0000 O   0  0  0  0  0  0  0  0  0  0  0  0
  -15.9962    2.1044    0.0000 C   0  0  0  0  0  0  0  0  0  0  0  0
  -14.6329    2.7301    0.0000 O   0  0  0  0  0  0  0  0  0  0  0  0
  -15.9417    0.6053    0.0000 N   0  0  0  0  0  0  0  0  0  0  0  0
  -16.3315   -0.8431    0.0000 C   0  0  0  0  0  0  0  0  0  0  0  0
  -17.1309   -2.1124    0.0000 C   0  0  0  0  0  0  0  0  0  0  0  0
  -18.2689   -3.0896    0.0000 C   0  0  0  0  0  0  0  0  0  0  0  0
  -19.6444   -3.6880    0.0000 C   0  0  0  0  0  0  0  0  0  0  0  0
  -21.1351   -3.8543    0.0000 C   0  0  0  0  0  0  0  0  0  0  0  0
  -15.0020   -0.0311    0.0000 C   0  0  0  0  0  0  0  0  0  0  0  0
  -14.0223    0.8102    0.0000 C   0  0  0  0  0  0  0  0  0  0  0  0
  -12.8381    1.3254    0.0000 C   0  0  0  0  0  0  0  0  0  0  0  0
  -11.5548    1.4686    0.0000 C   0  0  0  0  0  0  0  0  0  0  0  0
  -16.0257   -2.3707    0.0000 C   0  0  0  0  0  0  0  0  0  0  0  0
  -18.2116   -2.1221    0.0000 O   0  0  0  0  0  0  0  0  0  0  0  0
  -15.9788   -3.6612    0.0000 N   0  0  0  0  0  0  0  0  0  0  0  0
  -15.5536   -4.8805    0.0000 C   0  0  0  0  0  0  0  0  0  0  0  0
  -16.9080   -6.5145    0.0000 C   0  0  0  0  0  0  0  0  0  0  0  0
  -14.7879   -5.9204    0.0000 C   0  0  0  0  0  0  0  0  0  0  0  0
  -16.2081   -7.5959    0.0000 O   0  0  0  0  0  0  0  0  0  0  0  0
  -13.7497   -6.6883    0.0000 N   0  0  0  0  0  0  0  0  0  0  0  0
  -12.5313   -7.1161    0.0000 C   0  0  0  0  0  0  0  0  0  0  0  0
  -12.0983   -9.1937    0.0000 C   0  0  0  0  0  0  0  0  0  0  0  0
  -13.0201  -10.3771    0.0000 C   0  0  0  0  0  0  0  0  0  0  0  0
  -11.2409   -7.1658    0.0000 C   0  0  0  0  0  0  0  0  0  0  0  0
  -10.9969   -9.3522    0.0000 O   0  0  0  0  0  0  0  0  0  0  0  0
   -9.9932   -6.8329    0.0000 N   0  0  0  0  0  0  0  0  0  0  0  0
   -8.8991   -6.1470    0.0000 C   0  0  0  0  0  0  0  0  0  0  0  0
   -7.0047   -7.1038    0.0000 C   0  0  0  0  0  0  0  0  0  0  0  0
   -6.6543   -8.5623    0.0000 C   0  0  0  0  0  0  0  0  0  0  0  0
   -5.2160   -8.9881    0.0000 C   0  0  0  0  0  0  0  0  0  0  0  0
   -4.8656  -10.4466    0.0000 N   0  0  0  0  0  0  0  0  0  0  0  0
   -4.1281   -7.9554    0.0000 O   0  0  0  0  0  0  0  0  0  0  0  0
   -8.0557   -5.1691    0.0000 C   0  0  0  0  0  0  0  0  0  0  0  0
   -6.1942   -6.3416    0.0000 O   0  0  0  0  0  0  0  0  0  0  0  0
   -7.5380   -3.9861    0.0000 N   0  0  0  0  0  0  0  0  0  0  0  0
   -7.3921   -2.7030    0.0000 C   0  0  0  0  0  0  0  0  0  0  0  0
   -7.6308   -1.4339    0.0000 C   0  0  0  0  0  0  0  0  0  0  0  0
   -8.2330   -0.2916    0.0000 C   0  0  0  0  0  0  0  0  0  0  0  0
   -9.1451    0.6225    0.0000 C   0  0  0  0  0  0  0  0  0  0  0  0
  -10.2862    1.2271    0.0000 C   0  0  0  0  0  0  0  0  0  0  0  0
   -5.4038   -3.4451    0.0000 C   0  0  0  0  0  0  0  0  0  0  0  0
   -5.4629   -1.8185    0.0000 C   0  0  0  0  0  0  0  0  0  0  0  0
   -5.2266   -0.3372    0.0000 O   0  0  0  0  0  0  0  0  0  0  0  0
   -4.1041   -2.4539    0.0000 N   0  0  0  0  0  0  0  0  0  0  0  0
   -2.8745   -1.5948    0.0000 C   0  0  0  0  0  0  0  0  0  0  0  0
   -2.0128   -0.3670    0.0000 C   0  0  0  0  0  0  0  0  0  0  0  0
   -0.5137   -0.3162    0.0000 C   0  0  0  0  0  0  0  0  0  0  0  0
   -1.6230    1.0815    0.0000 C   0  0  0  0  0  0  0  0  0  0  0  0
   -2.6826    2.1432    0.0000 C   0  0  0  0  0  0  0  0  0  0  0  0
   -1.5157   -2.2302    0.0000 C   0  0  0  0  0  0  0  0  0  0  0  0
   -1.3866   -3.7246    0.0000 O   0  0  0  0  0  0  0  0  0  0  0  0
   -0.2860   -1.3711    0.0000 N   0  0  0  0  0  0  0  0  0  0  0  0
    1.0727   -2.0065    0.0000 C   0  0  0  0  0  0  0  0  0  0  0  0
    2.1323   -3.0683    0.0000 C   0  0  0  0  0  0  0  0  0  0  0  0
    1.7425   -4.5168    0.0000 C   0  0  0  0  0  0  0  0  0  0  0  0
    2.8020   -5.5786    0.0000 C   0  0  0  0  0  0  0  0  0  0  0  0
    0.8808   -5.7446    0.0000 C   0  0  0  0  0  0  0  0  0  0  0  0
    2.3024   -1.1475    0.0000 C   0  0  0  0  0  0  0  0  0  0  0  0
    2.1732    0.3470    0.0000 O   0  0  0  0  0  0  0  0  0  0  0  0
    3.6612   -1.7828    0.0000 N   0  0  0  0  0  0  0  0  0  0  0  0
    4.8908   -0.9238    0.0000 C   0  0  0  0  0  0  0  0  0  0  0  0
    6.2496   -1.5592    0.0000 C   0  0  0  0  0  0  0  0  0  0  0  0
    6.3787   -3.0536    0.0000 O   0  0  0  0  0  0  0  0  0  0  0  0
    7.4792   -0.7001    0.0000 N   0  0  0  0  0  0  0  0  0  0  0  0
    8.8380   -1.3355    0.0000 C   0  0  0  0  0  0  0  0  0  0  0  0
    9.8976   -2.3973    0.0000 C   0  0  0  0  0  0  0  0  0  0  0  0
    9.5078   -3.8458    0.0000 C   0  0  0  0  0  0  0  0  0  0  0  0
   10.5673   -4.9075    0.0000 C   0  0  0  0  0  0  0  0  0  0  0  0
    8.6461   -5.0736    0.0000 C   0  0  0  0  0  0  0  0  0  0  0  0
   10.0677   -0.4764    0.0000 C   0  0  0  0  0  0  0  0  0  0  0  0
    9.9385    1.0180    0.0000 O   0  0  0  0  0  0  0  0  0  0  0  0
   11.4265   -1.1118    0.0000 N   0  0  0  0  0  0  0  0  0  0  0  0
   12.6561   -0.2528    0.0000 C   0  0  0  0  0  0  0  0  0  0  0  0
   13.5178    0.9751    0.0000 C   0  0  0  0  0  0  0  0  0  0  0  0
   15.0119    0.8427    0.0000 C   0  0  0  0  0  0  0  0  0  0  0  0
   15.8736    2.0705    0.0000 C   0  0  0  0  0  0  0  0  0  0  0  0
   17.0879    2.1117    0.0000 O   0  0  0  0  0  0  0  0  0  0  0  0
   15.2411    3.4307    0.0000 O   0  0  0  0  0  0  0  0  0  0  0  0
   14.0149   -0.8881    0.0000 C   0  0  0  0  0  0  0  0  0  0  0  0
   14.1440   -2.3826    0.0000 O   0  0  0  0  0  0  0  0  0  0  0  0
   15.2445   -0.0291    0.0000 N   0  0  0  0  0  0  0  0  0  0  0  0
   16.6033   -0.6645    0.0000 C   0  0  0  0  0  0  0  0  0  0  0  0
   17.6628   -1.7262    0.0000 C   0  0  0  0  0  0  0  0  0  0  0  0
   17.2731   -3.1747    0.0000 C   0  0  0  0  0  0  0  0  0  0  0  0
   18.3326   -4.2365    0.0000 C   0  0  0  0  0  0  0  0  0  0  0  0
   17.9428   -5.6850    0.0000 N   0  0  0  0  0  0  0  0  0  0  0  0
   19.7819   -3.8498    0.0000 O   0  0  0  0  0  0  0  0  0  0  0  0
   17.8330    0.1946    0.0000 C   0  0  0  0  0  0  0  0  0  0  0  0
   17.8767    1.4088    0.0000 O   0  0  0  0  0  0  0  0  0  0  0  0
   19.1917   -0.4408    0.0000 N   0  0  0  0  0  0  0  0  0  0  0  0
   20.4214    0.4183    0.0000 C   0  0  0  0  0  0  0  0  0  0  0  0
   21.2831    1.6461    0.0000 C   0  0  0  0  0  0  0  0  0  0  0  0
   22.7772    1.5138    0.0000 C   0  0  0  0  0  0  0  0  0  0  0  0
   23.6389    2.7416    0.0000 C   0  0  0  0  0  0  0  0  0  0  0  0
   25.1380    2.7924    0.0000 N   0  0  0  0  0  0  0  0  0  0  0  0
   23.0064    4.1017    0.0000 O   0  0  0  0  0  0  0  0  0  0  0  0
   21.7802   -0.2171    0.0000 C   0  0  0  0  0  0  0  0  0  0  0  0
   21.9093   -1.7115    0.0000 O   0  0  0  0  0  0  0  0  0  0  0  0
   23.0098    0.6420    0.0000 N   0  0  0  0  0  0  0  0  0  0  0  0
   24.3686    0.0066    0.0000 C   0  0  0  0  0  0  0  0  0  0  0  0
   25.4281   -1.0552    0.0000 C   0  0  0  0  0  0  0  0  0  0  0  0
   25.0384   -2.5037    0.0000 C   0  0  0  0  0  0  0  0  0  0  0  0
   25.5982    0.8656    0.0000 C   0  0  0  0  0  0  0  0  0  0  0  0
   25.6376    1.9584    0.0000 O   0  0  0  0  0  0  0  0  0  0  0  0
   26.9570    0.2303    0.0000 N   0  0  0  0  0  0  0  0  0  0  0  0
   28.1867    1.0893    0.0000 C   0  0  0  0  0  0  0  0  0  0  0  0
   29.0484    2.3171    0.0000 C   0  0  0  0  0  0  0  0  0  0  0  0
   30.5425    2.1848    0.0000 C   0  0  0  0  0  0  0  0  0  0  0  0
   31.4042    3.4126    0.0000 C   0  0  0  0  0  0  0  0  0  0  0  0
   32.8983    3.2803    0.0000 N   0  0  0  0  0  0  0  0  0  0  0  0
   33.7600    4.5081    0.0000 C   0  0  0  0  0  0  0  0  0  0  0  0
   35.2269    4.1946    0.0000 N   0  0  0  0  0  0  0  0  0  0  0  0
   33.1275    5.8682    0.0000 N   0  0  0  0  0  0  0  0  0  0  0  0
   29.5455    0.4539    0.0000 C   0  0  0  0  0  0  0  0  0  0  0  0
   29.6746   -1.0405    0.0000 O   0  0  0  0  0  0  0  0  0  0  0  0
   30.7751    1.3130    0.0000 N   0  0  0  0  0  0  0  0  0  0  0  0
   32.1339    0.6776    0.0000 C   0  0  0  0  0  0  0  0  0  0  0  0
   33.1934   -0.3842    0.0000 C   0  0  0  0  0  0  0  0  0  0  0  0
   32.8036   -1.8327    0.0000 C   0  0  0  0  0  0  0  0  0  0  0  0
   33.8632   -2.8944    0.0000 C   0  0  0  0  0  0  0  0  0  0  0  0
   33.4734   -4.3429    0.0000 O   0  0  0  0  0  0  0  0  0  0  0  0
   35.3125   -2.5078    0.0000 O   0  0  0  0  0  0  0  0  0  0  0  0
   33.3635    1.5367    0.0000 C   0  0  0  0  0  0  0  0  0  0  0  0
   33.5358    2.6165    0.0000 O   0  0  0  0  0  0  0  0  0  0  0  0
   34.7223    0.9013    0.0000 N   0  0  0  0  0  0  0  0  0  0  0  0
   35.9520    1.7603    0.0000 C   0  0  0  0  0  0  0  0  0  0  0  0
   36.8136    2.9882    0.0000 C   0  0  0  0  0  0  0  0  0  0  0  0
   38.3078    2.8558    0.0000 C   0  0  0  0  0  0  0  0  0  0  0  0
   39.1695    4.0836    0.0000 C   0  0  0  0  0  0  0  0  0  0  0  0
   40.6636    3.9513    0.0000 N   0  0  0  0  0  0  0  0  0  0  0  0
   41.5253    5.1791    0.0000 C   0  0  0  0  0  0  0  0  0  0  0  0
   43.0194    5.0468    0.0000 N   0  0  0  0  0  0  0  0  0  0  0  0
   40.8928    6.5393    0.0000 N   0  0  0  0  0  0  0  0  0  0  0  0
   37.3108    1.1250    0.0000 C   0  0  0  0  0  0  0  0  0  0  0  0
   38.6359    1.8277    0.0000 O   0  0  0  0  0  0  0  0  0  0  0  0
   37.4399   -0.3695    0.0000 O   0  0  0  0  0  0  0  0  0  0  0  0
  -37.1444    4.5586    0.0000 H   0  0  0  0  0  0  0  0  0  0  0  0
  -35.1318    6.2015    0.0000 H   0  0  0  0  0  0  0  0  0  0  0  0
  -36.0244    2.9047    0.0000 H   0  0  0  0  0  0  0  0  0  0  0  0
  -34.2214    2.2207    0.0000 H   0  0  0  0  0  0  0  0  0  0  0  0
  -33.7286    5.2939    0.0000 H   0  0  0  0  0  0  0  0  0  0  0  0
  -31.9256    4.6099    0.0000 H   0  0  0  0  0  0  0  0  0  0  0  0
  -30.2735    4.3584    0.0000 H   0  0  0  0  0  0  0  0  0  0  0  0
  -28.8774    2.9299    0.0000 H   0  0  0  0  0  0  0  0  0  0  0  0
  -32.3654    0.8668    0.0000 H   0  0  0  0  0  0  0  0  0  0  0  0
  -31.7653    1.9763    0.0000 H   0  0  0  0  0  0  0  0  0  0  0  0
  -29.7058   -0.1978    0.0000 H   0  0  0  0  0  0  0  0  0  0  0  0
  -32.6984   -2.6568    0.0000 H   0  0  0  0  0  0  0  0  0  0  0  0
  -33.9760   -1.4111    0.0000 H   0  0  0  0  0  0  0  0  0  0  0  0
  -33.1583    0.1750    0.0000 H   0  0  0  0  0  0  0  0  0  0  0  0
  -31.5263   -3.1015    0.0000 H   0  0  0  0  0  0  0  0  0  0  0  0
  -29.7439   -3.0166    0.0000 H   0  0  0  0  0  0  0  0  0  0  0  0
  -29.5143   -1.1955    0.0000 H   0  0  0  0  0  0  0  0  0  0  0  0
  -27.2389    3.2587    0.0000 H   0  0  0  0  0  0  0  0  0  0  0  0
  -26.6149   -1.6662    0.0000 H   0  0  0  0  0  0  0  0  0  0  0  0
  -27.1831   -0.3096    0.0000 H   0  0  0  0  0  0  0  0  0  0  0  0
  -25.6927   -3.1369    0.0000 H   0  0  0  0  0  0  0  0  0  0  0  0
  -26.4684   -2.0834    0.0000 H   0  0  0  0  0  0  0  0  0  0  0  0
  -24.0291   -4.3685    0.0000 H   0  0  0  0  0  0  0  0  0  0  0  0
  -25.2627   -3.5678    0.0000 H   0  0  0  0  0  0  0  0  0  0  0  0
  -23.1056   -4.9892    0.0000 H   0  0  0  0  0  0  0  0  0  0  0  0
  -28.6372    0.4477    0.0000 H   0  0  0  0  0  0  0  0  0  0  0  0
  -27.8873   -1.1786    0.0000 H   0  0  0  0  0  0  0  0  0  0  0  0
  -26.6539   -1.2626    0.0000 H   0  0  0  0  0  0  0  0  0  0  0  0
  -26.5568    4.4946    0.0000 H   0  0  0  0  0  0  0  0  0  0  0  0
  -24.2407    6.4917    0.0000 H   0  0  0  0  0  0  0  0  0  0  0  0
  -26.1834    4.0125    0.0000 H   0  0  0  0  0  0  0  0  0  0  0  0
  -27.3869    7.4962    0.0000 H   0  0  0  0  0  0  0  0  0  0  0  0
  -25.8391    8.3664    0.0000 H   0  0  0  0  0  0  0  0  0  0  0  0
  -24.5338    7.1497    0.0000 H   0  0  0  0  0  0  0  0  0  0  0  0
  -28.5309    4.7274    0.0000 H   0  0  0  0  0  0  0  0  0  0  0  0
  -26.8050    3.8672    0.0000 H   0  0  0  0  0  0  0  0  0  0  0  0
  -29.4807    6.4846    0.0000 H   0  0  0  0  0  0  0  0  0  0  0  0
  -28.3340    8.0349    0.0000 H   0  0  0  0  0  0  0  0  0  0  0  0
  -26.7937    7.4898    0.0000 H   0  0  0  0  0  0  0  0  0  0  0  0
  -21.6660    7.6659    0.0000 H   0  0  0  0  0  0  0  0  0  0  0  0
  -18.8411    7.0689    0.0000 H   0  0  0  0  0  0  0  0  0  0  0  0
  -21.6982    8.4899    0.0000 H   0  0  0  0  0  0  0  0  0  0  0  0
  -21.9906    7.0420    0.0000 H   0  0  0  0  0  0  0  0  0  0  0  0
  -18.5094    7.7084    0.0000 H   0  0  0  0  0  0  0  0  0  0  0  0
  -19.4361   11.3676    0.0000 H   0  0  0  0  0  0  0  0  0  0  0  0
  -21.2121   11.1941    0.0000 H   0  0  0  0  0  0  0  0  0  0  0  0
  -21.5653    9.4449    0.0000 H   0  0  0  0  0  0  0  0  0  0  0  0
  -18.2433   10.9820    0.0000 H   0  0  0  0  0  0  0  0  0  0  0  0
  -16.9052    9.8015    0.0000 H   0  0  0  0  0  0  0  0  0  0  0  0
  -17.8080    8.0975    0.0000 H   0  0  0  0  0  0  0  0  0  0  0  0
  -16.3178    5.7881    0.0000 H   0  0  0  0  0  0  0  0  0  0  0  0
  -14.9959    3.3884    0.0000 H   0  0  0  0  0  0  0  0  0  0  0  0
  -15.5113    6.3083    0.0000 H   0  0  0  0  0  0  0  0  0  0  0  0
  -17.0079    5.6528    0.0000 H   0  0  0  0  0  0  0  0  0  0  0  0
  -12.8398    4.3484    0.0000 H   0  0  0  0  0  0  0  0  0  0  0  0
  -14.3164    3.3466    0.0000 H   0  0  0  0  0  0  0  0  0  0  0  0
  -11.2849    7.4774    0.0000 H   0  0  0  0  0  0  0  0  0  0  0  0
  -11.2552    4.8795    0.0000 H   0  0  0  0  0  0  0  0  0  0  0  0
  -14.4513    0.4358    0.0000 H   0  0  0  0  0  0  0  0  0  0  0  0
  -15.6452   -2.3190    0.0000 H   0  0  0  0  0  0  0  0  0  0  0  0
  -16.8868   -3.5924    0.0000 H   0  0  0  0  0  0  0  0  0  0  0  0
  -17.2281   -4.1698    0.0000 H   0  0  0  0  0  0  0  0  0  0  0  0
  -18.4718   -4.5758    0.0000 H   0  0  0  0  0  0  0  0  0  0  0  0
  -18.8101   -4.9345    0.0000 H   0  0  0  0  0  0  0  0  0  0  0  0
  -20.1058   -5.1152    0.0000 H   0  0  0  0  0  0  0  0  0  0  0  0
  -21.1928   -5.3532    0.0000 H   0  0  0  0  0  0  0  0  0  0  0  0
  -17.0178    0.6327    0.0000 H   0  0  0  0  0  0  0  0  0  0  0  0
  -15.7762    1.9061    0.0000 H   0  0  0  0  0  0  0  0  0  0  0  0
  -15.4348    2.4835    0.0000 H   0  0  0  0  0  0  0  0  0  0  0  0
  -14.0114    2.8537    0.0000 H   0  0  0  0  0  0  0  0  0  0  0  0
  -13.9986    3.1373    0.0000 H   0  0  0  0  0  0  0  0  0  0  0  0
  -12.5571    3.4289    0.0000 H   0  0  0  0  0  0  0  0  0  0  0  0
  -11.4702    3.6669    0.0000 H   0  0  0  0  0  0  0  0  0  0  0  0
  -18.0300   -4.4164    0.0000 H   0  0  0  0  0  0  0  0  0  0  0  0
  -17.6670   -5.0746    0.0000 H   0  0  0  0  0  0  0  0  0  0  0  0
  -16.3062   -7.8885    0.0000 H   0  0  0  0  0  0  0  0  0  0  0  0
  -18.0460   -7.4917    0.0000 H   0  0  0  0  0  0  0  0  0  0  0  0
  -18.1752   -5.7119    0.0000 H   0  0  0  0  0  0  0  0  0  0  0  0
  -14.7798   -8.6323    0.0000 H   0  0  0  0  0  0  0  0  0  0  0  0
  -13.8218   -8.7552    0.0000 H   0  0  0  0  0  0  0  0  0  0  0  0
  -11.0930  -10.3070    0.0000 H   0  0  0  0  0  0  0  0  0  0  0  0
  -10.6723   -8.7282    0.0000 H   0  0  0  0  0  0  0  0  0  0  0  0
  -12.4562  -11.7670    0.0000 H   0  0  0  0  0  0  0  0  0  0  0  0
  -14.2910  -11.1738    0.0000 H   0  0  0  0  0  0  0  0  0  0  0  0
  -14.1536   -9.3946    0.0000 H   0  0  0  0  0  0  0  0  0  0  0  0
   -9.1156   -8.8502    0.0000 H   0  0  0  0  0  0  0  0  0  0  0  0
   -8.4222   -8.1779    0.0000 H   0  0  0  0  0  0  0  0  0  0  0  0
   -5.5075   -7.0120    0.0000 H   0  0  0  0  0  0  0  0  0  0  0  0
   -6.4796   -5.6988    0.0000 H   0  0  0  0  0  0  0  0  0  0  0  0
   -6.8238  -10.0527    0.0000 H   0  0  0  0  0  0  0  0  0  0  0  0
   -8.1291   -8.8360    0.0000 H   0  0  0  0  0  0  0  0  0  0  0  0
   -3.4273  -10.8723    0.0000 H   0  0  0  0  0  0  0  0  0  0  0  0
   -5.9534  -11.4793    0.0000 H   0  0  0  0  0  0  0  0  0  0  0  0
   -5.4136   -4.5577    0.0000 H   0  0  0  0  0  0  0  0  0  0  0  0
   -6.0480   -0.0201    0.0000 H   0  0  0  0  0  0  0  0  0  0  0  0
   -5.4699   -1.1937    0.0000 H   0  0  0  0  0  0  0  0  0  0  0  0
   -6.9703    1.4507    0.0000 H   0  0  0  0  0  0  0  0  0  0  0  0
   -6.2389    0.5749    0.0000 H   0  0  0  0  0  0  0  0  0  0  0  0
   -8.6338    2.6823    0.0000 H   0  0  0  0  0  0  0  0  0  0  0  0
   -7.4002    1.8815    0.0000 H   0  0  0  0  0  0  0  0  0  0  0  0
   -9.5574    3.3029    0.0000 H   0  0  0  0  0  0  0  0  0  0  0  0
   -3.9564   -3.0512    0.0000 H   0  0  0  0  0  0  0  0  0  0  0  0
   -4.6040   -4.7140    0.0000 H   0  0  0  0  0  0  0  0  0  0  0  0
   -6.0795   -4.7843    0.0000 H   0  0  0  0  0  0  0  0  0  0  0  0
   -3.7938   -3.9214    0.0000 H   0  0  0  0  0  0  0  0  0  0  0  0
   -3.9340   -0.5330    0.0000 H   0  0  0  0  0  0  0  0  0  0  0  0
   -3.4389    0.0980    0.0000 H   0  0  0  0  0  0  0  0  0  0  0  0
    0.4863    0.6143    0.0000 H   0  0  0  0  0  0  0  0  0  0  0  0
    0.8401   -1.1347    0.0000 H   0  0  0  0  0  0  0  0  0  0  0  0
   -0.1826   -1.9612    0.0000 H   0  0  0  0  0  0  0  0  0  0  0  0
   -0.7614    2.3093    0.0000 H   0  0  0  0  0  0  0  0  0  0  0  0
   -0.1509    0.7938    0.0000 H   0  0  0  0  0  0  0  0  0  0  0  0
   -2.2928    3.5917    0.0000 H   0  0  0  0  0  0  0  0  0  0  0  0
   -4.0413    2.7786    0.0000 H   0  0  0  0  0  0  0  0  0  0  0  0
   -3.6875    1.0296    0.0000 H   0  0  0  0  0  0  0  0  0  0  0  0
   -0.0497    0.1101    0.0000 H   0  0  0  0  0  0  0  0  0  0  0  0
    0.0678   -3.1201    0.0000 H   0  0  0  0  0  0  0  0  0  0  0  0
    3.4910   -3.7037    0.0000 H   0  0  0  0  0  0  0  0  0  0  0  0
    3.2654   -2.0855    0.0000 H   0  0  0  0  0  0  0  0  0  0  0  0
    0.3164   -4.0518    0.0000 H   0  0  0  0  0  0  0  0  0  0  0  0
    2.5917   -7.0638    0.0000 H   0  0  0  0  0  0  0  0  0  0  0  0
    4.1608   -6.2140    0.0000 H   0  0  0  0  0  0  0  0  0  0  0  0
    3.8069   -4.4650    0.0000 H   0  0  0  0  0  0  0  0  0  0  0  0
    1.3428   -7.1717    0.0000 H   0  0  0  0  0  0  0  0  0  0  0  0
   -0.3488   -6.6037    0.0000 H   0  0  0  0  0  0  0  0  0  0  0  0
   -0.1787   -4.6828    0.0000 H   0  0  0  0  0  0  0  0  0  0  0  0
    3.9715   -3.2504    0.0000 H   0  0  0  0  0  0  0  0  0  0  0  0
    5.7525    0.3040    0.0000 H   0  0  0  0  0  0  0  0  0  0  0  0
    3.8313    0.1380    0.0000 H   0  0  0  0  0  0  0  0  0  0  0  0
    7.3501    0.7943    0.0000 H   0  0  0  0  0  0  0  0  0  0  0  0
    7.8331   -2.4491    0.0000 H   0  0  0  0  0  0  0  0  0  0  0  0
   11.2563   -3.0327    0.0000 H   0  0  0  0  0  0  0  0  0  0  0  0
   11.0307   -1.4145    0.0000 H   0  0  0  0  0  0  0  0  0  0  0  0
    8.0817   -3.3807    0.0000 H   0  0  0  0  0  0  0  0  0  0  0  0
   10.3570   -6.3927    0.0000 H   0  0  0  0  0  0  0  0  0  0  0  0
   11.9261   -5.5429    0.0000 H   0  0  0  0  0  0  0  0  0  0  0  0
   11.5722   -3.7939    0.0000 H   0  0  0  0  0  0  0  0  0  0  0  0
    9.1081   -6.5007    0.0000 H   0  0  0  0  0  0  0  0  0  0  0  0
    7.4165   -5.9326    0.0000 H   0  0  0  0  0  0  0  0  0  0  0  0
    7.5866   -4.0118    0.0000 H   0  0  0  0  0  0  0  0  0  0  0  0
   11.7368   -2.5794    0.0000 H   0  0  0  0  0  0  0  0  0  0  0  0
   11.5966    0.8090    0.0000 H   0  0  0  0  0  0  0  0  0  0  0  0
   13.9075    2.4235    0.0000 H   0  0  0  0  0  0  0  0  0  0  0  0
   12.1590    1.6104    0.0000 H   0  0  0  0  0  0  0  0  0  0  0  0
   16.3707    0.2073    0.0000 H   0  0  0  0  0  0  0  0  0  0  0  0
   15.3480   -0.6192    0.0000 H   0  0  0  0  0  0  0  0  0  0  0  0
   15.4808    1.4522    0.0000 H   0  0  0  0  0  0  0  0  0  0  0  0
   15.5984   -1.7781    0.0000 H   0  0  0  0  0  0  0  0  0  0  0  0
   18.9340   -2.5225    0.0000 H   0  0  0  0  0  0  0  0  0  0  0  0
   18.7960   -0.7434    0.0000 H   0  0  0  0  0  0  0  0  0  0  0  0
   16.4114   -4.4025    0.0000 H   0  0  0  0  0  0  0  0  0  0  0  0
   15.8470   -2.7097    0.0000 H   0  0  0  0  0  0  0  0  0  0  0  0
   19.0024   -6.7468    0.0000 H   0  0  0  0  0  0  0  0  0  0  0  0
   16.4935   -6.0717    0.0000 H   0  0  0  0  0  0  0  0  0  0  0  0
   19.5021   -1.9083    0.0000 H   0  0  0  0  0  0  0  0  0  0  0  0
   19.3619    1.4801    0.0000 H   0  0  0  0  0  0  0  0  0  0  0  0
   21.6728    3.0946    0.0000 H   0  0  0  0  0  0  0  0  0  0  0  0
   19.9243    2.2815    0.0000 H   0  0  0  0  0  0  0  0  0  0  0  0
   24.1360    0.8784    0.0000 H   0  0  0  0  0  0  0  0  0  0  0  0
   23.1132    0.0519    0.0000 H   0  0  0  0  0  0  0  0  0  0  0  0
   25.9947    3.8371    0.0000 H   0  0  0  0  0  0  0  0  0  0  0  0
   26.1203    1.4468    0.0000 H   0  0  0  0  0  0  0  0  0  0  0  0
   23.2461    2.1232    0.0000 H   0  0  0  0  0  0  0  0  0  0  0  0
   23.3637   -1.1070    0.0000 H   0  0  0  0  0  0  0  0  0  0  0  0
   26.6993   -1.8515    0.0000 H   0  0  0  0  0  0  0  0  0  0  0  0
   26.5613   -0.0724    0.0000 H   0  0  0  0  0  0  0  0  0  0  0  0
   26.0979   -3.5655    0.0000 H   0  0  0  0  0  0  0  0  0  0  0  0
   24.1767   -3.7315    0.0000 H   0  0  0  0  0  0  0  0  0  0  0  0
   23.6123   -2.0387    0.0000 H   0  0  0  0  0  0  0  0  0  0  0  0
   27.2674   -1.2373    0.0000 H   0  0  0  0  0  0  0  0  0  0  0  0
   27.1271    2.1511    0.0000 H   0  0  0  0  0  0  0  0  0  0  0  0
   29.2587    3.8023    0.0000 H   0  0  0  0  0  0  0  0  0  0  0  0
   27.6896    2.9525    0.0000 H   0  0  0  0  0  0  0  0  0  0  0  0
   31.9013    1.5494    0.0000 H   0  0  0  0  0  0  0  0  0  0  0  0
   30.8785    0.7229    0.0000 H   0  0  0  0  0  0  0  0  0  0  0  0
   31.7940    4.8611    0.0000 H   0  0  0  0  0  0  0  0  0  0  0  0
   30.1330    4.2089    0.0000 H   0  0  0  0  0  0  0  0  0  0  0  0
   33.8411    2.1136    0.0000 H   0  0  0  0  0  0  0  0  0  0  0  0
   36.1158    5.6036    0.0000 H   0  0  0  0  0  0  0  0  0  0  0  0
   35.7380    2.9440    0.0000 H   0  0  0  0  0  0  0  0  0  0  0  0
   33.9892    7.0960    0.0000 H   0  0  0  0  0  0  0  0  0  0  0  0
   31.6334    6.0005    0.0000 H   0  0  0  0  0  0  0  0  0  0  0  0
   31.0114    2.7943    0.0000 H   0  0  0  0  0  0  0  0  0  0  0  0
   31.1290   -0.4360    0.0000 H   0  0  0  0  0  0  0  0  0  0  0  0
   34.4646   -1.1804    0.0000 H   0  0  0  0  0  0  0  0  0  0  0  0
   34.3266    0.5986    0.0000 H   0  0  0  0  0  0  0  0  0  0  0  0
   31.9420   -3.0605    0.0000 H   0  0  0  0  0  0  0  0  0  0  0  0
   31.3775   -1.3676    0.0000 H   0  0  0  0  0  0  0  0  0  0  0  0
   35.0327   -0.5663    0.0000 H   0  0  0  0  0  0  0  0  0  0  0  0
   34.8924    2.8221    0.0000 H   0  0  0  0  0  0  0  0  0  0  0  0
   37.0239    4.4733    0.0000 H   0  0  0  0  0  0  0  0  0  0  0  0
   35.3415    3.2759    0.0000 H   0  0  0  0  0  0  0  0  0  0  0  0
   39.6666    2.2205    0.0000 H   0  0  0  0  0  0  0  0  0  0  0  0
   38.4631    1.3639    0.0000 H   0  0  0  0  0  0  0  0  0  0  0  0
   39.5592    5.5321    0.0000 H   0  0  0  0  0  0  0  0  0  0  0  0
   37.8983    4.8799    0.0000 H   0  0  0  0  0  0  0  0  0  0  0  0
   41.2961    2.5912    0.0000 H   0  0  0  0  0  0  0  0  0  0  0  0
   43.8811    6.2746    0.0000 H   0  0  0  0  0  0  0  0  0  0  0  0
   43.6519    3.6867    0.0000 H   0  0  0  0  0  0  0  0  0  0  0  0
   41.7545    7.7671    0.0000 H   0  0  0  0  0  0  0  0  0  0  0  0
   39.3987    6.6716    0.0000 H   0  0  0  0  0  0  0  0  0  0  0  0
  1  2  1  0
  2  3  1  0
  3  4  1  0
  4  5  2  0
  4  6  1  0
  6  7  1  0
  7  8  1  0
  8  9  1  0
  9 10  1  0
  9 11  1  0
  7 12  1  0
 12 13  2  0
 12 14  1  0
 15 14  1  6
 15 16  1  0
 16 17  1  0
 17 18  1  0
 18 19  1  0
 15 20  1  0
 15 21  1  0
 21 22  2  0
 21 23  1  0
 23 24  1  0
 24 25  1  0
 25 26  1  0
 25 27  1  0
 27 28  1  0
 24 29  1  0
 29 30  2  0
 29 31  1  0
 31 32  1  0
 32 33  1  0
 33 34  1  0
 34 35  1  0
 34 36  1  0
 32 37  1  0
 37 38  2  0
 37 39  1  0
 39 40  1  0
 40 41  1  0
 41 42  1  0
 42 43  1  0
 43 44  1  0
 43 45  2  0
 40 46  1  0
 46 47  2  0
 46 48  1  0
 48 49  1  0
 49 50  1  0
 50 51  1  0
 51 52  1  0
 52 53  1  0
 49 54  1  0
 54 55  1  0
 55 56  1  0
 56 57  1  0
 49 58  1  0
 58 59  2  0
 58 60  1  0
 60 61  1  0
 61 62  1  0
 61 63  1  0
 63 64  2  0
 63 65  1  0
 65 66  1  0
 66 67  1  0
 67 68  1  0
 66 69  1  0
 69 70  2  0
 69 71  1  0
 71 72  1  0
 72 73  1  0
 73 74  1  0
 74 75  1  0
 75 76  1  0
 75 77  2  0
 72 78  1  0
 78 79  2  0
 78 80  1  0
 80 81  1  0
 81 82  1  0
 82 83  1  0
 83 84  1  0
 84 85  1  0
 81 86  1  0
 81 87  1  6
 87 88  2  0
 87 89  1  0
 89 90  1  0
 90 91  1  0
 91 92  1  0
 91 93  1  0
 93 94  1  0
 90 95  1  0
 95 96  2  0
 95 97  1  0
 97 98  1  0
 98 99  1  0
 99100  1  0
100101  1  0
100102  1  0
 98103  1  0
103104  2  0
103105  1  0
105106  1  0
106107  1  0
107108  2  0
107109  1  0
109110  1  0
110111  1  0
111112  1  0
112113  1  0
112114  1  0
110115  1  0
115116  2  0
115117  1  0
117118  1  0
118119  1  0
119120  1  0
120121  1  0
121122  2  0
121123  1  0
118124  1  0
124125  2  0
124126  1  0
126127  1  0
127128  1  0
128129  1  0
129130  1  0
130131  1  0
130132  2  0
127133  1  0
133134  2  0
133135  1  0
135136  1  0
136137  1  0
137138  1  0
138139  1  0
139140  1  0
139141  2  0
136142  1  0
142143  2  0
142144  1  0
144145  1  0
145146  1  0
146147  1  0
145148  1  0
148149  2  0
148150  1  0
150151  1  0
151152  1  0
152153  1  0
153154  1  0
154155  1  0
155156  1  0
156157  2  3
156158  1  0
151159  1  0
159160  2  0
159161  1  0
161162  1  0
162163  1  0
163164  1  0
164165  1  0
165166  2  0
165167  1  0
162168  1  0
168169  2  0
168170  1  0
170171  1  0
171172  1  0
172173  1  0
173174  1  0
174175  1  0
175176  1  0
176177  2  3
176178  1  0
171179  1  0
179180  2  0
179181  1  0
 19 53  2  0
 57 85  2  0
  1182  1  0
  1183  1  0
  2184  1  0
  2185  1  0
  3186  1  0
  3187  1  0
  6188  1  0
  7189  1  6
  8190  1  0
  8191  1  0
  9192  1  0
 10193  1  0
 10194  1  0
 10195  1  0
 11196  1  0
 11197  1  0
 11198  1  0
 14199  1  0
 16200  1  0
 16201  1  0
 17202  1  0
 17203  1  0
 18204  1  0
 18205  1  0
 19206  1  0
 20207  1  0
 20208  1  0
 20209  1  0
 23210  1  0
 24211  1  1
 25212  1  1
 26213  1  0
 26214  1  0
 26215  1  0
 27216  1  0
 27217  1  0
 28218  1  0
 28219  1  0
 28220  1  0
 31221  1  0
 32222  1  1
 33223  1  0
 33224  1  0
 34225  1  0
 35226  1  0
 35227  1  0
 35228  1  0
 36229  1  0
 36230  1  0
 36231  1  0
 39232  1  0
 40233  1  1
 41234  1  0
 41235  1  0
 42236  1  0
 42237  1  0
 44238  1  0
 44239  1  0
 48240  1  0
 50241  1  0
 50242  1  0
 51243  1  0
 51244  1  0
 52245  1  0
 52246  1  0
 53247  1  0
 54248  1  0
 54249  1  0
 55250  1  0
 55251  1  0
 56252  1  0
 56253  1  0
 57254  1  0
 60255  1  0
 61256  1  6
 62257  1  0
 62258  1  0
 62259  1  0
 65260  1  0
 66261  1  6
 67262  1  0
 67263  1  0
 68264  1  0
 68265  1  0
 68266  1  0
 71267  1  0
 72268  1  6
 73269  1  0
 73270  1  0
 74271  1  0
 74272  1  0
 76273  1  0
 76274  1  0
 80275  1  0
 82276  1  0
 82277  1  0
 83278  1  0
 83279  1  0
 84280  1  0
 84281  1  0
 85282  1  0
 86283  1  0
 86284  1  0
 86285  1  0
 89286  1  0
 90287  1  1
 91288  1  1
 92289  1  0
 92290  1  0
 92291  1  0
 93292  1  0
 93293  1  0
 94294  1  0
 94295  1  0
 94296  1  0
 97297  1  0
 98298  1  6
 99299  1  0
 99300  1  0
100301  1  0
101302  1  0
101303  1  0
101304  1  0
102305  1  0
102306  1  0
102307  1  0
105308  1  0
106309  1  0
106310  1  0
109311  1  0
110312  1  6
111313  1  0
111314  1  0
112315  1  0
113316  1  0
113317  1  0
113318  1  0
114319  1  0
114320  1  0
114321  1  0
117322  1  0
118323  1  1
119324  1  0
119325  1  0
120326  1  0
120327  1  0
126328  1  0
127329  1  6
128330  1  0
128331  1  0
129332  1  0
129333  1  0
131334  1  0
131335  1  0
135336  1  0
136337  1  1
137338  1  0
137339  1  0
138340  1  0
138341  1  0
140342  1  0
140343  1  0
144344  1  0
145345  1  6
146346  1  0
146347  1  0
147348  1  0
147349  1  0
147350  1  0
150351  1  0
151352  1  1
152353  1  0
152354  1  0
153355  1  0
153356  1  0
154357  1  0
154358  1  0
155359  1  0
157360  1  0
157361  1  0
158362  1  0
158363  1  0
161364  1  0
162365  1  6
163366  1  0
163367  1  0
164368  1  0
164369  1  0
170370  1  0
171371  1  1
172372  1  0
172373  1  0
173374  1  0
173375  1  0
174376  1  0
174377  1  0
175378  1  0
177379  1  0
177380  1  0
178381  1  0
178382  1  0
M  CHG  5 123  -1 157   1 167  -1 177   1 181  -1
M  END
