
     RDKit          2D

181183  0  0  0  0  0  0  0  0999 V2000
  -15.3755    1.0744    0.0000 N   0  0  0  0  0  0  0  0  0  0  0  0
  -13.9194    0.7144    0.0000 C   0  0  0  0  0  0  0  0  0  0  0  0
  -12.8795    1.7954    0.0000 C   0  0  0  0  0  0  0  0  0  0  0  0
  -11.4234    1.4354    0.0000 C   0  0  0  0  0  0  0  0  0  0  0  0
  -11.0071   -0.0057    0.0000 O   0  0  0  0  0  0  0  0  0  0  0  0
  -10.3835    2.5165    0.0000 N   0  0  0  0  0  0  0  0  0  0  0  0
   -8.9273    2.1565    0.0000 C   0  0  0  0  0  0  0  0  0  0  0  0
   -8.8257    3.6530    0.0000 C   0  0  0  0  0  0  0  0  0  0  0  0
   -7.4788    4.3132    0.0000 C   0  0  0  0  0  0  0  0  0  0  0  0
   -7.3771    5.8098    0.0000 C   0  0  0  0  0  0  0  0  0  0  0  0
   -6.0302    6.4700    0.0000 N   0  0  0  0  0  0  0  0  0  0  0  0
   -5.9285    7.9665    0.0000 C   0  0  0  0  0  0  0  0  0  0  0  0
   -4.5816    8.6267    0.0000 N   0  0  0  0  0  0  0  0  0  0  0  0
   -7.1737    8.8029    0.0000 N   0  0  0  0  0  0  0  0  0  0  0  0
   -7.6821    1.3201    0.0000 C   0  0  0  0  0  0  0  0  0  0  0  0
   -6.3352    1.9803    0.0000 O   0  0  0  0  0  0  0  0  0  0  0  0
   -7.7838   -0.1764    0.0000 N   0  0  0  0  0  0  0  0  0  0  0  0
   -6.5386   -1.0128    0.0000 C   0  0  0  0  0  0  0  0  0  0  0  0
   -7.5785   -2.0938    0.0000 C   0  0  0  0  0  0  0  0  0  0  0  0
   -9.0347   -1.7338    0.0000 C   0  0  0  0  0  0  0  0  0  0  0  0
  -10.0745   -2.8149    0.0000 C   0  0  0  0  0  0  0  0  0  0  0  0
  -11.5307   -2.4548    0.0000 C   0  0  0  0  0  0  0  0  0  0  0  0
  -12.5705   -3.5359    0.0000 N   0  0  0  0  0  0  0  0  0  0  0  0
   -5.0825   -1.3728    0.0000 C   0  0  0  0  0  0  0  0  0  0  0  0
   -4.0426   -0.2918    0.0000 O   0  0  0  0  0  0  0  0  0  0  0  0
   -4.6662   -2.8139    0.0000 N   0  0  0  0  0  0  0  0  0  0  0  0
   -3.2100   -3.1739    0.0000 C   0  0  0  0  0  0  0  0  0  0  0  0
   -3.8175   -4.5454    0.0000 C   0  0  0  0  0  0  0  0  0  0  0  0
   -5.3089   -4.7051    0.0000 C   0  0  0  0  0  0  0  0  0  0  0  0
   -6.1930   -3.4934    0.0000 C   0  0  0  0  0  0  0  0  0  0  0  0
   -5.5856   -2.1218    0.0000 F   0  0  0  0  0  0  0  0  0  0  0  0
   -7.6845   -3.6531    0.0000 C   0  0  0  0  0  0  0  0  0  0  0  0
   -8.4006   -2.6715    0.0000 F   0  0  0  0  0  0  0  0  0  0  0  0
   -8.2919   -5.0246    0.0000 C   0  0  0  0  0  0  0  0  0  0  0  0
   -9.7833   -5.1843    0.0000 F   0  0  0  0  0  0  0  0  0  0  0  0
   -7.4078   -6.2364    0.0000 C   0  0  0  0  0  0  0  0  0  0  0  0
   -8.0152   -7.6079    0.0000 F   0  0  0  0  0  0  0  0  0  0  0  0
   -5.9163   -6.0767    0.0000 C   0  0  0  0  0  0  0  0  0  0  0  0
   -5.0323   -7.2885    0.0000 F   0  0  0  0  0  0  0  0  0  0  0  0
   -1.7186   -3.0142    0.0000 C   0  0  0  0  0  0  0  0  0  0  0  0
   -0.9888   -4.3247    0.0000 O   0  0  0  0  0  0  0  0  0  0  0  0
   -1.1112   -1.6427    0.0000 N   0  0  0  0  0  0  0  0  0  0  0  0
    0.3803   -1.4830    0.0000 C   0  0  0  0  0  0  0  0  0  0  0  0
   -0.3787   -0.1892    0.0000 C   0  0  0  0  0  0  0  0  0  0  0  0
   -0.7226    1.2709    0.0000 C   0  0  0  0  0  0  0  0  0  0  0  0
   -0.6209    2.7674    0.0000 C   0  0  0  0  0  0  0  0  0  0  0  0
   -0.0826    4.1675    0.0000 C   0  0  0  0  0  0  0  0  0  0  0  0
   -0.0875   -2.9081    0.0000 C   0  0  0  0  0  0  0  0  0  0  0  0
    1.4870   -2.4955    0.0000 C   0  0  0  0  0  0  0  0  0  0  0  0
    0.6506   -3.7407    0.0000 O   0  0  0  0  0  0  0  0  0  0  0  0
    2.8429   -3.1370    0.0000 N   0  0  0  0  0  0  0  0  0  0  0  0
    4.3277   -3.3502    0.0000 C   0  0  0  0  0  0  0  0  0  0  0  0
    5.1502   -4.6046    0.0000 C   0  0  0  0  0  0  0  0  0  0  0  0
    4.4752   -5.9441    0.0000 C   0  0  0  0  0  0  0  0  0  0  0  0
    5.2978   -7.1984    0.0000 C   0  0  0  0  0  0  0  0  0  0  0  0
    4.6227   -8.5380    0.0000 N   0  0  0  0  0  0  0  0  0  0  0  0
    5.4453   -9.7923    0.0000 C   0  0  0  0  0  0  0  0  0  0  0  0
    4.7703  -11.1319    0.0000 N   0  0  0  0  0  0  0  0  0  0  0  0
    6.9429   -9.7072    0.0000 N   0  0  0  0  0  0  0  0  0  0  0  0
    5.8093   -3.1163    0.0000 C   0  0  0  0  0  0  0  0  0  0  0  0
    6.2614   -4.5466    0.0000 O   0  0  0  0  0  0  0  0  0  0  0  0
    7.1562   -2.4561    0.0000 N   0  0  0  0  0  0  0  0  0  0  0  0
    8.2487   -1.4283    0.0000 C   0  0  0  0  0  0  0  0  0  0  0  0
    9.7422   -1.5672    0.0000 C   0  0  0  0  0  0  0  0  0  0  0  0
   10.3686   -2.9302    0.0000 C   0  0  0  0  0  0  0  0  0  0  0  0
   11.8622   -3.0692    0.0000 C   0  0  0  0  0  0  0  0  0  0  0  0
   10.4911   -4.4252    0.0000 C   0  0  0  0  0  0  0  0  0  0  0  0
    8.9896   -0.1240    0.0000 C   0  0  0  0  0  0  0  0  0  0  0  0
   10.3897   -0.6623    0.0000 O   0  0  0  0  0  0  0  0  0  0  0  0
    9.3132    1.3406    0.0000 N   0  0  0  0  0  0  0  0  0  0  0  0
    9.1907    2.8356    0.0000 C   0  0  0  0  0  0  0  0  0  0  0  0
   10.2306    3.9167    0.0000 C   0  0  0  0  0  0  0  0  0  0  0  0
   11.6868    3.5566    0.0000 C   0  0  0  0  0  0  0  0  0  0  0  0
   12.1031    2.1156    0.0000 C   0  0  0  0  0  0  0  0  0  0  0  0
   13.5592    1.7555    0.0000 C   0  0  0  0  0  0  0  0  0  0  0  0
   14.5991    2.8366    0.0000 C   0  0  0  0  0  0  0  0  0  0  0  0
   14.1828    4.2777    0.0000 C   0  0  0  0  0  0  0  0  0  0  0  0
   12.7266    4.6377    0.0000 C   0  0  0  0  0  0  0  0  0  0  0  0
    8.6330    4.2281    0.0000 C   0  0  0  0  0  0  0  0  0  0  0  0
    9.9268    4.9871    0.0000 O   0  0  0  0  0  0  0  0  0  0  0  0
    7.6897    5.3943    0.0000 N   0  0  0  0  0  0  0  0  0  0  0  0
    6.4445    6.2307    0.0000 C   0  0  0  0  0  0  0  0  0  0  0  0
    5.0081    6.6628    0.0000 C   0  0  0  0  0  0  0  0  0  0  0  0
    3.5081    6.6524    0.0000 C   0  0  0  0  0  0  0  0  0  0  0  0
    2.0779    6.2003    0.0000 C   0  0  0  0  0  0  0  0  0  0  0  0
    0.8444    5.3467    0.0000 C   0  0  0  0  0  0  0  0  0  0  0  0
    7.7190    7.0217    0.0000 C   0  0  0  0  0  0  0  0  0  0  0  0
    6.2476    7.7177    0.0000 C   0  0  0  0  0  0  0  0  0  0  0  0
    7.3167    8.7698    0.0000 O   0  0  0  0  0  0  0  0  0  0  0  0
    5.0412    8.6091    0.0000 O   0  0  0  0  0  0  0  0  0  0  0  0
  -16.4154   -0.0066    0.0000 H   0  0  0  0  0  0  0  0  0  0  0  0
  -15.7918    2.5155    0.0000 H   0  0  0  0  0  0  0  0  0  0  0  0
  -14.5268   -0.6571    0.0000 H   0  0  0  0  0  0  0  0  0  0  0  0
  -12.6742   -0.1220    0.0000 H   0  0  0  0  0  0  0  0  0  0  0  0
  -14.1247    2.6318    0.0000 H   0  0  0  0  0  0  0  0  0  0  0  0
  -12.2721    3.1670    0.0000 H   0  0  0  0  0  0  0  0  0  0  0  0
  -10.7698    3.4216    0.0000 H   0  0  0  0  0  0  0  0  0  0  0  0
   -9.5348    0.7849    0.0000 H   0  0  0  0  0  0  0  0  0  0  0  0
   -9.4145    5.0326    0.0000 H   0  0  0  0  0  0  0  0  0  0  0  0
   -9.8097    3.6683    0.0000 H   0  0  0  0  0  0  0  0  0  0  0  0
   -5.9873    4.4729    0.0000 H   0  0  0  0  0  0  0  0  0  0  0  0
   -7.0625    2.8721    0.0000 H   0  0  0  0  0  0  0  0  0  0  0  0
   -7.7933    7.2508    0.0000 H   0  0  0  0  0  0  0  0  0  0  0  0
   -8.8769    5.8330    0.0000 H   0  0  0  0  0  0  0  0  0  0  0  0
   -4.7850    5.6336    0.0000 H   0  0  0  0  0  0  0  0  0  0  0  0
   -4.4799   10.1233    0.0000 H   0  0  0  0  0  0  0  0  0  0  0  0
   -3.3364    7.7904    0.0000 H   0  0  0  0  0  0  0  0  0  0  0  0
   -7.0720   10.2994    0.0000 H   0  0  0  0  0  0  0  0  0  0  0  0
   -8.5206    8.1426    0.0000 H   0  0  0  0  0  0  0  0  0  0  0  0
   -9.2012   -0.6675    0.0000 H   0  0  0  0  0  0  0  0  0  0  0  0
   -5.9312    0.3587    0.0000 H   0  0  0  0  0  0  0  0  0  0  0  0
   -7.9878   -2.7779    0.0000 H   0  0  0  0  0  0  0  0  0  0  0  0
   -6.1679   -2.6040    0.0000 H   0  0  0  0  0  0  0  0  0  0  0  0
  -10.1686   -0.7519    0.0000 H   0  0  0  0  0  0  0  0  0  0  0  0
   -8.9592   -0.2357    0.0000 H   0  0  0  0  0  0  0  0  0  0  0  0
  -10.5102   -4.2502    0.0000 H   0  0  0  0  0  0  0  0  0  0  0  0
   -8.9406   -3.7968    0.0000 H   0  0  0  0  0  0  0  0  0  0  0  0
  -12.7759   -1.6185    0.0000 H   0  0  0  0  0  0  0  0  0  0  0  0
  -11.0950   -1.0195    0.0000 H   0  0  0  0  0  0  0  0  0  0  0  0
  -14.0267   -3.1759    0.0000 H   0  0  0  0  0  0  0  0  0  0  0  0
  -13.1780   -4.9074    0.0000 H   0  0  0  0  0  0  0  0  0  0  0  0
  -11.4366   -4.5178    0.0000 H   0  0  0  0  0  0  0  0  0  0  0  0
   -5.9368   -3.6112    0.0000 H   0  0  0  0  0  0  0  0  0  0  0  0
   -3.1084   -1.6774    0.0000 H   0  0  0  0  0  0  0  0  0  0  0  0
   -3.9192   -6.0420    0.0000 H   0  0  0  0  0  0  0  0  0  0  0  0
   -2.3613   -4.9055    0.0000 H   0  0  0  0  0  0  0  0  0  0  0  0
   -2.2622   -0.6808    0.0000 H   0  0  0  0  0  0  0  0  0  0  0  0
   -1.5162   -1.1669    0.0000 H   0  0  0  0  0  0  0  0  0  0  0  0
   -1.8510    0.0978    0.0000 H   0  0  0  0  0  0  0  0  0  0  0  0
   -2.0978    0.6718    0.0000 H   0  0  0  0  0  0  0  0  0  0  0  0
   -2.1214    1.8126    0.0000 H   0  0  0  0  0  0  0  0  0  0  0  0
   -2.0801    2.4199    0.0000 H   0  0  0  0  0  0  0  0  0  0  0  0
   -1.6757    3.8339    0.0000 H   0  0  0  0  0  0  0  0  0  0  0  0
   -1.3869    4.9085    0.0000 H   0  0  0  0  0  0  0  0  0  0  0  0
   -1.4377   -3.5617    0.0000 H   0  0  0  0  0  0  0  0  0  0  0  0
    0.1427   -4.3904    0.0000 H   0  0  0  0  0  0  0  0  0  0  0  0
    1.3015   -3.4743    0.0000 H   0  0  0  0  0  0  0  0  0  0  0  0
    2.4107   -4.5734    0.0000 H   0  0  0  0  0  0  0  0  0  0  0  0
    3.3743   -4.5083    0.0000 H   0  0  0  0  0  0  0  0  0  0  0  0
    6.4526   -5.3487    0.0000 H   0  0  0  0  0  0  0  0  0  0  0  0
    6.4589   -3.8716    0.0000 H   0  0  0  0  0  0  0  0  0  0  0  0
    3.3827   -6.9720    0.0000 H   0  0  0  0  0  0  0  0  0  0  0  0
    3.1728   -5.1999    0.0000 H   0  0  0  0  0  0  0  0  0  0  0  0
    6.4997   -8.0958    0.0000 H   0  0  0  0  0  0  0  0  0  0  0  0
    6.5074   -6.3114    0.0000 H   0  0  0  0  0  0  0  0  0  0  0  0
    3.1252   -8.6232    0.0000 H   0  0  0  0  0  0  0  0  0  0  0  0
    5.5928  -12.3862    0.0000 H   0  0  0  0  0  0  0  0  0  0  0  0
    3.2727  -11.2170    0.0000 H   0  0  0  0  0  0  0  0  0  0  0  0
    7.7654  -10.9615    0.0000 H   0  0  0  0  0  0  0  0  0  0  0  0
    7.6179   -8.3676    0.0000 H   0  0  0  0  0  0  0  0  0  0  0  0
    8.0098   -3.6896    0.0000 H   0  0  0  0  0  0  0  0  0  0  0  0
    8.5597   -2.8957    0.0000 H   0  0  0  0  0  0  0  0  0  0  0  0
   11.1361   -1.0130    0.0000 H   0  0  0  0  0  0  0  0  0  0  0  0
    9.9851   -0.0870    0.0000 H   0  0  0  0  0  0  0  0  0  0  0  0
    8.9748   -3.4844    0.0000 H   0  0  0  0  0  0  0  0  0  0  0  0
   12.6501   -4.3456    0.0000 H   0  0  0  0  0  0  0  0  0  0  0  0
   13.3132   -2.6889    0.0000 H   0  0  0  0  0  0  0  0  0  0  0  0
   11.9228   -1.5704    0.0000 H   0  0  0  0  0  0  0  0  0  0  0  0
   11.7588   -5.2271    0.0000 H   0  0  0  0  0  0  0  0  0  0  0  0
   10.0949   -5.8719    0.0000 H   0  0  0  0  0  0  0  0  0  0  0  0
    8.9976   -4.2862    0.0000 H   0  0  0  0  0  0  0  0  0  0  0  0
   10.7862    1.0573    0.0000 H   0  0  0  0  0  0  0  0  0  0  0  0
   10.6038    2.3324    0.0000 H   0  0  0  0  0  0  0  0  0  0  0  0
   10.8380    5.2882    0.0000 H   0  0  0  0  0  0  0  0  0  0  0  0
    9.2248    5.0295    0.0000 H   0  0  0  0  0  0  0  0  0  0  0  0
   11.2027    0.9158    0.0000 H   0  0  0  0  0  0  0  0  0  0  0  0
   13.9755    0.3145    0.0000 H   0  0  0  0  0  0  0  0  0  0  0  0
   16.0552    2.4766    0.0000 H   0  0  0  0  0  0  0  0  0  0  0  0
   15.2227    5.3587    0.0000 H   0  0  0  0  0  0  0  0  0  0  0  0
   12.3103    6.0788    0.0000 H   0  0  0  0  0  0  0  0  0  0  0  0
    8.7023    6.5009    0.0000 H   0  0  0  0  0  0  0  0  0  0  0  0
    4.3817    8.0257    0.0000 H   0  0  0  0  0  0  0  0  0  0  0  0
    5.6897    7.9990    0.0000 H   0  0  0  0  0  0  0  0  0  0  0  0
    2.6515    7.8837    0.0000 H   0  0  0  0  0  0  0  0  0  0  0  0
    3.7656    8.1301    0.0000 H   0  0  0  0  0  0  0  0  0  0  0  0
    0.7925    6.9735    0.0000 H   0  0  0  0  0  0  0  0  0  0  0  0
    2.0711    7.7003    0.0000 H   0  0  0  0  0  0  0  0  0  0  0  0
   -0.1835    6.4392    0.0000 H   0  0  0  0  0  0  0  0  0  0  0  0
    7.8542    8.5156    0.0000 H   0  0  0  0  0  0  0  0  0  0  0  0
    9.1871    7.3291    0.0000 H   0  0  0  0  0  0  0  0  0  0  0  0
    8.5970    5.8055    0.0000 H   0  0  0  0  0  0  0  0  0  0  0  0
  1  2  1  0
  2  3  1  0
  3  4  1  0
  4  5  2  0
  4  6  1  0
  6  7  1  0
  7  8  1  0
  8  9  1  0
  9 10  1  0
 10 11  1  0
 11 12  1  0
 12 13  2  3
 12 14  1  0
  7 15  1  0
 15 16  2  0
 15 17  1  0
 17 18  1  0
 18 19  1  0
 19 20  1  0
 20 21  1  0
 21 22  1  0
 22 23  1  0
 18 24  1  0
 24 25  2  0
 24 26  1  0
 26 27  1  0
 27 28  1  0
 28 29  1  0
 29 30  2  0
 30 31  1  0
 30 32  1  0
 32 33  1  0
 32 34  2  0
 34 35  1  0
 34 36  1  0
 36 37  1  0
 36 38  2  0
 38 39  1  0
 27 40  1  0
 40 41  2  0
 40 42  1  0
 43 42  1  1
 43 44  1  0
 44 45  1  0
 45 46  1  0
 46 47  1  0
 43 48  1  0
 43 49  1  0
 49 50  2  0
 49 51  1  0
 51 52  1  0
 52 53  1  0
 53 54  1  0
 54 55  1  0
 55 56  1  0
 56 57  1  0
 57 58  2  3
 57 59  1  0
 52 60  1  0
 60 61  2  0
 60 62  1  0
 62 63  1  0
 63 64  1  0
 64 65  1  0
 65 66  1  0
 65 67  1  0
 63 68  1  0
 68 69  2  0
 68 70  1  0
 70 71  1  0
 71 72  1  0
 72 73  1  0
 73 74  2  0
 74 75  1  0
 75 76  2  0
 76 77  1  0
 77 78  2  0
 71 79  1  0
 79 80  2  0
 79 81  1  0
 81 82  1  0
 82 83  1  0
 83 84  1  0
 84 85  1  0
 85 86  1  0
 82 87  1  0
 82 88  1  1
 88 89  2  0
 88 90  1  0
 38 29  1  0
 78 73  1  0
 47 86  2  0
  1 91  1  0
  1 92  1  0
  2 93  1  0
  2 94  1  0
  3 95  1  0
  3 96  1  0
  6 97  1  0
  7 98  1  1
  8 99  1  0
  8100  1  0
  9101  1  0
  9102  1  0
 10103  1  0
 10104  1  0
 11105  1  0
 13106  1  0
 13107  1  0
 14108  1  0
 14109  1  0
 17110  1  0
 18111  1  6
 19112  1  0
 19113  1  0
 20114  1  0
 20115  1  0
 21116  1  0
 21117  1  0
 22118  1  0
 22119  1  0
 23120  1  0
 23121  1  0
 23122  1  0
 26123  1  0
 27124  1  1
 28125  1  0
 28126  1  0
 42127  1  0
 44128  1  0
 44129  1  0
 45130  1  0
 45131  1  0
 46132  1  0
 46133  1  0
 47134  1  0
 48135  1  0
 48136  1  0
 48137  1  0
 51138  1  0
 52139  1  6
 53140  1  0
 53141  1  0
 54142  1  0
 54143  1  0
 55144  1  0
 55145  1  0
 56146  1  0
 58147  1  0
 58148  1  0
 59149  1  0
 59150  1  0
 62151  1  0
 63152  1  6
 64153  1  0
 64154  1  0
 65155  1  0
 66156  1  0
 66157  1  0
 66158  1  0
 67159  1  0
 67160  1  0
 67161  1  0
 70162  1  0
 71163  1  6
 72164  1  0
 72165  1  0
 74166  1  0
 75167  1  0
 76168  1  0
 77169  1  0
 78170  1  0
 81171  1  0
 83172  1  0
 83173  1  0
 84174  1  0
 84175  1  0
 85176  1  0
 85177  1  0
 86178  1  0
 87179  1  0
 87180  1  0
 87181  1  0
M  CHG  4  13   1  23   1  58   1  90  -1
M  END
