
     RDKit          2D

353360  0  0  0  0  0  0  0  0999 V2000
  -28.7359    0.0324    0.0000 C   0  0  0  0  0  0  0  0  0  0  0  0
  -29.9879   -0.7938    0.0000 N   0  0  0  0  0  0  0  0  0  0  0  0
  -31.3294   -0.1226    0.0000 C   0  0  0  0  0  0  0  0  0  0  0  0
  -31.4188    1.3747    0.0000 C   0  0  0  0  0  0  0  0  0  0  0  0
  -32.7603    2.0459    0.0000 C   0  0  0  0  0  0  0  0  0  0  0  0
  -34.0123    1.2197    0.0000 C   0  0  0  0  0  0  0  0  0  0  0  0
  -33.9228   -0.2776    0.0000 C   0  0  0  0  0  0  0  0  0  0  0  0
  -32.5813   -0.9488    0.0000 C   0  0  0  0  0  0  0  0  0  0  0  0
  -35.3192   -0.8254    0.0000 C   0  0  0  0  0  0  0  0  0  0  0  0
  -36.2717    0.3334    0.0000 O   0  0  0  0  0  0  0  0  0  0  0  0
  -35.4640    1.5973    0.0000 C   0  0  0  0  0  0  0  0  0  0  0  0
  -36.0118    2.9937    0.0000 O   0  0  0  0  0  0  0  0  0  0  0  0
  -36.7652   -1.2242    0.0000 C   0  0  0  0  0  0  0  0  0  0  0  0
  -37.1428   -2.6759    0.0000 C   0  0  0  0  0  0  0  0  0  0  0  0
  -38.5888   -3.0748    0.0000 C   0  0  0  0  0  0  0  0  0  0  0  0
  -39.6572   -2.0219    0.0000 C   0  0  0  0  0  0  0  0  0  0  0  0
  -39.2796   -0.5702    0.0000 C   0  0  0  0  0  0  0  0  0  0  0  0
  -37.8336   -0.1714    0.0000 C   0  0  0  0  0  0  0  0  0  0  0  0
  -41.1032   -2.4207    0.0000 O   0  0  0  0  0  0  0  0  0  0  0  0
  -36.0744   -3.7288    0.0000 O   0  0  0  0  0  0  0  0  0  0  0  0
  -34.6284   -3.3300    0.0000 C   0  0  0  0  0  0  0  0  0  0  0  0
  -34.2508   -1.8783    0.0000 C   0  0  0  0  0  0  0  0  0  0  0  0
  -32.9810   -2.1569    0.0000 C   0  0  0  0  0  0  0  0  0  0  0  0
  -32.4112   -2.7184    0.0000 C   0  0  0  0  0  0  0  0  0  0  0  0
  -32.6126   -3.4927    0.0000 C   0  0  0  0  0  0  0  0  0  0  0  0
  -33.3838   -3.7054    0.0000 C   0  0  0  0  0  0  0  0  0  0  0  0
  -31.0456   -5.0368    0.0000 O   0  0  0  0  0  0  0  0  0  0  0  0
  -28.8254    1.5297    0.0000 S   0  0  0  0  0  0  0  0  0  0  0  0
  -27.3944   -0.6388    0.0000 N   0  0  0  0  0  0  0  0  0  0  0  0
  -26.1425    0.1873    0.0000 C   0  0  0  0  0  0  0  0  0  0  0  0
  -24.8010   -0.4838    0.0000 C   0  0  0  0  0  0  0  0  0  0  0  0
  -23.5490    0.3423    0.0000 C   0  0  0  0  0  0  0  0  0  0  0  0
  -23.6385    1.8396    0.0000 O   0  0  0  0  0  0  0  0  0  0  0  0
  -22.2075   -0.3289    0.0000 N   0  0  0  0  0  0  0  0  0  0  0  0
  -20.9556    0.4973    0.0000 C   0  0  0  0  0  0  0  0  0  0  0  0
  -20.0616    1.7018    0.0000 C   0  0  0  0  0  0  0  0  0  0  0  0
  -18.5715    1.5299    0.0000 C   0  0  0  0  0  0  0  0  0  0  0  0
  -17.6776    2.7345    0.0000 C   0  0  0  0  0  0  0  0  0  0  0  0
  -16.4626    2.7434    0.0000 O   0  0  0  0  0  0  0  0  0  0  0  0
  -18.2738    4.1109    0.0000 O   0  0  0  0  0  0  0  0  0  0  0  0
  -19.6141   -0.1739    0.0000 C   0  0  0  0  0  0  0  0  0  0  0  0
  -19.5246   -1.6712    0.0000 O   0  0  0  0  0  0  0  0  0  0  0  0
  -18.3621    0.6523    0.0000 N   0  0  0  0  0  0  0  0  0  0  0  0
  -17.0206   -0.0189    0.0000 C   0  0  0  0  0  0  0  0  0  0  0  0
  -15.9896   -1.1084    0.0000 C   0  0  0  0  0  0  0  0  0  0  0  0
  -16.4177   -2.5460    0.0000 C   0  0  0  0  0  0  0  0  0  0  0  0
  -15.3867   -3.6355    0.0000 C   0  0  0  0  0  0  0  0  0  0  0  0
  -15.8147   -5.0732    0.0000 N   0  0  0  0  0  0  0  0  0  0  0  0
  -14.7837   -6.1627    0.0000 C   0  0  0  0  0  0  0  0  0  0  0  0
  -15.2117   -7.6003    0.0000 N   0  0  0  0  0  0  0  0  0  0  0  0
  -13.3246   -5.8146    0.0000 N   0  0  0  0  0  0  0  0  0  0  0  0
  -15.7687    0.8072    0.0000 C   0  0  0  0  0  0  0  0  0  0  0  0
  -15.6928    2.0199    0.0000 O   0  0  0  0  0  0  0  0  0  0  0  0
  -14.4272    0.1361    0.0000 N   0  0  0  0  0  0  0  0  0  0  0  0
  -13.1752    0.9622    0.0000 C   0  0  0  0  0  0  0  0  0  0  0  0
  -12.2813    2.1668    0.0000 C   0  0  0  0  0  0  0  0  0  0  0  0
  -10.7912    1.9949    0.0000 C   0  0  0  0  0  0  0  0  0  0  0  0
   -9.8973    3.1994    0.0000 C   0  0  0  0  0  0  0  0  0  0  0  0
   -9.4497    1.3237    0.0000 C   0  0  0  0  0  0  0  0  0  0  0  0
  -11.8337    0.2911    0.0000 C   0  0  0  0  0  0  0  0  0  0  0  0
  -11.7443   -1.2063    0.0000 O   0  0  0  0  0  0  0  0  0  0  0  0
  -10.5818    1.1172    0.0000 N   0  0  0  0  0  0  0  0  0  0  0  0
   -9.2403    0.4460    0.0000 C   0  0  0  0  0  0  0  0  0  0  0  0
   -8.2093   -0.6435    0.0000 C   0  0  0  0  0  0  0  0  0  0  0  0
   -8.6373   -2.0811    0.0000 C   0  0  0  0  0  0  0  0  0  0  0  0
   -7.6063   -3.1706    0.0000 C   0  0  0  0  0  0  0  0  0  0  0  0
   -8.0344   -4.6082    0.0000 N   0  0  0  0  0  0  0  0  0  0  0  0
   -7.0033   -5.6977    0.0000 C   0  0  0  0  0  0  0  0  0  0  0  0
   -7.4314   -7.1354    0.0000 N   0  0  0  0  0  0  0  0  0  0  0  0
   -5.5443   -5.3496    0.0000 N   0  0  0  0  0  0  0  0  0  0  0  0
   -7.9883    1.2722    0.0000 C   0  0  0  0  0  0  0  0  0  0  0  0
   -7.8946    2.7693    0.0000 O   0  0  0  0  0  0  0  0  0  0  0  0
   -6.6468    0.6010    0.0000 N   0  0  0  0  0  0  0  0  0  0  0  0
   -5.3949    1.4272    0.0000 C   0  0  0  0  0  0  0  0  0  0  0  0
   -4.5009    2.6317    0.0000 C   0  0  0  0  0  0  0  0  0  0  0  0
   -3.0108    2.4598    0.0000 C   0  0  0  0  0  0  0  0  0  0  0  0
   -2.1169    3.6644    0.0000 C   0  0  0  0  0  0  0  0  0  0  0  0
   -0.6268    3.4925    0.0000 N   0  0  0  0  0  0  0  0  0  0  0  0
    0.2671    4.6970    0.0000 C   0  0  0  0  0  0  0  0  0  0  0  0
    1.7252    4.3447    0.0000 N   0  0  0  0  0  0  0  0  0  0  0  0
   -0.3291    6.0734    0.0000 N   0  0  0  0  0  0  0  0  0  0  0  0
   -4.0534    0.7560    0.0000 C   0  0  0  0  0  0  0  0  0  0  0  0
   -3.9639   -0.7413    0.0000 O   0  0  0  0  0  0  0  0  0  0  0  0
   -2.8014    1.5821    0.0000 N   0  0  0  0  0  0  0  0  0  0  0  0
   -1.4599    0.9110    0.0000 C   0  0  0  0  0  0  0  0  0  0  0  0
   -0.4289   -0.1785    0.0000 C   0  0  0  0  0  0  0  0  0  0  0  0
   -0.8570   -1.6162    0.0000 C   0  0  0  0  0  0  0  0  0  0  0  0
    0.1740   -2.7057    0.0000 C   0  0  0  0  0  0  0  0  0  0  0  0
   -0.2540   -4.1433    0.0000 N   0  0  0  0  0  0  0  0  0  0  0  0
    0.7770   -5.2328    0.0000 C   0  0  0  0  0  0  0  0  0  0  0  0
    0.3490   -6.6704    0.0000 N   0  0  0  0  0  0  0  0  0  0  0  0
    2.2360   -4.8847    0.0000 N   0  0  0  0  0  0  0  0  0  0  0  0
   -0.2080    1.7371    0.0000 C   0  0  0  0  0  0  0  0  0  0  0  0
   -0.0071    2.8120    0.0000 O   0  0  0  0  0  0  0  0  0  0  0  0
    1.1335    1.0660    0.0000 N   0  0  0  0  0  0  0  0  0  0  0  0
    2.3855    1.8921    0.0000 C   0  0  0  0  0  0  0  0  0  0  0  0
    3.2794    3.0966    0.0000 C   0  0  0  0  0  0  0  0  0  0  0  0
    4.7695    2.9248    0.0000 C   0  0  0  0  0  0  0  0  0  0  0  0
    5.6634    4.1293    0.0000 C   0  0  0  0  0  0  0  0  0  0  0  0
    6.2335    2.5981    0.0000 C   0  0  0  0  0  0  0  0  0  0  0  0
    3.7270    1.2209    0.0000 C   0  0  0  0  0  0  0  0  0  0  0  0
    3.6332   -0.2761    0.0000 O   0  0  0  0  0  0  0  0  0  0  0  0
    4.9789    2.0471    0.0000 N   0  0  0  0  0  0  0  0  0  0  0  0
    6.3204    1.3759    0.0000 C   0  0  0  0  0  0  0  0  0  0  0  0
    6.7048   -0.0740    0.0000 C   0  0  0  0  0  0  0  0  0  0  0  0
    7.4995   -1.3462    0.0000 C   0  0  0  0  0  0  0  0  0  0  0  0
    8.6338   -2.3276    0.0000 C   0  0  0  0  0  0  0  0  0  0  0  0
   10.0071   -2.9311    0.0000 C   0  0  0  0  0  0  0  0  0  0  0  0
    5.0502    0.5781    0.0000 C   0  0  0  0  0  0  0  0  0  0  0  0
    6.3805    2.8747    0.0000 C   0  0  0  0  0  0  0  0  0  0  0  0
    5.1066    3.6667    0.0000 O   0  0  0  0  0  0  0  0  0  0  0  0
    6.8796    4.2892    0.0000 N   0  0  0  0  0  0  0  0  0  0  0  0
    7.7735    5.4938    0.0000 C   0  0  0  0  0  0  0  0  0  0  0  0
    7.4619    6.9610    0.0000 C   0  0  0  0  0  0  0  0  0  0  0  0
    6.0354    7.4248    0.0000 C   0  0  0  0  0  0  0  0  0  0  0  0
    5.7237    8.8920    0.0000 C   0  0  0  0  0  0  0  0  0  0  0  0
    4.5363    7.3726    0.0000 C   0  0  0  0  0  0  0  0  0  0  0  0
    8.9828    6.3813    0.0000 C   0  0  0  0  0  0  0  0  0  0  0  0
    8.2854    7.7093    0.0000 O   0  0  0  0  0  0  0  0  0  0  0  0
   10.3999    6.8730    0.0000 N   0  0  0  0  0  0  0  0  0  0  0  0
   11.8990    6.9251    0.0000 C   0  0  0  0  0  0  0  0  0  0  0  0
   12.8519    8.0836    0.0000 C   0  0  0  0  0  0  0  0  0  0  0  0
   12.3250    9.4880    0.0000 S   0  0  0  0  0  0  0  0  0  0  0  0
   13.3469    6.5330    0.0000 C   0  0  0  0  0  0  0  0  0  0  0  0
   13.9503    7.9063    0.0000 O   0  0  0  0  0  0  0  0  0  0  0  0
   14.6148    5.7316    0.0000 N   0  0  0  0  0  0  0  0  0  0  0  0
   15.5903    4.5921    0.0000 C   0  0  0  0  0  0  0  0  0  0  0  0
   17.0901    4.5694    0.0000 C   0  0  0  0  0  0  0  0  0  0  0  0
   17.8596    5.8570    0.0000 C   0  0  0  0  0  0  0  0  0  0  0  0
   19.3595    5.8343    0.0000 C   0  0  0  0  0  0  0  0  0  0  0  0
   20.1290    7.1218    0.0000 N   0  0  0  0  0  0  0  0  0  0  0  0
   21.6288    7.0992    0.0000 C   0  0  0  0  0  0  0  0  0  0  0  0
   22.3984    8.3867    0.0000 N   0  0  0  0  0  0  0  0  0  0  0  0
   22.3591    5.7890    0.0000 N   0  0  0  0  0  0  0  0  0  0  0  0
   16.1865    3.2156    0.0000 C   0  0  0  0  0  0  0  0  0  0  0  0
   17.6364    3.6000    0.0000 O   0  0  0  0  0  0  0  0  0  0  0  0
   16.3505    1.7246    0.0000 N   0  0  0  0  0  0  0  0  0  0  0  0
   16.0677    0.2515    0.0000 C   0  0  0  0  0  0  0  0  0  0  0  0
   15.3633   -1.0728    0.0000 C   0  0  0  0  0  0  0  0  0  0  0  0
   14.2998   -2.1306    0.0000 C   0  0  0  0  0  0  0  0  0  0  0  0
   12.9718   -2.8280    0.0000 C   0  0  0  0  0  0  0  0  0  0  0  0
   11.4972   -3.1030    0.0000 C   0  0  0  0  0  0  0  0  0  0  0  0
   17.5267    0.5997    0.0000 C   0  0  0  0  0  0  0  0  0  0  0  0
   16.9851   -0.9352    0.0000 C   0  0  0  0  0  0  0  0  0  0  0  0
   16.7688   -2.4195    0.0000 O   0  0  0  0  0  0  0  0  0  0  0  0
   18.4716   -0.7341    0.0000 N   0  0  0  0  0  0  0  0  0  0  0  0
   19.3890   -1.9208    0.0000 C   0  0  0  0  0  0  0  0  0  0  0  0
   19.8451   -3.3498    0.0000 C   0  0  0  0  0  0  0  0  0  0  0  0
   18.8357   -4.4593    0.0000 C   0  0  0  0  0  0  0  0  0  0  0  0
   19.1401   -5.9281    0.0000 C   0  0  0  0  0  0  0  0  0  0  0  0
   17.8372   -6.6715    0.0000 N   0  0  0  0  0  0  0  0  0  0  0  0
   16.7276   -5.6620    0.0000 C   0  0  0  0  0  0  0  0  0  0  0  0
   17.3448   -4.2949    0.0000 N   0  0  0  0  0  0  0  0  0  0  0  0
   20.8754   -1.7197    0.0000 C   0  0  0  0  0  0  0  0  0  0  0  0
   21.4445   -0.3318    0.0000 O   0  0  0  0  0  0  0  0  0  0  0  0
   21.7928   -2.9065    0.0000 N   0  0  0  0  0  0  0  0  0  0  0  0
   23.2793   -2.7053    0.0000 C   0  0  0  0  0  0  0  0  0  0  0  0
   24.6073   -2.0079    0.0000 C   0  0  0  0  0  0  0  0  0  0  0  0
   25.8753   -2.8094    0.0000 C   0  0  0  0  0  0  0  0  0  0  0  0
   27.2689   -2.2546    0.0000 C   0  0  0  0  0  0  0  0  0  0  0  0
   28.2272   -3.4086    0.0000 N   0  0  0  0  0  0  0  0  0  0  0  0
   27.4258   -4.6766    0.0000 C   0  0  0  0  0  0  0  0  0  0  0  0
   25.9722   -4.3062    0.0000 N   0  0  0  0  0  0  0  0  0  0  0  0
   24.1967   -3.8921    0.0000 C   0  0  0  0  0  0  0  0  0  0  0  0
   23.6276   -5.2800    0.0000 O   0  0  0  0  0  0  0  0  0  0  0  0
   25.6831   -3.6910    0.0000 N   0  0  0  0  0  0  0  0  0  0  0  0
   26.6005   -4.8777    0.0000 C   0  0  0  0  0  0  0  0  0  0  0  0
   27.0567   -6.3067    0.0000 C   0  0  0  0  0  0  0  0  0  0  0  0
   26.0473   -7.4162    0.0000 O   0  0  0  0  0  0  0  0  0  0  0  0
   28.0870   -4.6766    0.0000 C   0  0  0  0  0  0  0  0  0  0  0  0
   28.9750   -3.4677    0.0000 O   0  0  0  0  0  0  0  0  0  0  0  0
   29.0044   -5.8633    0.0000 N   0  0  0  0  0  0  0  0  0  0  0  0
   30.4909   -5.6622    0.0000 C   0  0  0  0  0  0  0  0  0  0  0  0
   31.8189   -4.9648    0.0000 C   0  0  0  0  0  0  0  0  0  0  0  0
   32.8283   -3.8553    0.0000 O   0  0  0  0  0  0  0  0  0  0  0  0
   33.0868   -5.7662    0.0000 C   0  0  0  0  0  0  0  0  0  0  0  0
   31.4083   -6.8490    0.0000 C   0  0  0  0  0  0  0  0  0  0  0  0
   32.9081   -6.8305    0.0000 O   0  0  0  0  0  0  0  0  0  0  0  0
   30.8392   -8.2368    0.0000 O   0  0  0  0  0  0  0  0  0  0  0  0
  -29.7166   -2.2691    0.0000 H   0  0  0  0  0  0  0  0  0  0  0  0
  -30.1669    2.2009    0.0000 H   0  0  0  0  0  0  0  0  0  0  0  0
  -32.8498    3.5432    0.0000 H   0  0  0  0  0  0  0  0  0  0  0  0
  -32.1322   -2.3800    0.0000 H   0  0  0  0  0  0  0  0  0  0  0  0
  -38.9664   -4.5265    0.0000 H   0  0  0  0  0  0  0  0  0  0  0  0
  -40.3480    0.4826    0.0000 H   0  0  0  0  0  0  0  0  0  0  0  0
  -37.4560    1.2803    0.0000 H   0  0  0  0  0  0  0  0  0  0  0  0
  -42.1716   -1.3679    0.0000 H   0  0  0  0  0  0  0  0  0  0  0  0
  -32.4272   -0.0277    0.0000 H   0  0  0  0  0  0  0  0  0  0  0  0
  -30.2526   -2.3127    0.0000 H   0  0  0  0  0  0  0  0  0  0  0  0
  -33.9376   -5.8345    0.0000 H   0  0  0  0  0  0  0  0  0  0  0  0
  -31.4232   -6.4885    0.0000 H   0  0  0  0  0  0  0  0  0  0  0  0
  -27.3050   -2.1362    0.0000 H   0  0  0  0  0  0  0  0  0  0  0  0
  -25.2485    1.3919    0.0000 H   0  0  0  0  0  0  0  0  0  0  0  0
  -27.1735    1.2768    0.0000 H   0  0  0  0  0  0  0  0  0  0  0  0
  -23.7700   -1.5733    0.0000 H   0  0  0  0  0  0  0  0  0  0  0  0
  -25.6949   -1.6884    0.0000 H   0  0  0  0  0  0  0  0  0  0  0  0
  -22.1181   -1.8262    0.0000 H   0  0  0  0  0  0  0  0  0  0  0  0
  -21.9866    1.5868    0.0000 H   0  0  0  0  0  0  0  0  0  0  0  0
  -19.6336    3.1395    0.0000 H   0  0  0  0  0  0  0  0  0  0  0  0
  -21.4031    2.3730    0.0000 H   0  0  0  0  0  0  0  0  0  0  0  0
  -17.2301    0.8588    0.0000 H   0  0  0  0  0  0  0  0  0  0  0  0
  -18.2744    0.0597    0.0000 H   0  0  0  0  0  0  0  0  0  0  0  0
  -18.0866    2.1268    0.0000 H   0  0  0  0  0  0  0  0  0  0  0  0
  -18.0547   -1.1055    0.0000 H   0  0  0  0  0  0  0  0  0  0  0  0
  -14.6482   -1.7796    0.0000 H   0  0  0  0  0  0  0  0  0  0  0  0
  -14.8308   -0.1560    0.0000 H   0  0  0  0  0  0  0  0  0  0  0  0
  -17.3116   -3.7506    0.0000 H   0  0  0  0  0  0  0  0  0  0  0  0
  -17.8309   -2.0434    0.0000 H   0  0  0  0  0  0  0  0  0  0  0  0
  -14.0452   -4.3067    0.0000 H   0  0  0  0  0  0  0  0  0  0  0  0
  -14.3526   -2.5490    0.0000 H   0  0  0  0  0  0  0  0  0  0  0  0
  -17.2737   -5.4213    0.0000 H   0  0  0  0  0  0  0  0  0  0  0  0
  -14.1807   -8.6898    0.0000 H   0  0  0  0  0  0  0  0  0  0  0  0
  -16.6708   -7.9484    0.0000 H   0  0  0  0  0  0  0  0  0  0  0  0
  -12.2936   -6.9041    0.0000 H   0  0  0  0  0  0  0  0  0  0  0  0
  -12.8966   -4.3769    0.0000 H   0  0  0  0  0  0  0  0  0  0  0  0
  -14.1559   -1.3392    0.0000 H   0  0  0  0  0  0  0  0  0  0  0  0
  -14.2062    2.0517    0.0000 H   0  0  0  0  0  0  0  0  0  0  0  0
  -12.0317    3.6459    0.0000 H   0  0  0  0  0  0  0  0  0  0  0  0
  -13.6228    2.8379    0.0000 H   0  0  0  0  0  0  0  0  0  0  0  0
  -10.4940    0.5246    0.0000 H   0  0  0  0  0  0  0  0  0  0  0  0
   -8.4098    3.3932    0.0000 H   0  0  0  0  0  0  0  0  0  0  0  0
   -9.4692    4.6370    0.0000 H   0  0  0  0  0  0  0  0  0  0  0  0
  -11.1469    4.0291    0.0000 H   0  0  0  0  0  0  0  0  0  0  0  0
   -9.0006   -0.1075    0.0000 H   0  0  0  0  0  0  0  0  0  0  0  0
   -7.9970    1.6974    0.0000 H   0  0  0  0  0  0  0  0  0  0  0  0
   -8.8496    2.6984    0.0000 H   0  0  0  0  0  0  0  0  0  0  0  0
  -10.3063    2.5917    0.0000 H   0  0  0  0  0  0  0  0  0  0  0  0
  -10.2744   -0.6406    0.0000 H   0  0  0  0  0  0  0  0  0  0  0  0
   -6.8678   -1.3146    0.0000 H   0  0  0  0  0  0  0  0  0  0  0  0
   -6.9430    0.1606    0.0000 H   0  0  0  0  0  0  0  0  0  0  0  0
   -9.5312   -3.2856    0.0000 H   0  0  0  0  0  0  0  0  0  0  0  0
  -10.0506   -1.5785    0.0000 H   0  0  0  0  0  0  0  0  0  0  0  0
   -6.2649   -3.8418    0.0000 H   0  0  0  0  0  0  0  0  0  0  0  0
   -6.5722   -2.0840    0.0000 H   0  0  0  0  0  0  0  0  0  0  0  0
   -9.4934   -4.9564    0.0000 H   0  0  0  0  0  0  0  0  0  0  0  0
   -6.4004   -8.2249    0.0000 H   0  0  0  0  0  0  0  0  0  0  0  0
   -8.8904   -7.4835    0.0000 H   0  0  0  0  0  0  0  0  0  0  0  0
   -4.5133   -6.4391    0.0000 H   0  0  0  0  0  0  0  0  0  0  0  0
   -5.1163   -3.9120    0.0000 H   0  0  0  0  0  0  0  0  0  0  0  0
   -6.3755   -0.8742    0.0000 H   0  0  0  0  0  0  0  0  0  0  0  0
   -6.4259    2.5167    0.0000 H   0  0  0  0  0  0  0  0  0  0  0  0
   -4.2513    4.1108    0.0000 H   0  0  0  0  0  0  0  0  0  0  0  0
   -5.8424    3.3029    0.0000 H   0  0  0  0  0  0  0  0  0  0  0  0
   -1.6694    1.7886    0.0000 H   0  0  0  0  0  0  0  0  0  0  0  0
   -2.7137    0.9895    0.0000 H   0  0  0  0  0  0  0  0  0  0  0  0
   -1.6889    5.1020    0.0000 H   0  0  0  0  0  0  0  0  0  0  0  0
   -3.3665    4.4940    0.0000 H   0  0  0  0  0  0  0  0  0  0  0  0
    0.2848    2.3012    0.0000 H   0  0  0  0  0  0  0  0  0  0  0  0
    2.6512    5.7296    0.0000 H   0  0  0  0  0  0  0  0  0  0  0  0
    2.2030    3.0810    0.0000 H   0  0  0  0  0  0  0  0  0  0  0  0
    0.5649    7.2780    0.0000 H   0  0  0  0  0  0  0  0  0  0  0  0
   -1.8192    6.2453    0.0000 H   0  0  0  0  0  0  0  0  0  0  0  0
   -2.5259    3.0566    0.0000 H   0  0  0  0  0  0  0  0  0  0  0  0
   -2.4940   -0.1756    0.0000 H   0  0  0  0  0  0  0  0  0  0  0  0
    0.9125   -0.8497    0.0000 H   0  0  0  0  0  0  0  0  0  0  0  0
    0.7299    0.7739    0.0000 H   0  0  0  0  0  0  0  0  0  0  0  0
   -1.7509   -2.8207    0.0000 H   0  0  0  0  0  0  0  0  0  0  0  0
   -2.2702   -1.1135    0.0000 H   0  0  0  0  0  0  0  0  0  0  0  0
    1.5155   -3.3768    0.0000 H   0  0  0  0  0  0  0  0  0  0  0  0
    1.2081   -1.6191    0.0000 H   0  0  0  0  0  0  0  0  0  0  0  0
   -1.7130   -4.4914    0.0000 H   0  0  0  0  0  0  0  0  0  0  0  0
    1.3800   -7.7599    0.0000 H   0  0  0  0  0  0  0  0  0  0  0  0
   -1.1101   -7.0186    0.0000 H   0  0  0  0  0  0  0  0  0  0  0  0
    3.2671   -5.9742    0.0000 H   0  0  0  0  0  0  0  0  0  0  0  0
    2.6641   -3.4470    0.0000 H   0  0  0  0  0  0  0  0  0  0  0  0
    1.4048   -0.4093    0.0000 H   0  0  0  0  0  0  0  0  0  0  0  0
    1.3545    2.9816    0.0000 H   0  0  0  0  0  0  0  0  0  0  0  0
    3.5290    4.5757    0.0000 H   0  0  0  0  0  0  0  0  0  0  0  0
    1.8154    3.4233    0.0000 H   0  0  0  0  0  0  0  0  0  0  0  0
    4.8852    1.4292    0.0000 H   0  0  0  0  0  0  0  0  0  0  0  0
    7.1162    4.5029    0.0000 H   0  0  0  0  0  0  0  0  0  0  0  0
    5.5477    5.6248    0.0000 H   0  0  0  0  0  0  0  0  0  0  0  0
    4.4138    4.9590    0.0000 H   0  0  0  0  0  0  0  0  0  0  0  0
    6.6471    0.8030    0.0000 H   0  0  0  0  0  0  0  0  0  0  0  0
    7.6011    2.0817    0.0000 H   0  0  0  0  0  0  0  0  0  0  0  0
    6.4035    3.7203    0.0000 H   0  0  0  0  0  0  0  0  0  0  0  0
    5.0726    3.5442    0.0000 H   0  0  0  0  0  0  0  0  0  0  0  0
    5.2061   -0.0102    0.0000 H   0  0  0  0  0  0  0  0  0  0  0  0
    5.8720   -1.3216    0.0000 H   0  0  0  0  0  0  0  0  0  0  0  0
    6.1059   -1.9010    0.0000 H   0  0  0  0  0  0  0  0  0  0  0  0
    6.8994   -2.7209    0.0000 H   0  0  0  0  0  0  0  0  0  0  0  0
    7.3597   -3.1192    0.0000 H   0  0  0  0  0  0  0  0  0  0  0  0
    8.6486   -3.8276    0.0000 H   0  0  0  0  0  0  0  0  0  0  0  0
    9.6150   -4.3790    0.0000 H   0  0  0  0  0  0  0  0  0  0  0  0
    4.9904   -1.0868    0.0000 H   0  0  0  0  0  0  0  0  0  0  0  0
    3.8276   -0.2174    0.0000 H   0  0  0  0  0  0  0  0  0  0  0  0
    4.0518    1.4388    0.0000 H   0  0  0  0  0  0  0  0  0  0  0  0
    5.6510    5.1498    0.0000 H   0  0  0  0  0  0  0  0  0  0  0  0
    6.3079    5.8132    0.0000 H   0  0  0  0  0  0  0  0  0  0  0  0
    7.8504    8.4098    0.0000 H   0  0  0  0  0  0  0  0  0  0  0  0
    8.9038    7.3743    0.0000 H   0  0  0  0  0  0  0  0  0  0  0  0
    5.4732    6.0341    0.0000 H   0  0  0  0  0  0  0  0  0  0  0  0
    4.3644    9.5262    0.0000 H   0  0  0  0  0  0  0  0  0  0  0  0
    5.9327   10.3774    0.0000 H   0  0  0  0  0  0  0  0  0  0  0  0
    7.2053    9.1265    0.0000 H   0  0  0  0  0  0  0  0  0  0  0  0
    3.5925    8.5385    0.0000 H   0  0  0  0  0  0  0  0  0  0  0  0
    3.1454    6.8110    0.0000 H   0  0  0  0  0  0  0  0  0  0  0  0
    4.8479    5.9054    0.0000 H   0  0  0  0  0  0  0  0  0  0  0  0
   10.1250    8.3475    0.0000 H   0  0  0  0  0  0  0  0  0  0  0  0
   11.2349    8.2701    0.0000 H   0  0  0  0  0  0  0  0  0  0  0  0
   14.1435    8.8463    0.0000 H   0  0  0  0  0  0  0  0  0  0  0  0
   14.0740    7.2139    0.0000 H   0  0  0  0  0  0  0  0  0  0  0  0
   13.2779   10.6465    0.0000 H   0  0  0  0  0  0  0  0  0  0  0  0
   15.5963    6.8660    0.0000 H   0  0  0  0  0  0  0  0  0  0  0  0
   16.0575    6.0174    0.0000 H   0  0  0  0  0  0  0  0  0  0  0  0
   18.4161    3.8683    0.0000 H   0  0  0  0  0  0  0  0  0  0  0  0
   17.1722    3.0717    0.0000 H   0  0  0  0  0  0  0  0  0  0  0  0
   18.1424    7.3301    0.0000 H   0  0  0  0  0  0  0  0  0  0  0  0
   16.5336    6.5581    0.0000 H   0  0  0  0  0  0  0  0  0  0  0  0
   20.7611    5.3000    0.0000 H   0  0  0  0  0  0  0  0  0  0  0  0
   19.2584    4.3377    0.0000 H   0  0  0  0  0  0  0  0  0  0  0  0
   19.3987    8.4321    0.0000 H   0  0  0  0  0  0  0  0  0  0  0  0
   23.8982    8.3641    0.0000 H   0  0  0  0  0  0  0  0  0  0  0  0
   21.6681    9.6970    0.0000 H   0  0  0  0  0  0  0  0  0  0  0  0
   23.8589    5.7663    0.0000 H   0  0  0  0  0  0  0  0  0  0  0  0
   21.5896    4.5014    0.0000 H   0  0  0  0  0  0  0  0  0  0  0  0
   17.8493    1.6646    0.0000 H   0  0  0  0  0  0  0  0  0  0  0  0
   15.8901   -2.4772    0.0000 H   0  0  0  0  0  0  0  0  0  0  0  0
   16.7921   -1.5295    0.0000 H   0  0  0  0  0  0  0  0  0  0  0  0
   14.5711   -3.6059    0.0000 H   0  0  0  0  0  0  0  0  0  0  0  0
   15.5305   -2.9882    0.0000 H   0  0  0  0  0  0  0  0  0  0  0  0
   12.6160   -4.2852    0.0000 H   0  0  0  0  0  0  0  0  0  0  0  0
   14.0323   -3.8889    0.0000 H   0  0  0  0  0  0  0  0  0  0  0  0
   11.5493   -4.6021    0.0000 H   0  0  0  0  0  0  0  0  0  0  0  0
   18.7907   -0.2080    0.0000 H   0  0  0  0  0  0  0  0  0  0  0  0
   18.6687    1.5723    0.0000 H   0  0  0  0  0  0  0  0  0  0  0  0
   17.2813    2.0794    0.0000 H   0  0  0  0  0  0  0  0  0  0  0  0
   19.2055    0.5741    0.0000 H   0  0  0  0  0  0  0  0  0  0  0  0
   18.0609   -2.6182    0.0000 H   0  0  0  0  0  0  0  0  0  0  0  0
   20.6110   -4.6395    0.0000 H   0  0  0  0  0  0  0  0  0  0  0  0
   21.3025   -2.9945    0.0000 H   0  0  0  0  0  0  0  0  0  0  0  0
   20.5072   -6.5453    0.0000 H   0  0  0  0  0  0  0  0  0  0  0  0
   17.6727   -8.1624    0.0000 H   0  0  0  0  0  0  0  0  0  0  0  0
   15.2588   -5.9664    0.0000 H   0  0  0  0  0  0  0  0  0  0  0  0
   21.3972   -4.3533    0.0000 H   0  0  0  0  0  0  0  0  0  0  0  0
   22.8231   -1.2764    0.0000 H   0  0  0  0  0  0  0  0  0  0  0  0
   25.6167   -0.8984    0.0000 H   0  0  0  0  0  0  0  0  0  0  0  0
   23.6899   -0.8212    0.0000 H   0  0  0  0  0  0  0  0  0  0  0  0
   27.6393   -0.8010    0.0000 H   0  0  0  0  0  0  0  0  0  0  0  0
   29.7240   -3.3117    0.0000 H   0  0  0  0  0  0  0  0  0  0  0  0
   28.1463   -5.9922    0.0000 H   0  0  0  0  0  0  0  0  0  0  0  0
   26.5711   -2.4820    0.0000 H   0  0  0  0  0  0  0  0  0  0  0  0
   25.2725   -5.5751    0.0000 H   0  0  0  0  0  0  0  0  0  0  0  0
   27.8226   -7.5964    0.0000 H   0  0  0  0  0  0  0  0  0  0  0  0
   28.5465   -6.1316    0.0000 H   0  0  0  0  0  0  0  0  0  0  0  0
   26.5035   -8.8452    0.0000 H   0  0  0  0  0  0  0  0  0  0  0  0
   28.6088   -7.3102    0.0000 H   0  0  0  0  0  0  0  0  0  0  0  0
   30.0347   -4.2333    0.0000 H   0  0  0  0  0  0  0  0  0  0  0  0
   30.9015   -3.7781    0.0000 H   0  0  0  0  0  0  0  0  0  0  0  0
   34.3219   -3.9936    0.0000 H   0  0  0  0  0  0  0  0  0  0  0  0
   34.4900   -5.2359    0.0000 H   0  0  0  0  0  0  0  0  0  0  0  0
   34.0043   -6.9530    0.0000 H   0  0  0  0  0  0  0  0  0  0  0  0
   32.5422   -7.1639    0.0000 H   0  0  0  0  0  0  0  0  0  0  0  0
  1  2  1  0
  2  3  1  0
  3  4  2  0
  4  5  1  0
  5  6  2  0
  6  7  1  0
  7  8  2  0
  7  9  1  0
  9 10  1  0
 10 11  1  0
 11 12  2  0
  9 13  1  0
 13 14  1  0
 14 15  2  0
 15 16  1  0
 16 17  2  0
 17 18  1  0
 16 19  1  0
 14 20  1  0
 20 21  1  0
 21 22  2  0
 22 23  1  0
 23 24  2  0
 24 25  1  0
 25 26  2  0
 25 27  1  0
  1 28  2  0
  1 29  1  0
 29 30  1  0
 30 31  1  0
 31 32  1  0
 32 33  2  0
 32 34  1  0
 34 35  1  0
 35 36  1  0
 36 37  1  0
 37 38  1  0
 38 39  2  0
 38 40  1  0
 35 41  1  0
 41 42  2  0
 41 43  1  0
 43 44  1  0
 44 45  1  0
 45 46  1  0
 46 47  1  0
 47 48  1  0
 48 49  1  0
 49 50  2  3
 49 51  1  0
 44 52  1  0
 52 53  2  0
 52 54  1  0
 54 55  1  0
 55 56  1  0
 56 57  1  0
 57 58  1  0
 57 59  1  0
 55 60  1  0
 60 61  2  0
 60 62  1  0
 62 63  1  0
 63 64  1  0
 64 65  1  0
 65 66  1  0
 66 67  1  0
 67 68  1  0
 68 69  2  3
 68 70  1  0
 63 71  1  0
 71 72  2  0
 71 73  1  0
 73 74  1  0
 74 75  1  0
 75 76  1  0
 76 77  1  0
 77 78  1  0
 78 79  1  0
 79 80  2  3
 79 81  1  0
 74 82  1  0
 82 83  2  0
 82 84  1  0
 84 85  1  0
 85 86  1  0
 86 87  1  0
 87 88  1  0
 88 89  1  0
 89 90  1  0
 90 91  2  3
 90 92  1  0
 85 93  1  0
 93 94  2  0
 93 95  1  0
 95 96  1  0
 96 97  1  0
 97 98  1  0
 98 99  1  0
 98100  1  0
 96101  1  0
101102  2  0
101103  1  0
104103  1  6
104105  1  0
105106  1  0
106107  1  0
107108  1  0
104109  1  0
104110  1  0
110111  2  0
110112  1  0
112113  1  0
113114  1  0
114115  1  0
115116  1  0
115117  1  0
113118  1  0
118119  2  0
118120  1  0
120121  1  0
121122  1  0
122123  1  0
121124  1  0
124125  2  0
124126  1  0
126127  1  0
127128  1  0
128129  1  0
129130  1  0
130131  1  0
131132  1  0
132133  2  3
132134  1  0
127135  1  0
135136  2  0
135137  1  0
137138  1  0
138139  1  0
139140  1  0
140141  1  0
141142  1  0
138143  1  0
138144  1  6
144145  2  0
144146  1  0
146147  1  0
147148  1  0
148149  1  0
149150  2  0
150151  1  0
151152  1  0
152153  2  0
147154  1  0
154155  2  0
154156  1  0
156157  1  0
157158  1  0
158159  1  0
159160  2  0
160161  1  0
161162  1  0
162163  2  0
157164  1  0
164165  2  0
164166  1  0
166167  1  0
167168  1  0
168169  1  0
167170  1  0
170171  2  0
170172  1  0
172173  1  0
173174  1  0
174175  1  0
174176  1  0
173177  1  0
177178  2  0
177179  1  0
  8  3  1  0
153149  1  0
163159  1  0
 11  6  1  0
108142  2  0
 18 13  2  0
 22  9  1  0
 26 21  1  0
  2180  1  0
  4181  1  0
  5182  1  0
  8183  1  0
 15184  1  0
 17185  1  0
 18186  1  0
 19187  1  0
 23188  1  0
 24189  1  0
 26190  1  0
 27191  1  0
 29192  1  0
 30193  1  0
 30194  1  0
 31195  1  0
 31196  1  0
 34197  1  0
 35198  1  1
 36199  1  0
 36200  1  0
 37201  1  0
 37202  1  0
 43203  1  0
 44204  1  6
 45205  1  0
 45206  1  0
 46207  1  0
 46208  1  0
 47209  1  0
 47210  1  0
 48211  1  0
 50212  1  0
 50213  1  0
 51214  1  0
 51215  1  0
 54216  1  0
 55217  1  1
 56218  1  0
 56219  1  0
 57220  1  0
 58221  1  0
 58222  1  0
 58223  1  0
 59224  1  0
 59225  1  0
 59226  1  0
 62227  1  0
 63228  1  6
 64229  1  0
 64230  1  0
 65231  1  0
 65232  1  0
 66233  1  0
 66234  1  0
 67235  1  0
 69236  1  0
 69237  1  0
 70238  1  0
 70239  1  0
 73240  1  0
 74241  1  1
 75242  1  0
 75243  1  0
 76244  1  0
 76245  1  0
 77246  1  0
 77247  1  0
 78248  1  0
 80249  1  0
 80250  1  0
 81251  1  0
 81252  1  0
 84253  1  0
 85254  1  6
 86255  1  0
 86256  1  0
 87257  1  0
 87258  1  0
 88259  1  0
 88260  1  0
 89261  1  0
 91262  1  0
 91263  1  0
 92264  1  0
 92265  1  0
 95266  1  0
 96267  1  1
 97268  1  0
 97269  1  0
 98270  1  0
 99271  1  0
 99272  1  0
 99273  1  0
100274  1  0
100275  1  0
100276  1  0
103277  1  0
105278  1  0
105279  1  0
106280  1  0
106281  1  0
107282  1  0
107283  1  0
108284  1  0
109285  1  0
109286  1  0
109287  1  0
112288  1  0
113289  1  1
114290  1  0
114291  1  0
115292  1  0
116293  1  0
116294  1  0
116295  1  0
117296  1  0
117297  1  0
117298  1  0
120299  1  0
121300  1  1
122301  1  0
122302  1  0
123303  1  0
126304  1  0
127305  1  1
128306  1  0
128307  1  0
129308  1  0
129309  1  0
130310  1  0
130311  1  0
131312  1  0
133313  1  0
133314  1  0
134315  1  0
134316  1  0
137317  1  0
139318  1  0
139319  1  0
140320  1  0
140321  1  0
141322  1  0
141323  1  0
142324  1  0
143325  1  0
143326  1  0
143327  1  0
146328  1  0
147329  1  6
148330  1  0
148331  1  0
150332  1  0
151333  1  0
152334  1  0
156335  1  0
157336  1  1
158337  1  0
158338  1  0
160339  1  0
161340  1  0
162341  1  0
166342  1  0
167343  1  6
168344  1  0
168345  1  0
169346  1  0
172347  1  0
173348  1  1
174349  1  1
175350  1  0
176351  1  0
176352  1  0
176353  1  0
M  CHG  7  40  -1  50   1  69   1  80   1  91   1 133   1 179  -1
M  END
