
     RDKit          2D

348355  0  0  0  0  0  0  0  0999 V2000
  -29.2149   -0.2365    0.0000 C   0  0  0  0  0  0  0  0  0  0  0  0
  -30.4668   -1.0627    0.0000 N   0  0  0  0  0  0  0  0  0  0  0  0
  -31.8083   -0.3916    0.0000 C   0  0  0  0  0  0  0  0  0  0  0  0
  -31.8979    1.1057    0.0000 C   0  0  0  0  0  0  0  0  0  0  0  0
  -33.2394    1.7768    0.0000 C   0  0  0  0  0  0  0  0  0  0  0  0
  -34.4913    0.9506    0.0000 C   0  0  0  0  0  0  0  0  0  0  0  0
  -34.4018   -0.5467    0.0000 C   0  0  0  0  0  0  0  0  0  0  0  0
  -33.0603   -1.2178    0.0000 C   0  0  0  0  0  0  0  0  0  0  0  0
  -35.7981   -1.0946    0.0000 C   0  0  0  0  0  0  0  0  0  0  0  0
  -36.7507    0.0642    0.0000 O   0  0  0  0  0  0  0  0  0  0  0  0
  -35.9430    1.3281    0.0000 C   0  0  0  0  0  0  0  0  0  0  0  0
  -36.4909    2.7245    0.0000 O   0  0  0  0  0  0  0  0  0  0  0  0
  -37.2441   -1.4935    0.0000 C   0  0  0  0  0  0  0  0  0  0  0  0
  -37.6217   -2.9452    0.0000 C   0  0  0  0  0  0  0  0  0  0  0  0
  -39.0677   -3.3441    0.0000 C   0  0  0  0  0  0  0  0  0  0  0  0
  -40.1361   -2.2913    0.0000 C   0  0  0  0  0  0  0  0  0  0  0  0
  -39.7586   -0.8396    0.0000 C   0  0  0  0  0  0  0  0  0  0  0  0
  -38.3126   -0.4407    0.0000 C   0  0  0  0  0  0  0  0  0  0  0  0
  -41.5821   -2.6902    0.0000 O   0  0  0  0  0  0  0  0  0  0  0  0
  -36.5532   -3.9980    0.0000 O   0  0  0  0  0  0  0  0  0  0  0  0
  -35.1072   -3.5991    0.0000 C   0  0  0  0  0  0  0  0  0  0  0  0
  -34.7297   -2.1474    0.0000 C   0  0  0  0  0  0  0  0  0  0  0  0
  -33.4599   -2.4260    0.0000 C   0  0  0  0  0  0  0  0  0  0  0  0
  -32.8901   -2.9875    0.0000 C   0  0  0  0  0  0  0  0  0  0  0  0
  -33.0914   -3.7617    0.0000 C   0  0  0  0  0  0  0  0  0  0  0  0
  -33.8626   -3.9744    0.0000 C   0  0  0  0  0  0  0  0  0  0  0  0
  -31.5243   -5.3058    0.0000 O   0  0  0  0  0  0  0  0  0  0  0  0
  -29.3044    1.2608    0.0000 S   0  0  0  0  0  0  0  0  0  0  0  0
  -27.8734   -0.9076    0.0000 N   0  0  0  0  0  0  0  0  0  0  0  0
  -26.6215   -0.0814    0.0000 C   0  0  0  0  0  0  0  0  0  0  0  0
  -25.2800   -0.7525    0.0000 C   0  0  0  0  0  0  0  0  0  0  0  0
  -24.0280    0.0737    0.0000 C   0  0  0  0  0  0  0  0  0  0  0  0
  -24.1176    1.5710    0.0000 O   0  0  0  0  0  0  0  0  0  0  0  0
  -22.6865   -0.5974    0.0000 N   0  0  0  0  0  0  0  0  0  0  0  0
  -21.4346    0.2288    0.0000 C   0  0  0  0  0  0  0  0  0  0  0  0
  -20.5407    1.4333    0.0000 C   0  0  0  0  0  0  0  0  0  0  0  0
  -19.0506    1.2615    0.0000 C   0  0  0  0  0  0  0  0  0  0  0  0
  -18.1567    2.4661    0.0000 C   0  0  0  0  0  0  0  0  0  0  0  0
  -16.9417    2.4751    0.0000 O   0  0  0  0  0  0  0  0  0  0  0  0
  -18.7530    3.8425    0.0000 O   0  0  0  0  0  0  0  0  0  0  0  0
  -20.0931   -0.4423    0.0000 C   0  0  0  0  0  0  0  0  0  0  0  0
  -20.0035   -1.9397    0.0000 O   0  0  0  0  0  0  0  0  0  0  0  0
  -18.8411    0.3839    0.0000 N   0  0  0  0  0  0  0  0  0  0  0  0
  -17.4996   -0.2872    0.0000 C   0  0  0  0  0  0  0  0  0  0  0  0
  -16.4686   -1.3767    0.0000 C   0  0  0  0  0  0  0  0  0  0  0  0
  -16.8965   -2.8144    0.0000 C   0  0  0  0  0  0  0  0  0  0  0  0
  -15.8655   -3.9038    0.0000 C   0  0  0  0  0  0  0  0  0  0  0  0
  -16.2935   -5.3415    0.0000 N   0  0  0  0  0  0  0  0  0  0  0  0
  -15.2624   -6.4309    0.0000 C   0  0  0  0  0  0  0  0  0  0  0  0
  -15.6904   -7.8686    0.0000 N   0  0  0  0  0  0  0  0  0  0  0  0
  -13.8034   -6.0827    0.0000 N   0  0  0  0  0  0  0  0  0  0  0  0
  -16.2477    0.5390    0.0000 C   0  0  0  0  0  0  0  0  0  0  0  0
  -16.1718    1.7516    0.0000 O   0  0  0  0  0  0  0  0  0  0  0  0
  -14.9062   -0.1321    0.0000 N   0  0  0  0  0  0  0  0  0  0  0  0
  -13.6542    0.6941    0.0000 C   0  0  0  0  0  0  0  0  0  0  0  0
  -12.7604    1.8986    0.0000 C   0  0  0  0  0  0  0  0  0  0  0  0
  -11.2702    1.7268    0.0000 C   0  0  0  0  0  0  0  0  0  0  0  0
  -10.3764    2.9314    0.0000 N   0  0  0  0  0  0  0  0  0  0  0  0
  -10.7858    1.0938    0.0000 O   0  0  0  0  0  0  0  0  0  0  0  0
  -12.3127    0.0229    0.0000 C   0  0  0  0  0  0  0  0  0  0  0  0
  -12.2232   -1.4744    0.0000 O   0  0  0  0  0  0  0  0  0  0  0  0
  -11.0608    0.8492    0.0000 N   0  0  0  0  0  0  0  0  0  0  0  0
   -9.7193    0.1780    0.0000 C   0  0  0  0  0  0  0  0  0  0  0  0
   -8.6882   -0.9114    0.0000 C   0  0  0  0  0  0  0  0  0  0  0  0
   -7.2292   -0.5632    0.0000 C   0  0  0  0  0  0  0  0  0  0  0  0
   -6.1982   -1.6527    0.0000 C   0  0  0  0  0  0  0  0  0  0  0  0
   -4.7391   -1.3045    0.0000 N   0  0  0  0  0  0  0  0  0  0  0  0
   -3.7081   -2.3939    0.0000 C   0  0  0  0  0  0  0  0  0  0  0  0
   -2.3024   -1.8705    0.0000 N   0  0  0  0  0  0  0  0  0  0  0  0
   -4.1360   -3.8316    0.0000 N   0  0  0  0  0  0  0  0  0  0  0  0
   -8.4674    1.0043    0.0000 C   0  0  0  0  0  0  0  0  0  0  0  0
   -8.3737    2.5013    0.0000 O   0  0  0  0  0  0  0  0  0  0  0  0
   -7.1259    0.3331    0.0000 N   0  0  0  0  0  0  0  0  0  0  0  0
   -5.8739    1.1594    0.0000 C   0  0  0  0  0  0  0  0  0  0  0  0
   -4.9800    2.3639    0.0000 C   0  0  0  0  0  0  0  0  0  0  0  0
   -3.4899    2.1921    0.0000 C   0  0  0  0  0  0  0  0  0  0  0  0
   -2.5961    3.3967    0.0000 C   0  0  0  0  0  0  0  0  0  0  0  0
   -1.1059    3.2249    0.0000 N   0  0  0  0  0  0  0  0  0  0  0  0
   -0.2121    4.4294    0.0000 C   0  0  0  0  0  0  0  0  0  0  0  0
    1.2781    4.2576    0.0000 N   0  0  0  0  0  0  0  0  0  0  0  0
   -0.8083    5.8058    0.0000 N   0  0  0  0  0  0  0  0  0  0  0  0
   -4.5324    0.4882    0.0000 C   0  0  0  0  0  0  0  0  0  0  0  0
   -4.0832   -0.9429    0.0000 O   0  0  0  0  0  0  0  0  0  0  0  0
   -3.2805    1.3144    0.0000 N   0  0  0  0  0  0  0  0  0  0  0  0
   -1.9390    0.6433    0.0000 C   0  0  0  0  0  0  0  0  0  0  0  0
   -0.9079   -0.4461    0.0000 C   0  0  0  0  0  0  0  0  0  0  0  0
    0.5511   -0.0979    0.0000 C   0  0  0  0  0  0  0  0  0  0  0  0
    1.5822   -1.1874    0.0000 C   0  0  0  0  0  0  0  0  0  0  0  0
    3.0412   -0.8392    0.0000 N   0  0  0  0  0  0  0  0  0  0  0  0
    4.0723   -1.9287    0.0000 C   0  0  0  0  0  0  0  0  0  0  0  0
    5.5591   -2.1266    0.0000 N   0  0  0  0  0  0  0  0  0  0  0  0
    3.6443   -3.3663    0.0000 N   0  0  0  0  0  0  0  0  0  0  0  0
   -0.6870    1.4695    0.0000 C   0  0  0  0  0  0  0  0  0  0  0  0
   -0.4116    2.9440    0.0000 O   0  0  0  0  0  0  0  0  0  0  0  0
    0.6545    0.7984    0.0000 N   0  0  0  0  0  0  0  0  0  0  0  0
    1.9064    1.6246    0.0000 C   0  0  0  0  0  0  0  0  0  0  0  0
    2.8003    2.8292    0.0000 C   0  0  0  0  0  0  0  0  0  0  0  0
    4.3002    2.8403    0.0000 C   0  0  0  0  0  0  0  0  0  0  0  0
    3.2283    4.2669    0.0000 C   0  0  0  0  0  0  0  0  0  0  0  0
    4.6340    4.7903    0.0000 C   0  0  0  0  0  0  0  0  0  0  0  0
    3.2479    0.9535    0.0000 C   0  0  0  0  0  0  0  0  0  0  0  0
    3.5193   -0.5217    0.0000 O   0  0  0  0  0  0  0  0  0  0  0  0
    4.4999    1.7797    0.0000 N   0  0  0  0  0  0  0  0  0  0  0  0
    5.8414    1.1086    0.0000 C   0  0  0  0  0  0  0  0  0  0  0  0
    6.2258   -0.3413    0.0000 C   0  0  0  0  0  0  0  0  0  0  0  0
    7.0206   -1.6134    0.0000 C   0  0  0  0  0  0  0  0  0  0  0  0
    8.1550   -2.5948    0.0000 C   0  0  0  0  0  0  0  0  0  0  0  0
    9.5282   -3.1982    0.0000 C   0  0  0  0  0  0  0  0  0  0  0  0
    4.5712    0.3107    0.0000 C   0  0  0  0  0  0  0  0  0  0  0  0
    5.9013    2.6074    0.0000 C   0  0  0  0  0  0  0  0  0  0  0  0
    4.4737    3.0676    0.0000 O   0  0  0  0  0  0  0  0  0  0  0  0
    6.4004    4.0220    0.0000 N   0  0  0  0  0  0  0  0  0  0  0  0
    7.2943    5.2265    0.0000 C   0  0  0  0  0  0  0  0  0  0  0  0
    6.9826    6.6938    0.0000 C   0  0  0  0  0  0  0  0  0  0  0  0
    8.0974    7.6974    0.0000 C   0  0  0  0  0  0  0  0  0  0  0  0
    7.7857    9.1646    0.0000 C   0  0  0  0  0  0  0  0  0  0  0  0
    9.4094    8.4245    0.0000 C   0  0  0  0  0  0  0  0  0  0  0  0
    8.5035    6.1141    0.0000 C   0  0  0  0  0  0  0  0  0  0  0  0
    8.1481    7.5714    0.0000 O   0  0  0  0  0  0  0  0  0  0  0  0
    9.9206    6.6059    0.0000 N   0  0  0  0  0  0  0  0  0  0  0  0
   11.4197    6.6580    0.0000 C   0  0  0  0  0  0  0  0  0  0  0  0
   12.3725    7.8166    0.0000 C   0  0  0  0  0  0  0  0  0  0  0  0
   11.8456    9.2210    0.0000 S   0  0  0  0  0  0  0  0  0  0  0  0
   12.8676    6.2660    0.0000 C   0  0  0  0  0  0  0  0  0  0  0  0
   13.4710    7.6393    0.0000 O   0  0  0  0  0  0  0  0  0  0  0  0
   14.1356    5.4647    0.0000 N   0  0  0  0  0  0  0  0  0  0  0  0
   15.1111    4.3252    0.0000 C   0  0  0  0  0  0  0  0  0  0  0  0
   16.6109    4.3026    0.0000 C   0  0  0  0  0  0  0  0  0  0  0  0
   17.3804    5.5902    0.0000 C   0  0  0  0  0  0  0  0  0  0  0  0
   18.8802    5.5676    0.0000 C   0  0  0  0  0  0  0  0  0  0  0  0
   19.6497    6.8552    0.0000 N   0  0  0  0  0  0  0  0  0  0  0  0
   21.1495    6.8326    0.0000 C   0  0  0  0  0  0  0  0  0  0  0  0
   21.9190    8.1202    0.0000 N   0  0  0  0  0  0  0  0  0  0  0  0
   21.8799    5.5224    0.0000 N   0  0  0  0  0  0  0  0  0  0  0  0
   15.7073    2.9488    0.0000 C   0  0  0  0  0  0  0  0  0  0  0  0
   17.1572    3.3333    0.0000 O   0  0  0  0  0  0  0  0  0  0  0  0
   15.8714    1.4578    0.0000 N   0  0  0  0  0  0  0  0  0  0  0  0
   15.5887   -0.0153    0.0000 C   0  0  0  0  0  0  0  0  0  0  0  0
   14.8843   -1.3397    0.0000 C   0  0  0  0  0  0  0  0  0  0  0  0
   13.8209   -2.3976    0.0000 C   0  0  0  0  0  0  0  0  0  0  0  0
   12.4929   -3.0950    0.0000 C   0  0  0  0  0  0  0  0  0  0  0  0
   11.0184   -3.3700    0.0000 C   0  0  0  0  0  0  0  0  0  0  0  0
   17.0477    0.3329    0.0000 C   0  0  0  0  0  0  0  0  0  0  0  0
   16.5062   -1.2020    0.0000 C   0  0  0  0  0  0  0  0  0  0  0  0
   16.2899   -2.6864    0.0000 O   0  0  0  0  0  0  0  0  0  0  0  0
   17.9926   -1.0008    0.0000 N   0  0  0  0  0  0  0  0  0  0  0  0
   18.9101   -2.1875    0.0000 C   0  0  0  0  0  0  0  0  0  0  0  0
   19.3663   -3.6165    0.0000 C   0  0  0  0  0  0  0  0  0  0  0  0
   18.3570   -4.7261    0.0000 C   0  0  0  0  0  0  0  0  0  0  0  0
   18.6613   -6.1948    0.0000 C   0  0  0  0  0  0  0  0  0  0  0  0
   17.3585   -6.9382    0.0000 N   0  0  0  0  0  0  0  0  0  0  0  0
   16.2489   -5.9289    0.0000 C   0  0  0  0  0  0  0  0  0  0  0  0
   16.8660   -4.5617    0.0000 N   0  0  0  0  0  0  0  0  0  0  0  0
   20.3965   -1.9864    0.0000 C   0  0  0  0  0  0  0  0  0  0  0  0
   20.9655   -0.5985    0.0000 O   0  0  0  0  0  0  0  0  0  0  0  0
   21.3140   -3.1731    0.0000 N   0  0  0  0  0  0  0  0  0  0  0  0
   22.8004   -2.9719    0.0000 C   0  0  0  0  0  0  0  0  0  0  0  0
   24.1284   -2.2744    0.0000 C   0  0  0  0  0  0  0  0  0  0  0  0
   25.3964   -3.0758    0.0000 C   0  0  0  0  0  0  0  0  0  0  0  0
   26.7900   -2.5209    0.0000 C   0  0  0  0  0  0  0  0  0  0  0  0
   27.7483   -3.6749    0.0000 N   0  0  0  0  0  0  0  0  0  0  0  0
   26.9470   -4.9429    0.0000 C   0  0  0  0  0  0  0  0  0  0  0  0
   25.4934   -4.5726    0.0000 N   0  0  0  0  0  0  0  0  0  0  0  0
   23.7179   -4.1586    0.0000 C   0  0  0  0  0  0  0  0  0  0  0  0
   23.1489   -5.5465    0.0000 O   0  0  0  0  0  0  0  0  0  0  0  0
   25.2043   -3.9574    0.0000 N   0  0  0  0  0  0  0  0  0  0  0  0
   26.1218   -5.1441    0.0000 C   0  0  0  0  0  0  0  0  0  0  0  0
   26.5780   -6.5730    0.0000 C   0  0  0  0  0  0  0  0  0  0  0  0
   25.5687   -7.6826    0.0000 O   0  0  0  0  0  0  0  0  0  0  0  0
   27.6082   -4.9429    0.0000 C   0  0  0  0  0  0  0  0  0  0  0  0
   28.4961   -3.7339    0.0000 O   0  0  0  0  0  0  0  0  0  0  0  0
   28.5257   -6.1296    0.0000 N   0  0  0  0  0  0  0  0  0  0  0  0
   30.0121   -5.9284    0.0000 C   0  0  0  0  0  0  0  0  0  0  0  0
   31.3401   -5.2310    0.0000 C   0  0  0  0  0  0  0  0  0  0  0  0
   32.3495   -4.1214    0.0000 O   0  0  0  0  0  0  0  0  0  0  0  0
   32.6081   -6.0323    0.0000 C   0  0  0  0  0  0  0  0  0  0  0  0
   30.9296   -7.1151    0.0000 C   0  0  0  0  0  0  0  0  0  0  0  0
   32.4295   -7.0966    0.0000 O   0  0  0  0  0  0  0  0  0  0  0  0
   30.3606   -8.5030    0.0000 O   0  0  0  0  0  0  0  0  0  0  0  0
  -30.1954   -2.5380    0.0000 H   0  0  0  0  0  0  0  0  0  0  0  0
  -30.6459    1.9319    0.0000 H   0  0  0  0  0  0  0  0  0  0  0  0
  -33.3289    3.2741    0.0000 H   0  0  0  0  0  0  0  0  0  0  0  0
  -32.6111   -2.6490    0.0000 H   0  0  0  0  0  0  0  0  0  0  0  0
  -39.4452   -4.7958    0.0000 H   0  0  0  0  0  0  0  0  0  0  0  0
  -40.8270    0.2133    0.0000 H   0  0  0  0  0  0  0  0  0  0  0  0
  -37.9351    1.0111    0.0000 H   0  0  0  0  0  0  0  0  0  0  0  0
  -42.6505   -1.6374    0.0000 H   0  0  0  0  0  0  0  0  0  0  0  0
  -32.9062   -0.2968    0.0000 H   0  0  0  0  0  0  0  0  0  0  0  0
  -30.7314   -2.5816    0.0000 H   0  0  0  0  0  0  0  0  0  0  0  0
  -34.4163   -6.1036    0.0000 H   0  0  0  0  0  0  0  0  0  0  0  0
  -31.9019   -6.7575    0.0000 H   0  0  0  0  0  0  0  0  0  0  0  0
  -27.7839   -2.4050    0.0000 H   0  0  0  0  0  0  0  0  0  0  0  0
  -25.7276    1.1232    0.0000 H   0  0  0  0  0  0  0  0  0  0  0  0
  -27.6525    1.0080    0.0000 H   0  0  0  0  0  0  0  0  0  0  0  0
  -24.2489   -1.8420    0.0000 H   0  0  0  0  0  0  0  0  0  0  0  0
  -26.1738   -1.9571    0.0000 H   0  0  0  0  0  0  0  0  0  0  0  0
  -22.5970   -2.0948    0.0000 H   0  0  0  0  0  0  0  0  0  0  0  0
  -22.4656    1.3182    0.0000 H   0  0  0  0  0  0  0  0  0  0  0  0
  -20.1127    2.8710    0.0000 H   0  0  0  0  0  0  0  0  0  0  0  0
  -21.8822    2.1045    0.0000 H   0  0  0  0  0  0  0  0  0  0  0  0
  -17.7091    0.5904    0.0000 H   0  0  0  0  0  0  0  0  0  0  0  0
  -18.7534   -0.2087    0.0000 H   0  0  0  0  0  0  0  0  0  0  0  0
  -18.5657    1.8584    0.0000 H   0  0  0  0  0  0  0  0  0  0  0  0
  -18.5337   -1.3739    0.0000 H   0  0  0  0  0  0  0  0  0  0  0  0
  -15.1271   -2.0478    0.0000 H   0  0  0  0  0  0  0  0  0  0  0  0
  -15.3098   -0.4242    0.0000 H   0  0  0  0  0  0  0  0  0  0  0  0
  -17.7904   -4.0189    0.0000 H   0  0  0  0  0  0  0  0  0  0  0  0
  -18.3098   -2.3118    0.0000 H   0  0  0  0  0  0  0  0  0  0  0  0
  -14.5240   -4.5749    0.0000 H   0  0  0  0  0  0  0  0  0  0  0  0
  -14.8315   -2.8172    0.0000 H   0  0  0  0  0  0  0  0  0  0  0  0
  -17.7525   -5.6897    0.0000 H   0  0  0  0  0  0  0  0  0  0  0  0
  -14.6593   -8.9580    0.0000 H   0  0  0  0  0  0  0  0  0  0  0  0
  -17.1494   -8.2168    0.0000 H   0  0  0  0  0  0  0  0  0  0  0  0
  -12.7723   -7.1722    0.0000 H   0  0  0  0  0  0  0  0  0  0  0  0
  -13.3754   -4.6451    0.0000 H   0  0  0  0  0  0  0  0  0  0  0  0
  -14.6348   -1.6074    0.0000 H   0  0  0  0  0  0  0  0  0  0  0  0
  -14.6853    1.7835    0.0000 H   0  0  0  0  0  0  0  0  0  0  0  0
  -12.3324    3.3363    0.0000 H   0  0  0  0  0  0  0  0  0  0  0  0
  -14.1019    2.5698    0.0000 H   0  0  0  0  0  0  0  0  0  0  0  0
   -8.8764    2.9425    0.0000 H   0  0  0  0  0  0  0  0  0  0  0  0
  -10.9726    4.3078    0.0000 H   0  0  0  0  0  0  0  0  0  0  0  0
  -10.7854    2.3237    0.0000 H   0  0  0  0  0  0  0  0  0  0  0  0
  -10.6132   -1.0265    0.0000 H   0  0  0  0  0  0  0  0  0  0  0  0
   -8.2642   -2.3502    0.0000 H   0  0  0  0  0  0  0  0  0  0  0  0
   -9.9402   -1.7376    0.0000 H   0  0  0  0  0  0  0  0  0  0  0  0
   -5.9773    0.2630    0.0000 H   0  0  0  0  0  0  0  0  0  0  0  0
   -7.1093    0.9320    0.0000 H   0  0  0  0  0  0  0  0  0  0  0  0
   -5.6019   -3.0291    0.0000 H   0  0  0  0  0  0  0  0  0  0  0  0
   -7.3401   -2.6253    0.0000 H   0  0  0  0  0  0  0  0  0  0  0  0
   -3.8243   -0.1158    0.0000 H   0  0  0  0  0  0  0  0  0  0  0  0
   -1.2180   -3.1352    0.0000 H   0  0  0  0  0  0  0  0  0  0  0  0
   -1.9785   -0.5589    0.0000 H   0  0  0  0  0  0  0  0  0  0  0  0
   -3.1050   -4.9211    0.0000 H   0  0  0  0  0  0  0  0  0  0  0  0
   -5.5951   -4.1798    0.0000 H   0  0  0  0  0  0  0  0  0  0  0  0
   -6.6767   -1.0980    0.0000 H   0  0  0  0  0  0  0  0  0  0  0  0
   -6.9050    2.2488    0.0000 H   0  0  0  0  0  0  0  0  0  0  0  0
   -4.7305    3.8430    0.0000 H   0  0  0  0  0  0  0  0  0  0  0  0
   -6.3215    3.0350    0.0000 H   0  0  0  0  0  0  0  0  0  0  0  0
   -2.1484    1.5210    0.0000 H   0  0  0  0  0  0  0  0  0  0  0  0
   -3.0157    0.7690    0.0000 H   0  0  0  0  0  0  0  0  0  0  0  0
   -2.1681    4.8343    0.0000 H   0  0  0  0  0  0  0  0  0  0  0  0
   -3.8457    4.2263    0.0000 H   0  0  0  0  0  0  0  0  0  0  0  0
   -0.0559    2.1536    0.0000 H   0  0  0  0  0  0  0  0  0  0  0  0
    2.1719    5.4622    0.0000 H   0  0  0  0  0  0  0  0  0  0  0  0
    1.7239    2.8135    0.0000 H   0  0  0  0  0  0  0  0  0  0  0  0
    0.0855    7.0104    0.0000 H   0  0  0  0  0  0  0  0  0  0  0  0
   -2.2984    5.9777    0.0000 H   0  0  0  0  0  0  0  0  0  0  0  0
   -3.0050    2.7889    0.0000 H   0  0  0  0  0  0  0  0  0  0  0  0
   -2.8328   -0.5612    0.0000 H   0  0  0  0  0  0  0  0  0  0  0  0
   -0.4839   -1.8849    0.0000 H   0  0  0  0  0  0  0  0  0  0  0  0
   -2.3226   -0.9448    0.0000 H   0  0  0  0  0  0  0  0  0  0  0  0
    1.8031    0.7283    0.0000 H   0  0  0  0  0  0  0  0  0  0  0  0
    0.8524    1.3715    0.0000 H   0  0  0  0  0  0  0  0  0  0  0  0
    2.1784   -2.5638    0.0000 H   0  0  0  0  0  0  0  0  0  0  0  0
    0.4403   -2.1600    0.0000 H   0  0  0  0  0  0  0  0  0  0  0  0
    3.9560    0.3495    0.0000 H   0  0  0  0  0  0  0  0  0  0  0  0
    6.3572   -2.8879    0.0000 H   0  0  0  0  0  0  0  0  0  0  0  0
    6.2944   -0.2891    0.0000 H   0  0  0  0  0  0  0  0  0  0  0  0
    4.6753   -4.4558    0.0000 H   0  0  0  0  0  0  0  0  0  0  0  0
    2.1853   -3.7145    0.0000 H   0  0  0  0  0  0  0  0  0  0  0  0
    1.1037   -0.6327    0.0000 H   0  0  0  0  0  0  0  0  0  0  0  0
    0.8754    2.7141    0.0000 H   0  0  0  0  0  0  0  0  0  0  0  0
    1.3363    3.1558    0.0000 H   0  0  0  0  0  0  0  0  0  0  0  0
    5.2066    3.8621    0.0000 H   0  0  0  0  0  0  0  0  0  0  0  0
    5.7990    2.3339    0.0000 H   0  0  0  0  0  0  0  0  0  0  0  0
    4.6747    1.2039    0.0000 H   0  0  0  0  0  0  0  0  0  0  0  0
    3.1387    5.7642    0.0000 H   0  0  0  0  0  0  0  0  0  0  0  0
    1.7702    4.6191    0.0000 H   0  0  0  0  0  0  0  0  0  0  0  0
    4.7955    6.1317    0.0000 H   0  0  0  0  0  0  0  0  0  0  0  0
    6.1747    4.8089    0.0000 H   0  0  0  0  0  0  0  0  0  0  0  0
    4.7768    3.1177    0.0000 H   0  0  0  0  0  0  0  0  0  0  0  0
    4.2285    3.2550    0.0000 H   0  0  0  0  0  0  0  0  0  0  0  0
    4.7272   -0.2776    0.0000 H   0  0  0  0  0  0  0  0  0  0  0  0
    5.5514   -1.6811    0.0000 H   0  0  0  0  0  0  0  0  0  0  0  0
    5.7050   -2.3341    0.0000 H   0  0  0  0  0  0  0  0  0  0  0  0
    6.5926   -3.0511    0.0000 H   0  0  0  0  0  0  0  0  0  0  0  0
    6.9868   -3.5358    0.0000 H   0  0  0  0  0  0  0  0  0  0  0  0
    8.1698   -4.0947    0.0000 H   0  0  0  0  0  0  0  0  0  0  0  0
    9.1362   -4.6461    0.0000 H   0  0  0  0  0  0  0  0  0  0  0  0
    4.7148   -1.3490    0.0000 H   0  0  0  0  0  0  0  0  0  0  0  0
    3.1925   -0.1654    0.0000 H   0  0  0  0  0  0  0  0  0  0  0  0
    3.5727    1.1714    0.0000 H   0  0  0  0  0  0  0  0  0  0  0  0
    5.2859    5.0258    0.0000 H   0  0  0  0  0  0  0  0  0  0  0  0
    5.8287    5.5459    0.0000 H   0  0  0  0  0  0  0  0  0  0  0  0
    6.0387    7.8596    0.0000 H   0  0  0  0  0  0  0  0  0  0  0  0
    5.4972    6.4853    0.0000 H   0  0  0  0  0  0  0  0  0  0  0  0
    9.1764    6.6553    0.0000 H   0  0  0  0  0  0  0  0  0  0  0  0
    8.7699   10.2966    0.0000 H   0  0  0  0  0  0  0  0  0  0  0  0
    6.9910   10.4368    0.0000 H   0  0  0  0  0  0  0  0  0  0  0  0
    6.3368    8.7766    0.0000 H   0  0  0  0  0  0  0  0  0  0  0  0
    9.8767    9.7080    0.0000 H   0  0  0  0  0  0  0  0  0  0  0  0
   10.9894    8.5045    0.0000 H   0  0  0  0  0  0  0  0  0  0  0  0
   10.1457    6.9109    0.0000 H   0  0  0  0  0  0  0  0  0  0  0  0
    9.8274    8.1030    0.0000 H   0  0  0  0  0  0  0  0  0  0  0  0
   10.9245    8.0739    0.0000 H   0  0  0  0  0  0  0  0  0  0  0  0
   13.6641    8.5793    0.0000 H   0  0  0  0  0  0  0  0  0  0  0  0
   13.5947    6.9470    0.0000 H   0  0  0  0  0  0  0  0  0  0  0  0
   12.7984   10.3795    0.0000 H   0  0  0  0  0  0  0  0  0  0  0  0
   15.1170    6.5991    0.0000 H   0  0  0  0  0  0  0  0  0  0  0  0
   15.5783    5.7506    0.0000 H   0  0  0  0  0  0  0  0  0  0  0  0
   17.9370    3.6015    0.0000 H   0  0  0  0  0  0  0  0  0  0  0  0
   16.6931    2.8048    0.0000 H   0  0  0  0  0  0  0  0  0  0  0  0
   17.6631    7.0633    0.0000 H   0  0  0  0  0  0  0  0  0  0  0  0
   16.0543    6.2913    0.0000 H   0  0  0  0  0  0  0  0  0  0  0  0
   20.2819    5.0334    0.0000 H   0  0  0  0  0  0  0  0  0  0  0  0
   18.7792    4.0710    0.0000 H   0  0  0  0  0  0  0  0  0  0  0  0
   18.9194    8.1654    0.0000 H   0  0  0  0  0  0  0  0  0  0  0  0
   23.4188    8.0976    0.0000 H   0  0  0  0  0  0  0  0  0  0  0  0
   21.1887    9.4304    0.0000 H   0  0  0  0  0  0  0  0  0  0  0  0
   23.3797    5.4998    0.0000 H   0  0  0  0  0  0  0  0  0  0  0  0
   21.1104    4.2348    0.0000 H   0  0  0  0  0  0  0  0  0  0  0  0
   17.3702    1.3978    0.0000 H   0  0  0  0  0  0  0  0  0  0  0  0
   15.4113   -2.7441    0.0000 H   0  0  0  0  0  0  0  0  0  0  0  0
   16.3132   -1.7963    0.0000 H   0  0  0  0  0  0  0  0  0  0  0  0
   14.0923   -3.8728    0.0000 H   0  0  0  0  0  0  0  0  0  0  0  0
   15.0517   -3.2551    0.0000 H   0  0  0  0  0  0  0  0  0  0  0  0
   12.1372   -4.5522    0.0000 H   0  0  0  0  0  0  0  0  0  0  0  0
   13.5535   -4.1558    0.0000 H   0  0  0  0  0  0  0  0  0  0  0  0
   11.0706   -4.8691    0.0000 H   0  0  0  0  0  0  0  0  0  0  0  0
   18.3118   -0.4747    0.0000 H   0  0  0  0  0  0  0  0  0  0  0  0
   18.1896    1.3055    0.0000 H   0  0  0  0  0  0  0  0  0  0  0  0
   16.8022    1.8126    0.0000 H   0  0  0  0  0  0  0  0  0  0  0  0
   18.7265    0.3074    0.0000 H   0  0  0  0  0  0  0  0  0  0  0  0
   17.5821   -2.8850    0.0000 H   0  0  0  0  0  0  0  0  0  0  0  0
   20.1323   -4.9062    0.0000 H   0  0  0  0  0  0  0  0  0  0  0  0
   20.8236   -3.2611    0.0000 H   0  0  0  0  0  0  0  0  0  0  0  0
   20.0285   -6.8119    0.0000 H   0  0  0  0  0  0  0  0  0  0  0  0
   17.1941   -8.4292    0.0000 H   0  0  0  0  0  0  0  0  0  0  0  0
   14.7801   -6.2332    0.0000 H   0  0  0  0  0  0  0  0  0  0  0  0
   20.9184   -4.6200    0.0000 H   0  0  0  0  0  0  0  0  0  0  0  0
   22.3442   -1.5429    0.0000 H   0  0  0  0  0  0  0  0  0  0  0  0
   25.1378   -1.1648    0.0000 H   0  0  0  0  0  0  0  0  0  0  0  0
   23.2109   -1.0877    0.0000 H   0  0  0  0  0  0  0  0  0  0  0  0
   27.1603   -1.0674    0.0000 H   0  0  0  0  0  0  0  0  0  0  0  0
   29.2452   -3.5779    0.0000 H   0  0  0  0  0  0  0  0  0  0  0  0
   27.6676   -6.2585    0.0000 H   0  0  0  0  0  0  0  0  0  0  0  0
   26.0922   -2.7484    0.0000 H   0  0  0  0  0  0  0  0  0  0  0  0
   24.7938   -5.8415    0.0000 H   0  0  0  0  0  0  0  0  0  0  0  0
   27.3440   -7.8627    0.0000 H   0  0  0  0  0  0  0  0  0  0  0  0
   28.0678   -6.3979    0.0000 H   0  0  0  0  0  0  0  0  0  0  0  0
   26.0249   -9.1115    0.0000 H   0  0  0  0  0  0  0  0  0  0  0  0
   28.1301   -7.5765    0.0000 H   0  0  0  0  0  0  0  0  0  0  0  0
   29.5559   -4.4995    0.0000 H   0  0  0  0  0  0  0  0  0  0  0  0
   30.4227   -4.0443    0.0000 H   0  0  0  0  0  0  0  0  0  0  0  0
   33.8431   -4.2597    0.0000 H   0  0  0  0  0  0  0  0  0  0  0  0
   34.0112   -5.5019    0.0000 H   0  0  0  0  0  0  0  0  0  0  0  0
   33.5256   -7.2190    0.0000 H   0  0  0  0  0  0  0  0  0  0  0  0
   32.0636   -7.4300    0.0000 H   0  0  0  0  0  0  0  0  0  0  0  0
  1  2  1  0
  2  3  1  0
  3  4  2  0
  4  5  1  0
  5  6  2  0
  6  7  1  0
  7  8  2  0
  7  9  1  0
  9 10  1  0
 10 11  1  0
 11 12  2  0
  9 13  1  0
 13 14  1  0
 14 15  2  0
 15 16  1  0
 16 17  2  0
 17 18  1  0
 16 19  1  0
 14 20  1  0
 20 21  1  0
 21 22  2  0
 22 23  1  0
 23 24  2  0
 24 25  1  0
 25 26  2  0
 25 27  1  0
  1 28  2  0
  1 29  1  0
 29 30  1  0
 30 31  1  0
 31 32  1  0
 32 33  2  0
 32 34  1  0
 34 35  1  0
 35 36  1  0
 36 37  1  0
 37 38  1  0
 38 39  2  0
 38 40  1  0
 35 41  1  0
 41 42  2  0
 41 43  1  0
 43 44  1  0
 44 45  1  0
 45 46  1  0
 46 47  1  0
 47 48  1  0
 48 49  1  0
 49 50  2  3
 49 51  1  0
 44 52  1  0
 52 53  2  0
 52 54  1  0
 54 55  1  0
 55 56  1  0
 56 57  1  0
 57 58  1  0
 57 59  2  0
 55 60  1  0
 60 61  2  0
 60 62  1  0
 62 63  1  0
 63 64  1  0
 64 65  1  0
 65 66  1  0
 66 67  1  0
 67 68  1  0
 68 69  2  3
 68 70  1  0
 63 71  1  0
 71 72  2  0
 71 73  1  0
 73 74  1  0
 74 75  1  0
 75 76  1  0
 76 77  1  0
 77 78  1  0
 78 79  1  0
 79 80  2  3
 79 81  1  0
 74 82  1  0
 82 83  2  0
 82 84  1  0
 84 85  1  0
 85 86  1  0
 86 87  1  0
 87 88  1  0
 88 89  1  0
 89 90  1  0
 90 91  2  3
 90 92  1  0
 85 93  1  0
 93 94  2  0
 93 95  1  0
 95 96  1  0
 96 97  1  0
 97 98  1  0
 97 99  1  0
 99100  1  0
 96101  1  0
101102  2  0
101103  1  0
104103  1  6
104105  1  0
105106  1  0
106107  1  0
107108  1  0
104109  1  0
104110  1  0
110111  2  0
110112  1  0
112113  1  0
113114  1  0
114115  1  0
115116  1  0
115117  1  0
113118  1  0
118119  2  0
118120  1  0
120121  1  0
121122  1  0
122123  1  0
121124  1  0
124125  2  0
124126  1  0
126127  1  0
127128  1  0
128129  1  0
129130  1  0
130131  1  0
131132  1  0
132133  2  3
132134  1  0
127135  1  0
135136  2  0
135137  1  0
137138  1  0
138139  1  0
139140  1  0
140141  1  0
141142  1  0
138143  1  0
138144  1  6
144145  2  0
144146  1  0
146147  1  0
147148  1  0
148149  1  0
149150  2  0
150151  1  0
151152  1  0
152153  2  0
147154  1  0
154155  2  0
154156  1  0
156157  1  0
157158  1  0
158159  1  0
159160  2  0
160161  1  0
161162  1  0
162163  2  0
157164  1  0
164165  2  0
164166  1  0
166167  1  0
167168  1  0
168169  1  0
167170  1  0
170171  2  0
170172  1  0
172173  1  0
173174  1  0
174175  1  0
174176  1  0
173177  1  0
177178  2  0
177179  1  0
  8  3  1  0
153149  1  0
163159  1  0
 11  6  1  0
108142  2  0
 18 13  2  0
 22  9  1  0
 26 21  1  0
  2180  1  0
  4181  1  0
  5182  1  0
  8183  1  0
 15184  1  0
 17185  1  0
 18186  1  0
 19187  1  0
 23188  1  0
 24189  1  0
 26190  1  0
 27191  1  0
 29192  1  0
 30193  1  0
 30194  1  0
 31195  1  0
 31196  1  0
 34197  1  0
 35198  1  1
 36199  1  0
 36200  1  0
 37201  1  0
 37202  1  0
 43203  1  0
 44204  1  6
 45205  1  0
 45206  1  0
 46207  1  0
 46208  1  0
 47209  1  0
 47210  1  0
 48211  1  0
 50212  1  0
 50213  1  0
 51214  1  0
 51215  1  0
 54216  1  0
 55217  1  6
 56218  1  0
 56219  1  0
 58220  1  0
 58221  1  0
 62222  1  0
 63223  1  6
 64224  1  0
 64225  1  0
 65226  1  0
 65227  1  0
 66228  1  0
 66229  1  0
 67230  1  0
 69231  1  0
 69232  1  0
 70233  1  0
 70234  1  0
 73235  1  0
 74236  1  1
 75237  1  0
 75238  1  0
 76239  1  0
 76240  1  0
 77241  1  0
 77242  1  0
 78243  1  0
 80244  1  0
 80245  1  0
 81246  1  0
 81247  1  0
 84248  1  0
 85249  1  6
 86250  1  0
 86251  1  0
 87252  1  0
 87253  1  0
 88254  1  0
 88255  1  0
 89256  1  0
 91257  1  0
 91258  1  0
 92259  1  0
 92260  1  0
 95261  1  0
 96262  1  1
 97263  1  1
 98264  1  0
 98265  1  0
 98266  1  0
 99267  1  0
 99268  1  0
100269  1  0
100270  1  0
100271  1  0
103272  1  0
105273  1  0
105274  1  0
106275  1  0
106276  1  0
107277  1  0
107278  1  0
108279  1  0
109280  1  0
109281  1  0
109282  1  0
112283  1  0
113284  1  1
114285  1  0
114286  1  0
115287  1  0
116288  1  0
116289  1  0
116290  1  0
117291  1  0
117292  1  0
117293  1  0
120294  1  0
121295  1  1
122296  1  0
122297  1  0
123298  1  0
126299  1  0
127300  1  1
128301  1  0
128302  1  0
129303  1  0
129304  1  0
130305  1  0
130306  1  0
131307  1  0
133308  1  0
133309  1  0
134310  1  0
134311  1  0
137312  1  0
139313  1  0
139314  1  0
140315  1  0
140316  1  0
141317  1  0
141318  1  0
142319  1  0
143320  1  0
143321  1  0
143322  1  0
146323  1  0
147324  1  6
148325  1  0
148326  1  0
150327  1  0
151328  1  0
152329  1  0
156330  1  0
157331  1  1
158332  1  0
158333  1  0
160334  1  0
161335  1  0
162336  1  0
166337  1  0
167338  1  6
168339  1  0
168340  1  0
169341  1  0
172342  1  0
173343  1  1
174344  1  1
175345  1  0
176346  1  0
176347  1  0
176348  1  0
M  CHG  7  40  -1  50   1  69   1  80   1  91   1 133   1 179  -1
M  END
