
     RDKit          2D

235237  0  0  0  0  0  0  0  0999 V2000
  -17.9153   -1.6033    0.0000 N   0  0  0  0  0  0  0  0  0  0  0  0
  -16.4254   -1.4291    0.0000 C   0  0  0  0  0  0  0  0  0  0  0  0
  -15.5297   -2.6323    0.0000 C   0  0  0  0  0  0  0  0  0  0  0  0
  -14.0398   -2.4582    0.0000 C   0  0  0  0  0  0  0  0  0  0  0  0
  -13.4457   -1.0809    0.0000 O   0  0  0  0  0  0  0  0  0  0  0  0
  -13.1441   -3.6614    0.0000 N   0  0  0  0  0  0  0  0  0  0  0  0
  -11.6542   -3.4872    0.0000 C   0  0  0  0  0  0  0  0  0  0  0  0
  -11.7414   -4.9847    0.0000 C   0  0  0  0  0  0  0  0  0  0  0  0
  -10.4882   -5.8090    0.0000 C   0  0  0  0  0  0  0  0  0  0  0  0
  -10.5754   -7.3064    0.0000 C   0  0  0  0  0  0  0  0  0  0  0  0
   -9.3222   -8.1307    0.0000 N   0  0  0  0  0  0  0  0  0  0  0  0
   -9.4094   -9.6281    0.0000 C   0  0  0  0  0  0  0  0  0  0  0  0
   -8.1562  -10.4524    0.0000 N   0  0  0  0  0  0  0  0  0  0  0  0
  -10.7499  -10.3013    0.0000 N   0  0  0  0  0  0  0  0  0  0  0  0
  -10.3138   -2.8140    0.0000 C   0  0  0  0  0  0  0  0  0  0  0  0
   -9.3876   -3.6004    0.0000 O   0  0  0  0  0  0  0  0  0  0  0  0
  -10.2265   -1.3166    0.0000 N   0  0  0  0  0  0  0  0  0  0  0  0
   -8.8861   -0.6434    0.0000 C   0  0  0  0  0  0  0  0  0  0  0  0
   -8.4559   -2.0804    0.0000 C   0  0  0  0  0  0  0  0  0  0  0  0
   -6.9963   -2.4263    0.0000 C   0  0  0  0  0  0  0  0  0  0  0  0
   -6.5661   -3.8633    0.0000 C   0  0  0  0  0  0  0  0  0  0  0  0
   -5.1066   -4.2092    0.0000 N   0  0  0  0  0  0  0  0  0  0  0  0
   -4.6764   -5.6462    0.0000 C   0  0  0  0  0  0  0  0  0  0  0  0
   -3.2168   -5.9921    0.0000 N   0  0  0  0  0  0  0  0  0  0  0  0
   -5.7057   -6.7372    0.0000 N   0  0  0  0  0  0  0  0  0  0  0  0
   -7.8567    0.4477    0.0000 C   0  0  0  0  0  0  0  0  0  0  0  0
   -6.3972    0.1018    0.0000 O   0  0  0  0  0  0  0  0  0  0  0  0
   -8.2869    1.8847    0.0000 N   0  0  0  0  0  0  0  0  0  0  0  0
   -7.2576    2.9757    0.0000 C   0  0  0  0  0  0  0  0  0  0  0  0
   -8.5108    3.8000    0.0000 C   0  0  0  0  0  0  0  0  0  0  0  0
   -9.8512    3.1268    0.0000 C   0  0  0  0  0  0  0  0  0  0  0  0
  -11.1045    3.9511    0.0000 C   0  0  0  0  0  0  0  0  0  0  0  0
  -10.8806    2.0357    0.0000 C   0  0  0  0  0  0  0  0  0  0  0  0
   -5.9171    3.6489    0.0000 C   0  0  0  0  0  0  0  0  0  0  0  0
   -4.6639    2.8246    0.0000 O   0  0  0  0  0  0  0  0  0  0  0  0
   -5.8299    5.1464    0.0000 N   0  0  0  0  0  0  0  0  0  0  0  0
   -4.4894    5.8196    0.0000 C   0  0  0  0  0  0  0  0  0  0  0  0
   -5.3852    7.0228    0.0000 C   0  0  0  0  0  0  0  0  0  0  0  0
   -6.8750    6.8486    0.0000 C   0  0  0  0  0  0  0  0  0  0  0  0
   -7.7708    8.0518    0.0000 C   0  0  0  0  0  0  0  0  0  0  0  0
   -9.2606    7.8777    0.0000 C   0  0  0  0  0  0  0  0  0  0  0  0
   -9.8547    6.5004    0.0000 C   0  0  0  0  0  0  0  0  0  0  0  0
   -8.9590    5.2972    0.0000 C   0  0  0  0  0  0  0  0  0  0  0  0
   -7.4691    5.4713    0.0000 C   0  0  0  0  0  0  0  0  0  0  0  0
   -2.9996    5.9937    0.0000 C   0  0  0  0  0  0  0  0  0  0  0  0
   -2.5778    7.4332    0.0000 O   0  0  0  0  0  0  0  0  0  0  0  0
   -2.1038    4.7905    0.0000 N   0  0  0  0  0  0  0  0  0  0  0  0
   -0.6140    4.9647    0.0000 C   0  0  0  0  0  0  0  0  0  0  0  0
   -1.0442    6.4016    0.0000 C   0  0  0  0  0  0  0  0  0  0  0  0
   -0.0148    7.4927    0.0000 C   0  0  0  0  0  0  0  0  0  0  0  0
   -0.4450    8.9297    0.0000 C   0  0  0  0  0  0  0  0  0  0  0  0
    0.5844   10.0207    0.0000 N   0  0  0  0  0  0  0  0  0  0  0  0
    0.1542   11.4577    0.0000 C   0  0  0  0  0  0  0  0  0  0  0  0
    1.1835   12.5488    0.0000 N   0  0  0  0  0  0  0  0  0  0  0  0
   -1.3054   11.8037    0.0000 N   0  0  0  0  0  0  0  0  0  0  0  0
    0.8456    4.6187    0.0000 C   0  0  0  0  0  0  0  0  0  0  0  0
    1.7343    5.8271    0.0000 O   0  0  0  0  0  0  0  0  0  0  0  0
    1.2758    3.1817    0.0000 N   0  0  0  0  0  0  0  0  0  0  0  0
    2.7354    2.8358    0.0000 C   0  0  0  0  0  0  0  0  0  0  0  0
    1.8197    1.6477    0.0000 C   0  0  0  0  0  0  0  0  0  0  0  0
    1.2950    0.2425    0.0000 C   0  0  0  0  0  0  0  0  0  0  0  0
    1.2078   -1.2550    0.0000 C   0  0  0  0  0  0  0  0  0  0  0  0
    1.5658   -2.7116    0.0000 C   0  0  0  0  0  0  0  0  0  0  0  0
    2.4504    4.3085    0.0000 C   0  0  0  0  0  0  0  0  0  0  0  0
    3.9605    3.7013    0.0000 C   0  0  0  0  0  0  0  0  0  0  0  0
    3.2873    5.0417    0.0000 O   0  0  0  0  0  0  0  0  0  0  0  0
    5.3863    4.1672    0.0000 N   0  0  0  0  0  0  0  0  0  0  0  0
    6.8861    4.1921    0.0000 C   0  0  0  0  0  0  0  0  0  0  0  0
    7.8598    5.3331    0.0000 C   0  0  0  0  0  0  0  0  0  0  0  0
    7.3585    6.7469    0.0000 C   0  0  0  0  0  0  0  0  0  0  0  0
    8.3322    7.8879    0.0000 C   0  0  0  0  0  0  0  0  0  0  0  0
    7.8309    9.3016    0.0000 C   0  0  0  0  0  0  0  0  0  0  0  0
    8.3266    3.7738    0.0000 C   0  0  0  0  0  0  0  0  0  0  0  0
    8.9549    5.1359    0.0000 O   0  0  0  0  0  0  0  0  0  0  0  0
    9.5798    2.9496    0.0000 N   0  0  0  0  0  0  0  0  0  0  0  0
   10.5344    1.7925    0.0000 C   0  0  0  0  0  0  0  0  0  0  0  0
   12.0336    1.7427    0.0000 C   0  0  0  0  0  0  0  0  0  0  0  0
   12.8264    3.0161    0.0000 C   0  0  0  0  0  0  0  0  0  0  0  0
   12.1200    4.3393    0.0000 C   0  0  0  0  0  0  0  0  0  0  0  0
   12.9127    5.6127    0.0000 C   0  0  0  0  0  0  0  0  0  0  0  0
   14.4119    5.5628    0.0000 C   0  0  0  0  0  0  0  0  0  0  0  0
   15.1183    4.2396    0.0000 C   0  0  0  0  0  0  0  0  0  0  0  0
   14.3255    2.9662    0.0000 C   0  0  0  0  0  0  0  0  0  0  0  0
   11.1056    0.4055    0.0000 C   0  0  0  0  0  0  0  0  0  0  0  0
   12.5622    0.7636    0.0000 O   0  0  0  0  0  0  0  0  0  0  0  0
   11.2425   -1.0882    0.0000 N   0  0  0  0  0  0  0  0  0  0  0  0
   10.9331   -2.5560    0.0000 C   0  0  0  0  0  0  0  0  0  0  0  0
   11.8288   -3.7591    0.0000 C   0  0  0  0  0  0  0  0  0  0  0  0
   13.3187   -3.5850    0.0000 C   0  0  0  0  0  0  0  0  0  0  0  0
   14.2144   -4.7882    0.0000 C   0  0  0  0  0  0  0  0  0  0  0  0
   14.6591   -2.9118    0.0000 C   0  0  0  0  0  0  0  0  0  0  0  0
   10.2048   -3.8673    0.0000 C   0  0  0  0  0  0  0  0  0  0  0  0
   11.3929   -4.7829    0.0000 O   0  0  0  0  0  0  0  0  0  0  0  0
    9.1223   -4.9057    0.0000 N   0  0  0  0  0  0  0  0  0  0  0  0
    7.7818   -5.5789    0.0000 C   0  0  0  0  0  0  0  0  0  0  0  0
    6.3025   -5.8270    0.0000 C   0  0  0  0  0  0  0  0  0  0  0  0
    4.8158   -5.6282    0.0000 C   0  0  0  0  0  0  0  0  0  0  0  0
    3.4537   -4.9999    0.0000 C   0  0  0  0  0  0  0  0  0  0  0  0
    2.3373   -3.9980    0.0000 C   0  0  0  0  0  0  0  0  0  0  0  0
    8.9468   -6.5238    0.0000 C   0  0  0  0  0  0  0  0  0  0  0  0
    7.3996   -7.0294    0.0000 C   0  0  0  0  0  0  0  0  0  0  0  0
    6.0908   -7.7621    0.0000 O   0  0  0  0  0  0  0  0  0  0  0  0
    8.4647   -8.0856    0.0000 N   0  0  0  0  0  0  0  0  0  0  0  0
    8.0825   -9.5361    0.0000 C   0  0  0  0  0  0  0  0  0  0  0  0
    7.2272  -10.7684    0.0000 C   0  0  0  0  0  0  0  0  0  0  0  0
    6.0021  -11.6338    0.0000 O   0  0  0  0  0  0  0  0  0  0  0  0
    7.8668  -12.1252    0.0000 C   0  0  0  0  0  0  0  0  0  0  0  0
    9.1475  -10.5923    0.0000 C   0  0  0  0  0  0  0  0  0  0  0  0
    8.9450  -12.0786    0.0000 O   0  0  0  0  0  0  0  0  0  0  0  0
   10.5948  -10.1981    0.0000 O   0  0  0  0  0  0  0  0  0  0  0  0
  -18.8110   -0.4001    0.0000 H   0  0  0  0  0  0  0  0  0  0  0  0
  -18.5094   -2.9806    0.0000 H   0  0  0  0  0  0  0  0  0  0  0  0
  -16.8556    0.0079    0.0000 H   0  0  0  0  0  0  0  0  0  0  0  0
  -15.0849   -0.7559    0.0000 H   0  0  0  0  0  0  0  0  0  0  0  0
  -16.8701   -3.3055    0.0000 H   0  0  0  0  0  0  0  0  0  0  0  0
  -15.0995   -4.0693    0.0000 H   0  0  0  0  0  0  0  0  0  0  0  0
  -13.6411   -4.5108    0.0000 H   0  0  0  0  0  0  0  0  0  0  0  0
  -12.0844   -2.0502    0.0000 H   0  0  0  0  0  0  0  0  0  0  0  0
  -12.4990   -6.2793    0.0000 H   0  0  0  0  0  0  0  0  0  0  0  0
  -12.7196   -4.8761    0.0000 H   0  0  0  0  0  0  0  0  0  0  0  0
   -9.0286   -6.1549    0.0000 H   0  0  0  0  0  0  0  0  0  0  0  0
   -9.8941   -4.4316    0.0000 H   0  0  0  0  0  0  0  0  0  0  0  0
  -11.1696   -8.6837    0.0000 H   0  0  0  0  0  0  0  0  0  0  0  0
  -12.0663   -7.1410    0.0000 H   0  0  0  0  0  0  0  0  0  0  0  0
   -7.9817   -7.4575    0.0000 H   0  0  0  0  0  0  0  0  0  0  0  0
   -8.2434  -11.9499    0.0000 H   0  0  0  0  0  0  0  0  0  0  0  0
   -6.8157   -9.7792    0.0000 H   0  0  0  0  0  0  0  0  0  0  0  0
  -10.8371  -11.7988    0.0000 H   0  0  0  0  0  0  0  0  0  0  0  0
  -12.0031   -9.4771    0.0000 H   0  0  0  0  0  0  0  0  0  0  0  0
  -11.4798   -0.4923    0.0000 H   0  0  0  0  0  0  0  0  0  0  0  0
   -9.6285    0.6600    0.0000 H   0  0  0  0  0  0  0  0  0  0  0  0
   -8.5265   -3.2933    0.0000 H   0  0  0  0  0  0  0  0  0  0  0  0
   -9.4790   -2.4663    0.0000 H   0  0  0  0  0  0  0  0  0  0  0  0
   -5.5065   -2.2522    0.0000 H   0  0  0  0  0  0  0  0  0  0  0  0
   -6.9091   -0.9288    0.0000 H   0  0  0  0  0  0  0  0  0  0  0  0
   -6.6533   -5.3607    0.0000 H   0  0  0  0  0  0  0  0  0  0  0  0
   -8.0236   -4.2177    0.0000 H   0  0  0  0  0  0  0  0  0  0  0  0
   -4.0772   -3.1181    0.0000 H   0  0  0  0  0  0  0  0  0  0  0  0
   -2.7866   -7.4291    0.0000 H   0  0  0  0  0  0  0  0  0  0  0  0
   -2.1874   -4.9011    0.0000 H   0  0  0  0  0  0  0  0  0  0  0  0
   -5.2755   -8.1742    0.0000 H   0  0  0  0  0  0  0  0  0  0  0  0
   -7.1653   -6.3913    0.0000 H   0  0  0  0  0  0  0  0  0  0  0  0
   -9.4945    2.0187    0.0000 H   0  0  0  0  0  0  0  0  0  0  0  0
   -6.3618    1.7725    0.0000 H   0  0  0  0  0  0  0  0  0  0  0  0
   -9.1903    4.5119    0.0000 H   0  0  0  0  0  0  0  0  0  0  0  0
   -7.2480    4.6095    0.0000 H   0  0  0  0  0  0  0  0  0  0  0  0
   -9.5232    1.9569    0.0000 H   0  0  0  0  0  0  0  0  0  0  0  0
  -12.5170    3.4463    0.0000 H   0  0  0  0  0  0  0  0  0  0  0  0
  -12.0002    5.1543    0.0000 H   0  0  0  0  0  0  0  0  0  0  0  0
  -10.2158    5.1595    0.0000 H   0  0  0  0  0  0  0  0  0  0  0  0
  -12.3715    2.2012    0.0000 H   0  0  0  0  0  0  0  0  0  0  0  0
  -11.4747    0.6584    0.0000 H   0  0  0  0  0  0  0  0  0  0  0  0
   -9.5362    1.3704    0.0000 H   0  0  0  0  0  0  0  0  0  0  0  0
   -7.2453    5.6429    0.0000 H   0  0  0  0  0  0  0  0  0  0  0  0
   -4.0592    4.3826    0.0000 H   0  0  0  0  0  0  0  0  0  0  0  0
   -5.8154    8.4597    0.0000 H   0  0  0  0  0  0  0  0  0  0  0  0
   -4.0447    7.6960    0.0000 H   0  0  0  0  0  0  0  0  0  0  0  0
   -7.1766    9.4291    0.0000 H   0  0  0  0  0  0  0  0  0  0  0  0
  -10.1563    9.0809    0.0000 H   0  0  0  0  0  0  0  0  0  0  0  0
  -11.3446    6.3262    0.0000 H   0  0  0  0  0  0  0  0  0  0  0  0
   -9.5531    3.9198    0.0000 H   0  0  0  0  0  0  0  0  0  0  0  0
   -6.5734    4.2681    0.0000 H   0  0  0  0  0  0  0  0  0  0  0  0
   -2.6980    3.4132    0.0000 H   0  0  0  0  0  0  0  0  0  0  0  0
   -0.7012    3.4672    0.0000 H   0  0  0  0  0  0  0  0  0  0  0  0
   -1.9399    7.6048    0.0000 H   0  0  0  0  0  0  0  0  0  0  0  0
   -2.5077    6.0728    0.0000 H   0  0  0  0  0  0  0  0  0  0  0  0
    1.3256    8.1659    0.0000 H   0  0  0  0  0  0  0  0  0  0  0  0
    0.8809    6.2895    0.0000 H   0  0  0  0  0  0  0  0  0  0  0  0
   -1.3407   10.1329    0.0000 H   0  0  0  0  0  0  0  0  0  0  0  0
   -1.8575    8.4249    0.0000 H   0  0  0  0  0  0  0  0  0  0  0  0
    2.0439    9.6748    0.0000 H   0  0  0  0  0  0  0  0  0  0  0  0
    0.7533   13.9858    0.0000 H   0  0  0  0  0  0  0  0  0  0  0  0
    2.6431   12.2029    0.0000 H   0  0  0  0  0  0  0  0  0  0  0  0
   -1.7356   13.2406    0.0000 H   0  0  0  0  0  0  0  0  0  0  0  0
   -2.3348   10.7126    0.0000 H   0  0  0  0  0  0  0  0  0  0  0  0
    0.0130    2.3722    0.0000 H   0  0  0  0  0  0  0  0  0  0  0  0
    0.8141    2.7607    0.0000 H   0  0  0  0  0  0  0  0  0  0  0  0
    0.3230    1.5480    0.0000 H   0  0  0  0  0  0  0  0  0  0  0  0
    0.0060    1.0096    0.0000 H   0  0  0  0  0  0  0  0  0  0  0  0
   -0.1608   -0.1192    0.0000 H   0  0  0  0  0  0  0  0  0  0  0  0
   -0.1961   -0.7268    0.0000 H   0  0  0  0  0  0  0  0  0  0  0  0
    0.0273   -2.1805    0.0000 H   0  0  0  0  0  0  0  0  0  0  0  0
    0.1788   -3.2828    0.0000 H   0  0  0  0  0  0  0  0  0  0  0  0
    1.1931    5.1266    0.0000 H   0  0  0  0  0  0  0  0  0  0  0  0
    2.8651    5.7500    0.0000 H   0  0  0  0  0  0  0  0  0  0  0  0
    3.8996    4.6956    0.0000 H   0  0  0  0  0  0  0  0  0  0  0  0
    5.1381    5.6465    0.0000 H   0  0  0  0  0  0  0  0  0  0  0  0
    6.0859    5.4608    0.0000 H   0  0  0  0  0  0  0  0  0  0  0  0
    9.2454    5.9077    0.0000 H   0  0  0  0  0  0  0  0  0  0  0  0
    9.0660    4.4414    0.0000 H   0  0  0  0  0  0  0  0  0  0  0  0
    6.2700    7.7789    0.0000 H   0  0  0  0  0  0  0  0  0  0  0  0
    5.9729    6.1723    0.0000 H   0  0  0  0  0  0  0  0  0  0  0  0
    9.6374    8.6270    0.0000 H   0  0  0  0  0  0  0  0  0  0  0  0
    9.4207    6.8558    0.0000 H   0  0  0  0  0  0  0  0  0  0  0  0
    8.8046   10.4426    0.0000 H   0  0  0  0  0  0  0  0  0  0  0  0
    6.8763   10.4587    0.0000 H   0  0  0  0  0  0  0  0  0  0  0  0
    6.4453    8.7271    0.0000 H   0  0  0  0  0  0  0  0  0  0  0  0
   10.4381    4.1797    0.0000 H   0  0  0  0  0  0  0  0  0  0  0  0
   11.1965    3.1385    0.0000 H   0  0  0  0  0  0  0  0  0  0  0  0
   13.4253    1.1831    0.0000 H   0  0  0  0  0  0  0  0  0  0  0  0
   12.0885    0.2437    0.0000 H   0  0  0  0  0  0  0  0  0  0  0  0
   10.6381    4.5715    0.0000 H   0  0  0  0  0  0  0  0  0  0  0  0
   12.2063    6.9359    0.0000 H   0  0  0  0  0  0  0  0  0  0  0  0
   15.2047    6.8362    0.0000 H   0  0  0  0  0  0  0  0  0  0  0  0
   16.6175    4.1897    0.0000 H   0  0  0  0  0  0  0  0  0  0  0  0
   15.0319    1.6429    0.0000 H   0  0  0  0  0  0  0  0  0  0  0  0
   12.7400   -1.1754    0.0000 H   0  0  0  0  0  0  0  0  0  0  0  0
   12.3481   -2.0582    0.0000 H   0  0  0  0  0  0  0  0  0  0  0  0
   12.0806   -5.2379    0.0000 H   0  0  0  0  0  0  0  0  0  0  0  0
   10.6911   -4.7367    0.0000 H   0  0  0  0  0  0  0  0  0  0  0  0
   13.0668   -2.1063    0.0000 H   0  0  0  0  0  0  0  0  0  0  0  0
   15.7144   -4.7970    0.0000 H   0  0  0  0  0  0  0  0  0  0  0  0
   14.6446   -6.2252    0.0000 H   0  0  0  0  0  0  0  0  0  0  0  0
   12.9660   -5.6198    0.0000 H   0  0  0  0  0  0  0  0  0  0  0  0
   16.0035   -3.5772    0.0000 H   0  0  0  0  0  0  0  0  0  0  0  0
   15.6885   -1.8208    0.0000 H   0  0  0  0  0  0  0  0  0  0  0  0
   13.7634   -1.7086    0.0000 H   0  0  0  0  0  0  0  0  0  0  0  0
    9.9878   -6.1308    0.0000 H   0  0  0  0  0  0  0  0  0  0  0  0
    5.5098   -7.1004    0.0000 H   0  0  0  0  0  0  0  0  0  0  0  0
    6.8108   -7.2383    0.0000 H   0  0  0  0  0  0  0  0  0  0  0  0
    3.8112   -6.7421    0.0000 H   0  0  0  0  0  0  0  0  0  0  0  0
    4.8855   -7.1265    0.0000 H   0  0  0  0  0  0  0  0  0  0  0  0
    2.0813   -5.6054    0.0000 H   0  0  0  0  0  0  0  0  0  0  0  0
    3.2585   -6.4871    0.0000 H   0  0  0  0  0  0  0  0  0  0  0  0
    1.1803   -4.9526    0.0000 H   0  0  0  0  0  0  0  0  0  0  0  0
    9.0763   -8.0182    0.0000 H   0  0  0  0  0  0  0  0  0  0  0  0
   10.4137   -6.8369    0.0000 H   0  0  0  0  0  0  0  0  0  0  0  0
    9.9707   -5.4277    0.0000 H   0  0  0  0  0  0  0  0  0  0  0  0
    9.9492   -7.8707    0.0000 H   0  0  0  0  0  0  0  0  0  0  0  0
    6.7204   -8.9078    0.0000 H   0  0  0  0  0  0  0  0  0  0  0  0
    6.1622   -9.7121    0.0000 H   0  0  0  0  0  0  0  0  0  0  0  0
    4.6400  -11.0056    0.0000 H   0  0  0  0  0  0  0  0  0  0  0  0
    7.0115  -13.3575    0.0000 H   0  0  0  0  0  0  0  0  0  0  0  0
    8.9318  -13.1814    0.0000 H   0  0  0  0  0  0  0  0  0  0  0  0
    9.3207  -11.7564    0.0000 H   0  0  0  0  0  0  0  0  0  0  0  0
  1  2  1  0
  2  3  1  0
  3  4  1  0
  4  5  2  0
  4  6  1  0
  6  7  1  0
  7  8  1  0
  8  9  1  0
  9 10  1  0
 10 11  1  0
 11 12  1  0
 12 13  2  3
 12 14  1  0
  7 15  1  0
 15 16  2  0
 15 17  1  0
 17 18  1  0
 18 19  1  0
 19 20  1  0
 20 21  1  0
 21 22  1  0
 22 23  1  0
 23 24  2  3
 23 25  1  0
 18 26  1  0
 26 27  2  0
 26 28  1  0
 28 29  1  0
 29 30  1  0
 30 31  1  0
 31 32  1  0
 31 33  1  0
 29 34  1  0
 34 35  2  0
 34 36  1  0
 36 37  1  0
 37 38  1  0
 38 39  1  0
 39 40  2  0
 40 41  1  0
 41 42  2  0
 42 43  1  0
 43 44  2  0
 37 45  1  0
 45 46  2  0
 45 47  1  0
 47 48  1  0
 48 49  1  0
 49 50  1  0
 50 51  1  0
 51 52  1  0
 52 53  1  0
 53 54  2  3
 53 55  1  0
 48 56  1  0
 56 57  2  0
 56 58  1  0
 59 58  1  6
 59 60  1  0
 60 61  1  0
 61 62  1  0
 62 63  1  0
 59 64  1  0
 59 65  1  0
 65 66  2  0
 65 67  1  0
 67 68  1  0
 68 69  1  0
 69 70  1  0
 70 71  1  0
 71 72  1  0
 68 73  1  0
 73 74  2  0
 73 75  1  0
 75 76  1  0
 76 77  1  0
 77 78  1  0
 78 79  2  0
 79 80  1  0
 80 81  2  0
 81 82  1  0
 82 83  2  0
 76 84  1  0
 84 85  2  0
 84 86  1  0
 86 87  1  0
 87 88  1  0
 88 89  1  0
 89 90  1  0
 89 91  1  0
 87 92  1  0
 92 93  2  0
 92 94  1  0
 94 95  1  0
 95 96  1  0
 96 97  1  0
 97 98  1  0
 98 99  1  0
 95100  1  0
 95101  1  6
101102  2  0
101103  1  0
103104  1  0
104105  1  0
105106  1  0
105107  1  0
104108  1  0
108109  2  0
108110  1  0
 44 39  1  0
 83 78  1  0
 63 99  2  0
  1111  1  0
  1112  1  0
  2113  1  0
  2114  1  0
  3115  1  0
  3116  1  0
  6117  1  0
  7118  1  6
  8119  1  0
  8120  1  0
  9121  1  0
  9122  1  0
 10123  1  0
 10124  1  0
 11125  1  0
 13126  1  0
 13127  1  0
 14128  1  0
 14129  1  0
 17130  1  0
 18131  1  6
 19132  1  0
 19133  1  0
 20134  1  0
 20135  1  0
 21136  1  0
 21137  1  0
 22138  1  0
 24139  1  0
 24140  1  0
 25141  1  0
 25142  1  0
 28143  1  0
 29144  1  1
 30145  1  0
 30146  1  0
 31147  1  0
 32148  1  0
 32149  1  0
 32150  1  0
 33151  1  0
 33152  1  0
 33153  1  0
 36154  1  0
 37155  1  1
 38156  1  0
 38157  1  0
 40158  1  0
 41159  1  0
 42160  1  0
 43161  1  0
 44162  1  0
 47163  1  0
 48164  1  1
 49165  1  0
 49166  1  0
 50167  1  0
 50168  1  0
 51169  1  0
 51170  1  0
 52171  1  0
 54172  1  0
 54173  1  0
 55174  1  0
 55175  1  0
 58176  1  0
 60177  1  0
 60178  1  0
 61179  1  0
 61180  1  0
 62181  1  0
 62182  1  0
 63183  1  0
 64184  1  0
 64185  1  0
 64186  1  0
 67187  1  0
 68188  1  6
 69189  1  0
 69190  1  0
 70191  1  0
 70192  1  0
 71193  1  0
 71194  1  0
 72195  1  0
 72196  1  0
 72197  1  0
 75198  1  0
 76199  1  1
 77200  1  0
 77201  1  0
 79202  1  0
 80203  1  0
 81204  1  0
 82205  1  0
 83206  1  0
 86207  1  0
 87208  1  1
 88209  1  0
 88210  1  0
 89211  1  0
 90212  1  0
 90213  1  0
 90214  1  0
 91215  1  0
 91216  1  0
 91217  1  0
 94218  1  0
 96219  1  0
 96220  1  0
 97221  1  0
 97222  1  0
 98223  1  0
 98224  1  0
 99225  1  0
100226  1  0
100227  1  0
100228  1  0
103229  1  0
104230  1  6
105231  1  6
106232  1  0
107233  1  0
107234  1  0
107235  1  0
M  CHG  4  13   1  24   1  54   1 110  -1
M  END
