
     RDKit          2D

196203  0  0  0  0  0  0  0  0999 V2000
  -12.5200    1.0663    0.0000 C   0  0  0  0  0  0  0  0  0  0  0  0
  -13.7698    0.2369    0.0000 N   0  0  0  0  0  0  0  0  0  0  0  0
  -15.1130    0.9044    0.0000 C   0  0  0  0  0  0  0  0  0  0  0  0
  -15.2065    2.4015    0.0000 C   0  0  0  0  0  0  0  0  0  0  0  0
  -16.5497    3.0691    0.0000 C   0  0  0  0  0  0  0  0  0  0  0  0
  -17.7995    2.2396    0.0000 C   0  0  0  0  0  0  0  0  0  0  0  0
  -17.7060    0.7425    0.0000 C   0  0  0  0  0  0  0  0  0  0  0  0
  -16.3628    0.0749    0.0000 C   0  0  0  0  0  0  0  0  0  0  0  0
  -19.1010    0.1910    0.0000 C   0  0  0  0  0  0  0  0  0  0  0  0
  -20.0566    1.3472    0.0000 O   0  0  0  0  0  0  0  0  0  0  0  0
  -19.2522    2.6133    0.0000 C   0  0  0  0  0  0  0  0  0  0  0  0
  -19.8037    4.0083    0.0000 O   0  0  0  0  0  0  0  0  0  0  0  0
  -20.5459   -0.2117    0.0000 C   0  0  0  0  0  0  0  0  0  0  0  0
  -20.9196   -1.6644    0.0000 C   0  0  0  0  0  0  0  0  0  0  0  0
  -22.3646   -2.0671    0.0000 C   0  0  0  0  0  0  0  0  0  0  0  0
  -23.4358   -1.0171    0.0000 C   0  0  0  0  0  0  0  0  0  0  0  0
  -23.0620    0.4356    0.0000 C   0  0  0  0  0  0  0  0  0  0  0  0
  -21.6171    0.8383    0.0000 C   0  0  0  0  0  0  0  0  0  0  0  0
  -24.8807   -1.4198    0.0000 O   0  0  0  0  0  0  0  0  0  0  0  0
  -19.8484   -2.7144    0.0000 O   0  0  0  0  0  0  0  0  0  0  0  0
  -18.4035   -2.3117    0.0000 C   0  0  0  0  0  0  0  0  0  0  0  0
  -18.0298   -0.8590    0.0000 C   0  0  0  0  0  0  0  0  0  0  0  0
  -16.7592   -1.1342    0.0000 C   0  0  0  0  0  0  0  0  0  0  0  0
  -16.1879   -1.6942    0.0000 C   0  0  0  0  0  0  0  0  0  0  0  0
  -16.3872   -2.4690    0.0000 C   0  0  0  0  0  0  0  0  0  0  0  0
  -17.1579   -2.6838    0.0000 C   0  0  0  0  0  0  0  0  0  0  0  0
  -14.8161   -4.0090    0.0000 O   0  0  0  0  0  0  0  0  0  0  0  0
  -12.6135    2.5634    0.0000 S   0  0  0  0  0  0  0  0  0  0  0  0
  -11.1767    0.3988    0.0000 N   0  0  0  0  0  0  0  0  0  0  0  0
   -9.9270    1.2283    0.0000 C   0  0  0  0  0  0  0  0  0  0  0  0
   -8.5837    0.5607    0.0000 C   0  0  0  0  0  0  0  0  0  0  0  0
   -7.3339    1.3902    0.0000 C   0  0  0  0  0  0  0  0  0  0  0  0
   -7.4274    2.8872    0.0000 O   0  0  0  0  0  0  0  0  0  0  0  0
   -5.9907    0.7226    0.0000 N   0  0  0  0  0  0  0  0  0  0  0  0
   -4.7409    1.5521    0.0000 C   0  0  0  0  0  0  0  0  0  0  0  0
   -3.8502    2.7590    0.0000 C   0  0  0  0  0  0  0  0  0  0  0  0
   -2.3596    2.5911    0.0000 C   0  0  0  0  0  0  0  0  0  0  0  0
   -1.4689    3.7980    0.0000 C   0  0  0  0  0  0  0  0  0  0  0  0
    0.0216    3.6301    0.0000 C   0  0  0  0  0  0  0  0  0  0  0  0
    0.9123    4.8370    0.0000 N   0  0  0  0  0  0  0  0  0  0  0  0
   -3.3977    0.8845    0.0000 C   0  0  0  0  0  0  0  0  0  0  0  0
   -3.4874   -0.6128    0.0000 O   0  0  0  0  0  0  0  0  0  0  0  0
   -2.1479    1.7140    0.0000 N   0  0  0  0  0  0  0  0  0  0  0  0
   -0.8046    1.0464    0.0000 C   0  0  0  0  0  0  0  0  0  0  0  0
    0.2293   -0.0404    0.0000 C   0  0  0  0  0  0  0  0  0  0  0  0
   -0.1949   -1.4791    0.0000 C   0  0  0  0  0  0  0  0  0  0  0  0
   -1.6530   -1.8312    0.0000 C   0  0  0  0  0  0  0  0  0  0  0  0
   -2.0772   -3.2699    0.0000 C   0  0  0  0  0  0  0  0  0  0  0  0
   -1.0433   -4.3567    0.0000 C   0  0  0  0  0  0  0  0  0  0  0  0
    0.4148   -4.0047    0.0000 C   0  0  0  0  0  0  0  0  0  0  0  0
    0.8390   -2.5659    0.0000 C   0  0  0  0  0  0  0  0  0  0  0  0
    0.4451    1.8759    0.0000 C   0  0  0  0  0  0  0  0  0  0  0  0
    0.5105    2.9674    0.0000 O   0  0  0  0  0  0  0  0  0  0  0  0
    1.7884    1.2083    0.0000 N   0  0  0  0  0  0  0  0  0  0  0  0
    3.0382    2.0378    0.0000 C   0  0  0  0  0  0  0  0  0  0  0  0
    3.2432    3.5237    0.0000 C   0  0  0  0  0  0  0  0  0  0  0  0
    3.8771    4.8832    0.0000 C   0  0  0  0  0  0  0  0  0  0  0  0
    4.8835    5.9954    0.0000 C   0  0  0  0  0  0  0  0  0  0  0  0
    6.1731    6.7616    0.0000 C   0  0  0  0  0  0  0  0  0  0  0  0
    1.7681    2.8358    0.0000 C   0  0  0  0  0  0  0  0  0  0  0  0
    3.2802    0.5574    0.0000 C   0  0  0  0  0  0  0  0  0  0  0  0
    2.0063   -0.2344    0.0000 O   0  0  0  0  0  0  0  0  0  0  0  0
    3.9479   -0.7858    0.0000 N   0  0  0  0  0  0  0  0  0  0  0  0
    4.9818   -1.8725    0.0000 C   0  0  0  0  0  0  0  0  0  0  0  0
    4.8511   -3.3668    0.0000 C   0  0  0  0  0  0  0  0  0  0  0  0
    3.4917   -4.0008    0.0000 C   0  0  0  0  0  0  0  0  0  0  0  0
    3.3610   -5.4951    0.0000 C   0  0  0  0  0  0  0  0  0  0  0  0
    2.0015   -6.1290    0.0000 N   0  0  0  0  0  0  0  0  0  0  0  0
    1.8708   -7.6233    0.0000 C   0  0  0  0  0  0  0  0  0  0  0  0
    0.5114   -8.2573    0.0000 N   0  0  0  0  0  0  0  0  0  0  0  0
    3.0996   -8.4837    0.0000 N   0  0  0  0  0  0  0  0  0  0  0  0
    6.2901   -2.6062    0.0000 C   0  0  0  0  0  0  0  0  0  0  0  0
    5.7596   -4.0093    0.0000 O   0  0  0  0  0  0  0  0  0  0  0  0
    7.7566   -2.9217    0.0000 N   0  0  0  0  0  0  0  0  0  0  0  0
    9.2509   -2.7910    0.0000 C   0  0  0  0  0  0  0  0  0  0  0  0
   10.3377   -3.8248    0.0000 C   0  0  0  0  0  0  0  0  0  0  0  0
    9.9857   -5.2829    0.0000 C   0  0  0  0  0  0  0  0  0  0  0  0
   11.0725   -6.3168    0.0000 C   0  0  0  0  0  0  0  0  0  0  0  0
    9.1563   -6.5328    0.0000 C   0  0  0  0  0  0  0  0  0  0  0  0
   10.6402   -2.2256    0.0000 C   0  0  0  0  0  0  0  0  0  0  0  0
   11.4064   -3.5151    0.0000 O   0  0  0  0  0  0  0  0  0  0  0  0
   11.8012   -1.2757    0.0000 N   0  0  0  0  0  0  0  0  0  0  0  0
   12.6306   -0.0259    0.0000 C   0  0  0  0  0  0  0  0  0  0  0  0
   14.1165    0.1792    0.0000 C   0  0  0  0  0  0  0  0  0  0  0  0
   15.0371   -1.0051    0.0000 C   0  0  0  0  0  0  0  0  0  0  0  0
   14.4718   -2.3945    0.0000 C   0  0  0  0  0  0  0  0  0  0  0  0
   15.3923   -3.5788    0.0000 C   0  0  0  0  0  0  0  0  0  0  0  0
   16.8782   -3.3737    0.0000 C   0  0  0  0  0  0  0  0  0  0  0  0
   17.4436   -1.9843    0.0000 C   0  0  0  0  0  0  0  0  0  0  0  0
   16.5230   -0.8000    0.0000 C   0  0  0  0  0  0  0  0  0  0  0  0
   13.0548    1.4128    0.0000 C   0  0  0  0  0  0  0  0  0  0  0  0
   14.5407    1.2078    0.0000 O   0  0  0  0  0  0  0  0  0  0  0  0
   13.0361    2.9127    0.0000 N   0  0  0  0  0  0  0  0  0  0  0  0
   12.5761    4.3405    0.0000 C   0  0  0  0  0  0  0  0  0  0  0  0
   11.7157    5.5692    0.0000 C   0  0  0  0  0  0  0  0  0  0  0  0
   10.5313    6.4897    0.0000 C   0  0  0  0  0  0  0  0  0  0  0  0
    9.1283    7.0202    0.0000 C   0  0  0  0  0  0  0  0  0  0  0  0
    7.6312    7.1136    0.0000 C   0  0  0  0  0  0  0  0  0  0  0  0
   14.0666    4.1725    0.0000 C   0  0  0  0  0  0  0  0  0  0  0  0
   13.3422    5.6301    0.0000 C   0  0  0  0  0  0  0  0  0  0  0  0
   14.8332    5.7944    0.0000 O   0  0  0  0  0  0  0  0  0  0  0  0
   12.9468    7.0770    0.0000 O   0  0  0  0  0  0  0  0  0  0  0  0
  -13.4945   -1.2377    0.0000 H   0  0  0  0  0  0  0  0  0  0  0  0
  -13.9567    3.2310    0.0000 H   0  0  0  0  0  0  0  0  0  0  0  0
  -16.6432    4.5662    0.0000 H   0  0  0  0  0  0  0  0  0  0  0  0
  -16.1221   -0.6850    0.0000 H   0  0  0  0  0  0  0  0  0  0  0  0
  -22.7383   -3.5198    0.0000 H   0  0  0  0  0  0  0  0  0  0  0  0
  -24.1333    1.4856    0.0000 H   0  0  0  0  0  0  0  0  0  0  0  0
  -21.2434    2.2910    0.0000 H   0  0  0  0  0  0  0  0  0  0  0  0
  -25.9519   -0.3698    0.0000 H   0  0  0  0  0  0  0  0  0  0  0  0
  -16.2111    0.9964    0.0000 H   0  0  0  0  0  0  0  0  0  0  0  0
  -14.0304   -1.2827    0.0000 H   0  0  0  0  0  0  0  0  0  0  0  0
  -17.7060   -4.8144    0.0000 H   0  0  0  0  0  0  0  0  0  0  0  0
  -15.1898   -5.4617    0.0000 H   0  0  0  0  0  0  0  0  0  0  0  0
  -11.0833   -1.0983    0.0000 H   0  0  0  0  0  0  0  0  0  0  0  0
   -9.0363    2.4352    0.0000 H   0  0  0  0  0  0  0  0  0  0  0  0
  -10.9609    2.3150    0.0000 H   0  0  0  0  0  0  0  0  0  0  0  0
   -7.5498   -0.5261    0.0000 H   0  0  0  0  0  0  0  0  0  0  0  0
   -9.4744   -0.6463    0.0000 H   0  0  0  0  0  0  0  0  0  0  0  0
   -5.8972   -0.7745    0.0000 H   0  0  0  0  0  0  0  0  0  0  0  0
   -5.7748    2.6388    0.0000 H   0  0  0  0  0  0  0  0  0  0  0  0
   -3.6046    4.2387    0.0000 H   0  0  0  0  0  0  0  0  0  0  0  0
   -5.1935    3.4266    0.0000 H   0  0  0  0  0  0  0  0  0  0  0  0
   -1.1078    1.7647    0.0000 H   0  0  0  0  0  0  0  0  0  0  0  0
   -2.0586    1.1216    0.0000 H   0  0  0  0  0  0  0  0  0  0  0  0
   -1.2233    5.2777    0.0000 H   0  0  0  0  0  0  0  0  0  0  0  0
   -2.7208    4.6243    0.0000 H   0  0  0  0  0  0  0  0  0  0  0  0
    1.3649    2.9625    0.0000 H   0  0  0  0  0  0  0  0  0  0  0  0
   -0.2240    2.1503    0.0000 H   0  0  0  0  0  0  0  0  0  0  0  0
    2.3641    5.2145    0.0000 H   0  0  0  0  0  0  0  0  0  0  0  0
    1.3365    6.2758    0.0000 H   0  0  0  0  0  0  0  0  0  0  0  0
   -0.3395    5.6633    0.0000 H   0  0  0  0  0  0  0  0  0  0  0  0
   -1.8763    3.1892    0.0000 H   0  0  0  0  0  0  0  0  0  0  0  0
   -1.6953   -0.1605    0.0000 H   0  0  0  0  0  0  0  0  0  0  0  0
    1.3711   -1.0132    0.0000 H   0  0  0  0  0  0  0  0  0  0  0  0
    1.2605    1.0490    0.0000 H   0  0  0  0  0  0  0  0  0  0  0  0
   -2.8117   -0.8785    0.0000 H   0  0  0  0  0  0  0  0  0  0  0  0
   -3.5353   -3.6220    0.0000 H   0  0  0  0  0  0  0  0  0  0  0  0
   -1.4675   -5.7954    0.0000 H   0  0  0  0  0  0  0  0  0  0  0  0
    1.3085   -5.2093    0.0000 H   0  0  0  0  0  0  0  0  0  0  0  0
    2.2971   -2.2139    0.0000 H   0  0  0  0  0  0  0  0  0  0  0  0
    1.8819   -0.2888    0.0000 H   0  0  0  0  0  0  0  0  0  0  0  0
    1.8044    3.0994    0.0000 H   0  0  0  0  0  0  0  0  0  0  0  0
    2.4106    4.7714    0.0000 H   0  0  0  0  0  0  0  0  0  0  0  0
    2.4836    5.4382    0.0000 H   0  0  0  0  0  0  0  0  0  0  0  0
    3.1141    6.1746    0.0000 H   0  0  0  0  0  0  0  0  0  0  0  0
    3.5225    6.6260    0.0000 H   0  0  0  0  0  0  0  0  0  0  0  0
    4.7155    7.4860    0.0000 H   0  0  0  0  0  0  0  0  0  0  0  0
    5.6077    8.1509    0.0000 H   0  0  0  0  0  0  0  0  0  0  0  0
    1.6410    4.3304    0.0000 H   0  0  0  0  0  0  0  0  0  0  0  0
    0.2741    2.9702    0.0000 H   0  0  0  0  0  0  0  0  0  0  0  0
    0.7423    1.7414    0.0000 H   0  0  0  0  0  0  0  0  0  0  0  0
    2.8332   -1.7895    0.0000 H   0  0  0  0  0  0  0  0  0  0  0  0
    3.5162   -2.1917    0.0000 H   0  0  0  0  0  0  0  0  0  0  0  0
    5.4131   -4.7576    0.0000 H   0  0  0  0  0  0  0  0  0  0  0  0
    6.3326   -3.6015    0.0000 H   0  0  0  0  0  0  0  0  0  0  0  0
    1.9974   -4.1316    0.0000 H   0  0  0  0  0  0  0  0  0  0  0  0
    3.1034   -2.5519    0.0000 H   0  0  0  0  0  0  0  0  0  0  0  0
    3.7492   -6.9440    0.0000 H   0  0  0  0  0  0  0  0  0  0  0  0
    4.8601   -5.5474    0.0000 H   0  0  0  0  0  0  0  0  0  0  0  0
    0.6771   -5.4249    0.0000 H   0  0  0  0  0  0  0  0  0  0  0  0
    0.3807   -9.7516    0.0000 H   0  0  0  0  0  0  0  0  0  0  0  0
   -0.7174   -7.3970    0.0000 H   0  0  0  0  0  0  0  0  0  0  0  0
    2.9689   -9.9780    0.0000 H   0  0  0  0  0  0  0  0  0  0  0  0
    4.4590   -7.8497    0.0000 H   0  0  0  0  0  0  0  0  0  0  0  0
    7.6632   -4.4188    0.0000 H   0  0  0  0  0  0  0  0  0  0  0  0
    8.5866   -4.1359    0.0000 H   0  0  0  0  0  0  0  0  0  0  0  0
   11.7754   -4.2526    0.0000 H   0  0  0  0  0  0  0  0  0  0  0  0
   11.4449   -2.8128    0.0000 H   0  0  0  0  0  0  0  0  0  0  0  0
    8.5480   -4.8552    0.0000 H   0  0  0  0  0  0  0  0  0  0  0  0
   10.9009   -7.8070    0.0000 H   0  0  0  0  0  0  0  0  0  0  0  0
   12.4474   -6.9166    0.0000 H   0  0  0  0  0  0  0  0  0  0  0  0
   12.0481   -5.1774    0.0000 H   0  0  0  0  0  0  0  0  0  0  0  0
    9.6552   -7.9474    0.0000 H   0  0  0  0  0  0  0  0  0  0  0  0
    7.9494   -7.4235    0.0000 H   0  0  0  0  0  0  0  0  0  0  0  0
    8.0695   -5.4989    0.0000 H   0  0  0  0  0  0  0  0  0  0  0  0
   12.7824   -2.4103    0.0000 H   0  0  0  0  0  0  0  0  0  0  0  0
   13.4287   -1.2960    0.0000 H   0  0  0  0  0  0  0  0  0  0  0  0
   15.4427    0.8801    0.0000 H   0  0  0  0  0  0  0  0  0  0  0  0
   14.0157    1.6758    0.0000 H   0  0  0  0  0  0  0  0  0  0  0  0
   13.0219   -2.7792    0.0000 H   0  0  0  0  0  0  0  0  0  0  0  0
   14.8270   -4.9682    0.0000 H   0  0  0  0  0  0  0  0  0  0  0  0
   17.7988   -4.5580    0.0000 H   0  0  0  0  0  0  0  0  0  0  0  0
   18.9295   -1.7792    0.0000 H   0  0  0  0  0  0  0  0  0  0  0  0
   17.0884    0.5893    0.0000 H   0  0  0  0  0  0  0  0  0  0  0  0
   14.5164    3.1548    0.0000 H   0  0  0  0  0  0  0  0  0  0  0  0
   12.0676    7.0273    0.0000 H   0  0  0  0  0  0  0  0  0  0  0  0
   13.0782    6.1964    0.0000 H   0  0  0  0  0  0  0  0  0  0  0  0
   10.6211    7.9870    0.0000 H   0  0  0  0  0  0  0  0  0  0  0  0
   11.6485    7.4907    0.0000 H   0  0  0  0  0  0  0  0  0  0  0  0
    8.5977    8.4232    0.0000 H   0  0  0  0  0  0  0  0  0  0  0  0
   10.0517    8.2023    0.0000 H   0  0  0  0  0  0  0  0  0  0  0  0
    7.5004    8.6079    0.0000 H   0  0  0  0  0  0  0  0  0  0  0  0
   15.0978    5.2619    0.0000 H   0  0  0  0  0  0  0  0  0  0  0  0
   15.4099    3.5050    0.0000 H   0  0  0  0  0  0  0  0  0  0  0  0
   14.0032    2.6739    0.0000 H   0  0  0  0  0  0  0  0  0  0  0  0
  1  2  1  0
  2  3  1  0
  3  4  2  0
  4  5  1  0
  5  6  2  0
  6  7  1  0
  7  8  2  0
  7  9  1  0
  9 10  1  0
 10 11  1  0
 11 12  2  0
  9 13  1  0
 13 14  1  0
 14 15  2  0
 15 16  1  0
 16 17  2  0
 17 18  1  0
 16 19  1  0
 14 20  1  0
 20 21  1  0
 21 22  2  0
 22 23  1  0
 23 24  2  0
 24 25  1  0
 25 26  2  0
 25 27  1  0
  1 28  2  0
  1 29  1  0
 29 30  1  0
 30 31  1  0
 31 32  1  0
 32 33  2  0
 32 34  1  0
 34 35  1  0
 35 36  1  0
 36 37  1  0
 37 38  1  0
 38 39  1  0
 39 40  1  0
 35 41  1  0
 41 42  2  0
 41 43  1  0
 43 44  1  0
 44 45  1  0
 45 46  1  0
 46 47  2  0
 47 48  1  0
 48 49  2  0
 49 50  1  0
 50 51  2  0
 44 52  1  0
 52 53  2  0
 52 54  1  0
 55 54  1  1
 55 56  1  0
 56 57  1  0
 57 58  1  0
 58 59  1  0
 55 60  1  0
 55 61  1  0
 61 62  2  0
 61 63  1  0
 63 64  1  0
 64 65  1  0
 65 66  1  0
 66 67  1  0
 67 68  1  0
 68 69  1  0
 69 70  2  3
 69 71  1  0
 64 72  1  0
 72 73  2  0
 72 74  1  0
 74 75  1  0
 75 76  1  0
 76 77  1  0
 77 78  1  0
 77 79  1  0
 75 80  1  0
 80 81  2  0
 80 82  1  0
 82 83  1  0
 83 84  1  0
 84 85  1  0
 85 86  2  0
 86 87  1  0
 87 88  2  0
 88 89  1  0
 89 90  2  0
 83 91  1  0
 91 92  2  0
 91 93  1  0
 93 94  1  0
 94 95  1  0
 95 96  1  0
 96 97  1  0
 97 98  1  0
 94 99  1  0
 94100  1  1
100101  2  0
100102  1  0
  8  3  1  0
 51 46  1  0
 90 85  1  0
 11  6  1  0
 59 98  2  0
 18 13  2  0
 22  9  1  0
 26 21  1  0
  2103  1  0
  4104  1  0
  5105  1  0
  8106  1  0
 15107  1  0
 17108  1  0
 18109  1  0
 19110  1  0
 23111  1  0
 24112  1  0
 26113  1  0
 27114  1  0
 29115  1  0
 30116  1  0
 30117  1  0
 31118  1  0
 31119  1  0
 34120  1  0
 35121  1  1
 36122  1  0
 36123  1  0
 37124  1  0
 37125  1  0
 38126  1  0
 38127  1  0
 39128  1  0
 39129  1  0
 40130  1  0
 40131  1  0
 40132  1  0
 43133  1  0
 44134  1  6
 45135  1  0
 45136  1  0
 47137  1  0
 48138  1  0
 49139  1  0
 50140  1  0
 51141  1  0
 54142  1  0
 56143  1  0
 56144  1  0
 57145  1  0
 57146  1  0
 58147  1  0
 58148  1  0
 59149  1  0
 60150  1  0
 60151  1  0
 60152  1  0
 63153  1  0
 64154  1  6
 65155  1  0
 65156  1  0
 66157  1  0
 66158  1  0
 67159  1  0
 67160  1  0
 68161  1  0
 70162  1  0
 70163  1  0
 71164  1  0
 71165  1  0
 74166  1  0
 75167  1  6
 76168  1  0
 76169  1  0
 77170  1  0
 78171  1  0
 78172  1  0
 78173  1  0
 79174  1  0
 79175  1  0
 79176  1  0
 82177  1  0
 83178  1  6
 84179  1  0
 84180  1  0
 86181  1  0
 87182  1  0
 88183  1  0
 89184  1  0
 90185  1  0
 93186  1  0
 95187  1  0
 95188  1  0
 96189  1  0
 96190  1  0
 97191  1  0
 97192  1  0
 98193  1  0
 99194  1  0
 99195  1  0
 99196  1  0
M  CHG  3  40   1  70   1 102  -1
M  END
