
     RDKit          2D

250258  0  0  0  0  0  0  0  0999 V2000
  -17.7550   -0.5641    0.0000 C   0  0  0  0  0  0  0  0  0  0  0  0
  -19.0204   -1.3696    0.0000 N   0  0  0  0  0  0  0  0  0  0  0  0
  -20.3507   -0.6764    0.0000 C   0  0  0  0  0  0  0  0  0  0  0  0
  -20.4155    0.8222    0.0000 C   0  0  0  0  0  0  0  0  0  0  0  0
  -21.7458    1.5153    0.0000 C   0  0  0  0  0  0  0  0  0  0  0  0
  -23.0112    0.7098    0.0000 C   0  0  0  0  0  0  0  0  0  0  0  0
  -22.9463   -0.7888    0.0000 C   0  0  0  0  0  0  0  0  0  0  0  0
  -21.6161   -1.4819    0.0000 C   0  0  0  0  0  0  0  0  0  0  0  0
  -24.3515   -1.3136    0.0000 C   0  0  0  0  0  0  0  0  0  0  0  0
  -25.2848   -0.1393    0.0000 O   0  0  0  0  0  0  0  0  0  0  0  0
  -24.4565    1.1112    0.0000 C   0  0  0  0  0  0  0  0  0  0  0  0
  -24.9813    2.5164    0.0000 O   0  0  0  0  0  0  0  0  0  0  0  0
  -25.8039   -1.6886    0.0000 C   0  0  0  0  0  0  0  0  0  0  0  0
  -26.2053   -3.1339    0.0000 C   0  0  0  0  0  0  0  0  0  0  0  0
  -27.6576   -3.5089    0.0000 C   0  0  0  0  0  0  0  0  0  0  0  0
  -28.7086   -2.4386    0.0000 C   0  0  0  0  0  0  0  0  0  0  0  0
  -28.3072   -0.9933    0.0000 C   0  0  0  0  0  0  0  0  0  0  0  0
  -26.8548   -0.6183    0.0000 C   0  0  0  0  0  0  0  0  0  0  0  0
  -30.1610   -2.8137    0.0000 O   0  0  0  0  0  0  0  0  0  0  0  0
  -25.1543   -4.2042    0.0000 O   0  0  0  0  0  0  0  0  0  0  0  0
  -23.7020   -3.8291    0.0000 C   0  0  0  0  0  0  0  0  0  0  0  0
  -23.3006   -2.3838    0.0000 C   0  0  0  0  0  0  0  0  0  0  0  0
  -22.0355   -2.6833    0.0000 C   0  0  0  0  0  0  0  0  0  0  0  0
  -21.4750   -3.2541    0.0000 C   0  0  0  0  0  0  0  0  0  0  0  0
  -21.6891   -4.0249    0.0000 C   0  0  0  0  0  0  0  0  0  0  0  0
  -22.4637   -4.2249    0.0000 C   0  0  0  0  0  0  0  0  0  0  0  0
  -20.1477   -5.5947    0.0000 O   0  0  0  0  0  0  0  0  0  0  0  0
  -17.8199    0.9345    0.0000 S   0  0  0  0  0  0  0  0  0  0  0  0
  -16.4248   -1.2572    0.0000 N   0  0  0  0  0  0  0  0  0  0  0  0
  -15.1594   -0.4517    0.0000 C   0  0  0  0  0  0  0  0  0  0  0  0
  -13.8291   -1.1449    0.0000 C   0  0  0  0  0  0  0  0  0  0  0  0
  -12.5637   -0.3394    0.0000 C   0  0  0  0  0  0  0  0  0  0  0  0
  -12.6286    1.1592    0.0000 O   0  0  0  0  0  0  0  0  0  0  0  0
  -11.2335   -1.0325    0.0000 N   0  0  0  0  0  0  0  0  0  0  0  0
   -9.9681   -0.2270    0.0000 C   0  0  0  0  0  0  0  0  0  0  0  0
   -9.0545    0.9626    0.0000 C   0  0  0  0  0  0  0  0  0  0  0  0
   -7.5674    0.7663    0.0000 C   0  0  0  0  0  0  0  0  0  0  0  0
   -6.6538    1.9560    0.0000 C   0  0  0  0  0  0  0  0  0  0  0  0
   -5.1667    1.7596    0.0000 N   0  0  0  0  0  0  0  0  0  0  0  0
   -4.2531    2.9493    0.0000 C   0  0  0  0  0  0  0  0  0  0  0  0
   -2.8011    2.5732    0.0000 N   0  0  0  0  0  0  0  0  0  0  0  0
   -4.8266    4.3353    0.0000 N   0  0  0  0  0  0  0  0  0  0  0  0
   -8.6378   -0.9202    0.0000 C   0  0  0  0  0  0  0  0  0  0  0  0
   -8.7443   -2.2660    0.0000 O   0  0  0  0  0  0  0  0  0  0  0  0
   -7.3724   -0.1147    0.0000 N   0  0  0  0  0  0  0  0  0  0  0  0
   -6.0422   -0.8078    0.0000 C   0  0  0  0  0  0  0  0  0  0  0  0
   -5.0292   -1.9141    0.0000 C   0  0  0  0  0  0  0  0  0  0  0  0
   -5.4808   -3.3445    0.0000 C   0  0  0  0  0  0  0  0  0  0  0  0
   -6.9454   -3.6686    0.0000 C   0  0  0  0  0  0  0  0  0  0  0  0
   -7.9716   -2.7915    0.0000 F   0  0  0  0  0  0  0  0  0  0  0  0
   -7.3970   -5.0990    0.0000 C   0  0  0  0  0  0  0  0  0  0  0  0
   -8.8615   -5.4231    0.0000 F   0  0  0  0  0  0  0  0  0  0  0  0
   -6.3840   -6.2053    0.0000 C   0  0  0  0  0  0  0  0  0  0  0  0
   -6.8356   -7.6357    0.0000 F   0  0  0  0  0  0  0  0  0  0  0  0
   -4.9194   -5.8812    0.0000 C   0  0  0  0  0  0  0  0  0  0  0  0
   -3.9065   -6.9875    0.0000 F   0  0  0  0  0  0  0  0  0  0  0  0
   -4.4678   -4.4508    0.0000 C   0  0  0  0  0  0  0  0  0  0  0  0
   -3.0033   -4.1267    0.0000 F   0  0  0  0  0  0  0  0  0  0  0  0
   -4.7768   -0.0024    0.0000 C   0  0  0  0  0  0  0  0  0  0  0  0
   -4.5583    1.0691    0.0000 O   0  0  0  0  0  0  0  0  0  0  0  0
   -3.4465   -0.6955    0.0000 N   0  0  0  0  0  0  0  0  0  0  0  0
   -2.1811    0.1100    0.0000 C   0  0  0  0  0  0  0  0  0  0  0  0
   -1.2676    1.2997    0.0000 C   0  0  0  0  0  0  0  0  0  0  0  0
    0.2195    1.1033    0.0000 C   0  0  0  0  0  0  0  0  0  0  0  0
    1.1331    2.2930    0.0000 C   0  0  0  0  0  0  0  0  0  0  0  0
    2.6202    2.0967    0.0000 C   0  0  0  0  0  0  0  0  0  0  0  0
    3.7945    3.0299    0.0000 N   0  0  0  0  0  0  0  0  0  0  0  0
   -0.8509   -0.5831    0.0000 C   0  0  0  0  0  0  0  0  0  0  0  0
   -0.9692   -2.0785    0.0000 O   0  0  0  0  0  0  0  0  0  0  0  0
    0.4145    0.2223    0.0000 N   0  0  0  0  0  0  0  0  0  0  0  0
    1.7448   -0.4708    0.0000 C   0  0  0  0  0  0  0  0  0  0  0  0
    2.1053   -1.9268    0.0000 C   0  0  0  0  0  0  0  0  0  0  0  0
    2.8789   -3.2119    0.0000 C   0  0  0  0  0  0  0  0  0  0  0  0
    3.9970   -4.2118    0.0000 C   0  0  0  0  0  0  0  0  0  0  0  0
    5.3602   -4.8378    0.0000 C   0  0  0  0  0  0  0  0  0  0  0  0
    0.4616   -1.2476    0.0000 C   0  0  0  0  0  0  0  0  0  0  0  0
    1.8294    1.0268    0.0000 C   0  0  0  0  0  0  0  0  0  0  0  0
    1.1594    1.4588    0.0000 O   0  0  0  0  0  0  0  0  0  0  0  0
    2.3518    2.4329    0.0000 N   0  0  0  0  0  0  0  0  0  0  0  0
    3.2654    3.6226    0.0000 C   0  0  0  0  0  0  0  0  0  0  0  0
    2.9779    5.0948    0.0000 C   0  0  0  0  0  0  0  0  0  0  0  0
    1.5592    5.5819    0.0000 C   0  0  0  0  0  0  0  0  0  0  0  0
    1.2717    7.0541    0.0000 C   0  0  0  0  0  0  0  0  0  0  0  0
   -0.1470    7.5413    0.0000 N   0  0  0  0  0  0  0  0  0  0  0  0
   -0.4345    9.0134    0.0000 C   0  0  0  0  0  0  0  0  0  0  0  0
   -1.8532    9.5006    0.0000 N   0  0  0  0  0  0  0  0  0  0  0  0
    0.6967    9.9985    0.0000 N   0  0  0  0  0  0  0  0  0  0  0  0
    4.4890    4.4902    0.0000 C   0  0  0  0  0  0  0  0  0  0  0  0
    3.8135    5.8295    0.0000 O   0  0  0  0  0  0  0  0  0  0  0  0
    5.9140    4.9585    0.0000 N   0  0  0  0  0  0  0  0  0  0  0  0
    7.4138    4.9860    0.0000 C   0  0  0  0  0  0  0  0  0  0  0  0
    8.3855    6.1286    0.0000 C   0  0  0  0  0  0  0  0  0  0  0  0
    7.8818    7.5415    0.0000 C   0  0  0  0  0  0  0  0  0  0  0  0
    8.8536    8.6842    0.0000 C   0  0  0  0  0  0  0  0  0  0  0  0
    6.9253    8.6970    0.0000 C   0  0  0  0  0  0  0  0  0  0  0  0
    8.8550    4.5702    0.0000 C   0  0  0  0  0  0  0  0  0  0  0  0
    9.4810    5.9333    0.0000 O   0  0  0  0  0  0  0  0  0  0  0  0
   10.1096    3.7481    0.0000 N   0  0  0  0  0  0  0  0  0  0  0  0
   11.0662    2.5926    0.0000 C   0  0  0  0  0  0  0  0  0  0  0  0
   12.5655    2.5453    0.0000 C   0  0  0  0  0  0  0  0  0  0  0  0
   13.3561    3.8201    0.0000 C   0  0  0  0  0  0  0  0  0  0  0  0
   14.8553    3.7728    0.0000 C   0  0  0  0  0  0  0  0  0  0  0  0
   15.6459    5.0475    0.0000 C   0  0  0  0  0  0  0  0  0  0  0  0
   14.9372    6.3695    0.0000 C   0  0  0  0  0  0  0  0  0  0  0  0
   13.4380    6.4169    0.0000 C   0  0  0  0  0  0  0  0  0  0  0  0
   12.6474    5.1421    0.0000 C   0  0  0  0  0  0  0  0  0  0  0  0
   11.6397    1.2066    0.0000 C   0  0  0  0  0  0  0  0  0  0  0  0
   13.0957    1.5671    0.0000 O   0  0  0  0  0  0  0  0  0  0  0  0
   11.7792   -0.2869    0.0000 N   0  0  0  0  0  0  0  0  0  0  0  0
   11.4723   -1.7552    0.0000 C   0  0  0  0  0  0  0  0  0  0  0  0
   10.7462   -3.0677    0.0000 C   0  0  0  0  0  0  0  0  0  0  0  0
    9.6655   -4.1080    0.0000 C   0  0  0  0  0  0  0  0  0  0  0  0
    8.3262   -4.7834    0.0000 C   0  0  0  0  0  0  0  0  0  0  0  0
    6.8473   -5.0341    0.0000 C   0  0  0  0  0  0  0  0  0  0  0  0
   12.9368   -1.4311    0.0000 C   0  0  0  0  0  0  0  0  0  0  0  0
   12.3700   -2.9568    0.0000 C   0  0  0  0  0  0  0  0  0  0  0  0
   12.1294   -4.4374    0.0000 O   0  0  0  0  0  0  0  0  0  0  0  0
   13.8596   -2.7801    0.0000 N   0  0  0  0  0  0  0  0  0  0  0  0
   14.7574   -3.9818    0.0000 C   0  0  0  0  0  0  0  0  0  0  0  0
   15.1900   -5.4181    0.0000 C   0  0  0  0  0  0  0  0  0  0  0  0
   14.1625   -6.5109    0.0000 O   0  0  0  0  0  0  0  0  0  0  0  0
   16.2469   -3.8051    0.0000 C   0  0  0  0  0  0  0  0  0  0  0  0
   16.8387   -2.4268    0.0000 O   0  0  0  0  0  0  0  0  0  0  0  0
   17.1447   -5.0068    0.0000 N   0  0  0  0  0  0  0  0  0  0  0  0
   18.6343   -4.8301    0.0000 C   0  0  0  0  0  0  0  0  0  0  0  0
   19.9736   -4.1546    0.0000 C   0  0  0  0  0  0  0  0  0  0  0  0
   21.2282   -4.9768    0.0000 C   0  0  0  0  0  0  0  0  0  0  0  0
   21.1435   -6.4744    0.0000 C   0  0  0  0  0  0  0  0  0  0  0  0
   22.3982   -7.2965    0.0000 C   0  0  0  0  0  0  0  0  0  0  0  0
   23.7375   -6.6210    0.0000 C   0  0  0  0  0  0  0  0  0  0  0  0
   24.9921   -7.4432    0.0000 O   0  0  0  0  0  0  0  0  0  0  0  0
   23.8221   -5.1234    0.0000 C   0  0  0  0  0  0  0  0  0  0  0  0
   22.5675   -4.3013    0.0000 C   0  0  0  0  0  0  0  0  0  0  0  0
   19.5321   -6.0318    0.0000 C   0  0  0  0  0  0  0  0  0  0  0  0
   21.0201   -6.2208    0.0000 O   0  0  0  0  0  0  0  0  0  0  0  0
   18.7767   -7.3277    0.0000 O   0  0  0  0  0  0  0  0  0  0  0  0
  -18.7734   -2.8491    0.0000 H   0  0  0  0  0  0  0  0  0  0  0  0
  -19.1501    1.6276    0.0000 H   0  0  0  0  0  0  0  0  0  0  0  0
  -21.8107    3.0139    0.0000 H   0  0  0  0  0  0  0  0  0  0  0  0
  -21.1905   -2.9203    0.0000 H   0  0  0  0  0  0  0  0  0  0  0  0
  -28.0591   -4.9542    0.0000 H   0  0  0  0  0  0  0  0  0  0  0  0
  -29.3582    0.0769    0.0000 H   0  0  0  0  0  0  0  0  0  0  0  0
  -26.4534    0.8270    0.0000 H   0  0  0  0  0  0  0  0  0  0  0  0
  -31.2119   -1.7434    0.0000 H   0  0  0  0  0  0  0  0  0  0  0  0
  -21.4468   -0.5635    0.0000 H   0  0  0  0  0  0  0  0  0  0  0  0
  -19.3100   -2.8839    0.0000 H   0  0  0  0  0  0  0  0  0  0  0  0
  -23.0524   -6.3447    0.0000 H   0  0  0  0  0  0  0  0  0  0  0  0
  -20.5491   -7.0399    0.0000 H   0  0  0  0  0  0  0  0  0  0  0  0
  -16.3599   -2.7558    0.0000 H   0  0  0  0  0  0  0  0  0  0  0  0
  -14.2458    0.7379    0.0000 H   0  0  0  0  0  0  0  0  0  0  0  0
  -16.1723    0.6546    0.0000 H   0  0  0  0  0  0  0  0  0  0  0  0
  -12.8162   -2.2512    0.0000 H   0  0  0  0  0  0  0  0  0  0  0  0
  -14.7427   -2.3346    0.0000 H   0  0  0  0  0  0  0  0  0  0  0  0
  -11.1686   -2.5311    0.0000 H   0  0  0  0  0  0  0  0  0  0  0  0
  -10.9811    0.8793    0.0000 H   0  0  0  0  0  0  0  0  0  0  0  0
   -8.7806    2.4374    0.0000 H   0  0  0  0  0  0  0  0  0  0  0  0
  -10.3847    1.6558    0.0000 H   0  0  0  0  0  0  0  0  0  0  0  0
   -6.2371    0.0732    0.0000 H   0  0  0  0  0  0  0  0  0  0  0  0
   -7.2944   -0.7087    0.0000 H   0  0  0  0  0  0  0  0  0  0  0  0
   -6.2022    3.3864    0.0000 H   0  0  0  0  0  0  0  0  0  0  0  0
   -7.8897    2.8061    0.0000 H   0  0  0  0  0  0  0  0  0  0  0  0
   -4.2749    0.5536    0.0000 H   0  0  0  0  0  0  0  0  0  0  0  0
   -1.8524    3.9426    0.0000 H   0  0  0  0  0  0  0  0  0  0  0  0
   -3.9130    5.5250    0.0000 H   0  0  0  0  0  0  0  0  0  0  0  0
   -6.3137    4.5317    0.0000 H   0  0  0  0  0  0  0  0  0  0  0  0
   -7.0728    1.3551    0.0000 H   0  0  0  0  0  0  0  0  0  0  0  0
   -6.9558   -1.9975    0.0000 H   0  0  0  0  0  0  0  0  0  0  0  0
   -3.7934   -2.7642    0.0000 H   0  0  0  0  0  0  0  0  0  0  0  0
   -3.8549   -0.9809    0.0000 H   0  0  0  0  0  0  0  0  0  0  0  0
   -3.1995   -2.1750    0.0000 H   0  0  0  0  0  0  0  0  0  0  0  0
   -3.1941    1.2163    0.0000 H   0  0  0  0  0  0  0  0  0  0  0  0
   -0.9937    2.7745    0.0000 H   0  0  0  0  0  0  0  0  0  0  0  0
   -2.6724    1.8255    0.0000 H   0  0  0  0  0  0  0  0  0  0  0  0
    1.6244    0.5775    0.0000 H   0  0  0  0  0  0  0  0  0  0  0  0
    0.3107   -0.3939    0.0000 H   0  0  0  0  0  0  0  0  0  0  0  0
    1.0420    3.7902    0.0000 H   0  0  0  0  0  0  0  0  0  0  0  0
   -0.1027    3.1431    0.0000 H   0  0  0  0  0  0  0  0  0  0  0  0
    3.9505    1.4035    0.0000 H   0  0  0  0  0  0  0  0  0  0  0  0
    2.7114    0.5994    0.0000 H   0  0  0  0  0  0  0  0  0  0  0  0
    5.0209    3.0900    0.0000 H   0  0  0  0  0  0  0  0  0  0  0  0
    3.3825    4.8254    0.0000 H   0  0  0  0  0  0  0  0  0  0  0  0
    0.5328    1.7177    0.0000 H   0  0  0  0  0  0  0  0  0  0  0  0
    0.6079   -1.8384    0.0000 H   0  0  0  0  0  0  0  0  0  0  0  0
    1.2521   -3.1606    0.0000 H   0  0  0  0  0  0  0  0  0  0  0  0
    1.4764   -3.7437    0.0000 H   0  0  0  0  0  0  0  0  0  0  0  0
    2.2564   -4.5766    0.0000 H   0  0  0  0  0  0  0  0  0  0  0  0
    2.7101   -4.9823    0.0000 H   0  0  0  0  0  0  0  0  0  0  0  0
    3.9871   -5.7118    0.0000 H   0  0  0  0  0  0  0  0  0  0  0  0
    4.9444   -6.2790    0.0000 H   0  0  0  0  0  0  0  0  0  0  0  0
    0.3745   -2.9113    0.0000 H   0  0  0  0  0  0  0  0  0  0  0  0
   -0.7739   -2.0229    0.0000 H   0  0  0  0  0  0  0  0  0  0  0  0
   -0.5225   -0.3707    0.0000 H   0  0  0  0  0  0  0  0  0  0  0  0
    1.1375    3.3136    0.0000 H   0  0  0  0  0  0  0  0  0  0  0  0
    1.8052    3.9661    0.0000 H   0  0  0  0  0  0  0  0  0  0  0  0
    3.3901    6.5371    0.0000 H   0  0  0  0  0  0  0  0  0  0  0  0
    4.4264    5.4844    0.0000 H   0  0  0  0  0  0  0  0  0  0  0  0
    0.0594    5.5545    0.0000 H   0  0  0  0  0  0  0  0  0  0  0  0
    0.9742    4.2007    0.0000 H   0  0  0  0  0  0  0  0  0  0  0  0
    1.5050    8.5359    0.0000 H   0  0  0  0  0  0  0  0  0  0  0  0
    2.7569    7.2642    0.0000 H   0  0  0  0  0  0  0  0  0  0  0  0
   -1.2782    6.5562    0.0000 H   0  0  0  0  0  0  0  0  0  0  0  0
   -2.1407   10.9728    0.0000 H   0  0  0  0  0  0  0  0  0  0  0  0
    0.4092   11.4707    0.0000 H   0  0  0  0  0  0  0  0  0  0  0  0
    2.1154    9.5114    0.0000 H   0  0  0  0  0  0  0  0  0  0  0  0
    5.6633    6.4374    0.0000 H   0  0  0  0  0  0  0  0  0  0  0  0
    6.6114    6.2534    0.0000 H   0  0  0  0  0  0  0  0  0  0  0  0
    9.7702    6.7056    0.0000 H   0  0  0  0  0  0  0  0  0  0  0  0
    9.5933    5.2390    0.0000 H   0  0  0  0  0  0  0  0  0  0  0  0
    6.4972    6.9646    0.0000 H   0  0  0  0  0  0  0  0  0  0  0  0
    8.5259   10.1480    0.0000 H   0  0  0  0  0  0  0  0  0  0  0  0
   10.1576    9.4256    0.0000 H   0  0  0  0  0  0  0  0  0  0  0  0
    9.9439    7.6540    0.0000 H   0  0  0  0  0  0  0  0  0  0  0  0
    7.2723   10.1563    0.0000 H   0  0  0  0  0  0  0  0  0  0  0  0
    5.6312    9.4555    0.0000 H   0  0  0  0  0  0  0  0  0  0  0  0
    5.9535    7.5543    0.0000 H   0  0  0  0  0  0  0  0  0  0  0  0
   10.9658    4.9797    0.0000 H   0  0  0  0  0  0  0  0  0  0  0  0
   11.7259    3.9398    0.0000 H   0  0  0  0  0  0  0  0  0  0  0  0
   13.9581    1.9881    0.0000 H   0  0  0  0  0  0  0  0  0  0  0  0
   12.6229    1.0464    0.0000 H   0  0  0  0  0  0  0  0  0  0  0  0
   15.5640    2.4507    0.0000 H   0  0  0  0  0  0  0  0  0  0  0  0
   17.1452    5.0002    0.0000 H   0  0  0  0  0  0  0  0  0  0  0  0
   15.7278    7.6443    0.0000 H   0  0  0  0  0  0  0  0  0  0  0  0
   12.7293    7.7389    0.0000 H   0  0  0  0  0  0  0  0  0  0  0  0
   11.1651    5.3718    0.0000 H   0  0  0  0  0  0  0  0  0  0  0  0
   13.2768   -0.3716    0.0000 H   0  0  0  0  0  0  0  0  0  0  0  0
   11.2499   -4.4806    0.0000 H   0  0  0  0  0  0  0  0  0  0  0  0
   12.1673   -3.5478    0.0000 H   0  0  0  0  0  0  0  0  0  0  0  0
    9.9125   -5.5875    0.0000 H   0  0  0  0  0  0  0  0  0  0  0  0
   10.8819   -4.9856    0.0000 H   0  0  0  0  0  0  0  0  0  0  0  0
    7.9464   -6.2346    0.0000 H   0  0  0  0  0  0  0  0  0  0  0  0
    9.3691   -5.8616    0.0000 H   0  0  0  0  0  0  0  0  0  0  0  0
    6.8748   -6.5339    0.0000 H   0  0  0  0  0  0  0  0  0  0  0  0
   14.1874   -2.2594    0.0000 H   0  0  0  0  0  0  0  0  0  0  0  0
   14.0946   -0.4773    0.0000 H   0  0  0  0  0  0  0  0  0  0  0  0
   12.7157    0.0526    0.0000 H   0  0  0  0  0  0  0  0  0  0  0  0
   14.6150   -1.4842    0.0000 H   0  0  0  0  0  0  0  0  0  0  0  0
   13.4181   -4.6573    0.0000 H   0  0  0  0  0  0  0  0  0  0  0  0
   15.9346   -6.7202    0.0000 H   0  0  0  0  0  0  0  0  0  0  0  0
   16.6530   -5.0867    0.0000 H   0  0  0  0  0  0  0  0  0  0  0  0
   14.5952   -7.9471    0.0000 H   0  0  0  0  0  0  0  0  0  0  0  0
   16.7254   -6.4470    0.0000 H   0  0  0  0  0  0  0  0  0  0  0  0
   18.2016   -3.3939    0.0000 H   0  0  0  0  0  0  0  0  0  0  0  0
   21.0011   -3.0618    0.0000 H   0  0  0  0  0  0  0  0  0  0  0  0
   19.0758   -2.9530    0.0000 H   0  0  0  0  0  0  0  0  0  0  0  0
   19.8966   -7.3081    0.0000 H   0  0  0  0  0  0  0  0  0  0  0  0
   22.3135   -8.7941    0.0000 H   0  0  0  0  0  0  0  0  0  0  0  0
   26.3314   -6.7677    0.0000 H   0  0  0  0  0  0  0  0  0  0  0  0
   25.1615   -4.4480    0.0000 H   0  0  0  0  0  0  0  0  0  0  0  0
   22.6522   -2.8037    0.0000 H   0  0  0  0  0  0  0  0  0  0  0  0
   19.8381   -8.6118    0.0000 H   0  0  0  0  0  0  0  0  0  0  0  0
  1  2  1  0
  2  3  1  0
  3  4  2  0
  4  5  1  0
  5  6  2  0
  6  7  1  0
  7  8  2  0
  7  9  1  0
  9 10  1  0
 10 11  1  0
 11 12  2  0
  9 13  1  0
 13 14  1  0
 14 15  2  0
 15 16  1  0
 16 17  2  0
 17 18  1  0
 16 19  1  0
 14 20  1  0
 20 21  1  0
 21 22  2  0
 22 23  1  0
 23 24  2  0
 24 25  1  0
 25 26  2  0
 25 27  1  0
  1 28  2  0
  1 29  1  0
 29 30  1  0
 30 31  1  0
 31 32  1  0
 32 33  2  0
 32 34  1  0
 34 35  1  0
 35 36  1  0
 36 37  1  0
 37 38  1  0
 38 39  1  0
 39 40  1  0
 40 41  2  3
 40 42  1  0
 35 43  1  0
 43 44  2  0
 43 45  1  0
 45 46  1  0
 46 47  1  0
 47 48  1  0
 48 49  2  0
 49 50  1  0
 49 51  1  0
 51 52  1  0
 51 53  2  0
 53 54  1  0
 53 55  1  0
 55 56  1  0
 55 57  2  0
 57 58  1  0
 46 59  1  0
 59 60  2  0
 59 61  1  0
 61 62  1  0
 62 63  1  0
 63 64  1  0
 64 65  1  0
 65 66  1  0
 66 67  1  0
 62 68  1  0
 68 69  2  0
 68 70  1  0
 71 70  1  6
 71 72  1  0
 72 73  1  0
 73 74  1  0
 74 75  1  0
 71 76  1  0
 71 77  1  0
 77 78  2  0
 77 79  1  0
 79 80  1  0
 80 81  1  0
 81 82  1  0
 82 83  1  0
 83 84  1  0
 84 85  1  0
 85 86  2  3
 85 87  1  0
 80 88  1  0
 88 89  2  0
 88 90  1  0
 90 91  1  0
 91 92  1  0
 92 93  1  0
 93 94  1  0
 93 95  1  0
 91 96  1  0
 96 97  2  0
 96 98  1  0
 98 99  1  0
 99100  1  0
100101  1  0
101102  2  0
102103  1  0
103104  2  0
104105  1  0
105106  2  0
 99107  1  0
107108  2  0
107109  1  0
109110  1  0
110111  1  0
111112  1  0
112113  1  0
113114  1  0
110115  1  0
110116  1  6
116117  2  0
116118  1  0
118119  1  0
119120  1  0
120121  1  0
119122  1  0
122123  2  0
122124  1  0
124125  1  0
125126  1  0
126127  1  0
127128  2  0
128129  1  0
129130  2  0
130131  1  0
130132  1  0
132133  2  0
125134  1  0
134135  2  0
134136  1  0
  8  3  1  0
 57 48  1  0
106101  1  0
133127  1  0
 11  6  1  0
 75114  2  0
 18 13  2  0
 22  9  1  0
 26 21  1  0
  2137  1  0
  4138  1  0
  5139  1  0
  8140  1  0
 15141  1  0
 17142  1  0
 18143  1  0
 19144  1  0
 23145  1  0
 24146  1  0
 26147  1  0
 27148  1  0
 29149  1  0
 30150  1  0
 30151  1  0
 31152  1  0
 31153  1  0
 34154  1  0
 35155  1  1
 36156  1  0
 36157  1  0
 37158  1  0
 37159  1  0
 38160  1  0
 38161  1  0
 39162  1  0
 41163  1  0
 42164  1  0
 42165  1  0
 45166  1  0
 46167  1  1
 47168  1  0
 47169  1  0
 61170  1  0
 62171  1  1
 63172  1  0
 63173  1  0
 64174  1  0
 64175  1  0
 65176  1  0
 65177  1  0
 66178  1  0
 66179  1  0
 67180  1  0
 67181  1  0
 70182  1  0
 72183  1  0
 72184  1  0
 73185  1  0
 73186  1  0
 74187  1  0
 74188  1  0
 75189  1  0
 76190  1  0
 76191  1  0
 76192  1  0
 79193  1  0
 80194  1  1
 81195  1  0
 81196  1  0
 82197  1  0
 82198  1  0
 83199  1  0
 83200  1  0
 84201  1  0
 86202  1  0
 87203  1  0
 87204  1  0
 90205  1  0
 91206  1  1
 92207  1  0
 92208  1  0
 93209  1  0
 94210  1  0
 94211  1  0
 94212  1  0
 95213  1  0
 95214  1  0
 95215  1  0
 98216  1  0
 99217  1  1
100218  1  0
100219  1  0
102220  1  0
103221  1  0
104222  1  0
105223  1  0
106224  1  0
109225  1  0
111226  1  0
111227  1  0
112228  1  0
112229  1  0
113230  1  0
113231  1  0
114232  1  0
115233  1  0
115234  1  0
115235  1  0
118236  1  0
119237  1  6
120238  1  0
120239  1  0
121240  1  0
124241  1  0
125242  1  1
126243  1  0
126244  1  0
128245  1  0
129246  1  0
131247  1  0
132248  1  0
133249  1  0
136250  1  0
M  END
