
     RDKit          2D

311317  0  0  0  0  0  0  0  0999 V2000
  -21.7871   -0.0755    0.0000 C   0  0  0  0  0  0  0  0  0  0  0  0
  -22.8813    0.9505    0.0000 N   0  0  0  0  0  0  0  0  0  0  0  0
  -24.3170    0.5158    0.0000 C   0  0  0  0  0  0  0  0  0  0  0  0
  -24.6583   -0.9449    0.0000 C   0  0  0  0  0  0  0  0  0  0  0  0
  -26.0940   -1.3795    0.0000 C   0  0  0  0  0  0  0  0  0  0  0  0
  -27.1882   -0.3536    0.0000 C   0  0  0  0  0  0  0  0  0  0  0  0
  -26.8469    1.1070    0.0000 C   0  0  0  0  0  0  0  0  0  0  0  0
  -25.4113    1.5417    0.0000 C   0  0  0  0  0  0  0  0  0  0  0  0
  -28.1306    1.8831    0.0000 C   0  0  0  0  0  0  0  0  0  0  0  0
  -29.2653    0.9020    0.0000 O   0  0  0  0  0  0  0  0  0  0  0  0
  -28.6829   -0.4803    0.0000 C   0  0  0  0  0  0  0  0  0  0  0  0
  -29.4589   -1.7640    0.0000 O   0  0  0  0  0  0  0  0  0  0  0  0
  -29.4883    2.5206    0.0000 C   0  0  0  0  0  0  0  0  0  0  0  0
  -29.6150    4.0153    0.0000 C   0  0  0  0  0  0  0  0  0  0  0  0
  -30.9728    4.6529    0.0000 C   0  0  0  0  0  0  0  0  0  0  0  0
  -32.2038    3.7958    0.0000 C   0  0  0  0  0  0  0  0  0  0  0  0
  -32.0771    2.3012    0.0000 C   0  0  0  0  0  0  0  0  0  0  0  0
  -30.7193    1.6636    0.0000 C   0  0  0  0  0  0  0  0  0  0  0  0
  -33.5616    4.4334    0.0000 O   0  0  0  0  0  0  0  0  0  0  0  0
  -28.3840    4.8723    0.0000 O   0  0  0  0  0  0  0  0  0  0  0  0
  -27.0262    4.2347    0.0000 C   0  0  0  0  0  0  0  0  0  0  0  0
  -26.8995    2.7401    0.0000 C   0  0  0  0  0  0  0  0  0  0  0  0
  -25.6009    2.8000    0.0000 C   0  0  0  0  0  0  0  0  0  0  0  0
  -24.9443    3.2571    0.0000 C   0  0  0  0  0  0  0  0  0  0  0  0
  -25.0119    4.0543    0.0000 C   0  0  0  0  0  0  0  0  0  0  0  0
  -25.7361    4.3943    0.0000 C   0  0  0  0  0  0  0  0  0  0  0  0
  -23.2064    5.3113    0.0000 O   0  0  0  0  0  0  0  0  0  0  0  0
  -22.3039   -1.4836    0.0000 S   0  0  0  0  0  0  0  0  0  0  0  0
  -20.3514    0.3592    0.0000 N   0  0  0  0  0  0  0  0  0  0  0  0
  -19.2572   -0.6667    0.0000 C   0  0  0  0  0  0  0  0  0  0  0  0
  -17.8215   -0.2320    0.0000 C   0  0  0  0  0  0  0  0  0  0  0  0
  -16.7273   -1.2580    0.0000 C   0  0  0  0  0  0  0  0  0  0  0  0
  -17.0911   -1.9672    0.0000 O   0  0  0  0  0  0  0  0  0  0  0  0
  -15.2916   -0.8233    0.0000 N   0  0  0  0  0  0  0  0  0  0  0  0
  -14.1974   -1.8492    0.0000 C   0  0  0  0  0  0  0  0  0  0  0  0
  -15.3977   -2.7487    0.0000 C   0  0  0  0  0  0  0  0  0  0  0  0
  -16.7769   -2.1589    0.0000 C   0  0  0  0  0  0  0  0  0  0  0  0
  -16.9557   -0.6696    0.0000 C   0  0  0  0  0  0  0  0  0  0  0  0
  -18.3349   -0.0798    0.0000 C   0  0  0  0  0  0  0  0  0  0  0  0
  -19.5353   -0.9793    0.0000 C   0  0  0  0  0  0  0  0  0  0  0  0
  -20.9144   -0.3895    0.0000 O   0  0  0  0  0  0  0  0  0  0  0  0
  -19.3565   -2.4686    0.0000 C   0  0  0  0  0  0  0  0  0  0  0  0
  -17.9773   -3.0584    0.0000 C   0  0  0  0  0  0  0  0  0  0  0  0
  -12.8182   -2.4390    0.0000 C   0  0  0  0  0  0  0  0  0  0  0  0
  -12.6394   -3.9283    0.0000 O   0  0  0  0  0  0  0  0  0  0  0  0
  -11.6178   -1.5395    0.0000 N   0  0  0  0  0  0  0  0  0  0  0  0
  -10.2386   -2.1293    0.0000 C   0  0  0  0  0  0  0  0  0  0  0  0
   -9.0382   -1.2298    0.0000 C   0  0  0  0  0  0  0  0  0  0  0  0
   -9.5721    0.1720    0.0000 O   0  0  0  0  0  0  0  0  0  0  0  0
   -7.6591   -1.8196    0.0000 N   0  0  0  0  0  0  0  0  0  0  0  0
   -6.4587   -0.9201    0.0000 C   0  0  0  0  0  0  0  0  0  0  0  0
   -7.5530    0.1058    0.0000 C   0  0  0  0  0  0  0  0  0  0  0  0
   -8.9886   -0.3289    0.0000 C   0  0  0  0  0  0  0  0  0  0  0  0
  -10.0829    0.6971    0.0000 C   0  0  0  0  0  0  0  0  0  0  0  0
  -11.5185    0.2624    0.0000 N   0  0  0  0  0  0  0  0  0  0  0  0
  -12.6128    1.2883    0.0000 C   0  0  0  0  0  0  0  0  0  0  0  0
  -14.0484    0.8536    0.0000 N   0  0  0  0  0  0  0  0  0  0  0  0
  -12.2714    2.7489    0.0000 N   0  0  0  0  0  0  0  0  0  0  0  0
   -5.0231   -0.4854    0.0000 C   0  0  0  0  0  0  0  0  0  0  0  0
   -5.0453    1.0144    0.0000 O   0  0  0  0  0  0  0  0  0  0  0  0
   -3.9288   -1.5114    0.0000 N   0  0  0  0  0  0  0  0  0  0  0  0
   -2.4932   -1.0767    0.0000 C   0  0  0  0  0  0  0  0  0  0  0  0
   -3.1705    0.2616    0.0000 C   0  0  0  0  0  0  0  0  0  0  0  0
   -4.6683    0.3442    0.0000 C   0  0  0  0  0  0  0  0  0  0  0  0
   -5.3457    1.6825    0.0000 C   0  0  0  0  0  0  0  0  0  0  0  0
   -6.8434    1.7650    0.0000 C   0  0  0  0  0  0  0  0  0  0  0  0
   -7.5208    3.1034    0.0000 N   0  0  0  0  0  0  0  0  0  0  0  0
   -0.9954   -1.1592    0.0000 C   0  0  0  0  0  0  0  0  0  0  0  0
   -0.5033    0.2578    0.0000 O   0  0  0  0  0  0  0  0  0  0  0  0
   -0.3180   -2.4976    0.0000 N   0  0  0  0  0  0  0  0  0  0  0  0
    1.1797   -2.5801    0.0000 C   0  0  0  0  0  0  0  0  0  0  0  0
    0.5885   -1.2015    0.0000 C   0  0  0  0  0  0  0  0  0  0  0  0
    0.2690    0.2641    0.0000 C   0  0  0  0  0  0  0  0  0  0  0  0
    0.2326    1.7636    0.0000 C   0  0  0  0  0  0  0  0  0  0  0  0
    0.4806    3.2430    0.0000 C   0  0  0  0  0  0  0  0  0  0  0  0
    0.4406   -3.8854    0.0000 C   0  0  0  0  0  0  0  0  0  0  0  0
    2.0210   -3.8219    0.0000 C   0  0  0  0  0  0  0  0  0  0  0  0
    0.9899   -4.9113    0.0000 O   0  0  0  0  0  0  0  0  0  0  0  0
    3.0822   -4.8821    0.0000 N   0  0  0  0  0  0  0  0  0  0  0  0
    4.3249   -5.7222    0.0000 C   0  0  0  0  0  0  0  0  0  0  0  0
    4.4088   -7.2199    0.0000 C   0  0  0  0  0  0  0  0  0  0  0  0
    3.1538   -8.0414    0.0000 C   0  0  0  0  0  0  0  0  0  0  0  0
    3.2378   -9.5391    0.0000 C   0  0  0  0  0  0  0  0  0  0  0  0
    1.9828  -10.3606    0.0000 N   0  0  0  0  0  0  0  0  0  0  0  0
    2.0668  -11.8583    0.0000 C   0  0  0  0  0  0  0  0  0  0  0  0
    0.8118  -12.6798    0.0000 N   0  0  0  0  0  0  0  0  0  0  0  0
    3.4058  -12.5344    0.0000 N   0  0  0  0  0  0  0  0  0  0  0  0
    5.7040   -6.3120    0.0000 C   0  0  0  0  0  0  0  0  0  0  0  0
    5.4256   -7.7860    0.0000 O   0  0  0  0  0  0  0  0  0  0  0  0
    7.1699   -6.6302    0.0000 N   0  0  0  0  0  0  0  0  0  0  0  0
    8.6695   -6.6651    0.0000 C   0  0  0  0  0  0  0  0  0  0  0  0
    9.5498   -7.8796    0.0000 C   0  0  0  0  0  0  0  0  0  0  0  0
    8.9382   -9.2493    0.0000 C   0  0  0  0  0  0  0  0  0  0  0  0
    9.8186  -10.4638    0.0000 C   0  0  0  0  0  0  0  0  0  0  0  0
    9.2069  -11.8334    0.0000 N   0  0  0  0  0  0  0  0  0  0  0  0
   10.0873  -13.0479    0.0000 C   0  0  0  0  0  0  0  0  0  0  0  0
    9.4757  -14.4176    0.0000 N   0  0  0  0  0  0  0  0  0  0  0  0
   11.5792  -12.8928    0.0000 N   0  0  0  0  0  0  0  0  0  0  0  0
   10.1486   -6.4157    0.0000 C   0  0  0  0  0  0  0  0  0  0  0  0
   10.7112   -7.8062    0.0000 O   0  0  0  0  0  0  0  0  0  0  0  0
   11.5538   -5.8908    0.0000 N   0  0  0  0  0  0  0  0  0  0  0  0
   12.8342   -5.1095    0.0000 C   0  0  0  0  0  0  0  0  0  0  0  0
   14.2314   -5.6552    0.0000 C   0  0  0  0  0  0  0  0  0  0  0  0
   14.4574   -7.1381    0.0000 C   0  0  0  0  0  0  0  0  0  0  0  0
   15.8546   -7.6839    0.0000 C   0  0  0  0  0  0  0  0  0  0  0  0
   16.0805   -9.1668    0.0000 N   0  0  0  0  0  0  0  0  0  0  0  0
   17.0258   -6.7468    0.0000 O   0  0  0  0  0  0  0  0  0  0  0  0
   13.9437   -4.1000    0.0000 C   0  0  0  0  0  0  0  0  0  0  0  0
   15.1687   -4.9655    0.0000 O   0  0  0  0  0  0  0  0  0  0  0  0
   14.8420   -2.8987    0.0000 N   0  0  0  0  0  0  0  0  0  0  0  0
   15.4968   -1.5492    0.0000 C   0  0  0  0  0  0  0  0  0  0  0  0
   16.9672   -1.2529    0.0000 C   0  0  0  0  0  0  0  0  0  0  0  0
   17.9590   -2.3782    0.0000 C   0  0  0  0  0  0  0  0  0  0  0  0
   19.4295   -2.0820    0.0000 C   0  0  0  0  0  0  0  0  0  0  0  0
   20.4213   -3.2073    0.0000 N   0  0  0  0  0  0  0  0  0  0  0  0
   21.8917   -2.9110    0.0000 C   0  0  0  0  0  0  0  0  0  0  0  0
   22.8835   -4.0363    0.0000 N   0  0  0  0  0  0  0  0  0  0  0  0
   22.3704   -1.4894    0.0000 N   0  0  0  0  0  0  0  0  0  0  0  0
   15.8843   -0.1001    0.0000 C   0  0  0  0  0  0  0  0  0  0  0  0
   17.3828   -0.1659    0.0000 O   0  0  0  0  0  0  0  0  0  0  0  0
   15.9906    1.3961    0.0000 N   0  0  0  0  0  0  0  0  0  0  0  0
   15.8118    2.8854    0.0000 C   0  0  0  0  0  0  0  0  0  0  0  0
   16.8886    3.9297    0.0000 C   0  0  0  0  0  0  0  0  0  0  0  0
   18.3314    3.5192    0.0000 C   0  0  0  0  0  0  0  0  0  0  0  0
   19.4082    4.5634    0.0000 C   0  0  0  0  0  0  0  0  0  0  0  0
   20.8510    4.1529    0.0000 N   0  0  0  0  0  0  0  0  0  0  0  0
   21.9278    5.1972    0.0000 C   0  0  0  0  0  0  0  0  0  0  0  0
   23.3706    4.7867    0.0000 N   0  0  0  0  0  0  0  0  0  0  0  0
   21.5619    6.6518    0.0000 N   0  0  0  0  0  0  0  0  0  0  0  0
   15.3544    4.3140    0.0000 C   0  0  0  0  0  0  0  0  0  0  0  0
   16.6506    5.0688    0.0000 O   0  0  0  0  0  0  0  0  0  0  0  0
   14.6348    5.6302    0.0000 N   0  0  0  0  0  0  0  0  0  0  0  0
   13.6793    6.7864    0.0000 C   0  0  0  0  0  0  0  0  0  0  0  0
   14.0206    8.2470    0.0000 C   0  0  0  0  0  0  0  0  0  0  0  0
   15.4562    8.6817    0.0000 C   0  0  0  0  0  0  0  0  0  0  0  0
   15.7976   10.1424    0.0000 C   0  0  0  0  0  0  0  0  0  0  0  0
   17.2332   10.5771    0.0000 N   0  0  0  0  0  0  0  0  0  0  0  0
   17.5746   12.0377    0.0000 C   0  0  0  0  0  0  0  0  0  0  0  0
   19.0102   12.4724    0.0000 N   0  0  0  0  0  0  0  0  0  0  0  0
   16.4803   13.0636    0.0000 N   0  0  0  0  0  0  0  0  0  0  0  0
   12.5221    7.7409    0.0000 C   0  0  0  0  0  0  0  0  0  0  0  0
   13.2045    9.0766    0.0000 O   0  0  0  0  0  0  0  0  0  0  0  0
   11.2052    8.4591    0.0000 N   0  0  0  0  0  0  0  0  0  0  0  0
    9.7763    8.9151    0.0000 C   0  0  0  0  0  0  0  0  0  0  0  0
    8.2868    9.0925    0.0000 C   0  0  0  0  0  0  0  0  0  0  0  0
    6.7906    8.9848    0.0000 C   0  0  0  0  0  0  0  0  0  0  0  0
    5.3419    8.5958    0.0000 C   0  0  0  0  0  0  0  0  0  0  0  0
    3.9930    7.9398    0.0000 C   0  0  0  0  0  0  0  0  0  0  0  0
    2.7927    7.0403    0.0000 C   0  0  0  0  0  0  0  0  0  0  0  0
    1.7842    5.9299    0.0000 C   0  0  0  0  0  0  0  0  0  0  0  0
    1.0041    4.6487    0.0000 C   0  0  0  0  0  0  0  0  0  0  0  0
   10.8194    9.9930    0.0000 C   0  0  0  0  0  0  0  0  0  0  0  0
    9.2737   10.3285    0.0000 C   0  0  0  0  0  0  0  0  0  0  0  0
   10.1000   11.5804    0.0000 O   0  0  0  0  0  0  0  0  0  0  0  0
    7.9080   10.9488    0.0000 O   0  0  0  0  0  0  0  0  0  0  0  0
  -22.3645    2.3586    0.0000 H   0  0  0  0  0  0  0  0  0  0  0  0
  -23.5641   -1.9708    0.0000 H   0  0  0  0  0  0  0  0  0  0  0  0
  -26.4353   -2.8402    0.0000 H   0  0  0  0  0  0  0  0  0  0  0  0
  -24.7266    2.8764    0.0000 H   0  0  0  0  0  0  0  0  0  0  0  0
  -31.0995    6.1475    0.0000 H   0  0  0  0  0  0  0  0  0  0  0  0
  -33.3081    1.4441    0.0000 H   0  0  0  0  0  0  0  0  0  0  0  0
  -30.5926    0.1689    0.0000 H   0  0  0  0  0  0  0  0  0  0  0  0
  -34.7926    3.5763    0.0000 H   0  0  0  0  0  0  0  0  0  0  0  0
  -25.4150    0.6079    0.0000 H   0  0  0  0  0  0  0  0  0  0  0  0
  -22.8854    2.4923    0.0000 H   0  0  0  0  0  0  0  0  0  0  0  0
  -25.9219    6.5864    0.0000 H   0  0  0  0  0  0  0  0  0  0  0  0
  -23.3331    6.8059    0.0000 H   0  0  0  0  0  0  0  0  0  0  0  0
  -20.0101    1.8199    0.0000 H   0  0  0  0  0  0  0  0  0  0  0  0
  -20.4575   -1.5662    0.0000 H   0  0  0  0  0  0  0  0  0  0  0  0
  -18.5798   -2.0050    0.0000 H   0  0  0  0  0  0  0  0  0  0  0  0
  -18.3307    1.1789    0.0000 H   0  0  0  0  0  0  0  0  0  0  0  0
  -16.6212    0.6675    0.0000 H   0  0  0  0  0  0  0  0  0  0  0  0
  -14.7748    0.5849    0.0000 H   0  0  0  0  0  0  0  0  0  0  0  0
  -13.3770   -0.5934    0.0000 H   0  0  0  0  0  0  0  0  0  0  0  0
  -16.2181   -4.0045    0.0000 H   0  0  0  0  0  0  0  0  0  0  0  0
  -14.3035   -3.7746    0.0000 H   0  0  0  0  0  0  0  0  0  0  0  0
  -15.8739    0.3695    0.0000 H   0  0  0  0  0  0  0  0  0  0  0  0
  -18.6939    1.3766    0.0000 H   0  0  0  0  0  0  0  0  0  0  0  0
  -21.9962   -1.4286    0.0000 H   0  0  0  0  0  0  0  0  0  0  0  0
  -20.5568   -3.3681    0.0000 H   0  0  0  0  0  0  0  0  0  0  0  0
  -17.7985   -4.5477    0.0000 H   0  0  0  0  0  0  0  0  0  0  0  0
  -12.1517   -0.1377    0.0000 H   0  0  0  0  0  0  0  0  0  0  0  0
  -11.0590   -3.3851    0.0000 H   0  0  0  0  0  0  0  0  0  0  0  0
   -9.1444   -3.1553    0.0000 H   0  0  0  0  0  0  0  0  0  0  0  0
   -7.4803   -3.3089    0.0000 H   0  0  0  0  0  0  0  0  0  0  0  0
   -5.7813   -2.2585    0.0000 H   0  0  0  0  0  0  0  0  0  0  0  0
   -8.2304    1.4441    0.0000 H   0  0  0  0  0  0  0  0  0  0  0  0
   -6.2519    0.8523    0.0000 H   0  0  0  0  0  0  0  0  0  0  0  0
  -10.1890   -1.2284    0.0000 H   0  0  0  0  0  0  0  0  0  0  0  0
   -8.6552   -1.7914    0.0000 H   0  0  0  0  0  0  0  0  0  0  0  0
  -10.7603    2.0354    0.0000 H   0  0  0  0  0  0  0  0  0  0  0  0
   -9.1358    1.8603    0.0000 H   0  0  0  0  0  0  0  0  0  0  0  0
  -12.2032   -1.0723    0.0000 H   0  0  0  0  0  0  0  0  0  0  0  0
  -15.1427    1.8795    0.0000 H   0  0  0  0  0  0  0  0  0  0  0  0
  -14.3898   -0.6070    0.0000 H   0  0  0  0  0  0  0  0  0  0  0  0
  -13.3657    3.7749    0.0000 H   0  0  0  0  0  0  0  0  0  0  0  0
  -10.8358    3.1836    0.0000 H   0  0  0  0  0  0  0  0  0  0  0  0
   -4.2701   -2.9720    0.0000 H   0  0  0  0  0  0  0  0  0  0  0  0
   -2.3144   -2.5660    0.0000 H   0  0  0  0  0  0  0  0  0  0  0  0
   -3.1665    1.7616    0.0000 H   0  0  0  0  0  0  0  0  0  0  0  0
   -1.7349    0.6963    0.0000 H   0  0  0  0  0  0  0  0  0  0  0  0
   -6.0402   -0.2623    0.0000 H   0  0  0  0  0  0  0  0  0  0  0  0
   -4.8552   -1.1441    0.0000 H   0  0  0  0  0  0  0  0  0  0  0  0
   -5.3416    3.1825    0.0000 H   0  0  0  0  0  0  0  0  0  0  0  0
   -3.9737    2.2890    0.0000 H   0  0  0  0  0  0  0  0  0  0  0  0
   -8.3415    1.6907    0.0000 H   0  0  0  0  0  0  0  0  0  0  0  0
   -6.6646    0.2757    0.0000 H   0  0  0  0  0  0  0  0  0  0  0  0
   -9.0185    3.1859    0.0000 H   0  0  0  0  0  0  0  0  0  0  0  0
   -7.6996    4.5927    0.0000 H   0  0  0  0  0  0  0  0  0  0  0  0
   -6.1488    3.7098    0.0000 H   0  0  0  0  0  0  0  0  0  0  0  0
   -1.2853   -3.6440    0.0000 H   0  0  0  0  0  0  0  0  0  0  0  0
   -0.6316   -2.0740    0.0000 H   0  0  0  0  0  0  0  0  0  0  0  0
   -0.8112   -0.6624    0.0000 H   0  0  0  0  0  0  0  0  0  0  0  0
   -1.1603   -0.1910    0.0000 H   0  0  0  0  0  0  0  0  0  0  0  0
   -1.0908    0.8973    0.0000 H   0  0  0  0  0  0  0  0  0  0  0  0
   -1.0949    1.0651    0.0000 H   0  0  0  0  0  0  0  0  0  0  0  0
   -0.9828    2.6428    0.0000 H   0  0  0  0  0  0  0  0  0  0  0  0
   -0.9685    3.6305    0.0000 H   0  0  0  0  0  0  0  0  0  0  0  0
   -1.0466   -4.0808    0.0000 H   0  0  0  0  0  0  0  0  0  0  0  0
    0.0141   -5.3235    0.0000 H   0  0  0  0  0  0  0  0  0  0  0  0
    1.6912   -4.7138    0.0000 H   0  0  0  0  0  0  0  0  0  0  0  0
    1.9938   -5.9142    0.0000 H   0  0  0  0  0  0  0  0  0  0  0  0
    2.9397   -6.2980    0.0000 H   0  0  0  0  0  0  0  0  0  0  0  0
    5.0000   -8.5985    0.0000 H   0  0  0  0  0  0  0  0  0  0  0  0
    5.9087   -7.2406    0.0000 H   0  0  0  0  0  0  0  0  0  0  0  0
    1.6935   -8.3842    0.0000 H   0  0  0  0  0  0  0  0  0  0  0  0
    2.2467   -6.8468    0.0000 H   0  0  0  0  0  0  0  0  0  0  0  0
    3.8289  -10.9177    0.0000 H   0  0  0  0  0  0  0  0  0  0  0  0
    4.7290   -9.3769    0.0000 H   0  0  0  0  0  0  0  0  0  0  0  0
    0.6438   -9.6845    0.0000 H   0  0  0  0  0  0  0  0  0  0  0  0
    0.8957  -14.1775    0.0000 H   0  0  0  0  0  0  0  0  0  0  0  0
   -0.5272  -12.0037    0.0000 H   0  0  0  0  0  0  0  0  0  0  0  0
    3.4897  -14.0320    0.0000 H   0  0  0  0  0  0  0  0  0  0  0  0
    4.6608  -11.7128    0.0000 H   0  0  0  0  0  0  0  0  0  0  0  0
    6.8123   -8.0869    0.0000 H   0  0  0  0  0  0  0  0  0  0  0  0
    7.8155   -7.8983    0.0000 H   0  0  0  0  0  0  0  0  0  0  0  0
   10.7925   -8.7198    0.0000 H   0  0  0  0  0  0  0  0  0  0  0  0
   10.8228   -7.0862    0.0000 H   0  0  0  0  0  0  0  0  0  0  0  0
    7.8950  -10.3271    0.0000 H   0  0  0  0  0  0  0  0  0  0  0  0
    7.5292   -8.7348    0.0000 H   0  0  0  0  0  0  0  0  0  0  0  0
   11.0612  -11.3039    0.0000 H   0  0  0  0  0  0  0  0  0  0  0  0
   10.9853   -9.5211    0.0000 H   0  0  0  0  0  0  0  0  0  0  0  0
    7.7150  -11.9886    0.0000 H   0  0  0  0  0  0  0  0  0  0  0  0
   10.3560  -15.6321    0.0000 H   0  0  0  0  0  0  0  0  0  0  0  0
    7.9837  -14.5727    0.0000 H   0  0  0  0  0  0  0  0  0  0  0  0
   12.4596  -14.1073    0.0000 H   0  0  0  0  0  0  0  0  0  0  0  0
   12.1908  -11.5231    0.0000 H   0  0  0  0  0  0  0  0  0  0  0  0
   12.0405   -7.3096    0.0000 H   0  0  0  0  0  0  0  0  0  0  0  0
   12.7826   -6.6086    0.0000 H   0  0  0  0  0  0  0  0  0  0  0  0
   15.7156   -5.8728    0.0000 H   0  0  0  0  0  0  0  0  0  0  0  0
   14.8734   -4.2996    0.0000 H   0  0  0  0  0  0  0  0  0  0  0  0
   14.1625   -8.6089    0.0000 H   0  0  0  0  0  0  0  0  0  0  0  0
   12.9939   -7.4671    0.0000 H   0  0  0  0  0  0  0  0  0  0  0  0
   17.4777   -9.7125    0.0000 H   0  0  0  0  0  0  0  0  0  0  0  0
   14.9093  -10.1039    0.0000 H   0  0  0  0  0  0  0  0  0  0  0  0
   16.0186   -3.8292    0.0000 H   0  0  0  0  0  0  0  0  0  0  0  0
   16.2638   -2.8382    0.0000 H   0  0  0  0  0  0  0  0  0  0  0  0
   18.2477   -0.4716    0.0000 H   0  0  0  0  0  0  0  0  0  0  0  0
   16.7743    0.2346    0.0000 H   0  0  0  0  0  0  0  0  0  0  0  0
   18.5061   -3.7749    0.0000 H   0  0  0  0  0  0  0  0  0  0  0  0
   16.9057   -3.4462    0.0000 H   0  0  0  0  0  0  0  0  0  0  0  0
   20.7099   -1.3006    0.0000 H   0  0  0  0  0  0  0  0  0  0  0  0
   19.0567   -0.6290    0.0000 H   0  0  0  0  0  0  0  0  0  0  0  0
   19.9426   -4.6289    0.0000 H   0  0  0  0  0  0  0  0  0  0  0  0
   24.3540   -3.7401    0.0000 H   0  0  0  0  0  0  0  0  0  0  0  0
   22.4049   -5.4579    0.0000 H   0  0  0  0  0  0  0  0  0  0  0  0
   23.8408   -1.1932    0.0000 H   0  0  0  0  0  0  0  0  0  0  0  0
   21.3786   -0.3641    0.0000 H   0  0  0  0  0  0  0  0  0  0  0  0
   17.4834    1.2495    0.0000 H   0  0  0  0  0  0  0  0  0  0  0  0
   17.1540    2.2157    0.0000 H   0  0  0  0  0  0  0  0  0  0  0  0
   17.5434    5.2792    0.0000 H   0  0  0  0  0  0  0  0  0  0  0  0
   15.9221    5.0768    0.0000 H   0  0  0  0  0  0  0  0  0  0  0  0
   19.5467    2.6400    0.0000 H   0  0  0  0  0  0  0  0  0  0  0  0
   18.0226    2.0513    0.0000 H   0  0  0  0  0  0  0  0  0  0  0  0
   20.0630    5.9130    0.0000 H   0  0  0  0  0  0  0  0  0  0  0  0
   18.3091    5.5842    0.0000 H   0  0  0  0  0  0  0  0  0  0  0  0
   21.2169    2.6982    0.0000 H   0  0  0  0  0  0  0  0  0  0  0  0
   24.4474    5.8309    0.0000 H   0  0  0  0  0  0  0  0  0  0  0  0
   23.7365    3.3320    0.0000 H   0  0  0  0  0  0  0  0  0  0  0  0
   22.6388    7.6961    0.0000 H   0  0  0  0  0  0  0  0  0  0  0  0
   20.1192    7.0623    0.0000 H   0  0  0  0  0  0  0  0  0  0  0  0
   15.9700    6.3139    0.0000 H   0  0  0  0  0  0  0  0  0  0  0  0
   15.1705    6.9486    0.0000 H   0  0  0  0  0  0  0  0  0  0  0  0
   13.8418    9.7363    0.0000 H   0  0  0  0  0  0  0  0  0  0  0  0
   12.5874    8.6895    0.0000 H   0  0  0  0  0  0  0  0  0  0  0  0
   16.9540    8.5992    0.0000 H   0  0  0  0  0  0  0  0  0  0  0  0
   15.9901    7.2799    0.0000 H   0  0  0  0  0  0  0  0  0  0  0  0
   15.6188   11.6317    0.0000 H   0  0  0  0  0  0  0  0  0  0  0  0
   14.3211   10.4069    0.0000 H   0  0  0  0  0  0  0  0  0  0  0  0
   18.3275    9.5511    0.0000 H   0  0  0  0  0  0  0  0  0  0  0  0
   19.3516   13.9330    0.0000 H   0  0  0  0  0  0  0  0  0  0  0  0
   20.1045   11.4465    0.0000 H   0  0  0  0  0  0  0  0  0  0  0  0
   16.8217   14.5243    0.0000 H   0  0  0  0  0  0  0  0  0  0  0  0
   15.0447   12.6290    0.0000 H   0  0  0  0  0  0  0  0  0  0  0  0
   11.9588    9.7561    0.0000 H   0  0  0  0  0  0  0  0  0  0  0  0
    7.5259   10.3852    0.0000 H   0  0  0  0  0  0  0  0  0  0  0  0
    8.7789   10.5095    0.0000 H   0  0  0  0  0  0  0  0  0  0  0  0
    5.9434   10.2226    0.0000 H   0  0  0  0  0  0  0  0  0  0  0  0
    7.0057   10.4693    0.0000 H   0  0  0  0  0  0  0  0  0  0  0  0
    4.2758    9.6510    0.0000 H   0  0  0  0  0  0  0  0  0  0  0  0
    5.4553   10.0915    0.0000 H   0  0  0  0  0  0  0  0  0  0  0  0
    2.7464    8.7740    0.0000 H   0  0  0  0  0  0  0  0  0  0  0  0
    3.8213    9.4299    0.0000 H   0  0  0  0  0  0  0  0  0  0  0  0
    1.4107    7.6235    0.0000 H   0  0  0  0  0  0  0  0  0  0  0  0
    2.3420    8.4710    0.0000 H   0  0  0  0  0  0  0  0  0  0  0  0
    0.2898    6.0599    0.0000 H   0  0  0  0  0  0  0  0  0  0  0  0
    1.0709    7.2494    0.0000 H   0  0  0  0  0  0  0  0  0  0  0  0
   -0.3454    5.3034    0.0000 H   0  0  0  0  0  0  0  0  0  0  0  0
   10.5865   11.4748    0.0000 H   0  0  0  0  0  0  0  0  0  0  0  0
   12.0783   10.8086    0.0000 H   0  0  0  0  0  0  0  0  0  0  0  0
   11.9675    9.0276    0.0000 H   0  0  0  0  0  0  0  0  0  0  0  0
  1  2  1  0
  2  3  1  0
  3  4  2  0
  4  5  1  0
  5  6  2  0
  6  7  1  0
  7  8  2  0
  7  9  1  0
  9 10  1  0
 10 11  1  0
 11 12  2  0
  9 13  1  0
 13 14  1  0
 14 15  2  0
 15 16  1  0
 16 17  2  0
 17 18  1  0
 16 19  1  0
 14 20  1  0
 20 21  1  0
 21 22  2  0
 22 23  1  0
 23 24  2  0
 24 25  1  0
 25 26  2  0
 25 27  1  0
  1 28  2  0
  1 29  1  0
 29 30  1  0
 30 31  1  0
 31 32  1  0
 32 33  2  0
 32 34  1  0
 34 35  1  0
 35 36  1  0
 36 37  1  0
 37 38  2  0
 38 39  1  0
 39 40  2  0
 40 41  1  0
 40 42  1  0
 42 43  2  0
 35 44  1  0
 44 45  2  0
 44 46  1  0
 46 47  1  0
 47 48  1  0
 48 49  2  0
 48 50  1  0
 50 51  1  0
 51 52  1  0
 52 53  1  0
 53 54  1  0
 54 55  1  0
 55 56  1  0
 56 57  2  3
 56 58  1  0
 51 59  1  0
 59 60  2  0
 59 61  1  0
 61 62  1  0
 62 63  1  0
 63 64  1  0
 64 65  1  0
 65 66  1  0
 66 67  1  0
 62 68  1  0
 68 69  2  0
 68 70  1  0
 71 70  1  6
 71 72  1  0
 72 73  1  0
 73 74  1  0
 74 75  1  0
 71 76  1  0
 71 77  1  0
 77 78  2  0
 77 79  1  0
 79 80  1  0
 80 81  1  0
 81 82  1  0
 82 83  1  0
 83 84  1  0
 84 85  1  0
 85 86  2  3
 85 87  1  0
 80 88  1  0
 88 89  2  0
 88 90  1  0
 90 91  1  0
 91 92  1  0
 92 93  1  0
 93 94  1  0
 94 95  1  0
 95 96  1  0
 96 97  2  3
 96 98  1  0
 91 99  1  0
 99100  2  0
 99101  1  0
101102  1  0
102103  1  0
103104  1  0
104105  1  0
105106  1  0
105107  2  0
102108  1  0
108109  2  0
108110  1  0
110111  1  0
111112  1  0
112113  1  0
113114  1  0
114115  1  0
115116  1  0
116117  2  3
116118  1  0
111119  1  0
119120  2  0
119121  1  0
121122  1  0
122123  1  0
123124  1  0
124125  1  0
125126  1  0
126127  1  0
127128  2  3
127129  1  0
122130  1  0
130131  2  0
130132  1  0
132133  1  0
133134  1  0
134135  1  0
135136  1  0
136137  1  0
137138  1  0
138139  2  3
138140  1  0
133141  1  0
141142  2  0
141143  1  0
143144  1  0
144145  1  0
145146  1  0
146147  1  0
147148  1  0
148149  1  0
149150  1  0
150151  1  0
144152  1  0
144153  1  1
153154  2  0
153155  1  0
  8  3  1  0
 43 37  1  0
 11  6  1  0
 75151  2  0
 18 13  2  0
 22  9  1  0
 26 21  1  0
  2156  1  0
  4157  1  0
  5158  1  0
  8159  1  0
 15160  1  0
 17161  1  0
 18162  1  0
 19163  1  0
 23164  1  0
 24165  1  0
 26166  1  0
 27167  1  0
 29168  1  0
 30169  1  0
 30170  1  0
 31171  1  0
 31172  1  0
 34173  1  0
 35174  1  6
 36175  1  0
 36176  1  0
 38177  1  0
 39178  1  0
 41179  1  0
 42180  1  0
 43181  1  0
 46182  1  0
 47183  1  0
 47184  1  0
 50185  1  0
 51186  1  1
 52187  1  0
 52188  1  0
 53189  1  0
 53190  1  0
 54191  1  0
 54192  1  0
 55193  1  0
 57194  1  0
 57195  1  0
 58196  1  0
 58197  1  0
 61198  1  0
 62199  1  1
 63200  1  0
 63201  1  0
 64202  1  0
 64203  1  0
 65204  1  0
 65205  1  0
 66206  1  0
 66207  1  0
 67208  1  0
 67209  1  0
 67210  1  0
 70211  1  0
 72212  1  0
 72213  1  0
 73214  1  0
 73215  1  0
 74216  1  0
 74217  1  0
 75218  1  0
 76219  1  0
 76220  1  0
 76221  1  0
 79222  1  0
 80223  1  6
 81224  1  0
 81225  1  0
 82226  1  0
 82227  1  0
 83228  1  0
 83229  1  0
 84230  1  0
 86231  1  0
 86232  1  0
 87233  1  0
 87234  1  0
 90235  1  0
 91236  1  6
 92237  1  0
 92238  1  0
 93239  1  0
 93240  1  0
 94241  1  0
 94242  1  0
 95243  1  0
 97244  1  0
 97245  1  0
 98246  1  0
 98247  1  0
101248  1  0
102249  1  6
103250  1  0
103251  1  0
104252  1  0
104253  1  0
106254  1  0
106255  1  0
110256  1  0
111257  1  6
112258  1  0
112259  1  0
113260  1  0
113261  1  0
114262  1  0
114263  1  0
115264  1  0
117265  1  0
117266  1  0
118267  1  0
118268  1  0
121269  1  0
122270  1  6
123271  1  0
123272  1  0
124273  1  0
124274  1  0
125275  1  0
125276  1  0
126277  1  0
128278  1  0
128279  1  0
129280  1  0
129281  1  0
132282  1  0
133283  1  6
134284  1  0
134285  1  0
135286  1  0
135287  1  0
136288  1  0
136289  1  0
137290  1  0
139291  1  0
139292  1  0
140293  1  0
140294  1  0
143295  1  0
145296  1  0
145297  1  0
146298  1  0
146299  1  0
147300  1  0
147301  1  0
148302  1  0
148303  1  0
149304  1  0
149305  1  0
150306  1  0
150307  1  0
151308  1  0
152309  1  0
152310  1  0
152311  1  0
M  CHG  8  57   1  67   1  86   1  97   1 117   1 128   1 139   1 155  -1
M  END
