
     RDKit          2D

344351  0  0  0  0  0  0  0  0999 V2000
  -28.7732   -0.6435    0.0000 C   0  0  0  0  0  0  0  0  0  0  0  0
  -30.0189   -1.4791    0.0000 N   0  0  0  0  0  0  0  0  0  0  0  0
  -31.3654   -0.8182    0.0000 C   0  0  0  0  0  0  0  0  0  0  0  0
  -31.4663    0.6784    0.0000 C   0  0  0  0  0  0  0  0  0  0  0  0
  -32.8128    1.3394    0.0000 C   0  0  0  0  0  0  0  0  0  0  0  0
  -34.0585    0.5037    0.0000 C   0  0  0  0  0  0  0  0  0  0  0  0
  -33.9576   -0.9929    0.0000 C   0  0  0  0  0  0  0  0  0  0  0  0
  -32.6111   -1.6538    0.0000 C   0  0  0  0  0  0  0  0  0  0  0  0
  -35.3498   -1.5513    0.0000 C   0  0  0  0  0  0  0  0  0  0  0  0
  -36.3111   -0.3998    0.0000 O   0  0  0  0  0  0  0  0  0  0  0  0
  -35.5130    0.8703    0.0000 C   0  0  0  0  0  0  0  0  0  0  0  0
  -36.0714    2.2625    0.0000 O   0  0  0  0  0  0  0  0  0  0  0  0
  -36.7928   -1.9611    0.0000 C   0  0  0  0  0  0  0  0  0  0  0  0
  -37.1593   -3.4156    0.0000 C   0  0  0  0  0  0  0  0  0  0  0  0
  -38.6022   -3.8254    0.0000 C   0  0  0  0  0  0  0  0  0  0  0  0
  -39.6786   -2.7807    0.0000 C   0  0  0  0  0  0  0  0  0  0  0  0
  -39.3121   -1.3262    0.0000 C   0  0  0  0  0  0  0  0  0  0  0  0
  -37.8691   -0.9164    0.0000 C   0  0  0  0  0  0  0  0  0  0  0  0
  -41.1216   -3.1906    0.0000 O   0  0  0  0  0  0  0  0  0  0  0  0
  -36.0829   -4.4603    0.0000 O   0  0  0  0  0  0  0  0  0  0  0  0
  -34.6400   -4.0505    0.0000 C   0  0  0  0  0  0  0  0  0  0  0  0
  -34.2734   -2.5960    0.0000 C   0  0  0  0  0  0  0  0  0  0  0  0
  -33.0016   -2.8649    0.0000 C   0  0  0  0  0  0  0  0  0  0  0  0
  -32.4275   -3.4221    0.0000 C   0  0  0  0  0  0  0  0  0  0  0  0
  -32.6230   -4.1979    0.0000 C   0  0  0  0  0  0  0  0  0  0  0  0
  -33.3926   -4.4164    0.0000 C   0  0  0  0  0  0  0  0  0  0  0  0
  -31.0443   -5.7301    0.0000 O   0  0  0  0  0  0  0  0  0  0  0  0
  -28.8741    0.8531    0.0000 S   0  0  0  0  0  0  0  0  0  0  0  0
  -27.4267   -1.3044    0.0000 N   0  0  0  0  0  0  0  0  0  0  0  0
  -26.1811   -0.4688    0.0000 C   0  0  0  0  0  0  0  0  0  0  0  0
  -24.8345   -1.1297    0.0000 C   0  0  0  0  0  0  0  0  0  0  0  0
  -23.5889   -0.2941    0.0000 C   0  0  0  0  0  0  0  0  0  0  0  0
  -23.6897    1.2025    0.0000 O   0  0  0  0  0  0  0  0  0  0  0  0
  -22.2423   -0.9550    0.0000 N   0  0  0  0  0  0  0  0  0  0  0  0
  -20.9967   -0.1194    0.0000 C   0  0  0  0  0  0  0  0  0  0  0  0
  -20.1119    1.0919    0.0000 C   0  0  0  0  0  0  0  0  0  0  0  0
  -18.6205    0.9314    0.0000 C   0  0  0  0  0  0  0  0  0  0  0  0
  -17.7358    2.1427    0.0000 C   0  0  0  0  0  0  0  0  0  0  0  0
  -16.2444    1.9821    0.0000 N   0  0  0  0  0  0  0  0  0  0  0  0
  -15.3597    3.1934    0.0000 C   0  0  0  0  0  0  0  0  0  0  0  0
  -13.8990    2.8522    0.0000 N   0  0  0  0  0  0  0  0  0  0  0  0
  -15.9663    4.5653    0.0000 N   0  0  0  0  0  0  0  0  0  0  0  0
  -19.6501   -0.7803    0.0000 C   0  0  0  0  0  0  0  0  0  0  0  0
  -19.5493   -2.2769    0.0000 O   0  0  0  0  0  0  0  0  0  0  0  0
  -18.4045    0.0553    0.0000 N   0  0  0  0  0  0  0  0  0  0  0  0
  -17.0579   -0.6056    0.0000 C   0  0  0  0  0  0  0  0  0  0  0  0
  -16.0187   -1.6873    0.0000 C   0  0  0  0  0  0  0  0  0  0  0  0
  -16.4358   -3.1281    0.0000 C   0  0  0  0  0  0  0  0  0  0  0  0
  -15.3965   -4.2098    0.0000 C   0  0  0  0  0  0  0  0  0  0  0  0
  -15.8136   -5.6506    0.0000 O   0  0  0  0  0  0  0  0  0  0  0  0
  -13.9401   -3.8505    0.0000 O   0  0  0  0  0  0  0  0  0  0  0  0
  -15.8123    0.2300    0.0000 C   0  0  0  0  0  0  0  0  0  0  0  0
  -15.6196    1.3064    0.0000 O   0  0  0  0  0  0  0  0  0  0  0  0
  -14.4657   -0.4309    0.0000 N   0  0  0  0  0  0  0  0  0  0  0  0
  -13.2201    0.4047    0.0000 C   0  0  0  0  0  0  0  0  0  0  0  0
  -12.3353    1.6160    0.0000 C   0  0  0  0  0  0  0  0  0  0  0  0
  -10.8440    1.4554    0.0000 C   0  0  0  0  0  0  0  0  0  0  0  0
   -9.9592    2.6667    0.0000 C   0  0  0  0  0  0  0  0  0  0  0  0
   -9.4974    0.7945    0.0000 C   0  0  0  0  0  0  0  0  0  0  0  0
  -11.8735   -0.2563    0.0000 C   0  0  0  0  0  0  0  0  0  0  0  0
  -11.7727   -1.7529    0.0000 O   0  0  0  0  0  0  0  0  0  0  0  0
  -10.6279    0.5794    0.0000 N   0  0  0  0  0  0  0  0  0  0  0  0
   -9.2813   -0.0816    0.0000 C   0  0  0  0  0  0  0  0  0  0  0  0
   -8.2421   -1.1632    0.0000 C   0  0  0  0  0  0  0  0  0  0  0  0
   -8.6592   -2.6040    0.0000 C   0  0  0  0  0  0  0  0  0  0  0  0
   -7.6199   -3.6857    0.0000 C   0  0  0  0  0  0  0  0  0  0  0  0
   -8.0370   -5.1265    0.0000 N   0  0  0  0  0  0  0  0  0  0  0  0
   -6.9977   -6.2081    0.0000 C   0  0  0  0  0  0  0  0  0  0  0  0
   -7.4148   -7.6490    0.0000 N   0  0  0  0  0  0  0  0  0  0  0  0
   -5.5414   -5.8489    0.0000 N   0  0  0  0  0  0  0  0  0  0  0  0
   -8.0357    0.7541    0.0000 C   0  0  0  0  0  0  0  0  0  0  0  0
   -7.9534    2.2518    0.0000 O   0  0  0  0  0  0  0  0  0  0  0  0
   -6.6892    0.0931    0.0000 N   0  0  0  0  0  0  0  0  0  0  0  0
   -5.4435    0.9288    0.0000 C   0  0  0  0  0  0  0  0  0  0  0  0
   -4.5587    2.1401    0.0000 C   0  0  0  0  0  0  0  0  0  0  0  0
   -3.0674    1.9795    0.0000 C   0  0  0  0  0  0  0  0  0  0  0  0
   -2.1826    3.1908    0.0000 C   0  0  0  0  0  0  0  0  0  0  0  0
   -0.6912    3.0303    0.0000 N   0  0  0  0  0  0  0  0  0  0  0  0
    0.1935    4.2416    0.0000 C   0  0  0  0  0  0  0  0  0  0  0  0
    1.6849    4.0810    0.0000 N   0  0  0  0  0  0  0  0  0  0  0  0
   -0.4132    5.6134    0.0000 N   0  0  0  0  0  0  0  0  0  0  0  0
   -4.0970    0.2678    0.0000 C   0  0  0  0  0  0  0  0  0  0  0  0
   -3.9961   -1.2288    0.0000 O   0  0  0  0  0  0  0  0  0  0  0  0
   -2.8513    1.1035    0.0000 N   0  0  0  0  0  0  0  0  0  0  0  0
   -1.5048    0.4425    0.0000 C   0  0  0  0  0  0  0  0  0  0  0  0
   -0.4655   -0.6391    0.0000 C   0  0  0  0  0  0  0  0  0  0  0  0
   -0.8826   -2.0799    0.0000 C   0  0  0  0  0  0  0  0  0  0  0  0
    0.1567   -3.1616    0.0000 C   0  0  0  0  0  0  0  0  0  0  0  0
   -0.2604   -4.6024    0.0000 O   0  0  0  0  0  0  0  0  0  0  0  0
    1.6130   -2.8024    0.0000 O   0  0  0  0  0  0  0  0  0  0  0  0
   -0.2591    1.2782    0.0000 C   0  0  0  0  0  0  0  0  0  0  0  0
   -0.0664    2.3546    0.0000 O   0  0  0  0  0  0  0  0  0  0  0  0
    1.0874    0.6172    0.0000 N   0  0  0  0  0  0  0  0  0  0  0  0
    2.3331    1.4529    0.0000 C   0  0  0  0  0  0  0  0  0  0  0  0
    3.2178    2.6642    0.0000 C   0  0  0  0  0  0  0  0  0  0  0  0
    4.7177    2.6866    0.0000 C   0  0  0  0  0  0  0  0  0  0  0  0
    3.6349    4.1050    0.0000 C   0  0  0  0  0  0  0  0  0  0  0  0
    5.0366    4.6391    0.0000 C   0  0  0  0  0  0  0  0  0  0  0  0
    3.6796    0.7919    0.0000 C   0  0  0  0  0  0  0  0  0  0  0  0
    3.5973   -0.7058    0.0000 O   0  0  0  0  0  0  0  0  0  0  0  0
    4.9253    1.6276    0.0000 N   0  0  0  0  0  0  0  0  0  0  0  0
    6.2718    0.9666    0.0000 C   0  0  0  0  0  0  0  0  0  0  0  0
    6.6672   -0.4803    0.0000 C   0  0  0  0  0  0  0  0  0  0  0  0
    7.4716   -1.7464    0.0000 C   0  0  0  0  0  0  0  0  0  0  0  0
    8.6134   -2.7192    0.0000 C   0  0  0  0  0  0  0  0  0  0  0  0
    9.9912   -3.3122    0.0000 C   0  0  0  0  0  0  0  0  0  0  0  0
    5.0077    0.1592    0.0000 C   0  0  0  0  0  0  0  0  0  0  0  0
    6.3205    2.4658    0.0000 C   0  0  0  0  0  0  0  0  0  0  0  0
    5.5599    2.7046    0.0000 O   0  0  0  0  0  0  0  0  0  0  0  0
    6.8089    3.8841    0.0000 N   0  0  0  0  0  0  0  0  0  0  0  0
    7.6936    5.0954    0.0000 C   0  0  0  0  0  0  0  0  0  0  0  0
    7.3708    6.5603    0.0000 C   0  0  0  0  0  0  0  0  0  0  0  0
    8.4780    7.5722    0.0000 C   0  0  0  0  0  0  0  0  0  0  0  0
    8.1552    9.0371    0.0000 C   0  0  0  0  0  0  0  0  0  0  0  0
    9.7845    8.3092    0.0000 C   0  0  0  0  0  0  0  0  0  0  0  0
    8.8961    5.9921    0.0000 C   0  0  0  0  0  0  0  0  0  0  0  0
    8.5297    7.4467    0.0000 O   0  0  0  0  0  0  0  0  0  0  0  0
   10.3094    6.4945    0.0000 N   0  0  0  0  0  0  0  0  0  0  0  0
   11.8081    6.5581    0.0000 C   0  0  0  0  0  0  0  0  0  0  0  0
   12.7521    7.7238    0.0000 C   0  0  0  0  0  0  0  0  0  0  0  0
   12.2146    9.1241    0.0000 S   0  0  0  0  0  0  0  0  0  0  0  0
   13.2589    6.1770    0.0000 C   0  0  0  0  0  0  0  0  0  0  0  0
   13.8519    7.5548    0.0000 O   0  0  0  0  0  0  0  0  0  0  0  0
   14.5329    5.3853    0.0000 N   0  0  0  0  0  0  0  0  0  0  0  0
   15.5170    4.2532    0.0000 C   0  0  0  0  0  0  0  0  0  0  0  0
   17.0169    4.2419    0.0000 C   0  0  0  0  0  0  0  0  0  0  0  0
   17.7767    5.5353    0.0000 C   0  0  0  0  0  0  0  0  0  0  0  0
   19.2766    5.5240    0.0000 C   0  0  0  0  0  0  0  0  0  0  0  0
   20.0363    6.8174    0.0000 N   0  0  0  0  0  0  0  0  0  0  0  0
   21.5363    6.8061    0.0000 C   0  0  0  0  0  0  0  0  0  0  0  0
   22.2960    8.0995    0.0000 N   0  0  0  0  0  0  0  0  0  0  0  0
   22.2765    5.5015    0.0000 N   0  0  0  0  0  0  0  0  0  0  0  0
   16.1236    2.8813    0.0000 C   0  0  0  0  0  0  0  0  0  0  0  0
   17.5706    3.2767    0.0000 O   0  0  0  0  0  0  0  0  0  0  0  0
   16.2989    1.3916    0.0000 N   0  0  0  0  0  0  0  0  0  0  0  0
   16.0274   -0.0836    0.0000 C   0  0  0  0  0  0  0  0  0  0  0  0
   15.3331   -1.4132    0.0000 C   0  0  0  0  0  0  0  0  0  0  0  0
   14.2777   -2.4791    0.0000 C   0  0  0  0  0  0  0  0  0  0  0  0
   12.9550   -3.1866    0.0000 C   0  0  0  0  0  0  0  0  0  0  0  0
   11.4826   -3.4728    0.0000 C   0  0  0  0  0  0  0  0  0  0  0  0
   17.4837    0.2756    0.0000 C   0  0  0  0  0  0  0  0  0  0  0  0
   16.9538   -1.2633    0.0000 C   0  0  0  0  0  0  0  0  0  0  0  0
   16.7488   -2.7493    0.0000 O   0  0  0  0  0  0  0  0  0  0  0  0
   18.4387   -1.0509    0.0000 N   0  0  0  0  0  0  0  0  0  0  0  0
   19.3651   -2.2306    0.0000 C   0  0  0  0  0  0  0  0  0  0  0  0
   19.8321   -3.6561    0.0000 C   0  0  0  0  0  0  0  0  0  0  0  0
   18.8312   -4.7733    0.0000 C   0  0  0  0  0  0  0  0  0  0  0  0
   19.1467   -6.2397    0.0000 C   0  0  0  0  0  0  0  0  0  0  0  0
   17.8495   -6.9929    0.0000 N   0  0  0  0  0  0  0  0  0  0  0  0
   16.7323   -5.9920    0.0000 C   0  0  0  0  0  0  0  0  0  0  0  0
   17.3390   -4.6202    0.0000 N   0  0  0  0  0  0  0  0  0  0  0  0
   20.8500   -2.0182    0.0000 C   0  0  0  0  0  0  0  0  0  0  0  0
   21.4084   -0.6261    0.0000 O   0  0  0  0  0  0  0  0  0  0  0  0
   21.7764   -3.1980    0.0000 N   0  0  0  0  0  0  0  0  0  0  0  0
   23.2612   -2.9855    0.0000 C   0  0  0  0  0  0  0  0  0  0  0  0
   24.5839   -2.2781    0.0000 C   0  0  0  0  0  0  0  0  0  0  0  0
   25.8580   -3.0698    0.0000 C   0  0  0  0  0  0  0  0  0  0  0  0
   27.2473   -2.5045    0.0000 C   0  0  0  0  0  0  0  0  0  0  0  0
   28.2144   -3.6512    0.0000 N   0  0  0  0  0  0  0  0  0  0  0  0
   27.4226   -4.9252    0.0000 C   0  0  0  0  0  0  0  0  0  0  0  0
   25.9663   -4.5659    0.0000 N   0  0  0  0  0  0  0  0  0  0  0  0
   24.1877   -4.1653    0.0000 C   0  0  0  0  0  0  0  0  0  0  0  0
   23.6292   -5.5574    0.0000 O   0  0  0  0  0  0  0  0  0  0  0  0
   25.6725   -3.9529    0.0000 N   0  0  0  0  0  0  0  0  0  0  0  0
   26.5989   -5.1326    0.0000 C   0  0  0  0  0  0  0  0  0  0  0  0
   27.0660   -6.5580    0.0000 C   0  0  0  0  0  0  0  0  0  0  0  0
   26.0650   -7.6752    0.0000 O   0  0  0  0  0  0  0  0  0  0  0  0
   28.0838   -4.9202    0.0000 C   0  0  0  0  0  0  0  0  0  0  0  0
   28.9626   -3.7045    0.0000 O   0  0  0  0  0  0  0  0  0  0  0  0
   29.0102   -6.0999    0.0000 N   0  0  0  0  0  0  0  0  0  0  0  0
   30.4951   -5.8875    0.0000 C   0  0  0  0  0  0  0  0  0  0  0  0
   31.8178   -5.1800    0.0000 C   0  0  0  0  0  0  0  0  0  0  0  0
   32.8187   -4.0628    0.0000 O   0  0  0  0  0  0  0  0  0  0  0  0
   33.0918   -5.9718    0.0000 C   0  0  0  0  0  0  0  0  0  0  0  0
   31.4215   -7.0672    0.0000 C   0  0  0  0  0  0  0  0  0  0  0  0
   32.9212   -7.0374    0.0000 O   0  0  0  0  0  0  0  0  0  0  0  0
   30.8630   -8.4594    0.0000 O   0  0  0  0  0  0  0  0  0  0  0  0
  -29.7364   -2.9523    0.0000 H   0  0  0  0  0  0  0  0  0  0  0  0
  -30.2206    1.5141    0.0000 H   0  0  0  0  0  0  0  0  0  0  0  0
  -32.9137    2.8360    0.0000 H   0  0  0  0  0  0  0  0  0  0  0  0
  -32.1511   -3.0816    0.0000 H   0  0  0  0  0  0  0  0  0  0  0  0
  -38.9688   -5.2800    0.0000 H   0  0  0  0  0  0  0  0  0  0  0  0
  -40.3884   -0.2815    0.0000 H   0  0  0  0  0  0  0  0  0  0  0  0
  -37.5026    0.5381    0.0000 H   0  0  0  0  0  0  0  0  0  0  0  0
  -42.1979   -2.1459    0.0000 H   0  0  0  0  0  0  0  0  0  0  0  0
  -32.4640   -0.7316    0.0000 H   0  0  0  0  0  0  0  0  0  0  0  0
  -30.2720   -3.0000    0.0000 H   0  0  0  0  0  0  0  0  0  0  0  0
  -33.9302   -6.5497    0.0000 H   0  0  0  0  0  0  0  0  0  0  0  0
  -31.4109   -7.1846    0.0000 H   0  0  0  0  0  0  0  0  0  0  0  0
  -27.3259   -2.8010    0.0000 H   0  0  0  0  0  0  0  0  0  0  0  0
  -25.2963    0.7425    0.0000 H   0  0  0  0  0  0  0  0  0  0  0  0
  -27.2203    0.6128    0.0000 H   0  0  0  0  0  0  0  0  0  0  0  0
  -23.7953   -2.2114    0.0000 H   0  0  0  0  0  0  0  0  0  0  0  0
  -25.7193   -2.3410    0.0000 H   0  0  0  0  0  0  0  0  0  0  0  0
  -22.1415   -2.4516    0.0000 H   0  0  0  0  0  0  0  0  0  0  0  0
  -22.0359    0.9622    0.0000 H   0  0  0  0  0  0  0  0  0  0  0  0
  -19.8736    2.5729    0.0000 H   0  0  0  0  0  0  0  0  0  0  0  0
  -21.4585    1.7529    0.0000 H   0  0  0  0  0  0  0  0  0  0  0  0
  -17.2740    0.2704    0.0000 H   0  0  0  0  0  0  0  0  0  0  0  0
  -18.3122   -0.5366    0.0000 H   0  0  0  0  0  0  0  0  0  0  0  0
  -17.3187    3.5835    0.0000 H   0  0  0  0  0  0  0  0  0  0  0  0
  -18.9917    2.9628    0.0000 H   0  0  0  0  0  0  0  0  0  0  0  0
  -15.3239    0.7978    0.0000 H   0  0  0  0  0  0  0  0  0  0  0  0
  -12.9836    4.2441    0.0000 H   0  0  0  0  0  0  0  0  0  0  0  0
  -13.4116    1.5922    0.0000 H   0  0  0  0  0  0  0  0  0  0  0  0
  -15.0816    5.7765    0.0000 H   0  0  0  0  0  0  0  0  0  0  0  0
  -17.4577    4.7258    0.0000 H   0  0  0  0  0  0  0  0  0  0  0  0
  -18.1402    1.5318    0.0000 H   0  0  0  0  0  0  0  0  0  0  0  0
  -18.0837   -1.7001    0.0000 H   0  0  0  0  0  0  0  0  0  0  0  0
  -14.7628   -2.5074    0.0000 H   0  0  0  0  0  0  0  0  0  0  0  0
  -14.8671   -0.7261    0.0000 H   0  0  0  0  0  0  0  0  0  0  0  0
  -17.3205   -4.3394    0.0000 H   0  0  0  0  0  0  0  0  0  0  0  0
  -17.8528   -2.6362    0.0000 H   0  0  0  0  0  0  0  0  0  0  0  0
  -14.1832   -1.9041    0.0000 H   0  0  0  0  0  0  0  0  0  0  0  0
  -14.2593    1.4863    0.0000 H   0  0  0  0  0  0  0  0  0  0  0  0
  -12.0970    3.0969    0.0000 H   0  0  0  0  0  0  0  0  0  0  0  0
  -13.8018    1.9315    0.0000 H   0  0  0  0  0  0  0  0  0  0  0  0
  -10.5356   -0.0125    0.0000 H   0  0  0  0  0  0  0  0  0  0  0  0
   -8.4733    2.8718    0.0000 H   0  0  0  0  0  0  0  0  0  0  0  0
   -9.5421    4.1076    0.0000 H   0  0  0  0  0  0  0  0  0  0  0  0
  -11.2151    3.4869    0.0000 H   0  0  0  0  0  0  0  0  0  0  0  0
   -9.0374   -0.6332    0.0000 H   0  0  0  0  0  0  0  0  0  0  0  0
   -8.0476    1.1792    0.0000 H   0  0  0  0  0  0  0  0  0  0  0  0
   -8.9078    2.1738    0.0000 H   0  0  0  0  0  0  0  0  0  0  0  0
  -10.3636    2.0559    0.0000 H   0  0  0  0  0  0  0  0  0  0  0  0
  -10.3071   -1.1760    0.0000 H   0  0  0  0  0  0  0  0  0  0  0  0
   -6.8956   -1.8241    0.0000 H   0  0  0  0  0  0  0  0  0  0  0  0
   -6.9820   -0.3495    0.0000 H   0  0  0  0  0  0  0  0  0  0  0  0
   -9.5439   -3.8153    0.0000 H   0  0  0  0  0  0  0  0  0  0  0  0
  -10.0762   -2.1121    0.0000 H   0  0  0  0  0  0  0  0  0  0  0  0
   -6.2734   -4.3466    0.0000 H   0  0  0  0  0  0  0  0  0  0  0  0
   -6.5941   -2.5912    0.0000 H   0  0  0  0  0  0  0  0  0  0  0  0
   -9.4934   -5.4857    0.0000 H   0  0  0  0  0  0  0  0  0  0  0  0
   -6.3756   -8.7306    0.0000 H   0  0  0  0  0  0  0  0  0  0  0  0
   -8.8712   -8.0082    0.0000 H   0  0  0  0  0  0  0  0  0  0  0  0
   -4.5021   -6.9306    0.0000 H   0  0  0  0  0  0  0  0  0  0  0  0
   -5.1243   -4.4081    0.0000 H   0  0  0  0  0  0  0  0  0  0  0  0
   -6.4066   -1.3800    0.0000 H   0  0  0  0  0  0  0  0  0  0  0  0
   -6.4827    2.0104    0.0000 H   0  0  0  0  0  0  0  0  0  0  0  0
   -4.3204    3.6210    0.0000 H   0  0  0  0  0  0  0  0  0  0  0  0
   -5.9053    2.8010    0.0000 H   0  0  0  0  0  0  0  0  0  0  0  0
   -1.7208    1.3186    0.0000 H   0  0  0  0  0  0  0  0  0  0  0  0
   -2.7590    0.5116    0.0000 H   0  0  0  0  0  0  0  0  0  0  0  0
   -1.7655    4.6317    0.0000 H   0  0  0  0  0  0  0  0  0  0  0  0
   -3.4386    4.0110    0.0000 H   0  0  0  0  0  0  0  0  0  0  0  0
    0.2293    1.8460    0.0000 H   0  0  0  0  0  0  0  0  0  0  0  0
    2.5696    5.2923    0.0000 H   0  0  0  0  0  0  0  0  0  0  0  0
    2.1416    2.6404    0.0000 H   0  0  0  0  0  0  0  0  0  0  0  0
    0.4716    6.8247    0.0000 H   0  0  0  0  0  0  0  0  0  0  0  0
   -1.9045    5.7740    0.0000 H   0  0  0  0  0  0  0  0  0  0  0  0
   -2.5870    2.5800    0.0000 H   0  0  0  0  0  0  0  0  0  0  0  0
   -2.5305   -0.6519    0.0000 H   0  0  0  0  0  0  0  0  0  0  0  0
    0.7904   -1.4593    0.0000 H   0  0  0  0  0  0  0  0  0  0  0  0
    0.6861    0.3221    0.0000 H   0  0  0  0  0  0  0  0  0  0  0  0
   -1.7673   -3.2912    0.0000 H   0  0  0  0  0  0  0  0  0  0  0  0
   -2.2996   -1.5881    0.0000 H   0  0  0  0  0  0  0  0  0  0  0  0
    1.3700   -0.8559    0.0000 H   0  0  0  0  0  0  0  0  0  0  0  0
    1.2938    2.5345    0.0000 H   0  0  0  0  0  0  0  0  0  0  0  0
    1.7514    2.9797    0.0000 H   0  0  0  0  0  0  0  0  0  0  0  0
    5.6163    3.7153    0.0000 H   0  0  0  0  0  0  0  0  0  0  0  0
    6.2202    2.1915    0.0000 H   0  0  0  0  0  0  0  0  0  0  0  0
    4.9025    1.0182    0.0000 H   0  0  0  0  0  0  0  0  0  0  0  0
    3.5341    5.6016    0.0000 H   0  0  0  0  0  0  0  0  0  0  0  0
    2.1742    4.4462    0.0000 H   0  0  0  0  0  0  0  0  0  0  0  0
    5.1880    5.9816    0.0000 H   0  0  0  0  0  0  0  0  0  0  0  0
    6.5772    4.6693    0.0000 H   0  0  0  0  0  0  0  0  0  0  0  0
    5.1921    2.9676    0.0000 H   0  0  0  0  0  0  0  0  0  0  0  0
    4.6428    3.1007    0.0000 H   0  0  0  0  0  0  0  0  0  0  0  0
    5.1682   -0.4280    0.0000 H   0  0  0  0  0  0  0  0  0  0  0  0
    5.8440   -1.7342    0.0000 H   0  0  0  0  0  0  0  0  0  0  0  0
    6.0822   -2.3118    0.0000 H   0  0  0  0  0  0  0  0  0  0  0  0
    6.8820   -3.1257    0.0000 H   0  0  0  0  0  0  0  0  0  0  0  0
    7.3453   -3.5204    0.0000 H   0  0  0  0  0  0  0  0  0  0  0  0
    8.6395   -4.2190    0.0000 H   0  0  0  0  0  0  0  0  0  0  0  0
    9.6101   -4.7630    0.0000 H   0  0  0  0  0  0  0  0  0  0  0  0
    4.9606   -1.5061    0.0000 H   0  0  0  0  0  0  0  0  0  0  0  0
    3.7912   -0.6456    0.0000 H   0  0  0  0  0  0  0  0  0  0  0  0
    4.0028    1.0122    0.0000 H   0  0  0  0  0  0  0  0  0  0  0  0
    5.6868    4.8795    0.0000 H   0  0  0  0  0  0  0  0  0  0  0  0
    6.2256    5.4037    0.0000 H   0  0  0  0  0  0  0  0  0  0  0  0
    6.4181    7.7189    0.0000 H   0  0  0  0  0  0  0  0  0  0  0  0
    5.8870    6.3405    0.0000 H   0  0  0  0  0  0  0  0  0  0  0  0
    9.5648    6.5384    0.0000 H   0  0  0  0  0  0  0  0  0  0  0  0
    9.1308   10.1765    0.0000 H   0  0  0  0  0  0  0  0  0  0  0  0
    7.3509   10.3032    0.0000 H   0  0  0  0  0  0  0  0  0  0  0  0
    6.7093    8.6381    0.0000 H   0  0  0  0  0  0  0  0  0  0  0  0
   10.2420    9.5962    0.0000 H   0  0  0  0  0  0  0  0  0  0  0  0
   11.3638    8.4012    0.0000 H   0  0  0  0  0  0  0  0  0  0  0  0
   10.5322    6.8013    0.0000 H   0  0  0  0  0  0  0  0  0  0  0  0
   10.2049    7.9909    0.0000 H   0  0  0  0  0  0  0  0  0  0  0  0
   11.3022    7.9702    0.0000 H   0  0  0  0  0  0  0  0  0  0  0  0
   14.0379    8.4963    0.0000 H   0  0  0  0  0  0  0  0  0  0  0  0
   13.9808    6.8634    0.0000 H   0  0  0  0  0  0  0  0  0  0  0  0
   13.1586   10.2898    0.0000 H   0  0  0  0  0  0  0  0  0  0  0  0
   15.5057    6.5271    0.0000 H   0  0  0  0  0  0  0  0  0  0  0  0
   15.9734    5.6821    0.0000 H   0  0  0  0  0  0  0  0  0  0  0  0
   18.3483    3.5509    0.0000 H   0  0  0  0  0  0  0  0  0  0  0  0
   17.1104    2.7448    0.0000 H   0  0  0  0  0  0  0  0  0  0  0  0
   18.0482    7.0105    0.0000 H   0  0  0  0  0  0  0  0  0  0  0  0
   16.4453    6.2263    0.0000 H   0  0  0  0  0  0  0  0  0  0  0  0
   20.6823    5.0004    0.0000 H   0  0  0  0  0  0  0  0  0  0  0  0
   19.1869    4.0267    0.0000 H   0  0  0  0  0  0  0  0  0  0  0  0
   19.2961    8.1220    0.0000 H   0  0  0  0  0  0  0  0  0  0  0  0
   23.7960    8.0883    0.0000 H   0  0  0  0  0  0  0  0  0  0  0  0
   21.5558    9.4041    0.0000 H   0  0  0  0  0  0  0  0  0  0  0  0
   23.7765    5.4902    0.0000 H   0  0  0  0  0  0  0  0  0  0  0  0
   21.5168    4.2081    0.0000 H   0  0  0  0  0  0  0  0  0  0  0  0
   17.7982    1.3430    0.0000 H   0  0  0  0  0  0  0  0  0  0  0  0
   15.8706   -2.8136    0.0000 H   0  0  0  0  0  0  0  0  0  0  0  0
   16.7653   -1.8591    0.0000 H   0  0  0  0  0  0  0  0  0  0  0  0
   14.5602   -3.9523    0.0000 H   0  0  0  0  0  0  0  0  0  0  0  0
   15.5149   -3.3273    0.0000 H   0  0  0  0  0  0  0  0  0  0  0  0
   12.6103   -4.6464    0.0000 H   0  0  0  0  0  0  0  0  0  0  0  0
   14.0235   -4.2394    0.0000 H   0  0  0  0  0  0  0  0  0  0  0  0
   11.5461   -4.9714    0.0000 H   0  0  0  0  0  0  0  0  0  0  0  0
   18.7539   -0.5224    0.0000 H   0  0  0  0  0  0  0  0  0  0  0  0
   18.6183    1.2569    0.0000 H   0  0  0  0  0  0  0  0  0  0  0  0
   17.2271    1.7535    0.0000 H   0  0  0  0  0  0  0  0  0  0  0  0
   19.1627    0.2628    0.0000 H   0  0  0  0  0  0  0  0  0  0  0  0
   18.0424   -2.9381    0.0000 H   0  0  0  0  0  0  0  0  0  0  0  0
   20.6078   -4.9399    0.0000 H   0  0  0  0  0  0  0  0  0  0  0  0
   21.2867   -3.2897    0.0000 H   0  0  0  0  0  0  0  0  0  0  0  0
   20.5185   -6.8464    0.0000 H   0  0  0  0  0  0  0  0  0  0  0  0
   17.6964   -8.4851    0.0000 H   0  0  0  0  0  0  0  0  0  0  0  0
   15.2658   -6.3075    0.0000 H   0  0  0  0  0  0  0  0  0  0  0  0
   21.3917   -4.6478    0.0000 H   0  0  0  0  0  0  0  0  0  0  0  0
   22.7942   -1.5601    0.0000 H   0  0  0  0  0  0  0  0  0  0  0  0
   25.5849   -1.1609    0.0000 H   0  0  0  0  0  0  0  0  0  0  0  0
   23.6575   -1.0983    0.0000 H   0  0  0  0  0  0  0  0  0  0  0  0
   27.6066   -1.0481    0.0000 H   0  0  0  0  0  0  0  0  0  0  0  0
   29.7104   -3.5428    0.0000 H   0  0  0  0  0  0  0  0  0  0  0  0
   28.1531   -6.2353    0.0000 H   0  0  0  0  0  0  0  0  0  0  0  0
   26.5513   -2.7372    0.0000 H   0  0  0  0  0  0  0  0  0  0  0  0
   25.2763   -5.8401    0.0000 H   0  0  0  0  0  0  0  0  0  0  0  0
   27.8417   -7.8419    0.0000 H   0  0  0  0  0  0  0  0  0  0  0  0
   28.5544   -6.3717    0.0000 H   0  0  0  0  0  0  0  0  0  0  0  0
   26.5321   -9.1007    0.0000 H   0  0  0  0  0  0  0  0  0  0  0  0
   28.6256   -7.5498    0.0000 H   0  0  0  0  0  0  0  0  0  0  0  0
   30.0281   -4.4620    0.0000 H   0  0  0  0  0  0  0  0  0  0  0  0
   30.8914   -4.0003    0.0000 H   0  0  0  0  0  0  0  0  0  0  0  0
   34.3133   -4.1898    0.0000 H   0  0  0  0  0  0  0  0  0  0  0  0
   34.4909   -5.4308    0.0000 H   0  0  0  0  0  0  0  0  0  0  0  0
   34.0182   -7.1515    0.0000 H   0  0  0  0  0  0  0  0  0  0  0  0
   32.5578   -7.3735    0.0000 H   0  0  0  0  0  0  0  0  0  0  0  0
  1  2  1  0
  2  3  1  0
  3  4  2  0
  4  5  1  0
  5  6  2  0
  6  7  1  0
  7  8  2  0
  7  9  1  0
  9 10  1  0
 10 11  1  0
 11 12  2  0
  9 13  1  0
 13 14  1  0
 14 15  2  0
 15 16  1  0
 16 17  2  0
 17 18  1  0
 16 19  1  0
 14 20  1  0
 20 21  1  0
 21 22  2  0
 22 23  1  0
 23 24  2  0
 24 25  1  0
 25 26  2  0
 25 27  1  0
  1 28  2  0
  1 29  1  0
 29 30  1  0
 30 31  1  0
 31 32  1  0
 32 33  2  0
 32 34  1  0
 34 35  1  0
 35 36  1  0
 36 37  1  0
 37 38  1  0
 38 39  1  0
 39 40  1  0
 40 41  2  3
 40 42  1  0
 35 43  1  0
 43 44  2  0
 43 45  1  0
 45 46  1  0
 46 47  1  0
 47 48  1  0
 48 49  1  0
 49 50  2  0
 49 51  1  0
 46 52  1  0
 52 53  2  0
 52 54  1  0
 54 55  1  0
 55 56  1  0
 56 57  1  0
 57 58  1  0
 57 59  1  0
 55 60  1  0
 60 61  2  0
 60 62  1  0
 62 63  1  0
 63 64  1  0
 64 65  1  0
 65 66  1  0
 66 67  1  0
 67 68  1  0
 68 69  2  3
 68 70  1  0
 63 71  1  0
 71 72  2  0
 71 73  1  0
 73 74  1  0
 74 75  1  0
 75 76  1  0
 76 77  1  0
 77 78  1  0
 78 79  1  0
 79 80  2  3
 79 81  1  0
 74 82  1  0
 82 83  2  0
 82 84  1  0
 84 85  1  0
 85 86  1  0
 86 87  1  0
 87 88  1  0
 88 89  2  0
 88 90  1  0
 85 91  1  0
 91 92  2  0
 91 93  1  0
 93 94  1  0
 94 95  1  0
 95 96  1  0
 95 97  1  0
 97 98  1  0
 94 99  1  0
 99100  2  0
 99101  1  0
102101  1  6
102103  1  0
103104  1  0
104105  1  0
105106  1  0
102107  1  0
102108  1  0
108109  2  0
108110  1  0
110111  1  0
111112  1  0
112113  1  0
113114  1  0
113115  1  0
111116  1  0
116117  2  0
116118  1  0
118119  1  0
119120  1  0
120121  1  0
119122  1  0
122123  2  0
122124  1  0
124125  1  0
125126  1  0
126127  1  0
127128  1  0
128129  1  0
129130  1  0
130131  2  3
130132  1  0
125133  1  0
133134  2  0
133135  1  0
135136  1  0
136137  1  0
137138  1  0
138139  1  0
139140  1  0
136141  1  0
136142  1  6
142143  2  0
142144  1  0
144145  1  0
145146  1  0
146147  1  0
147148  2  0
148149  1  0
149150  1  0
150151  2  0
145152  1  0
152153  2  0
152154  1  0
154155  1  0
155156  1  0
156157  1  0
157158  2  0
158159  1  0
159160  1  0
160161  2  0
155162  1  0
162163  2  0
162164  1  0
164165  1  0
165166  1  0
166167  1  0
165168  1  0
168169  2  0
168170  1  0
170171  1  0
171172  1  0
172173  1  0
172174  1  0
171175  1  0
175176  2  0
175177  1  0
  8  3  1  0
151147  1  0
161157  1  0
 11  6  1  0
106140  2  0
 18 13  2  0
 22  9  1  0
 26 21  1  0
  2178  1  0
  4179  1  0
  5180  1  0
  8181  1  0
 15182  1  0
 17183  1  0
 18184  1  0
 19185  1  0
 23186  1  0
 24187  1  0
 26188  1  0
 27189  1  0
 29190  1  0
 30191  1  0
 30192  1  0
 31193  1  0
 31194  1  0
 34195  1  0
 35196  1  1
 36197  1  0
 36198  1  0
 37199  1  0
 37200  1  0
 38201  1  0
 38202  1  0
 39203  1  0
 41204  1  0
 41205  1  0
 42206  1  0
 42207  1  0
 45208  1  0
 46209  1  6
 47210  1  0
 47211  1  0
 48212  1  0
 48213  1  0
 54214  1  0
 55215  1  1
 56216  1  0
 56217  1  0
 57218  1  0
 58219  1  0
 58220  1  0
 58221  1  0
 59222  1  0
 59223  1  0
 59224  1  0
 62225  1  0
 63226  1  6
 64227  1  0
 64228  1  0
 65229  1  0
 65230  1  0
 66231  1  0
 66232  1  0
 67233  1  0
 69234  1  0
 69235  1  0
 70236  1  0
 70237  1  0
 73238  1  0
 74239  1  1
 75240  1  0
 75241  1  0
 76242  1  0
 76243  1  0
 77244  1  0
 77245  1  0
 78246  1  0
 80247  1  0
 80248  1  0
 81249  1  0
 81250  1  0
 84251  1  0
 85252  1  6
 86253  1  0
 86254  1  0
 87255  1  0
 87256  1  0
 93257  1  0
 94258  1  1
 95259  1  1
 96260  1  0
 96261  1  0
 96262  1  0
 97263  1  0
 97264  1  0
 98265  1  0
 98266  1  0
 98267  1  0
101268  1  0
103269  1  0
103270  1  0
104271  1  0
104272  1  0
105273  1  0
105274  1  0
106275  1  0
107276  1  0
107277  1  0
107278  1  0
110279  1  0
111280  1  1
112281  1  0
112282  1  0
113283  1  0
114284  1  0
114285  1  0
114286  1  0
115287  1  0
115288  1  0
115289  1  0
118290  1  0
119291  1  1
120292  1  0
120293  1  0
121294  1  0
124295  1  0
125296  1  1
126297  1  0
126298  1  0
127299  1  0
127300  1  0
128301  1  0
128302  1  0
129303  1  0
131304  1  0
131305  1  0
132306  1  0
132307  1  0
135308  1  0
137309  1  0
137310  1  0
138311  1  0
138312  1  0
139313  1  0
139314  1  0
140315  1  0
141316  1  0
141317  1  0
141318  1  0
144319  1  0
145320  1  6
146321  1  0
146322  1  0
148323  1  0
149324  1  0
150325  1  0
154326  1  0
155327  1  1
156328  1  0
156329  1  0
158330  1  0
159331  1  0
160332  1  0
164333  1  0
165334  1  6
166335  1  0
166336  1  0
167337  1  0
170338  1  0
171339  1  1
172340  1  1
173341  1  0
174342  1  0
174343  1  0
174344  1  0
M  CHG  7  41   1  51  -1  69   1  80   1  90  -1 131   1 177  -1
M  END
