
     RDKit          2D

348355  0  0  0  0  0  0  0  0999 V2000
  -28.6777    0.0981    0.0000 C   0  0  0  0  0  0  0  0  0  0  0  0
  -29.9295   -0.7285    0.0000 N   0  0  0  0  0  0  0  0  0  0  0  0
  -31.2711   -0.0577    0.0000 C   0  0  0  0  0  0  0  0  0  0  0  0
  -31.3611    1.4396    0.0000 C   0  0  0  0  0  0  0  0  0  0  0  0
  -32.7027    2.1104    0.0000 C   0  0  0  0  0  0  0  0  0  0  0  0
  -33.9545    1.2839    0.0000 C   0  0  0  0  0  0  0  0  0  0  0  0
  -33.8645   -0.2134    0.0000 C   0  0  0  0  0  0  0  0  0  0  0  0
  -32.5229   -0.8842    0.0000 C   0  0  0  0  0  0  0  0  0  0  0  0
  -35.2608   -0.7616    0.0000 C   0  0  0  0  0  0  0  0  0  0  0  0
  -36.2136    0.3968    0.0000 O   0  0  0  0  0  0  0  0  0  0  0  0
  -35.4063    1.6610    0.0000 C   0  0  0  0  0  0  0  0  0  0  0  0
  -35.9545    3.0573    0.0000 O   0  0  0  0  0  0  0  0  0  0  0  0
  -36.7067   -1.1609    0.0000 C   0  0  0  0  0  0  0  0  0  0  0  0
  -37.0838   -2.6127    0.0000 C   0  0  0  0  0  0  0  0  0  0  0  0
  -38.5297   -3.0120    0.0000 C   0  0  0  0  0  0  0  0  0  0  0  0
  -39.5984   -1.9594    0.0000 C   0  0  0  0  0  0  0  0  0  0  0  0
  -39.2213   -0.5076    0.0000 C   0  0  0  0  0  0  0  0  0  0  0  0
  -37.7754   -0.1084    0.0000 C   0  0  0  0  0  0  0  0  0  0  0  0
  -41.0443   -2.3587    0.0000 O   0  0  0  0  0  0  0  0  0  0  0  0
  -36.0151   -3.6653    0.0000 O   0  0  0  0  0  0  0  0  0  0  0  0
  -34.5692   -3.2660    0.0000 C   0  0  0  0  0  0  0  0  0  0  0  0
  -34.1921   -1.8142    0.0000 C   0  0  0  0  0  0  0  0  0  0  0  0
  -32.9222   -2.0924    0.0000 C   0  0  0  0  0  0  0  0  0  0  0  0
  -32.3522   -2.6538    0.0000 C   0  0  0  0  0  0  0  0  0  0  0  0
  -32.5534   -3.4281    0.0000 C   0  0  0  0  0  0  0  0  0  0  0  0
  -33.3245   -3.6410    0.0000 C   0  0  0  0  0  0  0  0  0  0  0  0
  -30.9859   -4.9718    0.0000 O   0  0  0  0  0  0  0  0  0  0  0  0
  -28.7677    1.5954    0.0000 S   0  0  0  0  0  0  0  0  0  0  0  0
  -27.3361   -0.5727    0.0000 N   0  0  0  0  0  0  0  0  0  0  0  0
  -26.0843    0.2538    0.0000 C   0  0  0  0  0  0  0  0  0  0  0  0
  -24.7427   -0.4170    0.0000 C   0  0  0  0  0  0  0  0  0  0  0  0
  -23.4909    0.4096    0.0000 C   0  0  0  0  0  0  0  0  0  0  0  0
  -23.5809    1.9069    0.0000 O   0  0  0  0  0  0  0  0  0  0  0  0
  -22.1493   -0.2612    0.0000 N   0  0  0  0  0  0  0  0  0  0  0  0
  -20.8975    0.5653    0.0000 C   0  0  0  0  0  0  0  0  0  0  0  0
  -20.0040    1.7701    0.0000 C   0  0  0  0  0  0  0  0  0  0  0  0
  -18.5138    1.5987    0.0000 C   0  0  0  0  0  0  0  0  0  0  0  0
  -17.6202    2.8035    0.0000 C   0  0  0  0  0  0  0  0  0  0  0  0
  -16.4053    2.8128    0.0000 O   0  0  0  0  0  0  0  0  0  0  0  0
  -18.2168    4.1797    0.0000 O   0  0  0  0  0  0  0  0  0  0  0  0
  -19.5559   -0.1055    0.0000 C   0  0  0  0  0  0  0  0  0  0  0  0
  -19.4659   -1.6028    0.0000 O   0  0  0  0  0  0  0  0  0  0  0  0
  -18.3041    0.7211    0.0000 N   0  0  0  0  0  0  0  0  0  0  0  0
  -16.9625    0.0503    0.0000 C   0  0  0  0  0  0  0  0  0  0  0  0
  -15.9311   -1.0389    0.0000 C   0  0  0  0  0  0  0  0  0  0  0  0
  -16.3587   -2.4767    0.0000 C   0  0  0  0  0  0  0  0  0  0  0  0
  -15.3274   -3.5659    0.0000 C   0  0  0  0  0  0  0  0  0  0  0  0
  -15.7550   -5.0036    0.0000 N   0  0  0  0  0  0  0  0  0  0  0  0
  -14.7237   -6.0928    0.0000 C   0  0  0  0  0  0  0  0  0  0  0  0
  -15.1513   -7.5306    0.0000 N   0  0  0  0  0  0  0  0  0  0  0  0
  -13.2647   -5.7443    0.0000 N   0  0  0  0  0  0  0  0  0  0  0  0
  -15.7107    0.8768    0.0000 C   0  0  0  0  0  0  0  0  0  0  0  0
  -15.6352    2.0895    0.0000 O   0  0  0  0  0  0  0  0  0  0  0  0
  -14.3691    0.2060    0.0000 N   0  0  0  0  0  0  0  0  0  0  0  0
  -13.1173    1.0326    0.0000 C   0  0  0  0  0  0  0  0  0  0  0  0
  -12.2238    2.2374    0.0000 C   0  0  0  0  0  0  0  0  0  0  0  0
  -10.7336    2.0659    0.0000 C   0  0  0  0  0  0  0  0  0  0  0  0
   -9.8400    3.2707    0.0000 C   0  0  0  0  0  0  0  0  0  0  0  0
   -9.3919    1.3951    0.0000 C   0  0  0  0  0  0  0  0  0  0  0  0
  -11.7757    0.3618    0.0000 C   0  0  0  0  0  0  0  0  0  0  0  0
  -11.6857   -1.1355    0.0000 O   0  0  0  0  0  0  0  0  0  0  0  0
  -10.5239    1.1883    0.0000 N   0  0  0  0  0  0  0  0  0  0  0  0
   -9.1822    0.5175    0.0000 C   0  0  0  0  0  0  0  0  0  0  0  0
   -8.1509   -0.5717    0.0000 C   0  0  0  0  0  0  0  0  0  0  0  0
   -8.5785   -2.0094    0.0000 C   0  0  0  0  0  0  0  0  0  0  0  0
   -7.5472   -3.0986    0.0000 C   0  0  0  0  0  0  0  0  0  0  0  0
   -7.9748   -4.5364    0.0000 N   0  0  0  0  0  0  0  0  0  0  0  0
   -6.9435   -5.6256    0.0000 C   0  0  0  0  0  0  0  0  0  0  0  0
   -7.3711   -7.0633    0.0000 N   0  0  0  0  0  0  0  0  0  0  0  0
   -5.4845   -5.2770    0.0000 N   0  0  0  0  0  0  0  0  0  0  0  0
   -7.9305    1.3441    0.0000 C   0  0  0  0  0  0  0  0  0  0  0  0
   -7.8372    2.8412    0.0000 O   0  0  0  0  0  0  0  0  0  0  0  0
   -6.5888    0.6733    0.0000 N   0  0  0  0  0  0  0  0  0  0  0  0
   -5.3371    1.4998    0.0000 C   0  0  0  0  0  0  0  0  0  0  0  0
   -4.4435    2.7046    0.0000 C   0  0  0  0  0  0  0  0  0  0  0  0
   -2.9534    2.5332    0.0000 C   0  0  0  0  0  0  0  0  0  0  0  0
   -2.0598    3.7380    0.0000 C   0  0  0  0  0  0  0  0  0  0  0  0
   -0.5696    3.5665    0.0000 N   0  0  0  0  0  0  0  0  0  0  0  0
    0.3239    4.7713    0.0000 C   0  0  0  0  0  0  0  0  0  0  0  0
    1.8141    4.5999    0.0000 N   0  0  0  0  0  0  0  0  0  0  0  0
   -0.2727    6.1476    0.0000 N   0  0  0  0  0  0  0  0  0  0  0  0
   -3.9954    0.8290    0.0000 C   0  0  0  0  0  0  0  0  0  0  0  0
   -3.9055   -0.6683    0.0000 O   0  0  0  0  0  0  0  0  0  0  0  0
   -2.7437    1.6556    0.0000 N   0  0  0  0  0  0  0  0  0  0  0  0
   -1.4020    0.9848    0.0000 C   0  0  0  0  0  0  0  0  0  0  0  0
   -0.3707   -0.1044    0.0000 C   0  0  0  0  0  0  0  0  0  0  0  0
   -0.7983   -1.5422    0.0000 C   0  0  0  0  0  0  0  0  0  0  0  0
    0.2330   -2.6314    0.0000 C   0  0  0  0  0  0  0  0  0  0  0  0
   -0.1946   -4.0691    0.0000 N   0  0  0  0  0  0  0  0  0  0  0  0
    0.8367   -5.1583    0.0000 C   0  0  0  0  0  0  0  0  0  0  0  0
    0.4091   -6.5961    0.0000 N   0  0  0  0  0  0  0  0  0  0  0  0
    2.2957   -4.8098    0.0000 N   0  0  0  0  0  0  0  0  0  0  0  0
   -0.1503    1.8113    0.0000 C   0  0  0  0  0  0  0  0  0  0  0  0
    0.0502    2.8863    0.0000 O   0  0  0  0  0  0  0  0  0  0  0  0
    1.1914    1.1405    0.0000 N   0  0  0  0  0  0  0  0  0  0  0  0
    2.4431    1.9671    0.0000 C   0  0  0  0  0  0  0  0  0  0  0  0
    3.3367    3.1719    0.0000 C   0  0  0  0  0  0  0  0  0  0  0  0
    4.8366    3.1833    0.0000 C   0  0  0  0  0  0  0  0  0  0  0  0
    3.7643    4.6096    0.0000 C   0  0  0  0  0  0  0  0  0  0  0  0
    5.1698    5.1334    0.0000 C   0  0  0  0  0  0  0  0  0  0  0  0
    3.7848    1.2963    0.0000 C   0  0  0  0  0  0  0  0  0  0  0  0
    3.6915   -0.2008    0.0000 O   0  0  0  0  0  0  0  0  0  0  0  0
    5.0365    2.1228    0.0000 N   0  0  0  0  0  0  0  0  0  0  0  0
    6.3782    1.4520    0.0000 C   0  0  0  0  0  0  0  0  0  0  0  0
    6.7630    0.0022    0.0000 C   0  0  0  0  0  0  0  0  0  0  0  0
    7.5581   -1.2697    0.0000 C   0  0  0  0  0  0  0  0  0  0  0  0
    8.6927   -2.2508    0.0000 C   0  0  0  0  0  0  0  0  0  0  0  0
   10.0661   -2.8539    0.0000 C   0  0  0  0  0  0  0  0  0  0  0  0
    5.1082    0.6538    0.0000 C   0  0  0  0  0  0  0  0  0  0  0  0
    6.4378    2.9509    0.0000 C   0  0  0  0  0  0  0  0  0  0  0  0
    5.6790    3.1952    0.0000 O   0  0  0  0  0  0  0  0  0  0  0  0
    6.9365    4.3655    0.0000 N   0  0  0  0  0  0  0  0  0  0  0  0
    7.8301    5.5703    0.0000 C   0  0  0  0  0  0  0  0  0  0  0  0
    7.5180    7.0375    0.0000 C   0  0  0  0  0  0  0  0  0  0  0  0
    8.6326    8.0413    0.0000 C   0  0  0  0  0  0  0  0  0  0  0  0
    8.3205    9.5085    0.0000 N   0  0  0  0  0  0  0  0  0  0  0  0
   10.1305    8.1202    0.0000 O   0  0  0  0  0  0  0  0  0  0  0  0
    9.0391    6.4582    0.0000 C   0  0  0  0  0  0  0  0  0  0  0  0
    8.6833    7.9154    0.0000 O   0  0  0  0  0  0  0  0  0  0  0  0
   10.4561    6.9503    0.0000 N   0  0  0  0  0  0  0  0  0  0  0  0
   11.9551    7.0029    0.0000 C   0  0  0  0  0  0  0  0  0  0  0  0
   12.9076    8.1616    0.0000 C   0  0  0  0  0  0  0  0  0  0  0  0
   12.3804    9.5659    0.0000 S   0  0  0  0  0  0  0  0  0  0  0  0
   13.4031    6.6112    0.0000 C   0  0  0  0  0  0  0  0  0  0  0  0
   14.0062    7.9847    0.0000 O   0  0  0  0  0  0  0  0  0  0  0  0
   14.6713    5.8102    0.0000 N   0  0  0  0  0  0  0  0  0  0  0  0
   15.6471    4.6710    0.0000 C   0  0  0  0  0  0  0  0  0  0  0  0
   17.1469    4.6487    0.0000 C   0  0  0  0  0  0  0  0  0  0  0  0
   17.9161    5.9365    0.0000 C   0  0  0  0  0  0  0  0  0  0  0  0
   19.4159    5.9143    0.0000 C   0  0  0  0  0  0  0  0  0  0  0  0
   20.1851    7.2021    0.0000 N   0  0  0  0  0  0  0  0  0  0  0  0
   21.6849    7.1799    0.0000 C   0  0  0  0  0  0  0  0  0  0  0  0
   22.4541    8.4676    0.0000 N   0  0  0  0  0  0  0  0  0  0  0  0
   22.4156    5.8698    0.0000 N   0  0  0  0  0  0  0  0  0  0  0  0
   16.2437    3.2947    0.0000 C   0  0  0  0  0  0  0  0  0  0  0  0
   17.6935    3.6795    0.0000 O   0  0  0  0  0  0  0  0  0  0  0  0
   16.4081    1.8037    0.0000 N   0  0  0  0  0  0  0  0  0  0  0  0
   16.1258    0.3306    0.0000 C   0  0  0  0  0  0  0  0  0  0  0  0
   15.4218   -0.9940    0.0000 C   0  0  0  0  0  0  0  0  0  0  0  0
   14.3586   -2.0521    0.0000 C   0  0  0  0  0  0  0  0  0  0  0  0
   13.0308   -2.7499    0.0000 C   0  0  0  0  0  0  0  0  0  0  0  0
   11.5563   -3.0253    0.0000 C   0  0  0  0  0  0  0  0  0  0  0  0
   17.5847    0.6791    0.0000 C   0  0  0  0  0  0  0  0  0  0  0  0
   17.0436   -0.8559    0.0000 C   0  0  0  0  0  0  0  0  0  0  0  0
   16.8277   -2.3403    0.0000 O   0  0  0  0  0  0  0  0  0  0  0  0
   18.5300   -0.6544    0.0000 N   0  0  0  0  0  0  0  0  0  0  0  0
   19.4477   -1.8408    0.0000 C   0  0  0  0  0  0  0  0  0  0  0  0
   19.9043   -3.2696    0.0000 C   0  0  0  0  0  0  0  0  0  0  0  0
   18.8952   -4.3795    0.0000 C   0  0  0  0  0  0  0  0  0  0  0  0
   19.2000   -5.8482    0.0000 C   0  0  0  0  0  0  0  0  0  0  0  0
   17.8973   -6.5919    0.0000 N   0  0  0  0  0  0  0  0  0  0  0  0
   16.7875   -5.5828    0.0000 C   0  0  0  0  0  0  0  0  0  0  0  0
   17.4042   -4.2155    0.0000 N   0  0  0  0  0  0  0  0  0  0  0  0
   20.9341   -1.6393    0.0000 C   0  0  0  0  0  0  0  0  0  0  0  0
   21.5027   -0.2512    0.0000 O   0  0  0  0  0  0  0  0  0  0  0  0
   21.8519   -2.8257    0.0000 N   0  0  0  0  0  0  0  0  0  0  0  0
   23.3383   -2.6242    0.0000 C   0  0  0  0  0  0  0  0  0  0  0  0
   24.6661   -1.9264    0.0000 C   0  0  0  0  0  0  0  0  0  0  0  0
   25.9343   -2.7274    0.0000 C   0  0  0  0  0  0  0  0  0  0  0  0
   27.3278   -2.1723    0.0000 C   0  0  0  0  0  0  0  0  0  0  0  0
   28.2864   -3.3260    0.0000 N   0  0  0  0  0  0  0  0  0  0  0  0
   27.4853   -4.5942    0.0000 C   0  0  0  0  0  0  0  0  0  0  0  0
   26.0317   -4.2243    0.0000 N   0  0  0  0  0  0  0  0  0  0  0  0
   24.2560   -3.8107    0.0000 C   0  0  0  0  0  0  0  0  0  0  0  0
   23.6874   -5.1987    0.0000 O   0  0  0  0  0  0  0  0  0  0  0  0
   25.7424   -3.6091    0.0000 N   0  0  0  0  0  0  0  0  0  0  0  0
   26.6602   -4.7956    0.0000 C   0  0  0  0  0  0  0  0  0  0  0  0
   27.1168   -6.2244    0.0000 C   0  0  0  0  0  0  0  0  0  0  0  0
   26.1077   -7.3342    0.0000 O   0  0  0  0  0  0  0  0  0  0  0  0
   28.1466   -4.5940    0.0000 C   0  0  0  0  0  0  0  0  0  0  0  0
   29.0342   -3.3848    0.0000 O   0  0  0  0  0  0  0  0  0  0  0  0
   29.0643   -5.7805    0.0000 N   0  0  0  0  0  0  0  0  0  0  0  0
   30.5507   -5.5789    0.0000 C   0  0  0  0  0  0  0  0  0  0  0  0
   31.8785   -4.8811    0.0000 C   0  0  0  0  0  0  0  0  0  0  0  0
   32.8876   -3.7713    0.0000 O   0  0  0  0  0  0  0  0  0  0  0  0
   33.1467   -5.6821    0.0000 C   0  0  0  0  0  0  0  0  0  0  0  0
   31.4685   -6.7654    0.0000 C   0  0  0  0  0  0  0  0  0  0  0  0
   32.9684   -6.7465    0.0000 O   0  0  0  0  0  0  0  0  0  0  0  0
   30.8998   -8.1534    0.0000 O   0  0  0  0  0  0  0  0  0  0  0  0
  -29.6577   -2.2036    0.0000 H   0  0  0  0  0  0  0  0  0  0  0  0
  -30.1093    2.2661    0.0000 H   0  0  0  0  0  0  0  0  0  0  0  0
  -32.7926    3.6077    0.0000 H   0  0  0  0  0  0  0  0  0  0  0  0
  -32.0733   -2.3153    0.0000 H   0  0  0  0  0  0  0  0  0  0  0  0
  -38.9069   -4.4638    0.0000 H   0  0  0  0  0  0  0  0  0  0  0  0
  -40.2900    0.5449    0.0000 H   0  0  0  0  0  0  0  0  0  0  0  0
  -37.3982    1.3434    0.0000 H   0  0  0  0  0  0  0  0  0  0  0  0
  -42.1130   -1.3062    0.0000 H   0  0  0  0  0  0  0  0  0  0  0  0
  -32.3690    0.0369    0.0000 H   0  0  0  0  0  0  0  0  0  0  0  0
  -30.1937   -2.2474    0.0000 H   0  0  0  0  0  0  0  0  0  0  0  0
  -33.8777   -5.7703    0.0000 H   0  0  0  0  0  0  0  0  0  0  0  0
  -31.3631   -6.4236    0.0000 H   0  0  0  0  0  0  0  0  0  0  0  0
  -27.2462   -2.0700    0.0000 H   0  0  0  0  0  0  0  0  0  0  0  0
  -25.1908    1.4586    0.0000 H   0  0  0  0  0  0  0  0  0  0  0  0
  -27.1157    1.3430    0.0000 H   0  0  0  0  0  0  0  0  0  0  0  0
  -23.7113   -1.5062    0.0000 H   0  0  0  0  0  0  0  0  0  0  0  0
  -25.6362   -1.6218    0.0000 H   0  0  0  0  0  0  0  0  0  0  0  0
  -22.0593   -1.7585    0.0000 H   0  0  0  0  0  0  0  0  0  0  0  0
  -21.9289    1.6545    0.0000 H   0  0  0  0  0  0  0  0  0  0  0  0
  -19.5764    3.2079    0.0000 H   0  0  0  0  0  0  0  0  0  0  0  0
  -21.3456    2.4409    0.0000 H   0  0  0  0  0  0  0  0  0  0  0  0
  -17.1721    0.9279    0.0000 H   0  0  0  0  0  0  0  0  0  0  0  0
  -18.2162    0.1285    0.0000 H   0  0  0  0  0  0  0  0  0  0  0  0
  -18.0291    2.1956    0.0000 H   0  0  0  0  0  0  0  0  0  0  0  0
  -17.9962   -1.0366    0.0000 H   0  0  0  0  0  0  0  0  0  0  0  0
  -14.5895   -1.7097    0.0000 H   0  0  0  0  0  0  0  0  0  0  0  0
  -14.7726   -0.0861    0.0000 H   0  0  0  0  0  0  0  0  0  0  0  0
  -17.2523   -3.6815    0.0000 H   0  0  0  0  0  0  0  0  0  0  0  0
  -17.7722   -1.9744    0.0000 H   0  0  0  0  0  0  0  0  0  0  0  0
  -13.9857   -4.2366    0.0000 H   0  0  0  0  0  0  0  0  0  0  0  0
  -14.2936   -2.4790    0.0000 H   0  0  0  0  0  0  0  0  0  0  0  0
  -17.2140   -5.3522    0.0000 H   0  0  0  0  0  0  0  0  0  0  0  0
  -14.1200   -8.6198    0.0000 H   0  0  0  0  0  0  0  0  0  0  0  0
  -16.6102   -7.8791    0.0000 H   0  0  0  0  0  0  0  0  0  0  0  0
  -12.2334   -6.8335    0.0000 H   0  0  0  0  0  0  0  0  0  0  0  0
  -12.8371   -4.3065    0.0000 H   0  0  0  0  0  0  0  0  0  0  0  0
  -14.0973   -1.2691    0.0000 H   0  0  0  0  0  0  0  0  0  0  0  0
  -14.1486    2.1218    0.0000 H   0  0  0  0  0  0  0  0  0  0  0  0
  -11.9746    3.7165    0.0000 H   0  0  0  0  0  0  0  0  0  0  0  0
  -13.5654    2.9081    0.0000 H   0  0  0  0  0  0  0  0  0  0  0  0
  -10.4360    0.5957    0.0000 H   0  0  0  0  0  0  0  0  0  0  0  0
   -8.3526    3.4650    0.0000 H   0  0  0  0  0  0  0  0  0  0  0  0
   -9.4124    4.7085    0.0000 H   0  0  0  0  0  0  0  0  0  0  0  0
  -11.0899    4.1000    0.0000 H   0  0  0  0  0  0  0  0  0  0  0  0
   -8.9424   -0.0359    0.0000 H   0  0  0  0  0  0  0  0  0  0  0  0
   -7.9393    1.7692    0.0000 H   0  0  0  0  0  0  0  0  0  0  0  0
   -8.7922    2.7701    0.0000 H   0  0  0  0  0  0  0  0  0  0  0  0
  -10.2489    2.6629    0.0000 H   0  0  0  0  0  0  0  0  0  0  0  0
  -10.2160   -0.5694    0.0000 H   0  0  0  0  0  0  0  0  0  0  0  0
   -6.8093   -1.2424    0.0000 H   0  0  0  0  0  0  0  0  0  0  0  0
   -6.8849    0.2328    0.0000 H   0  0  0  0  0  0  0  0  0  0  0  0
   -9.4721   -3.2142    0.0000 H   0  0  0  0  0  0  0  0  0  0  0  0
   -9.9919   -1.5072    0.0000 H   0  0  0  0  0  0  0  0  0  0  0  0
   -6.2055   -3.7694    0.0000 H   0  0  0  0  0  0  0  0  0  0  0  0
   -6.5134   -2.0117    0.0000 H   0  0  0  0  0  0  0  0  0  0  0  0
   -9.4337   -4.8849    0.0000 H   0  0  0  0  0  0  0  0  0  0  0  0
   -6.3397   -8.1525    0.0000 H   0  0  0  0  0  0  0  0  0  0  0  0
   -8.8300   -7.4119    0.0000 H   0  0  0  0  0  0  0  0  0  0  0  0
   -4.4532   -6.3662    0.0000 H   0  0  0  0  0  0  0  0  0  0  0  0
   -5.0569   -3.8393    0.0000 H   0  0  0  0  0  0  0  0  0  0  0  0
   -6.3171   -0.8019    0.0000 H   0  0  0  0  0  0  0  0  0  0  0  0
   -6.3684    2.5890    0.0000 H   0  0  0  0  0  0  0  0  0  0  0  0
   -4.1944    4.1838    0.0000 H   0  0  0  0  0  0  0  0  0  0  0  0
   -5.7852    3.3754    0.0000 H   0  0  0  0  0  0  0  0  0  0  0  0
   -1.6117    1.8624    0.0000 H   0  0  0  0  0  0  0  0  0  0  0  0
   -2.6558    1.0630    0.0000 H   0  0  0  0  0  0  0  0  0  0  0  0
   -1.6322    5.1757    0.0000 H   0  0  0  0  0  0  0  0  0  0  0  0
   -3.3097    4.5673    0.0000 H   0  0  0  0  0  0  0  0  0  0  0  0
    0.3423    2.3755    0.0000 H   0  0  0  0  0  0  0  0  0  0  0  0
    2.7077    5.8047    0.0000 H   0  0  0  0  0  0  0  0  0  0  0  0
    2.2602    3.1559    0.0000 H   0  0  0  0  0  0  0  0  0  0  0  0
    0.6209    7.3524    0.0000 H   0  0  0  0  0  0  0  0  0  0  0  0
   -1.7629    6.3190    0.0000 H   0  0  0  0  0  0  0  0  0  0  0  0
   -2.4686    3.1301    0.0000 H   0  0  0  0  0  0  0  0  0  0  0  0
   -2.4358   -0.1021    0.0000 H   0  0  0  0  0  0  0  0  0  0  0  0
    0.9710   -0.7752    0.0000 H   0  0  0  0  0  0  0  0  0  0  0  0
    0.7878    0.8484    0.0000 H   0  0  0  0  0  0  0  0  0  0  0  0
   -1.6919   -2.7470    0.0000 H   0  0  0  0  0  0  0  0  0  0  0  0
   -2.2117   -1.0399    0.0000 H   0  0  0  0  0  0  0  0  0  0  0  0
    1.5747   -3.3021    0.0000 H   0  0  0  0  0  0  0  0  0  0  0  0
    1.2668   -1.5445    0.0000 H   0  0  0  0  0  0  0  0  0  0  0  0
   -1.6535   -4.4177    0.0000 H   0  0  0  0  0  0  0  0  0  0  0  0
    1.4405   -7.6853    0.0000 H   0  0  0  0  0  0  0  0  0  0  0  0
   -1.0498   -6.9446    0.0000 H   0  0  0  0  0  0  0  0  0  0  0  0
    3.3270   -5.8990    0.0000 H   0  0  0  0  0  0  0  0  0  0  0  0
    2.7233   -3.3720    0.0000 H   0  0  0  0  0  0  0  0  0  0  0  0
    1.4631   -0.3346    0.0000 H   0  0  0  0  0  0  0  0  0  0  0  0
    1.4118    3.0563    0.0000 H   0  0  0  0  0  0  0  0  0  0  0  0
    1.8726    3.4981    0.0000 H   0  0  0  0  0  0  0  0  0  0  0  0
    5.7428    4.2054    0.0000 H   0  0  0  0  0  0  0  0  0  0  0  0
    6.3355    2.6773    0.0000 H   0  0  0  0  0  0  0  0  0  0  0  0
    5.0092    1.5136    0.0000 H   0  0  0  0  0  0  0  0  0  0  0  0
    3.6744    6.1069    0.0000 H   0  0  0  0  0  0  0  0  0  0  0  0
    2.3061    4.9614    0.0000 H   0  0  0  0  0  0  0  0  0  0  0  0
    5.3310    6.4748    0.0000 H   0  0  0  0  0  0  0  0  0  0  0  0
    6.7106    5.1524    0.0000 H   0  0  0  0  0  0  0  0  0  0  0  0
    5.3131    3.4609    0.0000 H   0  0  0  0  0  0  0  0  0  0  0  0
    4.7647    3.5980    0.0000 H   0  0  0  0  0  0  0  0  0  0  0  0
    5.2643    0.0655    0.0000 H   0  0  0  0  0  0  0  0  0  0  0  0
    5.9306   -1.2456    0.0000 H   0  0  0  0  0  0  0  0  0  0  0  0
    6.1646   -1.8250    0.0000 H   0  0  0  0  0  0  0  0  0  0  0  0
    6.9584   -2.6446    0.0000 H   0  0  0  0  0  0  0  0  0  0  0  0
    7.4188   -3.0427    0.0000 H   0  0  0  0  0  0  0  0  0  0  0  0
    8.7079   -3.7507    0.0000 H   0  0  0  0  0  0  0  0  0  0  0  0
    9.6745   -4.3019    0.0000 H   0  0  0  0  0  0  0  0  0  0  0  0
    5.0489   -1.0110    0.0000 H   0  0  0  0  0  0  0  0  0  0  0  0
    3.8859   -0.1420    0.0000 H   0  0  0  0  0  0  0  0  0  0  0  0
    4.1095    1.5142    0.0000 H   0  0  0  0  0  0  0  0  0  0  0  0
    5.8217    5.3691    0.0000 H   0  0  0  0  0  0  0  0  0  0  0  0
    6.3644    5.8893    0.0000 H   0  0  0  0  0  0  0  0  0  0  0  0
    6.7229    8.3094    0.0000 H   0  0  0  0  0  0  0  0  0  0  0  0
    6.0326    6.8286    0.0000 H   0  0  0  0  0  0  0  0  0  0  0  0
    9.4351   10.5124    0.0000 H   0  0  0  0  0  0  0  0  0  0  0  0
    6.8938    9.9718    0.0000 H   0  0  0  0  0  0  0  0  0  0  0  0
   10.3624    8.4474    0.0000 H   0  0  0  0  0  0  0  0  0  0  0  0
   11.2907    8.3477    0.0000 H   0  0  0  0  0  0  0  0  0  0  0  0
   14.1990    8.9247    0.0000 H   0  0  0  0  0  0  0  0  0  0  0  0
   14.1301    7.2923    0.0000 H   0  0  0  0  0  0  0  0  0  0  0  0
   13.3329   10.7247    0.0000 H   0  0  0  0  0  0  0  0  0  0  0  0
   15.6524    6.9449    0.0000 H   0  0  0  0  0  0  0  0  0  0  0  0
   16.1139    6.0965    0.0000 H   0  0  0  0  0  0  0  0  0  0  0  0
   18.4732    3.9480    0.0000 H   0  0  0  0  0  0  0  0  0  0  0  0
   17.2294    3.1510    0.0000 H   0  0  0  0  0  0  0  0  0  0  0  0
   18.1984    7.4097    0.0000 H   0  0  0  0  0  0  0  0  0  0  0  0
   16.5898    6.6373    0.0000 H   0  0  0  0  0  0  0  0  0  0  0  0
   20.8177    5.3804    0.0000 H   0  0  0  0  0  0  0  0  0  0  0  0
   19.3153    4.4177    0.0000 H   0  0  0  0  0  0  0  0  0  0  0  0
   19.4544    8.5121    0.0000 H   0  0  0  0  0  0  0  0  0  0  0  0
   23.9539    8.4454    0.0000 H   0  0  0  0  0  0  0  0  0  0  0  0
   21.7234    9.7776    0.0000 H   0  0  0  0  0  0  0  0  0  0  0  0
   23.9154    5.8476    0.0000 H   0  0  0  0  0  0  0  0  0  0  0  0
   21.6464    4.5821    0.0000 H   0  0  0  0  0  0  0  0  0  0  0  0
   17.9069    1.7441    0.0000 H   0  0  0  0  0  0  0  0  0  0  0  0
   15.9490   -2.3982    0.0000 H   0  0  0  0  0  0  0  0  0  0  0  0
   16.8507   -1.4502    0.0000 H   0  0  0  0  0  0  0  0  0  0  0  0
   14.6304   -3.5273    0.0000 H   0  0  0  0  0  0  0  0  0  0  0  0
   15.5896   -2.9093    0.0000 H   0  0  0  0  0  0  0  0  0  0  0  0
   12.6754   -4.2072    0.0000 H   0  0  0  0  0  0  0  0  0  0  0  0
   14.0916   -3.8105    0.0000 H   0  0  0  0  0  0  0  0  0  0  0  0
   11.6089   -4.5244    0.0000 H   0  0  0  0  0  0  0  0  0  0  0  0
   18.8490   -0.1282    0.0000 H   0  0  0  0  0  0  0  0  0  0  0  0
   18.7264    1.6521    0.0000 H   0  0  0  0  0  0  0  0  0  0  0  0
   17.3389    2.1588    0.0000 H   0  0  0  0  0  0  0  0  0  0  0  0
   19.2635    0.6540    0.0000 H   0  0  0  0  0  0  0  0  0  0  0  0
   18.1199   -2.5386    0.0000 H   0  0  0  0  0  0  0  0  0  0  0  0
   20.6706   -4.5591    0.0000 H   0  0  0  0  0  0  0  0  0  0  0  0
   21.3615   -2.9139    0.0000 H   0  0  0  0  0  0  0  0  0  0  0  0
   20.5673   -6.4649    0.0000 H   0  0  0  0  0  0  0  0  0  0  0  0
   17.7333   -8.0829    0.0000 H   0  0  0  0  0  0  0  0  0  0  0  0
   15.3188   -5.8876    0.0000 H   0  0  0  0  0  0  0  0  0  0  0  0
   21.4567   -4.2727    0.0000 H   0  0  0  0  0  0  0  0  0  0  0  0
   22.8816   -1.1954    0.0000 H   0  0  0  0  0  0  0  0  0  0  0  0
   25.6752   -0.8165    0.0000 H   0  0  0  0  0  0  0  0  0  0  0  0
   23.7483   -0.7399    0.0000 H   0  0  0  0  0  0  0  0  0  0  0  0
   27.6977   -0.7186    0.0000 H   0  0  0  0  0  0  0  0  0  0  0  0
   29.7832   -3.2286    0.0000 H   0  0  0  0  0  0  0  0  0  0  0  0
   28.2062   -5.9096    0.0000 H   0  0  0  0  0  0  0  0  0  0  0  0
   26.6300   -2.3999    0.0000 H   0  0  0  0  0  0  0  0  0  0  0  0
   25.3324   -5.4933    0.0000 H   0  0  0  0  0  0  0  0  0  0  0  0
   27.8831   -7.5139    0.0000 H   0  0  0  0  0  0  0  0  0  0  0  0
   28.6065   -6.0489    0.0000 H   0  0  0  0  0  0  0  0  0  0  0  0
   26.5643   -8.7630    0.0000 H   0  0  0  0  0  0  0  0  0  0  0  0
   28.6691   -7.2275    0.0000 H   0  0  0  0  0  0  0  0  0  0  0  0
   30.0941   -4.1501    0.0000 H   0  0  0  0  0  0  0  0  0  0  0  0
   30.9608   -3.6946    0.0000 H   0  0  0  0  0  0  0  0  0  0  0  0
   34.3813   -3.9092    0.0000 H   0  0  0  0  0  0  0  0  0  0  0  0
   34.5497   -5.1514    0.0000 H   0  0  0  0  0  0  0  0  0  0  0  0
   34.0645   -6.8686    0.0000 H   0  0  0  0  0  0  0  0  0  0  0  0
   32.6025   -7.0799    0.0000 H   0  0  0  0  0  0  0  0  0  0  0  0
  1  2  1  0
  2  3  1  0
  3  4  2  0
  4  5  1  0
  5  6  2  0
  6  7  1  0
  7  8  2  0
  7  9  1  0
  9 10  1  0
 10 11  1  0
 11 12  2  0
  9 13  1  0
 13 14  1  0
 14 15  2  0
 15 16  1  0
 16 17  2  0
 17 18  1  0
 16 19  1  0
 14 20  1  0
 20 21  1  0
 21 22  2  0
 22 23  1  0
 23 24  2  0
 24 25  1  0
 25 26  2  0
 25 27  1  0
  1 28  2  0
  1 29  1  0
 29 30  1  0
 30 31  1  0
 31 32  1  0
 32 33  2  0
 32 34  1  0
 34 35  1  0
 35 36  1  0
 36 37  1  0
 37 38  1  0
 38 39  2  0
 38 40  1  0
 35 41  1  0
 41 42  2  0
 41 43  1  0
 43 44  1  0
 44 45  1  0
 45 46  1  0
 46 47  1  0
 47 48  1  0
 48 49  1  0
 49 50  2  3
 49 51  1  0
 44 52  1  0
 52 53  2  0
 52 54  1  0
 54 55  1  0
 55 56  1  0
 56 57  1  0
 57 58  1  0
 57 59  1  0
 55 60  1  0
 60 61  2  0
 60 62  1  0
 62 63  1  0
 63 64  1  0
 64 65  1  0
 65 66  1  0
 66 67  1  0
 67 68  1  0
 68 69  2  3
 68 70  1  0
 63 71  1  0
 71 72  2  0
 71 73  1  0
 73 74  1  0
 74 75  1  0
 75 76  1  0
 76 77  1  0
 77 78  1  0
 78 79  1  0
 79 80  2  3
 79 81  1  0
 74 82  1  0
 82 83  2  0
 82 84  1  0
 84 85  1  0
 85 86  1  0
 86 87  1  0
 87 88  1  0
 88 89  1  0
 89 90  1  0
 90 91  2  3
 90 92  1  0
 85 93  1  0
 93 94  2  0
 93 95  1  0
 95 96  1  0
 96 97  1  0
 97 98  1  0
 97 99  1  0
 99100  1  0
 96101  1  0
101102  2  0
101103  1  0
104103  1  6
104105  1  0
105106  1  0
106107  1  0
107108  1  0
104109  1  0
104110  1  0
110111  2  0
110112  1  0
112113  1  0
113114  1  0
114115  1  0
115116  1  0
115117  2  0
113118  1  0
118119  2  0
118120  1  0
120121  1  0
121122  1  0
122123  1  0
121124  1  0
124125  2  0
124126  1  0
126127  1  0
127128  1  0
128129  1  0
129130  1  0
130131  1  0
131132  1  0
132133  2  3
132134  1  0
127135  1  0
135136  2  0
135137  1  0
137138  1  0
138139  1  0
139140  1  0
140141  1  0
141142  1  0
138143  1  0
138144  1  6
144145  2  0
144146  1  0
146147  1  0
147148  1  0
148149  1  0
149150  2  0
150151  1  0
151152  1  0
152153  2  0
147154  1  0
154155  2  0
154156  1  0
156157  1  0
157158  1  0
158159  1  0
159160  2  0
160161  1  0
161162  1  0
162163  2  0
157164  1  0
164165  2  0
164166  1  0
166167  1  0
167168  1  0
168169  1  0
167170  1  0
170171  2  0
170172  1  0
172173  1  0
173174  1  0
174175  1  0
174176  1  0
173177  1  0
177178  2  0
177179  1  0
  8  3  1  0
153149  1  0
163159  1  0
 11  6  1  0
108142  2  0
 18 13  2  0
 22  9  1  0
 26 21  1  0
  2180  1  0
  4181  1  0
  5182  1  0
  8183  1  0
 15184  1  0
 17185  1  0
 18186  1  0
 19187  1  0
 23188  1  0
 24189  1  0
 26190  1  0
 27191  1  0
 29192  1  0
 30193  1  0
 30194  1  0
 31195  1  0
 31196  1  0
 34197  1  0
 35198  1  1
 36199  1  0
 36200  1  0
 37201  1  0
 37202  1  0
 43203  1  0
 44204  1  6
 45205  1  0
 45206  1  0
 46207  1  0
 46208  1  0
 47209  1  0
 47210  1  0
 48211  1  0
 50212  1  0
 50213  1  0
 51214  1  0
 51215  1  0
 54216  1  0
 55217  1  1
 56218  1  0
 56219  1  0
 57220  1  0
 58221  1  0
 58222  1  0
 58223  1  0
 59224  1  0
 59225  1  0
 59226  1  0
 62227  1  0
 63228  1  6
 64229  1  0
 64230  1  0
 65231  1  0
 65232  1  0
 66233  1  0
 66234  1  0
 67235  1  0
 69236  1  0
 69237  1  0
 70238  1  0
 70239  1  0
 73240  1  0
 74241  1  1
 75242  1  0
 75243  1  0
 76244  1  0
 76245  1  0
 77246  1  0
 77247  1  0
 78248  1  0
 80249  1  0
 80250  1  0
 81251  1  0
 81252  1  0
 84253  1  0
 85254  1  6
 86255  1  0
 86256  1  0
 87257  1  0
 87258  1  0
 88259  1  0
 88260  1  0
 89261  1  0
 91262  1  0
 91263  1  0
 92264  1  0
 92265  1  0
 95266  1  0
 96267  1  1
 97268  1  1
 98269  1  0
 98270  1  0
 98271  1  0
 99272  1  0
 99273  1  0
100274  1  0
100275  1  0
100276  1  0
103277  1  0
105278  1  0
105279  1  0
106280  1  0
106281  1  0
107282  1  0
107283  1  0
108284  1  0
109285  1  0
109286  1  0
109287  1  0
112288  1  0
113289  1  6
114290  1  0
114291  1  0
116292  1  0
116293  1  0
120294  1  0
121295  1  1
122296  1  0
122297  1  0
123298  1  0
126299  1  0
127300  1  1
128301  1  0
128302  1  0
129303  1  0
129304  1  0
130305  1  0
130306  1  0
131307  1  0
133308  1  0
133309  1  0
134310  1  0
134311  1  0
137312  1  0
139313  1  0
139314  1  0
140315  1  0
140316  1  0
141317  1  0
141318  1  0
142319  1  0
143320  1  0
143321  1  0
143322  1  0
146323  1  0
147324  1  6
148325  1  0
148326  1  0
150327  1  0
151328  1  0
152329  1  0
156330  1  0
157331  1  1
158332  1  0
158333  1  0
160334  1  0
161335  1  0
162336  1  0
166337  1  0
167338  1  6
168339  1  0
168340  1  0
169341  1  0
172342  1  0
173343  1  1
174344  1  1
175345  1  0
176346  1  0
176347  1  0
176348  1  0
M  CHG  7  40  -1  50   1  69   1  80   1  91   1 133   1 179  -1
M  END
