
     RDKit          2D

464469  0  0  0  0  0  0  0  0999 V2000
   30.4120  -12.6758    0.0000 C   0  0  0  0  0  0  0  0  0  0  0  0
   31.2220  -13.9383    0.0000 N   0  0  0  0  0  0  0  0  0  0  0  0
   30.5335  -15.2710    0.0000 C   0  0  0  0  0  0  0  0  0  0  0  0
   29.0352  -15.3412    0.0000 C   0  0  0  0  0  0  0  0  0  0  0  0
   28.3468  -16.6739    0.0000 C   0  0  0  0  0  0  0  0  0  0  0  0
   29.1567  -17.9364    0.0000 C   0  0  0  0  0  0  0  0  0  0  0  0
   30.6550  -17.8663    0.0000 C   0  0  0  0  0  0  0  0  0  0  0  0
   31.3435  -16.5336    0.0000 C   0  0  0  0  0  0  0  0  0  0  0  0
   31.1848  -19.2696    0.0000 C   0  0  0  0  0  0  0  0  0  0  0  0
   30.0138  -20.2071    0.0000 O   0  0  0  0  0  0  0  0  0  0  0  0
   28.7604  -19.3831    0.0000 C   0  0  0  0  0  0  0  0  0  0  0  0
   27.3570  -19.9128    0.0000 O   0  0  0  0  0  0  0  0  0  0  0  0
   31.5649  -20.7206    0.0000 C   0  0  0  0  0  0  0  0  0  0  0  0
   33.0116  -21.1169    0.0000 C   0  0  0  0  0  0  0  0  0  0  0  0
   33.3918  -22.5680    0.0000 C   0  0  0  0  0  0  0  0  0  0  0  0
   32.3252  -23.6227    0.0000 C   0  0  0  0  0  0  0  0  0  0  0  0
   30.8785  -23.2264    0.0000 C   0  0  0  0  0  0  0  0  0  0  0  0
   30.4984  -21.7754    0.0000 C   0  0  0  0  0  0  0  0  0  0  0  0
   32.7054  -25.0737    0.0000 O   0  0  0  0  0  0  0  0  0  0  0  0
   34.0782  -20.0622    0.0000 O   0  0  0  0  0  0  0  0  0  0  0  0
   33.6980  -18.6112    0.0000 C   0  0  0  0  0  0  0  0  0  0  0  0
   32.2513  -18.2149    0.0000 C   0  0  0  0  0  0  0  0  0  0  0  0
   32.5463  -16.9488    0.0000 C   0  0  0  0  0  0  0  0  0  0  0  0
   33.1152  -16.3863    0.0000 C   0  0  0  0  0  0  0  0  0  0  0  0
   33.8867  -16.5976    0.0000 C   0  0  0  0  0  0  0  0  0  0  0  0
   34.0895  -17.3715    0.0000 C   0  0  0  0  0  0  0  0  0  0  0  0
   35.4510  -15.0507    0.0000 O   0  0  0  0  0  0  0  0  0  0  0  0
   28.9137  -12.7459    0.0000 S   0  0  0  0  0  0  0  0  0  0  0  0
   31.1005  -11.3431    0.0000 N   0  0  0  0  0  0  0  0  0  0  0  0
   30.2905  -10.0806    0.0000 C   0  0  0  0  0  0  0  0  0  0  0  0
   30.9790   -8.7479    0.0000 C   0  0  0  0  0  0  0  0  0  0  0  0
   30.1690   -7.4853    0.0000 C   0  0  0  0  0  0  0  0  0  0  0  0
   29.3832   -7.6194    0.0000 O   0  0  0  0  0  0  0  0  0  0  0  0
   30.8575   -6.1526    0.0000 N   0  0  0  0  0  0  0  0  0  0  0  0
   30.0475   -4.8901    0.0000 C   0  0  0  0  0  0  0  0  0  0  0  0
   28.9448   -5.9070    0.0000 C   0  0  0  0  0  0  0  0  0  0  0  0
   29.0933   -7.3996    0.0000 O   0  0  0  0  0  0  0  0  0  0  0  0
   29.7183   -3.4267    0.0000 C   0  0  0  0  0  0  0  0  0  0  0  0
   28.2208   -3.3399    0.0000 O   0  0  0  0  0  0  0  0  0  0  0  0
   30.8210   -2.4098    0.0000 N   0  0  0  0  0  0  0  0  0  0  0  0
   30.4917   -0.9464    0.0000 C   0  0  0  0  0  0  0  0  0  0  0  0
   29.3267   -1.8913    0.0000 C   0  0  0  0  0  0  0  0  0  0  0  0
   28.0040   -2.5986    0.0000 C   0  0  0  0  0  0  0  0  0  0  0  0
   26.5712   -3.0428    0.0000 C   0  0  0  0  0  0  0  0  0  0  0  0
   25.0804   -3.2079    0.0000 C   0  0  0  0  0  0  0  0  0  0  0  0
   23.5852   -3.0878    0.0000 C   0  0  0  0  0  0  0  0  0  0  0  0
   22.1397   -2.6869    0.0000 C   0  0  0  0  0  0  0  0  0  0  0  0
   20.7963   -2.0197    0.0000 C   0  0  0  0  0  0  0  0  0  0  0  0
   31.9491   -1.3012    0.0000 C   0  0  0  0  0  0  0  0  0  0  0  0
   31.4568    0.2019    0.0000 C   0  0  0  0  0  0  0  0  0  0  0  0
   32.7863   -0.4928    0.0000 O   0  0  0  0  0  0  0  0  0  0  0  0
   32.1872    1.5121    0.0000 N   0  0  0  0  0  0  0  0  0  0  0  0
   32.6564    2.9368    0.0000 C   0  0  0  0  0  0  0  0  0  0  0  0
   34.0743    3.4262    0.0000 C   0  0  0  0  0  0  0  0  0  0  0  0
   35.2071    2.4430    0.0000 C   0  0  0  0  0  0  0  0  0  0  0  0
   36.6250    2.9325    0.0000 C   0  0  0  0  0  0  0  0  0  0  0  0
   37.7579    1.9492    0.0000 O   0  0  0  0  0  0  0  0  0  0  0  0
   36.9101    4.4051    0.0000 O   0  0  0  0  0  0  0  0  0  0  0  0
   32.8475    4.4246    0.0000 C   0  0  0  0  0  0  0  0  0  0  0  0
   34.3415    4.5589    0.0000 O   0  0  0  0  0  0  0  0  0  0  0  0
   32.7536    5.9216    0.0000 N   0  0  0  0  0  0  0  0  0  0  0  0
   32.3781    7.3738    0.0000 C   0  0  0  0  0  0  0  0  0  0  0  0
   33.3063    8.5522    0.0000 C   0  0  0  0  0  0  0  0  0  0  0  0
   34.7908    8.3375    0.0000 C   0  0  0  0  0  0  0  0  0  0  0  0
   35.7190    9.5158    0.0000 C   0  0  0  0  0  0  0  0  0  0  0  0
   36.1124    7.6280    0.0000 C   0  0  0  0  0  0  0  0  0  0  0  0
   31.7345    8.7288    0.0000 C   0  0  0  0  0  0  0  0  0  0  0  0
   32.9187    9.6494    0.0000 O   0  0  0  0  0  0  0  0  0  0  0  0
   30.8461    9.9374    0.0000 N   0  0  0  0  0  0  0  0  0  0  0  0
   29.7450   10.9561    0.0000 C   0  0  0  0  0  0  0  0  0  0  0  0
   29.8889   12.4492    0.0000 C   0  0  0  0  0  0  0  0  0  0  0  0
   31.2538   13.0712    0.0000 C   0  0  0  0  0  0  0  0  0  0  0  0
   28.4711   11.7479    0.0000 C   0  0  0  0  0  0  0  0  0  0  0  0
   28.9696   13.1627    0.0000 O   0  0  0  0  0  0  0  0  0  0  0  0
   27.0703   12.2844    0.0000 N   0  0  0  0  0  0  0  0  0  0  0  0
   25.5933   12.5461    0.0000 C   0  0  0  0  0  0  0  0  0  0  0  0
   24.9071   13.8799    0.0000 C   0  0  0  0  0  0  0  0  0  0  0  0
   24.0935   12.5235    0.0000 C   0  0  0  0  0  0  0  0  0  0  0  0
   23.7480   13.9832    0.0000 O   0  0  0  0  0  0  0  0  0  0  0  0
   22.6250   12.2175    0.0000 N   0  0  0  0  0  0  0  0  0  0  0  0
   21.2410   11.6391    0.0000 C   0  0  0  0  0  0  0  0  0  0  0  0
   19.9426   12.3902    0.0000 C   0  0  0  0  0  0  0  0  0  0  0  0
   19.9438   13.8902    0.0000 C   0  0  0  0  0  0  0  0  0  0  0  0
   18.6454   14.6412    0.0000 C   0  0  0  0  0  0  0  0  0  0  0  0
   18.6466   16.1412    0.0000 O   0  0  0  0  0  0  0  0  0  0  0  0
   17.3458   13.8923    0.0000 O   0  0  0  0  0  0  0  0  0  0  0  0
   19.9915   10.8093    0.0000 C   0  0  0  0  0  0  0  0  0  0  0  0
   18.9117   11.8504    0.0000 O   0  0  0  0  0  0  0  0  0  0  0  0
   18.9216    9.7579    0.0000 N   0  0  0  0  0  0  0  0  0  0  0  0
   18.0700    8.5231    0.0000 C   0  0  0  0  0  0  0  0  0  0  0  0
   16.5716    8.4530    0.0000 C   0  0  0  0  0  0  0  0  0  0  0  0
   17.4675    7.1494    0.0000 C   0  0  0  0  0  0  0  0  0  0  0  0
   15.9962    7.4415    0.0000 O   0  0  0  0  0  0  0  0  0  0  0  0
   17.1358    5.6866    0.0000 N   0  0  0  0  0  0  0  0  0  0  0  0
   17.0870    4.1873    0.0000 C   0  0  0  0  0  0  0  0  0  0  0  0
   17.3228    2.7060    0.0000 C   0  0  0  0  0  0  0  0  0  0  0  0
   17.8347    1.2960    0.0000 C   0  0  0  0  0  0  0  0  0  0  0  0
   18.6041    0.0084    0.0000 C   0  0  0  0  0  0  0  0  0  0  0  0
   19.6034   -1.1103    0.0000 C   0  0  0  0  0  0  0  0  0  0  0  0
   15.7654    4.8968    0.0000 C   0  0  0  0  0  0  0  0  0  0  0  0
   15.8644    3.3183    0.0000 C   0  0  0  0  0  0  0  0  0  0  0  0
   15.6403    1.8351    0.0000 O   0  0  0  0  0  0  0  0  0  0  0  0
   14.5005    3.9425    0.0000 N   0  0  0  0  0  0  0  0  0  0  0  0
   13.2779    3.0734    0.0000 C   0  0  0  0  0  0  0  0  0  0  0  0
   12.4263    1.8386    0.0000 C   0  0  0  0  0  0  0  0  0  0  0  0
   10.9311    1.9587    0.0000 C   0  0  0  0  0  0  0  0  0  0  0  0
   10.0795    0.7239    0.0000 N   0  0  0  0  0  0  0  0  0  0  0  0
    9.9788    3.1176    0.0000 O   0  0  0  0  0  0  0  0  0  0  0  0
   11.9140    3.6976    0.0000 C   0  0  0  0  0  0  0  0  0  0  0  0
   11.7726    5.1910    0.0000 O   0  0  0  0  0  0  0  0  0  0  0  0
   10.6914    2.8286    0.0000 N   0  0  0  0  0  0  0  0  0  0  0  0
    9.3275    3.4528    0.0000 C   0  0  0  0  0  0  0  0  0  0  0  0
    8.2593    4.5059    0.0000 C   0  0  0  0  0  0  0  0  0  0  0  0
    6.8132    4.1074    0.0000 C   0  0  0  0  0  0  0  0  0  0  0  0
    5.7450    5.1604    0.0000 C   0  0  0  0  0  0  0  0  0  0  0  0
    5.5906    3.2383    0.0000 C   0  0  0  0  0  0  0  0  0  0  0  0
    8.1049    2.5837    0.0000 C   0  0  0  0  0  0  0  0  0  0  0  0
    8.0632    1.0843    0.0000 O   0  0  0  0  0  0  0  0  0  0  0  0
    6.7410    3.2079    0.0000 N   0  0  0  0  0  0  0  0  0  0  0  0
    5.5184    2.3389    0.0000 C   0  0  0  0  0  0  0  0  0  0  0  0
    4.6668    1.1040    0.0000 C   0  0  0  0  0  0  0  0  0  0  0  0
    3.2279    0.6802    0.0000 S   0  0  0  0  0  0  0  0  0  0  0  0
    4.1544    2.9631    0.0000 C   0  0  0  0  0  0  0  0  0  0  0  0
    3.6559    4.3778    0.0000 O   0  0  0  0  0  0  0  0  0  0  0  0
    2.9319    2.0940    0.0000 N   0  0  0  0  0  0  0  0  0  0  0  0
    1.5679    2.7182    0.0000 C   0  0  0  0  0  0  0  0  0  0  0  0
    0.4998    3.7713    0.0000 C   0  0  0  0  0  0  0  0  0  0  0  0
   -0.7779    4.5572    0.0000 O   0  0  0  0  0  0  0  0  0  0  0  0
    0.8777    5.2229    0.0000 C   0  0  0  0  0  0  0  0  0  0  0  0
    0.3454    1.8492    0.0000 C   0  0  0  0  0  0  0  0  0  0  0  0
    0.4867    0.3558    0.0000 O   0  0  0  0  0  0  0  0  0  0  0  0
   -1.0186    2.4734    0.0000 N   0  0  0  0  0  0  0  0  0  0  0  0
   -2.2412    1.6043    0.0000 C   0  0  0  0  0  0  0  0  0  0  0  0
   -3.0928    0.3695    0.0000 C   0  0  0  0  0  0  0  0  0  0  0  0
   -4.5879    0.4896    0.0000 C   0  0  0  0  0  0  0  0  0  0  0  0
   -5.4395   -0.7452    0.0000 C   0  0  0  0  0  0  0  0  0  0  0  0
   -5.9519    1.1138    0.0000 C   0  0  0  0  0  0  0  0  0  0  0  0
   -3.6051    2.2285    0.0000 C   0  0  0  0  0  0  0  0  0  0  0  0
   -3.7465    3.7219    0.0000 O   0  0  0  0  0  0  0  0  0  0  0  0
   -4.8277    1.3595    0.0000 N   0  0  0  0  0  0  0  0  0  0  0  0
   -6.1916    1.9837    0.0000 C   0  0  0  0  0  0  0  0  0  0  0  0
   -7.2598    3.0368    0.0000 C   0  0  0  0  0  0  0  0  0  0  0  0
   -6.8819    4.4884    0.0000 C   0  0  0  0  0  0  0  0  0  0  0  0
   -7.9501    5.5415    0.0000 C   0  0  0  0  0  0  0  0  0  0  0  0
   -6.0303    5.7232    0.0000 C   0  0  0  0  0  0  0  0  0  0  0  0
   -7.4142    1.1146    0.0000 C   0  0  0  0  0  0  0  0  0  0  0  0
   -7.4559   -0.3848    0.0000 O   0  0  0  0  0  0  0  0  0  0  0  0
   -8.7781    1.7388    0.0000 N   0  0  0  0  0  0  0  0  0  0  0  0
  -10.0007    0.8698    0.0000 C   0  0  0  0  0  0  0  0  0  0  0  0
  -10.8523   -0.3651    0.0000 C   0  0  0  0  0  0  0  0  0  0  0  0
  -12.3475   -0.2450    0.0000 C   0  0  0  0  0  0  0  0  0  0  0  0
  -13.1991   -1.4798    0.0000 C   0  0  0  0  0  0  0  0  0  0  0  0
  -14.6977   -1.5428    0.0000 O   0  0  0  0  0  0  0  0  0  0  0  0
  -12.5555   -2.8347    0.0000 O   0  0  0  0  0  0  0  0  0  0  0  0
  -11.3646    1.4940    0.0000 C   0  0  0  0  0  0  0  0  0  0  0  0
  -11.5060    2.9873    0.0000 O   0  0  0  0  0  0  0  0  0  0  0  0
  -12.5872    0.6249    0.0000 N   0  0  0  0  0  0  0  0  0  0  0  0
  -13.9511    1.2491    0.0000 C   0  0  0  0  0  0  0  0  0  0  0  0
  -15.0193    2.3022    0.0000 C   0  0  0  0  0  0  0  0  0  0  0  0
  -14.6414    3.7538    0.0000 C   0  0  0  0  0  0  0  0  0  0  0  0
  -15.7096    4.8069    0.0000 N   0  0  0  0  0  0  0  0  0  0  0  0
  -13.1953    4.1524    0.0000 O   0  0  0  0  0  0  0  0  0  0  0  0
  -15.1737    0.3801    0.0000 C   0  0  0  0  0  0  0  0  0  0  0  0
  -15.2154   -1.1194    0.0000 O   0  0  0  0  0  0  0  0  0  0  0  0
  -16.5377    1.0043    0.0000 N   0  0  0  0  0  0  0  0  0  0  0  0
  -17.7602    0.1352    0.0000 C   0  0  0  0  0  0  0  0  0  0  0  0
  -18.6118   -1.0996    0.0000 C   0  0  0  0  0  0  0  0  0  0  0  0
  -19.1242    0.7594    0.0000 C   0  0  0  0  0  0  0  0  0  0  0  0
  -19.2655    2.2528    0.0000 O   0  0  0  0  0  0  0  0  0  0  0  0
  -20.3467   -0.1096    0.0000 N   0  0  0  0  0  0  0  0  0  0  0  0
  -21.7107    0.5146    0.0000 C   0  0  0  0  0  0  0  0  0  0  0  0
  -22.7789    1.5677    0.0000 C   0  0  0  0  0  0  0  0  0  0  0  0
  -22.2268    2.9624    0.0000 C   0  0  0  0  0  0  0  0  0  0  0  0
  -24.1428    2.1919    0.0000 C   0  0  0  0  0  0  0  0  0  0  0  0
  -24.2842    3.6852    0.0000 C   0  0  0  0  0  0  0  0  0  0  0  0
  -22.9333   -0.3545    0.0000 C   0  0  0  0  0  0  0  0  0  0  0  0
  -22.7919   -1.8478    0.0000 O   0  0  0  0  0  0  0  0  0  0  0  0
  -24.2972    0.2697    0.0000 N   0  0  0  0  0  0  0  0  0  0  0  0
  -25.5198   -0.5993    0.0000 C   0  0  0  0  0  0  0  0  0  0  0  0
  -26.3714   -1.8342    0.0000 C   0  0  0  0  0  0  0  0  0  0  0  0
  -27.8666   -1.7141    0.0000 C   0  0  0  0  0  0  0  0  0  0  0  0
  -28.7181   -2.9489    0.0000 C   0  0  0  0  0  0  0  0  0  0  0  0
  -30.2168   -3.0119    0.0000 N   0  0  0  0  0  0  0  0  0  0  0  0
  -28.0746   -4.3038    0.0000 O   0  0  0  0  0  0  0  0  0  0  0  0
  -26.8837    0.0249    0.0000 C   0  0  0  0  0  0  0  0  0  0  0  0
  -27.0251    1.5182    0.0000 O   0  0  0  0  0  0  0  0  0  0  0  0
  -28.1063   -0.8442    0.0000 N   0  0  0  0  0  0  0  0  0  0  0  0
  -29.4702   -0.2200    0.0000 C   0  0  0  0  0  0  0  0  0  0  0  0
  -30.5384    0.8331    0.0000 C   0  0  0  0  0  0  0  0  0  0  0  0
  -30.1605    2.2847    0.0000 C   0  0  0  0  0  0  0  0  0  0  0  0
  -31.2287    3.3378    0.0000 O   0  0  0  0  0  0  0  0  0  0  0  0
  -28.7144    2.6833    0.0000 O   0  0  0  0  0  0  0  0  0  0  0  0
  -30.6928   -1.0890    0.0000 C   0  0  0  0  0  0  0  0  0  0  0  0
  -30.7345   -2.5885    0.0000 O   0  0  0  0  0  0  0  0  0  0  0  0
  -32.0567   -0.4648    0.0000 N   0  0  0  0  0  0  0  0  0  0  0  0
  -33.2793   -1.3339    0.0000 C   0  0  0  0  0  0  0  0  0  0  0  0
  -34.1309   -2.5687    0.0000 C   0  0  0  0  0  0  0  0  0  0  0  0
  -34.5088   -4.0203    0.0000 O   0  0  0  0  0  0  0  0  0  0  0  0
  -35.6296   -2.6318    0.0000 C   0  0  0  0  0  0  0  0  0  0  0  0
  -34.6432   -0.7097    0.0000 C   0  0  0  0  0  0  0  0  0  0  0  0
  -34.7846    0.7837    0.0000 O   0  0  0  0  0  0  0  0  0  0  0  0
  -35.8658   -1.5788    0.0000 N   0  0  0  0  0  0  0  0  0  0  0  0
  -37.2298   -0.9545    0.0000 C   0  0  0  0  0  0  0  0  0  0  0  0
  -38.2979    0.0986    0.0000 C   0  0  0  0  0  0  0  0  0  0  0  0
  -37.9200    1.5502    0.0000 C   0  0  0  0  0  0  0  0  0  0  0  0
  -38.4523   -1.8236    0.0000 C   0  0  0  0  0  0  0  0  0  0  0  0
  -38.3110   -3.3169    0.0000 O   0  0  0  0  0  0  0  0  0  0  0  0
  -39.8163   -1.1994    0.0000 N   0  0  0  0  0  0  0  0  0  0  0  0
  -41.0388   -2.0685    0.0000 C   0  0  0  0  0  0  0  0  0  0  0  0
  -41.8904   -3.3033    0.0000 C   0  0  0  0  0  0  0  0  0  0  0  0
  -43.3856   -3.1832    0.0000 C   0  0  0  0  0  0  0  0  0  0  0  0
  -44.2372   -4.4180    0.0000 C   0  0  0  0  0  0  0  0  0  0  0  0
  -45.7324   -4.2979    0.0000 N   0  0  0  0  0  0  0  0  0  0  0  0
  -46.5840   -5.5327    0.0000 C   0  0  0  0  0  0  0  0  0  0  0  0
  -48.0534   -5.2313    0.0000 N   0  0  0  0  0  0  0  0  0  0  0  0
  -45.9404   -6.8876    0.0000 N   0  0  0  0  0  0  0  0  0  0  0  0
  -42.4028   -1.4442    0.0000 C   0  0  0  0  0  0  0  0  0  0  0  0
  -42.5441    0.0491    0.0000 O   0  0  0  0  0  0  0  0  0  0  0  0
  -43.6254   -2.3133    0.0000 N   0  0  0  0  0  0  0  0  0  0  0  0
  -44.9893   -1.6891    0.0000 C   0  0  0  0  0  0  0  0  0  0  0  0
  -46.0575   -0.6360    0.0000 C   0  0  0  0  0  0  0  0  0  0  0  0
  -45.6796    0.8156    0.0000 C   0  0  0  0  0  0  0  0  0  0  0  0
  -46.7478    1.8687    0.0000 C   0  0  0  0  0  0  0  0  0  0  0  0
  -46.3698    3.3203    0.0000 O   0  0  0  0  0  0  0  0  0  0  0  0
  -48.1938    1.4702    0.0000 O   0  0  0  0  0  0  0  0  0  0  0  0
  -46.2119   -2.5582    0.0000 C   0  0  0  0  0  0  0  0  0  0  0  0
  -46.4361   -4.0413    0.0000 O   0  0  0  0  0  0  0  0  0  0  0  0
  -47.5758   -1.9339    0.0000 N   0  0  0  0  0  0  0  0  0  0  0  0
  -48.7984   -2.8030    0.0000 C   0  0  0  0  0  0  0  0  0  0  0  0
  -49.6500   -4.0378    0.0000 C   0  0  0  0  0  0  0  0  0  0  0  0
  -51.1452   -3.9177    0.0000 C   0  0  0  0  0  0  0  0  0  0  0  0
  -51.9968   -5.1525    0.0000 C   0  0  0  0  0  0  0  0  0  0  0  0
  -53.4919   -5.0325    0.0000 N   0  0  0  0  0  0  0  0  0  0  0  0
  -51.3532   -6.5075    0.0000 O   0  0  0  0  0  0  0  0  0  0  0  0
  -50.1623   -2.1788    0.0000 C   0  0  0  0  0  0  0  0  0  0  0  0
  -51.4817   -2.8923    0.0000 O   0  0  0  0  0  0  0  0  0  0  0  0
  -50.3037   -0.6854    0.0000 O   0  0  0  0  0  0  0  0  0  0  0  0
   32.7006  -13.6861    0.0000 H   0  0  0  0  0  0  0  0  0  0  0  0
   28.2253  -14.0786    0.0000 H   0  0  0  0  0  0  0  0  0  0  0  0
   26.8484  -16.7440    0.0000 H   0  0  0  0  0  0  0  0  0  0  0  0
   32.7803  -16.1029    0.0000 H   0  0  0  0  0  0  0  0  0  0  0  0
   34.8385  -22.9643    0.0000 H   0  0  0  0  0  0  0  0  0  0  0  0
   29.8120  -24.2811    0.0000 H   0  0  0  0  0  0  0  0  0  0  0  0
   29.0517  -21.3791    0.0000 H   0  0  0  0  0  0  0  0  0  0  0  0
   31.6388  -26.1285    0.0000 H   0  0  0  0  0  0  0  0  0  0  0  0
   30.4245  -16.3675    0.0000 H   0  0  0  0  0  0  0  0  0  0  0  0
   32.7373  -14.2226    0.0000 H   0  0  0  0  0  0  0  0  0  0  0  0
   36.2113  -17.9527    0.0000 H   0  0  0  0  0  0  0  0  0  0  0  0
   36.8977  -15.4470    0.0000 H   0  0  0  0  0  0  0  0  0  0  0  0
   32.5988  -11.2729    0.0000 H   0  0  0  0  0  0  0  0  0  0  0  0
   29.1878  -11.0974    0.0000 H   0  0  0  0  0  0  0  0  0  0  0  0
   29.0976   -9.1712    0.0000 H   0  0  0  0  0  0  0  0  0  0  0  0
   32.1719   -9.6573    0.0000 H   0  0  0  0  0  0  0  0  0  0  0  0
   32.0817   -7.7310    0.0000 H   0  0  0  0  0  0  0  0  0  0  0  0
   32.3558   -6.0825    0.0000 H   0  0  0  0  0  0  0  0  0  0  0  0
   31.4315   -4.3117    0.0000 H   0  0  0  0  0  0  0  0  0  0  0  0
   27.5608   -6.4853    0.0000 H   0  0  0  0  0  0  0  0  0  0  0  0
   28.1349   -4.6444    0.0000 H   0  0  0  0  0  0  0  0  0  0  0  0
   28.1714   -8.3872    0.0000 H   0  0  0  0  0  0  0  0  0  0  0  0
   32.1879   -3.0276    0.0000 H   0  0  0  0  0  0  0  0  0  0  0  0
   30.4991   -2.8270    0.0000 H   0  0  0  0  0  0  0  0  0  0  0  0
   29.1900   -3.3850    0.0000 H   0  0  0  0  0  0  0  0  0  0  0  0
   28.8317   -3.8495    0.0000 H   0  0  0  0  0  0  0  0  0  0  0  0
   27.7658   -4.0796    0.0000 H   0  0  0  0  0  0  0  0  0  0  0  0
   27.6055   -4.1293    0.0000 H   0  0  0  0  0  0  0  0  0  0  0  0
   26.2327   -4.5041    0.0000 H   0  0  0  0  0  0  0  0  0  0  0  0
   25.7303   -4.5597    0.0000 H   0  0  0  0  0  0  0  0  0  0  0  0
   24.4713   -4.5787    0.0000 H   0  0  0  0  0  0  0  0  0  0  0  0
   23.9676   -4.5382    0.0000 H   0  0  0  0  0  0  0  0  0  0  0  0
   22.7277   -4.3185    0.0000 H   0  0  0  0  0  0  0  0  0  0  0  0
   22.2407   -4.1835    0.0000 H   0  0  0  0  0  0  0  0  0  0  0  0
   20.9453   -3.5943    0.0000 H   0  0  0  0  0  0  0  0  0  0  0  0
   20.0044   -3.2936    0.0000 H   0  0  0  0  0  0  0  0  0  0  0  0
   32.5429   -2.6787    0.0000 H   0  0  0  0  0  0  0  0  0  0  0  0
   33.4490   -1.3191    0.0000 H   0  0  0  0  0  0  0  0  0  0  0  0
   32.4048    0.1279    0.0000 H   0  0  0  0  0  0  0  0  0  0  0  0
   33.4772    0.7466    0.0000 H   0  0  0  0  0  0  0  0  0  0  0  0
   33.5883    1.7613    0.0000 H   0  0  0  0  0  0  0  0  0  0  0  0
   35.3458    4.2221    0.0000 H   0  0  0  0  0  0  0  0  0  0  0  0
   33.6850    4.8748    0.0000 H   0  0  0  0  0  0  0  0  0  0  0  0
   35.9354    1.1316    0.0000 H   0  0  0  0  0  0  0  0  0  0  0  0
   34.3054    1.2443    0.0000 H   0  0  0  0  0  0  0  0  0  0  0  0
   38.3280    4.8946    0.0000 H   0  0  0  0  0  0  0  0  0  0  0  0
   34.2527    5.9751    0.0000 H   0  0  0  0  0  0  0  0  0  0  0  0
   33.7975    6.8888    0.0000 H   0  0  0  0  0  0  0  0  0  0  0  0
   33.7755    9.9769    0.0000 H   0  0  0  0  0  0  0  0  0  0  0  0
   32.1956    9.5604    0.0000 H   0  0  0  0  0  0  0  0  0  0  0  0
   34.6803    6.8416    0.0000 H   0  0  0  0  0  0  0  0  0  0  0  0
   37.2187    9.4837    0.0000 H   0  0  0  0  0  0  0  0  0  0  0  0
   36.1882   10.9405    0.0000 H   0  0  0  0  0  0  0  0  0  0  0  0
   34.4938   10.3811    0.0000 H   0  0  0  0  0  0  0  0  0  0  0  0
   37.4744    8.2565    0.0000 H   0  0  0  0  0  0  0  0  0  0  0  0
   37.1117    6.5093    0.0000 H   0  0  0  0  0  0  0  0  0  0  0  0
   35.1842    6.4497    0.0000 H   0  0  0  0  0  0  0  0  0  0  0  0
   32.0783   10.7928    0.0000 H   0  0  0  0  0  0  0  0  0  0  0  0
   31.2014   11.3154    0.0000 H   0  0  0  0  0  0  0  0  0  0  0  0
   29.6931   13.9363    0.0000 H   0  0  0  0  0  0  0  0  0  0  0  0
   28.4094   12.6968    0.0000 H   0  0  0  0  0  0  0  0  0  0  0  0
   31.3976   14.5643    0.0000 H   0  0  0  0  0  0  0  0  0  0  0  0
   32.7492   13.1888    0.0000 H   0  0  0  0  0  0  0  0  0  0  0  0
   31.9696   11.7530    0.0000 H   0  0  0  0  0  0  0  0  0  0  0  0
   27.4712   13.7298    0.0000 H   0  0  0  0  0  0  0  0  0  0  0  0
   26.4837   13.7533    0.0000 H   0  0  0  0  0  0  0  0  0  0  0  0
   25.7191   15.1411    0.0000 H   0  0  0  0  0  0  0  0  0  0  0  0
   23.9384   15.0252    0.0000 H   0  0  0  0  0  0  0  0  0  0  0  0
   23.5286   13.2884    0.0000 H   0  0  0  0  0  0  0  0  0  0  0  0
   22.3588   13.6937    0.0000 H   0  0  0  0  0  0  0  0  0  0  0  0
   21.5191   13.1131    0.0000 H   0  0  0  0  0  0  0  0  0  0  0  0
   18.5085   12.8299    0.0000 H   0  0  0  0  0  0  0  0  0  0  0  0
   19.1027   11.1474    0.0000 H   0  0  0  0  0  0  0  0  0  0  0  0
   20.4580   15.2993    0.0000 H   0  0  0  0  0  0  0  0  0  0  0  0
   21.4403   13.9937    0.0000 H   0  0  0  0  0  0  0  0  0  0  0  0
   16.0473   14.6434    0.0000 H   0  0  0  0  0  0  0  0  0  0  0  0
   17.7733   10.7230    0.0000 H   0  0  0  0  0  0  0  0  0  0  0  0
   17.3418    9.8345    0.0000 H   0  0  0  0  0  0  0  0  0  0  0  0
   15.7617    9.7155    0.0000 H   0  0  0  0  0  0  0  0  0  0  0  0
   15.1275    8.0476    0.0000 H   0  0  0  0  0  0  0  0  0  0  0  0
   16.5370    6.9534    0.0000 H   0  0  0  0  0  0  0  0  0  0  0  0
   15.6824    6.0576    0.0000 H   0  0  0  0  0  0  0  0  0  0  0  0
   16.2868    1.6212    0.0000 H   0  0  0  0  0  0  0  0  0  0  0  0
   15.8253    2.7928    0.0000 H   0  0  0  0  0  0  0  0  0  0  0  0
   16.8750    0.1432    0.0000 H   0  0  0  0  0  0  0  0  0  0  0  0
   16.3478    1.0978    0.0000 H   0  0  0  0  0  0  0  0  0  0  0  0
   18.0455   -1.3837    0.0000 H   0  0  0  0  0  0  0  0  0  0  0  0
   17.1343   -0.2906    0.0000 H   0  0  0  0  0  0  0  0  0  0  0  0
   18.5847   -2.2113    0.0000 H   0  0  0  0  0  0  0  0  0  0  0  0
   14.3370    4.4391    0.0000 H   0  0  0  0  0  0  0  0  0  0  0  0
   14.7662    6.0155    0.0000 H   0  0  0  0  0  0  0  0  0  0  0  0
   16.3809    6.2647    0.0000 H   0  0  0  0  0  0  0  0  0  0  0  0
   14.1782    5.4075    0.0000 H   0  0  0  0  0  0  0  0  0  0  0  0
   14.3461    2.0203    0.0000 H   0  0  0  0  0  0  0  0  0  0  0  0
   12.0484    0.3870    0.0000 H   0  0  0  0  0  0  0  0  0  0  0  0
   13.7903    1.2144    0.0000 H   0  0  0  0  0  0  0  0  0  0  0  0
    8.5809    0.6608    0.0000 H   0  0  0  0  0  0  0  0  0  0  0  0
   10.7231   -0.6310    0.0000 H   0  0  0  0  0  0  0  0  0  0  0  0
   10.4672    1.3454    0.0000 H   0  0  0  0  0  0  0  0  0  0  0  0
   10.1791    4.6876    0.0000 H   0  0  0  0  0  0  0  0  0  0  0  0
    7.7857    5.9291    0.0000 H   0  0  0  0  0  0  0  0  0  0  0  0
    9.4819    5.3750    0.0000 H   0  0  0  0  0  0  0  0  0  0  0  0
    6.7452    2.6089    0.0000 H   0  0  0  0  0  0  0  0  0  0  0  0
    4.2455    5.1237    0.0000 H   0  0  0  0  0  0  0  0  0  0  0  0
    5.1014    6.5154    0.0000 H   0  0  0  0  0  0  0  0  0  0  0  0
    6.8525    6.1721    0.0000 H   0  0  0  0  0  0  0  0  0  0  0  0
    4.2267    3.8625    0.0000 H   0  0  0  0  0  0  0  0  0  0  0  0
    4.7390    2.0034    0.0000 H   0  0  0  0  0  0  0  0  0  0  0  0
    6.7792    2.3232    0.0000 H   0  0  0  0  0  0  0  0  0  0  0  0
    6.2425    4.6227    0.0000 H   0  0  0  0  0  0  0  0  0  0  0  0
    6.4502    1.1634    0.0000 H   0  0  0  0  0  0  0  0  0  0  0  0
    4.2889   -0.3476    0.0000 H   0  0  0  0  0  0  0  0  0  0  0  0
    6.0307    0.4798    0.0000 H   0  0  0  0  0  0  0  0  0  0  0  0
    2.3200   -0.0107    0.0000 H   0  0  0  0  0  0  0  0  0  0  0  0
    2.8902    0.5946    0.0000 H   0  0  0  0  0  0  0  0  0  0  0  0
    2.5637    3.8401    0.0000 H   0  0  0  0  0  0  0  0  0  0  0  0
   -0.6253    2.7793    0.0000 H   0  0  0  0  0  0  0  0  0  0  0  0
   -1.1865    5.8605    0.0000 H   0  0  0  0  0  0  0  0  0  0  0  0
   -0.0542    6.3984    0.0000 H   0  0  0  0  0  0  0  0  0  0  0  0
    1.7293    6.4578    0.0000 H   0  0  0  0  0  0  0  0  0  0  0  0
    2.3075    4.7696    0.0000 H   0  0  0  0  0  0  0  0  0  0  0  0
   -1.3409    3.9384    0.0000 H   0  0  0  0  0  0  0  0  0  0  0  0
   -1.1730    0.5512    0.0000 H   0  0  0  0  0  0  0  0  0  0  0  0
   -3.2909   -1.1174    0.0000 H   0  0  0  0  0  0  0  0  0  0  0  0
   -1.7288   -0.2547    0.0000 H   0  0  0  0  0  0  0  0  0  0  0  0
   -4.9359    1.9487    0.0000 H   0  0  0  0  0  0  0  0  0  0  0  0
   -6.9193   -0.9905    0.0000 H   0  0  0  0  0  0  0  0  0  0  0  0
   -5.8174   -2.1969    0.0000 H   0  0  0  0  0  0  0  0  0  0  0  0
   -4.1619   -1.5311    0.0000 H   0  0  0  0  0  0  0  0  0  0  0  0
   -6.4504    2.5286    0.0000 H   0  0  0  0  0  0  0  0  0  0  0  0
   -7.3908    0.6900    0.0000 H   0  0  0  0  0  0  0  0  0  0  0  0
   -6.5039   -0.2809    0.0000 H   0  0  0  0  0  0  0  0  0  0  0  0
   -5.0518   -0.1237    0.0000 H   0  0  0  0  0  0  0  0  0  0  0  0
   -5.1958    3.1055    0.0000 H   0  0  0  0  0  0  0  0  0  0  0  0
   -8.6237    3.6610    0.0000 H   0  0  0  0  0  0  0  0  0  0  0  0
   -8.4974    2.1893    0.0000 H   0  0  0  0  0  0  0  0  0  0  0  0
   -5.4520    4.0351    0.0000 H   0  0  0  0  0  0  0  0  0  0  0  0
   -7.7519    7.0283    0.0000 H   0  0  0  0  0  0  0  0  0  0  0  0
   -9.3140    6.1657    0.0000 H   0  0  0  0  0  0  0  0  0  0  0  0
   -8.9458    4.4197    0.0000 H   0  0  0  0  0  0  0  0  0  0  0  0
   -6.5039    7.1465    0.0000 H   0  0  0  0  0  0  0  0  0  0  0  0
   -4.8077    6.5923    0.0000 H   0  0  0  0  0  0  0  0  0  0  0  0
   -4.9621    4.6701    0.0000 H   0  0  0  0  0  0  0  0  0  0  0  0
   -9.1005    3.2038    0.0000 H   0  0  0  0  0  0  0  0  0  0  0  0
   -8.9325   -0.1833    0.0000 H   0  0  0  0  0  0  0  0  0  0  0  0
  -11.2302   -1.8167    0.0000 H   0  0  0  0  0  0  0  0  0  0  0  0
   -9.4884   -0.9893    0.0000 H   0  0  0  0  0  0  0  0  0  0  0  0
  -13.7114    0.3793    0.0000 H   0  0  0  0  0  0  0  0  0  0  0  0
  -12.6955    1.2141    0.0000 H   0  0  0  0  0  0  0  0  0  0  0  0
  -13.4071   -4.0695    0.0000 H   0  0  0  0  0  0  0  0  0  0  0  0
  -12.8114   -0.8582    0.0000 H   0  0  0  0  0  0  0  0  0  0  0  0
  -13.0995    2.4840    0.0000 H   0  0  0  0  0  0  0  0  0  0  0  0
  -16.2970    3.0881    0.0000 H   0  0  0  0  0  0  0  0  0  0  0  0
  -16.1444    1.3102    0.0000 H   0  0  0  0  0  0  0  0  0  0  0  0
  -15.3317    6.2585    0.0000 H   0  0  0  0  0  0  0  0  0  0  0  0
  -17.1557    4.4084    0.0000 H   0  0  0  0  0  0  0  0  0  0  0  0
  -16.8600    2.4692    0.0000 H   0  0  0  0  0  0  0  0  0  0  0  0
  -16.6920   -0.9179    0.0000 H   0  0  0  0  0  0  0  0  0  0  0  0
  -20.0507   -1.5234    0.0000 H   0  0  0  0  0  0  0  0  0  0  0  0
  -18.9897   -2.5512    0.0000 H   0  0  0  0  0  0  0  0  0  0  0  0
  -17.2479   -1.7239    0.0000 H   0  0  0  0  0  0  0  0  0  0  0  0
  -20.3885   -1.6091    0.0000 H   0  0  0  0  0  0  0  0  0  0  0  0
  -20.7149    1.6364    0.0000 H   0  0  0  0  0  0  0  0  0  0  0  0
  -23.9039    0.5756    0.0000 H   0  0  0  0  0  0  0  0  0  0  0  0
  -23.3246    4.2155    0.0000 H   0  0  0  0  0  0  0  0  0  0  0  0
  -21.5494    4.2541    0.0000 H   0  0  0  0  0  0  0  0  0  0  0  0
  -20.9711    2.5660    0.0000 H   0  0  0  0  0  0  0  0  0  0  0  0
  -25.6380    2.3120    0.0000 H   0  0  0  0  0  0  0  0  0  0  0  0
  -24.8607    0.8749    0.0000 H   0  0  0  0  0  0  0  0  0  0  0  0
  -25.6481    4.3095    0.0000 H   0  0  0  0  0  0  0  0  0  0  0  0
  -23.9063    5.1369    0.0000 H   0  0  0  0  0  0  0  0  0  0  0  0
  -22.8044    3.9305    0.0000 H   0  0  0  0  0  0  0  0  0  0  0  0
  -24.7957    1.6845    0.0000 H   0  0  0  0  0  0  0  0  0  0  0  0
  -24.4516   -1.6524    0.0000 H   0  0  0  0  0  0  0  0  0  0  0  0
  -26.7493   -3.2858    0.0000 H   0  0  0  0  0  0  0  0  0  0  0  0
  -25.0074   -2.4584    0.0000 H   0  0  0  0  0  0  0  0  0  0  0  0
  -29.2305   -1.0898    0.0000 H   0  0  0  0  0  0  0  0  0  0  0  0
  -28.2145   -0.2550    0.0000 H   0  0  0  0  0  0  0  0  0  0  0  0
  -31.0649   -4.0636    0.0000 H   0  0  0  0  0  0  0  0  0  0  0  0
  -31.2101   -1.6745    0.0000 H   0  0  0  0  0  0  0  0  0  0  0  0
  -28.3305   -2.3274    0.0000 H   0  0  0  0  0  0  0  0  0  0  0  0
  -28.6186    1.0149    0.0000 H   0  0  0  0  0  0  0  0  0  0  0  0
  -31.8161    1.6190    0.0000 H   0  0  0  0  0  0  0  0  0  0  0  0
  -31.6635   -0.1589    0.0000 H   0  0  0  0  0  0  0  0  0  0  0  0
  -28.3365    4.1349    0.0000 H   0  0  0  0  0  0  0  0  0  0  0  0
  -32.3791    1.0001    0.0000 H   0  0  0  0  0  0  0  0  0  0  0  0
  -32.2111   -2.3870    0.0000 H   0  0  0  0  0  0  0  0  0  0  0  0
  -32.7670   -3.1930    0.0000 H   0  0  0  0  0  0  0  0  0  0  0  0
  -35.8955   -4.5922    0.0000 H   0  0  0  0  0  0  0  0  0  0  0  0
  -36.6219   -3.5704    0.0000 H   0  0  0  0  0  0  0  0  0  0  0  0
  -36.9900   -1.8244    0.0000 H   0  0  0  0  0  0  0  0  0  0  0  0
  -35.9741   -0.9895    0.0000 H   0  0  0  0  0  0  0  0  0  0  0  0
  -35.9075   -3.0782    0.0000 H   0  0  0  0  0  0  0  0  0  0  0  0
  -36.2340    0.1673    0.0000 H   0  0  0  0  0  0  0  0  0  0  0  0
  -39.5756    0.8844    0.0000 H   0  0  0  0  0  0  0  0  0  0  0  0
  -39.4230   -0.8935    0.0000 H   0  0  0  0  0  0  0  0  0  0  0  0
  -38.9882    2.6033    0.0000 H   0  0  0  0  0  0  0  0  0  0  0  0
  -37.0684    2.7850    0.0000 H   0  0  0  0  0  0  0  0  0  0  0  0
  -36.4902    1.0969    0.0000 H   0  0  0  0  0  0  0  0  0  0  0  0
  -40.1386    0.2656    0.0000 H   0  0  0  0  0  0  0  0  0  0  0  0
  -39.9707   -3.1215    0.0000 H   0  0  0  0  0  0  0  0  0  0  0  0
  -42.0886   -4.7901    0.0000 H   0  0  0  0  0  0  0  0  0  0  0  0
  -40.5265   -3.9275    0.0000 H   0  0  0  0  0  0  0  0  0  0  0  0
  -44.7496   -2.5589    0.0000 H   0  0  0  0  0  0  0  0  0  0  0  0
  -43.7336   -1.7241    0.0000 H   0  0  0  0  0  0  0  0  0  0  0  0
  -44.6151   -5.8696    0.0000 H   0  0  0  0  0  0  0  0  0  0  0  0
  -42.9595   -5.2038    0.0000 H   0  0  0  0  0  0  0  0  0  0  0  0
  -46.6847   -3.1390    0.0000 H   0  0  0  0  0  0  0  0  0  0  0  0
  -48.9308   -6.6474    0.0000 H   0  0  0  0  0  0  0  0  0  0  0  0
  -46.7920   -8.1225    0.0000 H   0  0  0  0  0  0  0  0  0  0  0  0
  -44.4452   -7.0077    0.0000 H   0  0  0  0  0  0  0  0  0  0  0  0
  -43.8495   -3.7965    0.0000 H   0  0  0  0  0  0  0  0  0  0  0  0
  -43.9935   -0.5673    0.0000 H   0  0  0  0  0  0  0  0  0  0  0  0
  -47.3352    0.1499    0.0000 H   0  0  0  0  0  0  0  0  0  0  0  0
  -47.1826   -1.6280    0.0000 H   0  0  0  0  0  0  0  0  0  0  0  0
  -44.8280    2.0505    0.0000 H   0  0  0  0  0  0  0  0  0  0  0  0
  -44.2497    0.3623    0.0000 H   0  0  0  0  0  0  0  0  0  0  0  0
  -49.2620    2.5233    0.0000 H   0  0  0  0  0  0  0  0  0  0  0  0
  -47.8981   -0.4690    0.0000 H   0  0  0  0  0  0  0  0  0  0  0  0
  -47.7302   -3.8561    0.0000 H   0  0  0  0  0  0  0  0  0  0  0  0
  -50.0279   -5.4894    0.0000 H   0  0  0  0  0  0  0  0  0  0  0  0
  -48.2201   -4.4911    0.0000 H   0  0  0  0  0  0  0  0  0  0  0  0
  -52.5091   -3.2935    0.0000 H   0  0  0  0  0  0  0  0  0  0  0  0
  -51.3127   -2.4271    0.0000 H   0  0  0  0  0  0  0  0  0  0  0  0
  -54.3435   -6.2673    0.0000 H   0  0  0  0  0  0  0  0  0  0  0  0
  -54.1355   -3.6775    0.0000 H   0  0  0  0  0  0  0  0  0  0  0  0
  -51.6676   -0.0612    0.0000 H   0  0  0  0  0  0  0  0  0  0  0  0
  1  2  1  0
  2  3  1  0
  3  4  2  0
  4  5  1  0
  5  6  2  0
  6  7  1  0
  7  8  2  0
  7  9  1  0
  9 10  1  0
 10 11  1  0
 11 12  2  0
  9 13  1  0
 13 14  1  0
 14 15  2  0
 15 16  1  0
 16 17  2  0
 17 18  1  0
 16 19  1  0
 14 20  1  0
 20 21  1  0
 21 22  2  0
 22 23  1  0
 23 24  2  0
 24 25  1  0
 25 26  2  0
 25 27  1  0
  1 28  2  0
  1 29  1  0
 29 30  1  0
 30 31  1  0
 31 32  1  0
 32 33  2  0
 32 34  1  0
 34 35  1  0
 35 36  1  0
 36 37  1  0
 35 38  1  0
 38 39  2  0
 38 40  1  0
 41 40  1  6
 41 42  1  0
 42 43  1  0
 43 44  1  0
 44 45  1  0
 45 46  1  0
 46 47  1  0
 47 48  1  0
 41 49  1  0
 41 50  1  0
 50 51  2  0
 50 52  1  0
 52 53  1  0
 53 54  1  0
 54 55  1  0
 55 56  1  0
 56 57  2  0
 56 58  1  0
 53 59  1  0
 59 60  2  0
 59 61  1  0
 61 62  1  0
 62 63  1  0
 63 64  1  0
 64 65  1  0
 64 66  1  0
 62 67  1  0
 67 68  2  0
 67 69  1  0
 69 70  1  0
 70 71  1  0
 71 72  1  0
 70 73  1  0
 73 74  2  0
 73 75  1  0
 75 76  1  0
 76 77  1  0
 76 78  1  0
 78 79  2  0
 78 80  1  0
 80 81  1  0
 81 82  1  0
 82 83  1  0
 83 84  1  0
 84 85  2  0
 84 86  1  0
 81 87  1  0
 87 88  2  0
 87 89  1  0
 89 90  1  0
 90 91  1  0
 90 92  1  0
 92 93  2  0
 92 94  1  0
 94 95  1  0
 95 96  1  0
 96 97  1  0
 97 98  1  0
 98 99  1  0
 95100  1  0
 95101  1  1
101102  2  0
101103  1  0
103104  1  0
104105  1  0
105106  1  0
106107  1  0
106108  2  0
104109  1  0
109110  2  0
109111  1  0
111112  1  0
112113  1  0
113114  1  0
114115  1  0
114116  1  0
112117  1  0
117118  2  0
117119  1  0
119120  1  0
120121  1  0
121122  1  0
120123  1  0
123124  2  0
123125  1  0
125126  1  0
126127  1  0
127128  1  0
127129  1  0
126130  1  0
130131  2  0
130132  1  0
132133  1  0
133134  1  0
134135  1  0
135136  1  0
135137  1  0
133138  1  0
138139  2  0
138140  1  0
140141  1  0
141142  1  0
142143  1  0
143144  1  0
143145  1  0
141146  1  0
146147  2  0
146148  1  0
148149  1  0
149150  1  0
150151  1  0
151152  1  0
152153  2  0
152154  1  0
149155  1  0
155156  2  0
155157  1  0
157158  1  0
158159  1  0
159160  1  0
160161  1  0
160162  2  0
158163  1  0
163164  2  0
163165  1  0
165166  1  0
166167  1  0
166168  1  0
168169  2  0
168170  1  0
170171  1  0
171172  1  0
172173  1  0
172174  1  0
174175  1  0
171176  1  0
176177  2  0
176178  1  0
178179  1  0
179180  1  0
180181  1  0
181182  1  0
182183  1  0
182184  2  0
179185  1  0
185186  2  0
185187  1  0
187188  1  0
188189  1  0
189190  1  0
190191  2  0
190192  1  0
188193  1  0
193194  2  0
193195  1  0
195196  1  0
196197  1  0
197198  1  0
197199  1  0
196200  1  0
200201  2  0
200202  1  0
202203  1  0
203204  1  0
204205  1  0
203206  1  0
206207  2  0
206208  1  0
208209  1  0
209210  1  0
210211  1  0
211212  1  0
212213  1  0
213214  1  0
214215  2  3
214216  1  0
209217  1  0
217218  2  0
217219  1  0
219220  1  0
220221  1  0
221222  1  0
222223  1  0
223224  2  0
223225  1  0
220226  1  0
226227  2  0
226228  1  0
228229  1  0
229230  1  0
230231  1  0
231232  1  0
232233  1  0
232234  2  0
229235  1  0
235236  2  0
235237  1  0
  8  3  1  0
 11  6  1  0
 48 99  2  0
 18 13  2  0
 22  9  1  0
 26 21  1  0
  2238  1  0
  4239  1  0
  5240  1  0
  8241  1  0
 15242  1  0
 17243  1  0
 18244  1  0
 19245  1  0
 23246  1  0
 24247  1  0
 26248  1  0
 27249  1  0
 29250  1  0
 30251  1  0
 30252  1  0
 31253  1  0
 31254  1  0
 34255  1  0
 35256  1  1
 36257  1  0
 36258  1  0
 37259  1  0
 40260  1  0
 42261  1  0
 42262  1  0
 43263  1  0
 43264  1  0
 44265  1  0
 44266  1  0
 45267  1  0
 45268  1  0
 46269  1  0
 46270  1  0
 47271  1  0
 47272  1  0
 48273  1  0
 49274  1  0
 49275  1  0
 49276  1  0
 52277  1  0
 53278  1  6
 54279  1  0
 54280  1  0
 55281  1  0
 55282  1  0
 58283  1  0
 61284  1  0
 62285  1  6
 63286  1  0
 63287  1  0
 64288  1  0
 65289  1  0
 65290  1  0
 65291  1  0
 66292  1  0
 66293  1  0
 66294  1  0
 69295  1  0
 70296  1  6
 71297  1  0
 71298  1  0
 72299  1  0
 72300  1  0
 72301  1  0
 75302  1  0
 76303  1  6
 77304  1  0
 77305  1  0
 77306  1  0
 80307  1  0
 81308  1  6
 82309  1  0
 82310  1  0
 83311  1  0
 83312  1  0
 86313  1  0
 89314  1  0
 90315  1  6
 91316  1  0
 91317  1  0
 91318  1  0
 94319  1  0
 96320  1  0
 96321  1  0
 97322  1  0
 97323  1  0
 98324  1  0
 98325  1  0
 99326  1  0
100327  1  0
100328  1  0
100329  1  0
103330  1  0
104331  1  1
105332  1  0
105333  1  0
107334  1  0
107335  1  0
111336  1  0
112337  1  6
113338  1  0
113339  1  0
114340  1  0
115341  1  0
115342  1  0
115343  1  0
116344  1  0
116345  1  0
116346  1  0
119347  1  0
120348  1  1
121349  1  0
121350  1  0
122351  1  0
125352  1  0
126353  1  6
127354  1  1
128355  1  0
129356  1  0
129357  1  0
129358  1  0
132359  1  0
133360  1  1
134361  1  0
134362  1  0
135363  1  0
136364  1  0
136365  1  0
136366  1  0
137367  1  0
137368  1  0
137369  1  0
140370  1  0
141371  1  6
142372  1  0
142373  1  0
143374  1  0
144375  1  0
144376  1  0
144377  1  0
145378  1  0
145379  1  0
145380  1  0
148381  1  0
149382  1  1
150383  1  0
150384  1  0
151385  1  0
151386  1  0
154387  1  0
157388  1  0
158389  1  6
159390  1  0
159391  1  0
161392  1  0
161393  1  0
165394  1  0
166395  1  1
167396  1  0
167397  1  0
167398  1  0
170399  1  0
171400  1  6
172401  1  1
173402  1  0
173403  1  0
173404  1  0
174405  1  0
174406  1  0
175407  1  0
175408  1  0
175409  1  0
178410  1  0
179411  1  1
180412  1  0
180413  1  0
181414  1  0
181415  1  0
183416  1  0
183417  1  0
187418  1  0
188419  1  6
189420  1  0
189421  1  0
192422  1  0
195423  1  0
196424  1  1
197425  1  1
198426  1  0
199427  1  0
199428  1  0
199429  1  0
202430  1  0
203431  1  6
204432  1  0
204433  1  0
205434  1  0
205435  1  0
205436  1  0
208437  1  0
209438  1  1
210439  1  0
210440  1  0
211441  1  0
211442  1  0
212443  1  0
212444  1  0
213445  1  0
215446  1  0
216447  1  0
216448  1  0
219449  1  0
220450  1  6
221451  1  0
221452  1  0
222453  1  0
222454  1  0
225455  1  0
228456  1  0
229457  1  1
230458  1  0
230459  1  0
231460  1  0
231461  1  0
233462  1  0
233463  1  0
237464  1  0
M  END
