
     RDKit          2D

221225  0  0  0  0  0  0  0  0999 V2000
  -18.2254   -6.3016    0.0000 N   0  0  0  0  0  0  0  0  0  0  0  0
  -16.7258   -6.2667    0.0000 C   0  0  0  0  0  0  0  0  0  0  0  0
  -16.0062   -4.9506    0.0000 C   0  0  0  0  0  0  0  0  0  0  0  0
  -14.5066   -4.9157    0.0000 C   0  0  0  0  0  0  0  0  0  0  0  0
  -13.8886   -6.2825    0.0000 O   0  0  0  0  0  0  0  0  0  0  0  0
  -13.7870   -3.5996    0.0000 N   0  0  0  0  0  0  0  0  0  0  0  0
  -12.2874   -3.5648    0.0000 C   0  0  0  0  0  0  0  0  0  0  0  0
  -11.2690   -4.6661    0.0000 C   0  0  0  0  0  0  0  0  0  0  0  0
   -9.9712   -5.4183    0.0000 C   0  0  0  0  0  0  0  0  0  0  0  0
   -8.5094   -5.7545    0.0000 C   0  0  0  0  0  0  0  0  0  0  0  0
   -7.0134   -5.6449    0.0000 C   0  0  0  0  0  0  0  0  0  0  0  0
  -13.0364   -4.8644    0.0000 C   0  0  0  0  0  0  0  0  0  0  0  0
  -12.9359   -2.2122    0.0000 C   0  0  0  0  0  0  0  0  0  0  0  0
  -13.8081   -2.3667    0.0000 O   0  0  0  0  0  0  0  0  0  0  0  0
  -13.1570   -0.7286    0.0000 N   0  0  0  0  0  0  0  0  0  0  0  0
  -12.9309    0.7543    0.0000 C   0  0  0  0  0  0  0  0  0  0  0  0
  -14.3755    0.3505    0.0000 C   0  0  0  0  0  0  0  0  0  0  0  0
  -15.4476    1.3996    0.0000 C   0  0  0  0  0  0  0  0  0  0  0  0
  -16.9265    1.1490    0.0000 C   0  0  0  0  0  0  0  0  0  0  0  0
  -17.6218    2.4781    0.0000 N   0  0  0  0  0  0  0  0  0  0  0  0
  -16.5727    3.5501    0.0000 C   0  0  0  0  0  0  0  0  0  0  0  0
  -15.2289    2.8836    0.0000 N   0  0  0  0  0  0  0  0  0  0  0  0
  -12.2778    2.1046    0.0000 C   0  0  0  0  0  0  0  0  0  0  0  0
  -13.5157    2.9517    0.0000 O   0  0  0  0  0  0  0  0  0  0  0  0
  -11.2557    3.2025    0.0000 N   0  0  0  0  0  0  0  0  0  0  0  0
   -9.9554    3.9503    0.0000 C   0  0  0  0  0  0  0  0  0  0  0  0
  -11.1718    4.8280    0.0000 C   0  0  0  0  0  0  0  0  0  0  0  0
  -11.0199    6.3203    0.0000 C   0  0  0  0  0  0  0  0  0  0  0  0
  -12.2364    7.1979    0.0000 C   0  0  0  0  0  0  0  0  0  0  0  0
  -10.3668    7.6706    0.0000 C   0  0  0  0  0  0  0  0  0  0  0  0
   -8.4924    4.2816    0.0000 C   0  0  0  0  0  0  0  0  0  0  0  0
   -8.6020    5.7776    0.0000 O   0  0  0  0  0  0  0  0  0  0  0  0
   -6.9968    4.1670    0.0000 N   0  0  0  0  0  0  0  0  0  0  0  0
   -5.6014    3.6166    0.0000 C   0  0  0  0  0  0  0  0  0  0  0  0
   -5.6737    5.1149    0.0000 C   0  0  0  0  0  0  0  0  0  0  0  0
   -4.4303    2.6794    0.0000 C   0  0  0  0  0  0  0  0  0  0  0  0
   -3.9362    4.0957    0.0000 O   0  0  0  0  0  0  0  0  0  0  0  0
   -3.5874    1.4386    0.0000 N   0  0  0  0  0  0  0  0  0  0  0  0
   -3.1477    0.0045    0.0000 C   0  0  0  0  0  0  0  0  0  0  0  0
   -3.1502   -1.4955    0.0000 C   0  0  0  0  0  0  0  0  0  0  0  0
   -3.5948   -2.9281    0.0000 C   0  0  0  0  0  0  0  0  0  0  0  0
   -4.4418   -4.1660    0.0000 C   0  0  0  0  0  0  0  0  0  0  0  0
   -5.6162   -5.0993    0.0000 C   0  0  0  0  0  0  0  0  0  0  0  0
   -2.5273    1.4727    0.0000 C   0  0  0  0  0  0  0  0  0  0  0  0
   -2.3397    2.8267    0.0000 C   0  0  0  0  0  0  0  0  0  0  0  0
   -1.8993    4.1207    0.0000 C   0  0  0  0  0  0  0  0  0  0  0  0
   -1.2219    5.3080    0.0000 C   0  0  0  0  0  0  0  0  0  0  0  0
   -2.1263   -1.2191    0.0000 C   0  0  0  0  0  0  0  0  0  0  0  0
   -4.2016   -1.9492    0.0000 O   0  0  0  0  0  0  0  0  0  0  0  0
   -1.5521   -2.4595    0.0000 N   0  0  0  0  0  0  0  0  0  0  0  0
   -0.7535   -3.5689    0.0000 C   0  0  0  0  0  0  0  0  0  0  0  0
   -1.7182   -5.4646    0.0000 C   0  0  0  0  0  0  0  0  0  0  0  0
   -0.8362   -6.6779    0.0000 C   0  0  0  0  0  0  0  0  0  0  0  0
    0.2406   -4.5071    0.0000 C   0  0  0  0  0  0  0  0  0  0  0  0
   -0.6342   -5.8483    0.0000 O   0  0  0  0  0  0  0  0  0  0  0  0
    1.3943   -5.2403    0.0000 N   0  0  0  0  0  0  0  0  0  0  0  0
    2.6659   -5.7418    0.0000 C   0  0  0  0  0  0  0  0  0  0  0  0
    4.0094   -5.9936    0.0000 C   0  0  0  0  0  0  0  0  0  0  0  0
    3.8114   -8.1847    0.0000 O   0  0  0  0  0  0  0  0  0  0  0  0
    5.3763   -5.9867    0.0000 N   0  0  0  0  0  0  0  0  0  0  0  0
    6.7172   -5.7211    0.0000 C   0  0  0  0  0  0  0  0  0  0  0  0
    8.0408   -7.3862    0.0000 C   0  0  0  0  0  0  0  0  0  0  0  0
    7.7411   -8.8559    0.0000 C   0  0  0  0  0  0  0  0  0  0  0  0
    8.8641   -9.8503    0.0000 O   0  0  0  0  0  0  0  0  0  0  0  0
    6.3184   -9.3312    0.0000 O   0  0  0  0  0  0  0  0  0  0  0  0
    7.9836   -5.2066    0.0000 C   0  0  0  0  0  0  0  0  0  0  0  0
    9.1585   -7.0623    0.0000 O   0  0  0  0  0  0  0  0  0  0  0  0
    9.1297   -4.4617    0.0000 N   0  0  0  0  0  0  0  0  0  0  0  0
   10.1141   -3.5134    0.0000 C   0  0  0  0  0  0  0  0  0  0  0  0
   12.1279   -4.1985    0.0000 C   0  0  0  0  0  0  0  0  0  0  0  0
   12.6703   -5.5970    0.0000 C   0  0  0  0  0  0  0  0  0  0  0  0
   11.8578   -6.8579    0.0000 C   0  0  0  0  0  0  0  0  0  0  0  0
   12.8059   -8.0202    0.0000 N   0  0  0  0  0  0  0  0  0  0  0  0
   14.2044   -7.4778    0.0000 C   0  0  0  0  0  0  0  0  0  0  0  0
   15.5433   -8.1540    0.0000 C   0  0  0  0  0  0  0  0  0  0  0  0
   16.7984   -7.3326    0.0000 C   0  0  0  0  0  0  0  0  0  0  0  0
   16.7146   -5.8350    0.0000 C   0  0  0  0  0  0  0  0  0  0  0  0
   15.3757   -5.1587    0.0000 C   0  0  0  0  0  0  0  0  0  0  0  0
   14.1206   -5.9801    0.0000 C   0  0  0  0  0  0  0  0  0  0  0  0
   10.9013   -2.3959    0.0000 C   0  0  0  0  0  0  0  0  0  0  0  0
   12.8931   -3.3218    0.0000 O   0  0  0  0  0  0  0  0  0  0  0  0
   11.4628   -1.1496    0.0000 N   0  0  0  0  0  0  0  0  0  0  0  0
   11.7783    0.1804    0.0000 C   0  0  0  0  0  0  0  0  0  0  0  0
   13.8427    0.6927    0.0000 C   0  0  0  0  0  0  0  0  0  0  0  0
   15.0552   -0.1904    0.0000 C   0  0  0  0  0  0  0  0  0  0  0  0
   16.4262    0.4180    0.0000 C   0  0  0  0  0  0  0  0  0  0  0  0
   17.6387   -0.4652    0.0000 C   0  0  0  0  0  0  0  0  0  0  0  0
   11.8363    1.5461    0.0000 C   0  0  0  0  0  0  0  0  0  0  0  0
   14.0125    1.8440    0.0000 O   0  0  0  0  0  0  0  0  0  0  0  0
   11.6349    2.8981    0.0000 N   0  0  0  0  0  0  0  0  0  0  0  0
   11.1812    4.1875    0.0000 C   0  0  0  0  0  0  0  0  0  0  0  0
   12.6410    5.7347    0.0000 C   0  0  0  0  0  0  0  0  0  0  0  0
   14.1384    5.6472    0.0000 C   0  0  0  0  0  0  0  0  0  0  0  0
   14.9629    6.9003    0.0000 O   0  0  0  0  0  0  0  0  0  0  0  0
   14.8114    4.3066    0.0000 O   0  0  0  0  0  0  0  0  0  0  0  0
   10.4917    5.3678    0.0000 C   0  0  0  0  0  0  0  0  0  0  0  0
   12.1613    6.7949    0.0000 O   0  0  0  0  0  0  0  0  0  0  0  0
    9.5913    6.3963    0.0000 N   0  0  0  0  0  0  0  0  0  0  0  0
    8.5125    7.2358    0.0000 C   0  0  0  0  0  0  0  0  0  0  0  0
    7.2944    7.8559    0.0000 C   0  0  0  0  0  0  0  0  0  0  0  0
    5.9809    8.2343    0.0000 C   0  0  0  0  0  0  0  0  0  0  0  0
    4.6195    8.3573    0.0000 C   0  0  0  0  0  0  0  0  0  0  0  0
    3.2595    8.2204    0.0000 C   0  0  0  0  0  0  0  0  0  0  0  0
    1.9499    7.8286    0.0000 C   0  0  0  0  0  0  0  0  0  0  0  0
    0.7381    7.1960    0.0000 C   0  0  0  0  0  0  0  0  0  0  0  0
   -0.3320    6.3456    0.0000 C   0  0  0  0  0  0  0  0  0  0  0  0
   10.2390    8.4782    0.0000 C   0  0  0  0  0  0  0  0  0  0  0  0
    8.9041    9.3265    0.0000 C   0  0  0  0  0  0  0  0  0  0  0  0
   10.1117   10.2163    0.0000 O   0  0  0  0  0  0  0  0  0  0  0  0
    7.8364   10.3801    0.0000 O   0  0  0  0  0  0  0  0  0  0  0  0
  -18.9450   -7.6177    0.0000 H   0  0  0  0  0  0  0  0  0  0  0  0
  -19.0054   -5.0203    0.0000 H   0  0  0  0  0  0  0  0  0  0  0  0
  -16.9519   -7.7496    0.0000 H   0  0  0  0  0  0  0  0  0  0  0  0
  -15.3047   -6.7469    0.0000 H   0  0  0  0  0  0  0  0  0  0  0  0
  -17.4273   -4.4705    0.0000 H   0  0  0  0  0  0  0  0  0  0  0  0
  -15.7801   -3.4677    0.0000 H   0  0  0  0  0  0  0  0  0  0  0  0
  -14.2814   -2.9743    0.0000 H   0  0  0  0  0  0  0  0  0  0  0  0
  -11.4209   -6.1583    0.0000 H   0  0  0  0  0  0  0  0  0  0  0  0
  -12.6231   -5.3113    0.0000 H   0  0  0  0  0  0  0  0  0  0  0  0
   -9.8580   -6.9140    0.0000 H   0  0  0  0  0  0  0  0  0  0  0  0
  -11.0750   -6.4339    0.0000 H   0  0  0  0  0  0  0  0  0  0  0  0
   -7.7942   -7.0730    0.0000 H   0  0  0  0  0  0  0  0  0  0  0  0
   -9.2648   -7.0504    0.0000 H   0  0  0  0  0  0  0  0  0  0  0  0
   -6.6821   -7.1079    0.0000 H   0  0  0  0  0  0  0  0  0  0  0  0
  -14.2574   -5.4426    0.0000 H   0  0  0  0  0  0  0  0  0  0  0  0
  -12.7578   -6.4216    0.0000 H   0  0  0  0  0  0  0  0  0  0  0  0
  -11.6684   -5.8372    0.0000 H   0  0  0  0  0  0  0  0  0  0  0  0
  -14.6570   -0.7261    0.0000 H   0  0  0  0  0  0  0  0  0  0  0  0
  -13.8932    1.9050    0.0000 H   0  0  0  0  0  0  0  0  0  0  0  0
  -15.5949   -0.5231    0.0000 H   0  0  0  0  0  0  0  0  0  0  0  0
  -14.0736   -1.1188    0.0000 H   0  0  0  0  0  0  0  0  0  0  0  0
  -17.5930   -0.1947    0.0000 H   0  0  0  0  0  0  0  0  0  0  0  0
  -19.1058    2.6968    0.0000 H   0  0  0  0  0  0  0  0  0  0  0  0
  -16.8233    5.0291    0.0000 H   0  0  0  0  0  0  0  0  0  0  0  0
  -12.1890    4.3768    0.0000 H   0  0  0  0  0  0  0  0  0  0  0  0
   -9.4788    5.3726    0.0000 H   0  0  0  0  0  0  0  0  0  0  0  0
  -12.6541    5.0577    0.0000 H   0  0  0  0  0  0  0  0  0  0  0  0
  -12.1323    3.6758    0.0000 H   0  0  0  0  0  0  0  0  0  0  0  0
   -9.5376    6.0905    0.0000 H   0  0  0  0  0  0  0  0  0  0  0  0
  -12.2675    8.6976    0.0000 H   0  0  0  0  0  0  0  0  0  0  0  0
  -13.6796    7.6066    0.0000 H   0  0  0  0  0  0  0  0  0  0  0  0
  -13.0492    5.9373    0.0000 H   0  0  0  0  0  0  0  0  0  0  0  0
  -11.0522    9.0049    0.0000 H   0  0  0  0  0  0  0  0  0  0  0  0
   -9.2913    8.7161    0.0000 H   0  0  0  0  0  0  0  0  0  0  0  0
   -9.1504    6.7929    0.0000 H   0  0  0  0  0  0  0  0  0  0  0  0
   -6.8413    5.6589    0.0000 H   0  0  0  0  0  0  0  0  0  0  0  0
   -4.3586    4.4564    0.0000 H   0  0  0  0  0  0  0  0  0  0  0  0
   -6.9137    5.9589    0.0000 H   0  0  0  0  0  0  0  0  0  0  0  0
   -5.2291    6.5475    0.0000 H   0  0  0  0  0  0  0  0  0  0  0  0
   -4.1737    5.1086    0.0000 H   0  0  0  0  0  0  0  0  0  0  0  0
   -2.2348    2.0872    0.0000 H   0  0  0  0  0  0  0  0  0  0  0  0
   -1.7819   -0.8809    0.0000 H   0  0  0  0  0  0  0  0  0  0  0  0
   -2.1568   -2.6194    0.0000 H   0  0  0  0  0  0  0  0  0  0  0  0
   -2.1391   -3.2899    0.0000 H   0  0  0  0  0  0  0  0  0  0  0  0
   -3.1480   -4.3600    0.0000 H   0  0  0  0  0  0  0  0  0  0  0  0
   -3.1575   -4.9409    0.0000 H   0  0  0  0  0  0  0  0  0  0  0  0
   -4.0742   -5.6203    0.0000 H   0  0  0  0  0  0  0  0  0  0  0  0
   -4.8684   -6.3996    0.0000 H   0  0  0  0  0  0  0  0  0  0  0  0
   -4.5337    0.7664    0.0000 H   0  0  0  0  0  0  0  0  0  0  0  0
   -4.3544    2.4915    0.0000 H   0  0  0  0  0  0  0  0  0  0  0  0
   -4.5194    3.0544    0.0000 H   0  0  0  0  0  0  0  0  0  0  0  0
   -3.7897    4.2762    0.0000 H   0  0  0  0  0  0  0  0  0  0  0  0
   -4.0280    4.5764    0.0000 H   0  0  0  0  0  0  0  0  0  0  0  0
   -3.3747    5.6528    0.0000 H   0  0  0  0  0  0  0  0  0  0  0  0
   -3.0204    6.5749    0.0000 H   0  0  0  0  0  0  0  0  0  0  0  0
   -3.0944   -3.9832    0.0000 H   0  0  0  0  0  0  0  0  0  0  0  0
   -2.7193   -4.4532    0.0000 H   0  0  0  0  0  0  0  0  0  0  0  0
   -2.6206   -6.6629    0.0000 H   0  0  0  0  0  0  0  0  0  0  0  0
   -3.2101   -5.3085    0.0000 H   0  0  0  0  0  0  0  0  0  0  0  0
   -1.1329   -7.9959    0.0000 H   0  0  0  0  0  0  0  0  0  0  0  0
    0.4615   -7.5827    0.0000 H   0  0  0  0  0  0  0  0  0  0  0  0
    0.4946   -5.6546    0.0000 H   0  0  0  0  0  0  0  0  0  0  0  0
    0.5642   -7.2738    0.0000 H   0  0  0  0  0  0  0  0  0  0  0  0
    2.8792   -7.8582    0.0000 H   0  0  0  0  0  0  0  0  0  0  0  0
    1.4902   -7.5485    0.0000 H   0  0  0  0  0  0  0  0  0  0  0  0
    5.5966   -8.1756    0.0000 H   0  0  0  0  0  0  0  0  0  0  0  0
    6.5255   -7.8395    0.0000 H   0  0  0  0  0  0  0  0  0  0  0  0
    9.3587   -8.1025    0.0000 H   0  0  0  0  0  0  0  0  0  0  0  0
    9.1112   -6.3353    0.0000 H   0  0  0  0  0  0  0  0  0  0  0  0
   10.3484   -6.2891    0.0000 H   0  0  0  0  0  0  0  0  0  0  0  0
   11.0982   -5.3991    0.0000 H   0  0  0  0  0  0  0  0  0  0  0  0
   13.6238   -4.0886    0.0000 H   0  0  0  0  0  0  0  0  0  0  0  0
   12.4602   -2.7358    0.0000 H   0  0  0  0  0  0  0  0  0  0  0  0
   10.3815   -7.1236    0.0000 H   0  0  0  0  0  0  0  0  0  0  0  0
   12.4228   -9.4705    0.0000 H   0  0  0  0  0  0  0  0  0  0  0  0
   15.6271   -9.6517    0.0000 H   0  0  0  0  0  0  0  0  0  0  0  0
   18.1373   -8.0089    0.0000 H   0  0  0  0  0  0  0  0  0  0  0  0
   17.9697   -5.0136    0.0000 H   0  0  0  0  0  0  0  0  0  0  0  0
   15.2919   -3.6611    0.0000 H   0  0  0  0  0  0  0  0  0  0  0  0
   13.4760   -2.0280    0.0000 H   0  0  0  0  0  0  0  0  0  0  0  0
   13.5002   -1.0075    0.0000 H   0  0  0  0  0  0  0  0  0  0  0  0
   14.9230    1.7334    0.0000 H   0  0  0  0  0  0  0  0  0  0  0  0
   13.3315    2.1029    0.0000 H   0  0  0  0  0  0  0  0  0  0  0  0
   15.7345   -1.5278    0.0000 H   0  0  0  0  0  0  0  0  0  0  0  0
   14.2588   -1.4616    0.0000 H   0  0  0  0  0  0  0  0  0  0  0  0
   17.5065    1.4586    0.0000 H   0  0  0  0  0  0  0  0  0  0  0  0
   15.7469    1.7553    0.0000 H   0  0  0  0  0  0  0  0  0  0  0  0
   19.0097    0.1432    0.0000 H   0  0  0  0  0  0  0  0  0  0  0  0
   18.4759   -1.7098    0.0000 H   0  0  0  0  0  0  0  0  0  0  0  0
   16.6933   -1.6298    0.0000 H   0  0  0  0  0  0  0  0  0  0  0  0
   13.7702    3.4277    0.0000 H   0  0  0  0  0  0  0  0  0  0  0  0
   13.3054    4.2993    0.0000 H   0  0  0  0  0  0  0  0  0  0  0  0
   13.1625    7.1411    0.0000 H   0  0  0  0  0  0  0  0  0  0  0  0
   11.4485    6.6446    0.0000 H   0  0  0  0  0  0  0  0  0  0  0  0
   11.2266    7.8626    0.0000 H   0  0  0  0  0  0  0  0  0  0  0  0
    7.2832    9.9829    0.0000 H   0  0  0  0  0  0  0  0  0  0  0  0
    8.5021    9.6672    0.0000 H   0  0  0  0  0  0  0  0  0  0  0  0
    5.7419   10.3765    0.0000 H   0  0  0  0  0  0  0  0  0  0  0  0
    6.8240   10.2414    0.0000 H   0  0  0  0  0  0  0  0  0  0  0  0
    3.9794   10.4155    0.0000 H   0  0  0  0  0  0  0  0  0  0  0  0
    5.2385   10.4219    0.0000 H   0  0  0  0  0  0  0  0  0  0  0  0
    2.2414   10.1203    0.0000 H   0  0  0  0  0  0  0  0  0  0  0  0
    3.4766   10.3649    0.0000 H   0  0  0  0  0  0  0  0  0  0  0  0
    0.5907    9.5015    0.0000 H   0  0  0  0  0  0  0  0  0  0  0  0
    1.7572    9.9754    0.0000 H   0  0  0  0  0  0  0  0  0  0  0  0
   -1.0010    8.4207    0.0000 H   0  0  0  0  0  0  0  0  0  0  0  0
    0.1426    9.2676    0.0000 H   0  0  0  0  0  0  0  0  0  0  0  0
   -1.8583    7.9300    0.0000 H   0  0  0  0  0  0  0  0  0  0  0  0
   10.5318    9.9493    0.0000 H   0  0  0  0  0  0  0  0  0  0  0  0
   11.7021    8.8092    0.0000 H   0  0  0  0  0  0  0  0  0  0  0  0
   10.9834    7.1759    0.0000 H   0  0  0  0  0  0  0  0  0  0  0  0
  1  2  1  0
  2  3  1  0
  3  4  1  0
  4  5  2  0
  4  6  1  0
  7  6  1  6
  7  8  1  0
  8  9  1  0
  9 10  1  0
 10 11  1  0
  7 12  1  0
  7 13  1  0
 13 14  2  0
 13 15  1  0
 15 16  1  0
 16 17  1  0
 17 18  1  0
 18 19  2  0
 19 20  1  0
 20 21  1  0
 21 22  2  0
 16 23  1  0
 23 24  2  0
 23 25  1  0
 25 26  1  0
 26 27  1  0
 27 28  1  0
 28 29  1  0
 28 30  1  0
 26 31  1  0
 31 32  2  0
 31 33  1  0
 33 34  1  0
 34 35  1  0
 34 36  1  0
 36 37  2  0
 36 38  1  0
 38 39  1  0
 39 40  1  0
 40 41  1  0
 41 42  1  0
 42 43  1  0
 39 44  1  0
 44 45  1  0
 45 46  1  0
 46 47  1  0
 39 48  1  0
 48 49  2  0
 48 50  1  0
 50 51  1  0
 51 52  1  0
 52 53  1  0
 51 54  1  0
 54 55  2  0
 54 56  1  0
 56 57  1  0
 57 58  1  0
 58 59  2  0
 58 60  1  0
 60 61  1  0
 61 62  1  0
 62 63  1  0
 63 64  2  0
 63 65  1  0
 61 66  1  0
 66 67  2  0
 66 68  1  0
 68 69  1  0
 69 70  1  0
 70 71  1  0
 71 72  2  0
 72 73  1  0
 73 74  1  0
 74 75  2  0
 75 76  1  0
 76 77  2  0
 77 78  1  0
 78 79  2  0
 69 80  1  0
 80 81  2  0
 80 82  1  0
 82 83  1  0
 83 84  1  0
 84 85  1  0
 85 86  1  0
 86 87  1  0
 83 88  1  0
 88 89  2  0
 88 90  1  0
 90 91  1  0
 91 92  1  0
 92 93  1  0
 93 94  2  0
 93 95  1  0
 91 96  1  0
 96 97  2  0
 96 98  1  0
 98 99  1  0
 99100  1  0
100101  1  0
101102  1  0
102103  1  0
103104  1  0
104105  1  0
105106  1  0
 99107  1  0
 99108  1  1
108109  2  0
108110  1  0
 22 18  1  0
 79 71  1  0
 79 74  1  0
 11 43  2  0
 47106  2  0
  1111  1  0
  1112  1  0
  2113  1  0
  2114  1  0
  3115  1  0
  3116  1  0
  6117  1  0
  8118  1  0
  8119  1  0
  9120  1  0
  9121  1  0
 10122  1  0
 10123  1  0
 11124  1  0
 12125  1  0
 12126  1  0
 12127  1  0
 15128  1  0
 16129  1  1
 17130  1  0
 17131  1  0
 19132  1  0
 20133  1  0
 21134  1  0
 25135  1  0
 26136  1  1
 27137  1  0
 27138  1  0
 28139  1  0
 29140  1  0
 29141  1  0
 29142  1  0
 30143  1  0
 30144  1  0
 30145  1  0
 33146  1  0
 34147  1  1
 35148  1  0
 35149  1  0
 35150  1  0
 38151  1  0
 40152  1  0
 40153  1  0
 41154  1  0
 41155  1  0
 42156  1  0
 42157  1  0
 43158  1  0
 44159  1  0
 44160  1  0
 45161  1  0
 45162  1  0
 46163  1  0
 46164  1  0
 47165  1  0
 50166  1  0
 51167  1  6
 52168  1  0
 52169  1  0
 53170  1  0
 53171  1  0
 53172  1  0
 56173  1  0
 57174  1  0
 57175  1  0
 60176  1  0
 61177  1  6
 62178  1  0
 62179  1  0
 68180  1  0
 69181  1  6
 70182  1  0
 70183  1  0
 72184  1  0
 73185  1  0
 75186  1  0
 76187  1  0
 77188  1  0
 78189  1  0
 82190  1  0
 83191  1  1
 84192  1  0
 84193  1  0
 85194  1  0
 85195  1  0
 86196  1  0
 86197  1  0
 87198  1  0
 87199  1  0
 87200  1  0
 90201  1  0
 91202  1  6
 92203  1  0
 92204  1  0
 98205  1  0
100206  1  0
100207  1  0
101208  1  0
101209  1  0
102210  1  0
102211  1  0
103212  1  0
103213  1  0
104214  1  0
104215  1  0
105216  1  0
105217  1  0
106218  1  0
107219  1  0
107220  1  0
107221  1  0
M  CHG  3  65  -1  95  -1 110  -1
M  END
