
     RDKit          2D

338338  0  0  0  0  0  0  0  0999 V2000
  -25.4589    4.6662    0.0000 N   0  0  0  0  0  0  0  0  0  0  0  0
  -23.9825    4.9315    0.0000 C   0  0  0  0  0  0  0  0  0  0  0  0
  -23.0146    3.7856    0.0000 C   0  0  0  0  0  0  0  0  0  0  0  0
  -21.5382    4.0509    0.0000 C   0  0  0  0  0  0  0  0  0  0  0  0
  -21.2056    5.5136    0.0000 O   0  0  0  0  0  0  0  0  0  0  0  0
  -20.5703    2.9050    0.0000 N   0  0  0  0  0  0  0  0  0  0  0  0
  -19.0939    3.1703    0.0000 C   0  0  0  0  0  0  0  0  0  0  0  0
  -18.3160    4.4528    0.0000 C   0  0  0  0  0  0  0  0  0  0  0  0
  -17.1946    5.4490    0.0000 C   0  0  0  0  0  0  0  0  0  0  0  0
  -15.8294    6.0704    0.0000 C   0  0  0  0  0  0  0  0  0  0  0  0
  -14.3416    6.2618    0.0000 C   0  0  0  0  0  0  0  0  0  0  0  0
  -20.0874    4.2942    0.0000 C   0  0  0  0  0  0  0  0  0  0  0  0
  -19.4593    1.7155    0.0000 C   0  0  0  0  0  0  0  0  0  0  0  0
  -20.3448    1.6927    0.0000 O   0  0  0  0  0  0  0  0  0  0  0  0
  -19.3796    0.2176    0.0000 N   0  0  0  0  0  0  0  0  0  0  0  0
  -18.8620   -1.1902    0.0000 C   0  0  0  0  0  0  0  0  0  0  0  0
  -20.3582   -1.0830    0.0000 C   0  0  0  0  0  0  0  0  0  0  0  0
  -21.1991   -2.3252    0.0000 C   0  0  0  0  0  0  0  0  0  0  0  0
  -22.6952   -2.2180    0.0000 C   0  0  0  0  0  0  0  0  0  0  0  0
  -23.5361   -3.4601    0.0000 N   0  0  0  0  0  0  0  0  0  0  0  0
  -25.0323   -3.3529    0.0000 C   0  0  0  0  0  0  0  0  0  0  0  0
  -25.8732   -4.5950    0.0000 N   0  0  0  0  0  0  0  0  0  0  0  0
  -25.6876   -2.0036    0.0000 N   0  0  0  0  0  0  0  0  0  0  0  0
  -17.9524   -2.3830    0.0000 C   0  0  0  0  0  0  0  0  0  0  0  0
  -18.9962   -3.4602    0.0000 O   0  0  0  0  0  0  0  0  0  0  0  0
  -16.7316   -3.2546    0.0000 N   0  0  0  0  0  0  0  0  0  0  0  0
  -15.3081   -3.7276    0.0000 C   0  0  0  0  0  0  0  0  0  0  0  0
  -16.3248   -4.8306    0.0000 C   0  0  0  0  0  0  0  0  0  0  0  0
  -15.8780   -6.2625    0.0000 C   0  0  0  0  0  0  0  0  0  0  0  0
  -16.8946   -7.3654    0.0000 C   0  0  0  0  0  0  0  0  0  0  0  0
  -16.4478   -8.7973    0.0000 N   0  0  0  0  0  0  0  0  0  0  0  0
  -17.4644   -9.9002    0.0000 C   0  0  0  0  0  0  0  0  0  0  0  0
  -17.0176  -11.3321    0.0000 N   0  0  0  0  0  0  0  0  0  0  0  0
  -18.9279   -9.5712    0.0000 N   0  0  0  0  0  0  0  0  0  0  0  0
  -13.8085   -3.7601    0.0000 C   0  0  0  0  0  0  0  0  0  0  0  0
  -13.6171   -5.2479    0.0000 O   0  0  0  0  0  0  0  0  0  0  0  0
  -12.3659   -3.3491    0.0000 N   0  0  0  0  0  0  0  0  0  0  0  0
  -11.1085   -2.5312    0.0000 C   0  0  0  0  0  0  0  0  0  0  0  0
  -10.8801   -4.0137    0.0000 C   0  0  0  0  0  0  0  0  0  0  0  0
   -9.4820   -4.5571    0.0000 C   0  0  0  0  0  0  0  0  0  0  0  0
   -9.2536   -6.0396    0.0000 C   0  0  0  0  0  0  0  0  0  0  0  0
   -7.8555   -6.5831    0.0000 N   0  0  0  0  0  0  0  0  0  0  0  0
  -10.4233   -6.9787    0.0000 O   0  0  0  0  0  0  0  0  0  0  0  0
  -10.1481   -1.3790    0.0000 C   0  0  0  0  0  0  0  0  0  0  0  0
   -8.8656   -2.1569    0.0000 O   0  0  0  0  0  0  0  0  0  0  0  0
   -9.5700    0.0051    0.0000 N   0  0  0  0  0  0  0  0  0  0  0  0
   -9.4256    1.4982    0.0000 C   0  0  0  0  0  0  0  0  0  0  0  0
   -9.7276    2.9674    0.0000 C   0  0  0  0  0  0  0  0  0  0  0  0
  -10.4493    4.2824    0.0000 C   0  0  0  0  0  0  0  0  0  0  0  0
  -11.5265    5.3263    0.0000 C   0  0  0  0  0  0  0  0  0  0  0  0
  -12.8636    6.0062    0.0000 C   0  0  0  0  0  0  0  0  0  0  0  0
   -8.1124    2.2231    0.0000 C   0  0  0  0  0  0  0  0  0  0  0  0
   -8.1241    0.7524    0.0000 C   0  0  0  0  0  0  0  0  0  0  0  0
   -7.9363   -0.7358    0.0000 O   0  0  0  0  0  0  0  0  0  0  0  0
   -6.8275    1.5067    0.0000 N   0  0  0  0  0  0  0  0  0  0  0  0
   -5.5260    0.7610    0.0000 C   0  0  0  0  0  0  0  0  0  0  0  0
   -4.5581   -0.3850    0.0000 C   0  0  0  0  0  0  0  0  0  0  0  0
   -3.0817   -0.1196    0.0000 C   0  0  0  0  0  0  0  0  0  0  0  0
   -2.1138   -1.2655    0.0000 C   0  0  0  0  0  0  0  0  0  0  0  0
   -0.6374   -1.0002    0.0000 N   0  0  0  0  0  0  0  0  0  0  0  0
    0.3305   -2.1461    0.0000 C   0  0  0  0  0  0  0  0  0  0  0  0
    1.8069   -1.8808    0.0000 N   0  0  0  0  0  0  0  0  0  0  0  0
   -0.1779   -3.5573    0.0000 N   0  0  0  0  0  0  0  0  0  0  0  0
   -4.2294    1.5152    0.0000 C   0  0  0  0  0  0  0  0  0  0  0  0
   -4.2343    3.0152    0.0000 O   0  0  0  0  0  0  0  0  0  0  0  0
   -2.9279    0.7695    0.0000 N   0  0  0  0  0  0  0  0  0  0  0  0
   -1.6314    1.5237    0.0000 C   0  0  0  0  0  0  0  0  0  0  0  0
   -0.1550    1.7890    0.0000 C   0  0  0  0  0  0  0  0  0  0  0  0
    0.8129    0.6431    0.0000 C   0  0  0  0  0  0  0  0  0  0  0  0
    2.2893    0.9084    0.0000 C   0  0  0  0  0  0  0  0  0  0  0  0
    3.2572   -0.2375    0.0000 N   0  0  0  0  0  0  0  0  0  0  0  0
    4.7336    0.0279    0.0000 C   0  0  0  0  0  0  0  0  0  0  0  0
    5.7015   -1.1180    0.0000 N   0  0  0  0  0  0  0  0  0  0  0  0
    5.2420    1.4391    0.0000 N   0  0  0  0  0  0  0  0  0  0  0  0
   -1.6363    3.0237    0.0000 C   0  0  0  0  0  0  0  0  0  0  0  0
   -2.9378    3.7694    0.0000 O   0  0  0  0  0  0  0  0  0  0  0  0
   -0.3397    3.7780    0.0000 N   0  0  0  0  0  0  0  0  0  0  0  0
   -0.3446    5.2780    0.0000 C   0  0  0  0  0  0  0  0  0  0  0  0
   -0.8623    6.6858    0.0000 C   0  0  0  0  0  0  0  0  0  0  0  0
   -2.3403    6.9414    0.0000 C   0  0  0  0  0  0  0  0  0  0  0  0
   -2.8580    8.3493    0.0000 O   0  0  0  0  0  0  0  0  0  0  0  0
   -3.3007    5.7892    0.0000 O   0  0  0  0  0  0  0  0  0  0  0  0
    0.9519    6.0322    0.0000 C   0  0  0  0  0  0  0  0  0  0  0  0
    1.1299    7.5216    0.0000 O   0  0  0  0  0  0  0  0  0  0  0  0
    2.2534    5.2865    0.0000 N   0  0  0  0  0  0  0  0  0  0  0  0
    3.5500    6.0407    0.0000 C   0  0  0  0  0  0  0  0  0  0  0  0
    4.5104    7.1929    0.0000 C   0  0  0  0  0  0  0  0  0  0  0  0
    3.9928    8.6008    0.0000 C   0  0  0  0  0  0  0  0  0  0  0  0
    4.9532    9.7530    0.0000 C   0  0  0  0  0  0  0  0  0  0  0  0
    4.4355   11.1609    0.0000 N   0  0  0  0  0  0  0  0  0  0  0  0
    5.3959   12.3131    0.0000 C   0  0  0  0  0  0  0  0  0  0  0  0
    4.8783   13.7209    0.0000 N   0  0  0  0  0  0  0  0  0  0  0  0
    6.8740   12.0575    0.0000 N   0  0  0  0  0  0  0  0  0  0  0  0
    4.8515    5.2950    0.0000 C   0  0  0  0  0  0  0  0  0  0  0  0
    4.8564    3.7950    0.0000 O   0  0  0  0  0  0  0  0  0  0  0  0
    6.1481    6.0492    0.0000 N   0  0  0  0  0  0  0  0  0  0  0  0
    7.4496    5.3035    0.0000 C   0  0  0  0  0  0  0  0  0  0  0  0
    8.4175    4.1576    0.0000 C   0  0  0  0  0  0  0  0  0  0  0  0
    7.9091    2.7464    0.0000 C   0  0  0  0  0  0  0  0  0  0  0  0
    8.8770    1.6005    0.0000 C   0  0  0  0  0  0  0  0  0  0  0  0
    8.3686    0.1893    0.0000 N   0  0  0  0  0  0  0  0  0  0  0  0
   10.3534    1.8658    0.0000 O   0  0  0  0  0  0  0  0  0  0  0  0
    8.7461    6.0578    0.0000 C   0  0  0  0  0  0  0  0  0  0  0  0
    8.7412    7.5578    0.0000 O   0  0  0  0  0  0  0  0  0  0  0  0
   10.0476    5.3120    0.0000 N   0  0  0  0  0  0  0  0  0  0  0  0
   11.3442    6.0663    0.0000 C   0  0  0  0  0  0  0  0  0  0  0  0
   12.3046    7.2185    0.0000 C   0  0  0  0  0  0  0  0  0  0  0  0
   13.7827    6.9629    0.0000 C   0  0  0  0  0  0  0  0  0  0  0  0
   14.7431    8.1151    0.0000 C   0  0  0  0  0  0  0  0  0  0  0  0
   16.2211    7.8595    0.0000 N   0  0  0  0  0  0  0  0  0  0  0  0
   17.1815    9.0117    0.0000 C   0  0  0  0  0  0  0  0  0  0  0  0
   18.6596    8.7560    0.0000 N   0  0  0  0  0  0  0  0  0  0  0  0
   16.6639   10.4195    0.0000 N   0  0  0  0  0  0  0  0  0  0  0  0
   12.6457    5.3205    0.0000 C   0  0  0  0  0  0  0  0  0  0  0  0
   14.0245    5.9111    0.0000 O   0  0  0  0  0  0  0  0  0  0  0  0
   12.6506    3.8205    0.0000 N   0  0  0  0  0  0  0  0  0  0  0  0
   13.9521    3.0748    0.0000 C   0  0  0  0  0  0  0  0  0  0  0  0
   15.4301    2.8192    0.0000 C   0  0  0  0  0  0  0  0  0  0  0  0
   15.9478    1.4113    0.0000 C   0  0  0  0  0  0  0  0  0  0  0  0
   17.4259    1.1557    0.0000 C   0  0  0  0  0  0  0  0  0  0  0  0
   17.9435   -0.2522    0.0000 N   0  0  0  0  0  0  0  0  0  0  0  0
   19.4216   -0.5078    0.0000 C   0  0  0  0  0  0  0  0  0  0  0  0
   19.9392   -1.9156    0.0000 N   0  0  0  0  0  0  0  0  0  0  0  0
   20.3820    0.6444    0.0000 N   0  0  0  0  0  0  0  0  0  0  0  0
   13.9570    1.5748    0.0000 C   0  0  0  0  0  0  0  0  0  0  0  0
   12.6604    0.8206    0.0000 O   0  0  0  0  0  0  0  0  0  0  0  0
   15.2585    0.8291    0.0000 N   0  0  0  0  0  0  0  0  0  0  0  0
   15.2634   -0.6709    0.0000 C   0  0  0  0  0  0  0  0  0  0  0  0
   15.7811   -2.0788    0.0000 C   0  0  0  0  0  0  0  0  0  0  0  0
   17.2591   -2.3344    0.0000 C   0  0  0  0  0  0  0  0  0  0  0  0
   17.7768   -3.7422    0.0000 C   0  0  0  0  0  0  0  0  0  0  0  0
   19.2548   -3.9979    0.0000 N   0  0  0  0  0  0  0  0  0  0  0  0
   19.7725   -5.4057    0.0000 C   0  0  0  0  0  0  0  0  0  0  0  0
   21.2505   -5.6614    0.0000 N   0  0  0  0  0  0  0  0  0  0  0  0
   18.8121   -6.5579    0.0000 N   0  0  0  0  0  0  0  0  0  0  0  0
   13.9668   -1.4252    0.0000 C   0  0  0  0  0  0  0  0  0  0  0  0
   12.6654   -0.6794    0.0000 O   0  0  0  0  0  0  0  0  0  0  0  0
   13.9718   -2.9252    0.0000 N   0  0  0  0  0  0  0  0  0  0  0  0
   12.6752   -3.6794    0.0000 C   0  0  0  0  0  0  0  0  0  0  0  0
   11.1988   -3.9447    0.0000 C   0  0  0  0  0  0  0  0  0  0  0  0
   10.6904   -5.3559    0.0000 C   0  0  0  0  0  0  0  0  0  0  0  0
    9.2141   -5.6213    0.0000 C   0  0  0  0  0  0  0  0  0  0  0  0
    8.7057   -7.0325    0.0000 N   0  0  0  0  0  0  0  0  0  0  0  0
    7.2293   -7.2978    0.0000 C   0  0  0  0  0  0  0  0  0  0  0  0
    6.7209   -8.7090    0.0000 N   0  0  0  0  0  0  0  0  0  0  0  0
    6.2614   -6.1519    0.0000 N   0  0  0  0  0  0  0  0  0  0  0  0
   12.6801   -5.1794    0.0000 C   0  0  0  0  0  0  0  0  0  0  0  0
   13.9816   -5.9251    0.0000 O   0  0  0  0  0  0  0  0  0  0  0  0
   11.3835   -5.9337    0.0000 N   0  0  0  0  0  0  0  0  0  0  0  0
   11.3884   -7.4337    0.0000 C   0  0  0  0  0  0  0  0  0  0  0  0
   10.8800   -8.8449    0.0000 C   0  0  0  0  0  0  0  0  0  0  0  0
   11.8480   -9.9908    0.0000 C   0  0  0  0  0  0  0  0  0  0  0  0
   11.3396  -11.4020    0.0000 C   0  0  0  0  0  0  0  0  0  0  0  0
   12.3075  -12.5479    0.0000 N   0  0  0  0  0  0  0  0  0  0  0  0
   11.7991  -13.9591    0.0000 C   0  0  0  0  0  0  0  0  0  0  0  0
   12.7671  -15.1050    0.0000 N   0  0  0  0  0  0  0  0  0  0  0  0
   10.3228  -14.2244    0.0000 N   0  0  0  0  0  0  0  0  0  0  0  0
   12.6899   -8.1794    0.0000 C   0  0  0  0  0  0  0  0  0  0  0  0
   13.9865   -7.4251    0.0000 O   0  0  0  0  0  0  0  0  0  0  0  0
   12.8777   -9.6676    0.0000 O   0  0  0  0  0  0  0  0  0  0  0  0
  -26.4268    5.8121    0.0000 H   0  0  0  0  0  0  0  0  0  0  0  0
  -25.9673    3.2550    0.0000 H   0  0  0  0  0  0  0  0  0  0  0  0
  -24.5002    6.3393    0.0000 H   0  0  0  0  0  0  0  0  0  0  0  0
  -22.6860    5.6857    0.0000 H   0  0  0  0  0  0  0  0  0  0  0  0
  -24.3112    3.0313    0.0000 H   0  0  0  0  0  0  0  0  0  0  0  0
  -22.4969    2.3777    0.0000 H   0  0  0  0  0  0  0  0  0  0  0  0
  -20.9299    2.1936    0.0000 H   0  0  0  0  0  0  0  0  0  0  0  0
  -18.7628    5.8847    0.0000 H   0  0  0  0  0  0  0  0  0  0  0  0
  -19.7717    4.8146    0.0000 H   0  0  0  0  0  0  0  0  0  0  0  0
  -17.3823    6.9372    0.0000 H   0  0  0  0  0  0  0  0  0  0  0  0
  -18.4790    6.2238    0.0000 H   0  0  0  0  0  0  0  0  0  0  0  0
  -15.3919    7.5052    0.0000 H   0  0  0  0  0  0  0  0  0  0  0  0
  -16.8283    7.1894    0.0000 H   0  0  0  0  0  0  0  0  0  0  0  0
  -14.3091    7.7615    0.0000 H   0  0  0  0  0  0  0  0  0  0  0  0
  -21.3993    4.6169    0.0000 H   0  0  0  0  0  0  0  0  0  0  0  0
  -20.1254    5.8757    0.0000 H   0  0  0  0  0  0  0  0  0  0  0  0
  -18.9412    5.5206    0.0000 H   0  0  0  0  0  0  0  0  0  0  0  0
  -20.8489   -0.0844    0.0000 H   0  0  0  0  0  0  0  0  0  0  0  0
  -19.4089   -2.5870    0.0000 H   0  0  0  0  0  0  0  0  0  0  0  0
  -21.6426   -0.3083    0.0000 H   0  0  0  0  0  0  0  0  0  0  0  0
  -20.3557    0.4170    0.0000 H   0  0  0  0  0  0  0  0  0  0  0  0
  -21.5644   -3.7800    0.0000 H   0  0  0  0  0  0  0  0  0  0  0  0
  -19.9147   -3.1000    0.0000 H   0  0  0  0  0  0  0  0  0  0  0  0
  -24.0645   -1.6055    0.0000 H   0  0  0  0  0  0  0  0  0  0  0  0
  -22.5099   -0.7295    0.0000 H   0  0  0  0  0  0  0  0  0  0  0  0
  -22.8809   -4.8094    0.0000 H   0  0  0  0  0  0  0  0  0  0  0  0
  -27.3694   -4.4878    0.0000 H   0  0  0  0  0  0  0  0  0  0  0  0
  -25.2180   -5.9443    0.0000 H   0  0  0  0  0  0  0  0  0  0  0  0
  -27.1837   -1.8964    0.0000 H   0  0  0  0  0  0  0  0  0  0  0  0
  -24.8467   -0.7615    0.0000 H   0  0  0  0  0  0  0  0  0  0  0  0
  -17.4115   -4.5916    0.0000 H   0  0  0  0  0  0  0  0  0  0  0  0
  -14.5571   -5.0261    0.0000 H   0  0  0  0  0  0  0  0  0  0  0  0
  -17.7314   -5.3517    0.0000 H   0  0  0  0  0  0  0  0  0  0  0  0
  -17.4960   -3.8934    0.0000 H   0  0  0  0  0  0  0  0  0  0  0  0
  -14.9683   -7.4552    0.0000 H   0  0  0  0  0  0  0  0  0  0  0  0
  -14.4714   -5.7413    0.0000 H   0  0  0  0  0  0  0  0  0  0  0  0
  -18.2272   -8.0541    0.0000 H   0  0  0  0  0  0  0  0  0  0  0  0
  -17.9428   -6.2924    0.0000 H   0  0  0  0  0  0  0  0  0  0  0  0
  -14.9843   -9.1263    0.0000 H   0  0  0  0  0  0  0  0  0  0  0  0
  -18.0343  -12.4350    0.0000 H   0  0  0  0  0  0  0  0  0  0  0  0
  -15.5541  -11.6611    0.0000 H   0  0  0  0  0  0  0  0  0  0  0  0
  -19.9446  -10.6741    0.0000 H   0  0  0  0  0  0  0  0  0  0  0  0
  -19.3747   -8.1393    0.0000 H   0  0  0  0  0  0  0  0  0  0  0  0
  -11.7445   -4.7144    0.0000 H   0  0  0  0  0  0  0  0  0  0  0  0
   -9.6251   -2.7536    0.0000 H   0  0  0  0  0  0  0  0  0  0  0  0
  -11.1725   -5.4849    0.0000 H   0  0  0  0  0  0  0  0  0  0  0  0
  -12.3431   -4.3451    0.0000 H   0  0  0  0  0  0  0  0  0  0  0  0
   -7.9824   -4.5896    0.0000 H   0  0  0  0  0  0  0  0  0  0  0  0
   -9.0125   -3.1325    0.0000 H   0  0  0  0  0  0  0  0  0  0  0  0
   -7.6271   -8.0656    0.0000 H   0  0  0  0  0  0  0  0  0  0  0  0
   -6.6858   -5.6440    0.0000 H   0  0  0  0  0  0  0  0  0  0  0  0
   -8.1706   -0.5348    0.0000 H   0  0  0  0  0  0  0  0  0  0  0  0
   -8.2349    2.8193    0.0000 H   0  0  0  0  0  0  0  0  0  0  0  0
   -8.8258    4.1661    0.0000 H   0  0  0  0  0  0  0  0  0  0  0  0
   -8.9793    4.5808    0.0000 H   0  0  0  0  0  0  0  0  0  0  0  0
   -9.7726    5.6211    0.0000 H   0  0  0  0  0  0  0  0  0  0  0  0
  -10.2098    6.0447    0.0000 H   0  0  0  0  0  0  0  0  0  0  0  0
  -11.4567    6.8246    0.0000 H   0  0  0  0  0  0  0  0  0  0  0  0
  -12.3905    7.4296    0.0000 H   0  0  0  0  0  0  0  0  0  0  0  0
   -6.7683    2.0865    0.0000 H   0  0  0  0  0  0  0  0  0  0  0  0
   -7.5454    3.7000    0.0000 H   0  0  0  0  0  0  0  0  0  0  0  0
   -8.7801    3.7633    0.0000 H   0  0  0  0  0  0  0  0  0  0  0  0
   -6.6495    2.9961    0.0000 H   0  0  0  0  0  0  0  0  0  0  0  0
   -6.4864   -0.3913    0.0000 H   0  0  0  0  0  0  0  0  0  0  0  0
   -4.2159   -1.8454    0.0000 H   0  0  0  0  0  0  0  0  0  0  0  0
   -5.8546   -1.1392    0.0000 H   0  0  0  0  0  0  0  0  0  0  0  0
   -1.7029    0.4709    0.0000 H   0  0  0  0  0  0  0  0  0  0  0  0
   -2.8777    1.3664    0.0000 H   0  0  0  0  0  0  0  0  0  0  0  0
   -1.5961   -2.6734    0.0000 H   0  0  0  0  0  0  0  0  0  0  0  0
   -3.3087   -2.1722    0.0000 H   0  0  0  0  0  0  0  0  0  0  0  0
   -0.3048    0.4624    0.0000 H   0  0  0  0  0  0  0  0  0  0  0  0
    2.7748   -3.0267    0.0000 H   0  0  0  0  0  0  0  0  0  0  0  0
    2.3153   -0.4696    0.0000 H   0  0  0  0  0  0  0  0  0  0  0  0
    0.7901   -4.7032    0.0000 H   0  0  0  0  0  0  0  0  0  0  0  0
   -1.6542   -3.8227    0.0000 H   0  0  0  0  0  0  0  0  0  0  0  0
   -2.5602   -0.6848    0.0000 H   0  0  0  0  0  0  0  0  0  0  0  0
   -1.1137    0.1159    0.0000 H   0  0  0  0  0  0  0  0  0  0  0  0
    1.1416    2.5433    0.0000 H   0  0  0  0  0  0  0  0  0  0  0  0
   -0.3166    3.2803    0.0000 H   0  0  0  0  0  0  0  0  0  0  0  0
    1.3306   -0.7647    0.0000 H   0  0  0  0  0  0  0  0  0  0  0  0
   -0.6276    0.2250    0.0000 H   0  0  0  0  0  0  0  0  0  0  0  0
    3.5858    1.6627    0.0000 H   0  0  0  0  0  0  0  0  0  0  0  0
    1.9471    2.3689    0.0000 H   0  0  0  0  0  0  0  0  0  0  0  0
    2.7488   -1.6487    0.0000 H   0  0  0  0  0  0  0  0  0  0  0  0
    7.1345   -0.6747    0.0000 H   0  0  0  0  0  0  0  0  0  0  0  0
    5.1931   -2.5293    0.0000 H   0  0  0  0  0  0  0  0  0  0  0  0
    6.7397    1.5224    0.0000 H   0  0  0  0  0  0  0  0  0  0  0  0
    4.2740    2.5850    0.0000 H   0  0  0  0  0  0  0  0  0  0  0  0
    1.0430    3.1964    0.0000 H   0  0  0  0  0  0  0  0  0  0  0  0
   -1.8210    5.0126    0.0000 H   0  0  0  0  0  0  0  0  0  0  0  0
   -0.8672    8.1858    0.0000 H   0  0  0  0  0  0  0  0  0  0  0  0
    0.5707    7.1291    0.0000 H   0  0  0  0  0  0  0  0  0  0  0  0
    2.2584    3.7865    0.0000 H   0  0  0  0  0  0  0  0  0  0  0  0
    2.4496    7.0601    0.0000 H   0  0  0  0  0  0  0  0  0  0  0  0
    5.8070    7.9472    0.0000 H   0  0  0  0  0  0  0  0  0  0  0  0
    5.7269    6.3153    0.0000 H   0  0  0  0  0  0  0  0  0  0  0  0
    3.0248    9.7467    0.0000 H   0  0  0  0  0  0  0  0  0  0  0  0
    2.6139    8.0102    0.0000 H   0  0  0  0  0  0  0  0  0  0  0  0
    6.2498   10.5073    0.0000 H   0  0  0  0  0  0  0  0  0  0  0  0
    6.0536    8.7337    0.0000 H   0  0  0  0  0  0  0  0  0  0  0  0
    2.9575   11.4165    0.0000 H   0  0  0  0  0  0  0  0  0  0  0  0
    5.8387   14.8732    0.0000 H   0  0  0  0  0  0  0  0  0  0  0  0
    3.4002   13.9766    0.0000 H   0  0  0  0  0  0  0  0  0  0  0  0
    7.8344   13.2097    0.0000 H   0  0  0  0  0  0  0  0  0  0  0  0
    7.3916   10.6496    0.0000 H   0  0  0  0  0  0  0  0  0  0  0  0
    6.3260    7.5386    0.0000 H   0  0  0  0  0  0  0  0  0  0  0  0
    6.3559    4.2769    0.0000 H   0  0  0  0  0  0  0  0  0  0  0  0
    9.6184    3.2588    0.0000 H   0  0  0  0  0  0  0  0  0  0  0  0
    9.6282    5.0432    0.0000 H   0  0  0  0  0  0  0  0  0  0  0  0
    7.0963    1.4857    0.0000 H   0  0  0  0  0  0  0  0  0  0  0  0
    6.5264    3.3279    0.0000 H   0  0  0  0  0  0  0  0  0  0  0  0
    9.3366   -0.9566    0.0000 H   0  0  0  0  0  0  0  0  0  0  0  0
    6.8709    0.1059    0.0000 H   0  0  0  0  0  0  0  0  0  0  0  0
   10.2353    3.8238    0.0000 H   0  0  0  0  0  0  0  0  0  0  0  0
   10.3763    7.2122    0.0000 H   0  0  0  0  0  0  0  0  0  0  0  0
   12.6372    8.6812    0.0000 H   0  0  0  0  0  0  0  0  0  0  0  0
   11.0031    7.9642    0.0000 H   0  0  0  0  0  0  0  0  0  0  0  0
   15.0842    6.2171    0.0000 H   0  0  0  0  0  0  0  0  0  0  0  0
   13.8139    5.4632    0.0000 H   0  0  0  0  0  0  0  0  0  0  0  0
   15.2515    9.5263    0.0000 H   0  0  0  0  0  0  0  0  0  0  0  0
   13.5422    9.0139    0.0000 H   0  0  0  0  0  0  0  0  0  0  0  0
   16.7388    6.4516    0.0000 H   0  0  0  0  0  0  0  0  0  0  0  0
   19.6200    9.9083    0.0000 H   0  0  0  0  0  0  0  0  0  0  0  0
   19.1772    7.3482    0.0000 H   0  0  0  0  0  0  0  0  0  0  0  0
   17.6243   11.5717    0.0000 H   0  0  0  0  0  0  0  0  0  0  0  0
   15.1858   10.6752    0.0000 H   0  0  0  0  0  0  0  0  0  0  0  0
   11.3540    3.0663    0.0000 H   0  0  0  0  0  0  0  0  0  0  0  0
   14.4605    4.4860    0.0000 H   0  0  0  0  0  0  0  0  0  0  0  0
   16.8631    3.2625    0.0000 H   0  0  0  0  0  0  0  0  0  0  0  0
   15.4252    4.3192    0.0000 H   0  0  0  0  0  0  0  0  0  0  0  0
   16.1355   -0.0769    0.0000 H   0  0  0  0  0  0  0  0  0  0  0  0
   14.7689    0.4838    0.0000 H   0  0  0  0  0  0  0  0  0  0  0  0
   18.9022    1.4210    0.0000 H   0  0  0  0  0  0  0  0  0  0  0  0
   17.6038    2.6451    0.0000 H   0  0  0  0  0  0  0  0  0  0  0  0
   16.8498   -1.2787    0.0000 H   0  0  0  0  0  0  0  0  0  0  0  0
   21.4173   -2.1713    0.0000 H   0  0  0  0  0  0  0  0  0  0  0  0
   18.9788   -3.0679    0.0000 H   0  0  0  0  0  0  0  0  0  0  0  0
   21.8600    0.3888    0.0000 H   0  0  0  0  0  0  0  0  0  0  0  0
   19.8643    2.0523    0.0000 H   0  0  0  0  0  0  0  0  0  0  0  0
   16.6990    1.2472    0.0000 H   0  0  0  0  0  0  0  0  0  0  0  0
   16.7398   -0.4056    0.0000 H   0  0  0  0  0  0  0  0  0  0  0  0
   15.7860   -3.5788    0.0000 H   0  0  0  0  0  0  0  0  0  0  0  0
   14.4128   -2.6934    0.0000 H   0  0  0  0  0  0  0  0  0  0  0  0
   18.7355   -2.0691    0.0000 H   0  0  0  0  0  0  0  0  0  0  0  0
   16.8914   -0.8802    0.0000 H   0  0  0  0  0  0  0  0  0  0  0  0
   17.7817   -5.2422    0.0000 H   0  0  0  0  0  0  0  0  0  0  0  0
   16.3438   -4.1855    0.0000 H   0  0  0  0  0  0  0  0  0  0  0  0
   20.2152   -2.8457    0.0000 H   0  0  0  0  0  0  0  0  0  0  0  0
   21.7682   -7.0692    0.0000 H   0  0  0  0  0  0  0  0  0  0  0  0
   22.2109   -4.5091    0.0000 H   0  0  0  0  0  0  0  0  0  0  0  0
   19.3297   -7.9658    0.0000 H   0  0  0  0  0  0  0  0  0  0  0  0
   17.3340   -6.3023    0.0000 H   0  0  0  0  0  0  0  0  0  0  0  0
   15.1726   -3.8240    0.0000 H   0  0  0  0  0  0  0  0  0  0  0  0
   12.1575   -2.2716    0.0000 H   0  0  0  0  0  0  0  0  0  0  0  0
    9.7630   -3.5108    0.0000 H   0  0  0  0  0  0  0  0  0  0  0  0
   11.1939   -2.4447    0.0000 H   0  0  0  0  0  0  0  0  0  0  0  0
   10.5125   -6.8453    0.0000 H   0  0  0  0  0  0  0  0  0  0  0  0
   11.8754   -6.2757    0.0000 H   0  0  0  0  0  0  0  0  0  0  0  0
    7.7360   -5.3656    0.0000 H   0  0  0  0  0  0  0  0  0  0  0  0
    9.0264   -4.1330    0.0000 H   0  0  0  0  0  0  0  0  0  0  0  0
    9.5267   -8.2878    0.0000 H   0  0  0  0  0  0  0  0  0  0  0  0
    5.2446   -8.9743    0.0000 H   0  0  0  0  0  0  0  0  0  0  0  0
    7.6889   -9.8549    0.0000 H   0  0  0  0  0  0  0  0  0  0  0  0
    4.7850   -6.4172    0.0000 H   0  0  0  0  0  0  0  0  0  0  0  0
    6.7698   -4.7407    0.0000 H   0  0  0  0  0  0  0  0  0  0  0  0
    9.9403   -5.5250    0.0000 H   0  0  0  0  0  0  0  0  0  0  0  0
    9.8902   -7.3601    0.0000 H   0  0  0  0  0  0  0  0  0  0  0  0
    9.7863   -9.8714    0.0000 H   0  0  0  0  0  0  0  0  0  0  0  0
    9.4974   -8.2633    0.0000 H   0  0  0  0  0  0  0  0  0  0  0  0
   13.1495  -10.7365    0.0000 H   0  0  0  0  0  0  0  0  0  0  0  0
   13.1576   -9.2594    0.0000 H   0  0  0  0  0  0  0  0  0  0  0  0
   10.3792  -12.5542    0.0000 H   0  0  0  0  0  0  0  0  0  0  0  0
    9.9569  -10.8204    0.0000 H   0  0  0  0  0  0  0  0  0  0  0  0
   13.7839  -12.2826    0.0000 H   0  0  0  0  0  0  0  0  0  0  0  0
   12.2586  -16.5162    0.0000 H   0  0  0  0  0  0  0  0  0  0  0  0
   14.2434  -14.8397    0.0000 H   0  0  0  0  0  0  0  0  0  0  0  0
    9.8144  -15.6356    0.0000 H   0  0  0  0  0  0  0  0  0  0  0  0
    9.3548  -13.0785    0.0000 H   0  0  0  0  0  0  0  0  0  0  0  0
  1  2  1  0
  2  3  1  0
  3  4  1  0
  4  5  2  0
  4  6  1  0
  7  6  1  1
  7  8  1  0
  8  9  1  0
  9 10  1  0
 10 11  1  0
  7 12  1  0
  7 13  1  0
 13 14  2  0
 13 15  1  0
 15 16  1  0
 16 17  1  0
 17 18  1  0
 18 19  1  0
 19 20  1  0
 20 21  1  0
 21 22  2  3
 21 23  1  0
 16 24  1  0
 24 25  2  0
 24 26  1  0
 26 27  1  0
 27 28  1  0
 28 29  1  0
 29 30  1  0
 30 31  1  0
 31 32  1  0
 32 33  2  3
 32 34  1  0
 27 35  1  0
 35 36  2  0
 35 37  1  0
 37 38  1  0
 38 39  1  0
 39 40  1  0
 40 41  1  0
 41 42  1  0
 41 43  2  0
 38 44  1  0
 44 45  2  0
 44 46  1  0
 46 47  1  0
 47 48  1  0
 48 49  1  0
 49 50  1  0
 50 51  1  0
 47 52  1  0
 47 53  1  1
 53 54  2  0
 53 55  1  0
 55 56  1  0
 56 57  1  0
 57 58  1  0
 58 59  1  0
 59 60  1  0
 60 61  1  0
 61 62  2  3
 61 63  1  0
 56 64  1  0
 64 65  2  0
 64 66  1  0
 66 67  1  0
 67 68  1  0
 68 69  1  0
 69 70  1  0
 70 71  1  0
 71 72  1  0
 72 73  2  3
 72 74  1  0
 67 75  1  0
 75 76  2  0
 75 77  1  0
 77 78  1  0
 78 79  1  0
 79 80  1  0
 80 81  2  0
 80 82  1  0
 78 83  1  0
 83 84  2  0
 83 85  1  0
 85 86  1  0
 86 87  1  0
 87 88  1  0
 88 89  1  0
 89 90  1  0
 90 91  1  0
 91 92  2  3
 91 93  1  0
 86 94  1  0
 94 95  2  0
 94 96  1  0
 96 97  1  0
 97 98  1  0
 98 99  1  0
 99100  1  0
100101  1  0
100102  2  0
 97103  1  0
103104  2  0
103105  1  0
105106  1  0
106107  1  0
107108  1  0
108109  1  0
109110  1  0
110111  1  0
111112  2  3
111113  1  0
106114  1  0
114115  2  0
114116  1  0
116117  1  0
117118  1  0
118119  1  0
119120  1  0
120121  1  0
121122  1  0
122123  2  3
122124  1  0
117125  1  0
125126  2  0
125127  1  0
127128  1  0
128129  1  0
129130  1  0
130131  1  0
131132  1  0
132133  1  0
133134  2  3
133135  1  0
128136  1  0
136137  2  0
136138  1  0
138139  1  0
139140  1  0
140141  1  0
141142  1  0
142143  1  0
143144  1  0
144145  2  3
144146  1  0
139147  1  0
147148  2  0
147149  1  0
149150  1  0
150151  1  0
151152  1  0
152153  1  0
153154  1  0
154155  1  0
155156  2  3
155157  1  0
150158  1  0
158159  2  0
158160  1  0
 11 51  2  0
  1161  1  0
  1162  1  0
  2163  1  0
  2164  1  0
  3165  1  0
  3166  1  0
  6167  1  0
  8168  1  0
  8169  1  0
  9170  1  0
  9171  1  0
 10172  1  0
 10173  1  0
 11174  1  0
 12175  1  0
 12176  1  0
 12177  1  0
 15178  1  0
 16179  1  6
 17180  1  0
 17181  1  0
 18182  1  0
 18183  1  0
 19184  1  0
 19185  1  0
 20186  1  0
 22187  1  0
 22188  1  0
 23189  1  0
 23190  1  0
 26191  1  0
 27192  1  6
 28193  1  0
 28194  1  0
 29195  1  0
 29196  1  0
 30197  1  0
 30198  1  0
 31199  1  0
 33200  1  0
 33201  1  0
 34202  1  0
 34203  1  0
 37204  1  0
 38205  1  6
 39206  1  0
 39207  1  0
 40208  1  0
 40209  1  0
 42210  1  0
 42211  1  0
 46212  1  0
 48213  1  0
 48214  1  0
 49215  1  0
 49216  1  0
 50217  1  0
 50218  1  0
 51219  1  0
 52220  1  0
 52221  1  0
 52222  1  0
 55223  1  0
 56224  1  6
 57225  1  0
 57226  1  0
 58227  1  0
 58228  1  0
 59229  1  0
 59230  1  0
 60231  1  0
 62232  1  0
 62233  1  0
 63234  1  0
 63235  1  0
 66236  1  0
 67237  1  6
 68238  1  0
 68239  1  0
 69240  1  0
 69241  1  0
 70242  1  0
 70243  1  0
 71244  1  0
 73245  1  0
 73246  1  0
 74247  1  0
 74248  1  0
 77249  1  0
 78250  1  1
 79251  1  0
 79252  1  0
 85253  1  0
 86254  1  1
 87255  1  0
 87256  1  0
 88257  1  0
 88258  1  0
 89259  1  0
 89260  1  0
 90261  1  0
 92262  1  0
 92263  1  0
 93264  1  0
 93265  1  0
 96266  1  0
 97267  1  6
 98268  1  0
 98269  1  0
 99270  1  0
 99271  1  0
101272  1  0
101273  1  0
105274  1  0
106275  1  1
107276  1  0
107277  1  0
108278  1  0
108279  1  0
109280  1  0
109281  1  0
110282  1  0
112283  1  0
112284  1  0
113285  1  0
113286  1  0
116287  1  0
117288  1  1
118289  1  0
118290  1  0
119291  1  0
119292  1  0
120293  1  0
120294  1  0
121295  1  0
123296  1  0
123297  1  0
124298  1  0
124299  1  0
127300  1  0
128301  1  1
129302  1  0
129303  1  0
130304  1  0
130305  1  0
131306  1  0
131307  1  0
132308  1  0
134309  1  0
134310  1  0
135311  1  0
135312  1  0
138313  1  0
139314  1  6
140315  1  0
140316  1  0
141317  1  0
141318  1  0
142319  1  0
142320  1  0
143321  1  0
145322  1  0
145323  1  0
146324  1  0
146325  1  0
149326  1  0
150327  1  6
151328  1  0
151329  1  0
152330  1  0
152331  1  0
153332  1  0
153333  1  0
154334  1  0
156335  1  0
156336  1  0
157337  1  0
157338  1  0
M  CHG  8  22   1  33   1  62   1  73   1  82  -1  92   1 112   1 123   1
M  CHG  4 134   1 145   1 156   1 160  -1
M  END
