
     RDKit          2D

300299  0  0  0  0  0  0  0  0999 V2000
  -25.2434   -4.4118    0.0000 N   0  0  0  0  0  0  0  0  0  0  0  0
  -24.4781   -3.1217    0.0000 C   0  0  0  0  0  0  0  0  0  0  0  0
  -22.9782   -3.1394    0.0000 C   0  0  0  0  0  0  0  0  0  0  0  0
  -22.2129   -1.8493    0.0000 C   0  0  0  0  0  0  0  0  0  0  0  0
  -22.9475   -0.5415    0.0000 O   0  0  0  0  0  0  0  0  0  0  0  0
  -20.7130   -1.8671    0.0000 N   0  0  0  0  0  0  0  0  0  0  0  0
  -19.9477   -0.5770    0.0000 C   0  0  0  0  0  0  0  0  0  0  0  0
  -19.6698    0.8970    0.0000 C   0  0  0  0  0  0  0  0  0  0  0  0
  -20.8074    1.8747    0.0000 C   0  0  0  0  0  0  0  0  0  0  0  0
  -20.5294    3.3488    0.0000 C   0  0  0  0  0  0  0  0  0  0  0  0
  -21.6670    4.3265    0.0000 N   0  0  0  0  0  0  0  0  0  0  0  0
  -21.3891    5.8005    0.0000 C   0  0  0  0  0  0  0  0  0  0  0  0
  -22.5267    6.7782    0.0000 N   0  0  0  0  0  0  0  0  0  0  0  0
  -19.9736    6.2968    0.0000 N   0  0  0  0  0  0  0  0  0  0  0  0
  -18.4478   -0.5947    0.0000 C   0  0  0  0  0  0  0  0  0  0  0  0
  -17.8462    0.1842    0.0000 O   0  0  0  0  0  0  0  0  0  0  0  0
  -17.7132   -1.9025    0.0000 N   0  0  0  0  0  0  0  0  0  0  0  0
  -16.2133   -1.9203    0.0000 C   0  0  0  0  0  0  0  0  0  0  0  0
  -14.8099   -2.4499    0.0000 C   0  0  0  0  0  0  0  0  0  0  0  0
  -14.5669   -3.9301    0.0000 C   0  0  0  0  0  0  0  0  0  0  0  0
  -13.1636   -4.4598    0.0000 C   0  0  0  0  0  0  0  0  0  0  0  0
  -12.9206   -5.9400    0.0000 N   0  0  0  0  0  0  0  0  0  0  0  0
  -11.5172   -6.4696    0.0000 C   0  0  0  0  0  0  0  0  0  0  0  0
  -11.2742   -7.9498    0.0000 N   0  0  0  0  0  0  0  0  0  0  0  0
  -10.3568   -5.5191    0.0000 N   0  0  0  0  0  0  0  0  0  0  0  0
  -15.4480   -0.6302    0.0000 C   0  0  0  0  0  0  0  0  0  0  0  0
  -16.1826    0.6776    0.0000 O   0  0  0  0  0  0  0  0  0  0  0  0
  -13.9481   -0.6479    0.0000 N   0  0  0  0  0  0  0  0  0  0  0  0
  -13.1828    0.6422    0.0000 C   0  0  0  0  0  0  0  0  0  0  0  0
  -12.9049    2.1162    0.0000 C   0  0  0  0  0  0  0  0  0  0  0  0
  -11.4894    2.6125    0.0000 C   0  0  0  0  0  0  0  0  0  0  0  0
  -11.2115    4.0865    0.0000 C   0  0  0  0  0  0  0  0  0  0  0  0
   -9.7960    4.5829    0.0000 N   0  0  0  0  0  0  0  0  0  0  0  0
   -9.5180    6.0569    0.0000 C   0  0  0  0  0  0  0  0  0  0  0  0
   -8.1025    6.5532    0.0000 N   0  0  0  0  0  0  0  0  0  0  0  0
  -10.6556    7.0346    0.0000 N   0  0  0  0  0  0  0  0  0  0  0  0
  -11.6829    0.6244    0.0000 C   0  0  0  0  0  0  0  0  0  0  0  0
  -10.9483   -0.6834    0.0000 O   0  0  0  0  0  0  0  0  0  0  0  0
  -10.9176    1.9145    0.0000 N   0  0  0  0  0  0  0  0  0  0  0  0
   -9.4177    1.8968    0.0000 C   0  0  0  0  0  0  0  0  0  0  0  0
   -8.0022    2.3931    0.0000 C   0  0  0  0  0  0  0  0  0  0  0  0
   -7.7243    3.8671    0.0000 C   0  0  0  0  0  0  0  0  0  0  0  0
   -6.3088    4.3635    0.0000 C   0  0  0  0  0  0  0  0  0  0  0  0
   -6.0309    5.8375    0.0000 N   0  0  0  0  0  0  0  0  0  0  0  0
   -4.6154    6.3338    0.0000 C   0  0  0  0  0  0  0  0  0  0  0  0
   -4.3374    7.8078    0.0000 N   0  0  0  0  0  0  0  0  0  0  0  0
   -3.4778    5.3561    0.0000 N   0  0  0  0  0  0  0  0  0  0  0  0
   -8.6831    0.5890    0.0000 C   0  0  0  0  0  0  0  0  0  0  0  0
   -9.4484   -0.7011    0.0000 O   0  0  0  0  0  0  0  0  0  0  0  0
   -7.1832    0.5712    0.0000 N   0  0  0  0  0  0  0  0  0  0  0  0
   -6.4486   -0.7366    0.0000 C   0  0  0  0  0  0  0  0  0  0  0  0
   -6.2056   -2.2168    0.0000 C   0  0  0  0  0  0  0  0  0  0  0  0
   -4.8023   -2.7464    0.0000 C   0  0  0  0  0  0  0  0  0  0  0  0
   -4.5593   -4.2266    0.0000 C   0  0  0  0  0  0  0  0  0  0  0  0
   -3.1559   -4.7563    0.0000 N   0  0  0  0  0  0  0  0  0  0  0  0
   -2.9129   -6.2365    0.0000 C   0  0  0  0  0  0  0  0  0  0  0  0
   -1.5095   -6.7661    0.0000 N   0  0  0  0  0  0  0  0  0  0  0  0
   -4.0733   -7.1870    0.0000 N   0  0  0  0  0  0  0  0  0  0  0  0
   -4.9487   -0.7543    0.0000 C   0  0  0  0  0  0  0  0  0  0  0  0
   -4.1834    0.5358    0.0000 O   0  0  0  0  0  0  0  0  0  0  0  0
   -4.2142   -2.0621    0.0000 N   0  0  0  0  0  0  0  0  0  0  0  0
   -2.7143   -2.0799    0.0000 C   0  0  0  0  0  0  0  0  0  0  0  0
   -1.3109   -2.6095    0.0000 C   0  0  0  0  0  0  0  0  0  0  0  0
   -1.0679   -4.0897    0.0000 C   0  0  0  0  0  0  0  0  0  0  0  0
    0.3355   -4.6194    0.0000 C   0  0  0  0  0  0  0  0  0  0  0  0
    0.5785   -6.0996    0.0000 N   0  0  0  0  0  0  0  0  0  0  0  0
    1.9819   -6.6292    0.0000 C   0  0  0  0  0  0  0  0  0  0  0  0
    2.2248   -8.1094    0.0000 N   0  0  0  0  0  0  0  0  0  0  0  0
    3.1422   -5.6787    0.0000 N   0  0  0  0  0  0  0  0  0  0  0  0
   -1.9489   -0.7898    0.0000 C   0  0  0  0  0  0  0  0  0  0  0  0
   -2.6835    0.5180    0.0000 O   0  0  0  0  0  0  0  0  0  0  0  0
   -0.4491   -0.8075    0.0000 N   0  0  0  0  0  0  0  0  0  0  0  0
    0.3163    0.4826    0.0000 C   0  0  0  0  0  0  0  0  0  0  0  0
    0.5942    1.9566    0.0000 C   0  0  0  0  0  0  0  0  0  0  0  0
    2.0097    2.4529    0.0000 C   0  0  0  0  0  0  0  0  0  0  0  0
    2.2876    3.9269    0.0000 C   0  0  0  0  0  0  0  0  0  0  0  0
    3.7031    4.4233    0.0000 N   0  0  0  0  0  0  0  0  0  0  0  0
    3.9810    5.8973    0.0000 C   0  0  0  0  0  0  0  0  0  0  0  0
    5.3965    6.3936    0.0000 N   0  0  0  0  0  0  0  0  0  0  0  0
    2.8434    6.8750    0.0000 N   0  0  0  0  0  0  0  0  0  0  0  0
    1.8161    0.4648    0.0000 C   0  0  0  0  0  0  0  0  0  0  0  0
    2.5507   -0.8430    0.0000 O   0  0  0  0  0  0  0  0  0  0  0  0
    2.5815    1.7549    0.0000 N   0  0  0  0  0  0  0  0  0  0  0  0
    4.0813    1.7372    0.0000 C   0  0  0  0  0  0  0  0  0  0  0  0
    5.4969    2.2335    0.0000 C   0  0  0  0  0  0  0  0  0  0  0  0
    5.7748    3.7075    0.0000 C   0  0  0  0  0  0  0  0  0  0  0  0
    7.1903    4.2039    0.0000 C   0  0  0  0  0  0  0  0  0  0  0  0
    7.4682    5.6779    0.0000 N   0  0  0  0  0  0  0  0  0  0  0  0
    8.8837    6.1742    0.0000 C   0  0  0  0  0  0  0  0  0  0  0  0
    9.1616    7.6482    0.0000 N   0  0  0  0  0  0  0  0  0  0  0  0
   10.0213    5.1965    0.0000 N   0  0  0  0  0  0  0  0  0  0  0  0
    4.8159    0.4294    0.0000 C   0  0  0  0  0  0  0  0  0  0  0  0
    4.0506   -0.8607    0.0000 O   0  0  0  0  0  0  0  0  0  0  0  0
    6.3158    0.4116    0.0000 N   0  0  0  0  0  0  0  0  0  0  0  0
    7.0504   -0.8962    0.0000 C   0  0  0  0  0  0  0  0  0  0  0  0
    7.2934   -2.3764    0.0000 C   0  0  0  0  0  0  0  0  0  0  0  0
    8.6968   -2.9060    0.0000 C   0  0  0  0  0  0  0  0  0  0  0  0
    8.9398   -4.3862    0.0000 C   0  0  0  0  0  0  0  0  0  0  0  0
   10.3432   -4.9159    0.0000 N   0  0  0  0  0  0  0  0  0  0  0  0
   10.5861   -6.3961    0.0000 C   0  0  0  0  0  0  0  0  0  0  0  0
   11.9895   -6.9257    0.0000 N   0  0  0  0  0  0  0  0  0  0  0  0
    9.4258   -7.3466    0.0000 N   0  0  0  0  0  0  0  0  0  0  0  0
    8.5503   -0.9139    0.0000 C   0  0  0  0  0  0  0  0  0  0  0  0
    9.3156    0.3762    0.0000 O   0  0  0  0  0  0  0  0  0  0  0  0
    9.2849   -2.2217    0.0000 N   0  0  0  0  0  0  0  0  0  0  0  0
   10.7848   -2.2395    0.0000 C   0  0  0  0  0  0  0  0  0  0  0  0
   12.1882   -2.7691    0.0000 C   0  0  0  0  0  0  0  0  0  0  0  0
   12.4312   -4.2493    0.0000 C   0  0  0  0  0  0  0  0  0  0  0  0
   13.8345   -4.7790    0.0000 C   0  0  0  0  0  0  0  0  0  0  0  0
   14.0775   -6.2592    0.0000 N   0  0  0  0  0  0  0  0  0  0  0  0
   15.4809   -6.7888    0.0000 C   0  0  0  0  0  0  0  0  0  0  0  0
   15.7239   -8.2690    0.0000 N   0  0  0  0  0  0  0  0  0  0  0  0
   16.6413   -5.8383    0.0000 N   0  0  0  0  0  0  0  0  0  0  0  0
   11.5501   -0.9494    0.0000 C   0  0  0  0  0  0  0  0  0  0  0  0
   10.8155    0.3584    0.0000 O   0  0  0  0  0  0  0  0  0  0  0  0
   13.0500   -0.9671    0.0000 N   0  0  0  0  0  0  0  0  0  0  0  0
   13.8153    0.3230    0.0000 C   0  0  0  0  0  0  0  0  0  0  0  0
   14.0932    1.7970    0.0000 C   0  0  0  0  0  0  0  0  0  0  0  0
   15.5087    2.2933    0.0000 C   0  0  0  0  0  0  0  0  0  0  0  0
   15.7866    3.7673    0.0000 C   0  0  0  0  0  0  0  0  0  0  0  0
   17.2022    4.2637    0.0000 N   0  0  0  0  0  0  0  0  0  0  0  0
   17.4801    5.7377    0.0000 C   0  0  0  0  0  0  0  0  0  0  0  0
   18.8956    6.2340    0.0000 N   0  0  0  0  0  0  0  0  0  0  0  0
   16.3425    6.7154    0.0000 N   0  0  0  0  0  0  0  0  0  0  0  0
   15.3152    0.3052    0.0000 C   0  0  0  0  0  0  0  0  0  0  0  0
   16.2321    1.4924    0.0000 O   0  0  0  0  0  0  0  0  0  0  0  0
   16.0498   -1.0026    0.0000 N   0  0  0  0  0  0  0  0  0  0  0  0
   17.5497   -1.0203    0.0000 C   0  0  0  0  0  0  0  0  0  0  0  0
   18.9652   -0.5240    0.0000 C   0  0  0  0  0  0  0  0  0  0  0  0
   19.2431    0.9500    0.0000 C   0  0  0  0  0  0  0  0  0  0  0  0
   20.6586    1.4464    0.0000 C   0  0  0  0  0  0  0  0  0  0  0  0
   20.9365    2.9204    0.0000 N   0  0  0  0  0  0  0  0  0  0  0  0
   22.3520    3.4167    0.0000 C   0  0  0  0  0  0  0  0  0  0  0  0
   22.6300    4.8908    0.0000 N   0  0  0  0  0  0  0  0  0  0  0  0
   23.4896    2.4390    0.0000 N   0  0  0  0  0  0  0  0  0  0  0  0
   18.2843   -2.3281    0.0000 C   0  0  0  0  0  0  0  0  0  0  0  0
   17.5190   -3.6182    0.0000 O   0  0  0  0  0  0  0  0  0  0  0  0
   19.7708   -2.5286    0.0000 O   0  0  0  0  0  0  0  0  0  0  0  0
  -26.7433   -4.3940    0.0000 H   0  0  0  0  0  0  0  0  0  0  0  0
  -24.5088   -5.7196    0.0000 H   0  0  0  0  0  0  0  0  0  0  0  0
  -25.8815   -2.5920    0.0000 H   0  0  0  0  0  0  0  0  0  0  0  0
  -24.2002   -1.6477    0.0000 H   0  0  0  0  0  0  0  0  0  0  0  0
  -23.2561   -4.6134    0.0000 H   0  0  0  0  0  0  0  0  0  0  0  0
  -21.5748   -3.6691    0.0000 H   0  0  0  0  0  0  0  0  0  0  0  0
  -19.9784   -3.1749    0.0000 H   0  0  0  0  0  0  0  0  0  0  0  0
  -21.4052   -0.2223    0.0000 H   0  0  0  0  0  0  0  0  0  0  0  0
  -18.7529    2.0842    0.0000 H   0  0  0  0  0  0  0  0  0  0  0  0
  -18.7135    0.6644    0.0000 H   0  0  0  0  0  0  0  0  0  0  0  0
  -22.2107    2.4044    0.0000 H   0  0  0  0  0  0  0  0  0  0  0  0
  -21.7242    0.6876    0.0000 H   0  0  0  0  0  0  0  0  0  0  0  0
  -19.7641    4.6388    0.0000 H   0  0  0  0  0  0  0  0  0  0  0  0
  -19.0720    2.9941    0.0000 H   0  0  0  0  0  0  0  0  0  0  0  0
  -23.0825    3.8301    0.0000 H   0  0  0  0  0  0  0  0  0  0  0  0
  -22.2488    8.2522    0.0000 H   0  0  0  0  0  0  0  0  0  0  0  0
  -23.9422    6.2819    0.0000 H   0  0  0  0  0  0  0  0  0  0  0  0
  -19.6957    7.7709    0.0000 H   0  0  0  0  0  0  0  0  0  0  0  0
  -18.8360    5.3191    0.0000 H   0  0  0  0  0  0  0  0  0  0  0  0
  -18.4785   -3.1926    0.0000 H   0  0  0  0  0  0  0  0  0  0  0  0
  -16.6688   -3.3494    0.0000 H   0  0  0  0  0  0  0  0  0  0  0  0
  -13.7165   -2.4629    0.0000 H   0  0  0  0  0  0  0  0  0  0  0  0
  -14.3990   -1.5557    0.0000 H   0  0  0  0  0  0  0  0  0  0  0  0
  -14.8449   -5.4041    0.0000 H   0  0  0  0  0  0  0  0  0  0  0  0
  -16.0578   -4.0953    0.0000 H   0  0  0  0  0  0  0  0  0  0  0  0
  -11.6637   -4.4775    0.0000 H   0  0  0  0  0  0  0  0  0  0  0  0
  -12.7536   -3.1735    0.0000 H   0  0  0  0  0  0  0  0  0  0  0  0
  -14.0810   -6.8905    0.0000 H   0  0  0  0  0  0  0  0  0  0  0  0
   -9.8708   -8.4795    0.0000 H   0  0  0  0  0  0  0  0  0  0  0  0
  -12.4346   -8.9003    0.0000 H   0  0  0  0  0  0  0  0  0  0  0  0
   -8.9534   -6.0487    0.0000 H   0  0  0  0  0  0  0  0  0  0  0  0
  -10.5998   -4.0389    0.0000 H   0  0  0  0  0  0  0  0  0  0  0  0
  -13.2284   -1.6268    0.0000 H   0  0  0  0  0  0  0  0  0  0  0  0
  -14.5862    1.1718    0.0000 H   0  0  0  0  0  0  0  0  0  0  0  0
  -13.3265    3.5557    0.0000 H   0  0  0  0  0  0  0  0  0  0  0  0
  -14.4048    2.1339    0.0000 H   0  0  0  0  0  0  0  0  0  0  0  0
   -9.9985    2.7777    0.0000 H   0  0  0  0  0  0  0  0  0  0  0  0
  -10.8926    1.8300    0.0000 H   0  0  0  0  0  0  0  0  0  0  0  0
  -11.4545    5.5667    0.0000 H   0  0  0  0  0  0  0  0  0  0  0  0
  -12.6980    4.2870    0.0000 H   0  0  0  0  0  0  0  0  0  0  0  0
   -8.7860    3.4738    0.0000 H   0  0  0  0  0  0  0  0  0  0  0  0
   -7.8246    8.0273    0.0000 H   0  0  0  0  0  0  0  0  0  0  0  0
   -6.9649    5.5755    0.0000 H   0  0  0  0  0  0  0  0  0  0  0  0
  -10.3777    8.5086    0.0000 H   0  0  0  0  0  0  0  0  0  0  0  0
  -12.0711    6.5383    0.0000 H   0  0  0  0  0  0  0  0  0  0  0  0
  -11.3139    3.3612    0.0000 H   0  0  0  0  0  0  0  0  0  0  0  0
   -9.6607    3.3770    0.0000 H   0  0  0  0  0  0  0  0  0  0  0  0
   -6.5023    2.3754    0.0000 H   0  0  0  0  0  0  0  0  0  0  0  0
   -7.4083    1.0157    0.0000 H   0  0  0  0  0  0  0  0  0  0  0  0
   -7.9673    5.3473    0.0000 H   0  0  0  0  0  0  0  0  0  0  0  0
   -9.1839    3.5214    0.0000 H   0  0  0  0  0  0  0  0  0  0  0  0
   -4.8089    4.3457    0.0000 H   0  0  0  0  0  0  0  0  0  0  0  0
   -5.8872    2.9239    0.0000 H   0  0  0  0  0  0  0  0  0  0  0  0
   -7.1685    6.8152    0.0000 H   0  0  0  0  0  0  0  0  0  0  0  0
   -2.9219    8.3042    0.0000 H   0  0  0  0  0  0  0  0  0  0  0  0
   -5.4750    8.7855    0.0000 H   0  0  0  0  0  0  0  0  0  0  0  0
   -2.0623    5.8525    0.0000 H   0  0  0  0  0  0  0  0  0  0  0  0
   -3.7557    3.8821    0.0000 H   0  0  0  0  0  0  0  0  0  0  0  0
   -6.2664    1.7584    0.0000 H   0  0  0  0  0  0  0  0  0  0  0  0
   -7.8641   -1.2329    0.0000 H   0  0  0  0  0  0  0  0  0  0  0  0
   -6.6612   -3.6459    0.0000 H   0  0  0  0  0  0  0  0  0  0  0  0
   -7.7055   -2.1990    0.0000 H   0  0  0  0  0  0  0  0  0  0  0  0
   -3.3157   -2.9469    0.0000 H   0  0  0  0  0  0  0  0  0  0  0  0
   -3.8647   -1.5755    0.0000 H   0  0  0  0  0  0  0  0  0  0  0  0
   -4.8372   -5.7007    0.0000 H   0  0  0  0  0  0  0  0  0  0  0  0
   -6.0502   -4.3919    0.0000 H   0  0  0  0  0  0  0  0  0  0  0  0
   -2.1200   -3.6714    0.0000 H   0  0  0  0  0  0  0  0  0  0  0  0
   -1.2665   -8.2463    0.0000 H   0  0  0  0  0  0  0  0  0  0  0  0
   -0.3492   -5.8156    0.0000 H   0  0  0  0  0  0  0  0  0  0  0  0
   -3.8303   -8.6672    0.0000 H   0  0  0  0  0  0  0  0  0  0  0  0
   -5.4767   -6.6573    0.0000 H   0  0  0  0  0  0  0  0  0  0  0  0
   -4.6445   -3.4991    0.0000 H   0  0  0  0  0  0  0  0  0  0  0  0
   -2.9922   -3.5539    0.0000 H   0  0  0  0  0  0  0  0  0  0  0  0
    0.1890   -2.6273    0.0000 H   0  0  0  0  0  0  0  0  0  0  0  0
   -0.6845   -1.2466    0.0000 H   0  0  0  0  0  0  0  0  0  0  0  0
   -1.3458   -5.5637    0.0000 H   0  0  0  0  0  0  0  0  0  0  0  0
   -2.5189   -3.7096    0.0000 H   0  0  0  0  0  0  0  0  0  0  0  0
    1.8354   -4.6371    0.0000 H   0  0  0  0  0  0  0  0  0  0  0  0
    0.7910   -3.1902    0.0000 H   0  0  0  0  0  0  0  0  0  0  0  0
   -0.5819   -7.0501    0.0000 H   0  0  0  0  0  0  0  0  0  0  0  0
    3.6282   -8.6391    0.0000 H   0  0  0  0  0  0  0  0  0  0  0  0
    1.0645   -9.0599    0.0000 H   0  0  0  0  0  0  0  0  0  0  0  0
    4.5456   -6.2083    0.0000 H   0  0  0  0  0  0  0  0  0  0  0  0
    2.8992   -4.1985    0.0000 H   0  0  0  0  0  0  0  0  0  0  0  0
    0.4395   -2.0160    0.0000 H   0  0  0  0  0  0  0  0  0  0  0  0
   -1.0871    1.0122    0.0000 H   0  0  0  0  0  0  0  0  0  0  0  0
    0.1726    3.3961    0.0000 H   0  0  0  0  0  0  0  0  0  0  0  0
   -0.9057    1.9743    0.0000 H   0  0  0  0  0  0  0  0  0  0  0  0
    3.5005    2.6181    0.0000 H   0  0  0  0  0  0  0  0  0  0  0  0
    2.9193    1.2602    0.0000 H   0  0  0  0  0  0  0  0  0  0  0  0
    2.0446    5.4071    0.0000 H   0  0  0  0  0  0  0  0  0  0  0  0
    0.8010    4.1274    0.0000 H   0  0  0  0  0  0  0  0  0  0  0  0
    4.7130    3.3142    0.0000 H   0  0  0  0  0  0  0  0  0  0  0  0
    5.6744    7.8677    0.0000 H   0  0  0  0  0  0  0  0  0  0  0  0
    6.5341    5.4159    0.0000 H   0  0  0  0  0  0  0  0  0  0  0  0
    3.1213    8.3490    0.0000 H   0  0  0  0  0  0  0  0  0  0  0  0
    1.4279    6.3787    0.0000 H   0  0  0  0  0  0  0  0  0  0  0  0
    2.1851    3.2016    0.0000 H   0  0  0  0  0  0  0  0  0  0  0  0
    3.8384    3.2174    0.0000 H   0  0  0  0  0  0  0  0  0  0  0  0
    6.9967    2.2158    0.0000 H   0  0  0  0  0  0  0  0  0  0  0  0
    6.0908    0.8561    0.0000 H   0  0  0  0  0  0  0  0  0  0  0  0
    5.5318    5.1877    0.0000 H   0  0  0  0  0  0  0  0  0  0  0  0
    4.3152    3.3618    0.0000 H   0  0  0  0  0  0  0  0  0  0  0  0
    8.6902    4.1861    0.0000 H   0  0  0  0  0  0  0  0  0  0  0  0
    7.6119    2.7643    0.0000 H   0  0  0  0  0  0  0  0  0  0  0  0
    6.3306    6.6556    0.0000 H   0  0  0  0  0  0  0  0  0  0  0  0
   10.5771    8.1446    0.0000 H   0  0  0  0  0  0  0  0  0  0  0  0
    8.0240    8.6259    0.0000 H   0  0  0  0  0  0  0  0  0  0  0  0
   11.4368    5.6929    0.0000 H   0  0  0  0  0  0  0  0  0  0  0  0
    9.7434    3.7225    0.0000 H   0  0  0  0  0  0  0  0  0  0  0  0
    7.2327    1.5988    0.0000 H   0  0  0  0  0  0  0  0  0  0  0  0
    5.6349   -1.3925    0.0000 H   0  0  0  0  0  0  0  0  0  0  0  0
    6.8379   -3.8055    0.0000 H   0  0  0  0  0  0  0  0  0  0  0  0
    5.7935   -2.3586    0.0000 H   0  0  0  0  0  0  0  0  0  0  0  0
   10.1833   -3.1065    0.0000 H   0  0  0  0  0  0  0  0  0  0  0  0
    9.6343   -1.7351    0.0000 H   0  0  0  0  0  0  0  0  0  0  0  0
    8.6619   -5.8603    0.0000 H   0  0  0  0  0  0  0  0  0  0  0  0
    7.4489   -4.5515    0.0000 H   0  0  0  0  0  0  0  0  0  0  0  0
   11.3790   -3.8310    0.0000 H   0  0  0  0  0  0  0  0  0  0  0  0
   12.2325   -8.4059    0.0000 H   0  0  0  0  0  0  0  0  0  0  0  0
   13.1499   -5.9752    0.0000 H   0  0  0  0  0  0  0  0  0  0  0  0
    9.6687   -8.8268    0.0000 H   0  0  0  0  0  0  0  0  0  0  0  0
    8.0224   -6.8169    0.0000 H   0  0  0  0  0  0  0  0  0  0  0  0
    8.8545   -3.6587    0.0000 H   0  0  0  0  0  0  0  0  0  0  0  0
   10.5069   -3.7135    0.0000 H   0  0  0  0  0  0  0  0  0  0  0  0
   13.6881   -2.7869    0.0000 H   0  0  0  0  0  0  0  0  0  0  0  0
   12.8145   -1.4062    0.0000 H   0  0  0  0  0  0  0  0  0  0  0  0
   12.1532   -5.7233    0.0000 H   0  0  0  0  0  0  0  0  0  0  0  0
   10.9801   -3.8692    0.0000 H   0  0  0  0  0  0  0  0  0  0  0  0
   15.3344   -4.7967    0.0000 H   0  0  0  0  0  0  0  0  0  0  0  0
   14.2901   -3.3498    0.0000 H   0  0  0  0  0  0  0  0  0  0  0  0
   12.9171   -7.2097    0.0000 H   0  0  0  0  0  0  0  0  0  0  0  0
   17.1273   -8.7987    0.0000 H   0  0  0  0  0  0  0  0  0  0  0  0
   14.5635   -9.2195    0.0000 H   0  0  0  0  0  0  0  0  0  0  0  0
   18.0447   -6.3680    0.0000 H   0  0  0  0  0  0  0  0  0  0  0  0
   16.3983   -4.3581    0.0000 H   0  0  0  0  0  0  0  0  0  0  0  0
   13.9385   -2.1756    0.0000 H   0  0  0  0  0  0  0  0  0  0  0  0
   12.4119    0.8526    0.0000 H   0  0  0  0  0  0  0  0  0  0  0  0
   13.6716    3.2365    0.0000 H   0  0  0  0  0  0  0  0  0  0  0  0
   12.5933    1.8147    0.0000 H   0  0  0  0  0  0  0  0  0  0  0  0
   17.0086    2.2756    0.0000 H   0  0  0  0  0  0  0  0  0  0  0  0
   16.2661    0.9986    0.0000 H   0  0  0  0  0  0  0  0  0  0  0  0
   15.5437    5.2475    0.0000 H   0  0  0  0  0  0  0  0  0  0  0  0
   14.3001    3.9678    0.0000 H   0  0  0  0  0  0  0  0  0  0  0  0
   18.3397    3.2860    0.0000 H   0  0  0  0  0  0  0  0  0  0  0  0
   19.1735    7.7081    0.0000 H   0  0  0  0  0  0  0  0  0  0  0  0
   20.0332    5.2563    0.0000 H   0  0  0  0  0  0  0  0  0  0  0  0
   16.6204    8.1894    0.0000 H   0  0  0  0  0  0  0  0  0  0  0  0
   14.9270    6.2191    0.0000 H   0  0  0  0  0  0  0  0  0  0  0  0
   15.2845   -2.2927    0.0000 H   0  0  0  0  0  0  0  0  0  0  0  0
   17.1281    0.4192    0.0000 H   0  0  0  0  0  0  0  0  0  0  0  0
   20.4517   -0.7244    0.0000 H   0  0  0  0  0  0  0  0  0  0  0  0
   19.3868   -1.9635    0.0000 H   0  0  0  0  0  0  0  0  0  0  0  0
   19.0001    2.4302    0.0000 H   0  0  0  0  0  0  0  0  0  0  0  0
   17.7566    1.1505    0.0000 H   0  0  0  0  0  0  0  0  0  0  0  0
   22.1585    1.4286    0.0000 H   0  0  0  0  0  0  0  0  0  0  0  0
   21.0802    0.0068    0.0000 H   0  0  0  0  0  0  0  0  0  0  0  0
   19.7989    3.8981    0.0000 H   0  0  0  0  0  0  0  0  0  0  0  0
   24.0455    5.3871    0.0000 H   0  0  0  0  0  0  0  0  0  0  0  0
   21.4924    5.8685    0.0000 H   0  0  0  0  0  0  0  0  0  0  0  0
   24.9051    2.9354    0.0000 H   0  0  0  0  0  0  0  0  0  0  0  0
   23.2117    0.9650    0.0000 H   0  0  0  0  0  0  0  0  0  0  0  0
  1  2  1  0
  2  3  1  0
  3  4  1  0
  4  5  2  0
  4  6  1  0
  6  7  1  0
  7  8  1  0
  8  9  1  0
  9 10  1  0
 10 11  1  0
 11 12  1  0
 12 13  2  3
 12 14  1  0
  7 15  1  0
 15 16  2  0
 15 17  1  0
 17 18  1  0
 18 19  1  0
 19 20  1  0
 20 21  1  0
 21 22  1  0
 22 23  1  0
 23 24  2  3
 23 25  1  0
 18 26  1  0
 26 27  2  0
 26 28  1  0
 28 29  1  0
 29 30  1  0
 30 31  1  0
 31 32  1  0
 32 33  1  0
 33 34  1  0
 34 35  2  3
 34 36  1  0
 29 37  1  0
 37 38  2  0
 37 39  1  0
 39 40  1  0
 40 41  1  0
 41 42  1  0
 42 43  1  0
 43 44  1  0
 44 45  1  0
 45 46  2  3
 45 47  1  0
 40 48  1  0
 48 49  2  0
 48 50  1  0
 50 51  1  0
 51 52  1  0
 52 53  1  0
 53 54  1  0
 54 55  1  0
 55 56  1  0
 56 57  2  3
 56 58  1  0
 51 59  1  0
 59 60  2  0
 59 61  1  0
 61 62  1  0
 62 63  1  0
 63 64  1  0
 64 65  1  0
 65 66  1  0
 66 67  1  0
 67 68  2  3
 67 69  1  0
 62 70  1  0
 70 71  2  0
 70 72  1  0
 72 73  1  0
 73 74  1  0
 74 75  1  0
 75 76  1  0
 76 77  1  0
 77 78  1  0
 78 79  2  3
 78 80  1  0
 73 81  1  0
 81 82  2  0
 81 83  1  0
 83 84  1  0
 84 85  1  0
 85 86  1  0
 86 87  1  0
 87 88  1  0
 88 89  1  0
 89 90  2  3
 89 91  1  0
 84 92  1  0
 92 93  2  0
 92 94  1  0
 94 95  1  0
 95 96  1  0
 96 97  1  0
 97 98  1  0
 98 99  1  0
 99100  1  0
100101  2  3
100102  1  0
 95103  1  0
103104  2  0
103105  1  0
105106  1  0
106107  1  0
107108  1  0
108109  1  0
109110  1  0
110111  1  0
111112  2  3
111113  1  0
106114  1  0
114115  2  0
114116  1  0
116117  1  0
117118  1  0
118119  1  0
119120  1  0
120121  1  0
121122  1  0
122123  2  3
122124  1  0
117125  1  0
125126  2  0
125127  1  0
127128  1  0
128129  1  0
129130  1  0
130131  1  0
131132  1  0
132133  1  0
133134  2  3
133135  1  0
128136  1  0
136137  2  0
136138  1  0
  1139  1  0
  1140  1  0
  2141  1  0
  2142  1  0
  3143  1  0
  3144  1  0
  6145  1  0
  7146  1  1
  8147  1  0
  8148  1  0
  9149  1  0
  9150  1  0
 10151  1  0
 10152  1  0
 11153  1  0
 13154  1  0
 13155  1  0
 14156  1  0
 14157  1  0
 17158  1  0
 18159  1  6
 19160  1  0
 19161  1  0
 20162  1  0
 20163  1  0
 21164  1  0
 21165  1  0
 22166  1  0
 24167  1  0
 24168  1  0
 25169  1  0
 25170  1  0
 28171  1  0
 29172  1  1
 30173  1  0
 30174  1  0
 31175  1  0
 31176  1  0
 32177  1  0
 32178  1  0
 33179  1  0
 35180  1  0
 35181  1  0
 36182  1  0
 36183  1  0
 39184  1  0
 40185  1  1
 41186  1  0
 41187  1  0
 42188  1  0
 42189  1  0
 43190  1  0
 43191  1  0
 44192  1  0
 46193  1  0
 46194  1  0
 47195  1  0
 47196  1  0
 50197  1  0
 51198  1  6
 52199  1  0
 52200  1  0
 53201  1  0
 53202  1  0
 54203  1  0
 54204  1  0
 55205  1  0
 57206  1  0
 57207  1  0
 58208  1  0
 58209  1  0
 61210  1  0
 62211  1  6
 63212  1  0
 63213  1  0
 64214  1  0
 64215  1  0
 65216  1  0
 65217  1  0
 66218  1  0
 68219  1  0
 68220  1  0
 69221  1  0
 69222  1  0
 72223  1  0
 73224  1  1
 74225  1  0
 74226  1  0
 75227  1  0
 75228  1  0
 76229  1  0
 76230  1  0
 77231  1  0
 79232  1  0
 79233  1  0
 80234  1  0
 80235  1  0
 83236  1  0
 84237  1  1
 85238  1  0
 85239  1  0
 86240  1  0
 86241  1  0
 87242  1  0
 87243  1  0
 88244  1  0
 90245  1  0
 90246  1  0
 91247  1  0
 91248  1  0
 94249  1  0
 95250  1  6
 96251  1  0
 96252  1  0
 97253  1  0
 97254  1  0
 98255  1  0
 98256  1  0
 99257  1  0
101258  1  0
101259  1  0
102260  1  0
102261  1  0
105262  1  0
106263  1  6
107264  1  0
107265  1  0
108266  1  0
108267  1  0
109268  1  0
109269  1  0
110270  1  0
112271  1  0
112272  1  0
113273  1  0
113274  1  0
116275  1  0
117276  1  1
118277  1  0
118278  1  0
119279  1  0
119280  1  0
120281  1  0
120282  1  0
121283  1  0
123284  1  0
123285  1  0
124286  1  0
124287  1  0
127288  1  0
128289  1  1
129290  1  0
129291  1  0
130292  1  0
130293  1  0
131294  1  0
131295  1  0
132296  1  0
134297  1  0
134298  1  0
135299  1  0
135300  1  0
M  CHG  8  13   1  24   1  35   1  46   1  57   1  68   1  79   1  90   1
M  CHG  5 101   1 112   1 123   1 134   1 138  -1
M  END
