
     RDKit          2D

416422  0  0  0  0  0  0  0  0999 V2000
  -41.3343   -1.8834    0.0000 C   0  0  0  0  0  0  0  0  0  0  0  0
  -42.5448   -2.7693    0.0000 N   0  0  0  0  0  0  0  0  0  0  0  0
  -43.9172   -2.1640    0.0000 C   0  0  0  0  0  0  0  0  0  0  0  0
  -44.0792   -0.6727    0.0000 C   0  0  0  0  0  0  0  0  0  0  0  0
  -45.4516   -0.0674    0.0000 C   0  0  0  0  0  0  0  0  0  0  0  0
  -46.6621   -0.9533    0.0000 C   0  0  0  0  0  0  0  0  0  0  0  0
  -46.5001   -2.4445    0.0000 C   0  0  0  0  0  0  0  0  0  0  0  0
  -45.1277   -3.0498    0.0000 C   0  0  0  0  0  0  0  0  0  0  0  0
  -47.8683   -3.0593    0.0000 C   0  0  0  0  0  0  0  0  0  0  0  0
  -48.8759   -1.9481    0.0000 O   0  0  0  0  0  0  0  0  0  0  0  0
  -48.1304   -0.6465    0.0000 C   0  0  0  0  0  0  0  0  0  0  0  0
  -48.7452    0.7217    0.0000 O   0  0  0  0  0  0  0  0  0  0  0  0
  -49.2933   -3.5278    0.0000 C   0  0  0  0  0  0  0  0  0  0  0  0
  -49.6001   -4.9961    0.0000 C   0  0  0  0  0  0  0  0  0  0  0  0
  -51.0250   -5.4646    0.0000 C   0  0  0  0  0  0  0  0  0  0  0  0
  -52.1432   -4.4648    0.0000 C   0  0  0  0  0  0  0  0  0  0  0  0
  -51.8364   -2.9965    0.0000 C   0  0  0  0  0  0  0  0  0  0  0  0
  -50.4115   -2.5280    0.0000 C   0  0  0  0  0  0  0  0  0  0  0  0
  -53.5682   -4.9332    0.0000 O   0  0  0  0  0  0  0  0  0  0  0  0
  -48.4819   -5.9959    0.0000 O   0  0  0  0  0  0  0  0  0  0  0  0
  -47.0569   -5.5275    0.0000 C   0  0  0  0  0  0  0  0  0  0  0  0
  -46.7501   -4.0592    0.0000 C   0  0  0  0  0  0  0  0  0  0  0  0
  -45.4683   -4.2759    0.0000 C   0  0  0  0  0  0  0  0  0  0  0  0
  -44.8719   -4.8091    0.0000 C   0  0  0  0  0  0  0  0  0  0  0  0
  -45.0356   -5.5922    0.0000 C   0  0  0  0  0  0  0  0  0  0  0  0
  -45.7955   -5.8421    0.0000 C   0  0  0  0  0  0  0  0  0  0  0  0
  -43.3955   -7.0586    0.0000 O   0  0  0  0  0  0  0  0  0  0  0  0
  -41.4963   -0.3922    0.0000 S   0  0  0  0  0  0  0  0  0  0  0  0
  -39.9619   -2.4888    0.0000 N   0  0  0  0  0  0  0  0  0  0  0  0
  -38.7515   -1.6029    0.0000 C   0  0  0  0  0  0  0  0  0  0  0  0
  -37.3790   -2.2082    0.0000 C   0  0  0  0  0  0  0  0  0  0  0  0
  -36.1686   -1.3224    0.0000 C   0  0  0  0  0  0  0  0  0  0  0  0
  -36.3305    0.1689    0.0000 O   0  0  0  0  0  0  0  0  0  0  0  0
  -34.7961   -1.9277    0.0000 N   0  0  0  0  0  0  0  0  0  0  0  0
  -33.5857   -1.0418    0.0000 C   0  0  0  0  0  0  0  0  0  0  0  0
  -32.7512    0.2046    0.0000 C   0  0  0  0  0  0  0  0  0  0  0  0
  -31.3183    0.6483    0.0000 O   0  0  0  0  0  0  0  0  0  0  0  0
  -32.2133   -1.6472    0.0000 C   0  0  0  0  0  0  0  0  0  0  0  0
  -32.0513   -3.1384    0.0000 O   0  0  0  0  0  0  0  0  0  0  0  0
  -31.0028   -0.7613    0.0000 N   0  0  0  0  0  0  0  0  0  0  0  0
  -29.6304   -1.3666    0.0000 C   0  0  0  0  0  0  0  0  0  0  0  0
  -28.5478   -2.4049    0.0000 C   0  0  0  0  0  0  0  0  0  0  0  0
  -27.2594   -3.1730    0.0000 O   0  0  0  0  0  0  0  0  0  0  0  0
  -28.9056   -3.8616    0.0000 C   0  0  0  0  0  0  0  0  0  0  0  0
  -28.4199   -0.4807    0.0000 C   0  0  0  0  0  0  0  0  0  0  0  0
  -28.5819    1.0105    0.0000 O   0  0  0  0  0  0  0  0  0  0  0  0
  -27.0475   -1.0861    0.0000 N   0  0  0  0  0  0  0  0  0  0  0  0
  -25.8370   -0.2002    0.0000 C   0  0  0  0  0  0  0  0  0  0  0  0
  -25.0026    1.0462    0.0000 C   0  0  0  0  0  0  0  0  0  0  0  0
  -24.4646   -0.8056    0.0000 C   0  0  0  0  0  0  0  0  0  0  0  0
  -24.3026   -2.2968    0.0000 O   0  0  0  0  0  0  0  0  0  0  0  0
  -23.2541    0.0803    0.0000 N   0  0  0  0  0  0  0  0  0  0  0  0
  -21.8817   -0.5250    0.0000 C   0  0  0  0  0  0  0  0  0  0  0  0
  -20.7991   -1.5633    0.0000 C   0  0  0  0  0  0  0  0  0  0  0  0
  -21.1569   -3.0200    0.0000 C   0  0  0  0  0  0  0  0  0  0  0  0
  -20.0743   -4.0582    0.0000 C   0  0  0  0  0  0  0  0  0  0  0  0
  -21.9914   -4.2664    0.0000 C   0  0  0  0  0  0  0  0  0  0  0  0
  -20.6713    0.3609    0.0000 C   0  0  0  0  0  0  0  0  0  0  0  0
  -20.8332    1.8521    0.0000 O   0  0  0  0  0  0  0  0  0  0  0  0
  -19.2988   -0.2445    0.0000 N   0  0  0  0  0  0  0  0  0  0  0  0
  -18.0884    0.6414    0.0000 C   0  0  0  0  0  0  0  0  0  0  0  0
  -17.2539    1.8878    0.0000 C   0  0  0  0  0  0  0  0  0  0  0  0
  -15.7572    1.7884    0.0000 C   0  0  0  0  0  0  0  0  0  0  0  0
  -14.9227    3.0349    0.0000 C   0  0  0  0  0  0  0  0  0  0  0  0
  -13.4260    2.9354    0.0000 N   0  0  0  0  0  0  0  0  0  0  0  0
  -12.5916    4.1819    0.0000 C   0  0  0  0  0  0  0  0  0  0  0  0
  -11.1181    3.9007    0.0000 N   0  0  0  0  0  0  0  0  0  0  0  0
  -13.2538    5.5278    0.0000 N   0  0  0  0  0  0  0  0  0  0  0  0
  -16.7159    0.0360    0.0000 C   0  0  0  0  0  0  0  0  0  0  0  0
  -16.5540   -1.4552    0.0000 O   0  0  0  0  0  0  0  0  0  0  0  0
  -15.5055    0.9219    0.0000 N   0  0  0  0  0  0  0  0  0  0  0  0
  -14.1331    0.3166    0.0000 C   0  0  0  0  0  0  0  0  0  0  0  0
  -13.0504   -0.7217    0.0000 C   0  0  0  0  0  0  0  0  0  0  0  0
  -13.4083   -2.1784    0.0000 C   0  0  0  0  0  0  0  0  0  0  0  0
  -12.3257   -3.2166    0.0000 C   0  0  0  0  0  0  0  0  0  0  0  0
  -12.6835   -4.6733    0.0000 O   0  0  0  0  0  0  0  0  0  0  0  0
  -10.8852   -2.7981    0.0000 O   0  0  0  0  0  0  0  0  0  0  0  0
  -12.9226    1.2025    0.0000 C   0  0  0  0  0  0  0  0  0  0  0  0
  -12.7741    2.2858    0.0000 O   0  0  0  0  0  0  0  0  0  0  0  0
  -11.5502    0.5971    0.0000 N   0  0  0  0  0  0  0  0  0  0  0  0
  -10.3397    1.4830    0.0000 C   0  0  0  0  0  0  0  0  0  0  0  0
   -9.5052    2.7295    0.0000 C   0  0  0  0  0  0  0  0  0  0  0  0
   -8.0085    2.6300    0.0000 C   0  0  0  0  0  0  0  0  0  0  0  0
   -7.1741    3.8765    0.0000 C   0  0  0  0  0  0  0  0  0  0  0  0
   -6.6361    2.0247    0.0000 C   0  0  0  0  0  0  0  0  0  0  0  0
   -8.9673    0.8776    0.0000 C   0  0  0  0  0  0  0  0  0  0  0  0
   -8.8053   -0.6136    0.0000 O   0  0  0  0  0  0  0  0  0  0  0  0
   -7.7568    1.7635    0.0000 N   0  0  0  0  0  0  0  0  0  0  0  0
   -6.3844    1.1582    0.0000 C   0  0  0  0  0  0  0  0  0  0  0  0
   -5.3018    0.1199    0.0000 C   0  0  0  0  0  0  0  0  0  0  0  0
   -5.8345   -1.2823    0.0000 C   0  0  0  0  0  0  0  0  0  0  0  0
   -3.9294   -0.4854    0.0000 C   0  0  0  0  0  0  0  0  0  0  0  0
   -3.7674   -1.9766    0.0000 C   0  0  0  0  0  0  0  0  0  0  0  0
   -5.1739    2.0441    0.0000 C   0  0  0  0  0  0  0  0  0  0  0  0
   -5.1529    3.5439    0.0000 O   0  0  0  0  0  0  0  0  0  0  0  0
   -3.8015    1.4387    0.0000 N   0  0  0  0  0  0  0  0  0  0  0  0
   -2.5911    2.3246    0.0000 C   0  0  0  0  0  0  0  0  0  0  0  0
   -1.7566    3.5711    0.0000 C   0  0  0  0  0  0  0  0  0  0  0  0
   -0.2599    3.4716    0.0000 C   0  0  0  0  0  0  0  0  0  0  0  0
    0.5746    4.7181    0.0000 C   0  0  0  0  0  0  0  0  0  0  0  0
    1.7877    4.7859    0.0000 O   0  0  0  0  0  0  0  0  0  0  0  0
   -0.0876    6.0640    0.0000 O   0  0  0  0  0  0  0  0  0  0  0  0
   -1.2186    1.7192    0.0000 C   0  0  0  0  0  0  0  0  0  0  0  0
   -1.0567    0.2280    0.0000 O   0  0  0  0  0  0  0  0  0  0  0  0
   -0.0082    2.6051    0.0000 N   0  0  0  0  0  0  0  0  0  0  0  0
    1.3643    1.9998    0.0000 C   0  0  0  0  0  0  0  0  0  0  0  0
    2.4469    0.9615    0.0000 C   0  0  0  0  0  0  0  0  0  0  0  0
    2.0890   -0.4951    0.0000 C   0  0  0  0  0  0  0  0  0  0  0  0
    3.1717   -1.5334    0.0000 C   0  0  0  0  0  0  0  0  0  0  0  0
    2.8138   -2.9901    0.0000 O   0  0  0  0  0  0  0  0  0  0  0  0
    4.6121   -1.1149    0.0000 O   0  0  0  0  0  0  0  0  0  0  0  0
    2.5747    2.8857    0.0000 C   0  0  0  0  0  0  0  0  0  0  0  0
    2.5917    4.1005    0.0000 O   0  0  0  0  0  0  0  0  0  0  0  0
    3.9471    2.2803    0.0000 N   0  0  0  0  0  0  0  0  0  0  0  0
    5.1576    3.1662    0.0000 C   0  0  0  0  0  0  0  0  0  0  0  0
    5.9921    4.4127    0.0000 C   0  0  0  0  0  0  0  0  0  0  0  0
    7.4888    4.3132    0.0000 C   0  0  0  0  0  0  0  0  0  0  0  0
    8.3232    5.5597    0.0000 C   0  0  0  0  0  0  0  0  0  0  0  0
    8.9669    4.0580    0.0000 C   0  0  0  0  0  0  0  0  0  0  0  0
    6.5300    2.5609    0.0000 C   0  0  0  0  0  0  0  0  0  0  0  0
    6.5090    1.0610    0.0000 O   0  0  0  0  0  0  0  0  0  0  0  0
    7.7405    3.4467    0.0000 N   0  0  0  0  0  0  0  0  0  0  0  0
    9.1129    2.8414    0.0000 C   0  0  0  0  0  0  0  0  0  0  0  0
    9.5672    1.4118    0.0000 C   0  0  0  0  0  0  0  0  0  0  0  0
   10.4226    0.1796    0.0000 C   0  0  0  0  0  0  0  0  0  0  0  0
   11.6032   -0.7456    0.0000 C   0  0  0  0  0  0  0  0  0  0  0  0
   13.0041   -1.2818    0.0000 C   0  0  0  0  0  0  0  0  0  0  0  0
    7.8829    1.9829    0.0000 C   0  0  0  0  0  0  0  0  0  0  0  0
    9.1002    4.3413    0.0000 C   0  0  0  0  0  0  0  0  0  0  0  0
    7.7895    5.0706    0.0000 O   0  0  0  0  0  0  0  0  0  0  0  0
    9.5302    5.7784    0.0000 N   0  0  0  0  0  0  0  0  0  0  0  0
   10.3647    7.0248    0.0000 C   0  0  0  0  0  0  0  0  0  0  0  0
    9.9823    8.4753    0.0000 C   0  0  0  0  0  0  0  0  0  0  0  0
    8.5350    8.8693    0.0000 C   0  0  0  0  0  0  0  0  0  0  0  0
    8.1526   10.3197    0.0000 N   0  0  0  0  0  0  0  0  0  0  0  0
    7.4701    7.8129    0.0000 O   0  0  0  0  0  0  0  0  0  0  0  0
   11.5295    7.9700    0.0000 C   0  0  0  0  0  0  0  0  0  0  0  0
   10.7685    9.2626    0.0000 O   0  0  0  0  0  0  0  0  0  0  0  0
   12.9211    8.5298    0.0000 N   0  0  0  0  0  0  0  0  0  0  0  0
   14.4159    8.6545    0.0000 C   0  0  0  0  0  0  0  0  0  0  0  0
   15.3115    9.8578    0.0000 C   0  0  0  0  0  0  0  0  0  0  0  0
   14.5537   11.1523    0.0000 C   0  0  0  0  0  0  0  0  0  0  0  0
   16.5646   10.6823    0.0000 C   0  0  0  0  0  0  0  0  0  0  0  0
   16.4772   12.1797    0.0000 C   0  0  0  0  0  0  0  0  0  0  0  0
   15.8811    8.3331    0.0000 C   0  0  0  0  0  0  0  0  0  0  0  0
   16.5840    9.6582    0.0000 O   0  0  0  0  0  0  0  0  0  0  0  0
   17.1864    7.5941    0.0000 N   0  0  0  0  0  0  0  0  0  0  0  0
   18.2159    6.5032    0.0000 C   0  0  0  0  0  0  0  0  0  0  0  0
   19.7151    6.5533    0.0000 C   0  0  0  0  0  0  0  0  0  0  0  0
   21.1410    6.0876    0.0000 O   0  0  0  0  0  0  0  0  0  0  0  0
   20.4213    7.8766    0.0000 C   0  0  0  0  0  0  0  0  0  0  0  0
   18.8782    5.1573    0.0000 C   0  0  0  0  0  0  0  0  0  0  0  0
   20.3077    5.6115    0.0000 O   0  0  0  0  0  0  0  0  0  0  0  0
   19.1143    3.6760    0.0000 N   0  0  0  0  0  0  0  0  0  0  0  0
   18.9033    2.1909    0.0000 C   0  0  0  0  0  0  0  0  0  0  0  0
   18.2639    0.8340    0.0000 C   0  0  0  0  0  0  0  0  0  0  0  0
   17.2530   -0.2742    0.0000 C   0  0  0  0  0  0  0  0  0  0  0  0
   15.9603   -1.0351    0.0000 C   0  0  0  0  0  0  0  0  0  0  0  0
   14.5008   -1.3813    0.0000 C   0  0  0  0  0  0  0  0  0  0  0  0
   20.3437    2.6094    0.0000 C   0  0  0  0  0  0  0  0  0  0  0  0
   19.8771    1.0500    0.0000 C   0  0  0  0  0  0  0  0  0  0  0  0
   19.7330   -0.4430    0.0000 O   0  0  0  0  0  0  0  0  0  0  0  0
   21.3521    1.3230    0.0000 N   0  0  0  0  0  0  0  0  0  0  0  0
   22.3259    0.1821    0.0000 C   0  0  0  0  0  0  0  0  0  0  0  0
   22.8509   -1.2230    0.0000 C   0  0  0  0  0  0  0  0  0  0  0  0
   21.8964   -2.3802    0.0000 C   0  0  0  0  0  0  0  0  0  0  0  0
   22.4214   -3.7854    0.0000 N   0  0  0  0  0  0  0  0  0  0  0  0
   20.4171   -2.1322    0.0000 O   0  0  0  0  0  0  0  0  0  0  0  0
   23.8009    0.4551    0.0000 C   0  0  0  0  0  0  0  0  0  0  0  0
   24.3020    1.8689    0.0000 O   0  0  0  0  0  0  0  0  0  0  0  0
   24.7748   -0.6858    0.0000 N   0  0  0  0  0  0  0  0  0  0  0  0
   26.2497   -0.4129    0.0000 C   0  0  0  0  0  0  0  0  0  0  0  0
   27.5424    0.3481    0.0000 C   0  0  0  0  0  0  0  0  0  0  0  0
   28.8477   -0.3909    0.0000 C   0  0  0  0  0  0  0  0  0  0  0  0
   30.1403    0.3701    0.0000 C   0  0  0  0  0  0  0  0  0  0  0  0
   31.5260   -0.2043    0.0000 N   0  0  0  0  0  0  0  0  0  0  0  0
   30.1277    1.8700    0.0000 O   0  0  0  0  0  0  0  0  0  0  0  0
   27.2236   -1.5537    0.0000 C   0  0  0  0  0  0  0  0  0  0  0  0
   26.7225   -2.9676    0.0000 O   0  0  0  0  0  0  0  0  0  0  0  0
   28.6985   -1.2808    0.0000 N   0  0  0  0  0  0  0  0  0  0  0  0
   29.6724   -2.4216    0.0000 C   0  0  0  0  0  0  0  0  0  0  0  0
   30.1973   -3.8268    0.0000 C   0  0  0  0  0  0  0  0  0  0  0  0
   29.2429   -4.9840    0.0000 C   0  0  0  0  0  0  0  0  0  0  0  0
   29.7678   -6.3891    0.0000 C   0  0  0  0  0  0  0  0  0  0  0  0
   28.8134   -7.5463    0.0000 C   0  0  0  0  0  0  0  0  0  0  0  0
   29.3383   -8.9515    0.0000 N   0  0  0  0  0  0  0  0  0  0  0  0
   31.1474   -2.1487    0.0000 C   0  0  0  0  0  0  0  0  0  0  0  0
   31.8170   -0.8065    0.0000 O   0  0  0  0  0  0  0  0  0  0  0  0
   32.1212   -3.2896    0.0000 N   0  0  0  0  0  0  0  0  0  0  0  0
   33.5962   -3.0166    0.0000 C   0  0  0  0  0  0  0  0  0  0  0  0
   34.7864   -2.1038    0.0000 C   0  0  0  0  0  0  0  0  0  0  0  0
   34.5700   -4.1575    0.0000 C   0  0  0  0  0  0  0  0  0  0  0  0
   34.0689   -5.5713    0.0000 O   0  0  0  0  0  0  0  0  0  0  0  0
   36.0450   -3.8845    0.0000 N   0  0  0  0  0  0  0  0  0  0  0  0
   36.6911   -2.5308    0.0000 C   0  0  0  0  0  0  0  0  0  0  0  0
   38.1782   -2.7270    0.0000 C   0  0  0  0  0  0  0  0  0  0  0  0
   38.4512   -4.2020    0.0000 C   0  0  0  0  0  0  0  0  0  0  0  0
   37.1328   -4.9174    0.0000 C   0  0  0  0  0  0  0  0  0  0  0  0
   37.9820   -6.1538    0.0000 C   0  0  0  0  0  0  0  0  0  0  0  0
   39.4806   -6.2197    0.0000 O   0  0  0  0  0  0  0  0  0  0  0  0
   37.3359   -7.5075    0.0000 N   0  0  0  0  0  0  0  0  0  0  0  0
   38.1852   -8.7439    0.0000 C   0  0  0  0  0  0  0  0  0  0  0  0
   39.4061   -9.6153    0.0000 C   0  0  0  0  0  0  0  0  0  0  0  0
   39.2620  -11.1083    0.0000 C   0  0  0  0  0  0  0  0  0  0  0  0
   40.4829  -11.9797    0.0000 C   0  0  0  0  0  0  0  0  0  0  0  0
   38.6158  -12.4620    0.0000 C   0  0  0  0  0  0  0  0  0  0  0  0
   37.5391  -10.0976    0.0000 C   0  0  0  0  0  0  0  0  0  0  0  0
   38.2313  -11.4283    0.0000 O   0  0  0  0  0  0  0  0  0  0  0  0
   36.0436  -10.2149    0.0000 O   0  0  0  0  0  0  0  0  0  0  0  0
  -42.2023   -4.2297    0.0000 H   0  0  0  0  0  0  0  0  0  0  0  0
  -42.8687    0.2132    0.0000 H   0  0  0  0  0  0  0  0  0  0  0  0
  -45.6136    1.4239    0.0000 H   0  0  0  0  0  0  0  0  0  0  0  0
  -44.6097   -4.4576    0.0000 H   0  0  0  0  0  0  0  0  0  0  0  0
  -51.3318   -6.9329    0.0000 H   0  0  0  0  0  0  0  0  0  0  0  0
  -52.9546   -1.9966    0.0000 H   0  0  0  0  0  0  0  0  0  0  0  0
  -50.1047   -1.0597    0.0000 H   0  0  0  0  0  0  0  0  0  0  0  0
  -54.6864   -3.9334    0.0000 H   0  0  0  0  0  0  0  0  0  0  0  0
  -45.0184   -2.1224    0.0000 H   0  0  0  0  0  0  0  0  0  0  0  0
  -42.7355   -4.2992    0.0000 H   0  0  0  0  0  0  0  0  0  0  0  0
  -46.2455   -7.9956    0.0000 H   0  0  0  0  0  0  0  0  0  0  0  0
  -43.7023   -8.5269    0.0000 H   0  0  0  0  0  0  0  0  0  0  0  0
  -39.8000   -3.9800    0.0000 H   0  0  0  0  0  0  0  0  0  0  0  0
  -37.9170   -0.3564    0.0000 H   0  0  0  0  0  0  0  0  0  0  0  0
  -39.8341   -0.5646    0.0000 H   0  0  0  0  0  0  0  0  0  0  0  0
  -36.2964   -3.2465    0.0000 H   0  0  0  0  0  0  0  0  0  0  0  0
  -38.2135   -3.4547    0.0000 H   0  0  0  0  0  0  0  0  0  0  0  0
  -34.6342   -3.4189    0.0000 H   0  0  0  0  0  0  0  0  0  0  0  0
  -34.6683   -0.0036    0.0000 H   0  0  0  0  0  0  0  0  0  0  0  0
  -32.3934    1.6613    0.0000 H   0  0  0  0  0  0  0  0  0  0  0  0
  -34.1236    0.8100    0.0000 H   0  0  0  0  0  0  0  0  0  0  0  0
  -30.4200    1.3517    0.0000 H   0  0  0  0  0  0  0  0  0  0  0  0
  -30.9818    0.7386    0.0000 H   0  0  0  0  0  0  0  0  0  0  0  0
  -30.6106   -2.5021    0.0000 H   0  0  0  0  0  0  0  0  0  0  0  0
  -27.4365   -1.3974    0.0000 H   0  0  0  0  0  0  0  0  0  0  0  0
  -26.8328   -4.4706    0.0000 H   0  0  0  0  0  0  0  0  0  0  0  0
  -27.9576   -5.0240    0.0000 H   0  0  0  0  0  0  0  0  0  0  0  0
  -29.7401   -5.1080    0.0000 H   0  0  0  0  0  0  0  0  0  0  0  0
  -30.3416   -3.4280    0.0000 H   0  0  0  0  0  0  0  0  0  0  0  0
  -26.7050   -2.5465    0.0000 H   0  0  0  0  0  0  0  0  0  0  0  0
  -26.9196    0.8380    0.0000 H   0  0  0  0  0  0  0  0  0  0  0  0
  -23.5697    1.4899    0.0000 H   0  0  0  0  0  0  0  0  0  0  0  0
  -24.6447    2.5029    0.0000 H   0  0  0  0  0  0  0  0  0  0  0  0
  -26.3750    1.6516    0.0000 H   0  0  0  0  0  0  0  0  0  0  0  0
  -23.2331    1.5802    0.0000 H   0  0  0  0  0  0  0  0  0  0  0  0
  -22.8619   -1.6605    0.0000 H   0  0  0  0  0  0  0  0  0  0  0  0
  -19.4267   -2.1686    0.0000 H   0  0  0  0  0  0  0  0  0  0  0  0
  -19.6878   -0.5558    0.0000 H   0  0  0  0  0  0  0  0  0  0  0  0
  -22.5929   -2.5864    0.0000 H   0  0  0  0  0  0  0  0  0  0  0  0
  -20.2519   -5.5476    0.0000 H   0  0  0  0  0  0  0  0  0  0  0  0
  -18.7019   -4.6635    0.0000 H   0  0  0  0  0  0  0  0  0  0  0  0
  -19.0941   -2.9228    0.0000 H   0  0  0  0  0  0  0  0  0  0  0  0
  -21.4982   -5.6830    0.0000 H   0  0  0  0  0  0  0  0  0  0  0  0
  -23.2019   -5.1523    0.0000 H   0  0  0  0  0  0  0  0  0  0  0  0
  -23.0740   -3.2282    0.0000 H   0  0  0  0  0  0  0  0  0  0  0  0
  -18.9563   -1.7049    0.0000 H   0  0  0  0  0  0  0  0  0  0  0  0
  -19.1710    1.6796    0.0000 H   0  0  0  0  0  0  0  0  0  0  0  0
  -17.0763    3.3773    0.0000 H   0  0  0  0  0  0  0  0  0  0  0  0
  -18.6263    2.4932    0.0000 H   0  0  0  0  0  0  0  0  0  0  0  0
  -14.3848    1.1831    0.0000 H   0  0  0  0  0  0  0  0  0  0  0  0
  -15.3891    0.3343    0.0000 H   0  0  0  0  0  0  0  0  0  0  0  0
  -14.5649    4.4916    0.0000 H   0  0  0  0  0  0  0  0  0  0  0  0
  -16.2111    3.8030    0.0000 H   0  0  0  0  0  0  0  0  0  0  0  0
  -12.4578    1.7898    0.0000 H   0  0  0  0  0  0  0  0  0  0  0  0
  -10.2604    5.3289    0.0000 H   0  0  0  0  0  0  0  0  0  0  0  0
  -12.4193    6.7742    0.0000 H   0  0  0  0  0  0  0  0  0  0  0  0
  -14.7505    5.6272    0.0000 H   0  0  0  0  0  0  0  0  0  0  0  0
  -15.3018    2.4080    0.0000 H   0  0  0  0  0  0  0  0  0  0  0  0
  -15.1132   -0.8189    0.0000 H   0  0  0  0  0  0  0  0  0  0  0  0
  -11.7620   -1.4898    0.0000 H   0  0  0  0  0  0  0  0  0  0  0  0
  -11.9392    0.2858    0.0000 H   0  0  0  0  0  0  0  0  0  0  0  0
  -14.2427   -3.4248    0.0000 H   0  0  0  0  0  0  0  0  0  0  0  0
  -14.8443   -1.7448    0.0000 H   0  0  0  0  0  0  0  0  0  0  0  0
   -9.8026   -3.8364    0.0000 H   0  0  0  0  0  0  0  0  0  0  0  0
  -11.2076   -0.8633    0.0000 H   0  0  0  0  0  0  0  0  0  0  0  0
  -11.4223    2.5212    0.0000 H   0  0  0  0  0  0  0  0  0  0  0  0
   -9.3276    4.2189    0.0000 H   0  0  0  0  0  0  0  0  0  0  0  0
  -10.9412    3.1630    0.0000 H   0  0  0  0  0  0  0  0  0  0  0  0
   -7.6405    1.1759    0.0000 H   0  0  0  0  0  0  0  0  0  0  0  0
   -5.6978    4.1421    0.0000 H   0  0  0  0  0  0  0  0  0  0  0  0
   -6.8162    5.3332    0.0000 H   0  0  0  0  0  0  0  0  0  0  0  0
   -8.4625    4.6446    0.0000 H   0  0  0  0  0  0  0  0  0  0  0  0
   -6.1181    0.6169    0.0000 H   0  0  0  0  0  0  0  0  0  0  0  0
   -5.2032    2.4683    0.0000 H   0  0  0  0  0  0  0  0  0  0  0  0
   -6.1034    3.4269    0.0000 H   0  0  0  0  0  0  0  0  0  0  0  0
   -7.5531    3.2496    0.0000 H   0  0  0  0  0  0  0  0  0  0  0  0
   -7.3646    0.0227    0.0000 H   0  0  0  0  0  0  0  0  0  0  0  0
   -4.0760    0.9845    0.0000 H   0  0  0  0  0  0  0  0  0  0  0  0
   -4.7196   -2.5201    0.0000 H   0  0  0  0  0  0  0  0  0  0  0  0
   -6.4941   -2.5832    0.0000 H   0  0  0  0  0  0  0  0  0  0  0  0
   -7.0956   -0.9032    0.0000 H   0  0  0  0  0  0  0  0  0  0  0  0
   -2.4327   -0.5848    0.0000 H   0  0  0  0  0  0  0  0  0  0  0  0
   -3.2297    0.8414    0.0000 H   0  0  0  0  0  0  0  0  0  0  0  0
   -2.3950   -2.5820    0.0000 H   0  0  0  0  0  0  0  0  0  0  0  0
   -4.1252   -3.4333    0.0000 H   0  0  0  0  0  0  0  0  0  0  0  0
   -5.2437   -2.2423    0.0000 H   0  0  0  0  0  0  0  0  0  0  0  0
   -3.2835    0.0310    0.0000 H   0  0  0  0  0  0  0  0  0  0  0  0
   -3.6737    3.3628    0.0000 H   0  0  0  0  0  0  0  0  0  0  0  0
   -1.3988    5.0277    0.0000 H   0  0  0  0  0  0  0  0  0  0  0  0
   -3.1290    4.1764    0.0000 H   0  0  0  0  0  0  0  0  0  0  0  0
    1.1125    2.8663    0.0000 H   0  0  0  0  0  0  0  0  0  0  0  0
    0.1082    2.0175    0.0000 H   0  0  0  0  0  0  0  0  0  0  0  0
    0.7468    7.3104    0.0000 H   0  0  0  0  0  0  0  0  0  0  0  0
    0.1955    4.0912    0.0000 H   0  0  0  0  0  0  0  0  0  0  0  0
    0.3841    0.8643    0.0000 H   0  0  0  0  0  0  0  0  0  0  0  0
    3.7353    0.1934    0.0000 H   0  0  0  0  0  0  0  0  0  0  0  0
    3.5582    1.9690    0.0000 H   0  0  0  0  0  0  0  0  0  0  0  0
    1.2546   -1.7416    0.0000 H   0  0  0  0  0  0  0  0  0  0  0  0
    0.6531   -0.0616    0.0000 H   0  0  0  0  0  0  0  0  0  0  0  0
    5.6947   -2.1532    0.0000 H   0  0  0  0  0  0  0  0  0  0  0  0
    4.2897    0.8200    0.0000 H   0  0  0  0  0  0  0  0  0  0  0  0
    4.0750    4.2044    0.0000 H   0  0  0  0  0  0  0  0  0  0  0  0
    6.1697    5.9021    0.0000 H   0  0  0  0  0  0  0  0  0  0  0  0
    4.6196    5.0180    0.0000 H   0  0  0  0  0  0  0  0  0  0  0  0
    7.6769    2.8251    0.0000 H   0  0  0  0  0  0  0  0  0  0  0  0
    9.7561    6.0033    0.0000 H   0  0  0  0  0  0  0  0  0  0  0  0
    8.3180    7.0597    0.0000 H   0  0  0  0  0  0  0  0  0  0  0  0
    7.0348    6.3278    0.0000 H   0  0  0  0  0  0  0  0  0  0  0  0
    9.4670    2.2850    0.0000 H   0  0  0  0  0  0  0  0  0  0  0  0
   10.3579    3.6084    0.0000 H   0  0  0  0  0  0  0  0  0  0  0  0
    9.0823    5.1870    0.0000 H   0  0  0  0  0  0  0  0  0  0  0  0
    7.7615    4.9466    0.0000 H   0  0  0  0  0  0  0  0  0  0  0  0
    8.0672    1.4028    0.0000 H   0  0  0  0  0  0  0  0  0  0  0  0
    8.7958    0.1253    0.0000 H   0  0  0  0  0  0  0  0  0  0  0  0
    9.0575   -0.4421    0.0000 H   0  0  0  0  0  0  0  0  0  0  0  0
    9.8899   -1.2226    0.0000 H   0  0  0  0  0  0  0  0  0  0  0  0
   10.3689   -1.5980    0.0000 H   0  0  0  0  0  0  0  0  0  0  0  0
   11.6906   -2.2431    0.0000 H   0  0  0  0  0  0  0  0  0  0  0  0
   12.6827   -2.7470    0.0000 H   0  0  0  0  0  0  0  0  0  0  0  0
    7.9039    0.3171    0.0000 H   0  0  0  0  0  0  0  0  0  0  0  0
    6.7003    1.1291    0.0000 H   0  0  0  0  0  0  0  0  0  0  0  0
    6.8439    2.7942    0.0000 H   0  0  0  0  0  0  0  0  0  0  0  0
    8.2614    6.5784    0.0000 H   0  0  0  0  0  0  0  0  0  0  0  0
    8.9266    7.4513    0.0000 H   0  0  0  0  0  0  0  0  0  0  0  0
   10.1190    9.9690    0.0000 H   0  0  0  0  0  0  0  0  0  0  0  0
   11.4025    8.9580    0.0000 H   0  0  0  0  0  0  0  0  0  0  0  0
    6.7052   10.7138    0.0000 H   0  0  0  0  0  0  0  0  0  0  0  0
    9.2175   11.3761    0.0000 H   0  0  0  0  0  0  0  0  0  0  0  0
   12.5750    9.9893    0.0000 H   0  0  0  0  0  0  0  0  0  0  0  0
   13.5330    9.8671    0.0000 H   0  0  0  0  0  0  0  0  0  0  0  0
   16.5744    9.0484    0.0000 H   0  0  0  0  0  0  0  0  0  0  0  0
   15.4481   12.5579    0.0000 H   0  0  0  0  0  0  0  0  0  0  0  0
   13.6877   12.3260    0.0000 H   0  0  0  0  0  0  0  0  0  0  0  0
   13.3729   10.5695    0.0000 H   0  0  0  0  0  0  0  0  0  0  0  0
   18.0241   11.0284    0.0000 H   0  0  0  0  0  0  0  0  0  0  0  0
   17.3224    9.3877    0.0000 H   0  0  0  0  0  0  0  0  0  0  0  0
   17.7303   13.0041    0.0000 H   0  0  0  0  0  0  0  0  0  0  0  0
   15.8829   13.5569    0.0000 H   0  0  0  0  0  0  0  0  0  0  0  0
   14.9773   12.1970    0.0000 H   0  0  0  0  0  0  0  0  0  0  0  0
   18.1117    8.7747    0.0000 H   0  0  0  0  0  0  0  0  0  0  0  0
   18.6135    7.9495    0.0000 H   0  0  0  0  0  0  0  0  0  0  0  0
   19.8697    5.0613    0.0000 H   0  0  0  0  0  0  0  0  0  0  0  0
   22.3710    6.9460    0.0000 H   0  0  0  0  0  0  0  0  0  0  0  0
   21.9032    8.1091    0.0000 H   0  0  0  0  0  0  0  0  0  0  0  0
   20.6323    9.3617    0.0000 H   0  0  0  0  0  0  0  0  0  0  0  0
   19.0628    8.5126    0.0000 H   0  0  0  0  0  0  0  0  0  0  0  0
   20.6142    3.6887    0.0000 H   0  0  0  0  0  0  0  0  0  0  0  0
   18.8582   -0.5432    0.0000 H   0  0  0  0  0  0  0  0  0  0  0  0
   19.7131    0.4471    0.0000 H   0  0  0  0  0  0  0  0  0  0  0  0
   17.5955   -1.7345    0.0000 H   0  0  0  0  0  0  0  0  0  0  0  0
   18.5238   -1.0710    0.0000 H   0  0  0  0  0  0  0  0  0  0  0  0
   15.6755   -2.5078    0.0000 H   0  0  0  0  0  0  0  0  0  0  0  0
   17.0710   -2.0433    0.0000 H   0  0  0  0  0  0  0  0  0  0  0  0
   14.6255   -2.8761    0.0000 H   0  0  0  0  0  0  0  0  0  0  0  0
   21.6454    1.8639    0.0000 H   0  0  0  0  0  0  0  0  0  0  0  0
   21.4372    3.6362    0.0000 H   0  0  0  0  0  0  0  0  0  0  0  0
   20.0268    4.0755    0.0000 H   0  0  0  0  0  0  0  0  0  0  0  0
   22.0218    2.6652    0.0000 H   0  0  0  0  0  0  0  0  0  0  0  0
   21.0333   -0.5788    0.0000 H   0  0  0  0  0  0  0  0  0  0  0  0
   23.6784   -2.4741    0.0000 H   0  0  0  0  0  0  0  0  0  0  0  0
   24.2892   -0.7975    0.0000 H   0  0  0  0  0  0  0  0  0  0  0  0
   21.4669   -4.9425    0.0000 H   0  0  0  0  0  0  0  0  0  0  0  0
   23.9007   -4.0333    0.0000 H   0  0  0  0  0  0  0  0  0  0  0  0
   24.4497   -2.1502    0.0000 H   0  0  0  0  0  0  0  0  0  0  0  0
   25.7248    0.9923    0.0000 H   0  0  0  0  0  0  0  0  0  0  0  0
   28.4968    1.5053    0.0000 H   0  0  0  0  0  0  0  0  0  0  0  0
   26.5685    1.4890    0.0000 H   0  0  0  0  0  0  0  0  0  0  0  0
   29.8216   -1.5318    0.0000 H   0  0  0  0  0  0  0  0  0  0  0  0
   28.5484   -1.8607    0.0000 H   0  0  0  0  0  0  0  0  0  0  0  0
   32.7383    0.3920    0.0000 H   0  0  0  0  0  0  0  0  0  0  0  0
   31.8632   -1.8358    0.0000 H   0  0  0  0  0  0  0  0  0  0  0  0
   29.5268   -0.0302    0.0000 H   0  0  0  0  0  0  0  0  0  0  0  0
   28.2966   -3.0194    0.0000 H   0  0  0  0  0  0  0  0  0  0  0  0
   31.1712   -4.9677    0.0000 H   0  0  0  0  0  0  0  0  0  0  0  0
   31.6357   -3.4012    0.0000 H   0  0  0  0  0  0  0  0  0  0  0  0
   27.8671   -5.5817    0.0000 H   0  0  0  0  0  0  0  0  0  0  0  0
   28.1372   -3.9703    0.0000 H   0  0  0  0  0  0  0  0  0  0  0  0
   30.7417   -7.5300    0.0000 H   0  0  0  0  0  0  0  0  0  0  0  0
   31.1436   -5.7914    0.0000 H   0  0  0  0  0  0  0  0  0  0  0  0
   27.5207   -8.3073    0.0000 H   0  0  0  0  0  0  0  0  0  0  0  0
   27.7077   -6.5327    0.0000 H   0  0  0  0  0  0  0  0  0  0  0  0
   28.3839  -10.1086    0.0000 H   0  0  0  0  0  0  0  0  0  0  0  0
   30.8177   -9.1994    0.0000 H   0  0  0  0  0  0  0  0  0  0  0  0
   31.7962   -4.7539    0.0000 H   0  0  0  0  0  0  0  0  0  0  0  0
   33.0712   -1.6115    0.0000 H   0  0  0  0  0  0  0  0  0  0  0  0
   36.3883   -2.2952    0.0000 H   0  0  0  0  0  0  0  0  0  0  0  0
   35.8433   -1.0985    0.0000 H   0  0  0  0  0  0  0  0  0  0  0  0
   33.9150   -1.1148    0.0000 H   0  0  0  0  0  0  0  0  0  0  0  0
   35.3489   -1.8611    0.0000 H   0  0  0  0  0  0  0  0  0  0  0  0
   37.0417   -1.0724    0.0000 H   0  0  0  0  0  0  0  0  0  0  0  0
   38.2179   -1.2275    0.0000 H   0  0  0  0  0  0  0  0  0  0  0  0
   39.6736   -2.6097    0.0000 H   0  0  0  0  0  0  0  0  0  0  0  0
   39.8895   -3.7763    0.0000 H   0  0  0  0  0  0  0  0  0  0  0  0
   39.1895   -5.5077    0.0000 H   0  0  0  0  0  0  0  0  0  0  0  0
   35.9919   -5.8912    0.0000 H   0  0  0  0  0  0  0  0  0  0  0  0
   35.8405   -7.6248    0.0000 H   0  0  0  0  0  0  0  0  0  0  0  0
   39.2553   -7.6928    0.0000 H   0  0  0  0  0  0  0  0  0  0  0  0
   40.8896   -9.8374    0.0000 H   0  0  0  0  0  0  0  0  0  0  0  0
   40.0523   -8.2616    0.0000 H   0  0  0  0  0  0  0  0  0  0  0  0
   37.7688  -11.2518    0.0000 H   0  0  0  0  0  0  0  0  0  0  0  0
   40.5218  -13.4792    0.0000 H   0  0  0  0  0  0  0  0  0  0  0  0
   41.9282  -12.3810    0.0000 H   0  0  0  0  0  0  0  0  0  0  0  0
   41.2892  -10.7149    0.0000 H   0  0  0  0  0  0  0  0  0  0  0  0
   39.3080  -13.7928    0.0000 H   0  0  0  0  0  0  0  0  0  0  0  0
   37.5457  -13.5131    0.0000 H   0  0  0  0  0  0  0  0  0  0  0  0
   37.3949  -11.5907    0.0000 H   0  0  0  0  0  0  0  0  0  0  0  0
   35.3975  -11.5686    0.0000 H   0  0  0  0  0  0  0  0  0  0  0  0
  1  2  1  0
  2  3  1  0
  3  4  2  0
  4  5  1  0
  5  6  2  0
  6  7  1  0
  7  8  2  0
  7  9  1  0
  9 10  1  0
 10 11  1  0
 11 12  2  0
  9 13  1  0
 13 14  1  0
 14 15  2  0
 15 16  1  0
 16 17  2  0
 17 18  1  0
 16 19  1  0
 14 20  1  0
 20 21  1  0
 21 22  2  0
 22 23  1  0
 23 24  2  0
 24 25  1  0
 25 26  2  0
 25 27  1  0
  1 28  2  0
  1 29  1  0
 29 30  1  0
 30 31  1  0
 31 32  1  0
 32 33  2  0
 32 34  1  0
 34 35  1  0
 35 36  1  0
 36 37  1  0
 35 38  1  0
 38 39  2  0
 38 40  1  0
 40 41  1  0
 41 42  1  0
 42 43  1  0
 42 44  1  0
 41 45  1  0
 45 46  2  0
 45 47  1  0
 47 48  1  0
 48 49  1  0
 48 50  1  0
 50 51  2  0
 50 52  1  0
 52 53  1  0
 53 54  1  0
 54 55  1  0
 55 56  1  0
 55 57  1  0
 53 58  1  0
 58 59  2  0
 58 60  1  0
 60 61  1  0
 61 62  1  0
 62 63  1  0
 63 64  1  0
 64 65  1  0
 65 66  1  0
 66 67  2  3
 66 68  1  0
 61 69  1  0
 69 70  2  0
 69 71  1  0
 71 72  1  0
 72 73  1  0
 73 74  1  0
 74 75  1  0
 75 76  2  0
 75 77  1  0
 72 78  1  0
 78 79  2  0
 78 80  1  0
 80 81  1  0
 81 82  1  0
 82 83  1  0
 83 84  1  0
 83 85  1  0
 81 86  1  0
 86 87  2  0
 86 88  1  0
 88 89  1  0
 89 90  1  0
 90 91  1  0
 90 92  1  0
 92 93  1  0
 89 94  1  0
 94 95  2  0
 94 96  1  0
 96 97  1  0
 97 98  1  0
 98 99  1  0
 99100  1  0
100101  2  0
100102  1  0
 97103  1  0
103104  2  0
103105  1  0
105106  1  0
106107  1  0
107108  1  0
108109  1  0
109110  2  0
109111  1  0
106112  1  0
112113  2  0
112114  1  0
114115  1  0
115116  1  0
116117  1  0
117118  1  0
117119  1  0
115120  1  0
120121  2  0
120122  1  0
123122  1  6
123124  1  0
124125  1  0
125126  1  0
126127  1  0
123128  1  0
123129  1  0
129130  2  0
129131  1  0
131132  1  0
132133  1  0
133134  1  0
134135  1  0
134136  2  0
132137  1  0
137138  2  0
137139  1  0
139140  1  0
140141  1  0
141142  1  0
141143  1  0
143144  1  0
140145  1  0
145146  2  0
145147  1  0
147148  1  0
148149  1  0
149150  1  0
149151  1  0
148152  1  0
152153  2  0
152154  1  0
154155  1  0
155156  1  0
156157  1  0
157158  1  0
158159  1  0
155160  1  0
155161  1  6
161162  2  0
161163  1  0
163164  1  0
164165  1  0
165166  1  0
166167  1  0
166168  2  0
164169  1  0
169170  2  0
169171  1  0
171172  1  0
172173  1  0
173174  1  0
174175  1  0
175176  1  0
175177  2  0
172178  1  0
178179  2  0
178180  1  0
180181  1  0
181182  1  0
182183  1  0
183184  1  0
184185  1  0
185186  1  0
181187  1  0
187188  2  0
187189  1  0
189190  1  0
190191  1  0
190192  1  0
192193  2  0
192194  1  0
194195  1  0
195196  1  0
196197  1  0
197198  1  0
198199  1  0
199200  2  0
199201  1  0
201202  1  0
202203  1  0
203204  1  0
204205  1  0
204206  1  0
202207  1  0
207208  2  0
207209  1  0
  8  3  1  0
198194  1  0
 11  6  1  0
127159  2  0
 18 13  2  0
 22  9  1  0
 26 21  1  0
  2210  1  0
  4211  1  0
  5212  1  0
  8213  1  0
 15214  1  0
 17215  1  0
 18216  1  0
 19217  1  0
 23218  1  0
 24219  1  0
 26220  1  0
 27221  1  0
 29222  1  0
 30223  1  0
 30224  1  0
 31225  1  0
 31226  1  0
 34227  1  0
 35228  1  1
 36229  1  0
 36230  1  0
 37231  1  0
 40232  1  0
 41233  1  6
 42234  1  1
 43235  1  0
 44236  1  0
 44237  1  0
 44238  1  0
 47239  1  0
 48240  1  1
 49241  1  0
 49242  1  0
 49243  1  0
 52244  1  0
 53245  1  6
 54246  1  0
 54247  1  0
 55248  1  0
 56249  1  0
 56250  1  0
 56251  1  0
 57252  1  0
 57253  1  0
 57254  1  0
 60255  1  0
 61256  1  1
 62257  1  0
 62258  1  0
 63259  1  0
 63260  1  0
 64261  1  0
 64262  1  0
 65263  1  0
 67264  1  0
 68265  1  0
 68266  1  0
 71267  1  0
 72268  1  6
 73269  1  0
 73270  1  0
 74271  1  0
 74272  1  0
 77273  1  0
 80274  1  0
 81275  1  1
 82276  1  0
 82277  1  0
 83278  1  0
 84279  1  0
 84280  1  0
 84281  1  0
 85282  1  0
 85283  1  0
 85284  1  0
 88285  1  0
 89286  1  6
 90287  1  1
 91288  1  0
 91289  1  0
 91290  1  0
 92291  1  0
 92292  1  0
 93293  1  0
 93294  1  0
 93295  1  0
 96296  1  0
 97297  1  1
 98298  1  0
 98299  1  0
 99300  1  0
 99301  1  0
102302  1  0
105303  1  0
106304  1  6
107305  1  0
107306  1  0
108307  1  0
108308  1  0
111309  1  0
114310  1  0
115311  1  1
116312  1  0
116313  1  0
117314  1  0
118315  1  0
118316  1  0
118317  1  0
119318  1  0
119319  1  0
119320  1  0
122321  1  0
124322  1  0
124323  1  0
125324  1  0
125325  1  0
126326  1  0
126327  1  0
127328  1  0
128329  1  0
128330  1  0
128331  1  0
131332  1  0
132333  1  1
133334  1  0
133335  1  0
135336  1  0
135337  1  0
139338  1  0
140339  1  1
141340  1  6
142341  1  0
142342  1  0
142343  1  0
143344  1  0
143345  1  0
144346  1  0
144347  1  0
144348  1  0
147349  1  0
148350  1  1
149351  1  6
150352  1  0
151353  1  0
151354  1  0
151355  1  0
154356  1  0
156357  1  0
156358  1  0
157359  1  0
157360  1  0
158361  1  0
158362  1  0
159363  1  0
160364  1  0
160365  1  0
160366  1  0
163367  1  0
164368  1  6
165369  1  0
165370  1  0
167371  1  0
167372  1  0
171373  1  0
172374  1  1
173375  1  0
173376  1  0
174377  1  0
174378  1  0
176379  1  0
176380  1  0
180381  1  0
181382  1  6
182383  1  0
182384  1  0
183385  1  0
183386  1  0
184387  1  0
184388  1  0
185389  1  0
185390  1  0
186391  1  0
186392  1  0
189393  1  0
190394  1  1
191395  1  0
191396  1  0
191397  1  0
195398  1  0
195399  1  0
196400  1  0
196401  1  0
197402  1  0
197403  1  0
198404  1  0
201405  1  0
202406  1  1
203407  1  0
203408  1  0
204409  1  0
205410  1  0
205411  1  0
205412  1  0
206413  1  0
206414  1  0
206415  1  0
209416  1  0
M  END
