
     RDKit          2D

280281  0  0  0  0  0  0  0  0999 V2000
  -21.2160   -0.9010    0.0000 N   0  0  0  0  0  0  0  0  0  0  0  0
  -19.8565   -1.5347    0.0000 C   0  0  0  0  0  0  0  0  0  0  0  0
  -19.7255   -3.0290    0.0000 C   0  0  0  0  0  0  0  0  0  0  0  0
  -18.3660   -3.6628    0.0000 C   0  0  0  0  0  0  0  0  0  0  0  0
  -17.1374   -2.8022    0.0000 O   0  0  0  0  0  0  0  0  0  0  0  0
  -18.2350   -5.1570    0.0000 N   0  0  0  0  0  0  0  0  0  0  0  0
  -16.8755   -5.7908    0.0000 C   0  0  0  0  0  0  0  0  0  0  0  0
  -17.7357   -7.0196    0.0000 C   0  0  0  0  0  0  0  0  0  0  0  0
  -17.1016   -8.3790    0.0000 C   0  0  0  0  0  0  0  0  0  0  0  0
  -17.9618   -9.6078    0.0000 N   0  0  0  0  0  0  0  0  0  0  0  0
  -15.6073   -8.5095    0.0000 O   0  0  0  0  0  0  0  0  0  0  0  0
  -15.3812   -5.9213    0.0000 C   0  0  0  0  0  0  0  0  0  0  0  0
  -15.0056   -7.0768    0.0000 O   0  0  0  0  0  0  0  0  0  0  0  0
  -14.5210   -4.6924    0.0000 N   0  0  0  0  0  0  0  0  0  0  0  0
  -13.0267   -4.8230    0.0000 C   0  0  0  0  0  0  0  0  0  0  0  0
  -13.4147   -6.2719    0.0000 C   0  0  0  0  0  0  0  0  0  0  0  0
  -12.3539   -7.3324    0.0000 C   0  0  0  0  0  0  0  0  0  0  0  0
  -12.7419   -8.7814    0.0000 C   0  0  0  0  0  0  0  0  0  0  0  0
  -11.6811   -9.8419    0.0000 C   0  0  0  0  0  0  0  0  0  0  0  0
  -12.0691  -11.2908    0.0000 N   0  0  0  0  0  0  0  0  0  0  0  0
  -11.5778   -4.4345    0.0000 C   0  0  0  0  0  0  0  0  0  0  0  0
  -10.5170   -5.4951    0.0000 O   0  0  0  0  0  0  0  0  0  0  0  0
  -11.1898   -2.9856    0.0000 N   0  0  0  0  0  0  0  0  0  0  0  0
   -9.7410   -2.5972    0.0000 C   0  0  0  0  0  0  0  0  0  0  0  0
  -10.3751   -1.2378    0.0000 C   0  0  0  0  0  0  0  0  0  0  0  0
  -11.8694   -1.1073    0.0000 C   0  0  0  0  0  0  0  0  0  0  0  0
  -12.5035    0.2521    0.0000 C   0  0  0  0  0  0  0  0  0  0  0  0
  -13.3182   -1.4957    0.0000 C   0  0  0  0  0  0  0  0  0  0  0  0
   -8.2467   -2.7277    0.0000 C   0  0  0  0  0  0  0  0  0  0  0  0
   -7.7830   -4.1542    0.0000 O   0  0  0  0  0  0  0  0  0  0  0  0
   -7.3865   -1.4989    0.0000 N   0  0  0  0  0  0  0  0  0  0  0  0
   -5.8922   -1.6294    0.0000 C   0  0  0  0  0  0  0  0  0  0  0  0
   -5.0911   -2.8976    0.0000 C   0  0  0  0  0  0  0  0  0  0  0  0
   -4.0644   -3.9912    0.0000 C   0  0  0  0  0  0  0  0  0  0  0  0
   -2.8494   -4.8708    0.0000 C   0  0  0  0  0  0  0  0  0  0  0  0
   -1.4898   -5.5045    0.0000 C   0  0  0  0  0  0  0  0  0  0  0  0
   -0.0349   -5.8695    0.0000 C   0  0  0  0  0  0  0  0  0  0  0  0
    1.4628   -5.9526    0.0000 C   0  0  0  0  0  0  0  0  0  0  0  0
    2.9491   -5.7507    0.0000 C   0  0  0  0  0  0  0  0  0  0  0  0
   -6.8230   -2.8056    0.0000 C   0  0  0  0  0  0  0  0  0  0  0  0
   -6.4388   -0.2325    0.0000 C   0  0  0  0  0  0  0  0  0  0  0  0
   -7.9207   -0.4650    0.0000 O   0  0  0  0  0  0  0  0  0  0  0  0
   -6.7112    1.2425    0.0000 N   0  0  0  0  0  0  0  0  0  0  0  0
   -6.6995    2.7425    0.0000 C   0  0  0  0  0  0  0  0  0  0  0  0
   -8.0486    2.0869    0.0000 C   0  0  0  0  0  0  0  0  0  0  0  0
   -9.2910    2.9275    0.0000 C   0  0  0  0  0  0  0  0  0  0  0  0
   -9.1842    4.4237    0.0000 C   0  0  0  0  0  0  0  0  0  0  0  0
  -10.4265    5.2643    0.0000 N   0  0  0  0  0  0  0  0  0  0  0  0
  -10.3197    6.7604    0.0000 C   0  0  0  0  0  0  0  0  0  0  0  0
  -11.5620    7.6010    0.0000 N   0  0  0  0  0  0  0  0  0  0  0  0
   -8.9705    7.4161    0.0000 N   0  0  0  0  0  0  0  0  0  0  0  0
   -6.4041    4.2131    0.0000 C   0  0  0  0  0  0  0  0  0  0  0  0
   -7.8822    4.4687    0.0000 O   0  0  0  0  0  0  0  0  0  0  0  0
   -5.8358    5.6013    0.0000 N   0  0  0  0  0  0  0  0  0  0  0  0
   -5.0150    6.8568    0.0000 C   0  0  0  0  0  0  0  0  0  0  0  0
   -6.5044    7.0347    0.0000 C   0  0  0  0  0  0  0  0  0  0  0  0
   -7.0951    8.4135    0.0000 O   0  0  0  0  0  0  0  0  0  0  0  0
   -3.9715    7.9343    0.0000 C   0  0  0  0  0  0  0  0  0  0  0  0
   -4.9449    9.0755    0.0000 O   0  0  0  0  0  0  0  0  0  0  0  0
   -2.7429    8.7948    0.0000 N   0  0  0  0  0  0  0  0  0  0  0  0
   -1.3736    9.4073    0.0000 C   0  0  0  0  0  0  0  0  0  0  0  0
   -2.5304   10.3622    0.0000 C   0  0  0  0  0  0  0  0  0  0  0  0
   -2.2819   11.8414    0.0000 C   0  0  0  0  0  0  0  0  0  0  0  0
   -0.8765   12.3658    0.0000 C   0  0  0  0  0  0  0  0  0  0  0  0
   -0.6280   13.8451    0.0000 C   0  0  0  0  0  0  0  0  0  0  0  0
   -1.7848   14.8000    0.0000 C   0  0  0  0  0  0  0  0  0  0  0  0
   -3.1901   14.2756    0.0000 C   0  0  0  0  0  0  0  0  0  0  0  0
   -3.4387   12.7963    0.0000 C   0  0  0  0  0  0  0  0  0  0  0  0
    0.0868    9.7496    0.0000 C   0  0  0  0  0  0  0  0  0  0  0  0
    0.0676   11.2494    0.0000 O   0  0  0  0  0  0  0  0  0  0  0  0
    1.5857    9.8093    0.0000 N   0  0  0  0  0  0  0  0  0  0  0  0
    3.0687    9.5842    0.0000 C   0  0  0  0  0  0  0  0  0  0  0  0
    2.6117   11.0129    0.0000 C   0  0  0  0  0  0  0  0  0  0  0  0
    3.6206   12.1230    0.0000 C   0  0  0  0  0  0  0  0  0  0  0  0
    3.1637   13.5517    0.0000 C   0  0  0  0  0  0  0  0  0  0  0  0
    4.1725   14.6618    0.0000 C   0  0  0  0  0  0  0  0  0  0  0  0
    3.7156   16.0905    0.0000 N   0  0  0  0  0  0  0  0  0  0  0  0
    4.4823    9.0826    0.0000 C   0  0  0  0  0  0  0  0  0  0  0  0
    5.2770   10.3547    0.0000 O   0  0  0  0  0  0  0  0  0  0  0  0
    5.7755    8.3225    0.0000 N   0  0  0  0  0  0  0  0  0  0  0  0
    6.9014    7.3314    0.0000 C   0  0  0  0  0  0  0  0  0  0  0  0
    7.2894    8.7803    0.0000 C   0  0  0  0  0  0  0  0  0  0  0  0
    7.8194    6.1451    0.0000 C   0  0  0  0  0  0  0  0  0  0  0  0
    9.0876    6.9462    0.0000 O   0  0  0  0  0  0  0  0  0  0  0  0
    8.4963    4.8065    0.0000 N   0  0  0  0  0  0  0  0  0  0  0  0
    8.9077    3.3640    0.0000 C   0  0  0  0  0  0  0  0  0  0  0  0
   10.0175    4.3732    0.0000 C   0  0  0  0  0  0  0  0  0  0  0  0
   11.4463    3.9167    0.0000 C   0  0  0  0  0  0  0  0  0  0  0  0
   12.5561    4.9258    0.0000 C   0  0  0  0  0  0  0  0  0  0  0  0
   12.6329    2.9990    0.0000 C   0  0  0  0  0  0  0  0  0  0  0  0
    9.0386    1.8698    0.0000 C   0  0  0  0  0  0  0  0  0  0  0  0
   10.5260    1.6753    0.0000 O   0  0  0  0  0  0  0  0  0  0  0  0
    8.8844    0.3777    0.0000 N   0  0  0  0  0  0  0  0  0  0  0  0
    8.4506   -1.0582    0.0000 C   0  0  0  0  0  0  0  0  0  0  0  0
    7.7529   -2.3860    0.0000 C   0  0  0  0  0  0  0  0  0  0  0  0
    6.8165   -3.5579    0.0000 C   0  0  0  0  0  0  0  0  0  0  0  0
    5.6753   -4.5313    0.0000 C   0  0  0  0  0  0  0  0  0  0  0  0
    4.3704   -5.2711    0.0000 C   0  0  0  0  0  0  0  0  0  0  0  0
    9.4721   -2.1567    0.0000 C   0  0  0  0  0  0  0  0  0  0  0  0
    9.9298   -0.8092    0.0000 C   0  0  0  0  0  0  0  0  0  0  0  0
   10.6212    0.5219    0.0000 O   0  0  0  0  0  0  0  0  0  0  0  0
   10.8850   -1.9658    0.0000 N   0  0  0  0  0  0  0  0  0  0  0  0
   12.3642   -1.7168    0.0000 C   0  0  0  0  0  0  0  0  0  0  0  0
   13.6690   -0.9770    0.0000 C   0  0  0  0  0  0  0  0  0  0  0  0
   14.9622   -1.7371    0.0000 C   0  0  0  0  0  0  0  0  0  0  0  0
   16.2670   -0.9972    0.0000 C   0  0  0  0  0  0  0  0  0  0  0  0
   17.5602   -1.7573    0.0000 C   0  0  0  0  0  0  0  0  0  0  0  0
   18.8650   -1.0175    0.0000 N   0  0  0  0  0  0  0  0  0  0  0  0
   13.3194   -2.8734    0.0000 C   0  0  0  0  0  0  0  0  0  0  0  0
   14.8179   -2.8066    0.0000 O   0  0  0  0  0  0  0  0  0  0  0  0
   12.7954   -4.2789    0.0000 N   0  0  0  0  0  0  0  0  0  0  0  0
   13.7506   -5.4354    0.0000 C   0  0  0  0  0  0  0  0  0  0  0  0
   15.0437   -6.1955    0.0000 C   0  0  0  0  0  0  0  0  0  0  0  0
   16.3486   -5.4557    0.0000 C   0  0  0  0  0  0  0  0  0  0  0  0
   17.6417   -6.2158    0.0000 C   0  0  0  0  0  0  0  0  0  0  0  0
   18.9466   -5.4759    0.0000 N   0  0  0  0  0  0  0  0  0  0  0  0
   17.6300   -7.7157    0.0000 O   0  0  0  0  0  0  0  0  0  0  0  0
   13.2266   -6.8409    0.0000 C   0  0  0  0  0  0  0  0  0  0  0  0
   11.7474   -7.0899    0.0000 O   0  0  0  0  0  0  0  0  0  0  0  0
   14.1818   -7.9975    0.0000 N   0  0  0  0  0  0  0  0  0  0  0  0
   13.6578   -9.4030    0.0000 C   0  0  0  0  0  0  0  0  0  0  0  0
   12.6847  -10.5445    0.0000 C   0  0  0  0  0  0  0  0  0  0  0  0
   13.3553  -11.8862    0.0000 C   0  0  0  0  0  0  0  0  0  0  0  0
   11.3798  -11.2843    0.0000 C   0  0  0  0  0  0  0  0  0  0  0  0
   11.3681  -12.7843    0.0000 C   0  0  0  0  0  0  0  0  0  0  0  0
   14.6130  -10.5595    0.0000 C   0  0  0  0  0  0  0  0  0  0  0  0
   14.2642  -12.0184    0.0000 O   0  0  0  0  0  0  0  0  0  0  0  0
   16.0922  -10.3106    0.0000 O   0  0  0  0  0  0  0  0  0  0  0  0
  -21.3470    0.5933    0.0000 H   0  0  0  0  0  0  0  0  0  0  0  0
  -22.4446   -1.7615    0.0000 H   0  0  0  0  0  0  0  0  0  0  0  0
  -19.4684   -0.0858    0.0000 H   0  0  0  0  0  0  0  0  0  0  0  0
  -18.3622   -1.6653    0.0000 H   0  0  0  0  0  0  0  0  0  0  0  0
  -21.2198   -2.8985    0.0000 H   0  0  0  0  0  0  0  0  0  0  0  0
  -20.1136   -4.4780    0.0000 H   0  0  0  0  0  0  0  0  0  0  0  0
  -19.1039   -5.6192    0.0000 H   0  0  0  0  0  0  0  0  0  0  0  0
  -16.4875   -4.3418    0.0000 H   0  0  0  0  0  0  0  0  0  0  0  0
  -18.9643   -7.8801    0.0000 H   0  0  0  0  0  0  0  0  0  0  0  0
  -18.5113   -6.4138    0.0000 H   0  0  0  0  0  0  0  0  0  0  0  0
  -17.3276  -10.9672    0.0000 H   0  0  0  0  0  0  0  0  0  0  0  0
  -19.4561   -9.4773    0.0000 H   0  0  0  0  0  0  0  0  0  0  0  0
  -15.1551   -3.3331    0.0000 H   0  0  0  0  0  0  0  0  0  0  0  0
  -13.3388   -3.3558    0.0000 H   0  0  0  0  0  0  0  0  0  0  0  0
  -14.1115   -7.2673    0.0000 H   0  0  0  0  0  0  0  0  0  0  0  0
  -14.4882   -6.0635    0.0000 H   0  0  0  0  0  0  0  0  0  0  0  0
  -10.9272   -7.7957    0.0000 H   0  0  0  0  0  0  0  0  0  0  0  0
  -11.4937   -6.1036    0.0000 H   0  0  0  0  0  0  0  0  0  0  0  0
  -13.7455   -9.8962    0.0000 H   0  0  0  0  0  0  0  0  0  0  0  0
  -14.1686   -8.3181    0.0000 H   0  0  0  0  0  0  0  0  0  0  0  0
  -10.3216  -10.4756    0.0000 H   0  0  0  0  0  0  0  0  0  0  0  0
  -10.6775   -8.7271    0.0000 H   0  0  0  0  0  0  0  0  0  0  0  0
  -11.0083  -12.3513    0.0000 H   0  0  0  0  0  0  0  0  0  0  0  0
  -12.9293  -12.5197    0.0000 H   0  0  0  0  0  0  0  0  0  0  0  0
  -13.4958  -10.8275    0.0000 H   0  0  0  0  0  0  0  0  0  0  0  0
  -11.8181   -2.4949    0.0000 H   0  0  0  0  0  0  0  0  0  0  0  0
   -9.6100   -4.0915    0.0000 H   0  0  0  0  0  0  0  0  0  0  0  0
  -10.3229    0.2613    0.0000 H   0  0  0  0  0  0  0  0  0  0  0  0
   -8.9263   -0.8494    0.0000 H   0  0  0  0  0  0  0  0  0  0  0  0
  -12.1135   -1.9587    0.0000 H   0  0  0  0  0  0  0  0  0  0  0  0
  -13.9708    0.5638    0.0000 H   0  0  0  0  0  0  0  0  0  0  0  0
  -12.6345    1.7464    0.0000 H   0  0  0  0  0  0  0  0  0  0  0  0
  -11.1128    0.8142    0.0000 H   0  0  0  0  0  0  0  0  0  0  0  0
  -13.8800   -2.8865    0.0000 H   0  0  0  0  0  0  0  0  0  0  0  0
  -14.8125   -1.3652    0.0000 H   0  0  0  0  0  0  0  0  0  0  0  0
  -13.6303   -0.0285    0.0000 H   0  0  0  0  0  0  0  0  0  0  0  0
   -8.1816   -0.2269    0.0000 H   0  0  0  0  0  0  0  0  0  0  0  0
   -5.7825   -4.2287    0.0000 H   0  0  0  0  0  0  0  0  0  0  0  0
   -6.5531   -3.2329    0.0000 H   0  0  0  0  0  0  0  0  0  0  0  0
   -4.4914   -5.4291    0.0000 H   0  0  0  0  0  0  0  0  0  0  0  0
   -5.4366   -4.5972    0.0000 H   0  0  0  0  0  0  0  0  0  0  0  0
   -2.9965   -6.3635    0.0000 H   0  0  0  0  0  0  0  0  0  0  0  0
   -4.0821   -5.7255    0.0000 H   0  0  0  0  0  0  0  0  0  0  0  0
   -1.3518   -6.9982    0.0000 H   0  0  0  0  0  0  0  0  0  0  0  0
   -2.5385   -6.5771    0.0000 H   0  0  0  0  0  0  0  0  0  0  0  0
    0.3833   -7.3100    0.0000 H   0  0  0  0  0  0  0  0  0  0  0  0
   -0.8616   -7.1211    0.0000 H   0  0  0  0  0  0  0  0  0  0  0  0
    2.3037   -7.1947    0.0000 H   0  0  0  0  0  0  0  0  0  0  0  0
    0.8879   -7.3380    0.0000 H   0  0  0  0  0  0  0  0  0  0  0  0
    3.2914   -7.2111    0.0000 H   0  0  0  0  0  0  0  0  0  0  0  0
   -8.1154   -3.1993    0.0000 H   0  0  0  0  0  0  0  0  0  0  0  0
   -6.7749   -4.3869    0.0000 H   0  0  0  0  0  0  0  0  0  0  0  0
   -5.4792   -3.8116    0.0000 H   0  0  0  0  0  0  0  0  0  0  0  0
   -8.1783    0.9304    0.0000 H   0  0  0  0  0  0  0  0  0  0  0  0
   -7.7653    3.7980    0.0000 H   0  0  0  0  0  0  0  0  0  0  0  0
   -9.2157    1.1446    0.0000 H   0  0  0  0  0  0  0  0  0  0  0  0
   -7.4888    0.6953    0.0000 H   0  0  0  0  0  0  0  0  0  0  0  0
  -10.7459    3.2925    0.0000 H   0  0  0  0  0  0  0  0  0  0  0  0
   -9.9030    1.5580    0.0000 H   0  0  0  0  0  0  0  0  0  0  0  0
   -8.5721    5.7931    0.0000 H   0  0  0  0  0  0  0  0  0  0  0  0
   -7.7292    4.0587    0.0000 H   0  0  0  0  0  0  0  0  0  0  0  0
  -11.7756    4.6087    0.0000 H   0  0  0  0  0  0  0  0  0  0  0  0
  -11.4552    9.0972    0.0000 H   0  0  0  0  0  0  0  0  0  0  0  0
  -12.9112    6.9454    0.0000 H   0  0  0  0  0  0  0  0  0  0  0  0
   -9.0469    8.9141    0.0000 H   0  0  0  0  0  0  0  0  0  0  0  0
   -7.9685    6.2998    0.0000 H   0  0  0  0  0  0  0  0  0  0  0  0
   -7.2930    5.9570    0.0000 H   0  0  0  0  0  0  0  0  0  0  0  0
   -5.5170    8.2703    0.0000 H   0  0  0  0  0  0  0  0  0  0  0  0
   -7.9649    6.6924    0.0000 H   0  0  0  0  0  0  0  0  0  0  0  0
   -6.7858    5.5613    0.0000 H   0  0  0  0  0  0  0  0  0  0  0  0
   -8.5517    8.7716    0.0000 H   0  0  0  0  0  0  0  0  0  0  0  0
   -3.6362    9.9998    0.0000 H   0  0  0  0  0  0  0  0  0  0  0  0
   -1.0317   10.8678    0.0000 H   0  0  0  0  0  0  0  0  0  0  0  0
   -3.8723   11.0324    0.0000 H   0  0  0  0  0  0  0  0  0  0  0  0
   -3.5637    9.2748    0.0000 H   0  0  0  0  0  0  0  0  0  0  0  0
    0.3881   11.5591    0.0000 H   0  0  0  0  0  0  0  0  0  0  0  0
    0.7774   14.3695    0.0000 H   0  0  0  0  0  0  0  0  0  0  0  0
   -1.5362   16.2792    0.0000 H   0  0  0  0  0  0  0  0  0  0  0  0
   -4.3469   15.2305    0.0000 H   0  0  0  0  0  0  0  0  0  0  0  0
   -4.8440   12.2719    0.0000 H   0  0  0  0  0  0  0  0  0  0  0  0
    1.4855   11.3059    0.0000 H   0  0  0  0  0  0  0  0  0  0  0  0
    4.2651   10.4890    0.0000 H   0  0  0  0  0  0  0  0  0  0  0  0
    1.6937   12.1992    0.0000 H   0  0  0  0  0  0  0  0  0  0  0  0
    1.1546   10.6569    0.0000 H   0  0  0  0  0  0  0  0  0  0  0  0
    5.0234   12.6540    0.0000 H   0  0  0  0  0  0  0  0  0  0  0  0
    4.7984   11.1941    0.0000 H   0  0  0  0  0  0  0  0  0  0  0  0
    2.1079   14.6172    0.0000 H   0  0  0  0  0  0  0  0  0  0  0  0
    1.7608   13.0207    0.0000 H   0  0  0  0  0  0  0  0  0  0  0  0
    5.5002   15.3599    0.0000 H   0  0  0  0  0  0  0  0  0  0  0  0
    5.2283   13.5962    0.0000 H   0  0  0  0  0  0  0  0  0  0  0  0
    4.7244   17.2006    0.0000 H   0  0  0  0  0  0  0  0  0  0  0  0
    2.7976   17.2768    0.0000 H   0  0  0  0  0  0  0  0  0  0  0  0
    2.3127   15.5594    0.0000 H   0  0  0  0  0  0  0  0  0  0  0  0
    6.5004    9.6357    0.0000 H   0  0  0  0  0  0  0  0  0  0  0  0
    8.3719    7.6271    0.0000 H   0  0  0  0  0  0  0  0  0  0  0  0
    8.7383    9.1687    0.0000 H   0  0  0  0  0  0  0  0  0  0  0  0
    7.3416   10.2794    0.0000 H   0  0  0  0  0  0  0  0  0  0  0  0
    5.8711    9.2686    0.0000 H   0  0  0  0  0  0  0  0  0  0  0  0
    9.8161    5.5194    0.0000 H   0  0  0  0  0  0  0  0  0  0  0  0
   10.2277    2.6516    0.0000 H   0  0  0  0  0  0  0  0  0  0  0  0
   10.7152    5.7010    0.0000 H   0  0  0  0  0  0  0  0  0  0  0  0
    9.0883    5.5507    0.0000 H   0  0  0  0  0  0  0  0  0  0  0  0
   11.0907    2.4594    0.0000 H   0  0  0  0  0  0  0  0  0  0  0  0
   14.0299    4.6468    0.0000 H   0  0  0  0  0  0  0  0  0  0  0  0
   13.2538    6.2537    0.0000 H   0  0  0  0  0  0  0  0  0  0  0  0
   11.4903    5.9813    0.0000 H   0  0  0  0  0  0  0  0  0  0  0  0
   14.0798    3.3942    0.0000 H   0  0  0  0  0  0  0  0  0  0  0  0
   13.4340    1.7308    0.0000 H   0  0  0  0  0  0  0  0  0  0  0  0
   11.5231    1.9898    0.0000 H   0  0  0  0  0  0  0  0  0  0  0  0
   10.3801    0.2638    0.0000 H   0  0  0  0  0  0  0  0  0  0  0  0
    9.2370   -2.6041    0.0000 H   0  0  0  0  0  0  0  0  0  0  0  0
    8.3870   -3.7454    0.0000 H   0  0  0  0  0  0  0  0  0  0  0  0
    8.1616   -4.2217    0.0000 H   0  0  0  0  0  0  0  0  0  0  0  0
    7.3565   -4.9573    0.0000 H   0  0  0  0  0  0  0  0  0  0  0  0
    6.9720   -5.2853    0.0000 H   0  0  0  0  0  0  0  0  0  0  0  0
    5.7587   -6.0290    0.0000 H   0  0  0  0  0  0  0  0  0  0  0  0
    4.9829   -6.6404    0.0000 H   0  0  0  0  0  0  0  0  0  0  0  0
    9.1004   -3.7806    0.0000 H   0  0  0  0  0  0  0  0  0  0  0  0
   10.4480   -3.2406    0.0000 H   0  0  0  0  0  0  0  0  0  0  0  0
   10.5799   -1.4423    0.0000 H   0  0  0  0  0  0  0  0  0  0  0  0
   10.5362   -3.4247    0.0000 H   0  0  0  0  0  0  0  0  0  0  0  0
   11.8622   -0.3033    0.0000 H   0  0  0  0  0  0  0  0  0  0  0  0
   14.4958    0.2746    0.0000 H   0  0  0  0  0  0  0  0  0  0  0  0
   12.7139    0.1796    0.0000 H   0  0  0  0  0  0  0  0  0  0  0  0
   15.7693   -3.0014    0.0000 H   0  0  0  0  0  0  0  0  0  0  0  0
   14.4629   -3.1516    0.0000 H   0  0  0  0  0  0  0  0  0  0  0  0
   17.0938    0.2544    0.0000 H   0  0  0  0  0  0  0  0  0  0  0  0
   15.4600    0.2671    0.0000 H   0  0  0  0  0  0  0  0  0  0  0  0
   18.5154   -2.9139    0.0000 H   0  0  0  0  0  0  0  0  0  0  0  0
   16.7335   -3.0090    0.0000 H   0  0  0  0  0  0  0  0  0  0  0  0
   20.1582   -1.7776    0.0000 H   0  0  0  0  0  0  0  0  0  0  0  0
   19.8382    0.1240    0.0000 H   0  0  0  0  0  0  0  0  0  0  0  0
   18.0580    0.2469    0.0000 H   0  0  0  0  0  0  0  0  0  0  0  0
   11.3162   -4.5278    0.0000 H   0  0  0  0  0  0  0  0  0  0  0  0
   14.5773   -4.1838    0.0000 H   0  0  0  0  0  0  0  0  0  0  0  0
   16.1328   -7.2270    0.0000 H   0  0  0  0  0  0  0  0  0  0  0  0
   14.3758   -7.5386    0.0000 H   0  0  0  0  0  0  0  0  0  0  0  0
   17.3217   -4.3142    0.0000 H   0  0  0  0  0  0  0  0  0  0  0  0
   15.5415   -4.1913    0.0000 H   0  0  0  0  0  0  0  0  0  0  0  0
   20.2397   -6.2360    0.0000 H   0  0  0  0  0  0  0  0  0  0  0  0
   18.9583   -3.9760    0.0000 H   0  0  0  0  0  0  0  0  0  0  0  0
   15.6803   -7.9307    0.0000 H   0  0  0  0  0  0  0  0  0  0  0  0
   12.3646   -8.6429    0.0000 H   0  0  0  0  0  0  0  0  0  0  0  0
   11.7295   -9.3879    0.0000 H   0  0  0  0  0  0  0  0  0  0  0  0
   12.3700  -13.2296    0.0000 H   0  0  0  0  0  0  0  0  0  0  0  0
   14.1419  -13.1145    0.0000 H   0  0  0  0  0  0  0  0  0  0  0  0
   14.6700  -11.7350    0.0000 H   0  0  0  0  0  0  0  0  0  0  0  0
    9.9006  -11.5333    0.0000 H   0  0  0  0  0  0  0  0  0  0  0  0
   10.8778   -9.8708    0.0000 H   0  0  0  0  0  0  0  0  0  0  0  0
   10.0633  -13.5241    0.0000 H   0  0  0  0  0  0  0  0  0  0  0  0
   11.8702  -14.1978    0.0000 H   0  0  0  0  0  0  0  0  0  0  0  0
   12.8636  -12.9007    0.0000 H   0  0  0  0  0  0  0  0  0  0  0  0
  1  2  1  0
  2  3  1  0
  3  4  1  0
  4  5  2  0
  4  6  1  0
  6  7  1  0
  7  8  1  0
  8  9  1  0
  9 10  1  0
  9 11  2  0
  7 12  1  0
 12 13  2  0
 12 14  1  0
 14 15  1  0
 15 16  1  0
 16 17  1  0
 17 18  1  0
 18 19  1  0
 19 20  1  0
 15 21  1  0
 21 22  2  0
 21 23  1  0
 23 24  1  0
 24 25  1  0
 25 26  1  0
 26 27  1  0
 26 28  1  0
 24 29  1  0
 29 30  2  0
 29 31  1  0
 32 31  1  1
 32 33  1  0
 33 34  1  0
 34 35  1  0
 35 36  1  0
 36 37  1  0
 37 38  1  0
 38 39  1  0
 32 40  1  0
 32 41  1  0
 41 42  2  0
 41 43  1  0
 43 44  1  0
 44 45  1  0
 45 46  1  0
 46 47  1  0
 47 48  1  0
 48 49  1  0
 49 50  2  3
 49 51  1  0
 44 52  1  0
 52 53  2  0
 52 54  1  0
 54 55  1  0
 55 56  1  0
 56 57  1  0
 55 58  1  0
 58 59  2  0
 58 60  1  0
 60 61  1  0
 61 62  1  0
 62 63  1  0
 63 64  2  0
 64 65  1  0
 65 66  2  0
 66 67  1  0
 67 68  2  0
 61 69  1  0
 69 70  2  0
 69 71  1  0
 71 72  1  0
 72 73  1  0
 73 74  1  0
 74 75  1  0
 75 76  1  0
 76 77  1  0
 72 78  1  0
 78 79  2  0
 78 80  1  0
 80 81  1  0
 81 82  1  0
 81 83  1  0
 83 84  2  0
 83 85  1  0
 85 86  1  0
 86 87  1  0
 87 88  1  0
 88 89  1  0
 88 90  1  0
 86 91  1  0
 91 92  2  0
 91 93  1  0
 93 94  1  0
 94 95  1  0
 95 96  1  0
 96 97  1  0
 97 98  1  0
 94 99  1  0
 94100  1  6
100101  2  0
100102  1  0
102103  1  0
103104  1  0
104105  1  0
105106  1  0
106107  1  0
107108  1  0
103109  1  0
109110  2  0
109111  1  0
111112  1  0
112113  1  0
113114  1  0
114115  1  0
115116  1  0
115117  2  0
112118  1  0
118119  2  0
118120  1  0
120121  1  0
121122  1  0
122123  1  0
122124  1  0
124125  1  0
121126  1  0
126127  2  0
126128  1  0
 68 63  1  0
 39 98  2  0
  1129  1  0
  1130  1  0
  2131  1  0
  2132  1  0
  3133  1  0
  3134  1  0
  6135  1  0
  7136  1  6
  8137  1  0
  8138  1  0
 10139  1  0
 10140  1  0
 14141  1  0
 15142  1  6
 16143  1  0
 16144  1  0
 17145  1  0
 17146  1  0
 18147  1  0
 18148  1  0
 19149  1  0
 19150  1  0
 20151  1  0
 20152  1  0
 20153  1  0
 23154  1  0
 24155  1  1
 25156  1  0
 25157  1  0
 26158  1  0
 27159  1  0
 27160  1  0
 27161  1  0
 28162  1  0
 28163  1  0
 28164  1  0
 31165  1  0
 33166  1  0
 33167  1  0
 34168  1  0
 34169  1  0
 35170  1  0
 35171  1  0
 36172  1  0
 36173  1  0
 37174  1  0
 37175  1  0
 38176  1  0
 38177  1  0
 39178  1  0
 40179  1  0
 40180  1  0
 40181  1  0
 43182  1  0
 44183  1  1
 45184  1  0
 45185  1  0
 46186  1  0
 46187  1  0
 47188  1  0
 47189  1  0
 48190  1  0
 50191  1  0
 50192  1  0
 51193  1  0
 51194  1  0
 54195  1  0
 55196  1  1
 56197  1  0
 56198  1  0
 57199  1  0
 60200  1  0
 61201  1  1
 62202  1  0
 62203  1  0
 64204  1  0
 65205  1  0
 66206  1  0
 67207  1  0
 68208  1  0
 71209  1  0
 72210  1  1
 73211  1  0
 73212  1  0
 74213  1  0
 74214  1  0
 75215  1  0
 75216  1  0
 76217  1  0
 76218  1  0
 77219  1  0
 77220  1  0
 77221  1  0
 80222  1  0
 81223  1  1
 82224  1  0
 82225  1  0
 82226  1  0
 85227  1  0
 86228  1  1
 87229  1  0
 87230  1  0
 88231  1  0
 89232  1  0
 89233  1  0
 89234  1  0
 90235  1  0
 90236  1  0
 90237  1  0
 93238  1  0
 95239  1  0
 95240  1  0
 96241  1  0
 96242  1  0
 97243  1  0
 97244  1  0
 98245  1  0
 99246  1  0
 99247  1  0
 99248  1  0
102249  1  0
103250  1  1
104251  1  0
104252  1  0
105253  1  0
105254  1  0
106255  1  0
106256  1  0
107257  1  0
107258  1  0
108259  1  0
108260  1  0
108261  1  0
111262  1  0
112263  1  1
113264  1  0
113265  1  0
114266  1  0
114267  1  0
116268  1  0
116269  1  0
120270  1  0
121271  1  6
122272  1  6
123273  1  0
123274  1  0
123275  1  0
124276  1  0
124277  1  0
125278  1  0
125279  1  0
125280  1  0
M  CHG  5  20   1  50   1  77   1 108   1 128  -1
M  END
