
     RDKit          2D

237245  0  0  0  0  0  0  0  0999 V2000
  -14.4989   -1.3941    0.0000 C   0  0  0  0  0  0  0  0  0  0  0  0
  -14.8617   -2.8496    0.0000 N   0  0  0  0  0  0  0  0  0  0  0  0
  -16.3035   -3.2632    0.0000 C   0  0  0  0  0  0  0  0  0  0  0  0
  -17.3826   -2.2212    0.0000 C   0  0  0  0  0  0  0  0  0  0  0  0
  -18.8245   -2.6348    0.0000 C   0  0  0  0  0  0  0  0  0  0  0  0
  -19.1873   -4.0903    0.0000 C   0  0  0  0  0  0  0  0  0  0  0  0
  -18.1082   -5.1322    0.0000 C   0  0  0  0  0  0  0  0  0  0  0  0
  -16.6663   -4.7186    0.0000 C   0  0  0  0  0  0  0  0  0  0  0  0
  -18.7656   -6.4804    0.0000 C   0  0  0  0  0  0  0  0  0  0  0  0
  -20.2510   -6.2718    0.0000 O   0  0  0  0  0  0  0  0  0  0  0  0
  -20.5116   -4.7946    0.0000 C   0  0  0  0  0  0  0  0  0  0  0  0
  -21.8599   -4.1371    0.0000 O   0  0  0  0  0  0  0  0  0  0  0  0
  -19.5604   -7.7525    0.0000 C   0  0  0  0  0  0  0  0  0  0  0  0
  -18.8561   -9.0769    0.0000 C   0  0  0  0  0  0  0  0  0  0  0  0
  -19.6509  -10.3490    0.0000 C   0  0  0  0  0  0  0  0  0  0  0  0
  -21.1500  -10.2968    0.0000 C   0  0  0  0  0  0  0  0  0  0  0  0
  -21.8543   -8.9724    0.0000 C   0  0  0  0  0  0  0  0  0  0  0  0
  -21.0595   -7.7003    0.0000 C   0  0  0  0  0  0  0  0  0  0  0  0
  -21.9448  -11.5689    0.0000 O   0  0  0  0  0  0  0  0  0  0  0  0
  -17.3570   -9.1292    0.0000 O   0  0  0  0  0  0  0  0  0  0  0  0
  -16.5622   -7.8570    0.0000 C   0  0  0  0  0  0  0  0  0  0  0  0
  -17.2665   -6.5327    0.0000 C   0  0  0  0  0  0  0  0  0  0  0  0
  -16.1431   -5.8786    0.0000 C   0  0  0  0  0  0  0  0  0  0  0  0
  -15.3436   -5.9064    0.0000 C   0  0  0  0  0  0  0  0  0  0  0  0
  -14.9679   -6.6128    0.0000 C   0  0  0  0  0  0  0  0  0  0  0  0
  -15.3918   -7.2912    0.0000 C   0  0  0  0  0  0  0  0  0  0  0  0
  -12.7693   -6.6894    0.0000 O   0  0  0  0  0  0  0  0  0  0  0  0
  -15.5780   -0.3522    0.0000 S   0  0  0  0  0  0  0  0  0  0  0  0
  -13.0570   -0.9806    0.0000 N   0  0  0  0  0  0  0  0  0  0  0  0
  -12.6942    0.4749    0.0000 C   0  0  0  0  0  0  0  0  0  0  0  0
  -11.2524    0.8885    0.0000 C   0  0  0  0  0  0  0  0  0  0  0  0
  -10.8896    2.3439    0.0000 C   0  0  0  0  0  0  0  0  0  0  0  0
  -11.5800    2.7424    0.0000 O   0  0  0  0  0  0  0  0  0  0  0  0
   -9.4477    2.7575    0.0000 N   0  0  0  0  0  0  0  0  0  0  0  0
   -9.0850    4.2130    0.0000 C   0  0  0  0  0  0  0  0  0  0  0  0
  -10.5813    4.3175    0.0000 C   0  0  0  0  0  0  0  0  0  0  0  0
  -11.4200    3.0739    0.0000 C   0  0  0  0  0  0  0  0  0  0  0  0
  -12.9164    3.1784    0.0000 C   0  0  0  0  0  0  0  0  0  0  0  0
  -13.9004    2.0463    0.0000 N   0  0  0  0  0  0  0  0  0  0  0  0
  -13.5740    4.5265    0.0000 O   0  0  0  0  0  0  0  0  0  0  0  0
   -8.2463    5.4566    0.0000 C   0  0  0  0  0  0  0  0  0  0  0  0
   -9.2106    6.6055    0.0000 O   0  0  0  0  0  0  0  0  0  0  0  0
   -6.7499    5.3520    0.0000 N   0  0  0  0  0  0  0  0  0  0  0  0
   -5.9112    6.5957    0.0000 C   0  0  0  0  0  0  0  0  0  0  0  0
   -7.2816    7.2057    0.0000 C   0  0  0  0  0  0  0  0  0  0  0  0
   -8.3606    8.2476    0.0000 O   0  0  0  0  0  0  0  0  0  0  0  0
   -8.5935    6.4784    0.0000 C   0  0  0  0  0  0  0  0  0  0  0  0
   -4.6977    7.4774    0.0000 C   0  0  0  0  0  0  0  0  0  0  0  0
   -5.2109    8.8869    0.0000 O   0  0  0  0  0  0  0  0  0  0  0  0
   -3.3274    6.8674    0.0000 N   0  0  0  0  0  0  0  0  0  0  0  0
   -2.1139    7.7492    0.0000 C   0  0  0  0  0  0  0  0  0  0  0  0
   -3.1930    8.7911    0.0000 C   0  0  0  0  0  0  0  0  0  0  0  0
   -4.6349    8.3775    0.0000 C   0  0  0  0  0  0  0  0  0  0  0  0
   -5.7139    9.4194    0.0000 C   0  0  0  0  0  0  0  0  0  0  0  0
   -7.1558    9.0059    0.0000 C   0  0  0  0  0  0  0  0  0  0  0  0
   -7.5186    7.5504    0.0000 C   0  0  0  0  0  0  0  0  0  0  0  0
   -6.4395    6.5085    0.0000 C   0  0  0  0  0  0  0  0  0  0  0  0
   -4.9976    6.9221    0.0000 C   0  0  0  0  0  0  0  0  0  0  0  0
   -0.6721    8.1627    0.0000 C   0  0  0  0  0  0  0  0  0  0  0  0
   -0.4894    9.6516    0.0000 O   0  0  0  0  0  0  0  0  0  0  0  0
    0.4070    7.1208    0.0000 N   0  0  0  0  0  0  0  0  0  0  0  0
    1.8489    7.5344    0.0000 C   0  0  0  0  0  0  0  0  0  0  0  0
    1.1912    8.8825    0.0000 C   0  0  0  0  0  0  0  0  0  0  0  0
   -0.2812    9.1687    0.0000 O   0  0  0  0  0  0  0  0  0  0  0  0
    3.3452    7.4299    0.0000 C   0  0  0  0  0  0  0  0  0  0  0  0
    4.0261    8.7664    0.0000 O   0  0  0  0  0  0  0  0  0  0  0  0
    4.0029    6.0817    0.0000 N   0  0  0  0  0  0  0  0  0  0  0  0
    5.4993    5.9772    0.0000 C   0  0  0  0  0  0  0  0  0  0  0  0
    6.6312    6.9614    0.0000 C   0  0  0  0  0  0  0  0  0  0  0  0
    8.0537    7.4374    0.0000 C   0  0  0  0  0  0  0  0  0  0  0  0
    9.5501    7.3329    0.0000 C   0  0  0  0  0  0  0  0  0  0  0  0
   10.8925    6.6637    0.0000 C   0  0  0  0  0  0  0  0  0  0  0  0
    4.8534    7.3310    0.0000 C   0  0  0  0  0  0  0  0  0  0  0  0
    4.8301    4.6347    0.0000 C   0  0  0  0  0  0  0  0  0  0  0  0
    3.3456    4.8498    0.0000 O   0  0  0  0  0  0  0  0  0  0  0  0
    4.7255    3.1384    0.0000 N   0  0  0  0  0  0  0  0  0  0  0  0
    5.2016    1.7159    0.0000 C   0  0  0  0  0  0  0  0  0  0  0  0
    3.7052    1.8205    0.0000 C   0  0  0  0  0  0  0  0  0  0  0  0
    2.8665    0.5768    0.0000 C   0  0  0  0  0  0  0  0  0  0  0  0
    1.3702    0.6814    0.0000 C   0  0  0  0  0  0  0  0  0  0  0  0
    2.5037   -0.8786    0.0000 C   0  0  0  0  0  0  0  0  0  0  0  0
    6.1858    0.5839    0.0000 C   0  0  0  0  0  0  0  0  0  0  0  0
    5.2675   -0.6022    0.0000 O   0  0  0  0  0  0  0  0  0  0  0  0
    7.5282   -0.0853    0.0000 N   0  0  0  0  0  0  0  0  0  0  0  0
    9.2904    0.3435    0.0000 C   0  0  0  0  0  0  0  0  0  0  0  0
   10.4185    1.3322    0.0000 C   0  0  0  0  0  0  0  0  0  0  0  0
   11.8638    1.7336    0.0000 C   0  0  0  0  0  0  0  0  0  0  0  0
   10.9035    2.8859    0.0000 C   0  0  0  0  0  0  0  0  0  0  0  0
   10.9086    4.3859    0.0000 N   0  0  0  0  0  0  0  0  0  0  0  0
   11.8767    5.5317    0.0000 C   0  0  0  0  0  0  0  0  0  0  0  0
   13.3548    5.7871    0.0000 C   0  0  0  0  0  0  0  0  0  0  0  0
   14.6512    5.0327    0.0000 C   0  0  0  0  0  0  0  0  0  0  0  0
   15.1595    3.6215    0.0000 C   0  0  0  0  0  0  0  0  0  0  0  0
   14.6417    2.2137    0.0000 C   0  0  0  0  0  0  0  0  0  0  0  0
   13.3401    1.4681    0.0000 C   0  0  0  0  0  0  0  0  0  0  0  0
    8.7031   -1.0367    0.0000 C   0  0  0  0  0  0  0  0  0  0  0  0
    7.2297   -1.3180    0.0000 O   0  0  0  0  0  0  0  0  0  0  0  0
    8.7727   -2.5351    0.0000 N   0  0  0  0  0  0  0  0  0  0  0  0
    9.4856   -3.8548    0.0000 C   0  0  0  0  0  0  0  0  0  0  0  0
    7.9967   -4.0363    0.0000 C   0  0  0  0  0  0  0  0  0  0  0  0
    7.4093   -5.4165    0.0000 C   0  0  0  0  0  0  0  0  0  0  0  0
    5.9203   -5.5980    0.0000 C   0  0  0  0  0  0  0  0  0  0  0  0
    5.3330   -6.9782    0.0000 C   0  0  0  0  0  0  0  0  0  0  0  0
    3.8440   -7.1597    0.0000 N   0  0  0  0  0  0  0  0  0  0  0  0
   10.7006   -4.7346    0.0000 C   0  0  0  0  0  0  0  0  0  0  0  0
   10.1132   -6.1148    0.0000 O   0  0  0  0  0  0  0  0  0  0  0  0
   12.1769   -5.0001    0.0000 N   0  0  0  0  0  0  0  0  0  0  0  0
   13.6222   -4.5987    0.0000 C   0  0  0  0  0  0  0  0  0  0  0  0
   14.7502   -3.6100    0.0000 C   0  0  0  0  0  0  0  0  0  0  0  0
   15.3376   -2.2298    0.0000 C   0  0  0  0  0  0  0  0  0  0  0  0
   15.2679   -0.7314    0.0000 C   0  0  0  0  0  0  0  0  0  0  0  0
   14.5550    0.5883    0.0000 C   0  0  0  0  0  0  0  0  0  0  0  0
   14.8608   -5.4449    0.0000 C   0  0  0  0  0  0  0  0  0  0  0  0
   13.4678   -6.0908    0.0000 C   0  0  0  0  0  0  0  0  0  0  0  0
   12.1833   -6.8654    0.0000 O   0  0  0  0  0  0  0  0  0  0  0  0
   14.6827   -6.9705    0.0000 N   0  0  0  0  0  0  0  0  0  0  0  0
   14.5283   -8.4625    0.0000 C   0  0  0  0  0  0  0  0  0  0  0  0
   13.8728   -9.8118    0.0000 C   0  0  0  0  0  0  0  0  0  0  0  0
   12.3767   -9.9188    0.0000 C   0  0  0  0  0  0  0  0  0  0  0  0
   11.7213  -11.2680    0.0000 C   0  0  0  0  0  0  0  0  0  0  0  0
   10.9341   -9.5076    0.0000 C   0  0  0  0  0  0  0  0  0  0  0  0
   15.7432   -9.3423    0.0000 C   0  0  0  0  0  0  0  0  0  0  0  0
   15.7718  -10.8420    0.0000 O   0  0  0  0  0  0  0  0  0  0  0  0
   17.1125   -8.7300    0.0000 O   0  0  0  0  0  0  0  0  0  0  0  0
  -13.6636   -3.7522    0.0000 H   0  0  0  0  0  0  0  0  0  0  0  0
  -17.0198   -0.7658    0.0000 H   0  0  0  0  0  0  0  0  0  0  0  0
  -19.9036   -1.5929    0.0000 H   0  0  0  0  0  0  0  0  0  0  0  0
  -15.3672   -5.4685    0.0000 H   0  0  0  0  0  0  0  0  0  0  0  0
  -18.9466  -11.6734    0.0000 H   0  0  0  0  0  0  0  0  0  0  0  0
  -23.3534   -8.9202    0.0000 H   0  0  0  0  0  0  0  0  0  0  0  0
  -21.7638   -6.3759    0.0000 H   0  0  0  0  0  0  0  0  0  0  0  0
  -23.4439  -11.5167    0.0000 H   0  0  0  0  0  0  0  0  0  0  0  0
  -17.1761   -3.9362    0.0000 H   0  0  0  0  0  0  0  0  0  0  0  0
  -14.0287   -4.1470    0.0000 H   0  0  0  0  0  0  0  0  0  0  0  0
  -14.3588   -9.2336    0.0000 H   0  0  0  0  0  0  0  0  0  0  0  0
  -12.0650   -8.0138    0.0000 H   0  0  0  0  0  0  0  0  0  0  0  0
  -11.9779   -2.0225    0.0000 H   0  0  0  0  0  0  0  0  0  0  0  0
  -14.1906    0.5794    0.0000 H   0  0  0  0  0  0  0  0  0  0  0  0
  -13.0318    1.9364    0.0000 H   0  0  0  0  0  0  0  0  0  0  0  0
  -11.0955   -0.6033    0.0000 H   0  0  0  0  0  0  0  0  0  0  0  0
   -9.7560    0.7839    0.0000 H   0  0  0  0  0  0  0  0  0  0  0  0
   -8.3687    1.7156    0.0000 H   0  0  0  0  0  0  0  0  0  0  0  0
   -7.7146    3.6030    0.0000 H   0  0  0  0  0  0  0  0  0  0  0  0
  -11.9517    4.9275    0.0000 H   0  0  0  0  0  0  0  0  0  0  0  0
  -10.2185    5.7730    0.0000 H   0  0  0  0  0  0  0  0  0  0  0  0
  -11.7828    1.6184    0.0000 H   0  0  0  0  0  0  0  0  0  0  0  0
  -10.2380    2.1504    0.0000 H   0  0  0  0  0  0  0  0  0  0  0  0
  -15.2514    2.0393    0.0000 H   0  0  0  0  0  0  0  0  0  0  0  0
  -13.4745    0.4357    0.0000 H   0  0  0  0  0  0  0  0  0  0  0  0
   -6.0923    4.0039    0.0000 H   0  0  0  0  0  0  0  0  0  0  0  0
   -4.8321    5.5538    0.0000 H   0  0  0  0  0  0  0  0  0  0  0  0
   -6.4429    8.4493    0.0000 H   0  0  0  0  0  0  0  0  0  0  0  0
   -9.8422    8.0129    0.0000 H   0  0  0  0  0  0  0  0  0  0  0  0
   -9.9114    6.7755    0.0000 H   0  0  0  0  0  0  0  0  0  0  0  0
   -9.3337    5.0803    0.0000 H   0  0  0  0  0  0  0  0  0  0  0  0
   -7.9230    4.9394    0.0000 H   0  0  0  0  0  0  0  0  0  0  0  0
   -2.9898    5.4059    0.0000 H   0  0  0  0  0  0  0  0  0  0  0  0
   -1.4563    6.4010    0.0000 H   0  0  0  0  0  0  0  0  0  0  0  0
   -3.8507   10.1392    0.0000 H   0  0  0  0  0  0  0  0  0  0  0  0
   -1.9795    9.6729    0.0000 H   0  0  0  0  0  0  0  0  0  0  0  0
   -5.3512   10.8749    0.0000 H   0  0  0  0  0  0  0  0  0  0  0  0
   -8.2349   10.0478    0.0000 H   0  0  0  0  0  0  0  0  0  0  0  0
   -9.0001    7.3157    0.0000 H   0  0  0  0  0  0  0  0  0  0  0  0
   -6.9770    5.1081    0.0000 H   0  0  0  0  0  0  0  0  0  0  0  0
   -4.0536    5.7564    0.0000 H   0  0  0  0  0  0  0  0  0  0  0  0
    0.0443    5.6654    0.0000 H   0  0  0  0  0  0  0  0  0  0  0  0
    2.0058    6.0426    0.0000 H   0  0  0  0  0  0  0  0  0  0  0  0
    1.0343   10.3743    0.0000 H   0  0  0  0  0  0  0  0  0  0  0  0
    2.6331    9.2961    0.0000 H   0  0  0  0  0  0  0  0  0  0  0  0
   -0.9628   10.3352    0.0000 H   0  0  0  0  0  0  0  0  0  0  0  0
    3.0189    4.9496    0.0000 H   0  0  0  0  0  0  0  0  0  0  0  0
    6.7358    8.4577    0.0000 H   0  0  0  0  0  0  0  0  0  0  0  0
    5.3804    7.7892    0.0000 H   0  0  0  0  0  0  0  0  0  0  0  0
    8.5543    8.8514    0.0000 H   0  0  0  0  0  0  0  0  0  0  0  0
    7.2149    8.6809    0.0000 H   0  0  0  0  0  0  0  0  0  0  0  0
   10.6820    8.3171    0.0000 H   0  0  0  0  0  0  0  0  0  0  0  0
    9.2509    8.8028    0.0000 H   0  0  0  0  0  0  0  0  0  0  0  0
   11.8107    7.8498    0.0000 H   0  0  0  0  0  0  0  0  0  0  0  0
    3.6809    8.0022    0.0000 H   0  0  0  0  0  0  0  0  0  0  0  0
    5.2519    8.8620    0.0000 H   0  0  0  0  0  0  0  0  0  0  0  0
    6.2927    8.1948    0.0000 H   0  0  0  0  0  0  0  0  0  0  0  0
    3.2255    3.1318    0.0000 H   0  0  0  0  0  0  0  0  0  0  0  0
    4.7010    0.3019    0.0000 H   0  0  0  0  0  0  0  0  0  0  0  0
    2.4194    2.5930    0.0000 H   0  0  0  0  0  0  0  0  0  0  0  0
    3.5222    3.3093    0.0000 H   0  0  0  0  0  0  0  0  0  0  0  0
    4.1523   -0.1957    0.0000 H   0  0  0  0  0  0  0  0  0  0  0  0
    0.3861   -0.4507    0.0000 H   0  0  0  0  0  0  0  0  0  0  0  0
   -0.0002    1.2914    0.0000 H   0  0  0  0  0  0  0  0  0  0  0  0
    1.5528    2.1702    0.0000 H   0  0  0  0  0  0  0  0  0  0  0  0
    1.1230   -1.4649    0.0000 H   0  0  0  0  0  0  0  0  0  0  0  0
    2.6606   -2.3704    0.0000 H   0  0  0  0  0  0  0  0  0  0  0  0
    4.0001   -0.9831    0.0000 H   0  0  0  0  0  0  0  0  0  0  0  0
    6.9603   -1.4736    0.0000 H   0  0  0  0  0  0  0  0  0  0  0  0
    8.0755    1.2233    0.0000 H   0  0  0  0  0  0  0  0  0  0  0  0
   10.2073    2.8173    0.0000 H   0  0  0  0  0  0  0  0  0  0  0  0
    9.0119    1.8535    0.0000 H   0  0  0  0  0  0  0  0  0  0  0  0
    9.4408    2.5535    0.0000 H   0  0  0  0  0  0  0  0  0  0  0  0
    9.5008    4.9037    0.0000 H   0  0  0  0  0  0  0  0  0  0  0  0
   13.6203    7.2635    0.0000 H   0  0  0  0  0  0  0  0  0  0  0  0
   15.8036    5.9930    0.0000 H   0  0  0  0  0  0  0  0  0  0  0  0
   16.6595    3.6164    0.0000 H   0  0  0  0  0  0  0  0  0  0  0  0
   15.8969    1.3925    0.0000 H   0  0  0  0  0  0  0  0  0  0  0  0
    7.2893   -2.7573    0.0000 H   0  0  0  0  0  0  0  0  0  0  0  0
    9.2904   -5.3421    0.0000 H   0  0  0  0  0  0  0  0  0  0  0  0
    6.5876   -3.5219    0.0000 H   0  0  0  0  0  0  0  0  0  0  0  0
    7.5343   -2.6093    0.0000 H   0  0  0  0  0  0  0  0  0  0  0  0
    7.5126   -6.9130    0.0000 H   0  0  0  0  0  0  0  0  0  0  0  0
    8.8184   -5.9309    0.0000 H   0  0  0  0  0  0  0  0  0  0  0  0
    4.4591   -5.2592    0.0000 H   0  0  0  0  0  0  0  0  0  0  0  0
    5.8170   -4.1015    0.0000 H   0  0  0  0  0  0  0  0  0  0  0  0
    5.2531   -8.4761    0.0000 H   0  0  0  0  0  0  0  0  0  0  0  0
    6.7420   -7.4925    0.0000 H   0  0  0  0  0  0  0  0  0  0  0  0
    3.2566   -8.5399    0.0000 H   0  0  0  0  0  0  0  0  0  0  0  0
    2.9424   -5.9609    0.0000 H   0  0  0  0  0  0  0  0  0  0  0  0
   12.0634   -6.4958    0.0000 H   0  0  0  0  0  0  0  0  0  0  0  0
   15.4267   -4.9488    0.0000 H   0  0  0  0  0  0  0  0  0  0  0  0
   16.2496   -3.6525    0.0000 H   0  0  0  0  0  0  0  0  0  0  0  0
   16.5279   -3.1425    0.0000 H   0  0  0  0  0  0  0  0  0  0  0  0
   16.7713   -1.7890    0.0000 H   0  0  0  0  0  0  0  0  0  0  0  0
   16.7364   -1.0373    0.0000 H   0  0  0  0  0  0  0  0  0  0  0  0
   16.2360    0.4144    0.0000 H   0  0  0  0  0  0  0  0  0  0  0  0
   15.7951    1.4322    0.0000 H   0  0  0  0  0  0  0  0  0  0  0  0
   15.3440   -6.7065    0.0000 H   0  0  0  0  0  0  0  0  0  0  0  0
   16.4424   -5.4792    0.0000 H   0  0  0  0  0  0  0  0  0  0  0  0
   15.9353   -4.1552    0.0000 H   0  0  0  0  0  0  0  0  0  0  0  0
   16.0520   -6.3582    0.0000 H   0  0  0  0  0  0  0  0  0  0  0  0
   13.1466   -7.8786    0.0000 H   0  0  0  0  0  0  0  0  0  0  0  0
   13.9014  -11.3115    0.0000 H   0  0  0  0  0  0  0  0  0  0  0  0
   15.2545  -10.3957    0.0000 H   0  0  0  0  0  0  0  0  0  0  0  0
   12.3481   -8.4191    0.0000 H   0  0  0  0  0  0  0  0  0  0  0  0
   10.2493  -11.5566    0.0000 H   0  0  0  0  0  0  0  0  0  0  0  0
   11.5668  -12.7600    0.0000 H   0  0  0  0  0  0  0  0  0  0  0  0
   13.1029  -11.8520    0.0000 H   0  0  0  0  0  0  0  0  0  0  0  0
    9.7376  -10.4122    0.0000 H   0  0  0  0  0  0  0  0  0  0  0  0
    9.7192   -8.6279    0.0000 H   0  0  0  0  0  0  0  0  0  0  0  0
   11.5895   -8.1584    0.0000 H   0  0  0  0  0  0  0  0  0  0  0  0
   18.3275   -9.6098    0.0000 H   0  0  0  0  0  0  0  0  0  0  0  0
  1  2  1  0
  2  3  1  0
  3  4  2  0
  4  5  1  0
  5  6  2  0
  6  7  1  0
  7  8  2  0
  7  9  1  0
  9 10  1  0
 10 11  1  0
 11 12  2  0
  9 13  1  0
 13 14  1  0
 14 15  2  0
 15 16  1  0
 16 17  2  0
 17 18  1  0
 16 19  1  0
 14 20  1  0
 20 21  1  0
 21 22  2  0
 22 23  1  0
 23 24  2  0
 24 25  1  0
 25 26  2  0
 25 27  1  0
  1 28  2  0
  1 29  1  0
 29 30  1  0
 30 31  1  0
 31 32  1  0
 32 33  2  0
 32 34  1  0
 34 35  1  0
 35 36  1  0
 36 37  1  0
 37 38  1  0
 38 39  1  0
 38 40  2  0
 35 41  1  0
 41 42  2  0
 41 43  1  0
 43 44  1  0
 44 45  1  0
 45 46  1  0
 45 47  1  0
 44 48  1  0
 48 49  2  0
 48 50  1  0
 50 51  1  0
 51 52  1  0
 52 53  1  0
 53 54  2  0
 54 55  1  0
 55 56  2  0
 56 57  1  0
 57 58  2  0
 51 59  1  0
 59 60  2  0
 59 61  1  0
 61 62  1  0
 62 63  1  0
 63 64  1  0
 62 65  1  0
 65 66  2  0
 65 67  1  0
 68 67  1  1
 68 69  1  0
 69 70  1  0
 70 71  1  0
 71 72  1  0
 68 73  1  0
 68 74  1  0
 74 75  2  0
 74 76  1  0
 76 77  1  0
 77 78  1  0
 78 79  1  0
 79 80  1  0
 79 81  1  0
 77 82  1  0
 82 83  2  0
 82 84  1  0
 84 85  1  0
 85 86  1  0
 86 87  1  0
 87 88  2  0
 88 89  1  0
 89 90  1  0
 90 91  1  0
 91 92  2  0
 92 93  1  0
 93 94  2  0
 94 95  1  0
 85 96  1  0
 96 97  2  0
 96 98  1  0
 98 99  1  0
 99100  1  0
100101  1  0
101102  1  0
102103  1  0
103104  1  0
 99105  1  0
105106  2  0
105107  1  0
107108  1  0
108109  1  0
109110  1  0
110111  1  0
111112  1  0
108113  1  0
108114  1  1
114115  2  0
114116  1  0
116117  1  0
117118  1  0
118119  1  0
119120  1  0
119121  1  0
117122  1  0
122123  2  0
122124  1  0
  8  3  1  0
 58 53  1  0
 95 87  1  0
 11  6  1  0
 72 90  2  0
112 95  2  0
 18 13  2  0
 22  9  1  0
 26 21  1  0
  2125  1  0
  4126  1  0
  5127  1  0
  8128  1  0
 15129  1  0
 17130  1  0
 18131  1  0
 19132  1  0
 23133  1  0
 24134  1  0
 26135  1  0
 27136  1  0
 29137  1  0
 30138  1  0
 30139  1  0
 31140  1  0
 31141  1  0
 34142  1  0
 35143  1  1
 36144  1  0
 36145  1  0
 37146  1  0
 37147  1  0
 39148  1  0
 39149  1  0
 43150  1  0
 44151  1  1
 45152  1  6
 46153  1  0
 47154  1  0
 47155  1  0
 47156  1  0
 50157  1  0
 51158  1  1
 52159  1  0
 52160  1  0
 54161  1  0
 55162  1  0
 56163  1  0
 57164  1  0
 58165  1  0
 61166  1  0
 62167  1  1
 63168  1  0
 63169  1  0
 64170  1  0
 67171  1  0
 69172  1  0
 69173  1  0
 70174  1  0
 70175  1  0
 71176  1  0
 71177  1  0
 72178  1  0
 73179  1  0
 73180  1  0
 73181  1  0
 76182  1  0
 77183  1  6
 78184  1  0
 78185  1  0
 79186  1  0
 80187  1  0
 80188  1  0
 80189  1  0
 81190  1  0
 81191  1  0
 81192  1  0
 84193  1  0
 85194  1  1
 86195  1  0
 86196  1  0
 88197  1  0
 89198  1  0
 91199  1  0
 92200  1  0
 93201  1  0
 94202  1  0
 98203  1  0
 99204  1  6
100205  1  0
100206  1  0
101207  1  0
101208  1  0
102209  1  0
102210  1  0
103211  1  0
103212  1  0
104213  1  0
104214  1  0
107215  1  0
109216  1  0
109217  1  0
110218  1  0
110219  1  0
111220  1  0
111221  1  0
112222  1  0
113223  1  0
113224  1  0
113225  1  0
116226  1  0
117227  1  6
118228  1  0
118229  1  0
119230  1  0
120231  1  0
120232  1  0
120233  1  0
121234  1  0
121235  1  0
121236  1  0
124237  1  0
M  END
