
     RDKit          2D

422428  0  0  0  0  0  0  0  0999 V2000
   22.8614  -12.1450    0.0000 C   0  0  0  0  0  0  0  0  0  0  0  0
   23.7069  -13.3840    0.0000 N   0  0  0  0  0  0  0  0  0  0  0  0
   23.0567  -14.7358    0.0000 C   0  0  0  0  0  0  0  0  0  0  0  0
   21.5609  -14.8485    0.0000 C   0  0  0  0  0  0  0  0  0  0  0  0
   20.9107  -16.2002    0.0000 C   0  0  0  0  0  0  0  0  0  0  0  0
   21.7562  -17.4392    0.0000 C   0  0  0  0  0  0  0  0  0  0  0  0
   23.2519  -17.3265    0.0000 C   0  0  0  0  0  0  0  0  0  0  0  0
   23.9022  -15.9748    0.0000 C   0  0  0  0  0  0  0  0  0  0  0  0
   23.8213  -18.7142    0.0000 C   0  0  0  0  0  0  0  0  0  0  0  0
   22.6775  -19.6846    0.0000 O   0  0  0  0  0  0  0  0  0  0  0  0
   21.4012  -18.8966    0.0000 C   0  0  0  0  0  0  0  0  0  0  0  0
   20.0134  -19.4660    0.0000 O   0  0  0  0  0  0  0  0  0  0  0  0
   24.2426  -20.1539    0.0000 C   0  0  0  0  0  0  0  0  0  0  0  0
   25.7000  -20.5089    0.0000 C   0  0  0  0  0  0  0  0  0  0  0  0
   26.1212  -21.9485    0.0000 C   0  0  0  0  0  0  0  0  0  0  0  0
   25.0851  -23.0331    0.0000 C   0  0  0  0  0  0  0  0  0  0  0  0
   23.6277  -22.6781    0.0000 C   0  0  0  0  0  0  0  0  0  0  0  0
   23.2065  -21.2385    0.0000 C   0  0  0  0  0  0  0  0  0  0  0  0
   25.5063  -24.4728    0.0000 O   0  0  0  0  0  0  0  0  0  0  0  0
   26.7361  -19.4242    0.0000 O   0  0  0  0  0  0  0  0  0  0  0  0
   26.3149  -17.9846    0.0000 C   0  0  0  0  0  0  0  0  0  0  0  0
   24.8575  -17.6296    0.0000 C   0  0  0  0  0  0  0  0  0  0  0  0
   25.1164  -16.3556    0.0000 C   0  0  0  0  0  0  0  0  0  0  0  0
   25.6690  -15.7772    0.0000 C   0  0  0  0  0  0  0  0  0  0  0  0
   26.4462  -15.9665    0.0000 C   0  0  0  0  0  0  0  0  0  0  0  0
   26.6709  -16.7343    0.0000 C   0  0  0  0  0  0  0  0  0  0  0  0
   27.9659  -14.3757    0.0000 O   0  0  0  0  0  0  0  0  0  0  0  0
   21.3657  -12.2578    0.0000 S   0  0  0  0  0  0  0  0  0  0  0  0
   23.5117  -10.7933    0.0000 N   0  0  0  0  0  0  0  0  0  0  0  0
   22.6662   -9.5543    0.0000 C   0  0  0  0  0  0  0  0  0  0  0  0
   23.3164   -8.2026    0.0000 C   0  0  0  0  0  0  0  0  0  0  0  0
   22.4709   -6.9636    0.0000 C   0  0  0  0  0  0  0  0  0  0  0  0
   21.7142   -7.2141    0.0000 O   0  0  0  0  0  0  0  0  0  0  0  0
   23.1212   -5.6119    0.0000 N   0  0  0  0  0  0  0  0  0  0  0  0
   22.2757   -4.3729    0.0000 C   0  0  0  0  0  0  0  0  0  0  0  0
   21.2023   -5.4207    0.0000 C   0  0  0  0  0  0  0  0  0  0  0  0
   21.5731   -6.8741    0.0000 C   0  0  0  0  0  0  0  0  0  0  0  0
   20.4997   -7.9219    0.0000 C   0  0  0  0  0  0  0  0  0  0  0  0
   22.4186   -8.1131    0.0000 C   0  0  0  0  0  0  0  0  0  0  0  0
   21.9050   -2.9194    0.0000 C   0  0  0  0  0  0  0  0  0  0  0  0
   20.4114   -3.0583    0.0000 O   0  0  0  0  0  0  0  0  0  0  0  0
   22.9783   -1.8716    0.0000 N   0  0  0  0  0  0  0  0  0  0  0  0
   22.6076   -0.4181    0.0000 C   0  0  0  0  0  0  0  0  0  0  0  0
   21.4352   -1.3539    0.0000 C   0  0  0  0  0  0  0  0  0  0  0  0
   20.0391   -1.9025    0.0000 C   0  0  0  0  0  0  0  0  0  0  0  0
   18.5434   -2.0152    0.0000 C   0  0  0  0  0  0  0  0  0  0  0  0
   17.0808   -1.6820    0.0000 C   0  0  0  0  0  0  0  0  0  0  0  0
   24.0849   -0.6780    0.0000 C   0  0  0  0  0  0  0  0  0  0  0  0
   23.4520    0.8216    0.0000 C   0  0  0  0  0  0  0  0  0  0  0  0
   24.8037    0.1713    0.0000 O   0  0  0  0  0  0  0  0  0  0  0  0
   23.8936    2.2551    0.0000 N   0  0  0  0  0  0  0  0  0  0  0  0
   23.8929    3.7551    0.0000 C   0  0  0  0  0  0  0  0  0  0  0  0
   25.0172    4.7481    0.0000 C   0  0  0  0  0  0  0  0  0  0  0  0
   26.3705    4.1012    0.0000 C   0  0  0  0  0  0  0  0  0  0  0  0
   25.7340    6.0658    0.0000 C   0  0  0  0  0  0  0  0  0  0  0  0
   27.2335    6.1038    0.0000 C   0  0  0  0  0  0  0  0  0  0  0  0
   23.4502    5.1883    0.0000 C   0  0  0  0  0  0  0  0  0  0  0  0
   24.7119    5.9995    0.0000 O   0  0  0  0  0  0  0  0  0  0  0  0
   22.6047    6.4273    0.0000 N   0  0  0  0  0  0  0  0  0  0  0  0
   21.4315    7.3621    0.0000 C   0  0  0  0  0  0  0  0  0  0  0  0
   21.3561    8.8602    0.0000 C   0  0  0  0  0  0  0  0  0  0  0  0
   22.6158    9.6745    0.0000 C   0  0  0  0  0  0  0  0  0  0  0  0
   22.5404   11.1726    0.0000 C   0  0  0  0  0  0  0  0  0  0  0  0
   24.0781   10.0089    0.0000 C   0  0  0  0  0  0  0  0  0  0  0  0
   20.0350    7.9095    0.0000 C   0  0  0  0  0  0  0  0  0  0  0  0
   20.3682    9.3720    0.0000 O   0  0  0  0  0  0  0  0  0  0  0  0
   18.5391    8.0209    0.0000 N   0  0  0  0  0  0  0  0  0  0  0  0
   17.0769    7.6865    0.0000 C   0  0  0  0  0  0  0  0  0  0  0  0
   15.8586    8.5616    0.0000 C   0  0  0  0  0  0  0  0  0  0  0  0
   16.0073   10.0543    0.0000 C   0  0  0  0  0  0  0  0  0  0  0  0
   14.7891   10.9294    0.0000 C   0  0  0  0  0  0  0  0  0  0  0  0
   14.9378   12.4220    0.0000 N   0  0  0  0  0  0  0  0  0  0  0  0
   13.2916   10.8429    0.0000 O   0  0  0  0  0  0  0  0  0  0  0  0
   15.7782    6.9360    0.0000 C   0  0  0  0  0  0  0  0  0  0  0  0
   15.1539    8.2999    0.0000 O   0  0  0  0  0  0  0  0  0  0  0  0
   14.7584    5.8360    0.0000 N   0  0  0  0  0  0  0  0  0  0  0  0
   14.1081    4.4843    0.0000 C   0  0  0  0  0  0  0  0  0  0  0  0
   13.8852    3.0009    0.0000 C   0  0  0  0  0  0  0  0  0  0  0  0
   14.1094    1.5178    0.0000 C   0  0  0  0  0  0  0  0  0  0  0  0
   14.7608    0.1666    0.0000 C   0  0  0  0  0  0  0  0  0  0  0  0
   15.7815   -0.9326    0.0000 C   0  0  0  0  0  0  0  0  0  0  0  0
   13.4579    3.1325    0.0000 C   0  0  0  0  0  0  0  0  0  0  0  0
   12.4381    2.0325    0.0000 C   0  0  0  0  0  0  0  0  0  0  0  0
   11.1393    1.2820    0.0000 C   0  0  0  0  0  0  0  0  0  0  0  0
    9.6771    0.9476    0.0000 C   0  0  0  0  0  0  0  0  0  0  0  0
   14.3311    5.9676    0.0000 C   0  0  0  0  0  0  0  0  0  0  0  0
   15.8311    5.9682    0.0000 O   0  0  0  0  0  0  0  0  0  0  0  0
   14.1069    7.4508    0.0000 N   0  0  0  0  0  0  0  0  0  0  0  0
   13.4555    8.8019    0.0000 C   0  0  0  0  0  0  0  0  0  0  0  0
   13.8647   10.2450    0.0000 C   0  0  0  0  0  0  0  0  0  0  0  0
   12.4348    9.9011    0.0000 C   0  0  0  0  0  0  0  0  0  0  0  0
   13.2195   11.1794    0.0000 O   0  0  0  0  0  0  0  0  0  0  0  0
   11.1354   10.6505    0.0000 N   0  0  0  0  0  0  0  0  0  0  0  0
    9.6729   10.9837    0.0000 C   0  0  0  0  0  0  0  0  0  0  0  0
    8.9549   12.3007    0.0000 C   0  0  0  0  0  0  0  0  0  0  0  0
    9.7365   13.5810    0.0000 C   0  0  0  0  0  0  0  0  0  0  0  0
    8.1771   10.8710    0.0000 C   0  0  0  0  0  0  0  0  0  0  0  0
    7.8427   12.3332    0.0000 O   0  0  0  0  0  0  0  0  0  0  0  0
    6.7810   10.3224    0.0000 N   0  0  0  0  0  0  0  0  0  0  0  0
    5.6087    9.3866    0.0000 C   0  0  0  0  0  0  0  0  0  0  0  0
    4.1314    9.6465    0.0000 C   0  0  0  0  0  0  0  0  0  0  0  0
    3.6177   11.0558    0.0000 C   0  0  0  0  0  0  0  0  0  0  0  0
    2.1404   11.3157    0.0000 C   0  0  0  0  0  0  0  0  0  0  0  0
    1.6268   12.7250    0.0000 N   0  0  0  0  0  0  0  0  0  0  0  0
    1.1767   10.1662    0.0000 O   0  0  0  0  0  0  0  0  0  0  0  0
    4.7642    8.1469    0.0000 C   0  0  0  0  0  0  0  0  0  0  0  0
    3.4125    8.7972    0.0000 O   0  0  0  0  0  0  0  0  0  0  0  0
    4.3227    6.7134    0.0000 N   0  0  0  0  0  0  0  0  0  0  0  0
    4.3233    5.2134    0.0000 C   0  0  0  0  0  0  0  0  0  0  0  0
    4.7661    3.7802    0.0000 C   0  0  0  0  0  0  0  0  0  0  0  0
    5.6116    2.5412    0.0000 C   0  0  0  0  0  0  0  0  0  0  0  0
    6.7847    1.6065    0.0000 C   0  0  0  0  0  0  0  0  0  0  0  0
    8.1812    1.0590    0.0000 C   0  0  0  0  0  0  0  0  0  0  0  0
    2.9558    5.8297    0.0000 C   0  0  0  0  0  0  0  0  0  0  0  0
    3.1991    4.2204    0.0000 C   0  0  0  0  0  0  0  0  0  0  0  0
    3.1323    2.7219    0.0000 O   0  0  0  0  0  0  0  0  0  0  0  0
    1.7770    4.6975    0.0000 N   0  0  0  0  0  0  0  0  0  0  0  0
    0.6527    3.7045    0.0000 C   0  0  0  0  0  0  0  0  0  0  0  0
   -0.0641    2.3869    0.0000 C   0  0  0  0  0  0  0  0  0  0  0  0
   -1.5478    2.1664    0.0000 C   0  0  0  0  0  0  0  0  0  0  0  0
   -0.2870    0.9035    0.0000 C   0  0  0  0  0  0  0  0  0  0  0  0
    0.8861   -0.0312    0.0000 C   0  0  0  0  0  0  0  0  0  0  0  0
   -0.7694    4.1816    0.0000 C   0  0  0  0  0  0  0  0  0  0  0  0
   -1.0672    5.6518    0.0000 O   0  0  0  0  0  0  0  0  0  0  0  0
   -1.8936    3.1886    0.0000 N   0  0  0  0  0  0  0  0  0  0  0  0
   -3.3157    3.6658    0.0000 C   0  0  0  0  0  0  0  0  0  0  0  0
   -4.4889    4.6005    0.0000 C   0  0  0  0  0  0  0  0  0  0  0  0
   -4.2659    6.0839    0.0000 C   0  0  0  0  0  0  0  0  0  0  0  0
   -5.4391    7.0186    0.0000 C   0  0  0  0  0  0  0  0  0  0  0  0
   -3.5491    7.4015    0.0000 C   0  0  0  0  0  0  0  0  0  0  0  0
   -4.4400    2.6728    0.0000 C   0  0  0  0  0  0  0  0  0  0  0  0
   -4.1421    1.2026    0.0000 O   0  0  0  0  0  0  0  0  0  0  0  0
   -5.8621    3.1499    0.0000 N   0  0  0  0  0  0  0  0  0  0  0  0
   -6.9863    2.1569    0.0000 C   0  0  0  0  0  0  0  0  0  0  0  0
   -8.4084    2.6340    0.0000 C   0  0  0  0  0  0  0  0  0  0  0  0
   -8.7062    4.1042    0.0000 O   0  0  0  0  0  0  0  0  0  0  0  0
   -9.5327    1.6410    0.0000 N   0  0  0  0  0  0  0  0  0  0  0  0
  -10.9548    2.1182    0.0000 C   0  0  0  0  0  0  0  0  0  0  0  0
  -12.1279    3.0529    0.0000 C   0  0  0  0  0  0  0  0  0  0  0  0
  -11.9050    4.5362    0.0000 C   0  0  0  0  0  0  0  0  0  0  0  0
  -13.0781    5.4710    0.0000 C   0  0  0  0  0  0  0  0  0  0  0  0
  -11.1881    5.8539    0.0000 C   0  0  0  0  0  0  0  0  0  0  0  0
  -12.0790    1.1252    0.0000 C   0  0  0  0  0  0  0  0  0  0  0  0
  -11.7812   -0.3450    0.0000 O   0  0  0  0  0  0  0  0  0  0  0  0
  -13.5011    1.6023    0.0000 N   0  0  0  0  0  0  0  0  0  0  0  0
  -14.6254    0.6093    0.0000 C   0  0  0  0  0  0  0  0  0  0  0  0
  -15.3422   -0.7083    0.0000 C   0  0  0  0  0  0  0  0  0  0  0  0
  -16.8417   -0.7464    0.0000 C   0  0  0  0  0  0  0  0  0  0  0  0
  -17.5585   -2.0640    0.0000 C   0  0  0  0  0  0  0  0  0  0  0  0
  -19.0422   -2.2845    0.0000 O   0  0  0  0  0  0  0  0  0  0  0  0
  -16.7758   -3.3436    0.0000 O   0  0  0  0  0  0  0  0  0  0  0  0
  -16.0474    1.0864    0.0000 C   0  0  0  0  0  0  0  0  0  0  0  0
  -16.3453    2.5566    0.0000 O   0  0  0  0  0  0  0  0  0  0  0  0
  -17.1717    0.0934    0.0000 N   0  0  0  0  0  0  0  0  0  0  0  0
  -18.5938    0.5706    0.0000 C   0  0  0  0  0  0  0  0  0  0  0  0
  -19.7669    1.5053    0.0000 C   0  0  0  0  0  0  0  0  0  0  0  0
  -19.5440    2.9886    0.0000 C   0  0  0  0  0  0  0  0  0  0  0  0
  -20.7171    3.9234    0.0000 C   0  0  0  0  0  0  0  0  0  0  0  0
  -20.4942    5.4067    0.0000 N   0  0  0  0  0  0  0  0  0  0  0  0
  -22.1132    3.3748    0.0000 O   0  0  0  0  0  0  0  0  0  0  0  0
  -19.7180   -0.4225    0.0000 C   0  0  0  0  0  0  0  0  0  0  0  0
  -19.6016   -1.9179    0.0000 O   0  0  0  0  0  0  0  0  0  0  0  0
  -21.1401    0.0547    0.0000 N   0  0  0  0  0  0  0  0  0  0  0  0
  -22.2644   -0.9383    0.0000 C   0  0  0  0  0  0  0  0  0  0  0  0
  -22.9812   -2.2560    0.0000 C   0  0  0  0  0  0  0  0  0  0  0  0
  -24.4807   -2.2940    0.0000 C   0  0  0  0  0  0  0  0  0  0  0  0
  -25.1976   -3.6116    0.0000 C   0  0  0  0  0  0  0  0  0  0  0  0
  -26.6813   -3.8321    0.0000 N   0  0  0  0  0  0  0  0  0  0  0  0
  -24.4149   -4.8912    0.0000 O   0  0  0  0  0  0  0  0  0  0  0  0
  -23.6865   -0.4612    0.0000 C   0  0  0  0  0  0  0  0  0  0  0  0
  -23.9843    1.0089    0.0000 O   0  0  0  0  0  0  0  0  0  0  0  0
  -24.8107   -1.4542    0.0000 N   0  0  0  0  0  0  0  0  0  0  0  0
  -26.2328   -0.9771    0.0000 C   0  0  0  0  0  0  0  0  0  0  0  0
  -27.4060   -0.0423    0.0000 C   0  0  0  0  0  0  0  0  0  0  0  0
  -27.1830    1.4410    0.0000 C   0  0  0  0  0  0  0  0  0  0  0  0
  -27.3571   -1.9701    0.0000 C   0  0  0  0  0  0  0  0  0  0  0  0
  -27.2407   -3.4655    0.0000 O   0  0  0  0  0  0  0  0  0  0  0  0
  -28.7792   -1.4929    0.0000 N   0  0  0  0  0  0  0  0  0  0  0  0
  -29.9034   -2.4859    0.0000 C   0  0  0  0  0  0  0  0  0  0  0  0
  -30.6203   -3.8036    0.0000 C   0  0  0  0  0  0  0  0  0  0  0  0
  -32.1198   -3.8416    0.0000 C   0  0  0  0  0  0  0  0  0  0  0  0
  -32.8366   -5.1592    0.0000 C   0  0  0  0  0  0  0  0  0  0  0  0
  -34.3361   -5.1973    0.0000 N   0  0  0  0  0  0  0  0  0  0  0  0
  -35.0529   -6.5149    0.0000 C   0  0  0  0  0  0  0  0  0  0  0  0
  -36.5459   -6.3698    0.0000 N   0  0  0  0  0  0  0  0  0  0  0  0
  -34.2703   -7.7945    0.0000 N   0  0  0  0  0  0  0  0  0  0  0  0
  -31.3255   -2.0088    0.0000 C   0  0  0  0  0  0  0  0  0  0  0  0
  -31.6234   -0.5387    0.0000 O   0  0  0  0  0  0  0  0  0  0  0  0
  -32.4498   -3.0018    0.0000 N   0  0  0  0  0  0  0  0  0  0  0  0
  -33.8719   -2.5247    0.0000 C   0  0  0  0  0  0  0  0  0  0  0  0
  -35.0450   -1.5899    0.0000 C   0  0  0  0  0  0  0  0  0  0  0  0
  -34.8221   -0.1066    0.0000 C   0  0  0  0  0  0  0  0  0  0  0  0
  -35.9952    0.8281    0.0000 C   0  0  0  0  0  0  0  0  0  0  0  0
  -35.7723    2.3115    0.0000 O   0  0  0  0  0  0  0  0  0  0  0  0
  -37.3913    0.2795    0.0000 O   0  0  0  0  0  0  0  0  0  0  0  0
  -34.9961   -3.5177    0.0000 C   0  0  0  0  0  0  0  0  0  0  0  0
  -35.0629   -5.0162    0.0000 O   0  0  0  0  0  0  0  0  0  0  0  0
  -36.4182   -3.0405    0.0000 N   0  0  0  0  0  0  0  0  0  0  0  0
  -37.5425   -4.0335    0.0000 C   0  0  0  0  0  0  0  0  0  0  0  0
  -38.2593   -5.3512    0.0000 C   0  0  0  0  0  0  0  0  0  0  0  0
  -39.7588   -5.3892    0.0000 C   0  0  0  0  0  0  0  0  0  0  0  0
  -40.4756   -6.7068    0.0000 C   0  0  0  0  0  0  0  0  0  0  0  0
  -41.9752   -6.7449    0.0000 N   0  0  0  0  0  0  0  0  0  0  0  0
  -42.6920   -8.0625    0.0000 C   0  0  0  0  0  0  0  0  0  0  0  0
  -44.1915   -8.1005    0.0000 N   0  0  0  0  0  0  0  0  0  0  0  0
  -41.9093   -9.3421    0.0000 N   0  0  0  0  0  0  0  0  0  0  0  0
  -38.9646   -3.5564    0.0000 C   0  0  0  0  0  0  0  0  0  0  0  0
  -40.2015   -4.4050    0.0000 O   0  0  0  0  0  0  0  0  0  0  0  0
  -39.2624   -2.0863    0.0000 O   0  0  0  0  0  0  0  0  0  0  0  0
   25.1778  -13.0898    0.0000 H   0  0  0  0  0  0  0  0  0  0  0  0
   20.7154  -13.6095    0.0000 H   0  0  0  0  0  0  0  0  0  0  0  0
   19.4149  -16.3129    0.0000 H   0  0  0  0  0  0  0  0  0  0  0  0
   25.3262  -15.5035    0.0000 H   0  0  0  0  0  0  0  0  0  0  0  0
   27.5786  -22.3035    0.0000 H   0  0  0  0  0  0  0  0  0  0  0  0
   22.5916  -23.7627    0.0000 H   0  0  0  0  0  0  0  0  0  0  0  0
   21.7491  -20.8835    0.0000 H   0  0  0  0  0  0  0  0  0  0  0  0
   24.4702  -25.5574    0.0000 H   0  0  0  0  0  0  0  0  0  0  0  0
   22.9789  -15.8349    0.0000 H   0  0  0  0  0  0  0  0  0  0  0  0
   25.2298  -13.6251    0.0000 H   0  0  0  0  0  0  0  0  0  0  0  0
   28.8084  -17.2550    0.0000 H   0  0  0  0  0  0  0  0  0  0  0  0
   29.4233  -14.7307    0.0000 H   0  0  0  0  0  0  0  0  0  0  0  0
   25.0075  -10.6806    0.0000 H   0  0  0  0  0  0  0  0  0  0  0  0
   21.5928  -10.6021    0.0000 H   0  0  0  0  0  0  0  0  0  0  0  0
   21.2724   -9.0000    0.0000 H   0  0  0  0  0  0  0  0  0  0  0  0
   24.6323   -8.9227    0.0000 H   0  0  0  0  0  0  0  0  0  0  0  0
   24.5095   -7.2934    0.0000 H   0  0  0  0  0  0  0  0  0  0  0  0
   24.6170   -5.4991    0.0000 H   0  0  0  0  0  0  0  0  0  0  0  0
   23.6427   -3.7553    0.0000 H   0  0  0  0  0  0  0  0  0  0  0  0
   19.7703   -5.8669    0.0000 H   0  0  0  0  0  0  0  0  0  0  0  0
   20.3568   -4.1817    0.0000 H   0  0  0  0  0  0  0  0  0  0  0  0
   23.0489   -6.6057    0.0000 H   0  0  0  0  0  0  0  0  0  0  0  0
   20.5078   -9.4219    0.0000 H   0  0  0  0  0  0  0  0  0  0  0  0
   19.1327   -8.5394    0.0000 H   0  0  0  0  0  0  0  0  0  0  0  0
   19.5095   -6.7952    0.0000 H   0  0  0  0  0  0  0  0  0  0  0  0
   21.7683   -9.4648    0.0000 H   0  0  0  0  0  0  0  0  0  0  0  0
   23.5211   -9.1302    0.0000 H   0  0  0  0  0  0  0  0  0  0  0  0
   23.3562   -6.9423    0.0000 H   0  0  0  0  0  0  0  0  0  0  0  0
   24.3622   -2.4502    0.0000 H   0  0  0  0  0  0  0  0  0  0  0  0
   22.5652   -2.3403    0.0000 H   0  0  0  0  0  0  0  0  0  0  0  0
   21.1790   -2.8318    0.0000 H   0  0  0  0  0  0  0  0  0  0  0  0
   20.4960   -3.3312    0.0000 H   0  0  0  0  0  0  0  0  0  0  0  0
   19.7024   -3.3642    0.0000 H   0  0  0  0  0  0  0  0  0  0  0  0
   19.0954   -3.4099    0.0000 H   0  0  0  0  0  0  0  0  0  0  0  0
   17.6382   -3.2113    0.0000 H   0  0  0  0  0  0  0  0  0  0  0  0
   16.5334   -3.0786    0.0000 H   0  0  0  0  0  0  0  0  0  0  0  0
   24.7665   -2.0142    0.0000 H   0  0  0  0  0  0  0  0  0  0  0  0
   25.5620   -0.4169    0.0000 H   0  0  0  0  0  0  0  0  0  0  0  0
   24.4472    0.7776    0.0000 H   0  0  0  0  0  0  0  0  0  0  0  0
   25.3769    2.0322    0.0000 H   0  0  0  0  0  0  0  0  0  0  0  0
   25.1751    2.9767    0.0000 H   0  0  0  0  0  0  0  0  0  0  0  0
   24.1051    5.9390    0.0000 H   0  0  0  0  0  0  0  0  0  0  0  0
   27.6964    5.1099    0.0000 H   0  0  0  0  0  0  0  0  0  0  0  0
   27.6124    3.3363    0.0000 H   0  0  0  0  0  0  0  0  0  0  0  0
   25.8884    2.8758    0.0000 H   0  0  0  0  0  0  0  0  0  0  0  0
   25.9569    7.5491    0.0000 H   0  0  0  0  0  0  0  0  0  0  0  0
   24.3807    6.7127    0.0000 H   0  0  0  0  0  0  0  0  0  0  0  0
   27.9503    7.4214    0.0000 H   0  0  0  0  0  0  0  0  0  0  0  0
   28.6556    5.6267    0.0000 H   0  0  0  0  0  0  0  0  0  0  0  0
   27.3761    4.6106    0.0000 H   0  0  0  0  0  0  0  0  0  0  0  0
   23.7038    7.4480    0.0000 H   0  0  0  0  0  0  0  0  0  0  0  0
   22.8396    7.8791    0.0000 H   0  0  0  0  0  0  0  0  0  0  0  0
   20.6088   10.1607    0.0000 H   0  0  0  0  0  0  0  0  0  0  0  0
   19.8564    8.8895    0.0000 H   0  0  0  0  0  0  0  0  0  0  0  0
   23.3632    8.3739    0.0000 H   0  0  0  0  0  0  0  0  0  0  0  0
   23.6915   12.1344    0.0000 H   0  0  0  0  0  0  0  0  0  0  0  0
   21.9572   12.5546    0.0000 H   0  0  0  0  0  0  0  0  0  0  0  0
   21.0483   11.0189    0.0000 H   0  0  0  0  0  0  0  0  0  0  0  0
   24.6911   11.3779    0.0000 H   0  0  0  0  0  0  0  0  0  0  0  0
   25.5665    9.8230    0.0000 H   0  0  0  0  0  0  0  0  0  0  0  0
   24.1535    8.5108    0.0000 H   0  0  0  0  0  0  0  0  0  0  0  0
   18.4264    9.5167    0.0000 H   0  0  0  0  0  0  0  0  0  0  0  0
   17.5505    9.1098    0.0000 H   0  0  0  0  0  0  0  0  0  0  0  0
   14.4747    9.1403    0.0000 H   0  0  0  0  0  0  0  0  0  0  0  0
   14.7671    7.5328    0.0000 H   0  0  0  0  0  0  0  0  0  0  0  0
   16.6576   11.4060    0.0000 H   0  0  0  0  0  0  0  0  0  0  0  0
   17.4901    9.8277    0.0000 H   0  0  0  0  0  0  0  0  0  0  0  0
   13.7195   13.2971    0.0000 H   0  0  0  0  0  0  0  0  0  0  0  0
   16.3048   13.0395    0.0000 H   0  0  0  0  0  0  0  0  0  0  0  0
   13.5187    6.6804    0.0000 H   0  0  0  0  0  0  0  0  0  0  0  0
   12.7341    2.0391    0.0000 H   0  0  0  0  0  0  0  0  0  0  0  0
   12.6248    3.8142    0.0000 H   0  0  0  0  0  0  0  0  0  0  0  0
   13.2930    0.2594    0.0000 H   0  0  0  0  0  0  0  0  0  0  0  0
   12.6158    1.3788    0.0000 H   0  0  0  0  0  0  0  0  0  0  0  0
   14.1787   -1.2159    0.0000 H   0  0  0  0  0  0  0  0  0  0  0  0
   13.3150   -0.2332    0.0000 H   0  0  0  0  0  0  0  0  0  0  0  0
   14.8467   -2.1057    0.0000 H   0  0  0  0  0  0  0  0  0  0  0  0
   14.9574    3.0958    0.0000 H   0  0  0  0  0  0  0  0  0  0  0  0
   13.8683    1.6898    0.0000 H   0  0  0  0  0  0  0  0  0  0  0  0
   13.5946    1.0774    0.0000 H   0  0  0  0  0  0  0  0  0  0  0  0
   12.4050    0.5329    0.0000 H   0  0  0  0  0  0  0  0  0  0  0  0
   12.1097    0.1381    0.0000 H   0  0  0  0  0  0  0  0  0  0  0  0
   10.8427   -0.1884    0.0000 H   0  0  0  0  0  0  0  0  0  0  0  0
    9.7898   -0.5482    0.0000 H   0  0  0  0  0  0  0  0  0  0  0  0
   15.1643    8.5146    0.0000 H   0  0  0  0  0  0  0  0  0  0  0  0
   14.9012    9.2017    0.0000 H   0  0  0  0  0  0  0  0  0  0  0  0
   15.4459   10.7697    0.0000 H   0  0  0  0  0  0  0  0  0  0  0  0
   14.1117   11.6826    0.0000 H   0  0  0  0  0  0  0  0  0  0  0  0
   12.6179   10.6727    0.0000 H   0  0  0  0  0  0  0  0  0  0  0  0
   11.6828   12.0471    0.0000 H   0  0  0  0  0  0  0  0  0  0  0  0
   10.7171   12.0605    0.0000 H   0  0  0  0  0  0  0  0  0  0  0  0
    7.8298   13.2928    0.0000 H   0  0  0  0  0  0  0  0  0  0  0  0
    7.5910   11.6765    0.0000 H   0  0  0  0  0  0  0  0  0  0  0  0
    9.0186   14.8980    0.0000 H   0  0  0  0  0  0  0  0  0  0  0  0
   10.9089   14.5167    0.0000 H   0  0  0  0  0  0  0  0  0  0  0  0
   10.9742   12.7335    0.0000 H   0  0  0  0  0  0  0  0  0  0  0  0
    6.0305   11.6211    0.0000 H   0  0  0  0  0  0  0  0  0  0  0  0
    5.4179   10.8745    0.0000 H   0  0  0  0  0  0  0  0  0  0  0  0
    2.6543    9.3854    0.0000 H   0  0  0  0  0  0  0  0  0  0  0  0
    3.7690    8.1909    0.0000 H   0  0  0  0  0  0  0  0  0  0  0  0
    3.6171   12.5558    0.0000 H   0  0  0  0  0  0  0  0  0  0  0  0
    5.0520   11.4950    0.0000 H   0  0  0  0  0  0  0  0  0  0  0  0
    0.1495   12.9848    0.0000 H   0  0  0  0  0  0  0  0  0  0  0  0
    2.5905   13.8745    0.0000 H   0  0  0  0  0  0  0  0  0  0  0  0
    2.8394    6.9363    0.0000 H   0  0  0  0  0  0  0  0  0  0  0  0
    3.9844    2.5000    0.0000 H   0  0  0  0  0  0  0  0  0  0  0  0
    3.2769    3.6004    0.0000 H   0  0  0  0  0  0  0  0  0  0  0  0
    5.0676    1.1433    0.0000 H   0  0  0  0  0  0  0  0  0  0  0  0
    4.2415    1.9305    0.0000 H   0  0  0  0  0  0  0  0  0  0  0  0
    6.8601    0.1084    0.0000 H   0  0  0  0  0  0  0  0  0  0  0  0
    5.5436    0.7640    0.0000 H   0  0  0  0  0  0  0  0  0  0  0  0
    7.8481   -0.4035    0.0000 H   0  0  0  0  0  0  0  0  0  0  0  0
    1.5624    5.2743    0.0000 H   0  0  0  0  0  0  0  0  0  0  0  0
    2.0172    6.9998    0.0000 H   0  0  0  0  0  0  0  0  0  0  0  0
    3.4752    7.2370    0.0000 H   0  0  0  0  0  0  0  0  0  0  0  0
    1.3022    6.1204    0.0000 H   0  0  0  0  0  0  0  0  0  0  0  0
    1.8259    2.7698    0.0000 H   0  0  0  0  0  0  0  0  0  0  0  0
    1.4055    2.0867    0.0000 H   0  0  0  0  0  0  0  0  0  0  0  0
   -2.4357    1.1284    0.0000 H   0  0  0  0  0  0  0  0  0  0  0  0
   -2.9857    2.8260    0.0000 H   0  0  0  0  0  0  0  0  0  0  0  0
   -2.0633    3.7632    0.0000 H   0  0  0  0  0  0  0  0  0  0  0  0
   -1.0039   -0.4141    0.0000 H   0  0  0  0  0  0  0  0  0  0  0  0
   -1.7823    1.0224    0.0000 H   0  0  0  0  0  0  0  0  0  0  0  0
    0.6632   -1.5145    0.0000 H   0  0  0  0  0  0  0  0  0  0  0  0
    2.3082   -0.5083    0.0000 H   0  0  0  0  0  0  0  0  0  0  0  0
    1.7582    1.1892    0.0000 H   0  0  0  0  0  0  0  0  0  0  0  0
   -1.9604    1.6901    0.0000 H   0  0  0  0  0  0  0  0  0  0  0  0
   -2.4436    4.8862    0.0000 H   0  0  0  0  0  0  0  0  0  0  0  0
   -5.9109    5.0776    0.0000 H   0  0  0  0  0  0  0  0  0  0  0  0
   -5.5032    3.4955    0.0000 H   0  0  0  0  0  0  0  0  0  0  0  0
   -2.7963    5.7836    0.0000 H   0  0  0  0  0  0  0  0  0  0  0  0
   -5.3986    8.5181    0.0000 H   0  0  0  0  0  0  0  0  0  0  0  0
   -6.8611    7.4957    0.0000 H   0  0  0  0  0  0  0  0  0  0  0  0
   -6.3112    5.7982    0.0000 H   0  0  0  0  0  0  0  0  0  0  0  0
   -4.1700    8.7670    0.0000 H   0  0  0  0  0  0  0  0  0  0  0  0
   -2.4248    8.3945    0.0000 H   0  0  0  0  0  0  0  0  0  0  0  0
   -2.3759    6.4668    0.0000 H   0  0  0  0  0  0  0  0  0  0  0  0
   -6.3369    4.5728    0.0000 H   0  0  0  0  0  0  0  0  0  0  0  0
   -7.7031    0.8393    0.0000 H   0  0  0  0  0  0  0  0  0  0  0  0
   -5.8132    1.2222    0.0000 H   0  0  0  0  0  0  0  0  0  0  0  0
   -9.2348    0.1709    0.0000 H   0  0  0  0  0  0  0  0  0  0  0  0
  -10.0827    3.3386    0.0000 H   0  0  0  0  0  0  0  0  0  0  0  0
  -13.5500    3.5300    0.0000 H   0  0  0  0  0  0  0  0  0  0  0  0
  -13.1423    1.9479    0.0000 H   0  0  0  0  0  0  0  0  0  0  0  0
  -10.4353    4.2360    0.0000 H   0  0  0  0  0  0  0  0  0  0  0  0
  -13.0376    6.9704    0.0000 H   0  0  0  0  0  0  0  0  0  0  0  0
  -14.5002    5.9481    0.0000 H   0  0  0  0  0  0  0  0  0  0  0  0
  -13.9502    4.2506    0.0000 H   0  0  0  0  0  0  0  0  0  0  0  0
  -11.8090    7.2194    0.0000 H   0  0  0  0  0  0  0  0  0  0  0  0
  -10.0639    6.8469    0.0000 H   0  0  0  0  0  0  0  0  0  0  0  0
  -10.0150    4.9191    0.0000 H   0  0  0  0  0  0  0  0  0  0  0  0
  -13.9759    3.0252    0.0000 H   0  0  0  0  0  0  0  0  0  0  0  0
  -13.4522   -0.3254    0.0000 H   0  0  0  0  0  0  0  0  0  0  0  0
  -15.5651   -2.1917    0.0000 H   0  0  0  0  0  0  0  0  0  0  0  0
  -13.9201   -1.1855    0.0000 H   0  0  0  0  0  0  0  0  0  0  0  0
  -18.2638   -0.2692    0.0000 H   0  0  0  0  0  0  0  0  0  0  0  0
  -17.3414    0.6680    0.0000 H   0  0  0  0  0  0  0  0  0  0  0  0
  -17.4927   -4.6612    0.0000 H   0  0  0  0  0  0  0  0  0  0  0  0
  -17.2384   -1.4051    0.0000 H   0  0  0  0  0  0  0  0  0  0  0  0
  -17.7217    1.7910    0.0000 H   0  0  0  0  0  0  0  0  0  0  0  0
  -21.1203    2.1522    0.0000 H   0  0  0  0  0  0  0  0  0  0  0  0
  -20.7813    0.4003    0.0000 H   0  0  0  0  0  0  0  0  0  0  0  0
  -18.8272    4.3063    0.0000 H   0  0  0  0  0  0  0  0  0  0  0  0
  -18.0743    2.6884    0.0000 H   0  0  0  0  0  0  0  0  0  0  0  0
  -21.6673    6.3415    0.0000 H   0  0  0  0  0  0  0  0  0  0  0  0
  -19.0981    5.9553    0.0000 H   0  0  0  0  0  0  0  0  0  0  0  0
  -21.6150    1.4775    0.0000 H   0  0  0  0  0  0  0  0  0  0  0  0
  -21.0912   -1.8731    0.0000 H   0  0  0  0  0  0  0  0  0  0  0  0
  -23.2042   -3.7393    0.0000 H   0  0  0  0  0  0  0  0  0  0  0  0
  -21.5591   -2.7331    0.0000 H   0  0  0  0  0  0  0  0  0  0  0  0
  -25.9028   -1.8169    0.0000 H   0  0  0  0  0  0  0  0  0  0  0  0
  -24.9804   -0.8797    0.0000 H   0  0  0  0  0  0  0  0  0  0  0  0
  -27.4139   -4.9673    0.0000 H   0  0  0  0  0  0  0  0  0  0  0  0
  -27.8098   -2.6067    0.0000 H   0  0  0  0  0  0  0  0  0  0  0  0
  -24.8775   -2.9527    0.0000 H   0  0  0  0  0  0  0  0  0  0  0  0
  -25.3607    0.2434    0.0000 H   0  0  0  0  0  0  0  0  0  0  0  0
  -28.7593    0.6046    0.0000 H   0  0  0  0  0  0  0  0  0  0  0  0
  -28.4203   -1.1473    0.0000 H   0  0  0  0  0  0  0  0  0  0  0  0
  -28.3562    2.3758    0.0000 H   0  0  0  0  0  0  0  0  0  0  0  0
  -26.4662    2.7587    0.0000 H   0  0  0  0  0  0  0  0  0  0  0  0
  -25.7134    1.1408    0.0000 H   0  0  0  0  0  0  0  0  0  0  0  0
  -29.2540   -0.0701    0.0000 H   0  0  0  0  0  0  0  0  0  0  0  0
  -28.7303   -3.4207    0.0000 H   0  0  0  0  0  0  0  0  0  0  0  0
  -30.6607   -5.3030    0.0000 H   0  0  0  0  0  0  0  0  0  0  0  0
  -29.1982   -4.2807    0.0000 H   0  0  0  0  0  0  0  0  0  0  0  0
  -33.5419   -3.3645    0.0000 H   0  0  0  0  0  0  0  0  0  0  0  0
  -32.6195   -2.4273    0.0000 H   0  0  0  0  0  0  0  0  0  0  0  0
  -33.0595   -6.6426    0.0000 H   0  0  0  0  0  0  0  0  0  0  0  0
  -31.4833   -5.8062    0.0000 H   0  0  0  0  0  0  0  0  0  0  0  0
  -35.4052   -4.1451    0.0000 H   0  0  0  0  0  0  0  0  0  0  0  0
  -37.2693   -7.8706    0.0000 H   0  0  0  0  0  0  0  0  0  0  0  0
  -34.9871   -9.1121    0.0000 H   0  0  0  0  0  0  0  0  0  0  0  0
  -32.7707   -7.7565    0.0000 H   0  0  0  0  0  0  0  0  0  0  0  0
  -32.5165   -4.5003    0.0000 H   0  0  0  0  0  0  0  0  0  0  0  0
  -32.9998   -1.3042    0.0000 H   0  0  0  0  0  0  0  0  0  0  0  0
  -36.3983   -0.9430    0.0000 H   0  0  0  0  0  0  0  0  0  0  0  0
  -36.0594   -2.6950    0.0000 H   0  0  0  0  0  0  0  0  0  0  0  0
  -34.1052    1.2110    0.0000 H   0  0  0  0  0  0  0  0  0  0  0  0
  -33.3524   -0.4068    0.0000 H   0  0  0  0  0  0  0  0  0  0  0  0
  -38.5644    1.2143    0.0000 H   0  0  0  0  0  0  0  0  0  0  0  0
  -36.8930   -1.6177    0.0000 H   0  0  0  0  0  0  0  0  0  0  0  0
  -36.3693   -4.9683    0.0000 H   0  0  0  0  0  0  0  0  0  0  0  0
  -38.2998   -6.8506    0.0000 H   0  0  0  0  0  0  0  0  0  0  0  0
  -36.7896   -5.6514    0.0000 H   0  0  0  0  0  0  0  0  0  0  0  0
  -41.1809   -4.9121    0.0000 H   0  0  0  0  0  0  0  0  0  0  0  0
  -40.0824   -3.9245    0.0000 H   0  0  0  0  0  0  0  0  0  0  0  0
  -40.6986   -8.1902    0.0000 H   0  0  0  0  0  0  0  0  0  0  0  0
  -39.1223   -7.3538    0.0000 H   0  0  0  0  0  0  0  0  0  0  0  0
  -42.7578   -5.4653    0.0000 H   0  0  0  0  0  0  0  0  0  0  0  0
  -44.9083   -9.4182    0.0000 H   0  0  0  0  0  0  0  0  0  0  0  0
  -42.6261  -10.6597    0.0000 H   0  0  0  0  0  0  0  0  0  0  0  0
  -40.4098   -9.3041    0.0000 H   0  0  0  0  0  0  0  0  0  0  0  0
  -40.6845   -1.6091    0.0000 H   0  0  0  0  0  0  0  0  0  0  0  0
  1  2  1  0
  2  3  1  0
  3  4  2  0
  4  5  1  0
  5  6  2  0
  6  7  1  0
  7  8  2  0
  7  9  1  0
  9 10  1  0
 10 11  1  0
 11 12  2  0
  9 13  1  0
 13 14  1  0
 14 15  2  0
 15 16  1  0
 16 17  2  0
 17 18  1  0
 16 19  1  0
 14 20  1  0
 20 21  1  0
 21 22  2  0
 22 23  1  0
 23 24  2  0
 24 25  1  0
 25 26  2  0
 25 27  1  0
  1 28  2  0
  1 29  1  0
 29 30  1  0
 30 31  1  0
 31 32  1  0
 32 33  2  0
 32 34  1  0
 34 35  1  0
 35 36  1  0
 36 37  1  0
 37 38  1  0
 37 39  1  0
 35 40  1  0
 40 41  2  0
 40 42  1  0
 43 42  1  1
 43 44  1  0
 44 45  1  0
 45 46  1  0
 46 47  1  0
 43 48  1  0
 43 49  1  0
 49 50  2  0
 49 51  1  0
 51 52  1  0
 52 53  1  0
 53 54  1  0
 53 55  1  0
 55 56  1  0
 52 57  1  0
 57 58  2  0
 57 59  1  0
 59 60  1  0
 60 61  1  0
 61 62  1  0
 62 63  1  0
 62 64  1  0
 60 65  1  0
 65 66  2  0
 65 67  1  0
 67 68  1  0
 68 69  1  0
 69 70  1  0
 70 71  1  0
 71 72  1  0
 71 73  2  0
 68 74  1  0
 74 75  2  0
 74 76  1  0
 76 77  1  0
 77 78  1  0
 78 79  1  0
 79 80  1  0
 80 81  1  0
 77 82  1  0
 82 83  1  0
 83 84  1  0
 84 85  1  0
 77 86  1  0
 86 87  2  0
 86 88  1  0
 88 89  1  0
 89 90  1  0
 89 91  1  0
 91 92  2  0
 91 93  1  0
 93 94  1  0
 94 95  1  0
 95 96  1  0
 94 97  1  0
 97 98  2  0
 97 99  1  0
 99100  1  0
100101  1  0
101102  1  0
102103  1  0
103104  1  0
103105  2  0
100106  1  0
106107  2  0
106108  1  0
108109  1  0
109110  1  0
110111  1  0
111112  1  0
112113  1  0
109114  1  0
109115  1  6
115116  2  0
115117  1  0
117118  1  0
118119  1  0
119120  1  0
119121  1  0
121122  1  0
118123  1  0
123124  2  0
123125  1  0
125126  1  0
126127  1  0
127128  1  0
128129  1  0
128130  1  0
126131  1  0
131132  2  0
131133  1  0
133134  1  0
134135  1  0
135136  2  0
135137  1  0
137138  1  0
138139  1  0
139140  1  0
140141  1  0
140142  1  0
138143  1  0
143144  2  0
143145  1  0
145146  1  0
146147  1  0
147148  1  0
148149  1  0
149150  2  0
149151  1  0
146152  1  0
152153  2  0
152154  1  0
154155  1  0
155156  1  0
156157  1  0
157158  1  0
158159  1  0
158160  2  0
155161  1  0
161162  2  0
161163  1  0
163164  1  0
164165  1  0
165166  1  0
166167  1  0
167168  1  0
167169  2  0
164170  1  0
170171  2  0
170172  1  0
172173  1  0
173174  1  0
174175  1  0
173176  1  0
176177  2  0
176178  1  0
178179  1  0
179180  1  0
180181  1  0
181182  1  0
182183  1  0
183184  1  0
184185  2  3
184186  1  0
179187  1  0
187188  2  0
187189  1  0
189190  1  0
190191  1  0
191192  1  0
192193  1  0
193194  2  0
193195  1  0
190196  1  0
196197  2  0
196198  1  0
198199  1  0
199200  1  0
200201  1  0
201202  1  0
202203  1  0
203204  1  0
204205  2  3
204206  1  0
199207  1  0
207208  2  0
207209  1  0
  8  3  1  0
 11  6  1  0
 47 81  2  0
 18 13  2  0
 85113  2  0
 22  9  1  0
 26 21  1  0
  2210  1  0
  4211  1  0
  5212  1  0
  8213  1  0
 15214  1  0
 17215  1  0
 18216  1  0
 19217  1  0
 23218  1  0
 24219  1  0
 26220  1  0
 27221  1  0
 29222  1  0
 30223  1  0
 30224  1  0
 31225  1  0
 31226  1  0
 34227  1  0
 35228  1  1
 36229  1  0
 36230  1  0
 37231  1  0
 38232  1  0
 38233  1  0
 38234  1  0
 39235  1  0
 39236  1  0
 39237  1  0
 42238  1  0
 44239  1  0
 44240  1  0
 45241  1  0
 45242  1  0
 46243  1  0
 46244  1  0
 47245  1  0
 48246  1  0
 48247  1  0
 48248  1  0
 51249  1  0
 52250  1  6
 53251  1  1
 54252  1  0
 54253  1  0
 54254  1  0
 55255  1  0
 55256  1  0
 56257  1  0
 56258  1  0
 56259  1  0
 59260  1  0
 60261  1  6
 61262  1  0
 61263  1  0
 62264  1  0
 63265  1  0
 63266  1  0
 63267  1  0
 64268  1  0
 64269  1  0
 64270  1  0
 67271  1  0
 68272  1  6
 69273  1  0
 69274  1  0
 70275  1  0
 70276  1  0
 72277  1  0
 72278  1  0
 76279  1  0
 78280  1  0
 78281  1  0
 79282  1  0
 79283  1  0
 80284  1  0
 80285  1  0
 81286  1  0
 82287  1  0
 82288  1  0
 83289  1  0
 83290  1  0
 84291  1  0
 84292  1  0
 85293  1  0
 88294  1  0
 89295  1  6
 90296  1  0
 90297  1  0
 90298  1  0
 93299  1  0
 94300  1  6
 95301  1  0
 95302  1  0
 96303  1  0
 96304  1  0
 96305  1  0
 99306  1  0
100307  1  6
101308  1  0
101309  1  0
102310  1  0
102311  1  0
104312  1  0
104313  1  0
108314  1  0
110315  1  0
110316  1  0
111317  1  0
111318  1  0
112319  1  0
112320  1  0
113321  1  0
114322  1  0
114323  1  0
114324  1  0
117325  1  0
118326  1  1
119327  1  1
120328  1  0
120329  1  0
120330  1  0
121331  1  0
121332  1  0
122333  1  0
122334  1  0
122335  1  0
125336  1  0
126337  1  6
127338  1  0
127339  1  0
128340  1  0
129341  1  0
129342  1  0
129343  1  0
130344  1  0
130345  1  0
130346  1  0
133347  1  0
134348  1  0
134349  1  0
137350  1  0
138351  1  6
139352  1  0
139353  1  0
140354  1  0
141355  1  0
141356  1  0
141357  1  0
142358  1  0
142359  1  0
142360  1  0
145361  1  0
146362  1  1
147363  1  0
147364  1  0
148365  1  0
148366  1  0
151367  1  0
154368  1  0
155369  1  6
156370  1  0
156371  1  0
157372  1  0
157373  1  0
159374  1  0
159375  1  0
163376  1  0
164377  1  1
165378  1  0
165379  1  0
166380  1  0
166381  1  0
168382  1  0
168383  1  0
172384  1  0
173385  1  6
174386  1  0
174387  1  0
175388  1  0
175389  1  0
175390  1  0
178391  1  0
179392  1  1
180393  1  0
180394  1  0
181395  1  0
181396  1  0
182397  1  0
182398  1  0
183399  1  0
185400  1  0
186401  1  0
186402  1  0
189403  1  0
190404  1  6
191405  1  0
191406  1  0
192407  1  0
192408  1  0
195409  1  0
198410  1  0
199411  1  1
200412  1  0
200413  1  0
201414  1  0
201415  1  0
202416  1  0
202417  1  0
203418  1  0
205419  1  0
206420  1  0
206421  1  0
209422  1  0
M  END
