
     RDKit          2D

300302  0  0  0  0  0  0  0  0999 V2000
  -22.8521   -7.0624    0.0000 N   0  0  0  0  0  0  0  0  0  0  0  0
  -22.1006   -5.7642    0.0000 C   0  0  0  0  0  0  0  0  0  0  0  0
  -22.8491   -4.4644    0.0000 C   0  0  0  0  0  0  0  0  0  0  0  0
  -22.0977   -3.1662    0.0000 C   0  0  0  0  0  0  0  0  0  0  0  0
  -20.5977   -3.1679    0.0000 O   0  0  0  0  0  0  0  0  0  0  0  0
  -22.8462   -1.8663    0.0000 N   0  0  0  0  0  0  0  0  0  0  0  0
  -22.0947   -0.5681    0.0000 C   0  0  0  0  0  0  0  0  0  0  0  0
  -23.5037   -0.0535    0.0000 C   0  0  0  0  0  0  0  0  0  0  0  0
  -24.6538   -1.0163    0.0000 C   0  0  0  0  0  0  0  0  0  0  0  0
  -26.0628   -0.5017    0.0000 C   0  0  0  0  0  0  0  0  0  0  0  0
  -27.2129   -1.4646    0.0000 O   0  0  0  0  0  0  0  0  0  0  0  0
  -26.3216    0.9758    0.0000 O   0  0  0  0  0  0  0  0  0  0  0  0
  -20.9446    0.3948    0.0000 C   0  0  0  0  0  0  0  0  0  0  0  0
  -21.3815    1.8297    0.0000 O   0  0  0  0  0  0  0  0  0  0  0  0
  -19.5356   -0.1199    0.0000 N   0  0  0  0  0  0  0  0  0  0  0  0
  -18.3854    0.8430    0.0000 C   0  0  0  0  0  0  0  0  0  0  0  0
  -19.5334    1.8085    0.0000 C   0  0  0  0  0  0  0  0  0  0  0  0
  -19.2713    3.2854    0.0000 C   0  0  0  0  0  0  0  0  0  0  0  0
  -20.4192    4.2509    0.0000 C   0  0  0  0  0  0  0  0  0  0  0  0
  -20.1571    5.7278    0.0000 N   0  0  0  0  0  0  0  0  0  0  0  0
  -21.3050    6.6933    0.0000 C   0  0  0  0  0  0  0  0  0  0  0  0
  -21.0429    8.1702    0.0000 N   0  0  0  0  0  0  0  0  0  0  0  0
  -22.7152    6.1819    0.0000 N   0  0  0  0  0  0  0  0  0  0  0  0
  -16.9753    1.3545    0.0000 C   0  0  0  0  0  0  0  0  0  0  0  0
  -16.8951    2.8523    0.0000 O   0  0  0  0  0  0  0  0  0  0  0  0
  -15.8273    0.3890    0.0000 N   0  0  0  0  0  0  0  0  0  0  0  0
  -14.4172    0.9004    0.0000 C   0  0  0  0  0  0  0  0  0  0  0  0
  -15.1657    2.2003    0.0000 C   0  0  0  0  0  0  0  0  0  0  0  0
  -14.4143    3.4985    0.0000 C   0  0  0  0  0  0  0  0  0  0  0  0
  -15.1628    4.7984    0.0000 C   0  0  0  0  0  0  0  0  0  0  0  0
  -13.2641    4.4613    0.0000 C   0  0  0  0  0  0  0  0  0  0  0  0
  -12.9172    0.8987    0.0000 C   0  0  0  0  0  0  0  0  0  0  0  0
  -12.3296    2.2788    0.0000 O   0  0  0  0  0  0  0  0  0  0  0  0
  -12.1687   -0.4012    0.0000 N   0  0  0  0  0  0  0  0  0  0  0  0
  -10.6687   -0.4029    0.0000 C   0  0  0  0  0  0  0  0  0  0  0  0
  -10.9275    1.0746    0.0000 C   0  0  0  0  0  0  0  0  0  0  0  0
   -9.2597   -0.9175    0.0000 C   0  0  0  0  0  0  0  0  0  0  0  0
   -8.1096    0.0453    0.0000 O   0  0  0  0  0  0  0  0  0  0  0  0
   -9.0009   -2.3950    0.0000 N   0  0  0  0  0  0  0  0  0  0  0  0
   -7.5920   -2.9097    0.0000 C   0  0  0  0  0  0  0  0  0  0  0  0
   -8.3435   -4.2079    0.0000 C   0  0  0  0  0  0  0  0  0  0  0  0
   -9.8435   -4.2061    0.0000 C   0  0  0  0  0  0  0  0  0  0  0  0
  -10.5949   -5.5043    0.0000 C   0  0  0  0  0  0  0  0  0  0  0  0
  -12.0949   -5.5026    0.0000 N   0  0  0  0  0  0  0  0  0  0  0  0
  -12.8464   -6.8008    0.0000 C   0  0  0  0  0  0  0  0  0  0  0  0
  -14.3464   -6.7991    0.0000 N   0  0  0  0  0  0  0  0  0  0  0  0
  -12.0979   -8.1007    0.0000 N   0  0  0  0  0  0  0  0  0  0  0  0
   -6.0920   -2.9114    0.0000 C   0  0  0  0  0  0  0  0  0  0  0  0
   -5.3435   -4.2113    0.0000 O   0  0  0  0  0  0  0  0  0  0  0  0
   -5.3405   -1.6132    0.0000 N   0  0  0  0  0  0  0  0  0  0  0  0
   -3.8405   -1.6149    0.0000 C   0  0  0  0  0  0  0  0  0  0  0  0
   -4.0993   -0.1374    0.0000 C   0  0  0  0  0  0  0  0  0  0  0  0
   -5.5083    0.3772    0.0000 C   0  0  0  0  0  0  0  0  0  0  0  0
   -5.7671    1.8548    0.0000 C   0  0  0  0  0  0  0  0  0  0  0  0
   -7.1760    2.3694    0.0000 N   0  0  0  0  0  0  0  0  0  0  0  0
   -7.4348    3.8469    0.0000 C   0  0  0  0  0  0  0  0  0  0  0  0
   -8.8438    4.3615    0.0000 N   0  0  0  0  0  0  0  0  0  0  0  0
   -6.2847    4.8098    0.0000 N   0  0  0  0  0  0  0  0  0  0  0  0
   -2.4316   -2.1295    0.0000 C   0  0  0  0  0  0  0  0  0  0  0  0
   -1.2814   -1.1666    0.0000 O   0  0  0  0  0  0  0  0  0  0  0  0
   -2.1728   -3.6070    0.0000 N   0  0  0  0  0  0  0  0  0  0  0  0
   -0.7638   -4.1217    0.0000 C   0  0  0  0  0  0  0  0  0  0  0  0
   -1.5153   -5.4198    0.0000 C   0  0  0  0  0  0  0  0  0  0  0  0
   -3.0039   -5.2353    0.0000 C   0  0  0  0  0  0  0  0  0  0  0  0
   -1.7774   -6.8968    0.0000 C   0  0  0  0  0  0  0  0  0  0  0  0
   -3.1876   -7.4082    0.0000 C   0  0  0  0  0  0  0  0  0  0  0  0
    0.7362   -4.1234    0.0000 C   0  0  0  0  0  0  0  0  0  0  0  0
    1.3207   -5.5048    0.0000 O   0  0  0  0  0  0  0  0  0  0  0  0
    1.4877   -2.8252    0.0000 N   0  0  0  0  0  0  0  0  0  0  0  0
    2.9877   -2.8269    0.0000 C   0  0  0  0  0  0  0  0  0  0  0  0
    3.9789   -3.9527    0.0000 C   0  0  0  0  0  0  0  0  0  0  0  0
    5.2580   -4.7363    0.0000 C   0  0  0  0  0  0  0  0  0  0  0  0
    6.7111   -5.1081    0.0000 C   0  0  0  0  0  0  0  0  0  0  0  0
    8.2094   -5.0350    0.0000 C   0  0  0  0  0  0  0  0  0  0  0  0
    2.2072   -4.1079    0.0000 C   0  0  0  0  0  0  0  0  0  0  0  0
    2.3723   -1.4589    0.0000 C   0  0  0  0  0  0  0  0  0  0  0  0
    0.8893   -1.6845    0.0000 O   0  0  0  0  0  0  0  0  0  0  0  0
    2.1875    0.0297    0.0000 N   0  0  0  0  0  0  0  0  0  0  0  0
    2.4496    1.5066    0.0000 C   0  0  0  0  0  0  0  0  0  0  0  0
    0.9956    1.1381    0.0000 C   0  0  0  0  0  0  0  0  0  0  0  0
   -0.0506    2.2131    0.0000 C   0  0  0  0  0  0  0  0  0  0  0  0
   -1.5046    1.8446    0.0000 C   0  0  0  0  0  0  0  0  0  0  0  0
   -0.6659    3.5810    0.0000 C   0  0  0  0  0  0  0  0  0  0  0  0
    3.1354    2.8406    0.0000 C   0  0  0  0  0  0  0  0  0  0  0  0
    1.9185    3.7176    0.0000 O   0  0  0  0  0  0  0  0  0  0  0  0
    4.1840    3.9132    0.0000 N   0  0  0  0  0  0  0  0  0  0  0  0
    5.5022    4.6291    0.0000 C   0  0  0  0  0  0  0  0  0  0  0  0
    4.3075    5.5362    0.0000 C   0  0  0  0  0  0  0  0  0  0  0  0
    4.4957    7.0243    0.0000 S   0  0  0  0  0  0  0  0  0  0  0  0
    6.9728    4.9246    0.0000 C   0  0  0  0  0  0  0  0  0  0  0  0
    6.8997    6.4229    0.0000 O   0  0  0  0  0  0  0  0  0  0  0  0
    8.4651    4.7736    0.0000 N   0  0  0  0  0  0  0  0  0  0  0  0
    9.8467    4.1894    0.0000 C   0  0  0  0  0  0  0  0  0  0  0  0
    9.8110    5.6889    0.0000 C   0  0  0  0  0  0  0  0  0  0  0  0
   11.0918    6.4696    0.0000 C   0  0  0  0  0  0  0  0  0  0  0  0
   11.0561    7.9692    0.0000 C   0  0  0  0  0  0  0  0  0  0  0  0
   12.3369    8.7499    0.0000 N   0  0  0  0  0  0  0  0  0  0  0  0
   12.3012   10.2495    0.0000 C   0  0  0  0  0  0  0  0  0  0  0  0
   13.5821   11.0302    0.0000 N   0  0  0  0  0  0  0  0  0  0  0  0
   10.9847   10.9684    0.0000 N   0  0  0  0  0  0  0  0  0  0  0  0
   10.9946    3.2239    0.0000 C   0  0  0  0  0  0  0  0  0  0  0  0
   12.1204    4.2151    0.0000 O   0  0  0  0  0  0  0  0  0  0  0  0
   11.8070    1.9629    0.0000 N   0  0  0  0  0  0  0  0  0  0  0  0
   12.2117    0.5185    0.0000 C   0  0  0  0  0  0  0  0  0  0  0  0
   12.1726   -0.9810    0.0000 C   0  0  0  0  0  0  0  0  0  0  0  0
   11.6932   -2.4023    0.0000 C   0  0  0  0  0  0  0  0  0  0  0  0
   10.8162   -3.6192    0.0000 C   0  0  0  0  0  0  0  0  0  0  0  0
    9.6195   -4.5236    0.0000 C   0  0  0  0  0  0  0  0  0  0  0  0
   13.6318    0.0357    0.0000 C   0  0  0  0  0  0  0  0  0  0  0  0
   13.3618    1.4814    0.0000 C   0  0  0  0  0  0  0  0  0  0  0  0
   13.2851    2.9794    0.0000 O   0  0  0  0  0  0  0  0  0  0  0  0
   14.7708    0.9668    0.0000 N   0  0  0  0  0  0  0  0  0  0  0  0
   15.9209    1.9296    0.0000 C   0  0  0  0  0  0  0  0  0  0  0  0
   16.6724    3.2278    0.0000 C   0  0  0  0  0  0  0  0  0  0  0  0
   15.9239    4.5277    0.0000 C   0  0  0  0  0  0  0  0  0  0  0  0
   16.5355    5.8973    0.0000 C   0  0  0  0  0  0  0  0  0  0  0  0
   15.4220    6.9023    0.0000 N   0  0  0  0  0  0  0  0  0  0  0  0
   14.1221    6.1538    0.0000 C   0  0  0  0  0  0  0  0  0  0  0  0
   14.4323    4.6862    0.0000 N   0  0  0  0  0  0  0  0  0  0  0  0
   17.3299    1.4150    0.0000 C   0  0  0  0  0  0  0  0  0  0  0  0
   18.5888    2.2305    0.0000 O   0  0  0  0  0  0  0  0  0  0  0  0
   17.5887   -0.0625    0.0000 N   0  0  0  0  0  0  0  0  0  0  0  0
   18.9976   -0.5771    0.0000 C   0  0  0  0  0  0  0  0  0  0  0  0
   20.4976   -0.5788    0.0000 C   0  0  0  0  0  0  0  0  0  0  0  0
   21.2491    0.7194    0.0000 C   0  0  0  0  0  0  0  0  0  0  0  0
   22.7411    0.8745    0.0000 C   0  0  0  0  0  0  0  0  0  0  0  0
   23.0546    2.3413    0.0000 N   0  0  0  0  0  0  0  0  0  0  0  0
   21.7564    3.0928    0.0000 C   0  0  0  0  0  0  0  0  0  0  0  0
   20.6406    2.0904    0.0000 N   0  0  0  0  0  0  0  0  0  0  0  0
   19.2564   -2.0546    0.0000 C   0  0  0  0  0  0  0  0  0  0  0  0
   18.1063   -3.0175    0.0000 O   0  0  0  0  0  0  0  0  0  0  0  0
   20.6654   -2.5693    0.0000 N   0  0  0  0  0  0  0  0  0  0  0  0
   20.9242   -4.0468    0.0000 C   0  0  0  0  0  0  0  0  0  0  0  0
   20.6620   -5.5237    0.0000 C   0  0  0  0  0  0  0  0  0  0  0  0
   21.6838   -6.6219    0.0000 O   0  0  0  0  0  0  0  0  0  0  0  0
   22.3331   -4.5614    0.0000 C   0  0  0  0  0  0  0  0  0  0  0  0
   22.7701   -5.9963    0.0000 O   0  0  0  0  0  0  0  0  0  0  0  0
   23.4833   -3.5985    0.0000 N   0  0  0  0  0  0  0  0  0  0  0  0
   24.8923   -4.1131    0.0000 C   0  0  0  0  0  0  0  0  0  0  0  0
   26.0402   -5.0786    0.0000 C   0  0  0  0  0  0  0  0  0  0  0  0
   27.4492   -5.5933    0.0000 O   0  0  0  0  0  0  0  0  0  0  0  0
   25.7781   -6.5555    0.0000 C   0  0  0  0  0  0  0  0  0  0  0  0
   26.0424   -3.1503    0.0000 C   0  0  0  0  0  0  0  0  0  0  0  0
   27.5036   -3.4893    0.0000 O   0  0  0  0  0  0  0  0  0  0  0  0
   25.7836   -1.6728    0.0000 O   0  0  0  0  0  0  0  0  0  0  0  0
  -22.1036   -8.3623    0.0000 H   0  0  0  0  0  0  0  0  0  0  0  0
  -24.3521   -7.0607    0.0000 H   0  0  0  0  0  0  0  0  0  0  0  0
  -20.9526   -6.7297    0.0000 H   0  0  0  0  0  0  0  0  0  0  0  0
  -20.9505   -4.8014    0.0000 H   0  0  0  0  0  0  0  0  0  0  0  0
  -23.9993   -5.4272    0.0000 H   0  0  0  0  0  0  0  0  0  0  0  0
  -23.9971   -3.4989    0.0000 H   0  0  0  0  0  0  0  0  0  0  0  0
  -23.6375   -1.9626    0.0000 H   0  0  0  0  0  0  0  0  0  0  0  0
  -20.9467   -1.5336    0.0000 H   0  0  0  0  0  0  0  0  0  0  0  0
  -24.6516    0.9120    0.0000 H   0  0  0  0  0  0  0  0  0  0  0  0
  -22.7522    1.2447    0.0000 H   0  0  0  0  0  0  0  0  0  0  0  0
  -25.4053   -2.3145    0.0000 H   0  0  0  0  0  0  0  0  0  0  0  0
  -24.2254   -1.7915    0.0000 H   0  0  0  0  0  0  0  0  0  0  0  0
  -19.2768   -1.5974    0.0000 H   0  0  0  0  0  0  0  0  0  0  0  0
  -17.6369   -0.4569    0.0000 H   0  0  0  0  0  0  0  0  0  0  0  0
  -20.9424    2.3231    0.0000 H   0  0  0  0  0  0  0  0  0  0  0  0
  -20.5767    0.7307    0.0000 H   0  0  0  0  0  0  0  0  0  0  0  0
  -18.5198    4.5836    0.0000 H   0  0  0  0  0  0  0  0  0  0  0  0
  -17.8623    2.7708    0.0000 H   0  0  0  0  0  0  0  0  0  0  0  0
  -21.8282    4.7655    0.0000 H   0  0  0  0  0  0  0  0  0  0  0  0
  -21.3233    3.0540    0.0000 H   0  0  0  0  0  0  0  0  0  0  0  0
  -18.7470    6.2393    0.0000 H   0  0  0  0  0  0  0  0  0  0  0  0
  -22.1909    9.1357    0.0000 H   0  0  0  0  0  0  0  0  0  0  0  0
  -19.6328    8.6817    0.0000 H   0  0  0  0  0  0  0  0  0  0  0  0
  -23.8631    7.1474    0.0000 H   0  0  0  0  0  0  0  0  0  0  0  0
  -22.9773    4.7050    0.0000 H   0  0  0  0  0  0  0  0  0  0  0  0
  -16.0895   -1.0879    0.0000 H   0  0  0  0  0  0  0  0  0  0  0  0
  -14.1584   -0.5771    0.0000 H   0  0  0  0  0  0  0  0  0  0  0  0
  -16.3137    3.1658    0.0000 H   0  0  0  0  0  0  0  0  0  0  0  0
  -16.5147    1.5443    0.0000 H   0  0  0  0  0  0  0  0  0  0  0  0
  -13.2663    2.5330    0.0000 H   0  0  0  0  0  0  0  0  0  0  0  0
  -14.5752    6.1785    0.0000 H   0  0  0  0  0  0  0  0  0  0  0  0
  -16.3108    5.7638    0.0000 H   0  0  0  0  0  0  0  0  0  0  0  0
  -16.4218    3.9829    0.0000 H   0  0  0  0  0  0  0  0  0  0  0  0
  -13.3409    5.9594    0.0000 H   0  0  0  0  0  0  0  0  0  0  0  0
  -11.8540    4.9728    0.0000 H   0  0  0  0  0  0  0  0  0  0  0  0
  -12.5156    3.1615    0.0000 H   0  0  0  0  0  0  0  0  0  0  0  0
  -12.9202   -1.6994    0.0000 H   0  0  0  0  0  0  0  0  0  0  0  0
  -10.9308   -1.8798    0.0000 H   0  0  0  0  0  0  0  0  0  0  0  0
  -12.2632    1.7571    0.0000 H   0  0  0  0  0  0  0  0  0  0  0  0
  -10.6653    2.5515    0.0000 H   0  0  0  0  0  0  0  0  0  0  0  0
   -9.4275    1.0729    0.0000 H   0  0  0  0  0  0  0  0  0  0  0  0
  -10.2599   -3.2105    0.0000 H   0  0  0  0  0  0  0  0  0  0  0  0
   -7.3298   -1.4328    0.0000 H   0  0  0  0  0  0  0  0  0  0  0  0
   -8.4236   -5.7057    0.0000 H   0  0  0  0  0  0  0  0  0  0  0  0
   -6.9345   -4.7225    0.0000 H   0  0  0  0  0  0  0  0  0  0  0  0
  -11.2524   -3.6915    0.0000 H   0  0  0  0  0  0  0  0  0  0  0  0
  -10.1281   -2.7334    0.0000 H   0  0  0  0  0  0  0  0  0  0  0  0
  -10.8571   -6.9812    0.0000 H   0  0  0  0  0  0  0  0  0  0  0  0
   -9.2592   -6.1869    0.0000 H   0  0  0  0  0  0  0  0  0  0  0  0
  -12.8435   -4.2027    0.0000 H   0  0  0  0  0  0  0  0  0  0  0  0
  -15.0979   -8.0973    0.0000 H   0  0  0  0  0  0  0  0  0  0  0  0
  -15.0949   -5.4992    0.0000 H   0  0  0  0  0  0  0  0  0  0  0  0
  -12.8494   -9.3989    0.0000 H   0  0  0  0  0  0  0  0  0  0  0  0
  -10.5979   -8.1024    0.0000 H   0  0  0  0  0  0  0  0  0  0  0  0
   -6.2419   -0.4142    0.0000 H   0  0  0  0  0  0  0  0  0  0  0  0
   -4.1027   -3.0918    0.0000 H   0  0  0  0  0  0  0  0  0  0  0  0
   -3.6591    1.2966    0.0000 H   0  0  0  0  0  0  0  0  0  0  0  0
   -2.5993   -0.1391    0.0000 H   0  0  0  0  0  0  0  0  0  0  0  0
   -7.0083    0.3790    0.0000 H   0  0  0  0  0  0  0  0  0  0  0  0
   -6.2824   -0.9076    0.0000 H   0  0  0  0  0  0  0  0  0  0  0  0
   -5.5049    3.3317    0.0000 H   0  0  0  0  0  0  0  0  0  0  0  0
   -4.2780    2.0359    0.0000 H   0  0  0  0  0  0  0  0  0  0  0  0
   -8.3262    1.4065    0.0000 H   0  0  0  0  0  0  0  0  0  0  0  0
   -9.1026    5.8390    0.0000 H   0  0  0  0  0  0  0  0  0  0  0  0
   -9.9939    3.3986    0.0000 H   0  0  0  0  0  0  0  0  0  0  0  0
   -6.5434    6.2873    0.0000 H   0  0  0  0  0  0  0  0  0  0  0  0
   -4.8757    4.2951    0.0000 H   0  0  0  0  0  0  0  0  0  0  0  0
   -3.4317   -4.4225    0.0000 H   0  0  0  0  0  0  0  0  0  0  0  0
   -0.5017   -2.6447    0.0000 H   0  0  0  0  0  0  0  0  0  0  0  0
   -0.1063   -5.9345    0.0000 H   0  0  0  0  0  0  0  0  0  0  0  0
   -3.9416   -6.6123    0.0000 H   0  0  0  0  0  0  0  0  0  0  0  0
   -4.4242   -4.9035    0.0000 H   0  0  0  0  0  0  0  0  0  0  0  0
   -3.3000   -3.9454    0.0000 H   0  0  0  0  0  0  0  0  0  0  0  0
   -1.5186   -8.3743    0.0000 H   0  0  0  0  0  0  0  0  0  0  0  0
   -0.2774   -6.8985    0.0000 H   0  0  0  0  0  0  0  0  0  0  0  0
   -3.4497   -8.8851    0.0000 H   0  0  0  0  0  0  0  0  0  0  0  0
   -4.6876   -7.4065    0.0000 H   0  0  0  0  0  0  0  0  0  0  0  0
   -3.7962   -6.0372    0.0000 H   0  0  0  0  0  0  0  0  0  0  0  0
    0.5863   -1.6262    0.0000 H   0  0  0  0  0  0  0  0  0  0  0  0
    3.7907   -5.4408    0.0000 H   0  0  0  0  0  0  0  0  0  0  0  0
    2.6094   -4.5647    0.0000 H   0  0  0  0  0  0  0  0  0  0  0  0
    5.3347   -6.2343    0.0000 H   0  0  0  0  0  0  0  0  0  0  0  0
    4.1297   -5.7248    0.0000 H   0  0  0  0  0  0  0  0  0  0  0  0
    7.3939   -6.4437    0.0000 H   0  0  0  0  0  0  0  0  0  0  0  0
    5.9244   -6.3852    0.0000 H   0  0  0  0  0  0  0  0  0  0  0  0
    8.5049   -6.5056    0.0000 H   0  0  0  0  0  0  0  0  0  0  0  0
    0.9724   -4.6562    0.0000 H   0  0  0  0  0  0  0  0  0  0  0  0
    2.4478   -5.6714    0.0000 H   0  0  0  0  0  0  0  0  0  0  0  0
    3.5511   -5.1138    0.0000 H   0  0  0  0  0  0  0  0  0  0  0  0
    0.6880    0.0687    0.0000 H   0  0  0  0  0  0  0  0  0  0  0  0
    1.6657    2.7855    0.0000 H   0  0  0  0  0  0  0  0  0  0  0  0
   -0.1327    0.1496    0.0000 H   0  0  0  0  0  0  0  0  0  0  0  0
    1.2616   -0.3381    0.0000 H   0  0  0  0  0  0  0  0  0  0  0  0
    1.0777    3.2015    0.0000 H   0  0  0  0  0  0  0  0  0  0  0  0
   -2.6740    2.7840    0.0000 H   0  0  0  0  0  0  0  0  0  0  0  0
   -2.7449    1.0010    0.0000 H   0  0  0  0  0  0  0  0  0  0  0  0
   -1.0606    0.4118    0.0000 H   0  0  0  0  0  0  0  0  0  0  0  0
   -2.1288    3.9129    0.0000 H   0  0  0  0  0  0  0  0  0  0  0  0
   -0.7763    5.0770    0.0000 H   0  0  0  0  0  0  0  0  0  0  0  0
    0.7881    3.9495    0.0000 H   0  0  0  0  0  0  0  0  0  0  0  0
    3.2797    5.1099    0.0000 H   0  0  0  0  0  0  0  0  0  0  0  0
    5.8376    6.0911    0.0000 H   0  0  0  0  0  0  0  0  0  0  0  0
    2.8746    5.9799    0.0000 H   0  0  0  0  0  0  0  0  0  0  0  0
    3.3192    4.4077    0.0000 H   0  0  0  0  0  0  0  0  0  0  0  0
    3.3010    7.9314    0.0000 H   0  0  0  0  0  0  0  0  0  0  0  0
    8.8369    6.2268    0.0000 H   0  0  0  0  0  0  0  0  0  0  0  0
   11.2679    4.6690    0.0000 H   0  0  0  0  0  0  0  0  0  0  0  0
    9.0984    7.0089    0.0000 H   0  0  0  0  0  0  0  0  0  0  0  0
    8.3126    5.7580    0.0000 H   0  0  0  0  0  0  0  0  0  0  0  0
   12.5154    6.9423    0.0000 H   0  0  0  0  0  0  0  0  0  0  0  0
   11.8044    5.1497    0.0000 H   0  0  0  0  0  0  0  0  0  0  0  0
   10.5097    9.3662    0.0000 H   0  0  0  0  0  0  0  0  0  0  0  0
    9.5605    7.8551    0.0000 H   0  0  0  0  0  0  0  0  0  0  0  0
   13.6535    8.0310    0.0000 H   0  0  0  0  0  0  0  0  0  0  0  0
   13.5464   12.5298    0.0000 H   0  0  0  0  0  0  0  0  0  0  0  0
   14.8986   10.3113    0.0000 H   0  0  0  0  0  0  0  0  0  0  0  0
   10.9490   12.4679    0.0000 H   0  0  0  0  0  0  0  0  0  0  0  0
    9.7039   10.1877    0.0000 H   0  0  0  0  0  0  0  0  0  0  0  0
   13.0898    2.7405    0.0000 H   0  0  0  0  0  0  0  0  0  0  0  0
   13.6160   -0.5728    0.0000 H   0  0  0  0  0  0  0  0  0  0  0  0
   13.2710   -2.0025    0.0000 H   0  0  0  0  0  0  0  0  0  0  0  0
   13.1928   -2.4377    0.0000 H   0  0  0  0  0  0  0  0  0  0  0  0
   12.5946   -3.6013    0.0000 H   0  0  0  0  0  0  0  0  0  0  0  0
   12.2387   -4.0951    0.0000 H   0  0  0  0  0  0  0  0  0  0  0  0
   11.1483   -5.0820    0.0000 H   0  0  0  0  0  0  0  0  0  0  0  0
   10.3354   -5.8417    0.0000 H   0  0  0  0  0  0  0  0  0  0  0  0
   14.9310    0.4064    0.0000 H   0  0  0  0  0  0  0  0  0  0  0  0
   14.4495   -1.3186    0.0000 H   0  0  0  0  0  0  0  0  0  0  0  0
   13.2452   -1.5979    0.0000 H   0  0  0  0  0  0  0  0  0  0  0  0
   15.2077   -0.4682    0.0000 H   0  0  0  0  0  0  0  0  0  0  0  0
   14.7730    2.8951    0.0000 H   0  0  0  0  0  0  0  0  0  0  0  0
   17.8226    4.1907    0.0000 H   0  0  0  0  0  0  0  0  0  0  0  0
   17.9295    2.4095    0.0000 H   0  0  0  0  0  0  0  0  0  0  0  0
   18.0031    6.2075    0.0000 H   0  0  0  0  0  0  0  0  0  0  0  0
   15.5805    8.3939    0.0000 H   0  0  0  0  0  0  0  0  0  0  0  0
   12.8372    6.9278    0.0000 H   0  0  0  0  0  0  0  0  0  0  0  0
   16.4385   -1.0254    0.0000 H   0  0  0  0  0  0  0  0  0  0  0  0
   19.2598    0.8998    0.0000 H   0  0  0  0  0  0  0  0  0  0  0  0
   21.9588   -0.9179    0.0000 H   0  0  0  0  0  0  0  0  0  0  0  0
   20.6007   -2.0753    0.0000 H   0  0  0  0  0  0  0  0  0  0  0  0
   23.7435   -0.2414    0.0000 H   0  0  0  0  0  0  0  0  0  0  0  0
   24.4256    2.9499    0.0000 H   0  0  0  0  0  0  0  0  0  0  0  0
   21.6013    4.5848    0.0000 H   0  0  0  0  0  0  0  0  0  0  0  0
   21.9243   -1.7538    0.0000 H   0  0  0  0  0  0  0  0  0  0  0  0
   19.4242   -4.0451    0.0000 H   0  0  0  0  0  0  0  0  0  0  0  0
   19.9106   -6.8219    0.0000 H   0  0  0  0  0  0  0  0  0  0  0  0
   19.2531   -5.0090    0.0000 H   0  0  0  0  0  0  0  0  0  0  0  0
   21.5479   -7.9661    0.0000 H   0  0  0  0  0  0  0  0  0  0  0  0
   23.2245   -2.1210    0.0000 H   0  0  0  0  0  0  0  0  0  0  0  0
   23.9881   -5.3101    0.0000 H   0  0  0  0  0  0  0  0  0  0  0  0
   26.9443   -3.8817    0.0000 H   0  0  0  0  0  0  0  0  0  0  0  0
   27.8861   -7.0282    0.0000 H   0  0  0  0  0  0  0  0  0  0  0  0
   26.7998   -7.6538    0.0000 H   0  0  0  0  0  0  0  0  0  0  0  0
   25.0266   -7.8537    0.0000 H   0  0  0  0  0  0  0  0  0  0  0  0
   24.3169   -6.2165    0.0000 H   0  0  0  0  0  0  0  0  0  0  0  0
  1  2  1  0
  2  3  1  0
  3  4  1  0
  4  5  2  0
  4  6  1  0
  6  7  1  0
  7  8  1  0
  8  9  1  0
  9 10  1  0
 10 11  2  0
 10 12  1  0
  7 13  1  0
 13 14  2  0
 13 15  1  0
 15 16  1  0
 16 17  1  0
 17 18  1  0
 18 19  1  0
 19 20  1  0
 20 21  1  0
 21 22  2  3
 21 23  1  0
 16 24  1  0
 24 25  2  0
 24 26  1  0
 26 27  1  0
 27 28  1  0
 28 29  1  0
 29 30  1  0
 29 31  1  0
 27 32  1  0
 32 33  2  0
 32 34  1  0
 34 35  1  0
 35 36  1  0
 35 37  1  0
 37 38  2  0
 37 39  1  0
 39 40  1  0
 40 41  1  0
 41 42  1  0
 42 43  1  0
 43 44  1  0
 44 45  1  0
 45 46  2  3
 45 47  1  0
 40 48  1  0
 48 49  2  0
 48 50  1  0
 50 51  1  0
 51 52  1  0
 52 53  1  0
 53 54  1  0
 54 55  1  0
 55 56  1  0
 56 57  2  3
 56 58  1  0
 51 59  1  0
 59 60  2  0
 59 61  1  0
 61 62  1  0
 62 63  1  0
 63 64  1  0
 63 65  1  0
 65 66  1  0
 62 67  1  0
 67 68  2  0
 67 69  1  0
 70 69  1  6
 70 71  1  0
 71 72  1  0
 72 73  1  0
 73 74  1  0
 70 75  1  0
 70 76  1  0
 76 77  2  0
 76 78  1  0
 78 79  1  0
 79 80  1  0
 80 81  1  0
 81 82  1  0
 81 83  1  0
 79 84  1  0
 84 85  2  0
 84 86  1  0
 86 87  1  0
 87 88  1  0
 88 89  1  0
 87 90  1  0
 90 91  2  0
 90 92  1  0
 92 93  1  0
 93 94  1  0
 94 95  1  0
 95 96  1  0
 96 97  1  0
 97 98  1  0
 98 99  2  3
 98100  1  0
 93101  1  0
101102  2  0
101103  1  0
103104  1  0
104105  1  0
105106  1  0
106107  1  0
107108  1  0
104109  1  0
104110  1  6
110111  2  0
110112  1  0
112113  1  0
113114  1  0
114115  1  0
115116  2  0
116117  1  0
117118  1  0
118119  2  0
113120  1  0
120121  2  0
120122  1  0
122123  1  0
123124  1  0
124125  1  0
125126  2  0
126127  1  0
127128  1  0
128129  2  0
123130  1  0
130131  2  0
130132  1  0
132133  1  0
133134  1  0
134135  1  0
133136  1  0
136137  2  0
136138  1  0
138139  1  0
139140  1  0
140141  1  0
140142  1  0
139143  1  0
143144  2  0
143145  1  0
119115  1  0
129125  1  0
 74108  2  0
  1146  1  0
  1147  1  0
  2148  1  0
  2149  1  0
  3150  1  0
  3151  1  0
  6152  1  0
  7153  1  1
  8154  1  0
  8155  1  0
  9156  1  0
  9157  1  0
 15158  1  0
 16159  1  1
 17160  1  0
 17161  1  0
 18162  1  0
 18163  1  0
 19164  1  0
 19165  1  0
 20166  1  0
 22167  1  0
 22168  1  0
 23169  1  0
 23170  1  0
 26171  1  0
 27172  1  1
 28173  1  0
 28174  1  0
 29175  1  0
 30176  1  0
 30177  1  0
 30178  1  0
 31179  1  0
 31180  1  0
 31181  1  0
 34182  1  0
 35183  1  1
 36184  1  0
 36185  1  0
 36186  1  0
 39187  1  0
 40188  1  6
 41189  1  0
 41190  1  0
 42191  1  0
 42192  1  0
 43193  1  0
 43194  1  0
 44195  1  0
 46196  1  0
 46197  1  0
 47198  1  0
 47199  1  0
 50200  1  0
 51201  1  1
 52202  1  0
 52203  1  0
 53204  1  0
 53205  1  0
 54206  1  0
 54207  1  0
 55208  1  0
 57209  1  0
 57210  1  0
 58211  1  0
 58212  1  0
 61213  1  0
 62214  1  6
 63215  1  1
 64216  1  0
 64217  1  0
 64218  1  0
 65219  1  0
 65220  1  0
 66221  1  0
 66222  1  0
 66223  1  0
 69224  1  0
 71225  1  0
 71226  1  0
 72227  1  0
 72228  1  0
 73229  1  0
 73230  1  0
 74231  1  0
 75232  1  0
 75233  1  0
 75234  1  0
 78235  1  0
 79236  1  1
 80237  1  0
 80238  1  0
 81239  1  0
 82240  1  0
 82241  1  0
 82242  1  0
 83243  1  0
 83244  1  0
 83245  1  0
 86246  1  0
 87247  1  1
 88248  1  0
 88249  1  0
 89250  1  0
 92251  1  0
 93252  1  1
 94253  1  0
 94254  1  0
 95255  1  0
 95256  1  0
 96257  1  0
 96258  1  0
 97259  1  0
 99260  1  0
 99261  1  0
100262  1  0
100263  1  0
103264  1  0
105265  1  0
105266  1  0
106267  1  0
106268  1  0
107269  1  0
107270  1  0
108271  1  0
109272  1  0
109273  1  0
109274  1  0
112275  1  0
113276  1  1
114277  1  0
114278  1  0
116279  1  0
117280  1  0
118281  1  0
122282  1  0
123283  1  1
124284  1  0
124285  1  0
126286  1  0
127287  1  0
128288  1  0
132289  1  0
133290  1  6
134291  1  0
134292  1  0
135293  1  0
138294  1  0
139295  1  6
140296  1  1
141297  1  0
142298  1  0
142299  1  0
142300  1  0
M  CHG  6  12  -1  22   1  46   1  57   1  99   1 145  -1
M  END
