
     RDKit          2D

286296  0  0  0  0  0  0  0  0999 V2000
  -29.8571   -0.4678    0.0000 C   0  0  0  0  0  0  0  0  0  0  0  0
  -31.0744   -1.3442    0.0000 N   0  0  0  0  0  0  0  0  0  0  0  0
  -32.4421   -0.7282    0.0000 C   0  0  0  0  0  0  0  0  0  0  0  0
  -32.5924    0.7643    0.0000 C   0  0  0  0  0  0  0  0  0  0  0  0
  -33.9601    1.3803    0.0000 C   0  0  0  0  0  0  0  0  0  0  0  0
  -35.1774    0.5039    0.0000 C   0  0  0  0  0  0  0  0  0  0  0  0
  -35.0270   -0.9886    0.0000 C   0  0  0  0  0  0  0  0  0  0  0  0
  -33.6594   -1.6046    0.0000 C   0  0  0  0  0  0  0  0  0  0  0  0
  -36.4000   -1.5927    0.0000 C   0  0  0  0  0  0  0  0  0  0  0  0
  -37.3989   -0.4737    0.0000 O   0  0  0  0  0  0  0  0  0  0  0  0
  -36.6433    0.8221    0.0000 C   0  0  0  0  0  0  0  0  0  0  0  0
  -37.2474    2.1950    0.0000 O   0  0  0  0  0  0  0  0  0  0  0  0
  -37.8286   -2.0501    0.0000 C   0  0  0  0  0  0  0  0  0  0  0  0
  -38.1468   -3.5160    0.0000 C   0  0  0  0  0  0  0  0  0  0  0  0
  -39.5753   -3.9733    0.0000 C   0  0  0  0  0  0  0  0  0  0  0  0
  -40.6857   -2.9648    0.0000 C   0  0  0  0  0  0  0  0  0  0  0  0
  -40.3675   -1.4990    0.0000 C   0  0  0  0  0  0  0  0  0  0  0  0
  -38.9389   -1.0416    0.0000 C   0  0  0  0  0  0  0  0  0  0  0  0
  -42.1143   -3.4222    0.0000 O   0  0  0  0  0  0  0  0  0  0  0  0
  -37.0364   -4.5245    0.0000 O   0  0  0  0  0  0  0  0  0  0  0  0
  -35.6078   -4.0671    0.0000 C   0  0  0  0  0  0  0  0  0  0  0  0
  -35.2896   -2.6013    0.0000 C   0  0  0  0  0  0  0  0  0  0  0  0
  -34.0095   -2.8280    0.0000 C   0  0  0  0  0  0  0  0  0  0  0  0
  -33.4173   -3.3658    0.0000 C   0  0  0  0  0  0  0  0  0  0  0  0
  -33.5870   -4.1476    0.0000 C   0  0  0  0  0  0  0  0  0  0  0  0
  -34.3490   -4.3915    0.0000 C   0  0  0  0  0  0  0  0  0  0  0  0
  -31.9585   -5.6268    0.0000 O   0  0  0  0  0  0  0  0  0  0  0  0
  -30.0074    1.0247    0.0000 S   0  0  0  0  0  0  0  0  0  0  0  0
  -28.4894   -1.0838    0.0000 N   0  0  0  0  0  0  0  0  0  0  0  0
  -27.2721   -0.2074    0.0000 C   0  0  0  0  0  0  0  0  0  0  0  0
  -25.9044   -0.8234    0.0000 C   0  0  0  0  0  0  0  0  0  0  0  0
  -24.6871    0.0531    0.0000 C   0  0  0  0  0  0  0  0  0  0  0  0
  -24.8374    1.5455    0.0000 O   0  0  0  0  0  0  0  0  0  0  0  0
  -23.3194   -0.5630    0.0000 N   0  0  0  0  0  0  0  0  0  0  0  0
  -22.1021    0.3135    0.0000 C   0  0  0  0  0  0  0  0  0  0  0  0
  -21.2579    1.5534    0.0000 C   0  0  0  0  0  0  0  0  0  0  0  0
  -19.7620    1.4423    0.0000 C   0  0  0  0  0  0  0  0  0  0  0  0
  -18.9179    2.6822    0.0000 N   0  0  0  0  0  0  0  0  0  0  0  0
  -19.2523    0.8294    0.0000 O   0  0  0  0  0  0  0  0  0  0  0  0
  -20.7344   -0.3026    0.0000 C   0  0  0  0  0  0  0  0  0  0  0  0
  -20.5841   -1.7950    0.0000 O   0  0  0  0  0  0  0  0  0  0  0  0
  -19.5171    0.5739    0.0000 N   0  0  0  0  0  0  0  0  0  0  0  0
  -18.1494   -0.0422    0.0000 C   0  0  0  0  0  0  0  0  0  0  0  0
  -17.0749   -1.0888    0.0000 C   0  0  0  0  0  0  0  0  0  0  0  0
  -15.5812   -1.2261    0.0000 O   0  0  0  0  0  0  0  0  0  0  0  0
  -16.9321    0.8343    0.0000 C   0  0  0  0  0  0  0  0  0  0  0  0
  -16.8994    2.3339    0.0000 O   0  0  0  0  0  0  0  0  0  0  0  0
  -15.5644    0.2183    0.0000 N   0  0  0  0  0  0  0  0  0  0  0  0
  -14.3471    1.0947    0.0000 C   0  0  0  0  0  0  0  0  0  0  0  0
  -13.5029    2.3346    0.0000 C   0  0  0  0  0  0  0  0  0  0  0  0
  -12.0666    2.7671    0.0000 O   0  0  0  0  0  0  0  0  0  0  0  0
  -12.9794    0.4787    0.0000 C   0  0  0  0  0  0  0  0  0  0  0  0
  -13.0121   -1.0210    0.0000 O   0  0  0  0  0  0  0  0  0  0  0  0
  -11.7621    1.3551    0.0000 N   0  0  0  0  0  0  0  0  0  0  0  0
  -10.3944    0.7391    0.0000 C   0  0  0  0  0  0  0  0  0  0  0  0
   -9.3199   -0.3076    0.0000 C   0  0  0  0  0  0  0  0  0  0  0  0
   -9.6891   -1.7614    0.0000 C   0  0  0  0  0  0  0  0  0  0  0  0
  -11.1328   -2.1687    0.0000 C   0  0  0  0  0  0  0  0  0  0  0  0
  -11.5019   -3.6225    0.0000 C   0  0  0  0  0  0  0  0  0  0  0  0
  -10.4274   -4.6692    0.0000 C   0  0  0  0  0  0  0  0  0  0  0  0
   -8.9838   -4.2619    0.0000 C   0  0  0  0  0  0  0  0  0  0  0  0
   -8.6146   -2.8081    0.0000 C   0  0  0  0  0  0  0  0  0  0  0  0
   -9.1771    1.6155    0.0000 C   0  0  0  0  0  0  0  0  0  0  0  0
   -9.3275    3.1079    0.0000 O   0  0  0  0  0  0  0  0  0  0  0  0
   -7.8094    0.9995    0.0000 N   0  0  0  0  0  0  0  0  0  0  0  0
   -6.5921    1.8759    0.0000 C   0  0  0  0  0  0  0  0  0  0  0  0
   -5.7480    3.1158    0.0000 C   0  0  0  0  0  0  0  0  0  0  0  0
   -5.2245    1.2599    0.0000 C   0  0  0  0  0  0  0  0  0  0  0  0
   -5.0741   -0.2326    0.0000 O   0  0  0  0  0  0  0  0  0  0  0  0
   -4.0071    2.1363    0.0000 N   0  0  0  0  0  0  0  0  0  0  0  0
   -2.6395    1.5203    0.0000 C   0  0  0  0  0  0  0  0  0  0  0  0
   -1.5650    0.4736    0.0000 C   0  0  0  0  0  0  0  0  0  0  0  0
   -1.9341   -0.9802    0.0000 C   0  0  0  0  0  0  0  0  0  0  0  0
   -0.8596   -2.0269    0.0000 O   0  0  0  0  0  0  0  0  0  0  0  0
   -3.3778   -1.3874    0.0000 O   0  0  0  0  0  0  0  0  0  0  0  0
   -1.4221    2.3967    0.0000 C   0  0  0  0  0  0  0  0  0  0  0  0
   -1.5725    3.8892    0.0000 O   0  0  0  0  0  0  0  0  0  0  0  0
   -0.0545    1.7807    0.0000 N   0  0  0  0  0  0  0  0  0  0  0  0
    1.1629    2.6571    0.0000 C   0  0  0  0  0  0  0  0  0  0  0  0
    2.0070    3.8970    0.0000 C   0  0  0  0  0  0  0  0  0  0  0  0
    3.5029    3.7859    0.0000 C   0  0  0  0  0  0  0  0  0  0  0  0
    4.1546    2.4349    0.0000 C   0  0  0  0  0  0  0  0  0  0  0  0
    5.6505    2.3238    0.0000 C   0  0  0  0  0  0  0  0  0  0  0  0
    6.4947    3.5637    0.0000 C   0  0  0  0  0  0  0  0  0  0  0  0
    5.8429    4.9148    0.0000 C   0  0  0  0  0  0  0  0  0  0  0  0
    4.3470    5.0259    0.0000 C   0  0  0  0  0  0  0  0  0  0  0  0
    2.5305    2.0411    0.0000 C   0  0  0  0  0  0  0  0  0  0  0  0
    2.3153    0.5566    0.0000 O   0  0  0  0  0  0  0  0  0  0  0  0
    3.7478    2.9175    0.0000 N   0  0  0  0  0  0  0  0  0  0  0  0
    5.1155    2.3015    0.0000 C   0  0  0  0  0  0  0  0  0  0  0  0
    6.1900    1.2549    0.0000 C   0  0  0  0  0  0  0  0  0  0  0  0
    5.8208   -0.1990    0.0000 C   0  0  0  0  0  0  0  0  0  0  0  0
    4.3772   -0.6062    0.0000 C   0  0  0  0  0  0  0  0  0  0  0  0
    4.0080   -2.0601    0.0000 C   0  0  0  0  0  0  0  0  0  0  0  0
    5.0825   -3.1067    0.0000 C   0  0  0  0  0  0  0  0  0  0  0  0
    6.5262   -2.6995    0.0000 C   0  0  0  0  0  0  0  0  0  0  0  0
    6.8953   -1.2456    0.0000 C   0  0  0  0  0  0  0  0  0  0  0  0
    6.3328    3.1779    0.0000 C   0  0  0  0  0  0  0  0  0  0  0  0
    6.5481    4.6624    0.0000 O   0  0  0  0  0  0  0  0  0  0  0  0
    7.7005    2.5619    0.0000 N   0  0  0  0  0  0  0  0  0  0  0  0
    8.9178    3.4383    0.0000 C   0  0  0  0  0  0  0  0  0  0  0  0
    9.7620    4.6783    0.0000 C   0  0  0  0  0  0  0  0  0  0  0  0
   11.2579    4.5672    0.0000 C   0  0  0  0  0  0  0  0  0  0  0  0
   12.2270    5.7121    0.0000 C   0  0  0  0  0  0  0  0  0  0  0  0
   13.6153    5.1441    0.0000 N   0  0  0  0  0  0  0  0  0  0  0  0
   13.5042    3.6483    0.0000 C   0  0  0  0  0  0  0  0  0  0  0  0
   12.0472    3.2917    0.0000 N   0  0  0  0  0  0  0  0  0  0  0  0
   10.2855    2.8223    0.0000 C   0  0  0  0  0  0  0  0  0  0  0  0
   10.4358    1.3299    0.0000 O   0  0  0  0  0  0  0  0  0  0  0  0
   11.5028    3.6987    0.0000 N   0  0  0  0  0  0  0  0  0  0  0  0
   12.8705    3.0827    0.0000 C   0  0  0  0  0  0  0  0  0  0  0  0
   13.9450    2.0361    0.0000 C   0  0  0  0  0  0  0  0  0  0  0  0
   15.2274    1.2579    0.0000 O   0  0  0  0  0  0  0  0  0  0  0  0
   13.5758    0.5822    0.0000 C   0  0  0  0  0  0  0  0  0  0  0  0
   14.0878    3.9592    0.0000 C   0  0  0  0  0  0  0  0  0  0  0  0
   14.3031    5.4436    0.0000 O   0  0  0  0  0  0  0  0  0  0  0  0
   15.4555    3.3431    0.0000 N   0  0  0  0  0  0  0  0  0  0  0  0
   16.6728    4.2196    0.0000 C   0  0  0  0  0  0  0  0  0  0  0  0
   17.5170    5.4595    0.0000 C   0  0  0  0  0  0  0  0  0  0  0  0
   18.9953    5.7136    0.0000 C   0  0  0  0  0  0  0  0  0  0  0  0
   18.0405    3.6035    0.0000 C   0  0  0  0  0  0  0  0  0  0  0  0
   18.1908    2.1111    0.0000 O   0  0  0  0  0  0  0  0  0  0  0  0
   19.2578    4.4800    0.0000 N   0  0  0  0  0  0  0  0  0  0  0  0
   19.2643    5.9800    0.0000 C   0  0  0  0  0  0  0  0  0  0  0  0
   20.6929    6.4373    0.0000 C   0  0  0  0  0  0  0  0  0  0  0  0
   21.5693    5.2200    0.0000 C   0  0  0  0  0  0  0  0  0  0  0  0
   20.6824    4.0103    0.0000 C   0  0  0  0  0  0  0  0  0  0  0  0
   21.9782    3.2547    0.0000 C   0  0  0  0  0  0  0  0  0  0  0  0
   23.3615    3.8348    0.0000 O   0  0  0  0  0  0  0  0  0  0  0  0
   21.9717    1.7547    0.0000 N   0  0  0  0  0  0  0  0  0  0  0  0
   23.2675    0.9991    0.0000 C   0  0  0  0  0  0  0  0  0  0  0  0
   24.7435    0.7322    0.0000 C   0  0  0  0  0  0  0  0  0  0  0  0
   25.2505   -0.6795    0.0000 C   0  0  0  0  0  0  0  0  0  0  0  0
   24.2813   -1.8244    0.0000 C   0  0  0  0  0  0  0  0  0  0  0  0
   24.7883   -3.2361    0.0000 C   0  0  0  0  0  0  0  0  0  0  0  0
   26.2643   -3.5030    0.0000 C   0  0  0  0  0  0  0  0  0  0  0  0
   26.7713   -4.9147    0.0000 O   0  0  0  0  0  0  0  0  0  0  0  0
   27.2335   -2.3581    0.0000 C   0  0  0  0  0  0  0  0  0  0  0  0
   26.7265   -0.9464    0.0000 C   0  0  0  0  0  0  0  0  0  0  0  0
   23.2610   -0.5009    0.0000 C   0  0  0  0  0  0  0  0  0  0  0  0
   21.8777   -1.0810    0.0000 O   0  0  0  0  0  0  0  0  0  0  0  0
   24.5568   -1.2565    0.0000 N   0  0  0  0  0  0  0  0  0  0  0  0
   24.5503   -2.7565    0.0000 C   0  0  0  0  0  0  0  0  0  0  0  0
   24.0312   -4.1638    0.0000 C   0  0  0  0  0  0  0  0  0  0  0  0
   22.5528   -4.4179    0.0000 C   0  0  0  0  0  0  0  0  0  0  0  0
   22.0337   -5.8252    0.0000 C   0  0  0  0  0  0  0  0  0  0  0  0
   20.5554   -6.0793    0.0000 C   0  0  0  0  0  0  0  0  0  0  0  0
   25.8461   -3.5121    0.0000 C   0  0  0  0  0  0  0  0  0  0  0  0
   27.2898   -3.1050    0.0000 O   0  0  0  0  0  0  0  0  0  0  0  0
   25.8396   -5.0121    0.0000 N   0  0  0  0  0  0  0  0  0  0  0  0
   27.1354   -5.7677    0.0000 C   0  0  0  0  0  0  0  0  0  0  0  0
   28.6115   -6.0345    0.0000 C   0  0  0  0  0  0  0  0  0  0  0  0
   29.1184   -7.4463    0.0000 C   0  0  0  0  0  0  0  0  0  0  0  0
   30.5945   -7.7131    0.0000 C   0  0  0  0  0  0  0  0  0  0  0  0
   29.1119   -8.9463    0.0000 C   0  0  0  0  0  0  0  0  0  0  0  0
   27.1289   -7.2677    0.0000 C   0  0  0  0  0  0  0  0  0  0  0  0
   28.3229   -8.1756    0.0000 O   0  0  0  0  0  0  0  0  0  0  0  0
   25.8266   -8.0121    0.0000 O   0  0  0  0  0  0  0  0  0  0  0  0
  -30.7432   -2.8072    0.0000 H   0  0  0  0  0  0  0  0  0  0  0  0
  -31.3751    1.6407    0.0000 H   0  0  0  0  0  0  0  0  0  0  0  0
  -34.1104    2.8727    0.0000 H   0  0  0  0  0  0  0  0  0  0  0  0
  -33.1524   -3.0163    0.0000 H   0  0  0  0  0  0  0  0  0  0  0  0
  -39.8935   -5.4392    0.0000 H   0  0  0  0  0  0  0  0  0  0  0  0
  -41.4779   -0.4905    0.0000 H   0  0  0  0  0  0  0  0  0  0  0  0
  -38.6207    0.4243    0.0000 H   0  0  0  0  0  0  0  0  0  0  0  0
  -43.2247   -2.4137    0.0000 H   0  0  0  0  0  0  0  0  0  0  0  0
  -33.5428   -0.6780    0.0000 H   0  0  0  0  0  0  0  0  0  0  0  0
  -31.2770   -2.8726    0.0000 H   0  0  0  0  0  0  0  0  0  0  0  0
  -34.8157   -6.5415    0.0000 H   0  0  0  0  0  0  0  0  0  0  0  0
  -32.2767   -7.0926    0.0000 H   0  0  0  0  0  0  0  0  0  0  0  0
  -28.3390   -2.5762    0.0000 H   0  0  0  0  0  0  0  0  0  0  0  0
  -26.4279    1.0326    0.0000 H   0  0  0  0  0  0  0  0  0  0  0  0
  -28.3466    0.8393    0.0000 H   0  0  0  0  0  0  0  0  0  0  0  0
  -24.8299   -1.8700    0.0000 H   0  0  0  0  0  0  0  0  0  0  0  0
  -26.7486   -2.0633    0.0000 H   0  0  0  0  0  0  0  0  0  0  0  0
  -23.1691   -2.0554    0.0000 H   0  0  0  0  0  0  0  0  0  0  0  0
  -23.1766    1.3601    0.0000 H   0  0  0  0  0  0  0  0  0  0  0  0
  -20.8888    3.0072    0.0000 H   0  0  0  0  0  0  0  0  0  0  0  0
  -22.6256    2.1694    0.0000 H   0  0  0  0  0  0  0  0  0  0  0  0
  -17.4196    2.7543    0.0000 H   0  0  0  0  0  0  0  0  0  0  0  0
  -19.5696    4.0332    0.0000 H   0  0  0  0  0  0  0  0  0  0  0  0
  -19.3018    2.0583    0.0000 H   0  0  0  0  0  0  0  0  0  0  0  0
  -18.9936   -1.2821    0.0000 H   0  0  0  0  0  0  0  0  0  0  0  0
  -16.4232   -2.4398    0.0000 H   0  0  0  0  0  0  0  0  0  0  0  0
  -18.2922   -1.9652    0.0000 H   0  0  0  0  0  0  0  0  0  0  0  0
  -14.5568   -1.7282    0.0000 H   0  0  0  0  0  0  0  0  0  0  0  0
  -15.2333   -1.2447    0.0000 H   0  0  0  0  0  0  0  0  0  0  0  0
  -15.4216    2.1413    0.0000 H   0  0  0  0  0  0  0  0  0  0  0  0
  -13.1338    3.7885    0.0000 H   0  0  0  0  0  0  0  0  0  0  0  0
  -14.8706    2.9506    0.0000 H   0  0  0  0  0  0  0  0  0  0  0  0
  -11.1629    3.4634    0.0000 H   0  0  0  0  0  0  0  0  0  0  0  0
  -11.7294    2.8547    0.0000 H   0  0  0  0  0  0  0  0  0  0  0  0
  -11.2386   -0.5009    0.0000 H   0  0  0  0  0  0  0  0  0  0  0  0
   -8.0376   -1.0857    0.0000 H   0  0  0  0  0  0  0  0  0  0  0  0
   -8.2008    0.6912    0.0000 H   0  0  0  0  0  0  0  0  0  0  0  0
  -12.3268   -1.2608    0.0000 H   0  0  0  0  0  0  0  0  0  0  0  0
  -12.9456   -4.0297    0.0000 H   0  0  0  0  0  0  0  0  0  0  0  0
  -10.7966   -6.1230    0.0000 H   0  0  0  0  0  0  0  0  0  0  0  0
   -7.9093   -5.3086    0.0000 H   0  0  0  0  0  0  0  0  0  0  0  0
   -7.1709   -2.4009    0.0000 H   0  0  0  0  0  0  0  0  0  0  0  0
   -7.4783   -0.4635    0.0000 H   0  0  0  0  0  0  0  0  0  0  0  0
   -7.6666    2.9225    0.0000 H   0  0  0  0  0  0  0  0  0  0  0  0
   -4.3117    3.5483    0.0000 H   0  0  0  0  0  0  0  0  0  0  0  0
   -5.3788    4.5697    0.0000 H   0  0  0  0  0  0  0  0  0  0  0  0
   -7.1156    3.7318    0.0000 H   0  0  0  0  0  0  0  0  0  0  0  0
   -3.9744    3.6360    0.0000 H   0  0  0  0  0  0  0  0  0  0  0  0
   -3.4836    0.2804    0.0000 H   0  0  0  0  0  0  0  0  0  0  0  0
   -0.2826   -0.3045    0.0000 H   0  0  0  0  0  0  0  0  0  0  0  0
   -0.4459    1.4725    0.0000 H   0  0  0  0  0  0  0  0  0  0  0  0
    0.2767    0.3177    0.0000 H   0  0  0  0  0  0  0  0  0  0  0  0
    0.0884    3.7038    0.0000 H   0  0  0  0  0  0  0  0  0  0  0  0
    2.3762    5.3509    0.0000 H   0  0  0  0  0  0  0  0  0  0  0  0
    0.6393    4.5131    0.0000 H   0  0  0  0  0  0  0  0  0  0  0  0
    3.3105    1.1950    0.0000 H   0  0  0  0  0  0  0  0  0  0  0  0
    6.6098    1.1707    0.0000 H   0  0  0  0  0  0  0  0  0  0  0  0
    7.9905    3.4526    0.0000 H   0  0  0  0  0  0  0  0  0  0  0  0
    6.6871    6.1547    0.0000 H   0  0  0  0  0  0  0  0  0  0  0  0
    3.6953    6.3769    0.0000 H   0  0  0  0  0  0  0  0  0  0  0  0
    3.9631    4.4020    0.0000 H   0  0  0  0  0  0  0  0  0  0  0  0
    4.2714    1.0616    0.0000 H   0  0  0  0  0  0  0  0  0  0  0  0
    7.4724    0.4767    0.0000 H   0  0  0  0  0  0  0  0  0  0  0  0
    7.3091    2.2537    0.0000 H   0  0  0  0  0  0  0  0  0  0  0  0
    3.0814    0.1493    0.0000 H   0  0  0  0  0  0  0  0  0  0  0  0
    2.5643   -2.4673    0.0000 H   0  0  0  0  0  0  0  0  0  0  0  0
    4.7133   -4.5606    0.0000 H   0  0  0  0  0  0  0  0  0  0  0  0
    7.6007   -3.7461    0.0000 H   0  0  0  0  0  0  0  0  0  0  0  0
    8.3390   -0.8384    0.0000 H   0  0  0  0  0  0  0  0  0  0  0  0
    8.0317    1.0989    0.0000 H   0  0  0  0  0  0  0  0  0  0  0  0
    7.8433    4.4850    0.0000 H   0  0  0  0  0  0  0  0  0  0  0  0
   10.1312    6.1321    0.0000 H   0  0  0  0  0  0  0  0  0  0  0  0
    8.3943    5.2943    0.0000 H   0  0  0  0  0  0  0  0  0  0  0  0
   11.8704    7.1690    0.0000 H   0  0  0  0  0  0  0  0  0  0  0  0
   14.8908    5.9335    0.0000 H   0  0  0  0  0  0  0  0  0  0  0  0
   14.7587    2.8259    0.0000 H   0  0  0  0  0  0  0  0  0  0  0  0
   11.7181    5.1832    0.0000 H   0  0  0  0  0  0  0  0  0  0  0  0
   11.8815    1.9550    0.0000 H   0  0  0  0  0  0  0  0  0  0  0  0
   15.1775    2.8910    0.0000 H   0  0  0  0  0  0  0  0  0  0  0  0
   15.6438   -0.0429    0.0000 H   0  0  0  0  0  0  0  0  0  0  0  0
   14.5147   -0.5876    0.0000 H   0  0  0  0  0  0  0  0  0  0  0  0
   12.7317   -0.6577    0.0000 H   0  0  0  0  0  0  0  0  0  0  0  0
   12.1433    1.0269    0.0000 H   0  0  0  0  0  0  0  0  0  0  0  0
   15.7866    1.8801    0.0000 H   0  0  0  0  0  0  0  0  0  0  0  0
   15.5983    5.2662    0.0000 H   0  0  0  0  0  0  0  0  0  0  0  0
   17.8861    6.9133    0.0000 H   0  0  0  0  0  0  0  0  0  0  0  0
   16.1493    6.0755    0.0000 H   0  0  0  0  0  0  0  0  0  0  0  0
   19.8570    6.5883    0.0000 H   0  0  0  0  0  0  0  0  0  0  0  0
   20.5768    5.0967    0.0000 H   0  0  0  0  0  0  0  0  0  0  0  0
   19.5391    3.9424    0.0000 H   0  0  0  0  0  0  0  0  0  0  0  0
   17.7798    6.1952    0.0000 H   0  0  0  0  0  0  0  0  0  0  0  0
   18.9588    7.4485    0.0000 H   0  0  0  0  0  0  0  0  0  0  0  0
   20.0887    7.8103    0.0000 H   0  0  0  0  0  0  0  0  0  0  0  0
   21.9951    7.1817    0.0000 H   0  0  0  0  0  0  0  0  0  0  0  0
   22.6883    6.2189    0.0000 H   0  0  0  0  0  0  0  0  0  0  0  0
   22.7943    4.3544    0.0000 H   0  0  0  0  0  0  0  0  0  0  0  0
   20.0664    2.6426    0.0000 H   0  0  0  0  0  0  0  0  0  0  0  0
   20.6694    1.0103    0.0000 H   0  0  0  0  0  0  0  0  0  0  0  0
   23.7866    2.4064    0.0000 H   0  0  0  0  0  0  0  0  0  0  0  0
   26.2219    0.9863    0.0000 H   0  0  0  0  0  0  0  0  0  0  0  0
   24.7500    2.2322    0.0000 H   0  0  0  0  0  0  0  0  0  0  0  0
   22.7837   -1.7395    0.0000 H   0  0  0  0  0  0  0  0  0  0  0  0
   24.1250   -4.5815    0.0000 H   0  0  0  0  0  0  0  0  0  0  0  0
   28.2689   -4.9997    0.0000 H   0  0  0  0  0  0  0  0  0  0  0  0
   28.7096   -2.6250    0.0000 H   0  0  0  0  0  0  0  0  0  0  0  0
   27.6957    0.1985    0.0000 H   0  0  0  0  0  0  0  0  0  0  0  0
   26.0005   -0.8494    0.0000 H   0  0  0  0  0  0  0  0  0  0  0  0
   23.1178   -2.3117    0.0000 H   0  0  0  0  0  0  0  0  0  0  0  0
   24.0247   -5.6638    0.0000 H   0  0  0  0  0  0  0  0  0  0  0  0
   25.3988   -4.7799    0.0000 H   0  0  0  0  0  0  0  0  0  0  0  0
   21.1203   -3.9731    0.0000 H   0  0  0  0  0  0  0  0  0  0  0  0
   22.3764   -2.9283    0.0000 H   0  0  0  0  0  0  0  0  0  0  0  0
   22.0273   -7.3252    0.0000 H   0  0  0  0  0  0  0  0  0  0  0  0
   23.4663   -6.2700    0.0000 H   0  0  0  0  0  0  0  0  0  0  0  0
   20.0363   -7.4866    0.0000 H   0  0  0  0  0  0  0  0  0  0  0  0
   19.0793   -5.8124    0.0000 H   0  0  0  0  0  0  0  0  0  0  0  0
   20.3790   -4.5897    0.0000 H   0  0  0  0  0  0  0  0  0  0  0  0
   24.6378   -5.9097    0.0000 H   0  0  0  0  0  0  0  0  0  0  0  0
   27.6545   -4.3604    0.0000 H   0  0  0  0  0  0  0  0  0  0  0  0
   30.0478   -5.6022    0.0000 H   0  0  0  0  0  0  0  0  0  0  0  0
   28.8007   -4.5465    0.0000 H   0  0  0  0  0  0  0  0  0  0  0  0
   27.8294   -8.2134    0.0000 H   0  0  0  0  0  0  0  0  0  0  0  0
   31.2697   -9.0526    0.0000 H   0  0  0  0  0  0  0  0  0  0  0  0
   32.0728   -7.4591    0.0000 H   0  0  0  0  0  0  0  0  0  0  0  0
   30.7837   -6.2251    0.0000 H   0  0  0  0  0  0  0  0  0  0  0  0
   30.3059   -9.8542    0.0000 H   0  0  0  0  0  0  0  0  0  0  0  0
   28.5928  -10.3536    0.0000 H   0  0  0  0  0  0  0  0  0  0  0  0
   27.6358   -8.6794    0.0000 H   0  0  0  0  0  0  0  0  0  0  0  0
  1  2  1  0
  2  3  1  0
  3  4  2  0
  4  5  1  0
  5  6  2  0
  6  7  1  0
  7  8  2  0
  7  9  1  0
  9 10  1  0
 10 11  1  0
 11 12  2  0
  9 13  1  0
 13 14  1  0
 14 15  2  0
 15 16  1  0
 16 17  2  0
 17 18  1  0
 16 19  1  0
 14 20  1  0
 20 21  1  0
 21 22  2  0
 22 23  1  0
 23 24  2  0
 24 25  1  0
 25 26  2  0
 25 27  1  0
  1 28  2  0
  1 29  1  0
 29 30  1  0
 30 31  1  0
 31 32  1  0
 32 33  2  0
 32 34  1  0
 34 35  1  0
 35 36  1  0
 36 37  1  0
 37 38  1  0
 37 39  2  0
 35 40  1  0
 40 41  2  0
 40 42  1  0
 42 43  1  0
 43 44  1  0
 44 45  1  0
 43 46  1  0
 46 47  2  0
 46 48  1  0
 48 49  1  0
 49 50  1  0
 50 51  1  0
 49 52  1  0
 52 53  2  0
 52 54  1  0
 54 55  1  0
 55 56  1  0
 56 57  1  0
 57 58  2  0
 58 59  1  0
 59 60  2  0
 60 61  1  0
 61 62  2  0
 55 63  1  0
 63 64  2  0
 63 65  1  0
 65 66  1  0
 66 67  1  0
 66 68  1  0
 68 69  2  0
 68 70  1  0
 70 71  1  0
 71 72  1  0
 72 73  1  0
 73 74  2  0
 73 75  1  0
 71 76  1  0
 76 77  2  0
 76 78  1  0
 78 79  1  0
 79 80  1  0
 80 81  1  0
 81 82  2  0
 82 83  1  0
 83 84  2  0
 84 85  1  0
 85 86  2  0
 79 87  1  0
 87 88  2  0
 87 89  1  0
 89 90  1  0
 90 91  1  0
 91 92  1  0
 92 93  2  0
 93 94  1  0
 94 95  2  0
 95 96  1  0
 96 97  2  0
 90 98  1  0
 98 99  2  0
 98100  1  0
100101  1  0
101102  1  0
102103  1  0
103104  2  0
104105  1  0
105106  1  0
106107  2  0
101108  1  0
108109  2  0
108110  1  0
110111  1  0
111112  1  0
112113  1  0
112114  1  0
111115  1  0
115116  2  0
115117  1  0
117118  1  0
118119  1  0
119120  1  0
118121  1  0
121122  2  0
121123  1  0
123124  1  0
124125  1  0
125126  1  0
126127  1  0
127128  1  0
128129  2  0
128130  1  0
130131  1  0
131132  1  0
132133  1  0
133134  2  0
134135  1  0
135136  2  0
136137  1  0
136138  1  0
138139  2  0
131140  1  0
140141  2  0
140142  1  0
142143  1  0
143144  1  0
144145  1  0
145146  1  0
146147  1  0
143148  1  0
148149  2  0
148150  1  0
150151  1  0
151152  1  0
152153  1  0
153154  1  0
153155  1  0
151156  1  0
156157  2  0
156158  1  0
  8  3  1  0
 62 57  1  0
 86 81  1  0
 97 92  1  0
107103  1  0
127123  1  0
139133  1  0
 11  6  1  0
 18 13  2  0
 22  9  1  0
 26 21  1  0
  2159  1  0
  4160  1  0
  5161  1  0
  8162  1  0
 15163  1  0
 17164  1  0
 18165  1  0
 19166  1  0
 23167  1  0
 24168  1  0
 26169  1  0
 27170  1  0
 29171  1  0
 30172  1  0
 30173  1  0
 31174  1  0
 31175  1  0
 34176  1  0
 35177  1  1
 36178  1  0
 36179  1  0
 38180  1  0
 38181  1  0
 42182  1  0
 43183  1  6
 44184  1  0
 44185  1  0
 45186  1  0
 48187  1  0
 49188  1  1
 50189  1  0
 50190  1  0
 51191  1  0
 54192  1  0
 55193  1  6
 56194  1  0
 56195  1  0
 58196  1  0
 59197  1  0
 60198  1  0
 61199  1  0
 62200  1  0
 65201  1  0
 66202  1  1
 67203  1  0
 67204  1  0
 67205  1  0
 70206  1  0
 71207  1  6
 72208  1  0
 72209  1  0
 78210  1  0
 79211  1  1
 80212  1  0
 80213  1  0
 82214  1  0
 83215  1  0
 84216  1  0
 85217  1  0
 86218  1  0
 89219  1  0
 90220  1  6
 91221  1  0
 91222  1  0
 93223  1  0
 94224  1  0
 95225  1  0
 96226  1  0
 97227  1  0
100228  1  0
101229  1  1
102230  1  0
102231  1  0
104232  1  0
105233  1  0
106234  1  0
110235  1  0
111236  1  6
112237  1  1
113238  1  0
114239  1  0
114240  1  0
114241  1  0
117242  1  0
118243  1  1
119244  1  0
119245  1  0
120246  1  0
120247  1  0
120248  1  0
124249  1  0
124250  1  0
125251  1  0
125252  1  0
126253  1  0
126254  1  0
127255  1  0
130256  1  0
131257  1  1
132258  1  0
132259  1  0
134260  1  0
135261  1  0
137262  1  0
138263  1  0
139264  1  0
142265  1  0
143266  1  1
144267  1  0
144268  1  0
145269  1  0
145270  1  0
146271  1  0
146272  1  0
147273  1  0
147274  1  0
147275  1  0
150276  1  0
151277  1  1
152278  1  0
152279  1  0
153280  1  0
154281  1  0
154282  1  0
154283  1  0
155284  1  0
155285  1  0
155286  1  0
M  CHG  2  75  -1 158  -1
M  END
