
     RDKit          2D

223230  0  0  0  0  0  0  0  0999 V2000
  -24.2050    0.2937    0.0000 C   0  0  0  0  0  0  0  0  0  0  0  0
  -25.5032   -0.4578    0.0000 N   0  0  0  0  0  0  0  0  0  0  0  0
  -26.8031    0.2907    0.0000 C   0  0  0  0  0  0  0  0  0  0  0  0
  -26.8048    1.7907    0.0000 C   0  0  0  0  0  0  0  0  0  0  0  0
  -28.1047    2.5392    0.0000 C   0  0  0  0  0  0  0  0  0  0  0  0
  -29.4029    1.7877    0.0000 C   0  0  0  0  0  0  0  0  0  0  0  0
  -29.4011    0.2877    0.0000 C   0  0  0  0  0  0  0  0  0  0  0  0
  -28.1012   -0.4608    0.0000 C   0  0  0  0  0  0  0  0  0  0  0  0
  -30.8272   -0.1775    0.0000 C   0  0  0  0  0  0  0  0  0  0  0  0
  -31.7103    1.0350    0.0000 O   0  0  0  0  0  0  0  0  0  0  0  0
  -30.8300    2.2496    0.0000 C   0  0  0  0  0  0  0  0  0  0  0  0
  -31.2951    3.6756    0.0000 O   0  0  0  0  0  0  0  0  0  0  0  0
  -32.2940   -0.4910    0.0000 C   0  0  0  0  0  0  0  0  0  0  0  0
  -32.7559   -1.9181    0.0000 C   0  0  0  0  0  0  0  0  0  0  0  0
  -34.2228   -2.2317    0.0000 C   0  0  0  0  0  0  0  0  0  0  0  0
  -35.2278   -1.1181    0.0000 C   0  0  0  0  0  0  0  0  0  0  0  0
  -34.7659    0.3090    0.0000 C   0  0  0  0  0  0  0  0  0  0  0  0
  -33.2990    0.6225    0.0000 C   0  0  0  0  0  0  0  0  0  0  0  0
  -36.6946   -1.4317    0.0000 O   0  0  0  0  0  0  0  0  0  0  0  0
  -31.7510   -3.0317    0.0000 O   0  0  0  0  0  0  0  0  0  0  0  0
  -30.2841   -2.7182    0.0000 C   0  0  0  0  0  0  0  0  0  0  0  0
  -29.8222   -1.2910    0.0000 C   0  0  0  0  0  0  0  0  0  0  0  0
  -28.5709   -1.6435    0.0000 C   0  0  0  0  0  0  0  0  0  0  0  0
  -28.0349   -2.2374    0.0000 C   0  0  0  0  0  0  0  0  0  0  0  0
  -28.2812   -2.9985    0.0000 C   0  0  0  0  0  0  0  0  0  0  0  0
  -29.0636   -3.1657    0.0000 C   0  0  0  0  0  0  0  0  0  0  0  0
  -26.8073   -4.6317    0.0000 O   0  0  0  0  0  0  0  0  0  0  0  0
  -24.2067    1.7937    0.0000 S   0  0  0  0  0  0  0  0  0  0  0  0
  -22.9051   -0.4549    0.0000 N   0  0  0  0  0  0  0  0  0  0  0  0
  -21.6069    0.2966    0.0000 C   0  0  0  0  0  0  0  0  0  0  0  0
  -20.3070   -0.4519    0.0000 C   0  0  0  0  0  0  0  0  0  0  0  0
  -19.0088    0.2996    0.0000 O   0  0  0  0  0  0  0  0  0  0  0  0
  -17.7089   -0.4489    0.0000 C   0  0  0  0  0  0  0  0  0  0  0  0
  -16.4108    0.3026    0.0000 O   0  0  0  0  0  0  0  0  0  0  0  0
  -15.1109   -0.4459    0.0000 C   0  0  0  0  0  0  0  0  0  0  0  0
  -13.8127    0.3056    0.0000 C   0  0  0  0  0  0  0  0  0  0  0  0
  -12.5128   -0.4429    0.0000 O   0  0  0  0  0  0  0  0  0  0  0  0
  -11.2146    0.3086    0.0000 C   0  0  0  0  0  0  0  0  0  0  0  0
   -9.9147   -0.4399    0.0000 C   0  0  0  0  0  0  0  0  0  0  0  0
   -8.6165    0.3116    0.0000 C   0  0  0  0  0  0  0  0  0  0  0  0
   -8.6183    1.8116    0.0000 O   0  0  0  0  0  0  0  0  0  0  0  0
   -7.3166   -0.4369    0.0000 N   0  0  0  0  0  0  0  0  0  0  0  0
   -6.0185    0.3145    0.0000 C   0  0  0  0  0  0  0  0  0  0  0  0
   -4.7186   -0.4340    0.0000 C   0  0  0  0  0  0  0  0  0  0  0  0
   -4.7168   -1.9340    0.0000 O   0  0  0  0  0  0  0  0  0  0  0  0
   -3.4204    0.3175    0.0000 N   0  0  0  0  0  0  0  0  0  0  0  0
   -2.1205   -0.4310    0.0000 C   0  0  0  0  0  0  0  0  0  0  0  0
   -1.1550   -1.5789    0.0000 C   0  0  0  0  0  0  0  0  0  0  0  0
   -0.8223    0.3205    0.0000 C   0  0  0  0  0  0  0  0  0  0  0  0
   -0.8240    1.8205    0.0000 O   0  0  0  0  0  0  0  0  0  0  0  0
    0.4776   -0.4280    0.0000 N   0  0  0  0  0  0  0  0  0  0  0  0
    1.7758    0.3235    0.0000 C   0  0  0  0  0  0  0  0  0  0  0  0
    2.7386    1.4737    0.0000 C   0  0  0  0  0  0  0  0  0  0  0  0
    4.2161    1.2149    0.0000 C   0  0  0  0  0  0  0  0  0  0  0  0
    4.7308   -0.1940    0.0000 C   0  0  0  0  0  0  0  0  0  0  0  0
    6.2083   -0.4528    0.0000 C   0  0  0  0  0  0  0  0  0  0  0  0
    7.1712    0.6974    0.0000 C   0  0  0  0  0  0  0  0  0  0  0  0
    6.6565    2.1063    0.0000 C   0  0  0  0  0  0  0  0  0  0  0  0
    5.1790    2.3651    0.0000 C   0  0  0  0  0  0  0  0  0  0  0  0
    3.0757   -0.4250    0.0000 C   0  0  0  0  0  0  0  0  0  0  0  0
    2.7144   -1.8808    0.0000 O   0  0  0  0  0  0  0  0  0  0  0  0
    4.3738    0.3265    0.0000 N   0  0  0  0  0  0  0  0  0  0  0  0
    5.6737   -0.4220    0.0000 C   0  0  0  0  0  0  0  0  0  0  0  0
    5.9726   -1.8919    0.0000 C   0  0  0  0  0  0  0  0  0  0  0  0
    6.6915   -3.2084    0.0000 C   0  0  0  0  0  0  0  0  0  0  0  0
    7.7665   -4.2546    0.0000 C   0  0  0  0  0  0  0  0  0  0  0  0
    9.1021   -4.9373    0.0000 C   0  0  0  0  0  0  0  0  0  0  0  0
    4.4568   -1.2990    0.0000 C   0  0  0  0  0  0  0  0  0  0  0  0
    5.8214    1.0707    0.0000 C   0  0  0  0  0  0  0  0  0  0  0  0
    4.5960    1.9359    0.0000 O   0  0  0  0  0  0  0  0  0  0  0  0
    6.4024    2.4536    0.0000 N   0  0  0  0  0  0  0  0  0  0  0  0
    7.3653    3.6038    0.0000 C   0  0  0  0  0  0  0  0  0  0  0  0
    7.1400    5.0867    0.0000 C   0  0  0  0  0  0  0  0  0  0  0  0
    5.7431    5.6331    0.0000 C   0  0  0  0  0  0  0  0  0  0  0  0
    5.5178    7.1161    0.0000 N   0  0  0  0  0  0  0  0  0  0  0  0
    4.5714    4.6966    0.0000 O   0  0  0  0  0  0  0  0  0  0  0  0
    8.6244    4.4190    0.0000 C   0  0  0  0  0  0  0  0  0  0  0  0
    8.0059    5.7856    0.0000 O   0  0  0  0  0  0  0  0  0  0  0  0
   10.0679    4.8269    0.0000 N   0  0  0  0  0  0  0  0  0  0  0  0
   11.5674    4.7913    0.0000 C   0  0  0  0  0  0  0  0  0  0  0  0
   12.5864    5.8920    0.0000 C   0  0  0  0  0  0  0  0  0  0  0  0
   12.1427    7.3249    0.0000 C   0  0  0  0  0  0  0  0  0  0  0  0
   13.1617    8.4256    0.0000 C   0  0  0  0  0  0  0  0  0  0  0  0
   11.2356    8.5195    0.0000 C   0  0  0  0  0  0  0  0  0  0  0  0
   12.9899    4.3152    0.0000 C   0  0  0  0  0  0  0  0  0  0  0  0
   13.6727    5.6508    0.0000 O   0  0  0  0  0  0  0  0  0  0  0  0
   14.2088    3.4410    0.0000 N   0  0  0  0  0  0  0  0  0  0  0  0
   15.1159    2.2463    0.0000 C   0  0  0  0  0  0  0  0  0  0  0  0
   16.6118    2.1359    0.0000 C   0  0  0  0  0  0  0  0  0  0  0  0
   17.4554    3.3762    0.0000 C   0  0  0  0  0  0  0  0  0  0  0  0
   18.9513    3.2659    0.0000 C   0  0  0  0  0  0  0  0  0  0  0  0
   19.7949    4.5062    0.0000 C   0  0  0  0  0  0  0  0  0  0  0  0
   19.1425    5.8569    0.0000 C   0  0  0  0  0  0  0  0  0  0  0  0
   17.6465    5.9673    0.0000 C   0  0  0  0  0  0  0  0  0  0  0  0
   16.8030    4.7270    0.0000 C   0  0  0  0  0  0  0  0  0  0  0  0
   15.6305    0.8373    0.0000 C   0  0  0  0  0  0  0  0  0  0  0  0
   17.1004    1.1363    0.0000 O   0  0  0  0  0  0  0  0  0  0  0  0
   15.7070   -0.6607    0.0000 N   0  0  0  0  0  0  0  0  0  0  0  0
   15.3385   -2.1147    0.0000 C   0  0  0  0  0  0  0  0  0  0  0  0
   14.5579   -3.3956    0.0000 C   0  0  0  0  0  0  0  0  0  0  0  0
   13.4343   -4.3894    0.0000 C   0  0  0  0  0  0  0  0  0  0  0  0
   12.0678   -5.0079    0.0000 C   0  0  0  0  0  0  0  0  0  0  0  0
   10.5796   -5.1961    0.0000 C   0  0  0  0  0  0  0  0  0  0  0  0
   16.8155   -1.8526    0.0000 C   0  0  0  0  0  0  0  0  0  0  0  0
   16.1850   -3.3531    0.0000 C   0  0  0  0  0  0  0  0  0  0  0  0
   15.8822   -4.8223    0.0000 O   0  0  0  0  0  0  0  0  0  0  0  0
   17.6806   -3.2393    0.0000 N   0  0  0  0  0  0  0  0  0  0  0  0
   18.5270   -4.4777    0.0000 C   0  0  0  0  0  0  0  0  0  0  0  0
   18.8988   -5.9309    0.0000 C   0  0  0  0  0  0  0  0  0  0  0  0
   17.8262   -6.9795    0.0000 O   0  0  0  0  0  0  0  0  0  0  0  0
   20.0227   -4.3639    0.0000 C   0  0  0  0  0  0  0  0  0  0  0  0
   20.6720   -3.0117    0.0000 O   0  0  0  0  0  0  0  0  0  0  0  0
   20.8691   -5.6023    0.0000 N   0  0  0  0  0  0  0  0  0  0  0  0
   22.3648   -5.4885    0.0000 C   0  0  0  0  0  0  0  0  0  0  0  0
   23.7313   -4.8700    0.0000 C   0  0  0  0  0  0  0  0  0  0  0  0
   24.9502   -5.7442    0.0000 C   0  0  0  0  0  0  0  0  0  0  0  0
   23.2112   -6.7268    0.0000 C   0  0  0  0  0  0  0  0  0  0  0  0
   24.7096   -6.7962    0.0000 O   0  0  0  0  0  0  0  0  0  0  0  0
   22.5619   -8.0790    0.0000 O   0  0  0  0  0  0  0  0  0  0  0  0
  -25.3186   -1.9464    0.0000 H   0  0  0  0  0  0  0  0  0  0  0  0
  -25.5066    2.5422    0.0000 H   0  0  0  0  0  0  0  0  0  0  0  0
  -28.1064    4.0392    0.0000 H   0  0  0  0  0  0  0  0  0  0  0  0
  -27.7366   -1.9158    0.0000 H   0  0  0  0  0  0  0  0  0  0  0  0
  -34.6847   -3.6588    0.0000 H   0  0  0  0  0  0  0  0  0  0  0  0
  -35.7709    1.4225    0.0000 H   0  0  0  0  0  0  0  0  0  0  0  0
  -32.8371    2.0497    0.0000 H   0  0  0  0  0  0  0  0  0  0  0  0
  -37.6996   -0.3181    0.0000 H   0  0  0  0  0  0  0  0  0  0  0  0
  -27.8935    0.4496    0.0000 H   0  0  0  0  0  0  0  0  0  0  0  0
  -25.8562   -1.9586    0.0000 H   0  0  0  0  0  0  0  0  0  0  0  0
  -29.7410   -5.2588    0.0000 H   0  0  0  0  0  0  0  0  0  0  0  0
  -27.2692   -6.0588    0.0000 H   0  0  0  0  0  0  0  0  0  0  0  0
  -22.9034   -1.9548    0.0000 H   0  0  0  0  0  0  0  0  0  0  0  0
  -20.6440    1.4468    0.0000 H   0  0  0  0  0  0  0  0  0  0  0  0
  -22.5724    1.4446    0.0000 H   0  0  0  0  0  0  0  0  0  0  0  0
  -19.4886   -1.7090    0.0000 H   0  0  0  0  0  0  0  0  0  0  0  0
  -21.2699   -1.6020    0.0000 H   0  0  0  0  0  0  0  0  0  0  0  0
  -16.8906   -1.7060    0.0000 H   0  0  0  0  0  0  0  0  0  0  0  0
  -18.5244   -1.7078    0.0000 H   0  0  0  0  0  0  0  0  0  0  0  0
  -14.1454   -1.5939    0.0000 H   0  0  0  0  0  0  0  0  0  0  0  0
  -15.9263   -1.7049    0.0000 H   0  0  0  0  0  0  0  0  0  0  0  0
  -12.9972    1.5646    0.0000 H   0  0  0  0  0  0  0  0  0  0  0  0
  -14.7782    1.4536    0.0000 H   0  0  0  0  0  0  0  0  0  0  0  0
  -10.2518    1.4588    0.0000 H   0  0  0  0  0  0  0  0  0  0  0  0
  -12.0330    1.5657    0.0000 H   0  0  0  0  0  0  0  0  0  0  0  0
   -8.9492   -1.5879    0.0000 H   0  0  0  0  0  0  0  0  0  0  0  0
  -10.8776   -1.5901    0.0000 H   0  0  0  0  0  0  0  0  0  0  0  0
   -7.3149   -1.9369    0.0000 H   0  0  0  0  0  0  0  0  0  0  0  0
   -5.0556    1.4647    0.0000 H   0  0  0  0  0  0  0  0  0  0  0  0
   -6.9840    1.4625    0.0000 H   0  0  0  0  0  0  0  0  0  0  0  0
   -3.4221    1.8175    0.0000 H   0  0  0  0  0  0  0  0  0  0  0  0
   -3.0833   -1.5811    0.0000 H   0  0  0  0  0  0  0  0  0  0  0  0
   -1.6664   -2.9891    0.0000 H   0  0  0  0  0  0  0  0  0  0  0  0
    0.0440   -2.4803    0.0000 H   0  0  0  0  0  0  0  0  0  0  0  0
    0.0576   -0.6959    0.0000 H   0  0  0  0  0  0  0  0  0  0  0  0
    0.6621   -1.9166    0.0000 H   0  0  0  0  0  0  0  0  0  0  0  0
    0.8103    1.4715    0.0000 H   0  0  0  0  0  0  0  0  0  0  0  0
    3.2500    2.8838    0.0000 H   0  0  0  0  0  0  0  0  0  0  0  0
    1.4387    2.2222    0.0000 H   0  0  0  0  0  0  0  0  0  0  0  0
    3.5182   -1.0771    0.0000 H   0  0  0  0  0  0  0  0  0  0  0  0
    7.0486   -1.6954    0.0000 H   0  0  0  0  0  0  0  0  0  0  0  0
    8.6487    0.4386    0.0000 H   0  0  0  0  0  0  0  0  0  0  0  0
    7.8691    2.9893    0.0000 H   0  0  0  0  0  0  0  0  0  0  0  0
    4.4964    3.7008    0.0000 H   0  0  0  0  0  0  0  0  0  0  0  0
    4.5550    1.8155    0.0000 H   0  0  0  0  0  0  0  0  0  0  0  0
    4.4730   -1.9237    0.0000 H   0  0  0  0  0  0  0  0  0  0  0  0
    5.0683   -3.0887    0.0000 H   0  0  0  0  0  0  0  0  0  0  0  0
    5.2678   -3.6808    0.0000 H   0  0  0  0  0  0  0  0  0  0  0  0
    6.0121   -4.5457    0.0000 H   0  0  0  0  0  0  0  0  0  0  0  0
    6.4483   -4.9702    0.0000 H   0  0  0  0  0  0  0  0  0  0  0  0
    7.6935   -5.7528    0.0000 H   0  0  0  0  0  0  0  0  0  0  0  0
    8.6260   -6.3598    0.0000 H   0  0  0  0  0  0  0  0  0  0  0  0
    4.2423   -2.7836    0.0000 H   0  0  0  0  0  0  0  0  0  0  0  0
    3.1550   -2.0441    0.0000 H   0  0  0  0  0  0  0  0  0  0  0  0
    3.4970   -0.1463    0.0000 H   0  0  0  0  0  0  0  0  0  0  0  0
    5.2263    3.3846    0.0000 H   0  0  0  0  0  0  0  0  0  0  0  0
    5.9209    4.0084    0.0000 H   0  0  0  0  0  0  0  0  0  0  0  0
    7.4356    6.5573    0.0000 H   0  0  0  0  0  0  0  0  0  0  0  0
    8.6037    5.4150    0.0000 H   0  0  0  0  0  0  0  0  0  0  0  0
    4.1209    7.6625    0.0000 H   0  0  0  0  0  0  0  0  0  0  0  0
    6.6895    8.0527    0.0000 H   0  0  0  0  0  0  0  0  0  0  0  0
    9.8796    6.3151    0.0000 H   0  0  0  0  0  0  0  0  0  0  0  0
   10.8192    6.0913    0.0000 H   0  0  0  0  0  0  0  0  0  0  0  0
   13.9941    6.4101    0.0000 H   0  0  0  0  0  0  0  0  0  0  0  0
   13.7556    4.9523    0.0000 H   0  0  0  0  0  0  0  0  0  0  0  0
   10.7350    6.8067    0.0000 H   0  0  0  0  0  0  0  0  0  0  0  0
   12.8958    9.9019    0.0000 H   0  0  0  0  0  0  0  0  0  0  0  0
   14.4957    9.1115    0.0000 H   0  0  0  0  0  0  0  0  0  0  0  0
   14.2076    7.3504    0.0000 H   0  0  0  0  0  0  0  0  0  0  0  0
   11.6437    9.9629    0.0000 H   0  0  0  0  0  0  0  0  0  0  0  0
    9.9746    9.3319    0.0000 H   0  0  0  0  0  0  0  0  0  0  0  0
   10.2166    7.4188    0.0000 H   0  0  0  0  0  0  0  0  0  0  0  0
   15.1161    4.6355    0.0000 H   0  0  0  0  0  0  0  0  0  0  0  0
   15.8317    3.5645    0.0000 H   0  0  0  0  0  0  0  0  0  0  0  0
   17.9798    1.5206    0.0000 H   0  0  0  0  0  0  0  0  0  0  0  0
   16.6061    0.6359    0.0000 H   0  0  0  0  0  0  0  0  0  0  0  0
   19.6037    1.9152    0.0000 H   0  0  0  0  0  0  0  0  0  0  0  0
   21.2908    4.3958    0.0000 H   0  0  0  0  0  0  0  0  0  0  0  0
   19.9860    7.0972    0.0000 H   0  0  0  0  0  0  0  0  0  0  0  0
   16.9942    7.3180    0.0000 H   0  0  0  0  0  0  0  0  0  0  0  0
   15.3317    5.0189    0.0000 H   0  0  0  0  0  0  0  0  0  0  0  0
   17.1997   -0.8083    0.0000 H   0  0  0  0  0  0  0  0  0  0  0  0
   15.0016   -4.8284    0.0000 H   0  0  0  0  0  0  0  0  0  0  0  0
   15.9575   -3.9351    0.0000 H   0  0  0  0  0  0  0  0  0  0  0  0
   13.6189   -5.8780    0.0000 H   0  0  0  0  0  0  0  0  0  0  0  0
   14.6127   -5.3175    0.0000 H   0  0  0  0  0  0  0  0  0  0  0  0
   11.6273   -6.4418    0.0000 H   0  0  0  0  0  0  0  0  0  0  0  0
   13.0644   -6.1290    0.0000 H   0  0  0  0  0  0  0  0  0  0  0  0
   10.5440   -6.6957    0.0000 H   0  0  0  0  0  0  0  0  0  0  0  0
   18.0300   -2.7328    0.0000 H   0  0  0  0  0  0  0  0  0  0  0  0
   18.0124   -0.9484    0.0000 H   0  0  0  0  0  0  0  0  0  0  0  0
   16.6570   -0.3610    0.0000 H   0  0  0  0  0  0  0  0  0  0  0  0
   18.4899   -1.9763    0.0000 H   0  0  0  0  0  0  0  0  0  0  0  0
   17.1605   -5.0962    0.0000 H   0  0  0  0  0  0  0  0  0  0  0  0
   19.5880   -7.2632    0.0000 H   0  0  0  0  0  0  0  0  0  0  0  0
   20.3744   -5.6614    0.0000 H   0  0  0  0  0  0  0  0  0  0  0  0
   18.1980   -8.4327    0.0000 H   0  0  0  0  0  0  0  0  0  0  0  0
   20.3895   -7.0235    0.0000 H   0  0  0  0  0  0  0  0  0  0  0  0
   21.9930   -4.0353    0.0000 H   0  0  0  0  0  0  0  0  0  0  0  0
   24.8039   -3.8214    0.0000 H   0  0  0  0  0  0  0  0  0  0  0  0
   22.8849   -3.6316    0.0000 H   0  0  0  0  0  0  0  0  0  0  0  0
   26.3168   -5.1257    0.0000 H   0  0  0  0  0  0  0  0  0  0  0  0
   25.7966   -6.9826    0.0000 H   0  0  0  0  0  0  0  0  0  0  0  0
   24.3248   -7.1076    0.0000 H   0  0  0  0  0  0  0  0  0  0  0  0
  1  2  1  0
  2  3  1  0
  3  4  2  0
  4  5  1  0
  5  6  2  0
  6  7  1  0
  7  8  2  0
  7  9  1  0
  9 10  1  0
 10 11  1  0
 11 12  2  0
  9 13  1  0
 13 14  1  0
 14 15  2  0
 15 16  1  0
 16 17  2  0
 17 18  1  0
 16 19  1  0
 14 20  1  0
 20 21  1  0
 21 22  2  0
 22 23  1  0
 23 24  2  0
 24 25  1  0
 25 26  2  0
 25 27  1  0
  1 28  2  0
  1 29  1  0
 29 30  1  0
 30 31  1  0
 31 32  1  0
 32 33  1  0
 33 34  1  0
 34 35  1  0
 35 36  1  0
 36 37  1  0
 37 38  1  0
 38 39  1  0
 39 40  1  0
 40 41  2  0
 40 42  1  0
 42 43  1  0
 43 44  1  0
 44 45  2  0
 44 46  1  0
 46 47  1  0
 47 48  1  0
 47 49  1  0
 49 50  2  0
 49 51  1  0
 51 52  1  0
 52 53  1  0
 53 54  1  0
 54 55  2  0
 55 56  1  0
 56 57  2  0
 57 58  1  0
 58 59  2  0
 52 60  1  0
 60 61  2  0
 60 62  1  0
 63 62  1  6
 63 64  1  0
 64 65  1  0
 65 66  1  0
 66 67  1  0
 63 68  1  0
 63 69  1  0
 69 70  2  0
 69 71  1  0
 71 72  1  0
 72 73  1  0
 73 74  1  0
 74 75  1  0
 74 76  2  0
 72 77  1  0
 77 78  2  0
 77 79  1  0
 79 80  1  0
 80 81  1  0
 81 82  1  0
 82 83  1  0
 82 84  1  0
 80 85  1  0
 85 86  2  0
 85 87  1  0
 87 88  1  0
 88 89  1  0
 89 90  1  0
 90 91  2  0
 91 92  1  0
 92 93  2  0
 93 94  1  0
 94 95  2  0
 88 96  1  0
 96 97  2  0
 96 98  1  0
 98 99  1  0
 99100  1  0
100101  1  0
101102  1  0
102103  1  0
 99104  1  0
 99105  1  6
105106  2  0
105107  1  0
107108  1  0
108109  1  0
109110  1  0
108111  1  0
111112  2  0
111113  1  0
113114  1  0
114115  1  0
115116  1  0
114117  1  0
117118  2  0
117119  1  0
  8  3  1  0
 59 54  1  0
 95 90  1  0
 11  6  1  0
 67103  2  0
 18 13  2  0
 22  9  1  0
 26 21  1  0
  2120  1  0
  4121  1  0
  5122  1  0
  8123  1  0
 15124  1  0
 17125  1  0
 18126  1  0
 19127  1  0
 23128  1  0
 24129  1  0
 26130  1  0
 27131  1  0
 29132  1  0
 30133  1  0
 30134  1  0
 31135  1  0
 31136  1  0
 33137  1  0
 33138  1  0
 35139  1  0
 35140  1  0
 36141  1  0
 36142  1  0
 38143  1  0
 38144  1  0
 39145  1  0
 39146  1  0
 42147  1  0
 43148  1  0
 43149  1  0
 46150  1  0
 47151  1  6
 48152  1  0
 48153  1  0
 48154  1  0
 51155  1  0
 52156  1  1
 53157  1  0
 53158  1  0
 55159  1  0
 56160  1  0
 57161  1  0
 58162  1  0
 59163  1  0
 62164  1  0
 64165  1  0
 64166  1  0
 65167  1  0
 65168  1  0
 66169  1  0
 66170  1  0
 67171  1  0
 68172  1  0
 68173  1  0
 68174  1  0
 71175  1  0
 72176  1  1
 73177  1  0
 73178  1  0
 75179  1  0
 75180  1  0
 79181  1  0
 80182  1  1
 81183  1  0
 81184  1  0
 82185  1  0
 83186  1  0
 83187  1  0
 83188  1  0
 84189  1  0
 84190  1  0
 84191  1  0
 87192  1  0
 88193  1  1
 89194  1  0
 89195  1  0
 91196  1  0
 92197  1  0
 93198  1  0
 94199  1  0
 95200  1  0
 98201  1  0
100202  1  0
100203  1  0
101204  1  0
101205  1  0
102206  1  0
102207  1  0
103208  1  0
104209  1  0
104210  1  0
104211  1  0
107212  1  0
108213  1  6
109214  1  0
109215  1  0
110216  1  0
113217  1  0
114218  1  1
115219  1  0
115220  1  0
116221  1  0
116222  1  0
116223  1  0
M  CHG  1 119  -1
M  END
