
     RDKit          2D

369375  0  0  0  0  0  0  0  0999 V2000
   24.0150    3.8542    0.0000 C   0  0  0  0  0  0  0  0  0  0  0  0
   24.0362    5.3541    0.0000 N   0  0  0  0  0  0  0  0  0  0  0  0
   25.3458    6.0856    0.0000 C   0  0  0  0  0  0  0  0  0  0  0  0
   26.6341    5.3172    0.0000 C   0  0  0  0  0  0  0  0  0  0  0  0
   27.9436    6.0487    0.0000 C   0  0  0  0  0  0  0  0  0  0  0  0
   27.9649    7.5485    0.0000 C   0  0  0  0  0  0  0  0  0  0  0  0
   26.6767    8.3169    0.0000 C   0  0  0  0  0  0  0  0  0  0  0  0
   25.3671    7.5854    0.0000 C   0  0  0  0  0  0  0  0  0  0  0  0
   27.0093    9.7795    0.0000 C   0  0  0  0  0  0  0  0  0  0  0  0
   28.5032    9.9151    0.0000 O   0  0  0  0  0  0  0  0  0  0  0  0
   29.0938    8.5363    0.0000 C   0  0  0  0  0  0  0  0  0  0  0  0
   30.5564    8.2036    0.0000 O   0  0  0  0  0  0  0  0  0  0  0  0
   27.4931   11.1994    0.0000 C   0  0  0  0  0  0  0  0  0  0  0  0
   26.5053   12.3283    0.0000 C   0  0  0  0  0  0  0  0  0  0  0  0
   26.9890   13.7481    0.0000 C   0  0  0  0  0  0  0  0  0  0  0  0
   28.4605   14.0391    0.0000 C   0  0  0  0  0  0  0  0  0  0  0  0
   29.4483   12.9103    0.0000 C   0  0  0  0  0  0  0  0  0  0  0  0
   28.9646   11.4904    0.0000 C   0  0  0  0  0  0  0  0  0  0  0  0
   28.9443   15.4590    0.0000 O   0  0  0  0  0  0  0  0  0  0  0  0
   25.0338   12.0373    0.0000 O   0  0  0  0  0  0  0  0  0  0  0  0
   24.5501   10.6174    0.0000 C   0  0  0  0  0  0  0  0  0  0  0  0
   25.5378    9.4885    0.0000 C   0  0  0  0  0  0  0  0  0  0  0  0
   24.5931    8.5955    0.0000 C   0  0  0  0  0  0  0  0  0  0  0  0
   23.8083    8.4403    0.0000 C   0  0  0  0  0  0  0  0  0  0  0  0
   23.2815    9.0423    0.0000 C   0  0  0  0  0  0  0  0  0  0  0  0
   23.5395    9.7996    0.0000 C   0  0  0  0  0  0  0  0  0  0  0  0
   21.1233    8.6155    0.0000 O   0  0  0  0  0  0  0  0  0  0  0  0
   25.3032    3.0859    0.0000 S   0  0  0  0  0  0  0  0  0  0  0  0
   22.7054    3.1228    0.0000 N   0  0  0  0  0  0  0  0  0  0  0  0
   22.6841    1.6229    0.0000 C   0  0  0  0  0  0  0  0  0  0  0  0
   21.3745    0.8914    0.0000 C   0  0  0  0  0  0  0  0  0  0  0  0
   21.3532   -0.6084    0.0000 C   0  0  0  0  0  0  0  0  0  0  0  0
   22.1163   -0.8390    0.0000 O   0  0  0  0  0  0  0  0  0  0  0  0
   20.0437   -1.3399    0.0000 N   0  0  0  0  0  0  0  0  0  0  0  0
   20.0224   -2.8397    0.0000 C   0  0  0  0  0  0  0  0  0  0  0  0
   21.5032   -2.6003    0.0000 C   0  0  0  0  0  0  0  0  0  0  0  0
   22.0361   -1.1982    0.0000 C   0  0  0  0  0  0  0  0  0  0  0  0
   23.5169   -0.9587    0.0000 C   0  0  0  0  0  0  0  0  0  0  0  0
   24.2168    0.3680    0.0000 O   0  0  0  0  0  0  0  0  0  0  0  0
   24.4647   -2.1213    0.0000 O   0  0  0  0  0  0  0  0  0  0  0  0
   19.4894   -4.2419    0.0000 C   0  0  0  0  0  0  0  0  0  0  0  0
   20.6903   -5.1406    0.0000 O   0  0  0  0  0  0  0  0  0  0  0  0
   18.0086   -4.4813    0.0000 N   0  0  0  0  0  0  0  0  0  0  0  0
   17.4756   -5.8834    0.0000 C   0  0  0  0  0  0  0  0  0  0  0  0
   18.9490   -6.1649    0.0000 C   0  0  0  0  0  0  0  0  0  0  0  0
   19.9294   -5.0296    0.0000 C   0  0  0  0  0  0  0  0  0  0  0  0
   21.4028   -5.3110    0.0000 C   0  0  0  0  0  0  0  0  0  0  0  0
   22.5142   -4.3037    0.0000 O   0  0  0  0  0  0  0  0  0  0  0  0
   21.8957   -6.7277    0.0000 O   0  0  0  0  0  0  0  0  0  0  0  0
   16.4952   -7.0187    0.0000 C   0  0  0  0  0  0  0  0  0  0  0  0
   17.3164   -8.2740    0.0000 O   0  0  0  0  0  0  0  0  0  0  0  0
   15.0219   -6.7373    0.0000 N   0  0  0  0  0  0  0  0  0  0  0  0
   14.0415   -7.8725    0.0000 C   0  0  0  0  0  0  0  0  0  0  0  0
   15.3297   -8.6409    0.0000 C   0  0  0  0  0  0  0  0  0  0  0  0
   16.6393   -7.9094    0.0000 C   0  0  0  0  0  0  0  0  0  0  0  0
   17.9276   -8.6778    0.0000 N   0  0  0  0  0  0  0  0  0  0  0  0
   17.0229   -6.4593    0.0000 O   0  0  0  0  0  0  0  0  0  0  0  0
   12.7319   -8.6040    0.0000 C   0  0  0  0  0  0  0  0  0  0  0  0
   12.8936  -10.0953    0.0000 O   0  0  0  0  0  0  0  0  0  0  0  0
   11.4437   -7.8357    0.0000 N   0  0  0  0  0  0  0  0  0  0  0  0
   10.1341   -8.5671    0.0000 C   0  0  0  0  0  0  0  0  0  0  0  0
   11.0819   -9.7298    0.0000 C   0  0  0  0  0  0  0  0  0  0  0  0
    8.6534   -8.8066    0.0000 C   0  0  0  0  0  0  0  0  0  0  0  0
    8.4755  -10.2960    0.0000 O   0  0  0  0  0  0  0  0  0  0  0  0
    7.7056   -7.6440    0.0000 N   0  0  0  0  0  0  0  0  0  0  0  0
    6.2248   -7.8834    0.0000 C   0  0  0  0  0  0  0  0  0  0  0  0
    6.7178   -9.3001    0.0000 C   0  0  0  0  0  0  0  0  0  0  0  0
    8.1912   -9.5815    0.0000 C   0  0  0  0  0  0  0  0  0  0  0  0
    8.6841  -10.9982    0.0000 C   0  0  0  0  0  0  0  0  0  0  0  0
   10.1575  -11.2796    0.0000 C   0  0  0  0  0  0  0  0  0  0  0  0
   10.6504  -12.6963    0.0000 N   0  0  0  0  0  0  0  0  0  0  0  0
    4.7515   -7.6020    0.0000 C   0  0  0  0  0  0  0  0  0  0  0  0
    4.0749   -8.9408    0.0000 O   0  0  0  0  0  0  0  0  0  0  0  0
    4.2585   -6.1853    0.0000 N   0  0  0  0  0  0  0  0  0  0  0  0
    2.7851   -5.9039    0.0000 C   0  0  0  0  0  0  0  0  0  0  0  0
    2.7638   -7.4038    0.0000 C   0  0  0  0  0  0  0  0  0  0  0  0
    4.0521   -8.1721    0.0000 C   0  0  0  0  0  0  0  0  0  0  0  0
    4.0308   -9.6720    0.0000 C   0  0  0  0  0  0  0  0  0  0  0  0
    5.3190  -10.4403    0.0000 N   0  0  0  0  0  0  0  0  0  0  0  0
    5.2978  -11.9402    0.0000 C   0  0  0  0  0  0  0  0  0  0  0  0
    6.5860  -12.7086    0.0000 N   0  0  0  0  0  0  0  0  0  0  0  0
    3.9882  -12.6717    0.0000 N   0  0  0  0  0  0  0  0  0  0  0  0
    1.4969   -5.1355    0.0000 C   0  0  0  0  0  0  0  0  0  0  0  0
    0.4032   -6.1622    0.0000 O   0  0  0  0  0  0  0  0  0  0  0  0
    1.5182   -3.6357    0.0000 N   0  0  0  0  0  0  0  0  0  0  0  0
    0.2299   -2.8673    0.0000 C   0  0  0  0  0  0  0  0  0  0  0  0
   -0.3031   -4.2694    0.0000 C   0  0  0  0  0  0  0  0  0  0  0  0
    0.6447   -5.4321    0.0000 C   0  0  0  0  0  0  0  0  0  0  0  0
    0.1117   -6.8342    0.0000 C   0  0  0  0  0  0  0  0  0  0  0  0
    1.0595   -7.9968    0.0000 N   0  0  0  0  0  0  0  0  0  0  0  0
    0.5265   -9.3989    0.0000 C   0  0  0  0  0  0  0  0  0  0  0  0
    1.4742  -10.5616    0.0000 N   0  0  0  0  0  0  0  0  0  0  0  0
   -0.9543   -9.6384    0.0000 N   0  0  0  0  0  0  0  0  0  0  0  0
   -0.7179   -1.7047    0.0000 C   0  0  0  0  0  0  0  0  0  0  0  0
   -2.0967   -2.2953    0.0000 O   0  0  0  0  0  0  0  0  0  0  0  0
   -0.1849   -0.3026    0.0000 N   0  0  0  0  0  0  0  0  0  0  0  0
   -1.1326    0.8601    0.0000 C   0  0  0  0  0  0  0  0  0  0  0  0
   -1.7535   -0.5054    0.0000 C   0  0  0  0  0  0  0  0  0  0  0  0
   -2.6215   -1.7287    0.0000 C   0  0  0  0  0  0  0  0  0  0  0  0
   -3.7054   -2.7657    0.0000 C   0  0  0  0  0  0  0  0  0  0  0  0
   -4.9659   -3.5787    0.0000 C   0  0  0  0  0  0  0  0  0  0  0  0
   -6.3575   -4.1385    0.0000 C   0  0  0  0  0  0  0  0  0  0  0  0
   -7.8300   -4.4249    0.0000 C   0  0  0  0  0  0  0  0  0  0  0  0
   -9.3300   -4.4274    0.0000 C   0  0  0  0  0  0  0  0  0  0  0  0
    0.3300    1.1930    0.0000 C   0  0  0  0  0  0  0  0  0  0  0  0
   -0.7814    2.3184    0.0000 C   0  0  0  0  0  0  0  0  0  0  0  0
    0.7183    2.2900    0.0000 O   0  0  0  0  0  0  0  0  0  0  0  0
   -0.7126    3.8168    0.0000 N   0  0  0  0  0  0  0  0  0  0  0  0
   -0.9285    5.3012    0.0000 C   0  0  0  0  0  0  0  0  0  0  0  0
    0.1219    6.3720    0.0000 C   0  0  0  0  0  0  0  0  0  0  0  0
    1.5745    5.9977    0.0000 C   0  0  0  0  0  0  0  0  0  0  0  0
    2.7311    6.9528    0.0000 C   0  0  0  0  0  0  0  0  0  0  0  0
    3.9969    6.1479    0.0000 N   0  0  0  0  0  0  0  0  0  0  0  0
    3.6226    4.6954    0.0000 C   0  0  0  0  0  0  0  0  0  0  0  0
    2.1254    4.6025    0.0000 N   0  0  0  0  0  0  0  0  0  0  0  0
   -1.4215    6.7178    0.0000 C   0  0  0  0  0  0  0  0  0  0  0  0
   -0.1445    7.5048    0.0000 O   0  0  0  0  0  0  0  0  0  0  0  0
   -2.1736    8.0156    0.0000 N   0  0  0  0  0  0  0  0  0  0  0  0
   -3.1578    9.1476    0.0000 C   0  0  0  0  0  0  0  0  0  0  0  0
   -2.8531   10.6163    0.0000 C   0  0  0  0  0  0  0  0  0  0  0  0
   -1.4287   11.0868    0.0000 C   0  0  0  0  0  0  0  0  0  0  0  0
   -1.1240   12.5555    0.0000 N   0  0  0  0  0  0  0  0  0  0  0  0
   -0.3092   10.0885    0.0000 O   0  0  0  0  0  0  0  0  0  0  0  0
   -4.3384   10.0729    0.0000 C   0  0  0  0  0  0  0  0  0  0  0  0
   -3.6896   11.4253    0.0000 O   0  0  0  0  0  0  0  0  0  0  0  0
   -5.6728   10.7580    0.0000 N   0  0  0  0  0  0  0  0  0  0  0  0
   -7.1128   11.1782    0.0000 C   0  0  0  0  0  0  0  0  0  0  0  0
   -7.6504   12.5785    0.0000 C   0  0  0  0  0  0  0  0  0  0  0  0
   -8.6062   11.3183    0.0000 C   0  0  0  0  0  0  0  0  0  0  0  0
   -8.7916   12.8068    0.0000 O   0  0  0  0  0  0  0  0  0  0  0  0
  -10.0992   11.1732    0.0000 N   0  0  0  0  0  0  0  0  0  0  0  0
  -11.5377   10.7482    0.0000 C   0  0  0  0  0  0  0  0  0  0  0  0
  -12.7471   11.6356    0.0000 C   0  0  0  0  0  0  0  0  0  0  0  0
  -12.5833   13.1266    0.0000 C   0  0  0  0  0  0  0  0  0  0  0  0
  -13.7927   14.0139    0.0000 C   0  0  0  0  0  0  0  0  0  0  0  0
  -11.9195   14.4717    0.0000 C   0  0  0  0  0  0  0  0  0  0  0  0
  -12.8698   10.0587    0.0000 C   0  0  0  0  0  0  0  0  0  0  0  0
  -13.8305   11.2107    0.0000 O   0  0  0  0  0  0  0  0  0  0  0  0
  -14.0474    9.1295    0.0000 N   0  0  0  0  0  0  0  0  0  0  0  0
  -15.0278    7.9942    0.0000 C   0  0  0  0  0  0  0  0  0  0  0  0
  -16.5249    8.0868    0.0000 C   0  0  0  0  0  0  0  0  0  0  0  0
  -17.1932    9.4297    0.0000 C   0  0  0  0  0  0  0  0  0  0  0  0
  -18.6904    9.5223    0.0000 C   0  0  0  0  0  0  0  0  0  0  0  0
  -19.3587   10.8652    0.0000 O   0  0  0  0  0  0  0  0  0  0  0  0
  -19.5192    8.2721    0.0000 O   0  0  0  0  0  0  0  0  0  0  0  0
  -15.7756    6.6939    0.0000 C   0  0  0  0  0  0  0  0  0  0  0  0
  -17.2066    7.1437    0.0000 O   0  0  0  0  0  0  0  0  0  0  0  0
  -16.2638    5.2756    0.0000 N   0  0  0  0  0  0  0  0  0  0  0  0
  -16.4748    3.7905    0.0000 C   0  0  0  0  0  0  0  0  0  0  0  0
  -17.7844    3.0590    0.0000 C   0  0  0  0  0  0  0  0  0  0  0  0
  -19.0726    3.8274    0.0000 C   0  0  0  0  0  0  0  0  0  0  0  0
  -20.3822    3.0959    0.0000 C   0  0  0  0  0  0  0  0  0  0  0  0
  -21.6705    3.8643    0.0000 N   0  0  0  0  0  0  0  0  0  0  0  0
  -22.9800    3.1328    0.0000 C   0  0  0  0  0  0  0  0  0  0  0  0
  -24.2683    3.9012    0.0000 N   0  0  0  0  0  0  0  0  0  0  0  0
  -23.0013    1.6330    0.0000 N   0  0  0  0  0  0  0  0  0  0  0  0
  -16.4010    2.2923    0.0000 C   0  0  0  0  0  0  0  0  0  0  0  0
  -17.8479    1.8970    0.0000 O   0  0  0  0  0  0  0  0  0  0  0  0
  -16.0449    0.8352    0.0000 N   0  0  0  0  0  0  0  0  0  0  0  0
  -15.4195   -0.5282    0.0000 C   0  0  0  0  0  0  0  0  0  0  0  0
  -14.5474   -1.7486    0.0000 C   0  0  0  0  0  0  0  0  0  0  0  0
  -13.4600   -2.7819    0.0000 C   0  0  0  0  0  0  0  0  0  0  0  0
  -12.1968   -3.5908    0.0000 C   0  0  0  0  0  0  0  0  0  0  0  0
  -10.8033   -4.1460    0.0000 C   0  0  0  0  0  0  0  0  0  0  0  0
  -16.9188   -0.4831    0.0000 C   0  0  0  0  0  0  0  0  0  0  0  0
  -16.1257   -1.8516    0.0000 C   0  0  0  0  0  0  0  0  0  0  0  0
  -15.6644   -3.2789    0.0000 O   0  0  0  0  0  0  0  0  0  0  0  0
  -17.6249   -1.9017    0.0000 N   0  0  0  0  0  0  0  0  0  0  0  0
  -18.3311   -3.2250    0.0000 C   0  0  0  0  0  0  0  0  0  0  0  0
  -18.5420   -4.7101    0.0000 C   0  0  0  0  0  0  0  0  0  0  0  0
  -19.9337   -5.2699    0.0000 C   0  0  0  0  0  0  0  0  0  0  0  0
  -20.1447   -6.7550    0.0000 C   0  0  0  0  0  0  0  0  0  0  0  0
  -21.5363   -7.3148    0.0000 N   0  0  0  0  0  0  0  0  0  0  0  0
  -21.7473   -8.7999    0.0000 C   0  0  0  0  0  0  0  0  0  0  0  0
  -23.1389   -9.3597    0.0000 N   0  0  0  0  0  0  0  0  0  0  0  0
  -20.5667   -9.7252    0.0000 N   0  0  0  0  0  0  0  0  0  0  0  0
  -19.8302   -3.2751    0.0000 C   0  0  0  0  0  0  0  0  0  0  0  0
  -20.6232   -2.0018    0.0000 O   0  0  0  0  0  0  0  0  0  0  0  0
  -20.5364   -4.5985    0.0000 N   0  0  0  0  0  0  0  0  0  0  0  0
  -22.0356   -4.6486    0.0000 C   0  0  0  0  0  0  0  0  0  0  0  0
  -23.4615   -4.1829    0.0000 C   0  0  0  0  0  0  0  0  0  0  0  0
  -23.7711   -2.7152    0.0000 C   0  0  0  0  0  0  0  0  0  0  0  0
  -25.1970   -2.2495    0.0000 C   0  0  0  0  0  0  0  0  0  0  0  0
  -25.5067   -0.7818    0.0000 N   0  0  0  0  0  0  0  0  0  0  0  0
  -26.9326   -0.3162    0.0000 C   0  0  0  0  0  0  0  0  0  0  0  0
  -27.2422    1.1515    0.0000 N   0  0  0  0  0  0  0  0  0  0  0  0
  -28.0488   -1.3182    0.0000 N   0  0  0  0  0  0  0  0  0  0  0  0
  -22.7418   -5.9719    0.0000 C   0  0  0  0  0  0  0  0  0  0  0  0
  -24.2237   -6.2044    0.0000 O   0  0  0  0  0  0  0  0  0  0  0  0
  -22.2805   -7.3992    0.0000 O   0  0  0  0  0  0  0  0  0  0  0  0
   22.6639    5.9597    0.0000 H   0  0  0  0  0  0  0  0  0  0  0  0
   26.6128    3.8174    0.0000 H   0  0  0  0  0  0  0  0  0  0  0  0
   29.2319    5.2803    0.0000 H   0  0  0  0  0  0  0  0  0  0  0  0
   23.9312    8.0192    0.0000 H   0  0  0  0  0  0  0  0  0  0  0  0
   26.0013   14.8770    0.0000 H   0  0  0  0  0  0  0  0  0  0  0  0
   30.9198   13.2013    0.0000 H   0  0  0  0  0  0  0  0  0  0  0  0
   29.9523   10.3616    0.0000 H   0  0  0  0  0  0  0  0  0  0  0  0
   30.4158   15.7500    0.0000 H   0  0  0  0  0  0  0  0  0  0  0  0
   26.0419    6.9398    0.0000 H   0  0  0  0  0  0  0  0  0  0  0  0
   22.9294    6.4274    0.0000 H   0  0  0  0  0  0  0  0  0  0  0  0
   22.0908   11.4553    0.0000 H   0  0  0  0  0  0  0  0  0  0  0  0
   20.1356    9.7444    0.0000 H   0  0  0  0  0  0  0  0  0  0  0  0
   21.4171    3.8911    0.0000 H   0  0  0  0  0  0  0  0  0  0  0  0
   24.1649    1.8624    0.0000 H   0  0  0  0  0  0  0  0  0  0  0  0
   23.3461    0.2769    0.0000 H   0  0  0  0  0  0  0  0  0  0  0  0
   20.8816    2.3081    0.0000 H   0  0  0  0  0  0  0  0  0  0  0  0
   19.8938    0.6520    0.0000 H   0  0  0  0  0  0  0  0  0  0  0  0
   18.7554   -0.5715    0.0000 H   0  0  0  0  0  0  0  0  0  0  0  0
   18.5490   -2.5583    0.0000 H   0  0  0  0  0  0  0  0  0  0  0  0
   22.9765   -2.8817    0.0000 H   0  0  0  0  0  0  0  0  0  0  0  0
   21.6648   -4.0915    0.0000 H   0  0  0  0  0  0  0  0  0  0  0  0
   22.0574    0.3017    0.0000 H   0  0  0  0  0  0  0  0  0  0  0  0
   20.6747   -0.5686    0.0000 H   0  0  0  0  0  0  0  0  0  0  0  0
   25.9454   -1.8819    0.0000 H   0  0  0  0  0  0  0  0  0  0  0  0
   17.0609   -3.3187    0.0000 H   0  0  0  0  0  0  0  0  0  0  0  0
   16.1874   -5.1151    0.0000 H   0  0  0  0  0  0  0  0  0  0  0  0
   20.2373   -6.9332    0.0000 H   0  0  0  0  0  0  0  0  0  0  0  0
   18.5909   -7.6215    0.0000 H   0  0  0  0  0  0  0  0  0  0  0  0
   20.4624   -3.6275    0.0000 H   0  0  0  0  0  0  0  0  0  0  0  0
   18.8654   -3.9723    0.0000 H   0  0  0  0  0  0  0  0  0  0  0  0
   23.3691   -7.0091    0.0000 H   0  0  0  0  0  0  0  0  0  0  0  0
   14.5289   -5.3206    0.0000 H   0  0  0  0  0  0  0  0  0  0  0  0
   13.0937   -6.7099    0.0000 H   0  0  0  0  0  0  0  0  0  0  0  0
   16.2775   -9.8035    0.0000 H   0  0  0  0  0  0  0  0  0  0  0  0
   14.3493   -9.7762    0.0000 H   0  0  0  0  0  0  0  0  0  0  0  0
   19.3165   -8.1114    0.0000 H   0  0  0  0  0  0  0  0  0  0  0  0
   17.9063  -10.1776    0.0000 H   0  0  0  0  0  0  0  0  0  0  0  0
   11.4650   -6.3358    0.0000 H   0  0  0  0  0  0  0  0  0  0  0  0
    9.6411   -7.1505    0.0000 H   0  0  0  0  0  0  0  0  0  0  0  0
   12.5808   -9.6726    0.0000 H   0  0  0  0  0  0  0  0  0  0  0  0
   11.7439  -11.0758    0.0000 H   0  0  0  0  0  0  0  0  0  0  0  0
    9.6929  -10.2962    0.0000 H   0  0  0  0  0  0  0  0  0  0  0  0
    8.2386   -6.2419    0.0000 H   0  0  0  0  0  0  0  0  0  0  0  0
    6.2461   -6.3836    0.0000 H   0  0  0  0  0  0  0  0  0  0  0  0
    6.5138  -10.7862    0.0000 H   0  0  0  0  0  0  0  0  0  0  0  0
    5.3390   -9.8908    0.0000 H   0  0  0  0  0  0  0  0  0  0  0  0
    9.6317   -9.1634    0.0000 H   0  0  0  0  0  0  0  0  0  0  0  0
    8.5747   -8.1314    0.0000 H   0  0  0  0  0  0  0  0  0  0  0  0
    8.6628  -12.4981    0.0000 H   0  0  0  0  0  0  0  0  0  0  0  0
    7.2436  -11.4164    0.0000 H   0  0  0  0  0  0  0  0  0  0  0  0
   11.6564  -11.2224    0.0000 H   0  0  0  0  0  0  0  0  0  0  0  0
   10.1788   -9.7798    0.0000 H   0  0  0  0  0  0  0  0  0  0  0  0
   12.1238  -12.9777    0.0000 H   0  0  0  0  0  0  0  0  0  0  0  0
    9.6700  -13.8316    0.0000 H   0  0  0  0  0  0  0  0  0  0  0  0
    5.2389   -5.0501    0.0000 H   0  0  0  0  0  0  0  0  0  0  0  0
    3.3181   -4.5018    0.0000 H   0  0  0  0  0  0  0  0  0  0  0  0
    2.0639   -8.7304    0.0000 H   0  0  0  0  0  0  0  0  0  0  0  0
    1.2662   -7.4872    0.0000 H   0  0  0  0  0  0  0  0  0  0  0  0
    5.5255   -8.4536    0.0000 H   0  0  0  0  0  0  0  0  0  0  0  0
    4.9085   -6.9407    0.0000 H   0  0  0  0  0  0  0  0  0  0  0  0
    3.4978  -11.0741    0.0000 H   0  0  0  0  0  0  0  0  0  0  0  0
    2.5341   -9.5723    0.0000 H   0  0  0  0  0  0  0  0  0  0  0  0
    6.7667  -10.0475    0.0000 H   0  0  0  0  0  0  0  0  0  0  0  0
    6.5647  -14.2084    0.0000 H   0  0  0  0  0  0  0  0  0  0  0  0
    3.9669  -14.1715    0.0000 H   0  0  0  0  0  0  0  0  0  0  0  0
    2.6999  -11.9033    0.0000 H   0  0  0  0  0  0  0  0  0  0  0  0
    2.8277   -2.9042    0.0000 H   0  0  0  0  0  0  0  0  0  0  0  0
    1.2103   -1.7321    0.0000 H   0  0  0  0  0  0  0  0  0  0  0  0
   -1.4146   -5.2767    0.0000 H   0  0  0  0  0  0  0  0  0  0  0  0
   -1.5913   -3.5011    0.0000 H   0  0  0  0  0  0  0  0  0  0  0  0
    1.9329   -6.2004    0.0000 H   0  0  0  0  0  0  0  0  0  0  0  0
    1.8707   -4.5678    0.0000 H   0  0  0  0  0  0  0  0  0  0  0  0
   -0.8687   -7.9695    0.0000 H   0  0  0  0  0  0  0  0  0  0  0  0
   -1.2606   -6.2286    0.0000 H   0  0  0  0  0  0  0  0  0  0  0  0
    2.5542   -8.1228    0.0000 H   0  0  0  0  0  0  0  0  0  0  0  0
    0.9413  -11.9637    0.0000 H   0  0  0  0  0  0  0  0  0  0  0  0
   -1.4873  -11.0405    0.0000 H   0  0  0  0  0  0  0  0  0  0  0  0
   -1.9021   -8.4758    0.0000 H   0  0  0  0  0  0  0  0  0  0  0  0
    1.3140   -0.2454    0.0000 H   0  0  0  0  0  0  0  0  0  0  0  0
   -0.2868   -0.8196    0.0000 H   0  0  0  0  0  0  0  0  0  0  0  0
   -1.2092   -1.9032    0.0000 H   0  0  0  0  0  0  0  0  0  0  0  0
   -1.3225   -2.4787    0.0000 H   0  0  0  0  0  0  0  0  0  0  0  0
   -2.1738   -3.1603    0.0000 H   0  0  0  0  0  0  0  0  0  0  0  0
   -2.2950   -3.2763    0.0000 H   0  0  0  0  0  0  0  0  0  0  0  0
   -3.3562   -4.2245    0.0000 H   0  0  0  0  0  0  0  0  0  0  0  0
   -3.7809   -4.4984    0.0000 H   0  0  0  0  0  0  0  0  0  0  0  0
   -4.8991   -5.0772    0.0000 H   0  0  0  0  0  0  0  0  0  0  0  0
   -5.3680   -5.2659    0.0000 H   0  0  0  0  0  0  0  0  0  0  0  0
   -6.5756   -5.6226    0.0000 H   0  0  0  0  0  0  0  0  0  0  0  0
   -7.0717   -5.7191    0.0000 H   0  0  0  0  0  0  0  0  0  0  0  0
   -8.4938   -5.7700    0.0000 H   0  0  0  0  0  0  0  0  0  0  0  0
   -9.4701   -5.9208    0.0000 H   0  0  0  0  0  0  0  0  0  0  0  0
    1.4761    0.2253    0.0000 H   0  0  0  0  0  0  0  0  0  0  0  0
    1.6802    1.8463    0.0000 H   0  0  0  0  0  0  0  0  0  0  0  0
    0.1000    2.6752    0.0000 H   0  0  0  0  0  0  0  0  0  0  0  0
    0.7856    3.8907    0.0000 H   0  0  0  0  0  0  0  0  0  0  0  0
    0.4974    4.8355    0.0000 H   0  0  0  0  0  0  0  0  0  0  0  0
    0.9046    7.6516    0.0000 H   0  0  0  0  0  0  0  0  0  0  0  0
   -0.8729    7.4946    0.0000 H   0  0  0  0  0  0  0  0  0  0  0  0
    2.6382    8.4499    0.0000 H   0  0  0  0  0  0  0  0  0  0  0  0
    5.3920    6.6989    0.0000 H   0  0  0  0  0  0  0  0  0  0  0  0
    4.5777    3.5388    0.0000 H   0  0  0  0  0  0  0  0  0  0  0  0
   -0.9532    8.8878    0.0000 H   0  0  0  0  0  0  0  0  0  0  0  0
   -1.7065    9.5268    0.0000 H   0  0  0  0  0  0  0  0  0  0  0  0
   -2.8865   12.1160    0.0000 H   0  0  0  0  0  0  0  0  0  0  0  0
   -4.2969   11.0229    0.0000 H   0  0  0  0  0  0  0  0  0  0  0  0
    0.3004   13.0259    0.0000 H   0  0  0  0  0  0  0  0  0  0  0  0
   -2.2435   13.5538    0.0000 H   0  0  0  0  0  0  0  0  0  0  0  0
   -5.1177   12.1515    0.0000 H   0  0  0  0  0  0  0  0  0  0  0  0
   -6.0969   12.2818    0.0000 H   0  0  0  0  0  0  0  0  0  0  0  0
   -6.7066   13.7443    0.0000 H   0  0  0  0  0  0  0  0  0  0  0  0
   -8.4893   13.8220    0.0000 H   0  0  0  0  0  0  0  0  0  0  0  0
   -9.0849   12.1399    0.0000 H   0  0  0  0  0  0  0  0  0  0  0  0
  -10.2039   12.6696    0.0000 H   0  0  0  0  0  0  0  0  0  0  0  0
  -11.1015   12.1834    0.0000 H   0  0  0  0  0  0  0  0  0  0  0  0
  -14.1871   12.0558    0.0000 H   0  0  0  0  0  0  0  0  0  0  0  0
  -13.7167   10.4911    0.0000 H   0  0  0  0  0  0  0  0  0  0  0  0
  -11.0845   13.0673    0.0000 H   0  0  0  0  0  0  0  0  0  0  0  0
  -13.8119   15.5138    0.0000 H   0  0  0  0  0  0  0  0  0  0  0  0
  -15.2327   14.4341    0.0000 H   0  0  0  0  0  0  0  0  0  0  0  0
  -14.6156   12.7598    0.0000 H   0  0  0  0  0  0  0  0  0  0  0  0
  -12.5942   15.8114    0.0000 H   0  0  0  0  0  0  0  0  0  0  0  0
  -10.8356   15.5086    0.0000 H   0  0  0  0  0  0  0  0  0  0  0  0
  -10.7101   13.5844    0.0000 H   0  0  0  0  0  0  0  0  0  0  0  0
  -14.9444   10.3316    0.0000 H   0  0  0  0  0  0  0  0  0  0  0  0
  -15.4367    9.4374    0.0000 H   0  0  0  0  0  0  0  0  0  0  0  0
  -18.0045    7.8404    0.0000 H   0  0  0  0  0  0  0  0  0  0  0  0
  -16.7218    6.5998    0.0000 H   0  0  0  0  0  0  0  0  0  0  0  0
  -17.3620   10.9202    0.0000 H   0  0  0  0  0  0  0  0  0  0  0  0
  -15.9003   10.1902    0.0000 H   0  0  0  0  0  0  0  0  0  0  0  0
  -21.0163    8.3648    0.0000 H   0  0  0  0  0  0  0  0  0  0  0  0
  -17.6684    5.8019    0.0000 H   0  0  0  0  0  0  0  0  0  0  0  0
  -17.5991    4.7835    0.0000 H   0  0  0  0  0  0  0  0  0  0  0  0
  -18.7648    1.9238    0.0000 H   0  0  0  0  0  0  0  0  0  0  0  0
  -17.1461    1.7016    0.0000 H   0  0  0  0  0  0  0  0  0  0  0  0
  -20.0204    4.9900    0.0000 H   0  0  0  0  0  0  0  0  0  0  0  0
  -18.3961    5.1661    0.0000 H   0  0  0  0  0  0  0  0  0  0  0  0
  -21.3626    1.9607    0.0000 H   0  0  0  0  0  0  0  0  0  0  0  0
  -19.5832    1.8264    0.0000 H   0  0  0  0  0  0  0  0  0  0  0  0
  -21.6492    5.3641    0.0000 H   0  0  0  0  0  0  0  0  0  0  0  0
  -25.5778    3.1697    0.0000 H   0  0  0  0  0  0  0  0  0  0  0  0
  -24.2119    0.7473    0.0000 H   0  0  0  0  0  0  0  0  0  0  0  0
  -21.7130    0.8646    0.0000 H   0  0  0  0  0  0  0  0  0  0  0  0
  -17.5111    0.5186    0.0000 H   0  0  0  0  0  0  0  0  0  0  0  0
  -14.9904   -3.1817    0.0000 H   0  0  0  0  0  0  0  0  0  0  0  0
  -15.9262   -2.3393    0.0000 H   0  0  0  0  0  0  0  0  0  0  0  0
  -13.8043   -4.2419    0.0000 H   0  0  0  0  0  0  0  0  0  0  0  0
  -14.7022   -3.6229    0.0000 H   0  0  0  0  0  0  0  0  0  0  0  0
  -12.0754   -5.0859    0.0000 H   0  0  0  0  0  0  0  0  0  0  0  0
  -13.3787   -4.5144    0.0000 H   0  0  0  0  0  0  0  0  0  0  0  0
  -11.2235   -5.5859    0.0000 H   0  0  0  0  0  0  0  0  0  0  0  0
  -17.9928   -1.5303    0.0000 H   0  0  0  0  0  0  0  0  0  0  0  0
  -18.3123    0.0721    0.0000 H   0  0  0  0  0  0  0  0  0  0  0  0
  -16.9785    1.0157    0.0000 H   0  0  0  0  0  0  0  0  0  0  0  0
  -18.5671   -0.7345    0.0000 H   0  0  0  0  0  0  0  0  0  0  0  0
  -16.9052   -3.6907    0.0000 H   0  0  0  0  0  0  0  0  0  0  0  0
  -18.0558   -6.1291    0.0000 H   0  0  0  0  0  0  0  0  0  0  0  0
  -17.0429   -4.6600    0.0000 H   0  0  0  0  0  0  0  0  0  0  0  0
  -21.4328   -5.3200    0.0000 H   0  0  0  0  0  0  0  0  0  0  0  0
  -20.8962   -4.1195    0.0000 H   0  0  0  0  0  0  0  0  0  0  0  0
  -19.8350   -8.2227    0.0000 H   0  0  0  0  0  0  0  0  0  0  0  0
  -18.6506   -6.8880    0.0000 H   0  0  0  0  0  0  0  0  0  0  0  0
  -22.9057   -6.7027    0.0000 H   0  0  0  0  0  0  0  0  0  0  0  0
  -23.3499  -10.8448    0.0000 H   0  0  0  0  0  0  0  0  0  0  0  0
  -20.7777  -11.2103    0.0000 H   0  0  0  0  0  0  0  0  0  0  0  0
  -19.1750   -9.1654    0.0000 H   0  0  0  0  0  0  0  0  0  0  0  0
  -20.0751   -6.0258    0.0000 H   0  0  0  0  0  0  0  0  0  0  0  0
  -21.6451   -3.2003    0.0000 H   0  0  0  0  0  0  0  0  0  0  0  0
  -24.9433   -4.4154    0.0000 H   0  0  0  0  0  0  0  0  0  0  0  0
  -23.8519   -5.6312    0.0000 H   0  0  0  0  0  0  0  0  0  0  0  0
  -23.5601   -1.2301    0.0000 H   0  0  0  0  0  0  0  0  0  0  0  0
  -22.2892   -2.4827    0.0000 H   0  0  0  0  0  0  0  0  0  0  0  0
  -26.6962   -2.2996    0.0000 H   0  0  0  0  0  0  0  0  0  0  0  0
  -25.5875   -3.6978    0.0000 H   0  0  0  0  0  0  0  0  0  0  0  0
  -24.2766    0.0766    0.0000 H   0  0  0  0  0  0  0  0  0  0  0  0
  -28.6681    1.6172    0.0000 H   0  0  0  0  0  0  0  0  0  0  0  0
  -29.4747   -0.8525    0.0000 H   0  0  0  0  0  0  0  0  0  0  0  0
  -27.7391   -2.7859    0.0000 H   0  0  0  0  0  0  0  0  0  0  0  0
  -22.6550   -8.5686    0.0000 H   0  0  0  0  0  0  0  0  0  0  0  0
  1  2  1  0
  2  3  1  0
  3  4  2  0
  4  5  1  0
  5  6  2  0
  6  7  1  0
  7  8  2  0
  7  9  1  0
  9 10  1  0
 10 11  1  0
 11 12  2  0
  9 13  1  0
 13 14  1  0
 14 15  2  0
 15 16  1  0
 16 17  2  0
 17 18  1  0
 16 19  1  0
 14 20  1  0
 20 21  1  0
 21 22  2  0
 22 23  1  0
 23 24  2  0
 24 25  1  0
 25 26  2  0
 25 27  1  0
  1 28  2  0
  1 29  1  0
 29 30  1  0
 30 31  1  0
 31 32  1  0
 32 33  2  0
 32 34  1  0
 34 35  1  0
 35 36  1  0
 36 37  1  0
 37 38  1  0
 38 39  2  0
 38 40  1  0
 35 41  1  0
 41 42  2  0
 41 43  1  0
 43 44  1  0
 44 45  1  0
 45 46  1  0
 46 47  1  0
 47 48  2  0
 47 49  1  0
 44 50  1  0
 50 51  2  0
 50 52  1  0
 52 53  1  0
 53 54  1  0
 54 55  1  0
 55 56  1  0
 55 57  2  0
 53 58  1  0
 58 59  2  0
 58 60  1  0
 60 61  1  0
 61 62  1  0
 61 63  1  0
 63 64  2  0
 63 65  1  0
 65 66  1  0
 66 67  1  0
 67 68  1  0
 68 69  1  0
 69 70  1  0
 70 71  1  0
 66 72  1  0
 72 73  2  0
 72 74  1  0
 74 75  1  0
 75 76  1  0
 76 77  1  0
 77 78  1  0
 78 79  1  0
 79 80  1  0
 80 81  2  3
 80 82  1  0
 75 83  1  0
 83 84  2  0
 83 85  1  0
 85 86  1  0
 86 87  1  0
 87 88  1  0
 88 89  1  0
 89 90  1  0
 90 91  1  0
 91 92  2  3
 91 93  1  0
 86 94  1  0
 94 95  2  0
 94 96  1  0
 97 96  1  6
 97 98  1  0
 98 99  1  0
 99100  1  0
100101  1  0
101102  1  0
102103  1  0
103104  1  0
 97105  1  0
 97106  1  0
106107  2  0
106108  1  0
108109  1  0
109110  1  0
110111  1  0
111112  2  0
112113  1  0
113114  1  0
114115  2  0
109116  1  0
116117  2  0
116118  1  0
118119  1  0
119120  1  0
120121  1  0
121122  1  0
121123  2  0
119124  1  0
124125  2  0
124126  1  0
126127  1  0
127128  1  0
127129  1  0
129130  2  0
129131  1  0
131132  1  0
132133  1  0
133134  1  0
134135  1  0
134136  1  0
132137  1  0
137138  2  0
137139  1  0
139140  1  0
140141  1  0
141142  1  0
142143  1  0
143144  2  0
143145  1  0
140146  1  0
146147  2  0
146148  1  0
148149  1  0
149150  1  0
150151  1  0
151152  1  0
152153  1  0
153154  1  0
154155  2  3
154156  1  0
149157  1  0
157158  2  0
157159  1  0
159160  1  0
160161  1  0
161162  1  0
162163  1  0
163164  1  0
160165  1  0
160166  1  1
166167  2  0
166168  1  0
168169  1  0
169170  1  0
170171  1  0
171172  1  0
172173  1  0
173174  1  0
174175  2  3
174176  1  0
169177  1  0
177178  2  0
177179  1  0
179180  1  0
180181  1  0
181182  1  0
182183  1  0
183184  1  0
184185  1  0
185186  2  3
185187  1  0
180188  1  0
188189  2  0
188190  1  0
  8  3  1  0
115111  1  0
 11  6  1  0
104164  2  0
 18 13  2  0
 22  9  1  0
 26 21  1  0
  2191  1  0
  4192  1  0
  5193  1  0
  8194  1  0
 15195  1  0
 17196  1  0
 18197  1  0
 19198  1  0
 23199  1  0
 24200  1  0
 26201  1  0
 27202  1  0
 29203  1  0
 30204  1  0
 30205  1  0
 31206  1  0
 31207  1  0
 34208  1  0
 35209  1  1
 36210  1  0
 36211  1  0
 37212  1  0
 37213  1  0
 40214  1  0
 43215  1  0
 44216  1  1
 45217  1  0
 45218  1  0
 46219  1  0
 46220  1  0
 49221  1  0
 52222  1  0
 53223  1  1
 54224  1  0
 54225  1  0
 56226  1  0
 56227  1  0
 60228  1  0
 61229  1  1
 62230  1  0
 62231  1  0
 62232  1  0
 65233  1  0
 66234  1  1
 67235  1  0
 67236  1  0
 68237  1  0
 68238  1  0
 69239  1  0
 69240  1  0
 70241  1  0
 70242  1  0
 71243  1  0
 71244  1  0
 74245  1  0
 75246  1  1
 76247  1  0
 76248  1  0
 77249  1  0
 77250  1  0
 78251  1  0
 78252  1  0
 79253  1  0
 81254  1  0
 82255  1  0
 82256  1  0
 85257  1  0
 86258  1  1
 87259  1  0
 87260  1  0
 88261  1  0
 88262  1  0
 89263  1  0
 89264  1  0
 90265  1  0
 92266  1  0
 93267  1  0
 93268  1  0
 96269  1  0
 98270  1  0
 98271  1  0
 99272  1  0
 99273  1  0
100274  1  0
100275  1  0
101276  1  0
101277  1  0
102278  1  0
102279  1  0
103280  1  0
103281  1  0
104282  1  0
105283  1  0
105284  1  0
105285  1  0
108286  1  0
109287  1  6
110288  1  0
110289  1  0
112290  1  0
113291  1  0
114292  1  0
118293  1  0
119294  1  6
120295  1  0
120296  1  0
122297  1  0
122298  1  0
126299  1  0
127300  1  6
128301  1  0
128302  1  0
128303  1  0
131304  1  0
132305  1  6
133306  1  0
133307  1  0
134308  1  0
135309  1  0
135310  1  0
135311  1  0
136312  1  0
136313  1  0
136314  1  0
139315  1  0
140316  1  6
141317  1  0
141318  1  0
142319  1  0
142320  1  0
145321  1  0
148322  1  0
149323  1  6
150324  1  0
150325  1  0
151326  1  0
151327  1  0
152328  1  0
152329  1  0
153330  1  0
155331  1  0
156332  1  0
156333  1  0
159334  1  0
161335  1  0
161336  1  0
162337  1  0
162338  1  0
163339  1  0
163340  1  0
164341  1  0
165342  1  0
165343  1  0
165344  1  0
168345  1  0
169346  1  1
170347  1  0
170348  1  0
171349  1  0
171350  1  0
172351  1  0
172352  1  0
173353  1  0
175354  1  0
176355  1  0
176356  1  0
179357  1  0
180358  1  6
181359  1  0
181360  1  0
182361  1  0
182362  1  0
183363  1  0
183364  1  0
184365  1  0
186366  1  0
187367  1  0
187368  1  0
190369  1  0
M  END
