
     RDKit          2D

278279  0  0  0  0  0  0  0  0999 V2000
  -19.4446   -6.1823    0.0000 N   0  0  0  0  0  0  0  0  0  0  0  0
  -17.9458   -6.1210    0.0000 C   0  0  0  0  0  0  0  0  0  0  0  0
  -17.2495   -4.7924    0.0000 C   0  0  0  0  0  0  0  0  0  0  0  0
  -15.7508   -4.7311    0.0000 C   0  0  0  0  0  0  0  0  0  0  0  0
  -15.1088   -6.0868    0.0000 O   0  0  0  0  0  0  0  0  0  0  0  0
  -15.0545   -3.4025    0.0000 N   0  0  0  0  0  0  0  0  0  0  0  0
  -13.5557   -3.3412    0.0000 C   0  0  0  0  0  0  0  0  0  0  0  0
  -12.5181   -4.4244    0.0000 C   0  0  0  0  0  0  0  0  0  0  0  0
  -11.2073   -5.1536    0.0000 C   0  0  0  0  0  0  0  0  0  0  0  0
   -9.7397   -5.4640    0.0000 C   0  0  0  0  0  0  0  0  0  0  0  0
   -8.2459   -5.3281    0.0000 C   0  0  0  0  0  0  0  0  0  0  0  0
  -14.2817   -4.6538    0.0000 C   0  0  0  0  0  0  0  0  0  0  0  0
  -14.2280   -2.0003    0.0000 C   0  0  0  0  0  0  0  0  0  0  0  0
  -15.0973   -2.1701    0.0000 O   0  0  0  0  0  0  0  0  0  0  0  0
  -14.4752   -0.5208    0.0000 N   0  0  0  0  0  0  0  0  0  0  0  0
  -14.2753    0.9658    0.0000 C   0  0  0  0  0  0  0  0  0  0  0  0
  -13.6461    2.3275    0.0000 C   0  0  0  0  0  0  0  0  0  0  0  0
  -14.8987    3.1526    0.0000 O   0  0  0  0  0  0  0  0  0  0  0  0
  -12.6435    3.4432    0.0000 N   0  0  0  0  0  0  0  0  0  0  0  0
  -11.3565    4.2138    0.0000 C   0  0  0  0  0  0  0  0  0  0  0  0
  -12.5882    5.0699    0.0000 C   0  0  0  0  0  0  0  0  0  0  0  0
  -12.4627    6.5646    0.0000 C   0  0  0  0  0  0  0  0  0  0  0  0
  -13.6944    7.4207    0.0000 C   0  0  0  0  0  0  0  0  0  0  0  0
  -13.5688    8.9154    0.0000 N   0  0  0  0  0  0  0  0  0  0  0  0
  -14.8005    9.7715    0.0000 C   0  0  0  0  0  0  0  0  0  0  0  0
  -14.6750   11.2663    0.0000 N   0  0  0  0  0  0  0  0  0  0  0  0
  -16.1578    9.1329    0.0000 N   0  0  0  0  0  0  0  0  0  0  0  0
   -9.8996    4.5708    0.0000 C   0  0  0  0  0  0  0  0  0  0  0  0
  -10.3930    5.9873    0.0000 O   0  0  0  0  0  0  0  0  0  0  0  0
   -8.4022    4.4826    0.0000 N   0  0  0  0  0  0  0  0  0  0  0  0
   -6.9974    3.9569    0.0000 C   0  0  0  0  0  0  0  0  0  0  0  0
   -7.0960    5.4536    0.0000 C   0  0  0  0  0  0  0  0  0  0  0  0
   -8.4415    6.1166    0.0000 C   0  0  0  0  0  0  0  0  0  0  0  0
   -8.5402    7.6133    0.0000 C   0  0  0  0  0  0  0  0  0  0  0  0
   -9.8857    8.2763    0.0000 C   0  0  0  0  0  0  0  0  0  0  0  0
   -9.9843    9.7730    0.0000 N   0  0  0  0  0  0  0  0  0  0  0  0
   -5.8099    3.0404    0.0000 C   0  0  0  0  0  0  0  0  0  0  0  0
   -5.3408    4.4652    0.0000 O   0  0  0  0  0  0  0  0  0  0  0  0
   -4.9453    1.8147    0.0000 N   0  0  0  0  0  0  0  0  0  0  0  0
   -4.4803    0.3886    0.0000 C   0  0  0  0  0  0  0  0  0  0  0  0
   -4.4564   -1.1113    0.0000 C   0  0  0  0  0  0  0  0  0  0  0  0
   -4.8757   -2.5515    0.0000 C   0  0  0  0  0  0  0  0  0  0  0  0
   -5.7008   -3.8041    0.0000 C   0  0  0  0  0  0  0  0  0  0  0  0
   -6.8585   -4.7579    0.0000 C   0  0  0  0  0  0  0  0  0  0  0  0
   -3.8860    1.8674    0.0000 C   0  0  0  0  0  0  0  0  0  0  0  0
   -3.7222    3.2245    0.0000 C   0  0  0  0  0  0  0  0  0  0  0  0
   -3.3046    4.5261    0.0000 C   0  0  0  0  0  0  0  0  0  0  0  0
   -2.6483    5.7251    0.0000 C   0  0  0  0  0  0  0  0  0  0  0  0
   -3.4375   -0.8168    0.0000 C   0  0  0  0  0  0  0  0  0  0  0  0
   -5.4996   -1.5834    0.0000 O   0  0  0  0  0  0  0  0  0  0  0  0
   -2.8416   -2.0470    0.0000 N   0  0  0  0  0  0  0  0  0  0  0  0
   -2.0236   -3.1421    0.0000 C   0  0  0  0  0  0  0  0  0  0  0  0
   -2.9547   -5.0546    0.0000 C   0  0  0  0  0  0  0  0  0  0  0  0
   -1.9122   -6.1330    0.0000 C   0  0  0  0  0  0  0  0  0  0  0  0
   -2.3249   -7.5751    0.0000 C   0  0  0  0  0  0  0  0  0  0  0  0
   -1.2824   -8.6536    0.0000 N   0  0  0  0  0  0  0  0  0  0  0  0
   -1.6951  -10.0957    0.0000 C   0  0  0  0  0  0  0  0  0  0  0  0
   -0.9445  -11.3944    0.0000 N   0  0  0  0  0  0  0  0  0  0  0  0
   -3.1503  -10.4593    0.0000 N   0  0  0  0  0  0  0  0  0  0  0  0
   -1.0131   -4.0627    0.0000 C   0  0  0  0  0  0  0  0  0  0  0  0
   -1.6713   -5.3368    0.0000 O   0  0  0  0  0  0  0  0  0  0  0  0
    0.1533   -4.7754    0.0000 N   0  0  0  0  0  0  0  0  0  0  0  0
    1.4336   -5.2544    0.0000 C   0  0  0  0  0  0  0  0  0  0  0  0
    1.6841   -7.3667    0.0000 C   0  0  0  0  0  0  0  0  0  0  0  0
    0.6565   -8.4594    0.0000 C   0  0  0  0  0  0  0  0  0  0  0  0
    1.0890   -9.8957    0.0000 C   0  0  0  0  0  0  0  0  0  0  0  0
    0.0613  -10.9884    0.0000 N   0  0  0  0  0  0  0  0  0  0  0  0
    0.4938  -12.4247    0.0000 C   0  0  0  0  0  0  0  0  0  0  0  0
   -0.5338  -13.5173    0.0000 N   0  0  0  0  0  0  0  0  0  0  0  0
    1.9539  -12.7683    0.0000 N   0  0  0  0  0  0  0  0  0  0  0  0
    2.7813   -5.4825    0.0000 C   0  0  0  0  0  0  0  0  0  0  0  0
    2.8052   -7.6788    0.0000 O   0  0  0  0  0  0  0  0  0  0  0  0
    4.1479   -5.4515    0.0000 N   0  0  0  0  0  0  0  0  0  0  0  0
    5.4839   -5.1623    0.0000 C   0  0  0  0  0  0  0  0  0  0  0  0
    6.8366   -6.8038    0.0000 C   0  0  0  0  0  0  0  0  0  0  0  0
    6.5629   -8.2786    0.0000 C   0  0  0  0  0  0  0  0  0  0  0  0
    7.7032   -9.2531    0.0000 C   0  0  0  0  0  0  0  0  0  0  0  0
    7.4295  -10.7279    0.0000 N   0  0  0  0  0  0  0  0  0  0  0  0
    9.1173   -8.7528    0.0000 O   0  0  0  0  0  0  0  0  0  0  0  0
    6.7410   -4.6256    0.0000 C   0  0  0  0  0  0  0  0  0  0  0  0
    7.9485   -6.4603    0.0000 O   0  0  0  0  0  0  0  0  0  0  0  0
    7.8738   -3.8606    0.0000 N   0  0  0  0  0  0  0  0  0  0  0  0
    8.8414   -2.8951    0.0000 C   0  0  0  0  0  0  0  0  0  0  0  0
   10.8669   -3.5446    0.0000 C   0  0  0  0  0  0  0  0  0  0  0  0
   11.4339   -4.9333    0.0000 C   0  0  0  0  0  0  0  0  0  0  0  0
   12.9201   -5.1366    0.0000 C   0  0  0  0  0  0  0  0  0  0  0  0
   13.4871   -6.5253    0.0000 N   0  0  0  0  0  0  0  0  0  0  0  0
   14.9733   -6.7285    0.0000 C   0  0  0  0  0  0  0  0  0  0  0  0
   15.5403   -8.1172    0.0000 N   0  0  0  0  0  0  0  0  0  0  0  0
   15.8924   -5.5431    0.0000 N   0  0  0  0  0  0  0  0  0  0  0  0
    9.6088   -1.7639    0.0000 C   0  0  0  0  0  0  0  0  0  0  0  0
   11.6166   -2.6545    0.0000 O   0  0  0  0  0  0  0  0  0  0  0  0
   10.1482   -0.5079    0.0000 N   0  0  0  0  0  0  0  0  0  0  0  0
   10.4402    0.8275    0.0000 C   0  0  0  0  0  0  0  0  0  0  0  0
   12.4953    1.3761    0.0000 C   0  0  0  0  0  0  0  0  0  0  0  0
   13.7231    0.5144    0.0000 C   0  0  0  0  0  0  0  0  0  0  0  0
   15.0833    1.1469    0.0000 C   0  0  0  0  0  0  0  0  0  0  0  0
   16.3111    0.2852    0.0000 N   0  0  0  0  0  0  0  0  0  0  0  0
   17.6712    0.9177    0.0000 C   0  0  0  0  0  0  0  0  0  0  0  0
   18.8990    0.0560    0.0000 N   0  0  0  0  0  0  0  0  0  0  0  0
   17.8035    2.4119    0.0000 N   0  0  0  0  0  0  0  0  0  0  0  0
   10.4742    2.1940    0.0000 C   0  0  0  0  0  0  0  0  0  0  0  0
   12.6447    2.5302    0.0000 O   0  0  0  0  0  0  0  0  0  0  0  0
   10.2490    3.5422    0.0000 N   0  0  0  0  0  0  0  0  0  0  0  0
    9.7726    4.8234    0.0000 C   0  0  0  0  0  0  0  0  0  0  0  0
   11.2049    6.3961    0.0000 C   0  0  0  0  0  0  0  0  0  0  0  0
   12.7036    6.3350    0.0000 C   0  0  0  0  0  0  0  0  0  0  0  0
   13.5059    7.6024    0.0000 C   0  0  0  0  0  0  0  0  0  0  0  0
   15.0047    7.5413    0.0000 N   0  0  0  0  0  0  0  0  0  0  0  0
   15.8069    8.8087    0.0000 C   0  0  0  0  0  0  0  0  0  0  0  0
   17.3057    8.7477    0.0000 N   0  0  0  0  0  0  0  0  0  0  0  0
   15.1105   10.1372    0.0000 N   0  0  0  0  0  0  0  0  0  0  0  0
    9.0624    5.9914    0.0000 C   0  0  0  0  0  0  0  0  0  0  0  0
   10.7066    7.4477    0.0000 O   0  0  0  0  0  0  0  0  0  0  0  0
    8.1440    7.0038    0.0000 N   0  0  0  0  0  0  0  0  0  0  0  0
    7.0506    7.8242    0.0000 C   0  0  0  0  0  0  0  0  0  0  0  0
    5.8217    8.4227    0.0000 C   0  0  0  0  0  0  0  0  0  0  0  0
    4.5018    8.7779    0.0000 C   0  0  0  0  0  0  0  0  0  0  0  0
    3.1384    8.8769    0.0000 C   0  0  0  0  0  0  0  0  0  0  0  0
    1.7810    8.7161    0.0000 C   0  0  0  0  0  0  0  0  0  0  0  0
    0.4786    8.3012    0.0000 C   0  0  0  0  0  0  0  0  0  0  0  0
   -0.7219    7.6474    0.0000 C   0  0  0  0  0  0  0  0  0  0  0  0
   -1.7768    6.7782    0.0000 C   0  0  0  0  0  0  0  0  0  0  0  0
    8.7550    9.0968    0.0000 C   0  0  0  0  0  0  0  0  0  0  0  0
    7.4053    9.9215    0.0000 C   0  0  0  0  0  0  0  0  0  0  0  0
    8.5970   10.8324    0.0000 O   0  0  0  0  0  0  0  0  0  0  0  0
    6.3192   10.9561    0.0000 O   0  0  0  0  0  0  0  0  0  0  0  0
  -20.1409   -7.5109    0.0000 H   0  0  0  0  0  0  0  0  0  0  0  0
  -20.2470   -4.9150    0.0000 H   0  0  0  0  0  0  0  0  0  0  0  0
  -18.1457   -7.6076    0.0000 H   0  0  0  0  0  0  0  0  0  0  0  0
  -16.5165   -6.5760    0.0000 H   0  0  0  0  0  0  0  0  0  0  0  0
  -18.6788   -4.3374    0.0000 H   0  0  0  0  0  0  0  0  0  0  0  0
  -17.0496   -3.3058    0.0000 H   0  0  0  0  0  0  0  0  0  0  0  0
  -15.5598   -2.7860    0.0000 H   0  0  0  0  0  0  0  0  0  0  0  0
  -12.6436   -5.9191    0.0000 H   0  0  0  0  0  0  0  0  0  0  0  0
  -13.8606   -5.0934    0.0000 H   0  0  0  0  0  0  0  0  0  0  0  0
  -11.0677   -6.6471    0.0000 H   0  0  0  0  0  0  0  0  0  0  0  0
  -12.2930   -6.1886    0.0000 H   0  0  0  0  0  0  0  0  0  0  0  0
   -9.0015   -6.7698    0.0000 H   0  0  0  0  0  0  0  0  0  0  0  0
  -10.4722   -6.7731    0.0000 H   0  0  0  0  0  0  0  0  0  0  0  0
   -7.8889   -6.7850    0.0000 H   0  0  0  0  0  0  0  0  0  0  0  0
  -15.4924   -5.2535    0.0000 H   0  0  0  0  0  0  0  0  0  0  0  0
  -13.9757   -6.2060    0.0000 H   0  0  0  0  0  0  0  0  0  0  0  0
  -12.8968   -5.6024    0.0000 H   0  0  0  0  0  0  0  0  0  0  0  0
  -15.9750   -0.5447    0.0000 H   0  0  0  0  0  0  0  0  0  0  0  0
  -15.7126    0.5366    0.0000 H   0  0  0  0  0  0  0  0  0  0  0  0
  -15.2576    2.0994    0.0000 H   0  0  0  0  0  0  0  0  0  0  0  0
  -13.5973    4.6009    0.0000 H   0  0  0  0  0  0  0  0  0  0  0  0
  -10.9050    5.6442    0.0000 H   0  0  0  0  0  0  0  0  0  0  0  0
  -14.0744    5.2734    0.0000 H   0  0  0  0  0  0  0  0  0  0  0  0
  -13.5282    3.9009    0.0000 H   0  0  0  0  0  0  0  0  0  0  0  0
  -12.0041    7.9928    0.0000 H   0  0  0  0  0  0  0  0  0  0  0  0
  -10.9766    6.3610    0.0000 H   0  0  0  0  0  0  0  0  0  0  0  0
  -15.1446    7.8039    0.0000 H   0  0  0  0  0  0  0  0  0  0  0  0
  -14.4849    6.1459    0.0000 H   0  0  0  0  0  0  0  0  0  0  0  0
  -12.2116    9.5541    0.0000 H   0  0  0  0  0  0  0  0  0  0  0  0
  -15.9067   12.1224    0.0000 H   0  0  0  0  0  0  0  0  0  0  0  0
  -13.3177   11.9049    0.0000 H   0  0  0  0  0  0  0  0  0  0  0  0
  -17.3895    9.9890    0.0000 H   0  0  0  0  0  0  0  0  0  0  0  0
  -16.2833    7.6382    0.0000 H   0  0  0  0  0  0  0  0  0  0  0  0
   -8.4561    5.9816    0.0000 H   0  0  0  0  0  0  0  0  0  0  0  0
   -5.7695    4.8185    0.0000 H   0  0  0  0  0  0  0  0  0  0  0  0
   -6.5043    6.8320    0.0000 H   0  0  0  0  0  0  0  0  0  0  0  0
   -5.5961    5.4738    0.0000 H   0  0  0  0  0  0  0  0  0  0  0  0
   -9.9327    6.2793    0.0000 H   0  0  0  0  0  0  0  0  0  0  0  0
   -9.1968    4.8206    0.0000 H   0  0  0  0  0  0  0  0  0  0  0  0
   -7.9485    8.9917    0.0000 H   0  0  0  0  0  0  0  0  0  0  0  0
   -7.0403    7.6335    0.0000 H   0  0  0  0  0  0  0  0  0  0  0  0
  -11.3459    8.6196    0.0000 H   0  0  0  0  0  0  0  0  0  0  0  0
  -10.6410    6.9803    0.0000 H   0  0  0  0  0  0  0  0  0  0  0  0
  -11.3299   10.4360    0.0000 H   0  0  0  0  0  0  0  0  0  0  0  0
   -9.5651   11.2133    0.0000 H   0  0  0  0  0  0  0  0  0  0  0  0
   -8.4845    9.7932    0.0000 H   0  0  0  0  0  0  0  0  0  0  0  0
   -3.6043    2.4870    0.0000 H   0  0  0  0  0  0  0  0  0  0  0  0
   -3.0992   -0.4726    0.0000 H   0  0  0  0  0  0  0  0  0  0  0  0
   -3.4434   -2.2175    0.0000 H   0  0  0  0  0  0  0  0  0  0  0  0
   -3.4138   -2.8876    0.0000 H   0  0  0  0  0  0  0  0  0  0  0  0
   -4.4037   -3.9753    0.0000 H   0  0  0  0  0  0  0  0  0  0  0  0
   -4.4030   -4.5562    0.0000 H   0  0  0  0  0  0  0  0  0  0  0  0
   -5.3076   -5.2517    0.0000 H   0  0  0  0  0  0  0  0  0  0  0  0
   -6.0879   -6.0449    0.0000 H   0  0  0  0  0  0  0  0  0  0  0  0
   -5.8796    1.1259    0.0000 H   0  0  0  0  0  0  0  0  0  0  0  0
   -5.7307    2.8539    0.0000 H   0  0  0  0  0  0  0  0  0  0  0  0
   -5.9056    3.4138    0.0000 H   0  0  0  0  0  0  0  0  0  0  0  0
   -5.1975    4.6483    0.0000 H   0  0  0  0  0  0  0  0  0  0  0  0
   -5.4411    4.9442    0.0000 H   0  0  0  0  0  0  0  0  0  0  0  0
   -4.8069    6.0320    0.0000 H   0  0  0  0  0  0  0  0  0  0  0  0
   -4.4689    6.9602    0.0000 H   0  0  0  0  0  0  0  0  0  0  0  0
   -4.3568   -3.5976    0.0000 H   0  0  0  0  0  0  0  0  0  0  0  0
   -3.9734   -4.0609    0.0000 H   0  0  0  0  0  0  0  0  0  0  0  0
   -3.9772   -6.1521    0.0000 H   0  0  0  0  0  0  0  0  0  0  0  0
   -4.4491   -4.9247    0.0000 H   0  0  0  0  0  0  0  0  0  0  0  0
   -0.6538   -6.9494    0.0000 H   0  0  0  0  0  0  0  0  0  0  0  0
   -0.7636   -5.1683    0.0000 H   0  0  0  0  0  0  0  0  0  0  0  0
   -3.2059   -8.7891    0.0000 H   0  0  0  0  0  0  0  0  0  0  0  0
   -3.7434   -7.0876    0.0000 H   0  0  0  0  0  0  0  0  0  0  0  0
    0.2176   -8.6529    0.0000 H   0  0  0  0  0  0  0  0  0  0  0  0
   -1.0652  -12.6163    0.0000 H   0  0  0  0  0  0  0  0  0  0  0  0
    0.8921  -11.2507    0.0000 H   0  0  0  0  0  0  0  0  0  0  0  0
   -3.5630  -11.9014    0.0000 H   0  0  0  0  0  0  0  0  0  0  0  0
   -4.1929   -9.3809    0.0000 H   0  0  0  0  0  0  0  0  0  0  0  0
   -0.8101   -6.7532    0.0000 H   0  0  0  0  0  0  0  0  0  0  0  0
    0.1568   -6.9557    0.0000 H   0  0  0  0  0  0  0  0  0  0  0  0
    2.5818   -8.5684    0.0000 H   0  0  0  0  0  0  0  0  0  0  0  0
    3.1471   -7.0355    0.0000 H   0  0  0  0  0  0  0  0  0  0  0  0
   -0.4797   -9.4387    0.0000 H   0  0  0  0  0  0  0  0  0  0  0  0
   -0.3809   -7.3760    0.0000 H   0  0  0  0  0  0  0  0  0  0  0  0
    1.9866  -11.0974    0.0000 H   0  0  0  0  0  0  0  0  0  0  0  0
    2.5007   -9.3887    0.0000 H   0  0  0  0  0  0  0  0  0  0  0  0
   -1.4385  -11.0083    0.0000 H   0  0  0  0  0  0  0  0  0  0  0  0
   -0.1014  -14.9536    0.0000 H   0  0  0  0  0  0  0  0  0  0  0  0
   -1.9939  -13.1737    0.0000 H   0  0  0  0  0  0  0  0  0  0  0  0
    2.3864  -14.2046    0.0000 H   0  0  0  0  0  0  0  0  0  0  0  0
    2.9816  -11.6756    0.0000 H   0  0  0  0  0  0  0  0  0  0  0  0
    4.2238   -7.6466    0.0000 H   0  0  0  0  0  0  0  0  0  0  0  0
    5.1550   -7.2282    0.0000 H   0  0  0  0  0  0  0  0  0  0  0  0
    8.1670   -7.4968    0.0000 H   0  0  0  0  0  0  0  0  0  0  0  0
    7.8884   -5.7343    0.0000 H   0  0  0  0  0  0  0  0  0  0  0  0
    5.8012   -9.5708    0.0000 H   0  0  0  0  0  0  0  0  0  0  0  0
    5.0726   -8.1085    0.0000 H   0  0  0  0  0  0  0  0  0  0  0  0
    8.5698  -11.7024    0.0000 H   0  0  0  0  0  0  0  0  0  0  0  0
    6.0154  -11.2282    0.0000 H   0  0  0  0  0  0  0  0  0  0  0  0
    9.1245   -5.6662    0.0000 H   0  0  0  0  0  0  0  0  0  0  0  0
    9.6817   -4.8108    0.0000 H   0  0  0  0  0  0  0  0  0  0  0  0
   12.3330   -3.2273    0.0000 H   0  0  0  0  0  0  0  0  0  0  0  0
   11.1734   -2.0763    0.0000 H   0  0  0  0  0  0  0  0  0  0  0  0
   11.4918   -6.4322    0.0000 H   0  0  0  0  0  0  0  0  0  0  0  0
   10.0882   -5.5959    0.0000 H   0  0  0  0  0  0  0  0  0  0  0  0
   14.3862   -4.8193    0.0000 H   0  0  0  0  0  0  0  0  0  0  0  0
   13.0454   -3.6418    0.0000 H   0  0  0  0  0  0  0  0  0  0  0  0
   12.5680   -7.7107    0.0000 H   0  0  0  0  0  0  0  0  0  0  0  0
   17.0265   -8.3205    0.0000 H   0  0  0  0  0  0  0  0  0  0  0  0
   14.6212   -9.3026    0.0000 H   0  0  0  0  0  0  0  0  0  0  0  0
   17.3786   -5.7464    0.0000 H   0  0  0  0  0  0  0  0  0  0  0  0
   15.3254   -4.1544    0.0000 H   0  0  0  0  0  0  0  0  0  0  0  0
   12.1765   -1.3507    0.0000 H   0  0  0  0  0  0  0  0  0  0  0  0
   12.1828   -0.3299    0.0000 H   0  0  0  0  0  0  0  0  0  0  0  0
   13.5571    2.4356    0.0000 H   0  0  0  0  0  0  0  0  0  0  0  0
   11.9593    2.7771    0.0000 H   0  0  0  0  0  0  0  0  0  0  0  0
   14.5822   -0.7152    0.0000 H   0  0  0  0  0  0  0  0  0  0  0  0
   12.9493   -0.7705    0.0000 H   0  0  0  0  0  0  0  0  0  0  0  0
   16.1450    2.2064    0.0000 H   0  0  0  0  0  0  0  0  0  0  0  0
   14.3805    2.4721    0.0000 H   0  0  0  0  0  0  0  0  0  0  0  0
   16.1787   -1.2089    0.0000 H   0  0  0  0  0  0  0  0  0  0  0  0
   20.2591    0.6885    0.0000 H   0  0  0  0  0  0  0  0  0  0  0  0
   18.7667   -1.4381    0.0000 H   0  0  0  0  0  0  0  0  0  0  0  0
   19.1637    3.0443    0.0000 H   0  0  0  0  0  0  0  0  0  0  0  0
   16.5757    3.2735    0.0000 H   0  0  0  0  0  0  0  0  0  0  0  0
   12.4109    3.9298    0.0000 H   0  0  0  0  0  0  0  0  0  0  0  0
   11.8643    4.7919    0.0000 H   0  0  0  0  0  0  0  0  0  0  0  0
   11.5253    7.8614    0.0000 H   0  0  0  0  0  0  0  0  0  0  0  0
    9.9966    7.2849    0.0000 H   0  0  0  0  0  0  0  0  0  0  0  0
   14.0911    5.7650    0.0000 H   0  0  0  0  0  0  0  0  0  0  0  0
   12.7473    4.8356    0.0000 H   0  0  0  0  0  0  0  0  0  0  0  0
   13.8263    9.0678    0.0000 H   0  0  0  0  0  0  0  0  0  0  0  0
   12.1983    8.3373    0.0000 H   0  0  0  0  0  0  0  0  0  0  0  0
   15.7011    6.2128    0.0000 H   0  0  0  0  0  0  0  0  0  0  0  0
   18.1080   10.0151    0.0000 H   0  0  0  0  0  0  0  0  0  0  0  0
   18.0022    7.4192    0.0000 H   0  0  0  0  0  0  0  0  0  0  0  0
   15.9127   11.4047    0.0000 H   0  0  0  0  0  0  0  0  0  0  0  0
   13.6117   10.1983    0.0000 H   0  0  0  0  0  0  0  0  0  0  0  0
    9.7533    8.4987    0.0000 H   0  0  0  0  0  0  0  0  0  0  0  0
    5.7731   10.5493    0.0000 H   0  0  0  0  0  0  0  0  0  0  0  0
    6.9974   10.2550    0.0000 H   0  0  0  0  0  0  0  0  0  0  0  0
    4.2251   10.9156    0.0000 H   0  0  0  0  0  0  0  0  0  0  0  0
    5.3094   10.7996    0.0000 H   0  0  0  0  0  0  0  0  0  0  0  0
    2.4622   10.9235    0.0000 H   0  0  0  0  0  0  0  0  0  0  0  0
    3.7210   10.9522    0.0000 H   0  0  0  0  0  0  0  0  0  0  0  0
    0.7296   10.5977    0.0000 H   0  0  0  0  0  0  0  0  0  0  0  0
    1.9603   10.8641    0.0000 H   0  0  0  0  0  0  0  0  0  0  0  0
   -0.9099    9.9499    0.0000 H   0  0  0  0  0  0  0  0  0  0  0  0
    0.2481   10.4444    0.0000 H   0  0  0  0  0  0  0  0  0  0  0  0
   -2.4823    8.8413    0.0000 H   0  0  0  0  0  0  0  0  0  0  0  0
   -1.3538    9.7082    0.0000 H   0  0  0  0  0  0  0  0  0  0  0  0
   -3.3308    8.3355    0.0000 H   0  0  0  0  0  0  0  0  0  0  0  0
    9.0218   10.5729    0.0000 H   0  0  0  0  0  0  0  0  0  0  0  0
   10.2119    9.4536    0.0000 H   0  0  0  0  0  0  0  0  0  0  0  0
    9.5222    7.8078    0.0000 H   0  0  0  0  0  0  0  0  0  0  0  0
  1  2  1  0
  2  3  1  0
  3  4  1  0
  4  5  2  0
  4  6  1  0
  7  6  1  6
  7  8  1  0
  8  9  1  0
  9 10  1  0
 10 11  1  0
  7 12  1  0
  7 13  1  0
 13 14  2  0
 13 15  1  0
 15 16  1  0
 16 17  1  0
 17 18  2  0
 17 19  1  0
 19 20  1  0
 20 21  1  0
 21 22  1  0
 22 23  1  0
 23 24  1  0
 24 25  1  0
 25 26  2  3
 25 27  1  0
 20 28  1  0
 28 29  2  0
 28 30  1  0
 30 31  1  0
 31 32  1  0
 32 33  1  0
 33 34  1  0
 34 35  1  0
 35 36  1  0
 31 37  1  0
 37 38  2  0
 37 39  1  0
 39 40  1  0
 40 41  1  0
 41 42  1  0
 42 43  1  0
 43 44  1  0
 40 45  1  0
 45 46  1  0
 46 47  1  0
 47 48  1  0
 40 49  1  0
 49 50  2  0
 49 51  1  0
 51 52  1  0
 52 53  1  0
 53 54  1  0
 54 55  1  0
 55 56  1  0
 56 57  1  0
 57 58  2  3
 57 59  1  0
 52 60  1  0
 60 61  2  0
 60 62  1  0
 62 63  1  0
 63 64  1  0
 64 65  1  0
 65 66  1  0
 66 67  1  0
 67 68  1  0
 68 69  2  3
 68 70  1  0
 63 71  1  0
 71 72  2  0
 71 73  1  0
 73 74  1  0
 74 75  1  0
 75 76  1  0
 76 77  1  0
 77 78  1  0
 77 79  2  0
 74 80  1  0
 80 81  2  0
 80 82  1  0
 82 83  1  0
 83 84  1  0
 84 85  1  0
 85 86  1  0
 86 87  1  0
 87 88  1  0
 88 89  2  3
 88 90  1  0
 83 91  1  0
 91 92  2  0
 91 93  1  0
 93 94  1  0
 94 95  1  0
 95 96  1  0
 96 97  1  0
 97 98  1  0
 98 99  1  0
 99100  2  3
 99101  1  0
 94102  1  0
102103  2  0
102104  1  0
104105  1  0
105106  1  0
106107  1  0
107108  1  0
108109  1  0
109110  1  0
110111  2  3
110112  1  0
105113  1  0
113114  2  0
113115  1  0
115116  1  0
116117  1  0
117118  1  0
118119  1  0
119120  1  0
120121  1  0
121122  1  0
122123  1  0
116124  1  0
116125  1  1
125126  2  0
125127  1  0
 11 44  2  0
 48123  2  0
  1128  1  0
  1129  1  0
  2130  1  0
  2131  1  0
  3132  1  0
  3133  1  0
  6134  1  0
  8135  1  0
  8136  1  0
  9137  1  0
  9138  1  0
 10139  1  0
 10140  1  0
 11141  1  0
 12142  1  0
 12143  1  0
 12144  1  0
 15145  1  0
 16146  1  0
 16147  1  0
 19148  1  0
 20149  1  1
 21150  1  0
 21151  1  0
 22152  1  0
 22153  1  0
 23154  1  0
 23155  1  0
 24156  1  0
 26157  1  0
 26158  1  0
 27159  1  0
 27160  1  0
 30161  1  0
 31162  1  1
 32163  1  0
 32164  1  0
 33165  1  0
 33166  1  0
 34167  1  0
 34168  1  0
 35169  1  0
 35170  1  0
 36171  1  0
 36172  1  0
 36173  1  0
 39174  1  0
 41175  1  0
 41176  1  0
 42177  1  0
 42178  1  0
 43179  1  0
 43180  1  0
 44181  1  0
 45182  1  0
 45183  1  0
 46184  1  0
 46185  1  0
 47186  1  0
 47187  1  0
 48188  1  0
 51189  1  0
 52190  1  6
 53191  1  0
 53192  1  0
 54193  1  0
 54194  1  0
 55195  1  0
 55196  1  0
 56197  1  0
 58198  1  0
 58199  1  0
 59200  1  0
 59201  1  0
 62202  1  0
 63203  1  6
 64204  1  0
 64205  1  0
 65206  1  0
 65207  1  0
 66208  1  0
 66209  1  0
 67210  1  0
 69211  1  0
 69212  1  0
 70213  1  0
 70214  1  0
 73215  1  0
 74216  1  6
 75217  1  0
 75218  1  0
 76219  1  0
 76220  1  0
 78221  1  0
 78222  1  0
 82223  1  0
 83224  1  6
 84225  1  0
 84226  1  0
 85227  1  0
 85228  1  0
 86229  1  0
 86230  1  0
 87231  1  0
 89232  1  0
 89233  1  0
 90234  1  0
 90235  1  0
 93236  1  0
 94237  1  6
 95238  1  0
 95239  1  0
 96240  1  0
 96241  1  0
 97242  1  0
 97243  1  0
 98244  1  0
100245  1  0
100246  1  0
101247  1  0
101248  1  0
104249  1  0
105250  1  6
106251  1  0
106252  1  0
107253  1  0
107254  1  0
108255  1  0
108256  1  0
109257  1  0
111258  1  0
111259  1  0
112260  1  0
112261  1  0
115262  1  0
117263  1  0
117264  1  0
118265  1  0
118266  1  0
119267  1  0
119268  1  0
120269  1  0
120270  1  0
121271  1  0
121272  1  0
122273  1  0
122274  1  0
123275  1  0
124276  1  0
124277  1  0
124278  1  0
M  CHG  8  26   1  36   1  58   1  69   1  89   1 100   1 111   1 127  -1
M  END
