
     RDKit          2D

218225  0  0  0  0  0  0  0  0999 V2000
   14.9402   -0.6757    0.0000 C   0  0  0  0  0  0  0  0  0  0  0  0
   16.2983   -0.0389    0.0000 N   0  0  0  0  0  0  0  0  0  0  0  0
   17.5288   -0.8966    0.0000 C   0  0  0  0  0  0  0  0  0  0  0  0
   17.4013   -2.3912    0.0000 C   0  0  0  0  0  0  0  0  0  0  0  0
   18.6318   -3.2490    0.0000 C   0  0  0  0  0  0  0  0  0  0  0  0
   19.9899   -2.6122    0.0000 C   0  0  0  0  0  0  0  0  0  0  0  0
   20.1175   -1.1176    0.0000 C   0  0  0  0  0  0  0  0  0  0  0  0
   18.8870   -0.2598    0.0000 C   0  0  0  0  0  0  0  0  0  0  0  0
   21.5783   -0.7771    0.0000 C   0  0  0  0  0  0  0  0  0  0  0  0
   22.3536   -2.0612    0.0000 O   0  0  0  0  0  0  0  0  0  0  0  0
   21.3719   -3.1954    0.0000 C   0  0  0  0  0  0  0  0  0  0  0  0
   21.7124   -4.6562    0.0000 O   0  0  0  0  0  0  0  0  0  0  0  0
   23.0668   -0.5912    0.0000 C   0  0  0  0  0  0  0  0  0  0  0  0
   23.6500    0.7908    0.0000 C   0  0  0  0  0  0  0  0  0  0  0  0
   25.1384    0.9768    0.0000 C   0  0  0  0  0  0  0  0  0  0  0  0
   26.0436   -0.2193    0.0000 C   0  0  0  0  0  0  0  0  0  0  0  0
   25.4605   -1.6013    0.0000 C   0  0  0  0  0  0  0  0  0  0  0  0
   23.9720   -1.7872    0.0000 C   0  0  0  0  0  0  0  0  0  0  0  0
   27.5321   -0.0333    0.0000 O   0  0  0  0  0  0  0  0  0  0  0  0
   22.7447    1.9869    0.0000 O   0  0  0  0  0  0  0  0  0  0  0  0
   21.2563    1.8009    0.0000 C   0  0  0  0  0  0  0  0  0  0  0  0
   20.6731    0.4189    0.0000 C   0  0  0  0  0  0  0  0  0  0  0  0
   19.4568    0.8779    0.0000 C   0  0  0  0  0  0  0  0  0  0  0  0
   18.9740    1.5158    0.0000 C   0  0  0  0  0  0  0  0  0  0  0  0
   19.2851    2.2529    0.0000 C   0  0  0  0  0  0  0  0  0  0  0  0
   20.0789    2.3521    0.0000 C   0  0  0  0  0  0  0  0  0  0  0  0
   17.9574    4.0071    0.0000 O   0  0  0  0  0  0  0  0  0  0  0  0
   14.8126   -2.1702    0.0000 S   0  0  0  0  0  0  0  0  0  0  0  0
   13.7096    0.1821    0.0000 N   0  0  0  0  0  0  0  0  0  0  0  0
   12.3515   -0.4547    0.0000 C   0  0  0  0  0  0  0  0  0  0  0  0
   11.1210    0.4031    0.0000 C   0  0  0  0  0  0  0  0  0  0  0  0
    9.7629   -0.2337    0.0000 C   0  0  0  0  0  0  0  0  0  0  0  0
    9.6353   -1.7283    0.0000 O   0  0  0  0  0  0  0  0  0  0  0  0
    8.5323    0.6241    0.0000 N   0  0  0  0  0  0  0  0  0  0  0  0
    7.1742   -0.0127    0.0000 C   0  0  0  0  0  0  0  0  0  0  0  0
    6.1158   -1.0756    0.0000 C   0  0  0  0  0  0  0  0  0  0  0  0
    4.6661   -0.6905    0.0000 C   0  0  0  0  0  0  0  0  0  0  0  0
    3.6077   -1.7534    0.0000 C   0  0  0  0  0  0  0  0  0  0  0  0
    2.1580   -1.3682    0.0000 N   0  0  0  0  0  0  0  0  0  0  0  0
    1.0995   -2.4311    0.0000 C   0  0  0  0  0  0  0  0  0  0  0  0
   -0.2924   -1.8721    0.0000 N   0  0  0  0  0  0  0  0  0  0  0  0
    1.4908   -3.8791    0.0000 N   0  0  0  0  0  0  0  0  0  0  0  0
    5.9437    0.8450    0.0000 C   0  0  0  0  0  0  0  0  0  0  0  0
    6.0712    2.3396    0.0000 O   0  0  0  0  0  0  0  0  0  0  0  0
    4.5855    0.2082    0.0000 N   0  0  0  0  0  0  0  0  0  0  0  0
    3.3550    1.0660    0.0000 C   0  0  0  0  0  0  0  0  0  0  0  0
    2.4920    2.2929    0.0000 C   0  0  0  0  0  0  0  0  0  0  0  0
    3.1231    3.6537    0.0000 C   0  0  0  0  0  0  0  0  0  0  0  0
    2.2601    4.8806    0.0000 C   0  0  0  0  0  0  0  0  0  0  0  0
    2.8912    6.2414    0.0000 C   0  0  0  0  0  0  0  0  0  0  0  0
    2.0282    7.4683    0.0000 N   0  0  0  0  0  0  0  0  0  0  0  0
    1.9969    0.4292    0.0000 C   0  0  0  0  0  0  0  0  0  0  0  0
    1.6430   -0.6054    0.0000 O   0  0  0  0  0  0  0  0  0  0  0  0
    0.7663    1.2870    0.0000 N   0  0  0  0  0  0  0  0  0  0  0  0
   -0.5918    0.6502    0.0000 C   0  0  0  0  0  0  0  0  0  0  0  0
   -1.6502   -0.4127    0.0000 C   0  0  0  0  0  0  0  0  0  0  0  0
   -3.0999   -0.0275    0.0000 C   0  0  0  0  0  0  0  0  0  0  0  0
   -3.4912    1.4205    0.0000 C   0  0  0  0  0  0  0  0  0  0  0  0
   -4.9409    1.8057    0.0000 C   0  0  0  0  0  0  0  0  0  0  0  0
   -5.9993    0.7428    0.0000 C   0  0  0  0  0  0  0  0  0  0  0  0
   -5.6080   -0.7053    0.0000 C   0  0  0  0  0  0  0  0  0  0  0  0
   -4.1583   -1.0904    0.0000 C   0  0  0  0  0  0  0  0  0  0  0  0
   -1.8223    1.5080    0.0000 C   0  0  0  0  0  0  0  0  0  0  0  0
   -1.3369    2.9272    0.0000 O   0  0  0  0  0  0  0  0  0  0  0  0
   -3.1804    0.8712    0.0000 N   0  0  0  0  0  0  0  0  0  0  0  0
   -4.4110    1.7289    0.0000 C   0  0  0  0  0  0  0  0  0  0  0  0
   -4.5821    3.2191    0.0000 C   0  0  0  0  0  0  0  0  0  0  0  0
   -5.1848    4.5927    0.0000 C   0  0  0  0  0  0  0  0  0  0  0  0
   -6.1656    5.7276    0.0000 C   0  0  0  0  0  0  0  0  0  0  0  0
   -7.4374    6.5230    0.0000 C   0  0  0  0  0  0  0  0  0  0  0  0
   -3.1230    2.4978    0.0000 C   0  0  0  0  0  0  0  0  0  0  0  0
   -4.6867    0.2545    0.0000 C   0  0  0  0  0  0  0  0  0  0  0  0
   -3.5405   -0.7131    0.0000 O   0  0  0  0  0  0  0  0  0  0  0  0
   -5.3848   -1.0731    0.0000 N   0  0  0  0  0  0  0  0  0  0  0  0
   -6.4433   -2.1360    0.0000 C   0  0  0  0  0  0  0  0  0  0  0  0
   -6.3467   -3.6329    0.0000 C   0  0  0  0  0  0  0  0  0  0  0  0
   -5.0020   -4.2977    0.0000 C   0  0  0  0  0  0  0  0  0  0  0  0
   -4.9054   -5.7946    0.0000 C   0  0  0  0  0  0  0  0  0  0  0  0
   -3.5608   -6.4594    0.0000 N   0  0  0  0  0  0  0  0  0  0  0  0
   -3.4642   -7.9563    0.0000 C   0  0  0  0  0  0  0  0  0  0  0  0
   -2.1195   -8.6211    0.0000 N   0  0  0  0  0  0  0  0  0  0  0  0
   -4.7122   -8.7884    0.0000 N   0  0  0  0  0  0  0  0  0  0  0  0
   -7.7680   -2.8397    0.0000 C   0  0  0  0  0  0  0  0  0  0  0  0
   -7.2696   -4.2545    0.0000 O   0  0  0  0  0  0  0  0  0  0  0  0
   -9.2412   -3.1217    0.0000 N   0  0  0  0  0  0  0  0  0  0  0  0
  -10.7321   -2.9569    0.0000 C   0  0  0  0  0  0  0  0  0  0  0  0
  -11.8422   -3.9657    0.0000 C   0  0  0  0  0  0  0  0  0  0  0  0
  -11.5236   -5.4315    0.0000 C   0  0  0  0  0  0  0  0  0  0  0  0
  -12.6337   -6.4403    0.0000 C   0  0  0  0  0  0  0  0  0  0  0  0
  -10.7229   -6.6999    0.0000 C   0  0  0  0  0  0  0  0  0  0  0  0
  -12.1082   -2.3600    0.0000 C   0  0  0  0  0  0  0  0  0  0  0  0
  -12.9036   -3.6317    0.0000 O   0  0  0  0  0  0  0  0  0  0  0  0
  -13.2473   -1.3840    0.0000 N   0  0  0  0  0  0  0  0  0  0  0  0
  -14.0480   -0.1156    0.0000 C   0  0  0  0  0  0  0  0  0  0  0  0
  -15.5288    0.1234    0.0000 C   0  0  0  0  0  0  0  0  0  0  0  0
  -16.4762   -1.0396    0.0000 C   0  0  0  0  0  0  0  0  0  0  0  0
  -17.9570   -0.8007    0.0000 C   0  0  0  0  0  0  0  0  0  0  0  0
  -18.9043   -1.9637    0.0000 C   0  0  0  0  0  0  0  0  0  0  0  0
  -18.3708   -3.3656    0.0000 C   0  0  0  0  0  0  0  0  0  0  0  0
  -16.8900   -3.6045    0.0000 C   0  0  0  0  0  0  0  0  0  0  0  0
  -15.9426   -2.4416    0.0000 C   0  0  0  0  0  0  0  0  0  0  0  0
  -14.4393    1.3325    0.0000 C   0  0  0  0  0  0  0  0  0  0  0  0
  -15.9295    1.1614    0.0000 O   0  0  0  0  0  0  0  0  0  0  0  0
  -14.3863    2.8316    0.0000 N   0  0  0  0  0  0  0  0  0  0  0  0
  -13.8939    4.2484    0.0000 C   0  0  0  0  0  0  0  0  0  0  0  0
  -13.0057    5.4572    0.0000 C   0  0  0  0  0  0  0  0  0  0  0  0
  -11.8007    6.3505    0.0000 C   0  0  0  0  0  0  0  0  0  0  0  0
  -10.3859    6.8489    0.0000 C   0  0  0  0  0  0  0  0  0  0  0  0
   -8.8871    6.9082    0.0000 C   0  0  0  0  0  0  0  0  0  0  0  0
  -15.3879    4.1146    0.0000 C   0  0  0  0  0  0  0  0  0  0  0  0
  -14.6304    5.5552    0.0000 C   0  0  0  0  0  0  0  0  0  0  0  0
  -16.1173    5.7534    0.0000 O   0  0  0  0  0  0  0  0  0  0  0  0
  -14.2021    6.9927    0.0000 O   0  0  0  0  0  0  0  0  0  0  0  0
   16.2428    1.4601    0.0000 H   0  0  0  0  0  0  0  0  0  0  0  0
   16.0431   -3.0280    0.0000 H   0  0  0  0  0  0  0  0  0  0  0  0
   18.5042   -4.7435    0.0000 H   0  0  0  0  0  0  0  0  0  0  0  0
   18.6491    1.2212    0.0000 H   0  0  0  0  0  0  0  0  0  0  0  0
   25.7216    2.3588    0.0000 H   0  0  0  0  0  0  0  0  0  0  0  0
   26.3657   -2.7973    0.0000 H   0  0  0  0  0  0  0  0  0  0  0  0
   23.3888   -3.1692    0.0000 H   0  0  0  0  0  0  0  0  0  0  0  0
   28.4373   -1.2294    0.0000 H   0  0  0  0  0  0  0  0  0  0  0  0
   18.6015   -1.1490    0.0000 H   0  0  0  0  0  0  0  0  0  0  0  0
   16.7794    1.4259    0.0000 H   0  0  0  0  0  0  0  0  0  0  0  0
   20.9342    4.3790    0.0000 H   0  0  0  0  0  0  0  0  0  0  0  0
   18.5405    5.3891    0.0000 H   0  0  0  0  0  0  0  0  0  0  0  0
   13.8372    1.6767    0.0000 H   0  0  0  0  0  0  0  0  0  0  0  0
   11.2931   -1.5176    0.0000 H   0  0  0  0  0  0  0  0  0  0  0  0
   13.2145   -1.6816    0.0000 H   0  0  0  0  0  0  0  0  0  0  0  0
   10.2580    1.6300    0.0000 H   0  0  0  0  0  0  0  0  0  0  0  0
   12.1794    1.4660    0.0000 H   0  0  0  0  0  0  0  0  0  0  0  0
    8.6599    2.1186    0.0000 H   0  0  0  0  0  0  0  0  0  0  0  0
    8.0372   -1.2396    0.0000 H   0  0  0  0  0  0  0  0  0  0  0  0
    5.6553   -2.5032    0.0000 H   0  0  0  0  0  0  0  0  0  0  0  0
    7.3463   -1.9334    0.0000 H   0  0  0  0  0  0  0  0  0  0  0  0
    3.4355    0.1673    0.0000 H   0  0  0  0  0  0  0  0  0  0  0  0
    4.5842    0.8073    0.0000 H   0  0  0  0  0  0  0  0  0  0  0  0
    2.9766   -3.1142    0.0000 H   0  0  0  0  0  0  0  0  0  0  0  0
    4.7245   -2.7547    0.0000 H   0  0  0  0  0  0  0  0  0  0  0  0
    1.4279   -0.0578    0.0000 H   0  0  0  0  0  0  0  0  0  0  0  0
   -1.4086   -3.1088    0.0000 H   0  0  0  0  0  0  0  0  0  0  0  0
    0.4324   -4.9420    0.0000 H   0  0  0  0  0  0  0  0  0  0  0  0
    2.9405   -4.2643    0.0000 H   0  0  0  0  0  0  0  0  0  0  0  0
    4.1001   -1.2110    0.0000 H   0  0  0  0  0  0  0  0  0  0  0  0
    4.5351    1.9920    0.0000 H   0  0  0  0  0  0  0  0  0  0  0  0
    1.2615    3.1507    0.0000 H   0  0  0  0  0  0  0  0  0  0  0  0
    1.2079    1.5177    0.0000 H   0  0  0  0  0  0  0  0  0  0  0  0
    4.3032    4.5797    0.0000 H   0  0  0  0  0  0  0  0  0  0  0  0
    4.4490    2.9523    0.0000 H   0  0  0  0  0  0  0  0  0  0  0  0
    1.0296    5.7384    0.0000 H   0  0  0  0  0  0  0  0  0  0  0  0
    1.0801    3.9547    0.0000 H   0  0  0  0  0  0  0  0  0  0  0  0
    3.9496    7.3043    0.0000 H   0  0  0  0  0  0  0  0  0  0  0  0
    4.2171    5.5401    0.0000 H   0  0  0  0  0  0  0  0  0  0  0  0
    2.6593    8.8291    0.0000 H   0  0  0  0  0  0  0  0  0  0  0  0
    0.5342    7.3344    0.0000 H   0  0  0  0  0  0  0  0  0  0  0  0
    0.7108    2.7860    0.0000 H   0  0  0  0  0  0  0  0  0  0  0  0
    0.2712   -0.5767    0.0000 H   0  0  0  0  0  0  0  0  0  0  0  0
   -2.2813   -1.7735    0.0000 H   0  0  0  0  0  0  0  0  0  0  0  0
   -0.3243   -1.1141    0.0000 H   0  0  0  0  0  0  0  0  0  0  0  0
   -2.2070    2.1957    0.0000 H   0  0  0  0  0  0  0  0  0  0  0  0
   -5.6710    3.1161    0.0000 H   0  0  0  0  0  0  0  0  0  0  0  0
   -7.4490    1.1280    0.0000 H   0  0  0  0  0  0  0  0  0  0  0  0
   -6.8922   -1.4805    0.0000 H   0  0  0  0  0  0  0  0  0  0  0  0
   -3.4283   -2.4008    0.0000 H   0  0  0  0  0  0  0  0  0  0  0  0
   -3.4893   -0.5967    0.0000 H   0  0  0  0  0  0  0  0  0  0  0  0
   -3.0853    3.1215    0.0000 H   0  0  0  0  0  0  0  0  0  0  0  0
   -3.5780    4.3335    0.0000 H   0  0  0  0  0  0  0  0  0  0  0  0
   -3.7257    4.9406    0.0000 H   0  0  0  0  0  0  0  0  0  0  0  0
   -4.3926    5.8664    0.0000 H   0  0  0  0  0  0  0  0  0  0  0  0
   -4.7906    6.3270    0.0000 H   0  0  0  0  0  0  0  0  0  0  0  0
   -5.9637    7.2140    0.0000 H   0  0  0  0  0  0  0  0  0  0  0  0
   -6.8405    7.8991    0.0000 H   0  0  0  0  0  0  0  0  0  0  0  0
   -2.7813    3.9584    0.0000 H   0  0  0  0  0  0  0  0  0  0  0  0
   -1.7618    3.1279    0.0000 H   0  0  0  0  0  0  0  0  0  0  0  0
   -2.2661    1.2666    0.0000 H   0  0  0  0  0  0  0  0  0  0  0  0
   -4.2934   -2.1020    0.0000 H   0  0  0  0  0  0  0  0  0  0  0  0
   -4.9853   -2.4885    0.0000 H   0  0  0  0  0  0  0  0  0  0  0  0
   -6.9402   -5.0105    0.0000 H   0  0  0  0  0  0  0  0  0  0  0  0
   -7.8332   -3.8338    0.0000 H   0  0  0  0  0  0  0  0  0  0  0  0
   -3.5111   -4.4625    0.0000 H   0  0  0  0  0  0  0  0  0  0  0  0
   -4.2450   -3.0028    0.0000 H   0  0  0  0  0  0  0  0  0  0  0  0
   -5.3266   -7.2343    0.0000 H   0  0  0  0  0  0  0  0  0  0  0  0
   -6.4053   -5.8128    0.0000 H   0  0  0  0  0  0  0  0  0  0  0  0
   -2.3127   -5.6273    0.0000 H   0  0  0  0  0  0  0  0  0  0  0  0
   -2.0230  -10.1179    0.0000 H   0  0  0  0  0  0  0  0  0  0  0  0
   -4.6156  -10.2853    0.0000 H   0  0  0  0  0  0  0  0  0  0  0  0
   -6.0569   -8.1236    0.0000 H   0  0  0  0  0  0  0  0  0  0  0  0
   -9.1820   -4.6205    0.0000 H   0  0  0  0  0  0  0  0  0  0  0  0
  -10.0987   -4.3166    0.0000 H   0  0  0  0  0  0  0  0  0  0  0  0
  -13.2893   -4.3606    0.0000 H   0  0  0  0  0  0  0  0  0  0  0  0
  -12.9261   -2.9288    0.0000 H   0  0  0  0  0  0  0  0  0  0  0  0
  -10.0765   -5.0366    0.0000 H   0  0  0  0  0  0  0  0  0  0  0  0
  -12.4961   -7.9340    0.0000 H   0  0  0  0  0  0  0  0  0  0  0  0
  -14.0219   -7.0086    0.0000 H   0  0  0  0  0  0  0  0  0  0  0  0
  -13.5831   -5.2790    0.0000 H   0  0  0  0  0  0  0  0  0  0  0  0
  -11.2539   -8.1027    0.0000 H   0  0  0  0  0  0  0  0  0  0  0  0
   -9.5366   -7.6179    0.0000 H   0  0  0  0  0  0  0  0  0  0  0  0
   -9.6128   -5.6911    0.0000 H   0  0  0  0  0  0  0  0  0  0  0  0
  -14.2541   -2.4958    0.0000 H   0  0  0  0  0  0  0  0  0  0  0  0
  -14.8748   -1.3671    0.0000 H   0  0  0  0  0  0  0  0  0  0  0  0
  -16.8387    0.8543    0.0000 H   0  0  0  0  0  0  0  0  0  0  0  0
  -15.3939    1.6173    0.0000 H   0  0  0  0  0  0  0  0  0  0  0  0
  -18.4905    0.6012    0.0000 H   0  0  0  0  0  0  0  0  0  0  0  0
  -20.3852   -1.7248    0.0000 H   0  0  0  0  0  0  0  0  0  0  0  0
  -19.3182   -4.5286    0.0000 H   0  0  0  0  0  0  0  0  0  0  0  0
  -16.3565   -5.0065    0.0000 H   0  0  0  0  0  0  0  0  0  0  0  0
  -14.5020   -2.8592    0.0000 H   0  0  0  0  0  0  0  0  0  0  0  0
  -15.8608    3.1073    0.0000 H   0  0  0  0  0  0  0  0  0  0  0  0
  -13.3244    6.9230    0.0000 H   0  0  0  0  0  0  0  0  0  0  0  0
  -14.3536    6.1154    0.0000 H   0  0  0  0  0  0  0  0  0  0  0  0
  -11.8563    7.8495    0.0000 H   0  0  0  0  0  0  0  0  0  0  0  0
  -12.8948    7.3767    0.0000 H   0  0  0  0  0  0  0  0  0  0  0  0
   -9.8235    8.2395    0.0000 H   0  0  0  0  0  0  0  0  0  0  0  0
  -11.2822    8.0517    0.0000 H   0  0  0  0  0  0  0  0  0  0  0  0
   -8.7223    8.3991    0.0000 H   0  0  0  0  0  0  0  0  0  0  0  0
  -16.3940    5.2271    0.0000 H   0  0  0  0  0  0  0  0  0  0  0  0
  -16.7461    3.4778    0.0000 H   0  0  0  0  0  0  0  0  0  0  0  0
  -15.3587    2.6148    0.0000 H   0  0  0  0  0  0  0  0  0  0  0  0
  -14.6035    8.1531    0.0000 H   0  0  0  0  0  0  0  0  0  0  0  0
  1  2  1  0
  2  3  1  0
  3  4  2  0
  4  5  1  0
  5  6  2  0
  6  7  1  0
  7  8  2  0
  7  9  1  0
  9 10  1  0
 10 11  1  0
 11 12  2  0
  9 13  1  0
 13 14  1  0
 14 15  2  0
 15 16  1  0
 16 17  2  0
 17 18  1  0
 16 19  1  0
 14 20  1  0
 20 21  1  0
 21 22  2  0
 22 23  1  0
 23 24  2  0
 24 25  1  0
 25 26  2  0
 25 27  1  0
  1 28  2  0
  1 29  1  0
 29 30  1  0
 30 31  1  0
 31 32  1  0
 32 33  2  0
 32 34  1  0
 34 35  1  0
 35 36  1  0
 36 37  1  0
 37 38  1  0
 38 39  1  0
 39 40  1  0
 40 41  2  3
 40 42  1  0
 35 43  1  0
 43 44  2  0
 43 45  1  0
 45 46  1  0
 46 47  1  0
 47 48  1  0
 48 49  1  0
 49 50  1  0
 50 51  1  0
 46 52  1  0
 52 53  2  0
 52 54  1  0
 54 55  1  0
 55 56  1  0
 56 57  1  0
 57 58  2  0
 58 59  1  0
 59 60  2  0
 60 61  1  0
 61 62  2  0
 55 63  1  0
 63 64  2  0
 63 65  1  0
 66 65  1  6
 66 67  1  0
 67 68  1  0
 68 69  1  0
 69 70  1  0
 66 71  1  0
 66 72  1  0
 72 73  2  0
 72 74  1  0
 74 75  1  0
 75 76  1  0
 76 77  1  0
 77 78  1  0
 78 79  1  0
 79 80  1  0
 80 81  2  3
 80 82  1  0
 75 83  1  0
 83 84  2  0
 83 85  1  0
 85 86  1  0
 86 87  1  0
 87 88  1  0
 88 89  1  0
 88 90  1  0
 86 91  1  0
 91 92  2  0
 91 93  1  0
 93 94  1  0
 94 95  1  0
 95 96  1  0
 96 97  2  0
 97 98  1  0
 98 99  2  0
 99100  1  0
100101  2  0
 94102  1  0
102103  2  0
102104  1  0
104105  1  0
105106  1  0
106107  1  0
107108  1  0
108109  1  0
105110  1  0
105111  1  6
111112  2  0
111113  1  0
  8  3  1  0
 62 57  1  0
101 96  1  0
 11  6  1  0
 70109  2  0
 18 13  2  0
 22  9  1  0
 26 21  1  0
  2114  1  0
  4115  1  0
  5116  1  0
  8117  1  0
 15118  1  0
 17119  1  0
 18120  1  0
 19121  1  0
 23122  1  0
 24123  1  0
 26124  1  0
 27125  1  0
 29126  1  0
 30127  1  0
 30128  1  0
 31129  1  0
 31130  1  0
 34131  1  0
 35132  1  1
 36133  1  0
 36134  1  0
 37135  1  0
 37136  1  0
 38137  1  0
 38138  1  0
 39139  1  0
 41140  1  0
 42141  1  0
 42142  1  0
 45143  1  0
 46144  1  6
 47145  1  0
 47146  1  0
 48147  1  0
 48148  1  0
 49149  1  0
 49150  1  0
 50151  1  0
 50152  1  0
 51153  1  0
 51154  1  0
 54155  1  0
 55156  1  1
 56157  1  0
 56158  1  0
 58159  1  0
 59160  1  0
 60161  1  0
 61162  1  0
 62163  1  0
 65164  1  0
 67165  1  0
 67166  1  0
 68167  1  0
 68168  1  0
 69169  1  0
 69170  1  0
 70171  1  0
 71172  1  0
 71173  1  0
 71174  1  0
 74175  1  0
 75176  1  1
 76177  1  0
 76178  1  0
 77179  1  0
 77180  1  0
 78181  1  0
 78182  1  0
 79183  1  0
 81184  1  0
 82185  1  0
 82186  1  0
 85187  1  0
 86188  1  1
 87189  1  0
 87190  1  0
 88191  1  0
 89192  1  0
 89193  1  0
 89194  1  0
 90195  1  0
 90196  1  0
 90197  1  0
 93198  1  0
 94199  1  1
 95200  1  0
 95201  1  0
 97202  1  0
 98203  1  0
 99204  1  0
100205  1  0
101206  1  0
104207  1  0
106208  1  0
106209  1  0
107210  1  0
107211  1  0
108212  1  0
108213  1  0
109214  1  0
110215  1  0
110216  1  0
110217  1  0
113218  1  0
M  END
