
     RDKit          2D

231234  0  0  0  0  0  0  0  0999 V2000
  -24.8669    2.5735    0.0000 N   0  0  0  0  0  0  0  0  0  0  0  0
  -23.5421    1.8701    0.0000 C   0  0  0  0  0  0  0  0  0  0  0  0
  -22.2705    2.6657    0.0000 C   0  0  0  0  0  0  0  0  0  0  0  0
  -20.9457    1.9623    0.0000 O   0  0  0  0  0  0  0  0  0  0  0  0
  -19.6741    2.7580    0.0000 C   0  0  0  0  0  0  0  0  0  0  0  0
  -18.3492    2.0546    0.0000 O   0  0  0  0  0  0  0  0  0  0  0  0
  -17.0776    2.8502    0.0000 C   0  0  0  0  0  0  0  0  0  0  0  0
  -15.7528    2.1468    0.0000 C   0  0  0  0  0  0  0  0  0  0  0  0
  -14.4812    2.9424    0.0000 O   0  0  0  0  0  0  0  0  0  0  0  0
  -13.1563    2.2390    0.0000 C   0  0  0  0  0  0  0  0  0  0  0  0
  -11.8847    3.0347    0.0000 C   0  0  0  0  0  0  0  0  0  0  0  0
  -10.5599    2.3313    0.0000 C   0  0  0  0  0  0  0  0  0  0  0  0
  -10.5066    0.8322    0.0000 O   0  0  0  0  0  0  0  0  0  0  0  0
   -9.2883    3.1269    0.0000 N   0  0  0  0  0  0  0  0  0  0  0  0
   -7.9635    2.4235    0.0000 C   0  0  0  0  0  0  0  0  0  0  0  0
   -7.5008    3.8504    0.0000 C   0  0  0  0  0  0  0  0  0  0  0  0
   -8.5052    4.9645    0.0000 C   0  0  0  0  0  0  0  0  0  0  0  0
   -8.0425    6.3913    0.0000 C   0  0  0  0  0  0  0  0  0  0  0  0
   -9.0469    7.5054    0.0000 N   0  0  0  0  0  0  0  0  0  0  0  0
   -8.5842    8.9323    0.0000 C   0  0  0  0  0  0  0  0  0  0  0  0
   -9.5886   10.0464    0.0000 N   0  0  0  0  0  0  0  0  0  0  0  0
   -7.1172    9.2451    0.0000 N   0  0  0  0  0  0  0  0  0  0  0  0
   -6.9591    1.3094    0.0000 C   0  0  0  0  0  0  0  0  0  0  0  0
   -5.4921    1.6221    0.0000 O   0  0  0  0  0  0  0  0  0  0  0  0
   -7.4218   -0.1175    0.0000 N   0  0  0  0  0  0  0  0  0  0  0  0
   -6.4174   -1.2316    0.0000 C   0  0  0  0  0  0  0  0  0  0  0  0
   -7.6890   -2.0272    0.0000 C   0  0  0  0  0  0  0  0  0  0  0  0
   -9.0138   -1.3238    0.0000 C   0  0  0  0  0  0  0  0  0  0  0  0
  -10.2854   -2.1195    0.0000 C   0  0  0  0  0  0  0  0  0  0  0  0
  -11.6103   -1.4161    0.0000 C   0  0  0  0  0  0  0  0  0  0  0  0
  -12.8819   -2.2117    0.0000 N   0  0  0  0  0  0  0  0  0  0  0  0
   -5.0926   -1.9350    0.0000 C   0  0  0  0  0  0  0  0  0  0  0  0
   -3.8210   -1.1394    0.0000 O   0  0  0  0  0  0  0  0  0  0  0  0
   -5.0393   -3.4341    0.0000 N   0  0  0  0  0  0  0  0  0  0  0  0
   -3.7145   -4.1375    0.0000 C   0  0  0  0  0  0  0  0  0  0  0  0
   -4.6372   -5.3200    0.0000 C   0  0  0  0  0  0  0  0  0  0  0  0
   -6.1228   -5.1122    0.0000 C   0  0  0  0  0  0  0  0  0  0  0  0
   -6.6855   -3.7217    0.0000 C   0  0  0  0  0  0  0  0  0  0  0  0
   -5.7627   -2.5392    0.0000 F   0  0  0  0  0  0  0  0  0  0  0  0
   -8.1710   -3.5139    0.0000 C   0  0  0  0  0  0  0  0  0  0  0  0
   -8.7338   -2.1234    0.0000 F   0  0  0  0  0  0  0  0  0  0  0  0
   -9.0938   -4.6964    0.0000 C   0  0  0  0  0  0  0  0  0  0  0  0
  -10.5793   -4.4886    0.0000 F   0  0  0  0  0  0  0  0  0  0  0  0
   -8.5311   -6.0869    0.0000 C   0  0  0  0  0  0  0  0  0  0  0  0
   -9.4539   -7.2695    0.0000 F   0  0  0  0  0  0  0  0  0  0  0  0
   -7.0455   -6.2947    0.0000 C   0  0  0  0  0  0  0  0  0  0  0  0
   -6.4828   -7.6852    0.0000 F   0  0  0  0  0  0  0  0  0  0  0  0
   -2.2289   -4.3453    0.0000 C   0  0  0  0  0  0  0  0  0  0  0  0
   -1.8399   -5.7940    0.0000 O   0  0  0  0  0  0  0  0  0  0  0  0
   -1.3061   -3.1628    0.0000 N   0  0  0  0  0  0  0  0  0  0  0  0
    0.1794   -3.3706    0.0000 C   0  0  0  0  0  0  0  0  0  0  0  0
   -0.2421   -1.9311    0.0000 C   0  0  0  0  0  0  0  0  0  0  0  0
   -0.2206   -0.4312    0.0000 C   0  0  0  0  0  0  0  0  0  0  0  0
    0.2421    0.9956    0.0000 C   0  0  0  0  0  0  0  0  0  0  0  0
    1.1048    2.2227    0.0000 C   0  0  0  0  0  0  0  0  0  0  0  0
   -0.6211   -4.6392    0.0000 C   0  0  0  0  0  0  0  0  0  0  0  0
    1.0065   -4.6220    0.0000 C   0  0  0  0  0  0  0  0  0  0  0  0
   -0.1076   -5.6264    0.0000 O   0  0  0  0  0  0  0  0  0  0  0  0
    2.1657   -5.5740    0.0000 N   0  0  0  0  0  0  0  0  0  0  0  0
    3.5540   -6.1420    0.0000 C   0  0  0  0  0  0  0  0  0  0  0  0
    4.0467   -7.5587    0.0000 C   0  0  0  0  0  0  0  0  0  0  0  0
    3.0661   -8.6938    0.0000 C   0  0  0  0  0  0  0  0  0  0  0  0
    3.5589  -10.1106    0.0000 C   0  0  0  0  0  0  0  0  0  0  0  0
    2.5783  -11.2457    0.0000 N   0  0  0  0  0  0  0  0  0  0  0  0
    3.0710  -12.6625    0.0000 C   0  0  0  0  0  0  0  0  0  0  0  0
    2.0904  -13.7976    0.0000 N   0  0  0  0  0  0  0  0  0  0  0  0
    4.5443  -12.9441    0.0000 N   0  0  0  0  0  0  0  0  0  0  0  0
    5.0480   -6.2755    0.0000 C   0  0  0  0  0  0  0  0  0  0  0  0
    5.1386   -7.7728    0.0000 O   0  0  0  0  0  0  0  0  0  0  0  0
    6.5150   -5.9628    0.0000 N   0  0  0  0  0  0  0  0  0  0  0  0
    7.8247   -5.2315    0.0000 C   0  0  0  0  0  0  0  0  0  0  0  0
    9.2396   -5.7296    0.0000 C   0  0  0  0  0  0  0  0  0  0  0  0
    9.5157   -7.2040    0.0000 C   0  0  0  0  0  0  0  0  0  0  0  0
   10.9306   -7.7021    0.0000 C   0  0  0  0  0  0  0  0  0  0  0  0
    9.2708   -8.6839    0.0000 C   0  0  0  0  0  0  0  0  0  0  0  0
    8.8607   -4.1467    0.0000 C   0  0  0  0  0  0  0  0  0  0  0  0
   10.0878   -5.0094    0.0000 O   0  0  0  0  0  0  0  0  0  0  0  0
    9.5308   -2.8047    0.0000 N   0  0  0  0  0  0  0  0  0  0  0  0
    9.7757   -1.3248    0.0000 C   0  0  0  0  0  0  0  0  0  0  0  0
   11.0473   -0.5292    0.0000 C   0  0  0  0  0  0  0  0  0  0  0  0
   12.3721   -1.2326    0.0000 C   0  0  0  0  0  0  0  0  0  0  0  0
   12.4254   -2.7317    0.0000 C   0  0  0  0  0  0  0  0  0  0  0  0
   13.7502   -3.4351    0.0000 C   0  0  0  0  0  0  0  0  0  0  0  0
   15.0218   -2.6394    0.0000 C   0  0  0  0  0  0  0  0  0  0  0  0
   14.9685   -1.1404    0.0000 C   0  0  0  0  0  0  0  0  0  0  0  0
   13.6437   -0.4370    0.0000 C   0  0  0  0  0  0  0  0  0  0  0  0
    9.5734    0.1615    0.0000 C   0  0  0  0  0  0  0  0  0  0  0  0
   11.0130    0.5830    0.0000 O   0  0  0  0  0  0  0  0  0  0  0  0
    8.9421    1.5221    0.0000 N   0  0  0  0  0  0  0  0  0  0  0  0
    7.9377    2.6362    0.0000 C   0  0  0  0  0  0  0  0  0  0  0  0
    6.6496    3.4048    0.0000 C   0  0  0  0  0  0  0  0  0  0  0  0
    5.1921    3.7595    0.0000 C   0  0  0  0  0  0  0  0  0  0  0  0
    3.6949    3.6689    0.0000 C   0  0  0  0  0  0  0  0  0  0  0  0
    2.2908    3.1410    0.0000 C   0  0  0  0  0  0  0  0  0  0  0  0
    9.3663    3.0935    0.0000 C   0  0  0  0  0  0  0  0  0  0  0  0
    8.1085    4.1265    0.0000 C   0  0  0  0  0  0  0  0  0  0  0  0
    7.1552    5.2846    0.0000 O   0  0  0  0  0  0  0  0  0  0  0  0
    9.4844    4.7237    0.0000 N   0  0  0  0  0  0  0  0  0  0  0  0
    9.6552    6.2140    0.0000 C   0  0  0  0  0  0  0  0  0  0  0  0
    9.3060    7.6727    0.0000 C   0  0  0  0  0  0  0  0  0  0  0  0
   10.2608    8.8296    0.0000 O   0  0  0  0  0  0  0  0  0  0  0  0
   11.0312    6.8112    0.0000 C   0  0  0  0  0  0  0  0  0  0  0  0
   11.2020    8.3014    0.0000 O   0  0  0  0  0  0  0  0  0  0  0  0
   12.2364    5.9182    0.0000 N   0  0  0  0  0  0  0  0  0  0  0  0
   13.6124    6.5154    0.0000 C   0  0  0  0  0  0  0  0  0  0  0  0
   14.7011    7.5472    0.0000 C   0  0  0  0  0  0  0  0  0  0  0  0
   14.3519    9.0060    0.0000 C   0  0  0  0  0  0  0  0  0  0  0  0
   12.9139    9.4330    0.0000 C   0  0  0  0  0  0  0  0  0  0  0  0
   12.5647   10.8918    0.0000 C   0  0  0  0  0  0  0  0  0  0  0  0
   13.6534   11.9236    0.0000 C   0  0  0  0  0  0  0  0  0  0  0  0
   13.3042   13.3824    0.0000 O   0  0  0  0  0  0  0  0  0  0  0  0
   15.0914   11.4966    0.0000 C   0  0  0  0  0  0  0  0  0  0  0  0
   15.4406   10.0379    0.0000 C   0  0  0  0  0  0  0  0  0  0  0  0
   14.8176    5.6224    0.0000 C   0  0  0  0  0  0  0  0  0  0  0  0
   16.2561    6.0475    0.0000 O   0  0  0  0  0  0  0  0  0  0  0  0
   14.6468    4.1322    0.0000 O   0  0  0  0  0  0  0  0  0  0  0  0
  -26.1385    1.7779    0.0000 H   0  0  0  0  0  0  0  0  0  0  0  0
  -24.9202    4.0726    0.0000 H   0  0  0  0  0  0  0  0  0  0  0  0
  -24.4649    0.6875    0.0000 H   0  0  0  0  0  0  0  0  0  0  0  0
  -22.5377    0.7560    0.0000 H   0  0  0  0  0  0  0  0  0  0  0  0
  -23.2749    3.7799    0.0000 H   0  0  0  0  0  0  0  0  0  0  0  0
  -21.4987    3.9520    0.0000 H   0  0  0  0  0  0  0  0  0  0  0  0
  -20.5351    3.9862    0.0000 H   0  0  0  0  0  0  0  0  0  0  0  0
  -18.9023    4.0442    0.0000 H   0  0  0  0  0  0  0  0  0  0  0  0
  -17.9387    4.0784    0.0000 H   0  0  0  0  0  0  0  0  0  0  0  0
  -16.1548    4.0328    0.0000 H   0  0  0  0  0  0  0  0  0  0  0  0
  -16.6756    0.9642    0.0000 H   0  0  0  0  0  0  0  0  0  0  0  0
  -14.8917    0.9186    0.0000 H   0  0  0  0  0  0  0  0  0  0  0  0
  -13.9281    0.9528    0.0000 H   0  0  0  0  0  0  0  0  0  0  0  0
  -12.1520    1.1249    0.0000 H   0  0  0  0  0  0  0  0  0  0  0  0
  -12.8891    4.1488    0.0000 H   0  0  0  0  0  0  0  0  0  0  0  0
  -10.9620    4.2172    0.0000 H   0  0  0  0  0  0  0  0  0  0  0  0
   -9.4135    3.9142    0.0000 H   0  0  0  0  0  0  0  0  0  0  0  0
   -8.8862    1.2409    0.0000 H   0  0  0  0  0  0  0  0  0  0  0  0
   -6.4407    4.9116    0.0000 H   0  0  0  0  0  0  0  0  0  0  0  0
   -6.1759    3.1469    0.0000 H   0  0  0  0  0  0  0  0  0  0  0  0
   -9.8300    5.6679    0.0000 H   0  0  0  0  0  0  0  0  0  0  0  0
   -9.2641    4.5079    0.0000 H   0  0  0  0  0  0  0  0  0  0  0  0
   -7.1197    7.5739    0.0000 H   0  0  0  0  0  0  0  0  0  0  0  0
   -6.6418    5.8547    0.0000 H   0  0  0  0  0  0  0  0  0  0  0  0
  -10.5139    7.1927    0.0000 H   0  0  0  0  0  0  0  0  0  0  0  0
   -9.1259   11.4733    0.0000 H   0  0  0  0  0  0  0  0  0  0  0  0
  -11.0556    9.7337    0.0000 H   0  0  0  0  0  0  0  0  0  0  0  0
   -6.6545   10.6719    0.0000 H   0  0  0  0  0  0  0  0  0  0  0  0
   -6.1128    8.1309    0.0000 H   0  0  0  0  0  0  0  0  0  0  0  0
   -8.9160   -0.2491    0.0000 H   0  0  0  0  0  0  0  0  0  0  0  0
   -5.4946   -0.0490    0.0000 H   0  0  0  0  0  0  0  0  0  0  0  0
   -8.7490   -3.0885    0.0000 H   0  0  0  0  0  0  0  0  0  0  0  0
   -6.4449   -2.8652    0.0000 H   0  0  0  0  0  0  0  0  0  0  0  0
   -9.8749   -0.0956    0.0000 H   0  0  0  0  0  0  0  0  0  0  0  0
   -8.5763    0.1109    0.0000 H   0  0  0  0  0  0  0  0  0  0  0  0
  -11.0572   -3.4057    0.0000 H   0  0  0  0  0  0  0  0  0  0  0  0
   -9.4244   -3.3477    0.0000 H   0  0  0  0  0  0  0  0  0  0  0  0
  -12.6146   -0.3019    0.0000 H   0  0  0  0  0  0  0  0  0  0  0  0
  -10.8385   -0.1298    0.0000 H   0  0  0  0  0  0  0  0  0  0  0  0
  -14.2067   -1.5083    0.0000 H   0  0  0  0  0  0  0  0  0  0  0  0
  -13.8046   -3.3943    0.0000 H   0  0  0  0  0  0  0  0  0  0  0  0
  -12.0208   -3.4399    0.0000 H   0  0  0  0  0  0  0  0  0  0  0  0
   -6.4656   -3.8984    0.0000 H   0  0  0  0  0  0  0  0  0  0  0  0
   -3.2518   -2.7106    0.0000 H   0  0  0  0  0  0  0  0  0  0  0  0
   -5.0999   -6.7469    0.0000 H   0  0  0  0  0  0  0  0  0  0  0  0
   -3.3124   -6.0235    0.0000 H   0  0  0  0  0  0  0  0  0  0  0  0
   -2.1886   -1.9498    0.0000 H   0  0  0  0  0  0  0  0  0  0  0  0
   -1.5833   -2.6028    0.0000 H   0  0  0  0  0  0  0  0  0  0  0  0
   -1.6004   -1.2946    0.0000 H   0  0  0  0  0  0  0  0  0  0  0  0
   -1.7002   -0.6778    0.0000 H   0  0  0  0  0  0  0  0  0  0  0  0
   -1.4456    0.4345    0.0000 H   0  0  0  0  0  0  0  0  0  0  0  0
   -1.2578    1.0135    0.0000 H   0  0  0  0  0  0  0  0  0  0  0  0
   -0.5216    2.2867    0.0000 H   0  0  0  0  0  0  0  0  0  0  0  0
    0.0199    3.2587    0.0000 H   0  0  0  0  0  0  0  0  0  0  0  0
   -2.0896   -4.9447    0.0000 H   0  0  0  0  0  0  0  0  0  0  0  0
   -0.7583   -6.1329    0.0000 H   0  0  0  0  0  0  0  0  0  0  0  0
    0.5885   -5.5263    0.0000 H   0  0  0  0  0  0  0  0  0  0  0  0
    1.3971   -6.8621    0.0000 H   0  0  0  0  0  0  0  0  0  0  0  0
    2.3476   -7.0334    0.0000 H   0  0  0  0  0  0  0  0  0  0  0  0
    5.1290   -8.5974    0.0000 H   0  0  0  0  0  0  0  0  0  0  0  0
    5.4944   -7.1661    0.0000 H   0  0  0  0  0  0  0  0  0  0  0  0
    1.7565   -9.4251    0.0000 H   0  0  0  0  0  0  0  0  0  0  0  0
    1.9839   -7.6552    0.0000 H   0  0  0  0  0  0  0  0  0  0  0  0
    4.5065  -11.2734    0.0000 H   0  0  0  0  0  0  0  0  0  0  0  0
    4.9479   -9.5444    0.0000 H   0  0  0  0  0  0  0  0  0  0  0  0
    1.1050  -10.9640    0.0000 H   0  0  0  0  0  0  0  0  0  0  0  0
    2.5832  -15.2143    0.0000 H   0  0  0  0  0  0  0  0  0  0  0  0
    0.6171  -13.5159    0.0000 H   0  0  0  0  0  0  0  0  0  0  0  0
    5.0371  -14.3609    0.0000 H   0  0  0  0  0  0  0  0  0  0  0  0
    5.5249  -11.8090    0.0000 H   0  0  0  0  0  0  0  0  0  0  0  0
    7.0430   -7.3668    0.0000 H   0  0  0  0  0  0  0  0  0  0  0  0
    7.7695   -6.7305    0.0000 H   0  0  0  0  0  0  0  0  0  0  0  0
   10.7264   -5.5310    0.0000 H   0  0  0  0  0  0  0  0  0  0  0  0
    9.8353   -4.3530    0.0000 H   0  0  0  0  0  0  0  0  0  0  0  0
    8.0289   -7.4026    0.0000 H   0  0  0  0  0  0  0  0  0  0  0  0
   11.3843   -9.1318    0.0000 H   0  0  0  0  0  0  0  0  0  0  0  0
   12.4305   -7.6862    0.0000 H   0  0  0  0  0  0  0  0  0  0  0  0
   11.3540   -6.2631    0.0000 H   0  0  0  0  0  0  0  0  0  0  0  0
   10.3054   -9.7701    0.0000 H   0  0  0  0  0  0  0  0  0  0  0  0
    8.5346   -9.9908    0.0000 H   0  0  0  0  0  0  0  0  0  0  0  0
    7.8560   -8.1858    0.0000 H   0  0  0  0  0  0  0  0  0  0  0  0
   10.8907   -3.4379    0.0000 H   0  0  0  0  0  0  0  0  0  0  0  0
   11.0239   -2.1567    0.0000 H   0  0  0  0  0  0  0  0  0  0  0  0
   11.9700    0.6534    0.0000 H   0  0  0  0  0  0  0  0  0  0  0  0
   10.3423    0.7948    0.0000 H   0  0  0  0  0  0  0  0  0  0  0  0
   11.2602   -3.6764    0.0000 H   0  0  0  0  0  0  0  0  0  0  0  0
   13.8034   -4.9341    0.0000 H   0  0  0  0  0  0  0  0  0  0  0  0
   16.3466   -3.3428    0.0000 H   0  0  0  0  0  0  0  0  0  0  0  0
   16.2401   -0.3447    0.0000 H   0  0  0  0  0  0  0  0  0  0  0  0
   13.5904    1.0621    0.0000 H   0  0  0  0  0  0  0  0  0  0  0  0
   10.1934    2.3492    0.0000 H   0  0  0  0  0  0  0  0  0  0  0  0
    6.3735    4.8792    0.0000 H   0  0  0  0  0  0  0  0  0  0  0  0
    7.6357    4.5351    0.0000 H   0  0  0  0  0  0  0  0  0  0  0  0
    4.6607    5.1623    0.0000 H   0  0  0  0  0  0  0  0  0  0  0  0
    5.8013    5.1303    0.0000 H   0  0  0  0  0  0  0  0  0  0  0  0
    2.6362    4.7316    0.0000 H   0  0  0  0  0  0  0  0  0  0  0  0
    4.0532    5.1255    0.0000 H   0  0  0  0  0  0  0  0  0  0  0  0
    1.5595    4.4507    0.0000 H   0  0  0  0  0  0  0  0  0  0  0  0
   10.0298    4.4388    0.0000 H   0  0  0  0  0  0  0  0  0  0  0  0
   10.8468    2.8523    0.0000 H   0  0  0  0  0  0  0  0  0  0  0  0
    9.9222    1.7003    0.0000 H   0  0  0  0  0  0  0  0  0  0  0  0
   10.7895    3.9843    0.0000 H   0  0  0  0  0  0  0  0  0  0  0  0
    8.1579    6.1234    0.0000 H   0  0  0  0  0  0  0  0  0  0  0  0
    8.4789    8.9241    0.0000 H   0  0  0  0  0  0  0  0  0  0  0  0
    7.9300    7.0755    0.0000 H   0  0  0  0  0  0  0  0  0  0  0  0
   10.0455   10.1633    0.0000 H   0  0  0  0  0  0  0  0  0  0  0  0
   12.0656    4.4279    0.0000 H   0  0  0  0  0  0  0  0  0  0  0  0
   12.7853    7.7668    0.0000 H   0  0  0  0  0  0  0  0  0  0  0  0
   16.0771    8.1445    0.0000 H   0  0  0  0  0  0  0  0  0  0  0  0
   15.6746    6.4060    0.0000 H   0  0  0  0  0  0  0  0  0  0  0  0
   11.7075    8.5416    0.0000 H   0  0  0  0  0  0  0  0  0  0  0  0
   11.1267   11.3187    0.0000 H   0  0  0  0  0  0  0  0  0  0  0  0
   14.3929   14.4142    0.0000 H   0  0  0  0  0  0  0  0  0  0  0  0
   16.1801   12.5285    0.0000 H   0  0  0  0  0  0  0  0  0  0  0  0
   16.8786    9.6109    0.0000 H   0  0  0  0  0  0  0  0  0  0  0  0
  1  2  1  0
  2  3  1  0
  3  4  1  0
  4  5  1  0
  5  6  1  0
  6  7  1  0
  7  8  1  0
  8  9  1  0
  9 10  1  0
 10 11  1  0
 11 12  1  0
 12 13  2  0
 12 14  1  0
 14 15  1  0
 15 16  1  0
 16 17  1  0
 17 18  1  0
 18 19  1  0
 19 20  1  0
 20 21  2  3
 20 22  1  0
 15 23  1  0
 23 24  2  0
 23 25  1  0
 25 26  1  0
 26 27  1  0
 27 28  1  0
 28 29  1  0
 29 30  1  0
 30 31  1  0
 26 32  1  0
 32 33  2  0
 32 34  1  0
 34 35  1  0
 35 36  1  0
 36 37  1  0
 37 38  2  0
 38 39  1  0
 38 40  1  0
 40 41  1  0
 40 42  2  0
 42 43  1  0
 42 44  1  0
 44 45  1  0
 44 46  2  0
 46 47  1  0
 35 48  1  0
 48 49  2  0
 48 50  1  0
 51 50  1  1
 51 52  1  0
 52 53  1  0
 53 54  1  0
 54 55  1  0
 51 56  1  0
 51 57  1  0
 57 58  2  0
 57 59  1  0
 59 60  1  0
 60 61  1  0
 61 62  1  0
 62 63  1  0
 63 64  1  0
 64 65  1  0
 65 66  2  3
 65 67  1  0
 60 68  1  0
 68 69  2  0
 68 70  1  0
 70 71  1  0
 71 72  1  0
 72 73  1  0
 73 74  1  0
 73 75  1  0
 71 76  1  0
 76 77  2  0
 76 78  1  0
 78 79  1  0
 79 80  1  0
 80 81  1  0
 81 82  2  0
 82 83  1  0
 83 84  2  0
 84 85  1  0
 85 86  2  0
 79 87  1  0
 87 88  2  0
 87 89  1  0
 89 90  1  0
 90 91  1  0
 91 92  1  0
 92 93  1  0
 93 94  1  0
 90 95  1  0
 90 96  1  1
 96 97  2  0
 96 98  1  0
 98 99  1  0
 99100  1  0
100101  1  0
 99102  1  0
102103  2  0
102104  1  0
104105  1  0
105106  1  0
106107  1  0
107108  2  0
108109  1  0
109110  2  0
110111  1  0
110112  1  0
112113  2  0
105114  1  0
114115  2  0
114116  1  0
 46 37  1  0
 86 81  1  0
113107  1  0
 55 94  2  0
  1117  1  0
  1118  1  0
  2119  1  0
  2120  1  0
  3121  1  0
  3122  1  0
  5123  1  0
  5124  1  0
  7125  1  0
  7126  1  0
  8127  1  0
  8128  1  0
 10129  1  0
 10130  1  0
 11131  1  0
 11132  1  0
 14133  1  0
 15134  1  1
 16135  1  0
 16136  1  0
 17137  1  0
 17138  1  0
 18139  1  0
 18140  1  0
 19141  1  0
 21142  1  0
 21143  1  0
 22144  1  0
 22145  1  0
 25146  1  0
 26147  1  6
 27148  1  0
 27149  1  0
 28150  1  0
 28151  1  0
 29152  1  0
 29153  1  0
 30154  1  0
 30155  1  0
 31156  1  0
 31157  1  0
 31158  1  0
 34159  1  0
 35160  1  1
 36161  1  0
 36162  1  0
 50163  1  0
 52164  1  0
 52165  1  0
 53166  1  0
 53167  1  0
 54168  1  0
 54169  1  0
 55170  1  0
 56171  1  0
 56172  1  0
 56173  1  0
 59174  1  0
 60175  1  6
 61176  1  0
 61177  1  0
 62178  1  0
 62179  1  0
 63180  1  0
 63181  1  0
 64182  1  0
 66183  1  0
 66184  1  0
 67185  1  0
 67186  1  0
 70187  1  0
 71188  1  6
 72189  1  0
 72190  1  0
 73191  1  0
 74192  1  0
 74193  1  0
 74194  1  0
 75195  1  0
 75196  1  0
 75197  1  0
 78198  1  0
 79199  1  6
 80200  1  0
 80201  1  0
 82202  1  0
 83203  1  0
 84204  1  0
 85205  1  0
 86206  1  0
 89207  1  0
 91208  1  0
 91209  1  0
 92210  1  0
 92211  1  0
 93212  1  0
 93213  1  0
 94214  1  0
 95215  1  0
 95216  1  0
 95217  1  0
 98218  1  0
 99219  1  1
100220  1  0
100221  1  0
101222  1  0
104223  1  0
105224  1  1
106225  1  0
106226  1  0
108227  1  0
109228  1  0
111229  1  0
112230  1  0
113231  1  0
M  CHG  4  21   1  31   1  66   1 116  -1
M  END
