
     RDKit          2D

200206  0  0  0  0  0  0  0  0999 V2000
   17.4663   -0.6976    0.0000 C   0  0  0  0  0  0  0  0  0  0  0  0
   18.7787    0.0286    0.0000 N   0  0  0  0  0  0  0  0  0  0  0  0
   20.0639   -0.7449    0.0000 C   0  0  0  0  0  0  0  0  0  0  0  0
   20.0366   -2.2447    0.0000 C   0  0  0  0  0  0  0  0  0  0  0  0
   21.3218   -3.0182    0.0000 C   0  0  0  0  0  0  0  0  0  0  0  0
   22.6342   -2.2920    0.0000 C   0  0  0  0  0  0  0  0  0  0  0  0
   22.6615   -0.7922    0.0000 C   0  0  0  0  0  0  0  0  0  0  0  0
   21.3764   -0.0187    0.0000 C   0  0  0  0  0  0  0  0  0  0  0  0
   24.0963   -0.3548    0.0000 C   0  0  0  0  0  0  0  0  0  0  0  0
   24.9558   -1.5841    0.0000 O   0  0  0  0  0  0  0  0  0  0  0  0
   24.0521   -2.7814    0.0000 C   0  0  0  0  0  0  0  0  0  0  0  0
   24.4896   -4.2162    0.0000 O   0  0  0  0  0  0  0  0  0  0  0  0
   25.5690   -0.0696    0.0000 C   0  0  0  0  0  0  0  0  0  0  0  0
   26.0584    1.3483    0.0000 C   0  0  0  0  0  0  0  0  0  0  0  0
   27.5311    1.6334    0.0000 C   0  0  0  0  0  0  0  0  0  0  0  0
   28.5143    0.5006    0.0000 C   0  0  0  0  0  0  0  0  0  0  0  0
   28.0249   -0.9174    0.0000 C   0  0  0  0  0  0  0  0  0  0  0  0
   26.5522   -1.2025    0.0000 C   0  0  0  0  0  0  0  0  0  0  0  0
   29.9870    0.7857    0.0000 O   0  0  0  0  0  0  0  0  0  0  0  0
   25.0752    2.4811    0.0000 O   0  0  0  0  0  0  0  0  0  0  0  0
   23.6025    2.1960    0.0000 C   0  0  0  0  0  0  0  0  0  0  0  0
   23.1131    0.7781    0.0000 C   0  0  0  0  0  0  0  0  0  0  0  0
   21.8688    1.1546    0.0000 C   0  0  0  0  0  0  0  0  0  0  0  0
   21.3444    1.7588    0.0000 C   0  0  0  0  0  0  0  0  0  0  0  0
   21.6055    2.5150    0.0000 C   0  0  0  0  0  0  0  0  0  0  0  0
   22.3909    2.6671    0.0000 C   0  0  0  0  0  0  0  0  0  0  0  0
   20.1634    4.1765    0.0000 O   0  0  0  0  0  0  0  0  0  0  0  0
   17.4389   -2.1974    0.0000 S   0  0  0  0  0  0  0  0  0  0  0  0
   16.1811    0.0759    0.0000 N   0  0  0  0  0  0  0  0  0  0  0  0
   14.8686   -0.6503    0.0000 C   0  0  0  0  0  0  0  0  0  0  0  0
   13.5834    0.1232    0.0000 C   0  0  0  0  0  0  0  0  0  0  0  0
   12.2710   -0.6030    0.0000 C   0  0  0  0  0  0  0  0  0  0  0  0
   12.2437   -2.1028    0.0000 O   0  0  0  0  0  0  0  0  0  0  0  0
   10.9858    0.1705    0.0000 N   0  0  0  0  0  0  0  0  0  0  0  0
    9.6733   -0.5557    0.0000 C   0  0  0  0  0  0  0  0  0  0  0  0
    8.6884   -1.6870    0.0000 C   0  0  0  0  0  0  0  0  0  0  0  0
    7.2162   -1.3997    0.0000 C   0  0  0  0  0  0  0  0  0  0  0  0
    6.2312   -2.5310    0.0000 C   0  0  0  0  0  0  0  0  0  0  0  0
    4.7590   -2.2437    0.0000 C   0  0  0  0  0  0  0  0  0  0  0  0
    3.7740   -3.3750    0.0000 N   0  0  0  0  0  0  0  0  0  0  0  0
    8.3882    0.2178    0.0000 C   0  0  0  0  0  0  0  0  0  0  0  0
    8.4155    1.7176    0.0000 O   0  0  0  0  0  0  0  0  0  0  0  0
    7.0757   -0.5084    0.0000 N   0  0  0  0  0  0  0  0  0  0  0  0
    5.7905    0.2651    0.0000 C   0  0  0  0  0  0  0  0  0  0  0  0
    4.8474    1.4315    0.0000 C   0  0  0  0  0  0  0  0  0  0  0  0
    5.3860    2.8315    0.0000 C   0  0  0  0  0  0  0  0  0  0  0  0
    4.4429    3.9979    0.0000 N   0  0  0  0  0  0  0  0  0  0  0  0
    6.8677    3.0650    0.0000 O   0  0  0  0  0  0  0  0  0  0  0  0
    4.4780   -0.4611    0.0000 C   0  0  0  0  0  0  0  0  0  0  0  0
    4.1626   -1.6345    0.0000 O   0  0  0  0  0  0  0  0  0  0  0  0
    3.1929    0.3124    0.0000 N   0  0  0  0  0  0  0  0  0  0  0  0
    1.8804   -0.4138    0.0000 C   0  0  0  0  0  0  0  0  0  0  0  0
    0.8954   -1.5451    0.0000 C   0  0  0  0  0  0  0  0  0  0  0  0
   -0.5768   -1.2578    0.0000 C   0  0  0  0  0  0  0  0  0  0  0  0
   -1.6746   -2.2800    0.0000 C   0  0  0  0  0  0  0  0  0  0  0  0
   -2.9860   -1.5518    0.0000 N   0  0  0  0  0  0  0  0  0  0  0  0
   -2.6986   -0.0796    0.0000 C   0  0  0  0  0  0  0  0  0  0  0  0
   -1.2097    0.1021    0.0000 N   0  0  0  0  0  0  0  0  0  0  0  0
    0.5952    0.3597    0.0000 C   0  0  0  0  0  0  0  0  0  0  0  0
    0.6225    1.8595    0.0000 O   0  0  0  0  0  0  0  0  0  0  0  0
   -0.7173   -0.3665    0.0000 N   0  0  0  0  0  0  0  0  0  0  0  0
   -2.0024    0.4070    0.0000 C   0  0  0  0  0  0  0  0  0  0  0  0
   -2.9455    1.5734    0.0000 C   0  0  0  0  0  0  0  0  0  0  0  0
   -4.1268    2.4978    0.0000 O   0  0  0  0  0  0  0  0  0  0  0  0
   -2.4069    2.9734    0.0000 C   0  0  0  0  0  0  0  0  0  0  0  0
   -3.3149   -0.3192    0.0000 C   0  0  0  0  0  0  0  0  0  0  0  0
   -3.7043   -1.7678    0.0000 O   0  0  0  0  0  0  0  0  0  0  0  0
   -4.6001    0.4543    0.0000 N   0  0  0  0  0  0  0  0  0  0  0  0
   -5.9126   -0.2719    0.0000 C   0  0  0  0  0  0  0  0  0  0  0  0
   -6.8975   -1.4032    0.0000 C   0  0  0  0  0  0  0  0  0  0  0  0
   -8.3697   -1.1159    0.0000 C   0  0  0  0  0  0  0  0  0  0  0  0
   -9.4675   -2.1381    0.0000 C   0  0  0  0  0  0  0  0  0  0  0  0
  -10.7789   -1.4099    0.0000 N   0  0  0  0  0  0  0  0  0  0  0  0
  -10.4916    0.0623    0.0000 C   0  0  0  0  0  0  0  0  0  0  0  0
   -9.0026    0.2440    0.0000 N   0  0  0  0  0  0  0  0  0  0  0  0
   -7.1977    0.5016    0.0000 C   0  0  0  0  0  0  0  0  0  0  0  0
   -7.1704    2.0014    0.0000 O   0  0  0  0  0  0  0  0  0  0  0  0
   -8.5102   -0.2246    0.0000 N   0  0  0  0  0  0  0  0  0  0  0  0
   -9.7954    0.5489    0.0000 C   0  0  0  0  0  0  0  0  0  0  0  0
  -10.7385    1.7153    0.0000 C   0  0  0  0  0  0  0  0  0  0  0  0
  -10.1999    3.1153    0.0000 C   0  0  0  0  0  0  0  0  0  0  0  0
  -11.1430    4.2817    0.0000 C   0  0  0  0  0  0  0  0  0  0  0  0
  -10.6044    5.6817    0.0000 N   0  0  0  0  0  0  0  0  0  0  0  0
  -12.6247    4.0482    0.0000 O   0  0  0  0  0  0  0  0  0  0  0  0
  -11.1078   -0.1773    0.0000 C   0  0  0  0  0  0  0  0  0  0  0  0
  -11.4972   -1.6259    0.0000 O   0  0  0  0  0  0  0  0  0  0  0  0
  -12.3930    0.5962    0.0000 N   0  0  0  0  0  0  0  0  0  0  0  0
  -13.7055   -0.1300    0.0000 C   0  0  0  0  0  0  0  0  0  0  0  0
  -14.6904   -1.2613    0.0000 C   0  0  0  0  0  0  0  0  0  0  0  0
  -16.1627   -0.9740    0.0000 C   0  0  0  0  0  0  0  0  0  0  0  0
  -17.1476   -2.1053    0.0000 C   0  0  0  0  0  0  0  0  0  0  0  0
  -18.6439   -1.9996    0.0000 N   0  0  0  0  0  0  0  0  0  0  0  0
  -16.6603   -3.5240    0.0000 O   0  0  0  0  0  0  0  0  0  0  0  0
  -14.9907    0.6435    0.0000 C   0  0  0  0  0  0  0  0  0  0  0  0
  -14.9634    2.1433    0.0000 O   0  0  0  0  0  0  0  0  0  0  0  0
  -16.3031   -0.0827    0.0000 N   0  0  0  0  0  0  0  0  0  0  0  0
  -17.5883    0.6908    0.0000 C   0  0  0  0  0  0  0  0  0  0  0  0
  -18.5314    1.8572    0.0000 C   0  0  0  0  0  0  0  0  0  0  0  0
  -17.9928    3.2572    0.0000 C   0  0  0  0  0  0  0  0  0  0  0  0
  -18.9359    4.4236    0.0000 O   0  0  0  0  0  0  0  0  0  0  0  0
  -16.5111    3.4907    0.0000 O   0  0  0  0  0  0  0  0  0  0  0  0
  -18.9008   -0.0354    0.0000 C   0  0  0  0  0  0  0  0  0  0  0  0
  -19.1107   -1.5207    0.0000 O   0  0  0  0  0  0  0  0  0  0  0  0
  -20.1860    0.7381    0.0000 N   0  0  0  0  0  0  0  0  0  0  0  0
  -21.4984    0.0119    0.0000 C   0  0  0  0  0  0  0  0  0  0  0  0
  -22.4834   -1.1194    0.0000 C   0  0  0  0  0  0  0  0  0  0  0  0
  -23.9096   -0.6548    0.0000 C   0  0  0  0  0  0  0  0  0  0  0  0
  -23.0220   -2.5194    0.0000 C   0  0  0  0  0  0  0  0  0  0  0  0
  -24.5037   -2.7529    0.0000 C   0  0  0  0  0  0  0  0  0  0  0  0
  -22.7836    0.7854    0.0000 C   0  0  0  0  0  0  0  0  0  0  0  0
  -24.1748    0.2246    0.0000 O   0  0  0  0  0  0  0  0  0  0  0  0
  -22.7563    2.2852    0.0000 O   0  0  0  0  0  0  0  0  0  0  0  0
   18.6230    1.5205    0.0000 H   0  0  0  0  0  0  0  0  0  0  0  0
   18.7241   -2.9709    0.0000 H   0  0  0  0  0  0  0  0  0  0  0  0
   21.2945   -4.5180    0.0000 H   0  0  0  0  0  0  0  0  0  0  0  0
   21.0400    1.4431    0.0000 H   0  0  0  0  0  0  0  0  0  0  0  0
   28.0205    3.0513    0.0000 H   0  0  0  0  0  0  0  0  0  0  0  0
   29.0081   -2.0502    0.0000 H   0  0  0  0  0  0  0  0  0  0  0  0
   26.0628   -2.6204    0.0000 H   0  0  0  0  0  0  0  0  0  0  0  0
   30.9702   -0.3471    0.0000 H   0  0  0  0  0  0  0  0  0  0  0  0
   21.1510   -0.9250    0.0000 H   0  0  0  0  0  0  0  0  0  0  0  0
   19.1608    1.5223    0.0000 H   0  0  0  0  0  0  0  0  0  0  0  0
   23.1087    4.7467    0.0000 H   0  0  0  0  0  0  0  0  0  0  0  0
   20.6528    5.5944    0.0000 H   0  0  0  0  0  0  0  0  0  0  0  0
   16.2084    1.5756    0.0000 H   0  0  0  0  0  0  0  0  0  0  0  0
   13.8837   -1.7816    0.0000 H   0  0  0  0  0  0  0  0  0  0  0  0
   15.8117   -1.8168    0.0000 H   0  0  0  0  0  0  0  0  0  0  0  0
   12.6403    1.2896    0.0000 H   0  0  0  0  0  0  0  0  0  0  0  0
   14.5684    1.2545    0.0000 H   0  0  0  0  0  0  0  0  0  0  0  0
   11.0131    1.6703    0.0000 H   0  0  0  0  0  0  0  0  0  0  0  0
   10.6164   -1.7222    0.0000 H   0  0  0  0  0  0  0  0  0  0  0  0
    8.3244   -3.1422    0.0000 H   0  0  0  0  0  0  0  0  0  0  0  0
    9.9735   -2.4606    0.0000 H   0  0  0  0  0  0  0  0  0  0  0  0
    6.0349   -0.4753    0.0000 H   0  0  0  0  0  0  0  0  0  0  0  0
    7.0343    0.0892    0.0000 H   0  0  0  0  0  0  0  0  0  0  0  0
    5.8673   -3.9862    0.0000 H   0  0  0  0  0  0  0  0  0  0  0  0
    7.4125   -3.4555    0.0000 H   0  0  0  0  0  0  0  0  0  0  0  0
    3.3891   -1.6326    0.0000 H   0  0  0  0  0  0  0  0  0  0  0  0
    5.1229   -0.7885    0.0000 H   0  0  0  0  0  0  0  0  0  0  0  0
    2.3478   -2.9104    0.0000 H   0  0  0  0  0  0  0  0  0  0  0  0
    3.2354   -4.7750    0.0000 H   0  0  0  0  0  0  0  0  0  0  0  0
    4.9553   -4.2995    0.0000 H   0  0  0  0  0  0  0  0  0  0  0  0
    6.6863   -1.9570    0.0000 H   0  0  0  0  0  0  0  0  0  0  0  0
    6.7754    1.3964    0.0000 H   0  0  0  0  0  0  0  0  0  0  0  0
    3.6661    2.3559    0.0000 H   0  0  0  0  0  0  0  0  0  0  0  0
    3.6180    0.5722    0.0000 H   0  0  0  0  0  0  0  0  0  0  0  0
    4.9815    5.3979    0.0000 H   0  0  0  0  0  0  0  0  0  0  0  0
    2.9612    3.7644    0.0000 H   0  0  0  0  0  0  0  0  0  0  0  0
    3.0372    1.8043    0.0000 H   0  0  0  0  0  0  0  0  0  0  0  0
    2.6743   -1.6865    0.0000 H   0  0  0  0  0  0  0  0  0  0  0  0
    0.3568   -2.9451    0.0000 H   0  0  0  0  0  0  0  0  0  0  0  0
    2.2653   -2.1562    0.0000 H   0  0  0  0  0  0  0  0  0  0  0  0
   -1.4929   -3.7689    0.0000 H   0  0  0  0  0  0  0  0  0  0  0  0
   -4.3459   -2.1847    0.0000 H   0  0  0  0  0  0  0  0  0  0  0  0
   -3.8470    0.8855    0.0000 H   0  0  0  0  0  0  0  0  0  0  0  0
   -1.1067   -1.8151    0.0000 H   0  0  0  0  0  0  0  0  0  0  0  0
   -0.8869    1.4098    0.0000 H   0  0  0  0  0  0  0  0  0  0  0  0
   -4.2705    0.8703    0.0000 H   0  0  0  0  0  0  0  0  0  0  0  0
   -4.3864    3.8389    0.0000 H   0  0  0  0  0  0  0  0  0  0  0  0
   -3.2008    4.2461    0.0000 H   0  0  0  0  0  0  0  0  0  0  0  0
   -1.4220    4.1047    0.0000 H   0  0  0  0  0  0  0  0  0  0  0  0
   -1.0371    2.3623    0.0000 H   0  0  0  0  0  0  0  0  0  0  0  0
   -4.7558    1.9462    0.0000 H   0  0  0  0  0  0  0  0  0  0  0  0
   -4.9695   -1.4384    0.0000 H   0  0  0  0  0  0  0  0  0  0  0  0
   -7.4361   -2.8032    0.0000 H   0  0  0  0  0  0  0  0  0  0  0  0
   -5.6123   -2.1768    0.0000 H   0  0  0  0  0  0  0  0  0  0  0  0
   -9.2858   -3.6270    0.0000 H   0  0  0  0  0  0  0  0  0  0  0  0
  -12.1388   -2.0428    0.0000 H   0  0  0  0  0  0  0  0  0  0  0  0
  -11.6399    1.0274    0.0000 H   0  0  0  0  0  0  0  0  0  0  0  0
   -8.8996   -1.6732    0.0000 H   0  0  0  0  0  0  0  0  0  0  0  0
   -8.6799    1.5517    0.0000 H   0  0  0  0  0  0  0  0  0  0  0  0
  -11.9198    2.6398    0.0000 H   0  0  0  0  0  0  0  0  0  0  0  0
  -12.0635    1.0122    0.0000 H   0  0  0  0  0  0  0  0  0  0  0  0
   -9.2149    4.2466    0.0000 H   0  0  0  0  0  0  0  0  0  0  0  0
   -8.8300    2.5042    0.0000 H   0  0  0  0  0  0  0  0  0  0  0  0
  -11.5475    6.8481    0.0000 H   0  0  0  0  0  0  0  0  0  0  0  0
   -9.1226    5.9152    0.0000 H   0  0  0  0  0  0  0  0  0  0  0  0
  -12.5487    2.0881    0.0000 H   0  0  0  0  0  0  0  0  0  0  0  0
  -12.7624   -1.2964    0.0000 H   0  0  0  0  0  0  0  0  0  0  0  0
  -15.2290   -2.6613    0.0000 H   0  0  0  0  0  0  0  0  0  0  0  0
  -13.4053   -2.0349    0.0000 H   0  0  0  0  0  0  0  0  0  0  0  0
  -17.4478   -0.2005    0.0000 H   0  0  0  0  0  0  0  0  0  0  0  0
  -16.3445    0.5149    0.0000 H   0  0  0  0  0  0  0  0  0  0  0  0
  -19.6048   -2.9493    0.0000 H   0  0  0  0  0  0  0  0  0  0  0  0
  -19.4806   -0.5590    0.0000 H   0  0  0  0  0  0  0  0  0  0  0  0
  -16.6925   -1.5313    0.0000 H   0  0  0  0  0  0  0  0  0  0  0  0
  -16.6034    1.8221    0.0000 H   0  0  0  0  0  0  0  0  0  0  0  0
  -19.7127    2.7817    0.0000 H   0  0  0  0  0  0  0  0  0  0  0  0
  -19.7608    0.9979    0.0000 H   0  0  0  0  0  0  0  0  0  0  0  0
  -20.3417    2.2300    0.0000 H   0  0  0  0  0  0  0  0  0  0  0  0
  -20.5553   -1.1545    0.0000 H   0  0  0  0  0  0  0  0  0  0  0  0
  -21.1982   -1.8930    0.0000 H   0  0  0  0  0  0  0  0  0  0  0  0
  -25.0924   -1.8280    0.0000 H   0  0  0  0  0  0  0  0  0  0  0  0
  -25.2408   -0.0586    0.0000 H   0  0  0  0  0  0  0  0  0  0  0  0
  -23.9546    0.6679    0.0000 H   0  0  0  0  0  0  0  0  0  0  0  0
  -23.0493   -4.0192    0.0000 H   0  0  0  0  0  0  0  0  0  0  0  0
  -21.5498   -2.8067    0.0000 H   0  0  0  0  0  0  0  0  0  0  0  0
  -25.0423   -4.1529    0.0000 H   0  0  0  0  0  0  0  0  0  0  0  0
  -25.9759   -2.4656    0.0000 H   0  0  0  0  0  0  0  0  0  0  0  0
  -24.8401   -1.2911    0.0000 H   0  0  0  0  0  0  0  0  0  0  0  0
  1  2  1  0
  2  3  1  0
  3  4  2  0
  4  5  1  0
  5  6  2  0
  6  7  1  0
  7  8  2  0
  7  9  1  0
  9 10  1  0
 10 11  1  0
 11 12  2  0
  9 13  1  0
 13 14  1  0
 14 15  2  0
 15 16  1  0
 16 17  2  0
 17 18  1  0
 16 19  1  0
 14 20  1  0
 20 21  1  0
 21 22  2  0
 22 23  1  0
 23 24  2  0
 24 25  1  0
 25 26  2  0
 25 27  1  0
  1 28  2  0
  1 29  1  0
 29 30  1  0
 30 31  1  0
 31 32  1  0
 32 33  2  0
 32 34  1  0
 34 35  1  0
 35 36  1  0
 36 37  1  0
 37 38  1  0
 38 39  1  0
 39 40  1  0
 35 41  1  0
 41 42  2  0
 41 43  1  0
 43 44  1  0
 44 45  1  0
 45 46  1  0
 46 47  1  0
 46 48  2  0
 44 49  1  0
 49 50  2  0
 49 51  1  0
 51 52  1  0
 52 53  1  0
 53 54  1  0
 54 55  2  0
 55 56  1  0
 56 57  1  0
 57 58  2  0
 52 59  1  0
 59 60  2  0
 59 61  1  0
 61 62  1  0
 62 63  1  0
 63 64  1  0
 63 65  1  0
 62 66  1  0
 66 67  2  0
 66 68  1  0
 68 69  1  0
 69 70  1  0
 70 71  1  0
 71 72  2  0
 72 73  1  0
 73 74  1  0
 74 75  2  0
 69 76  1  0
 76 77  2  0
 76 78  1  0
 78 79  1  0
 79 80  1  0
 80 81  1  0
 81 82  1  0
 82 83  1  0
 82 84  2  0
 79 85  1  0
 85 86  2  0
 85 87  1  0
 87 88  1  0
 88 89  1  0
 89 90  1  0
 90 91  1  0
 91 92  1  0
 91 93  2  0
 88 94  1  0
 94 95  2  0
 94 96  1  0
 96 97  1  0
 97 98  1  0
 98 99  1  0
 99100  2  0
 99101  1  0
 97102  1  0
102103  2  0
102104  1  0
104105  1  0
105106  1  0
106107  1  0
106108  1  0
108109  1  0
105110  1  0
110111  2  0
110112  1  0
  8  3  1  0
 58 54  1  0
 75 71  1  0
 11  6  1  0
 18 13  2  0
 22  9  1  0
 26 21  1  0
  2113  1  0
  4114  1  0
  5115  1  0
  8116  1  0
 15117  1  0
 17118  1  0
 18119  1  0
 19120  1  0
 23121  1  0
 24122  1  0
 26123  1  0
 27124  1  0
 29125  1  0
 30126  1  0
 30127  1  0
 31128  1  0
 31129  1  0
 34130  1  0
 35131  1  1
 36132  1  0
 36133  1  0
 37134  1  0
 37135  1  0
 38136  1  0
 38137  1  0
 39138  1  0
 39139  1  0
 40140  1  0
 40141  1  0
 40142  1  0
 43143  1  0
 44144  1  6
 45145  1  0
 45146  1  0
 47147  1  0
 47148  1  0
 51149  1  0
 52150  1  1
 53151  1  0
 53152  1  0
 55153  1  0
 56154  1  0
 57155  1  0
 61156  1  0
 62157  1  6
 63158  1  1
 64159  1  0
 65160  1  0
 65161  1  0
 65162  1  0
 68163  1  0
 69164  1  1
 70165  1  0
 70166  1  0
 72167  1  0
 73168  1  0
 74169  1  0
 78170  1  0
 79171  1  6
 80172  1  0
 80173  1  0
 81174  1  0
 81175  1  0
 83176  1  0
 83177  1  0
 87178  1  0
 88179  1  1
 89180  1  0
 89181  1  0
 90182  1  0
 90183  1  0
 92184  1  0
 92185  1  0
 96186  1  0
 97187  1  6
 98188  1  0
 98189  1  0
104190  1  0
105191  1  1
106192  1  1
107193  1  0
107194  1  0
107195  1  0
108196  1  0
108197  1  0
109198  1  0
109199  1  0
109200  1  0
M  CHG  3  40   1 101  -1 112  -1
M  END
