
     RDKit          2D

308308  0  0  0  0  0  0  0  0999 V2000
  -25.0319   -1.8675    0.0000 N   0  0  0  0  0  0  0  0  0  0  0  0
  -23.5572   -2.1417    0.0000 C   0  0  0  0  0  0  0  0  0  0  0  0
  -22.5824   -1.0017    0.0000 C   0  0  0  0  0  0  0  0  0  0  0  0
  -21.1077   -1.2759    0.0000 C   0  0  0  0  0  0  0  0  0  0  0  0
  -20.6078   -2.6901    0.0000 O   0  0  0  0  0  0  0  0  0  0  0  0
  -20.1328   -0.1358    0.0000 N   0  0  0  0  0  0  0  0  0  0  0  0
  -18.6581   -0.4100    0.0000 C   0  0  0  0  0  0  0  0  0  0  0  0
  -18.6442    1.0899    0.0000 C   0  0  0  0  0  0  0  0  0  0  0  0
  -19.1441    2.5042    0.0000 O   0  0  0  0  0  0  0  0  0  0  0  0
  -17.3382    1.8278    0.0000 C   0  0  0  0  0  0  0  0  0  0  0  0
  -17.3661   -1.1720    0.0000 C   0  0  0  0  0  0  0  0  0  0  0  0
  -16.0602   -0.4341    0.0000 O   0  0  0  0  0  0  0  0  0  0  0  0
  -17.3800   -2.6720    0.0000 N   0  0  0  0  0  0  0  0  0  0  0  0
  -16.0880   -3.4340    0.0000 C   0  0  0  0  0  0  0  0  0  0  0  0
  -17.0628   -4.5741    0.0000 C   0  0  0  0  0  0  0  0  0  0  0  0
  -18.5376   -4.2999    0.0000 C   0  0  0  0  0  0  0  0  0  0  0  0
  -19.5124   -5.4399    0.0000 C   0  0  0  0  0  0  0  0  0  0  0  0
  -20.9871   -5.1657    0.0000 N   0  0  0  0  0  0  0  0  0  0  0  0
  -21.9619   -6.3058    0.0000 C   0  0  0  0  0  0  0  0  0  0  0  0
  -23.4367   -6.0316    0.0000 N   0  0  0  0  0  0  0  0  0  0  0  0
  -21.4620   -7.7200    0.0000 N   0  0  0  0  0  0  0  0  0  0  0  0
  -14.6133   -3.7082    0.0000 C   0  0  0  0  0  0  0  0  0  0  0  0
  -14.2895   -5.1728    0.0000 O   0  0  0  0  0  0  0  0  0  0  0  0
  -13.6385   -2.5681    0.0000 N   0  0  0  0  0  0  0  0  0  0  0  0
  -12.1638   -2.8423    0.0000 C   0  0  0  0  0  0  0  0  0  0  0  0
  -12.6899   -4.2470    0.0000 C   0  0  0  0  0  0  0  0  0  0  0  0
  -11.7364   -5.4050    0.0000 C   0  0  0  0  0  0  0  0  0  0  0  0
  -12.2625   -6.8097    0.0000 C   0  0  0  0  0  0  0  0  0  0  0  0
  -11.3090   -7.9677    0.0000 N   0  0  0  0  0  0  0  0  0  0  0  0
  -13.7421   -7.0564    0.0000 O   0  0  0  0  0  0  0  0  0  0  0  0
  -10.6842   -2.5956    0.0000 C   0  0  0  0  0  0  0  0  0  0  0  0
   -9.7307   -3.7536    0.0000 O   0  0  0  0  0  0  0  0  0  0  0  0
  -10.1581   -1.1909    0.0000 N   0  0  0  0  0  0  0  0  0  0  0  0
   -8.6785   -0.9441    0.0000 C   0  0  0  0  0  0  0  0  0  0  0  0
   -9.0023    0.5205    0.0000 C   0  0  0  0  0  0  0  0  0  0  0  0
   -7.2038   -1.2183    0.0000 C   0  0  0  0  0  0  0  0  0  0  0  0
   -6.3752    0.0321    0.0000 O   0  0  0  0  0  0  0  0  0  0  0  0
   -6.7039   -2.6326    0.0000 N   0  0  0  0  0  0  0  0  0  0  0  0
   -5.2291   -2.9068    0.0000 C   0  0  0  0  0  0  0  0  0  0  0  0
   -4.5542   -4.2463    0.0000 C   0  0  0  0  0  0  0  0  0  0  0  0
   -3.6380   -5.4340    0.0000 C   0  0  0  0  0  0  0  0  0  0  0  0
   -2.5135   -6.4268    0.0000 C   0  0  0  0  0  0  0  0  0  0  0  0
   -1.2215   -7.1888    0.0000 C   0  0  0  0  0  0  0  0  0  0  0  0
    0.1914   -7.6926    0.0000 C   0  0  0  0  0  0  0  0  0  0  0  0
    1.6740   -7.9198    0.0000 C   0  0  0  0  0  0  0  0  0  0  0  0
    3.1729   -7.8624    0.0000 C   0  0  0  0  0  0  0  0  0  0  0  0
   -6.2692   -3.9876    0.0000 C   0  0  0  0  0  0  0  0  0  0  0  0
   -5.6384   -1.4637    0.0000 C   0  0  0  0  0  0  0  0  0  0  0  0
   -6.4339   -1.4132    0.0000 O   0  0  0  0  0  0  0  0  0  0  0  0
   -5.7671    0.0308    0.0000 N   0  0  0  0  0  0  0  0  0  0  0  0
   -5.6106    1.5226    0.0000 C   0  0  0  0  0  0  0  0  0  0  0  0
   -7.0167    1.0003    0.0000 C   0  0  0  0  0  0  0  0  0  0  0  0
   -8.1721    1.9570    0.0000 C   0  0  0  0  0  0  0  0  0  0  0  0
   -9.5783    1.4347    0.0000 C   0  0  0  0  0  0  0  0  0  0  0  0
  -10.7336    2.3913    0.0000 N   0  0  0  0  0  0  0  0  0  0  0  0
  -12.1398    1.8690    0.0000 C   0  0  0  0  0  0  0  0  0  0  0  0
  -13.2952    2.8256    0.0000 N   0  0  0  0  0  0  0  0  0  0  0  0
  -12.3905    0.3901    0.0000 N   0  0  0  0  0  0  0  0  0  0  0  0
   -5.1747    2.9579    0.0000 C   0  0  0  0  0  0  0  0  0  0  0  0
   -6.4821    3.6931    0.0000 O   0  0  0  0  0  0  0  0  0  0  0  0
   -4.4750    4.2847    0.0000 N   0  0  0  0  0  0  0  0  0  0  0  0
   -3.5368    5.4551    0.0000 C   0  0  0  0  0  0  0  0  0  0  0  0
   -5.0021    5.7759    0.0000 C   0  0  0  0  0  0  0  0  0  0  0  0
   -5.4569    7.2053    0.0000 C   0  0  0  0  0  0  0  0  0  0  0  0
   -6.9222    7.5262    0.0000 N   0  0  0  0  0  0  0  0  0  0  0  0
   -4.4464    8.3139    0.0000 O   0  0  0  0  0  0  0  0  0  0  0  0
   -2.3941    6.4268    0.0000 C   0  0  0  0  0  0  0  0  0  0  0  0
   -3.2528    7.6567    0.0000 O   0  0  0  0  0  0  0  0  0  0  0  0
   -1.0881    7.1647    0.0000 N   0  0  0  0  0  0  0  0  0  0  0  0
    0.3339    7.6421    0.0000 C   0  0  0  0  0  0  0  0  0  0  0  0
   -0.7254    8.7042    0.0000 C   0  0  0  0  0  0  0  0  0  0  0  0
   -0.3352   10.1526    0.0000 C   0  0  0  0  0  0  0  0  0  0  0  0
   -1.3944   11.2147    0.0000 C   0  0  0  0  0  0  0  0  0  0  0  0
   -1.0042   12.6630    0.0000 N   0  0  0  0  0  0  0  0  0  0  0  0
   -2.0634   13.7251    0.0000 C   0  0  0  0  0  0  0  0  0  0  0  0
   -1.6732   15.1735    0.0000 N   0  0  0  0  0  0  0  0  0  0  0  0
   -3.5128   13.3389    0.0000 N   0  0  0  0  0  0  0  0  0  0  0  0
    1.8205    7.8418    0.0000 C   0  0  0  0  0  0  0  0  0  0  0  0
    1.9462    9.3365    0.0000 O   0  0  0  0  0  0  0  0  0  0  0  0
    3.3181    7.7565    0.0000 N   0  0  0  0  0  0  0  0  0  0  0  0
    4.7724    7.3893    0.0000 C   0  0  0  0  0  0  0  0  0  0  0  0
    4.4556    8.8555    0.0000 C   0  0  0  0  0  0  0  0  0  0  0  0
    5.5669    9.8630    0.0000 C   0  0  0  0  0  0  0  0  0  0  0  0
    5.2500   11.3291    0.0000 C   0  0  0  0  0  0  0  0  0  0  0  0
    6.3613   12.3366    0.0000 N   0  0  0  0  0  0  0  0  0  0  0  0
    6.0445   13.8027    0.0000 C   0  0  0  0  0  0  0  0  0  0  0  0
    7.1558   14.8102    0.0000 N   0  0  0  0  0  0  0  0  0  0  0  0
    4.6163   14.2614    0.0000 N   0  0  0  0  0  0  0  0  0  0  0  0
    6.1310    6.7536    0.0000 C   0  0  0  0  0  0  0  0  0  0  0  0
    7.0449    7.9430    0.0000 O   0  0  0  0  0  0  0  0  0  0  0  0
    7.3448    5.8722    0.0000 N   0  0  0  0  0  0  0  0  0  0  0  0
    8.3698    4.7770    0.0000 C   0  0  0  0  0  0  0  0  0  0  0  0
    8.8959    6.1817    0.0000 C   0  0  0  0  0  0  0  0  0  0  0  0
   10.3754    6.4284    0.0000 C   0  0  0  0  0  0  0  0  0  0  0  0
   10.9015    7.8331    0.0000 C   0  0  0  0  0  0  0  0  0  0  0  0
   12.3811    8.0799    0.0000 N   0  0  0  0  0  0  0  0  0  0  0  0
   12.9072    9.4846    0.0000 C   0  0  0  0  0  0  0  0  0  0  0  0
   14.3868    9.7313    0.0000 N   0  0  0  0  0  0  0  0  0  0  0  0
   11.9538   10.6426    0.0000 N   0  0  0  0  0  0  0  0  0  0  0  0
    9.1690    3.5076    0.0000 C   0  0  0  0  0  0  0  0  0  0  0  0
   10.5808    4.0142    0.0000 O   0  0  0  0  0  0  0  0  0  0  0  0
    9.7135    2.1099    0.0000 N   0  0  0  0  0  0  0  0  0  0  0  0
    9.9837    0.6345    0.0000 C   0  0  0  0  0  0  0  0  0  0  0  0
   11.1857    1.5318    0.0000 C   0  0  0  0  0  0  0  0  0  0  0  0
   12.5638    0.9394    0.0000 C   0  0  0  0  0  0  0  0  0  0  0  0
   13.7658    1.8367    0.0000 C   0  0  0  0  0  0  0  0  0  0  0  0
   15.1439    1.2443    0.0000 N   0  0  0  0  0  0  0  0  0  0  0  0
   16.3459    2.1416    0.0000 C   0  0  0  0  0  0  0  0  0  0  0  0
   17.7240    1.5493    0.0000 N   0  0  0  0  0  0  0  0  0  0  0  0
   16.1699    3.6313    0.0000 N   0  0  0  0  0  0  0  0  0  0  0  0
    9.9697   -0.8655    0.0000 C   0  0  0  0  0  0  0  0  0  0  0  0
   11.4314   -1.2026    0.0000 O   0  0  0  0  0  0  0  0  0  0  0  0
    9.6722   -2.3356    0.0000 N   0  0  0  0  0  0  0  0  0  0  0  0
    9.1018   -3.7230    0.0000 C   0  0  0  0  0  0  0  0  0  0  0  0
    8.2791   -4.9772    0.0000 C   0  0  0  0  0  0  0  0  0  0  0  0
    7.2340   -6.0532    0.0000 C   0  0  0  0  0  0  0  0  0  0  0  0
    6.0041   -6.9119    0.0000 C   0  0  0  0  0  0  0  0  0  0  0  0
    4.6339   -7.5223    0.0000 C   0  0  0  0  0  0  0  0  0  0  0  0
   10.0124   -4.9149    0.0000 C   0  0  0  0  0  0  0  0  0  0  0  0
   10.5981   -3.6180    0.0000 C   0  0  0  0  0  0  0  0  0  0  0  0
   11.4148   -2.3598    0.0000 O   0  0  0  0  0  0  0  0  0  0  0  0
   11.4372   -4.8613    0.0000 N   0  0  0  0  0  0  0  0  0  0  0  0
   12.9335   -4.7564    0.0000 C   0  0  0  0  0  0  0  0  0  0  0  0
   14.3037   -4.1460    0.0000 C   0  0  0  0  0  0  0  0  0  0  0  0
   15.5174   -5.0274    0.0000 C   0  0  0  0  0  0  0  0  0  0  0  0
   16.8876   -4.4169    0.0000 C   0  0  0  0  0  0  0  0  0  0  0  0
   18.1013   -5.2983    0.0000 N   0  0  0  0  0  0  0  0  0  0  0  0
   19.4715   -4.6879    0.0000 C   0  0  0  0  0  0  0  0  0  0  0  0
   20.6852   -5.5693    0.0000 N   0  0  0  0  0  0  0  0  0  0  0  0
   19.6279   -3.1961    0.0000 N   0  0  0  0  0  0  0  0  0  0  0  0
   13.7726   -5.9997    0.0000 C   0  0  0  0  0  0  0  0  0  0  0  0
   13.1153   -7.3481    0.0000 O   0  0  0  0  0  0  0  0  0  0  0  0
   15.2689   -5.8948    0.0000 N   0  0  0  0  0  0  0  0  0  0  0  0
   16.1080   -7.1381    0.0000 C   0  0  0  0  0  0  0  0  0  0  0  0
   16.4712   -8.5935    0.0000 C   0  0  0  0  0  0  0  0  0  0  0  0
   15.3924   -9.6357    0.0000 C   0  0  0  0  0  0  0  0  0  0  0  0
   15.7556  -11.0911    0.0000 C   0  0  0  0  0  0  0  0  0  0  0  0
   14.6768  -12.1333    0.0000 N   0  0  0  0  0  0  0  0  0  0  0  0
   15.0401  -13.5887    0.0000 C   0  0  0  0  0  0  0  0  0  0  0  0
   13.9613  -14.6309    0.0000 N   0  0  0  0  0  0  0  0  0  0  0  0
   16.4820  -14.0018    0.0000 N   0  0  0  0  0  0  0  0  0  0  0  0
   17.6043   -7.0332    0.0000 C   0  0  0  0  0  0  0  0  0  0  0  0
   18.5887   -8.1650    0.0000 O   0  0  0  0  0  0  0  0  0  0  0  0
   18.5683   -5.8839    0.0000 O   0  0  0  0  0  0  0  0  0  0  0  0
  -26.0067   -3.0076    0.0000 H   0  0  0  0  0  0  0  0  0  0  0  0
  -25.5318   -0.4533    0.0000 H   0  0  0  0  0  0  0  0  0  0  0  0
  -24.0833   -3.5464    0.0000 H   0  0  0  0  0  0  0  0  0  0  0  0
  -22.2652   -2.9038    0.0000 H   0  0  0  0  0  0  0  0  0  0  0  0
  -23.8744   -0.2396    0.0000 H   0  0  0  0  0  0  0  0  0  0  0  0
  -22.0563    0.4030    0.0000 H   0  0  0  0  0  0  0  0  0  0  0  0
  -20.8014    1.2070    0.0000 H   0  0  0  0  0  0  0  0  0  0  0  0
  -19.1842   -1.8147    0.0000 H   0  0  0  0  0  0  0  0  0  0  0  0
  -20.1428    1.0254    0.0000 H   0  0  0  0  0  0  0  0  0  0  0  0
  -18.3155    3.7546    0.0000 H   0  0  0  0  0  0  0  0  0  0  0  0
  -17.1416    3.3149    0.0000 H   0  0  0  0  0  0  0  0  0  0  0  0
  -15.8587    2.0746    0.0000 H   0  0  0  0  0  0  0  0  0  0  0  0
  -16.8383    0.4136    0.0000 H   0  0  0  0  0  0  0  0  0  0  0  0
  -18.7662   -3.2452    0.0000 H   0  0  0  0  0  0  0  0  0  0  0  0
  -15.5619   -2.0293    0.0000 H   0  0  0  0  0  0  0  0  0  0  0  0
  -17.4138   -6.0324    0.0000 H   0  0  0  0  0  0  0  0  0  0  0  0
  -15.7708   -5.3361    0.0000 H   0  0  0  0  0  0  0  0  0  0  0  0
  -19.8296   -3.5378    0.0000 H   0  0  0  0  0  0  0  0  0  0  0  0
  -18.5499   -2.7999    0.0000 H   0  0  0  0  0  0  0  0  0  0  0  0
  -20.0385   -6.8446    0.0000 H   0  0  0  0  0  0  0  0  0  0  0  0
  -18.3229   -6.3538    0.0000 H   0  0  0  0  0  0  0  0  0  0  0  0
  -21.4870   -3.7515    0.0000 H   0  0  0  0  0  0  0  0  0  0  0  0
  -24.4115   -7.1717    0.0000 H   0  0  0  0  0  0  0  0  0  0  0  0
  -23.9366   -4.6174    0.0000 H   0  0  0  0  0  0  0  0  0  0  0  0
  -22.4368   -8.8601    0.0000 H   0  0  0  0  0  0  0  0  0  0  0  0
  -19.9873   -7.9942    0.0000 H   0  0  0  0  0  0  0  0  0  0  0  0
  -14.1384   -1.1539    0.0000 H   0  0  0  0  0  0  0  0  0  0  0  0
  -12.1498   -1.3424    0.0000 H   0  0  0  0  0  0  0  0  0  0  0  0
  -13.5184   -5.4974    0.0000 H   0  0  0  0  0  0  0  0  0  0  0  0
  -14.1279   -3.8203    0.0000 H   0  0  0  0  0  0  0  0  0  0  0  0
  -10.4444   -6.1670    0.0000 H   0  0  0  0  0  0  0  0  0  0  0  0
  -10.7616   -4.2649    0.0000 H   0  0  0  0  0  0  0  0  0  0  0  0
  -11.8351   -9.3724    0.0000 H   0  0  0  0  0  0  0  0  0  0  0  0
   -9.8295   -7.7210    0.0000 H   0  0  0  0  0  0  0  0  0  0  0  0
  -11.4633   -0.4516    0.0000 H   0  0  0  0  0  0  0  0  0  0  0  0
   -8.6925   -2.4441    0.0000 H   0  0  0  0  0  0  0  0  0  0  0  0
  -10.6532    0.7443    0.0000 H   0  0  0  0  0  0  0  0  0  0  0  0
   -9.5278    1.9288    0.0000 H   0  0  0  0  0  0  0  0  0  0  0  0
   -7.7563   -0.0068    0.0000 H   0  0  0  0  0  0  0  0  0  0  0  0
   -7.8104   -3.6453    0.0000 H   0  0  0  0  0  0  0  0  0  0  0  0
   -5.3709   -5.5045    0.0000 H   0  0  0  0  0  0  0  0  0  0  0  0
   -6.0418   -4.4390    0.0000 H   0  0  0  0  0  0  0  0  0  0  0  0
   -4.2018   -6.8240    0.0000 H   0  0  0  0  0  0  0  0  0  0  0  0
   -5.0622   -5.9047    0.0000 H   0  0  0  0  0  0  0  0  0  0  0  0
   -2.8041   -7.8984    0.0000 H   0  0  0  0  0  0  0  0  0  0  0  0
   -3.8230   -7.1585    0.0000 H   0  0  0  0  0  0  0  0  0  0  0  0
   -1.2284   -8.6888    0.0000 H   0  0  0  0  0  0  0  0  0  0  0  0
   -2.3688   -8.1551    0.0000 H   0  0  0  0  0  0  0  0  0  0  0  0
    0.4685   -9.1667    0.0000 H   0  0  0  0  0  0  0  0  0  0  0  0
   -0.7523   -8.8585    0.0000 H   0  0  0  0  0  0  0  0  0  0  0  0
    2.3911   -9.2373    0.0000 H   0  0  0  0  0  0  0  0  0  0  0  0
    0.9681   -9.2433    0.0000 H   0  0  0  0  0  0  0  0  0  0  0  0
    3.3726   -9.3490    0.0000 H   0  0  0  0  0  0  0  0  0  0  0  0
   -7.6163   -4.0912    0.0000 H   0  0  0  0  0  0  0  0  0  0  0  0
   -6.5657   -5.5416    0.0000 H   0  0  0  0  0  0  0  0  0  0  0  0
   -5.0288   -5.1187    0.0000 H   0  0  0  0  0  0  0  0  0  0  0  0
   -7.2258   -0.3186    0.0000 H   0  0  0  0  0  0  0  0  0  0  0  0
   -6.5695    2.6761    0.0000 H   0  0  0  0  0  0  0  0  0  0  0  0
   -8.0325   -0.1034    0.0000 H   0  0  0  0  0  0  0  0  0  0  0  0
   -6.4216   -0.3765    0.0000 H   0  0  0  0  0  0  0  0  0  0  0  0
   -8.9306    3.2510    0.0000 H   0  0  0  0  0  0  0  0  0  0  0  0
   -7.2985    3.1763    0.0000 H   0  0  0  0  0  0  0  0  0  0  0  0
  -10.9221    0.7683    0.0000 H   0  0  0  0  0  0  0  0  0  0  0  0
   -8.8197    0.1406    0.0000 H   0  0  0  0  0  0  0  0  0  0  0  0
  -10.4829    3.8702    0.0000 H   0  0  0  0  0  0  0  0  0  0  0  0
  -14.7013    2.3033    0.0000 H   0  0  0  0  0  0  0  0  0  0  0  0
  -13.0444    4.3045    0.0000 H   0  0  0  0  0  0  0  0  0  0  0  0
  -13.7967   -0.1322    0.0000 H   0  0  0  0  0  0  0  0  0  0  0  0
  -11.3604   -0.7002    0.0000 H   0  0  0  0  0  0  0  0  0  0  0  0
   -5.8202    4.9483    0.0000 H   0  0  0  0  0  0  0  0  0  0  0  0
   -3.9000    6.9105    0.0000 H   0  0  0  0  0  0  0  0  0  0  0  0
   -6.5020    5.7590    0.0000 H   0  0  0  0  0  0  0  0  0  0  0  0
   -5.4244    4.3366    0.0000 H   0  0  0  0  0  0  0  0  0  0  0  0
   -7.3769    8.9556    0.0000 H   0  0  0  0  0  0  0  0  0  0  0  0
   -7.9327    6.4176    0.0000 H   0  0  0  0  0  0  0  0  0  0  0  0
   -1.8610    8.4503    0.0000 H   0  0  0  0  0  0  0  0  0  0  0  0
    0.9847    8.9936    0.0000 H   0  0  0  0  0  0  0  0  0  0  0  0
   -2.0840    9.3400    0.0000 H   0  0  0  0  0  0  0  0  0  0  0  0
   -1.8588    7.7217    0.0000 H   0  0  0  0  0  0  0  0  0  0  0  0
    0.5269   11.3801    0.0000 H   0  0  0  0  0  0  0  0  0  0  0  0
    1.1369    9.8645    0.0000 H   0  0  0  0  0  0  0  0  0  0  0  0
   -2.7530   11.8505    0.0000 H   0  0  0  0  0  0  0  0  0  0  0  0
   -2.3996   10.1014    0.0000 H   0  0  0  0  0  0  0  0  0  0  0  0
    0.4452   13.0493    0.0000 H   0  0  0  0  0  0  0  0  0  0  0  0
   -2.7324   16.2356    0.0000 H   0  0  0  0  0  0  0  0  0  0  0  0
   -0.2238   15.5598    0.0000 H   0  0  0  0  0  0  0  0  0  0  0  0
   -4.5720   14.4010    0.0000 H   0  0  0  0  0  0  0  0  0  0  0  0
   -3.9030   11.8905    0.0000 H   0  0  0  0  0  0  0  0  0  0  0  0
    3.3629    9.2558    0.0000 H   0  0  0  0  0  0  0  0  0  0  0  0
    6.0506    8.1743    0.0000 H   0  0  0  0  0  0  0  0  0  0  0  0
    3.6564   10.1248    0.0000 H   0  0  0  0  0  0  0  0  0  0  0  0
    2.9709    8.6418    0.0000 H   0  0  0  0  0  0  0  0  0  0  0  0
    6.9557   10.4296    0.0000 H   0  0  0  0  0  0  0  0  0  0  0  0
    6.6495    8.8247    0.0000 H   0  0  0  0  0  0  0  0  0  0  0  0
    4.4508   12.5985    0.0000 H   0  0  0  0  0  0  0  0  0  0  0  0
    3.8025   10.9360    0.0000 H   0  0  0  0  0  0  0  0  0  0  0  0
    7.7895   11.8779    0.0000 H   0  0  0  0  0  0  0  0  0  0  0  0
    6.8389   16.2764    0.0000 H   0  0  0  0  0  0  0  0  0  0  0  0
    8.5839   14.3516    0.0000 H   0  0  0  0  0  0  0  0  0  0  0  0
    4.2995   15.7276    0.0000 H   0  0  0  0  0  0  0  0  0  0  0  0
    3.5050   13.2539    0.0000 H   0  0  0  0  0  0  0  0  0  0  0  0
    8.1931    7.1092    0.0000 H   0  0  0  0  0  0  0  0  0  0  0  0
    9.8694    4.7463    0.0000 H   0  0  0  0  0  0  0  0  0  0  0  0
    8.9098    7.6816    0.0000 H   0  0  0  0  0  0  0  0  0  0  0  0
    7.5313    6.8046    0.0000 H   0  0  0  0  0  0  0  0  0  0  0  0
   11.8502    6.1542    0.0000 H   0  0  0  0  0  0  0  0  0  0  0  0
   10.7249    4.9697    0.0000 H   0  0  0  0  0  0  0  0  0  0  0  0
   10.9155    9.3331    0.0000 H   0  0  0  0  0  0  0  0  0  0  0  0
    9.4712    8.2850    0.0000 H   0  0  0  0  0  0  0  0  0  0  0  0
   13.3346    6.9219    0.0000 H   0  0  0  0  0  0  0  0  0  0  0  0
   14.9129   11.1360    0.0000 H   0  0  0  0  0  0  0  0  0  0  0  0
   15.3402    8.5733    0.0000 H   0  0  0  0  0  0  0  0  0  0  0  0
   12.4799   12.0473    0.0000 H   0  0  0  0  0  0  0  0  0  0  0  0
   10.4742   10.3958    0.0000 H   0  0  0  0  0  0  0  0  0  0  0  0
   11.0960    2.6920    0.0000 H   0  0  0  0  0  0  0  0  0  0  0  0
   11.2287   -0.2021    0.0000 H   0  0  0  0  0  0  0  0  0  0  0  0
   12.0084    2.7861    0.0000 H   0  0  0  0  0  0  0  0  0  0  0  0
   10.3745    2.7935    0.0000 H   0  0  0  0  0  0  0  0  0  0  0  0
   13.6562   -0.0885    0.0000 H   0  0  0  0  0  0  0  0  0  0  0  0
   12.0691   -0.4767    0.0000 H   0  0  0  0  0  0  0  0  0  0  0  0
   14.5885    3.0910    0.0000 H   0  0  0  0  0  0  0  0  0  0  0  0
   12.8069    2.9901    0.0000 H   0  0  0  0  0  0  0  0  0  0  0  0
   15.3200   -0.2453    0.0000 H   0  0  0  0  0  0  0  0  0  0  0  0
   18.9261    2.4466    0.0000 H   0  0  0  0  0  0  0  0  0  0  0  0
   17.9001    0.0597    0.0000 H   0  0  0  0  0  0  0  0  0  0  0  0
   17.3719    4.5285    0.0000 H   0  0  0  0  0  0  0  0  0  0  0  0
   14.7918    4.2236    0.0000 H   0  0  0  0  0  0  0  0  0  0  0  0
   11.1499   -2.5934    0.0000 H   0  0  0  0  0  0  0  0  0  0  0  0
    9.7352   -5.3375    0.0000 H   0  0  0  0  0  0  0  0  0  0  0  0
    8.7790   -6.3915    0.0000 H   0  0  0  0  0  0  0  0  0  0  0  0
    8.5087   -6.8438    0.0000 H   0  0  0  0  0  0  0  0  0  0  0  0
    7.6363   -7.4982    0.0000 H   0  0  0  0  0  0  0  0  0  0  0  0
    7.2219   -7.7875    0.0000 H   0  0  0  0  0  0  0  0  0  0  0  0
    5.9425   -8.4106    0.0000 H   0  0  0  0  0  0  0  0  0  0  0  0
    5.1113   -8.9443    0.0000 H   0  0  0  0  0  0  0  0  0  0  0  0
    9.4856   -6.4954    0.0000 H   0  0  0  0  0  0  0  0  0  0  0  0
   10.8791   -6.0880    0.0000 H   0  0  0  0  0  0  0  0  0  0  0  0
   11.1840   -4.3109    0.0000 H   0  0  0  0  0  0  0  0  0  0  0  0
   10.9492   -6.2798    0.0000 H   0  0  0  0  0  0  0  0  0  0  0  0
   12.5703   -3.3010    0.0000 H   0  0  0  0  0  0  0  0  0  0  0  0
   15.2473   -2.9800    0.0000 H   0  0  0  0  0  0  0  0  0  0  0  0
   13.4646   -2.9026    0.0000 H   0  0  0  0  0  0  0  0  0  0  0  0
   16.3565   -6.2707    0.0000 H   0  0  0  0  0  0  0  0  0  0  0  0
   15.0543   -6.4541    0.0000 H   0  0  0  0  0  0  0  0  0  0  0  0
   17.9663   -3.3747    0.0000 H   0  0  0  0  0  0  0  0  0  0  0  0
   16.2063   -3.0806    0.0000 H   0  0  0  0  0  0  0  0  0  0  0  0
   18.3105   -6.7837    0.0000 H   0  0  0  0  0  0  0  0  0  0  0  0
   22.0554   -4.9589    0.0000 H   0  0  0  0  0  0  0  0  0  0  0  0
   20.5287   -7.0611    0.0000 H   0  0  0  0  0  0  0  0  0  0  0  0
   20.9981   -2.5857    0.0000 H   0  0  0  0  0  0  0  0  0  0  0  0
   18.4142   -2.3147    0.0000 H   0  0  0  0  0  0  0  0  0  0  0  0
   16.2329   -4.7455    0.0000 H   0  0  0  0  0  0  0  0  0  0  0  0
   14.6736   -7.5770    0.0000 H   0  0  0  0  0  0  0  0  0  0  0  0
   17.4555   -9.7253    0.0000 H   0  0  0  0  0  0  0  0  0  0  0  0
   17.9055   -8.1546    0.0000 H   0  0  0  0  0  0  0  0  0  0  0  0
   14.0222  -10.2461    0.0000 H   0  0  0  0  0  0  0  0  0  0  0  0
   14.4080   -8.5039    0.0000 H   0  0  0  0  0  0  0  0  0  0  0  0
   16.5947  -12.3344    0.0000 H   0  0  0  0  0  0  0  0  0  0  0  0
   17.1900  -10.6522    0.0000 H   0  0  0  0  0  0  0  0  0  0  0  0
   13.2348  -11.7202    0.0000 H   0  0  0  0  0  0  0  0  0  0  0  0
   14.3245  -16.0863    0.0000 H   0  0  0  0  0  0  0  0  0  0  0  0
   12.5193  -14.2178    0.0000 H   0  0  0  0  0  0  0  0  0  0  0  0
   16.8453  -15.4572    0.0000 H   0  0  0  0  0  0  0  0  0  0  0  0
   17.5608  -12.9596    0.0000 H   0  0  0  0  0  0  0  0  0  0  0  0
  1  2  1  0
  2  3  1  0
  3  4  1  0
  4  5  2  0
  4  6  1  0
  6  7  1  0
  7  8  1  0
  8  9  1  0
  8 10  1  0
  7 11  1  0
 11 12  2  0
 11 13  1  0
 13 14  1  0
 14 15  1  0
 15 16  1  0
 16 17  1  0
 17 18  1  0
 18 19  1  0
 19 20  2  3
 19 21  1  0
 14 22  1  0
 22 23  2  0
 22 24  1  0
 24 25  1  0
 25 26  1  0
 26 27  1  0
 27 28  1  0
 28 29  1  0
 28 30  2  0
 25 31  1  0
 31 32  2  0
 31 33  1  0
 33 34  1  0
 34 35  1  0
 34 36  1  0
 36 37  2  0
 36 38  1  0
 39 38  1  1
 39 40  1  0
 40 41  1  0
 41 42  1  0
 42 43  1  0
 43 44  1  0
 44 45  1  0
 45 46  1  0
 39 47  1  0
 39 48  1  0
 48 49  2  0
 48 50  1  0
 50 51  1  0
 51 52  1  0
 52 53  1  0
 53 54  1  0
 54 55  1  0
 55 56  1  0
 56 57  2  3
 56 58  1  0
 51 59  1  0
 59 60  2  0
 59 61  1  0
 61 62  1  0
 62 63  1  0
 63 64  1  0
 64 65  1  0
 64 66  2  0
 62 67  1  0
 67 68  2  0
 67 69  1  0
 69 70  1  0
 70 71  1  0
 71 72  1  0
 72 73  1  0
 73 74  1  0
 74 75  1  0
 75 76  2  3
 75 77  1  0
 70 78  1  0
 78 79  2  0
 78 80  1  0
 80 81  1  0
 81 82  1  0
 82 83  1  0
 83 84  1  0
 84 85  1  0
 85 86  1  0
 86 87  2  3
 86 88  1  0
 81 89  1  0
 89 90  2  0
 89 91  1  0
 91 92  1  0
 92 93  1  0
 93 94  1  0
 94 95  1  0
 95 96  1  0
 96 97  1  0
 97 98  2  3
 97 99  1  0
 92100  1  0
100101  2  0
100102  1  0
102103  1  0
103104  1  0
104105  1  0
105106  1  0
106107  1  0
107108  1  0
108109  2  3
108110  1  0
103111  1  0
111112  2  0
111113  1  0
113114  1  0
114115  1  0
115116  1  0
116117  1  0
117118  1  0
114119  1  0
114120  1  6
120121  2  0
120122  1  0
122123  1  0
123124  1  0
124125  1  0
125126  1  0
126127  1  0
127128  1  0
128129  2  3
128130  1  0
123131  1  0
131132  2  0
131133  1  0
133134  1  0
134135  1  0
135136  1  0
136137  1  0
137138  1  0
138139  1  0
139140  2  3
139141  1  0
134142  1  0
142143  2  0
142144  1  0
 46118  2  0
  1145  1  0
  1146  1  0
  2147  1  0
  2148  1  0
  3149  1  0
  3150  1  0
  6151  1  0
  7152  1  1
  8153  1  1
  9154  1  0
 10155  1  0
 10156  1  0
 10157  1  0
 13158  1  0
 14159  1  6
 15160  1  0
 15161  1  0
 16162  1  0
 16163  1  0
 17164  1  0
 17165  1  0
 18166  1  0
 20167  1  0
 20168  1  0
 21169  1  0
 21170  1  0
 24171  1  0
 25172  1  6
 26173  1  0
 26174  1  0
 27175  1  0
 27176  1  0
 29177  1  0
 29178  1  0
 33179  1  0
 34180  1  1
 35181  1  0
 35182  1  0
 35183  1  0
 38184  1  0
 40185  1  0
 40186  1  0
 41187  1  0
 41188  1  0
 42189  1  0
 42190  1  0
 43191  1  0
 43192  1  0
 44193  1  0
 44194  1  0
 45195  1  0
 45196  1  0
 46197  1  0
 47198  1  0
 47199  1  0
 47200  1  0
 50201  1  0
 51202  1  1
 52203  1  0
 52204  1  0
 53205  1  0
 53206  1  0
 54207  1  0
 54208  1  0
 55209  1  0
 57210  1  0
 57211  1  0
 58212  1  0
 58213  1  0
 61214  1  0
 62215  1  1
 63216  1  0
 63217  1  0
 65218  1  0
 65219  1  0
 69220  1  0
 70221  1  1
 71222  1  0
 71223  1  0
 72224  1  0
 72225  1  0
 73226  1  0
 73227  1  0
 74228  1  0
 76229  1  0
 76230  1  0
 77231  1  0
 77232  1  0
 80233  1  0
 81234  1  1
 82235  1  0
 82236  1  0
 83237  1  0
 83238  1  0
 84239  1  0
 84240  1  0
 85241  1  0
 87242  1  0
 87243  1  0
 88244  1  0
 88245  1  0
 91246  1  0
 92247  1  1
 93248  1  0
 93249  1  0
 94250  1  0
 94251  1  0
 95252  1  0
 95253  1  0
 96254  1  0
 98255  1  0
 98256  1  0
 99257  1  0
 99258  1  0
102259  1  0
103260  1  1
104261  1  0
104262  1  0
105263  1  0
105264  1  0
106265  1  0
106266  1  0
107267  1  0
109268  1  0
109269  1  0
110270  1  0
110271  1  0
113272  1  0
115273  1  0
115274  1  0
116275  1  0
116276  1  0
117277  1  0
117278  1  0
118279  1  0
119280  1  0
119281  1  0
119282  1  0
122283  1  0
123284  1  1
124285  1  0
124286  1  0
125287  1  0
125288  1  0
126289  1  0
126290  1  0
127291  1  0
129292  1  0
129293  1  0
130294  1  0
130295  1  0
133296  1  0
134297  1  6
135298  1  0
135299  1  0
136300  1  0
136301  1  0
137302  1  0
137303  1  0
138304  1  0
140305  1  0
140306  1  0
141307  1  0
141308  1  0
M  CHG  8  20   1  57   1  76   1  87   1  98   1 109   1 129   1 140   1
M  CHG  1 144  -1
M  END
