
     RDKit          2D

214223  0  0  0  0  0  0  0  0999 V2000
   14.4322   -1.4972    0.0000 C   0  0  0  0  0  0  0  0  0  0  0  0
   15.7416   -0.7653    0.0000 N   0  0  0  0  0  0  0  0  0  0  0  0
   17.0300   -1.5334    0.0000 C   0  0  0  0  0  0  0  0  0  0  0  0
   17.0091   -3.0332    0.0000 C   0  0  0  0  0  0  0  0  0  0  0  0
   18.2976   -3.8012    0.0000 C   0  0  0  0  0  0  0  0  0  0  0  0
   19.6070   -3.0694    0.0000 C   0  0  0  0  0  0  0  0  0  0  0  0
   19.6279   -1.5696    0.0000 C   0  0  0  0  0  0  0  0  0  0  0  0
   18.3394   -0.8015    0.0000 C   0  0  0  0  0  0  0  0  0  0  0  0
   21.0608   -1.1260    0.0000 C   0  0  0  0  0  0  0  0  0  0  0  0
   21.9255   -2.3516    0.0000 O   0  0  0  0  0  0  0  0  0  0  0  0
   21.0270   -3.5528    0.0000 C   0  0  0  0  0  0  0  0  0  0  0  0
   21.4706   -4.9857    0.0000 O   0  0  0  0  0  0  0  0  0  0  0  0
   22.5322   -0.8346    0.0000 C   0  0  0  0  0  0  0  0  0  0  0  0
   23.0155    0.5854    0.0000 C   0  0  0  0  0  0  0  0  0  0  0  0
   24.4870    0.8768    0.0000 C   0  0  0  0  0  0  0  0  0  0  0  0
   25.4750   -0.2518    0.0000 C   0  0  0  0  0  0  0  0  0  0  0  0
   24.9917   -1.6717    0.0000 C   0  0  0  0  0  0  0  0  0  0  0  0
   23.5203   -1.9631    0.0000 C   0  0  0  0  0  0  0  0  0  0  0  0
   26.9465    0.0396    0.0000 O   0  0  0  0  0  0  0  0  0  0  0  0
   22.0275    1.7140    0.0000 O   0  0  0  0  0  0  0  0  0  0  0  0
   20.5560    1.4226    0.0000 C   0  0  0  0  0  0  0  0  0  0  0  0
   20.0727    0.0026    0.0000 C   0  0  0  0  0  0  0  0  0  0  0  0
   18.8268    0.3739    0.0000 C   0  0  0  0  0  0  0  0  0  0  0  0
   18.2999    0.9758    0.0000 C   0  0  0  0  0  0  0  0  0  0  0  0
   18.5577    1.7331    0.0000 C   0  0  0  0  0  0  0  0  0  0  0  0
   19.3424    1.8886    0.0000 C   0  0  0  0  0  0  0  0  0  0  0  0
   17.1085    3.3884    0.0000 O   0  0  0  0  0  0  0  0  0  0  0  0
   14.4113   -2.9970    0.0000 S   0  0  0  0  0  0  0  0  0  0  0  0
   13.1437   -0.7292    0.0000 N   0  0  0  0  0  0  0  0  0  0  0  0
   11.8344   -1.4610    0.0000 C   0  0  0  0  0  0  0  0  0  0  0  0
   10.5459   -0.6930    0.0000 C   0  0  0  0  0  0  0  0  0  0  0  0
    9.2366   -1.4248    0.0000 C   0  0  0  0  0  0  0  0  0  0  0  0
    9.2157   -2.9246    0.0000 O   0  0  0  0  0  0  0  0  0  0  0  0
    7.9481   -0.6568    0.0000 N   0  0  0  0  0  0  0  0  0  0  0  0
    6.6387   -1.3886    0.0000 C   0  0  0  0  0  0  0  0  0  0  0  0
    5.6586   -2.5241    0.0000 C   0  0  0  0  0  0  0  0  0  0  0  0
    4.1852   -2.2431    0.0000 C   0  0  0  0  0  0  0  0  0  0  0  0
    3.6919   -0.8266    0.0000 C   0  0  0  0  0  0  0  0  0  0  0  0
    2.2184   -0.5455    0.0000 C   0  0  0  0  0  0  0  0  0  0  0  0
    1.2383   -1.6811    0.0000 C   0  0  0  0  0  0  0  0  0  0  0  0
    1.7317   -3.0976    0.0000 C   0  0  0  0  0  0  0  0  0  0  0  0
    3.2051   -3.3786    0.0000 C   0  0  0  0  0  0  0  0  0  0  0  0
    5.3503   -0.6206    0.0000 C   0  0  0  0  0  0  0  0  0  0  0  0
    5.5538    0.8655    0.0000 O   0  0  0  0  0  0  0  0  0  0  0  0
    4.0409   -1.3524    0.0000 N   0  0  0  0  0  0  0  0  0  0  0  0
    2.7525   -0.5844    0.0000 C   0  0  0  0  0  0  0  0  0  0  0  0
    1.8044    0.5780    0.0000 C   0  0  0  0  0  0  0  0  0  0  0  0
    2.3370    1.9803    0.0000 C   0  0  0  0  0  0  0  0  0  0  0  0
    1.3889    3.1426    0.0000 S   0  0  0  0  0  0  0  0  0  0  0  0
    2.2450    4.3743    0.0000 C   0  0  0  0  0  0  0  0  0  0  0  0
    1.4431   -1.3162    0.0000 C   0  0  0  0  0  0  0  0  0  0  0  0
    1.2395   -2.8023    0.0000 O   0  0  0  0  0  0  0  0  0  0  0  0
    0.1546   -0.5482    0.0000 N   0  0  0  0  0  0  0  0  0  0  0  0
   -1.1547   -1.2800    0.0000 C   0  0  0  0  0  0  0  0  0  0  0  0
   -1.4724   -2.7460    0.0000 C   0  0  0  0  0  0  0  0  0  0  0  0
   -2.2081   -4.0532    0.0000 C   0  0  0  0  0  0  0  0  0  0  0  0
   -3.2964   -5.0855    0.0000 C   0  0  0  0  0  0  0  0  0  0  0  0
   -4.6406   -5.7512    0.0000 C   0  0  0  0  0  0  0  0  0  0  0  0
    0.1507   -2.0189    0.0000 C   0  0  0  0  0  0  0  0  0  0  0  0
   -1.2833    0.2145    0.0000 C   0  0  0  0  0  0  0  0  0  0  0  0
    0.0474    0.9069    0.0000 O   0  0  0  0  0  0  0  0  0  0  0  0
   -1.8466    1.6047    0.0000 N   0  0  0  0  0  0  0  0  0  0  0  0
   -2.7947    2.7670    0.0000 C   0  0  0  0  0  0  0  0  0  0  0  0
   -2.5505    4.2470    0.0000 C   0  0  0  0  0  0  0  0  0  0  0  0
   -1.1467    4.7755    0.0000 C   0  0  0  0  0  0  0  0  0  0  0  0
    0.0129    3.8241    0.0000 C   0  0  0  0  0  0  0  0  0  0  0  0
    1.4167    4.3526    0.0000 C   0  0  0  0  0  0  0  0  0  0  0  0
    1.6609    5.8325    0.0000 C   0  0  0  0  0  0  0  0  0  0  0  0
    2.9898    6.5282    0.0000 O   0  0  0  0  0  0  0  0  0  0  0  0
    0.5013    6.7840    0.0000 C   0  0  0  0  0  0  0  0  0  0  0  0
   -0.9025    6.2555    0.0000 C   0  0  0  0  0  0  0  0  0  0  0  0
   -4.0433    3.5983    0.0000 C   0  0  0  0  0  0  0  0  0  0  0  0
   -3.4074    4.9569    0.0000 O   0  0  0  0  0  0  0  0  0  0  0  0
   -5.4814    4.0247    0.0000 N   0  0  0  0  0  0  0  0  0  0  0  0
   -6.9813    4.0082    0.0000 C   0  0  0  0  0  0  0  0  0  0  0  0
   -7.9862    5.1218    0.0000 C   0  0  0  0  0  0  0  0  0  0  0  0
   -7.5241    6.5489    0.0000 C   0  0  0  0  0  0  0  0  0  0  0  0
   -6.0980    7.0139    0.0000 C   0  0  0  0  0  0  0  0  0  0  0  0
   -6.0995    8.5139    0.0000 N   0  0  0  0  0  0  0  0  0  0  0  0
   -7.5266    8.9760    0.0000 C   0  0  0  0  0  0  0  0  0  0  0  0
   -8.1381   10.3456    0.0000 C   0  0  0  0  0  0  0  0  0  0  0  0
   -9.6301   10.5009    0.0000 C   0  0  0  0  0  0  0  0  0  0  0  0
  -10.5105    9.2865    0.0000 C   0  0  0  0  0  0  0  0  0  0  0  0
   -9.8990    7.9168    0.0000 C   0  0  0  0  0  0  0  0  0  0  0  0
   -8.4070    7.7615    0.0000 C   0  0  0  0  0  0  0  0  0  0  0  0
   -8.4097    3.5503    0.0000 C   0  0  0  0  0  0  0  0  0  0  0  0
   -9.0754    4.8945    0.0000 O   0  0  0  0  0  0  0  0  0  0  0  0
   -9.6397    2.6917    0.0000 N   0  0  0  0  0  0  0  0  0  0  0  0
  -10.5620    1.5088    0.0000 C   0  0  0  0  0  0  0  0  0  0  0  0
  -12.0592    1.4175    0.0000 C   0  0  0  0  0  0  0  0  0  0  0  0
  -12.8869    2.6685    0.0000 C   0  0  0  0  0  0  0  0  0  0  0  0
  -14.3841    2.5773    0.0000 C   0  0  0  0  0  0  0  0  0  0  0  0
  -15.2117    3.8283    0.0000 C   0  0  0  0  0  0  0  0  0  0  0  0
  -16.7089    3.7370    0.0000 N   0  0  0  0  0  0  0  0  0  0  0  0
  -11.0946    0.1065    0.0000 C   0  0  0  0  0  0  0  0  0  0  0  0
  -12.5606    0.4242    0.0000 O   0  0  0  0  0  0  0  0  0  0  0  0
  -11.1902   -1.3904    0.0000 N   0  0  0  0  0  0  0  0  0  0  0  0
  -10.8404   -2.8491    0.0000 C   0  0  0  0  0  0  0  0  0  0  0  0
  -10.0761   -4.1398    0.0000 C   0  0  0  0  0  0  0  0  0  0  0  0
   -8.9654   -5.1479    0.0000 C   0  0  0  0  0  0  0  0  0  0  0  0
   -7.6069   -5.7838    0.0000 C   0  0  0  0  0  0  0  0  0  0  0  0
   -6.1213   -5.9910    0.0000 C   0  0  0  0  0  0  0  0  0  0  0  0
  -12.3138   -2.5681    0.0000 C   0  0  0  0  0  0  0  0  0  0  0  0
  -11.7026   -4.0765    0.0000 C   0  0  0  0  0  0  0  0  0  0  0  0
  -11.4186   -5.5494    0.0000 O   0  0  0  0  0  0  0  0  0  0  0  0
  -13.1967   -3.9436    0.0000 N   0  0  0  0  0  0  0  0  0  0  0  0
  -14.0588   -5.1711    0.0000 C   0  0  0  0  0  0  0  0  0  0  0  0
  -14.4492   -6.6194    0.0000 C   0  0  0  0  0  0  0  0  0  0  0  0
  -15.8986   -7.0055    0.0000 C   0  0  0  0  0  0  0  0  0  0  0  0
  -16.2890   -8.4538    0.0000 C   0  0  0  0  0  0  0  0  0  0  0  0
  -17.3927   -6.8726    0.0000 C   0  0  0  0  0  0  0  0  0  0  0  0
  -15.5529   -5.0382    0.0000 C   0  0  0  0  0  0  0  0  0  0  0  0
  -16.5583   -6.1514    0.0000 O   0  0  0  0  0  0  0  0  0  0  0  0
  -16.1849   -3.6778    0.0000 O   0  0  0  0  0  0  0  0  0  0  0  0
   15.5795    0.7259    0.0000 H   0  0  0  0  0  0  0  0  0  0  0  0
   15.6998   -3.7651    0.0000 H   0  0  0  0  0  0  0  0  0  0  0  0
   18.2767   -5.3011    0.0000 H   0  0  0  0  0  0  0  0  0  0  0  0
   17.9967    0.6588    0.0000 H   0  0  0  0  0  0  0  0  0  0  0  0
   24.9703    2.2968    0.0000 H   0  0  0  0  0  0  0  0  0  0  0  0
   25.9798   -2.8003    0.0000 H   0  0  0  0  0  0  0  0  0  0  0  0
   23.0369   -3.3831    0.0000 H   0  0  0  0  0  0  0  0  0  0  0  0
   27.9345   -1.0889    0.0000 H   0  0  0  0  0  0  0  0  0  0  0  0
   18.1179   -1.7087    0.0000 H   0  0  0  0  0  0  0  0  0  0  0  0
   16.1172    0.7300    0.0000 H   0  0  0  0  0  0  0  0  0  0  0  0
   20.0513    3.9712    0.0000 H   0  0  0  0  0  0  0  0  0  0  0  0
   17.5918    4.8084    0.0000 H   0  0  0  0  0  0  0  0  0  0  0  0
   13.1646    0.7707    0.0000 H   0  0  0  0  0  0  0  0  0  0  0  0
   10.8543   -2.5965    0.0000 H   0  0  0  0  0  0  0  0  0  0  0  0
   12.7825   -2.6234    0.0000 H   0  0  0  0  0  0  0  0  0  0  0  0
    9.5978    0.4694    0.0000 H   0  0  0  0  0  0  0  0  0  0  0  0
   11.5260    0.4426    0.0000 H   0  0  0  0  0  0  0  0  0  0  0  0
    7.9690    0.8431    0.0000 H   0  0  0  0  0  0  0  0  0  0  0  0
    7.5868   -2.5510    0.0000 H   0  0  0  0  0  0  0  0  0  0  0  0
    5.1260   -3.9264    0.0000 H   0  0  0  0  0  0  0  0  0  0  0  0
    6.9471   -3.2921    0.0000 H   0  0  0  0  0  0  0  0  0  0  0  0
    4.5262    0.4200    0.0000 H   0  0  0  0  0  0  0  0  0  0  0  0
    1.3970    0.7095    0.0000 H   0  0  0  0  0  0  0  0  0  0  0  0
   -0.2351   -1.4000    0.0000 H   0  0  0  0  0  0  0  0  0  0  0  0
    0.7516   -4.2331    0.0000 H   0  0  0  0  0  0  0  0  0  0  0  0
    3.6985   -4.7952    0.0000 H   0  0  0  0  0  0  0  0  0  0  0  0
    3.6577   -2.8026    0.0000 H   0  0  0  0  0  0  0  0  0  0  0  0
    3.8637    0.4232    0.0000 H   0  0  0  0  0  0  0  0  0  0  0  0
    0.7400    1.6350    0.0000 H   0  0  0  0  0  0  0  0  0  0  0  0
    0.6932   -0.4296    0.0000 H   0  0  0  0  0  0  0  0  0  0  0  0
    3.5627    2.8449    0.0000 H   0  0  0  0  0  0  0  0  0  0  0  0
    3.7095    1.3750    0.0000 H   0  0  0  0  0  0  0  0  0  0  0  0
    1.3338    5.9754    0.0000 H   0  0  0  0  0  0  0  0  0  0  0  0
    3.0559    5.5906    0.0000 H   0  0  0  0  0  0  0  0  0  0  0  0
    3.3259    4.0281    0.0000 H   0  0  0  0  0  0  0  0  0  0  0  0
    0.1755    0.9517    0.0000 H   0  0  0  0  0  0  0  0  0  0  0  0
    0.0218   -2.6138    0.0000 H   0  0  0  0  0  0  0  0  0  0  0  0
   -0.5834   -3.9542    0.0000 H   0  0  0  0  0  0  0  0  0  0  0  0
   -0.7905   -4.5437    0.0000 H   0  0  0  0  0  0  0  0  0  0  0  0
   -1.5457   -5.3991    0.0000 H   0  0  0  0  0  0  0  0  0  0  0  0
   -1.9873   -5.8179    0.0000 H   0  0  0  0  0  0  0  0  0  0  0  0
   -3.2425   -6.5845    0.0000 H   0  0  0  0  0  0  0  0  0  0  0  0
   -4.1827   -7.1796    0.0000 H   0  0  0  0  0  0  0  0  0  0  0  0
    0.2865   -3.6793    0.0000 H   0  0  0  0  0  0  0  0  0  0  0  0
    1.5497   -2.4314    0.0000 H   0  0  0  0  0  0  0  0  0  0  0  0
    1.1086   -1.1135    0.0000 H   0  0  0  0  0  0  0  0  0  0  0  0
   -0.4724    2.2059    0.0000 H   0  0  0  0  0  0  0  0  0  0  0  0
   -1.3452    3.1531    0.0000 H   0  0  0  0  0  0  0  0  0  0  0  0
   -2.8272    5.7213    0.0000 H   0  0  0  0  0  0  0  0  0  0  0  0
   -4.0098    4.5940    0.0000 H   0  0  0  0  0  0  0  0  0  0  0  0
   -0.0491    2.3253    0.0000 H   0  0  0  0  0  0  0  0  0  0  0  0
    2.5763    3.4011    0.0000 H   0  0  0  0  0  0  0  0  0  0  0  0
    3.3089    7.8410    0.0000 H   0  0  0  0  0  0  0  0  0  0  0  0
    0.7455    8.2640    0.0000 H   0  0  0  0  0  0  0  0  0  0  0  0
   -2.0621    7.2070    0.0000 H   0  0  0  0  0  0  0  0  0  0  0  0
   -5.0946    5.4739    0.0000 H   0  0  0  0  0  0  0  0  0  0  0  0
   -6.3795    5.3821    0.0000 H   0  0  0  0  0  0  0  0  0  0  0  0
   -9.3113    5.8247    0.0000 H   0  0  0  0  0  0  0  0  0  0  0  0
   -9.1673    4.1972    0.0000 H   0  0  0  0  0  0  0  0  0  0  0  0
   -4.7853    6.2881    0.0000 H   0  0  0  0  0  0  0  0  0  0  0  0
   -4.8869    9.3968    0.0000 H   0  0  0  0  0  0  0  0  0  0  0  0
   -7.2577   11.5601    0.0000 H   0  0  0  0  0  0  0  0  0  0  0  0
  -10.2416   11.8706    0.0000 H   0  0  0  0  0  0  0  0  0  0  0  0
  -12.0024    9.4417    0.0000 H   0  0  0  0  0  0  0  0  0  0  0  0
  -10.7794    6.7024    0.0000 H   0  0  0  0  0  0  0  0  0  0  0  0
  -10.6720    3.7800    0.0000 H   0  0  0  0  0  0  0  0  0  0  0  0
  -11.0940    2.9113    0.0000 H   0  0  0  0  0  0  0  0  0  0  0  0
  -13.3518    0.6564    0.0000 H   0  0  0  0  0  0  0  0  0  0  0  0
  -12.0727   -0.0824    0.0000 H   0  0  0  0  0  0  0  0  0  0  0  0
  -13.0563    4.1589    0.0000 H   0  0  0  0  0  0  0  0  0  0  0  0
  -11.5943    3.4296    0.0000 H   0  0  0  0  0  0  0  0  0  0  0  0
  -15.6767    1.8162    0.0000 H   0  0  0  0  0  0  0  0  0  0  0  0
  -14.2146    1.0869    0.0000 H   0  0  0  0  0  0  0  0  0  0  0  0
  -15.5616    5.2869    0.0000 H   0  0  0  0  0  0  0  0  0  0  0  0
  -13.9191    4.5893    0.0000 H   0  0  0  0  0  0  0  0  0  0  0  0
  -17.5366    4.9880    0.0000 H   0  0  0  0  0  0  0  0  0  0  0  0
  -18.0846    3.1392    0.0000 H   0  0  0  0  0  0  0  0  0  0  0  0
  -16.5395    2.2466    0.0000 H   0  0  0  0  0  0  0  0  0  0  0  0
  -12.6847   -1.5190    0.0000 H   0  0  0  0  0  0  0  0  0  0  0  0
  -10.5382   -5.5668    0.0000 H   0  0  0  0  0  0  0  0  0  0  0  0
  -11.4825   -4.6614    0.0000 H   0  0  0  0  0  0  0  0  0  0  0  0
   -9.1690   -6.6340    0.0000 H   0  0  0  0  0  0  0  0  0  0  0  0
  -10.1556   -6.0608    0.0000 H   0  0  0  0  0  0  0  0  0  0  0  0
   -7.1848   -7.2232    0.0000 H   0  0  0  0  0  0  0  0  0  0  0  0
   -8.6177   -6.8920    0.0000 H   0  0  0  0  0  0  0  0  0  0  0  0
   -6.1048   -7.4909    0.0000 H   0  0  0  0  0  0  0  0  0  0  0  0
  -13.5396   -3.4327    0.0000 H   0  0  0  0  0  0  0  0  0  0  0  0
  -13.4991   -1.6487    0.0000 H   0  0  0  0  0  0  0  0  0  0  0  0
  -12.1364   -1.0786    0.0000 H   0  0  0  0  0  0  0  0  0  0  0  0
  -13.9897   -2.6704    0.0000 H   0  0  0  0  0  0  0  0  0  0  0  0
  -12.7003   -5.8070    0.0000 H   0  0  0  0  0  0  0  0  0  0  0  0
  -14.1394   -8.0871    0.0000 H   0  0  0  0  0  0  0  0  0  0  0  0
  -12.9551   -6.7523    0.0000 H   0  0  0  0  0  0  0  0  0  0  0  0
  -16.5543   -5.6564    0.0000 H   0  0  0  0  0  0  0  0  0  0  0  0
  -17.6806   -9.0137    0.0000 H   0  0  0  0  0  0  0  0  0  0  0  0
  -16.1604   -9.9483    0.0000 H   0  0  0  0  0  0  0  0  0  0  0  0
  -14.8222   -8.7679    0.0000 H   0  0  0  0  0  0  0  0  0  0  0  0
  -18.3981   -7.9858    0.0000 H   0  0  0  0  0  0  0  0  0  0  0  0
  -18.7513   -6.2367    0.0000 H   0  0  0  0  0  0  0  0  0  0  0  0
  -17.0024   -5.4243    0.0000 H   0  0  0  0  0  0  0  0  0  0  0  0
  1  2  1  0
  2  3  1  0
  3  4  2  0
  4  5  1  0
  5  6  2  0
  6  7  1  0
  7  8  2  0
  7  9  1  0
  9 10  1  0
 10 11  1  0
 11 12  2  0
  9 13  1  0
 13 14  1  0
 14 15  2  0
 15 16  1  0
 16 17  2  0
 17 18  1  0
 16 19  1  0
 14 20  1  0
 20 21  1  0
 21 22  2  0
 22 23  1  0
 23 24  2  0
 24 25  1  0
 25 26  2  0
 25 27  1  0
  1 28  2  0
  1 29  1  0
 29 30  1  0
 30 31  1  0
 31 32  1  0
 32 33  2  0
 32 34  1  0
 34 35  1  0
 35 36  1  0
 36 37  1  0
 37 38  2  0
 38 39  1  0
 39 40  2  0
 40 41  1  0
 41 42  2  0
 35 43  1  0
 43 44  2  0
 43 45  1  0
 45 46  1  0
 46 47  1  0
 47 48  1  0
 48 49  1  0
 49 50  1  0
 46 51  1  0
 51 52  2  0
 51 53  1  0
 54 53  1  1
 54 55  1  0
 55 56  1  0
 56 57  1  0
 57 58  1  0
 54 59  1  0
 54 60  1  0
 60 61  2  0
 60 62  1  0
 62 63  1  0
 63 64  1  0
 64 65  1  0
 65 66  2  0
 66 67  1  0
 67 68  2  0
 68 69  1  0
 68 70  1  0
 70 71  2  0
 63 72  1  0
 72 73  2  0
 72 74  1  0
 74 75  1  0
 75 76  1  0
 76 77  1  0
 77 78  2  0
 78 79  1  0
 79 80  1  0
 80 81  2  0
 81 82  1  0
 82 83  2  0
 83 84  1  0
 84 85  2  0
 75 86  1  0
 86 87  2  0
 86 88  1  0
 88 89  1  0
 89 90  1  0
 90 91  1  0
 91 92  1  0
 92 93  1  0
 93 94  1  0
 89 95  1  0
 95 96  2  0
 95 97  1  0
 97 98  1  0
 98 99  1  0
 99100  1  0
100101  1  0
101102  1  0
 98103  1  0
 98104  1  1
104105  2  0
104106  1  0
106107  1  0
107108  1  0
108109  1  0
109110  1  0
109111  1  0
107112  1  0
112113  2  0
112114  1  0
  8  3  1  0
 42 37  1  0
 71 65  1  0
 85 77  1  0
 11  6  1  0
 85 80  1  0
 18 13  2  0
 58102  2  0
 22  9  1  0
 26 21  1  0
  2115  1  0
  4116  1  0
  5117  1  0
  8118  1  0
 15119  1  0
 17120  1  0
 18121  1  0
 19122  1  0
 23123  1  0
 24124  1  0
 26125  1  0
 27126  1  0
 29127  1  0
 30128  1  0
 30129  1  0
 31130  1  0
 31131  1  0
 34132  1  0
 35133  1  1
 36134  1  0
 36135  1  0
 38136  1  0
 39137  1  0
 40138  1  0
 41139  1  0
 42140  1  0
 45141  1  0
 46142  1  6
 47143  1  0
 47144  1  0
 48145  1  0
 48146  1  0
 50147  1  0
 50148  1  0
 50149  1  0
 53150  1  0
 55151  1  0
 55152  1  0
 56153  1  0
 56154  1  0
 57155  1  0
 57156  1  0
 58157  1  0
 59158  1  0
 59159  1  0
 59160  1  0
 62161  1  0
 63162  1  6
 64163  1  0
 64164  1  0
 66165  1  0
 67166  1  0
 69167  1  0
 70168  1  0
 71169  1  0
 74170  1  0
 75171  1  6
 76172  1  0
 76173  1  0
 78174  1  0
 79175  1  0
 81176  1  0
 82177  1  0
 83178  1  0
 84179  1  0
 88180  1  0
 89181  1  6
 90182  1  0
 90183  1  0
 91184  1  0
 91185  1  0
 92186  1  0
 92187  1  0
 93188  1  0
 93189  1  0
 94190  1  0
 94191  1  0
 94192  1  0
 97193  1  0
 99194  1  0
 99195  1  0
100196  1  0
100197  1  0
101198  1  0
101199  1  0
102200  1  0
103201  1  0
103202  1  0
103203  1  0
106204  1  0
107205  1  1
108206  1  0
108207  1  0
109208  1  0
110209  1  0
110210  1  0
110211  1  0
111212  1  0
111213  1  0
111214  1  0
M  CHG  2  94   1 114  -1
M  END
