
     RDKit          2D

262264  0  0  0  0  0  0  0  0999 V2000
  -20.7229   -1.9881    0.0000 N   0  0  0  0  0  0  0  0  0  0  0  0
  -19.3371   -2.5623    0.0000 C   0  0  0  0  0  0  0  0  0  0  0  0
  -19.1415   -4.0495    0.0000 C   0  0  0  0  0  0  0  0  0  0  0  0
  -17.7558   -4.6237    0.0000 C   0  0  0  0  0  0  0  0  0  0  0  0
  -16.5656   -3.7107    0.0000 O   0  0  0  0  0  0  0  0  0  0  0  0
  -17.5602   -6.1109    0.0000 N   0  0  0  0  0  0  0  0  0  0  0  0
  -16.1745   -6.6851    0.0000 C   0  0  0  0  0  0  0  0  0  0  0  0
  -16.9806   -7.9501    0.0000 C   0  0  0  0  0  0  0  0  0  0  0  0
  -18.4791   -7.8845    0.0000 C   0  0  0  0  0  0  0  0  0  0  0  0
  -19.2852   -9.1495    0.0000 N   0  0  0  0  0  0  0  0  0  0  0  0
  -19.3286   -6.6482    0.0000 O   0  0  0  0  0  0  0  0  0  0  0  0
  -14.6759   -6.7508    0.0000 C   0  0  0  0  0  0  0  0  0  0  0  0
  -14.1508   -8.1559    0.0000 O   0  0  0  0  0  0  0  0  0  0  0  0
  -13.8698   -5.4858    0.0000 N   0  0  0  0  0  0  0  0  0  0  0  0
  -12.3712   -5.5514    0.0000 C   0  0  0  0  0  0  0  0  0  0  0  0
  -12.6961   -7.0158    0.0000 C   0  0  0  0  0  0  0  0  0  0  0  0
  -11.5903   -8.0293    0.0000 C   0  0  0  0  0  0  0  0  0  0  0  0
  -11.9151   -9.4937    0.0000 C   0  0  0  0  0  0  0  0  0  0  0  0
  -10.8093  -10.5073    0.0000 O   0  0  0  0  0  0  0  0  0  0  0  0
  -13.3458   -9.9446    0.0000 O   0  0  0  0  0  0  0  0  0  0  0  0
  -10.9406   -5.1005    0.0000 C   0  0  0  0  0  0  0  0  0  0  0  0
   -9.8348   -6.1141    0.0000 O   0  0  0  0  0  0  0  0  0  0  0  0
  -10.6157   -3.6361    0.0000 N   0  0  0  0  0  0  0  0  0  0  0  0
   -9.1851   -3.1853    0.0000 C   0  0  0  0  0  0  0  0  0  0  0  0
   -9.8775   -1.8547    0.0000 C   0  0  0  0  0  0  0  0  0  0  0  0
  -11.3761   -1.7890    0.0000 C   0  0  0  0  0  0  0  0  0  0  0  0
  -12.0685   -0.4584    0.0000 C   0  0  0  0  0  0  0  0  0  0  0  0
  -12.8067   -2.2399    0.0000 C   0  0  0  0  0  0  0  0  0  0  0  0
   -7.6865   -3.2509    0.0000 C   0  0  0  0  0  0  0  0  0  0  0  0
   -7.1614   -4.6560    0.0000 O   0  0  0  0  0  0  0  0  0  0  0  0
   -6.8804   -1.9859    0.0000 N   0  0  0  0  0  0  0  0  0  0  0  0
   -5.3818   -2.0515    0.0000 C   0  0  0  0  0  0  0  0  0  0  0  0
   -4.5265   -3.2838    0.0000 C   0  0  0  0  0  0  0  0  0  0  0  0
   -3.4534   -4.3319    0.0000 C   0  0  0  0  0  0  0  0  0  0  0  0
   -2.2014   -5.1580    0.0000 C   0  0  0  0  0  0  0  0  0  0  0  0
   -0.8157   -5.7322    0.0000 C   0  0  0  0  0  0  0  0  0  0  0  0
    0.6537   -6.0338    0.0000 C   0  0  0  0  0  0  0  0  0  0  0  0
    2.1536   -6.0518    0.0000 C   0  0  0  0  0  0  0  0  0  0  0  0
    3.6298   -5.7857    0.0000 C   0  0  0  0  0  0  0  0  0  0  0  0
   -6.2608   -3.2670    0.0000 C   0  0  0  0  0  0  0  0  0  0  0  0
   -5.9885   -0.6797    0.0000 C   0  0  0  0  0  0  0  0  0  0  0  0
   -7.4589   -0.9762    0.0000 O   0  0  0  0  0  0  0  0  0  0  0  0
   -6.3246    0.7822    0.0000 N   0  0  0  0  0  0  0  0  0  0  0  0
   -6.3779    2.2812    0.0000 C   0  0  0  0  0  0  0  0  0  0  0  0
   -7.6974    1.5677    0.0000 C   0  0  0  0  0  0  0  0  0  0  0  0
   -8.9750    2.3537    0.0000 C   0  0  0  0  0  0  0  0  0  0  0  0
   -8.9331    3.8531    0.0000 C   0  0  0  0  0  0  0  0  0  0  0  0
  -10.2107    4.6391    0.0000 N   0  0  0  0  0  0  0  0  0  0  0  0
  -10.1689    6.1385    0.0000 C   0  0  0  0  0  0  0  0  0  0  0  0
  -11.4465    6.9244    0.0000 N   0  0  0  0  0  0  0  0  0  0  0  0
   -8.8494    6.8519    0.0000 N   0  0  0  0  0  0  0  0  0  0  0  0
   -6.1466    3.7633    0.0000 C   0  0  0  0  0  0  0  0  0  0  0  0
   -7.6344    3.9545    0.0000 O   0  0  0  0  0  0  0  0  0  0  0  0
   -5.6390    5.1748    0.0000 N   0  0  0  0  0  0  0  0  0  0  0  0
   -4.8734    6.4647    0.0000 C   0  0  0  0  0  0  0  0  0  0  0  0
   -6.3691    6.5778    0.0000 C   0  0  0  0  0  0  0  0  0  0  0  0
   -7.0190    7.9297    0.0000 O   0  0  0  0  0  0  0  0  0  0  0  0
   -3.8775    7.5864    0.0000 C   0  0  0  0  0  0  0  0  0  0  0  0
   -4.8995    8.6844    0.0000 O   0  0  0  0  0  0  0  0  0  0  0  0
   -2.6874    8.4994    0.0000 N   0  0  0  0  0  0  0  0  0  0  0  0
   -1.3460    9.1706    0.0000 C   0  0  0  0  0  0  0  0  0  0  0  0
   -2.5431   10.0745    0.0000 C   0  0  0  0  0  0  0  0  0  0  0  0
   -2.3589   11.5631    0.0000 C   0  0  0  0  0  0  0  0  0  0  0  0
   -0.9776   12.1479    0.0000 C   0  0  0  0  0  0  0  0  0  0  0  0
   -0.7934   13.6366    0.0000 C   0  0  0  0  0  0  0  0  0  0  0  0
   -1.9905   14.5404    0.0000 C   0  0  0  0  0  0  0  0  0  0  0  0
   -3.3718   13.9556    0.0000 C   0  0  0  0  0  0  0  0  0  0  0  0
   -3.5560   12.4670    0.0000 C   0  0  0  0  0  0  0  0  0  0  0  0
    0.0983    9.5759    0.0000 C   0  0  0  0  0  0  0  0  0  0  0  0
    0.0141   11.0735    0.0000 O   0  0  0  0  0  0  0  0  0  0  0  0
    1.5931    9.7005    0.0000 N   0  0  0  0  0  0  0  0  0  0  0  0
    3.0845    9.5400    0.0000 C   0  0  0  0  0  0  0  0  0  0  0  0
    2.5660   10.9475    0.0000 C   0  0  0  0  0  0  0  0  0  0  0  0
    3.5258   12.1003    0.0000 C   0  0  0  0  0  0  0  0  0  0  0  0
    5.0040   11.8455    0.0000 C   0  0  0  0  0  0  0  0  0  0  0  0
    5.9638   12.9982    0.0000 C   0  0  0  0  0  0  0  0  0  0  0  0
    5.4453   14.4058    0.0000 C   0  0  0  0  0  0  0  0  0  0  0  0
    3.9671   14.6606    0.0000 C   0  0  0  0  0  0  0  0  0  0  0  0
    3.0074   13.5078    0.0000 C   0  0  0  0  0  0  0  0  0  0  0  0
    4.5185    9.1001    0.0000 C   0  0  0  0  0  0  0  0  0  0  0  0
    5.2574   10.4055    0.0000 O   0  0  0  0  0  0  0  0  0  0  0  0
    5.8434    8.3967    0.0000 N   0  0  0  0  0  0  0  0  0  0  0  0
    7.0112    7.4554    0.0000 C   0  0  0  0  0  0  0  0  0  0  0  0
    7.3361    8.9198    0.0000 C   0  0  0  0  0  0  0  0  0  0  0  0
    8.7667    9.3707    0.0000 O   0  0  0  0  0  0  0  0  0  0  0  0
    7.9798    6.3100    0.0000 C   0  0  0  0  0  0  0  0  0  0  0  0
    9.2121    7.1653    0.0000 O   0  0  0  0  0  0  0  0  0  0  0  0
    8.7141    5.0021    0.0000 N   0  0  0  0  0  0  0  0  0  0  0  0
    9.1876    3.5788    0.0000 C   0  0  0  0  0  0  0  0  0  0  0  0
   10.2526    4.6351    0.0000 C   0  0  0  0  0  0  0  0  0  0  0  0
   11.6999    4.2409    0.0000 C   0  0  0  0  0  0  0  0  0  0  0  0
   12.7649    5.2972    0.0000 C   0  0  0  0  0  0  0  0  0  0  0  0
   12.9251    3.3755    0.0000 C   0  0  0  0  0  0  0  0  0  0  0  0
    9.3832    2.0916    0.0000 C   0  0  0  0  0  0  0  0  0  0  0  0
   10.8776    1.9618    0.0000 O   0  0  0  0  0  0  0  0  0  0  0  0
    9.2938    0.5942    0.0000 N   0  0  0  0  0  0  0  0  0  0  0  0
    8.9227   -0.8591    0.0000 C   0  0  0  0  0  0  0  0  0  0  0  0
    8.2832   -2.2160    0.0000 C   0  0  0  0  0  0  0  0  0  0  0  0
    7.3985   -3.4273    0.0000 C   0  0  0  0  0  0  0  0  0  0  0  0
    6.3005   -4.4493    0.0000 C   0  0  0  0  0  0  0  0  0  0  0  0
    5.0289   -5.2450    0.0000 C   0  0  0  0  0  0  0  0  0  0  0  0
    9.9908   -1.9123    0.0000 C   0  0  0  0  0  0  0  0  0  0  0  0
   10.3897   -0.5463    0.0000 C   0  0  0  0  0  0  0  0  0  0  0  0
   11.0228    0.8136    0.0000 O   0  0  0  0  0  0  0  0  0  0  0  0
   11.3941   -1.6603    0.0000 N   0  0  0  0  0  0  0  0  0  0  0  0
   12.8612   -1.3475    0.0000 C   0  0  0  0  0  0  0  0  0  0  0  0
   14.1327   -0.5518    0.0000 C   0  0  0  0  0  0  0  0  0  0  0  0
   15.4576   -1.2551    0.0000 C   0  0  0  0  0  0  0  0  0  0  0  0
   16.7291   -0.4594    0.0000 O   0  0  0  0  0  0  0  0  0  0  0  0
   15.5828   -2.0424    0.0000 O   0  0  0  0  0  0  0  0  0  0  0  0
   13.8656   -2.4616    0.0000 C   0  0  0  0  0  0  0  0  0  0  0  0
   14.6597   -2.3916    0.0000 O   0  0  0  0  0  0  0  0  0  0  0  0
   13.4030   -3.8885    0.0000 N   0  0  0  0  0  0  0  0  0  0  0  0
   14.4074   -5.0025    0.0000 C   0  0  0  0  0  0  0  0  0  0  0  0
   15.7323   -5.7058    0.0000 C   0  0  0  0  0  0  0  0  0  0  0  0
   15.7857   -7.2049    0.0000 C   0  0  0  0  0  0  0  0  0  0  0  0
   17.1105   -7.9082    0.0000 C   0  0  0  0  0  0  0  0  0  0  0  0
   17.3462   -9.3896    0.0000 N   0  0  0  0  0  0  0  0  0  0  0  0
   18.3821   -7.1125    0.0000 O   0  0  0  0  0  0  0  0  0  0  0  0
   13.9449   -6.4294    0.0000 C   0  0  0  0  0  0  0  0  0  0  0  0
   12.4778   -6.7422    0.0000 O   0  0  0  0  0  0  0  0  0  0  0  0
   14.9493   -7.5434    0.0000 N   0  0  0  0  0  0  0  0  0  0  0  0
   14.4867   -8.9703    0.0000 C   0  0  0  0  0  0  0  0  0  0  0  0
   13.5640  -10.1530    0.0000 C   0  0  0  0  0  0  0  0  0  0  0  0
   14.1268  -11.5434    0.0000 C   0  0  0  0  0  0  0  0  0  0  0  0
   12.2924  -10.9487    0.0000 C   0  0  0  0  0  0  0  0  0  0  0  0
   10.9676  -10.2454    0.0000 C   0  0  0  0  0  0  0  0  0  0  0  0
   15.4911  -10.0844    0.0000 C   0  0  0  0  0  0  0  0  0  0  0  0
   15.2059  -11.5570    0.0000 O   0  0  0  0  0  0  0  0  0  0  0  0
   16.9853   -9.9527    0.0000 O   0  0  0  0  0  0  0  0  0  0  0  0
  -20.9185   -0.5009    0.0000 H   0  0  0  0  0  0  0  0  0  0  0  0
  -21.9130   -2.9011    0.0000 H   0  0  0  0  0  0  0  0  0  0  0  0
  -19.0123   -1.0979    0.0000 H   0  0  0  0  0  0  0  0  0  0  0  0
  -17.8386   -2.6280    0.0000 H   0  0  0  0  0  0  0  0  0  0  0  0
  -20.6401   -3.9839    0.0000 H   0  0  0  0  0  0  0  0  0  0  0  0
  -19.4664   -5.5139    0.0000 H   0  0  0  0  0  0  0  0  0  0  0  0
  -18.8528   -6.8720    0.0000 H   0  0  0  0  0  0  0  0  0  0  0  0
  -15.8496   -5.2207    0.0000 H   0  0  0  0  0  0  0  0  0  0  0  0
  -17.3054   -9.4145    0.0000 H   0  0  0  0  0  0  0  0  0  0  0  0
  -15.5948   -8.5243    0.0000 H   0  0  0  0  0  0  0  0  0  0  0  0
  -20.7838   -9.0838    0.0000 H   0  0  0  0  0  0  0  0  0  0  0  0
  -18.5928  -10.4801    0.0000 H   0  0  0  0  0  0  0  0  0  0  0  0
  -14.5622   -4.1552    0.0000 H   0  0  0  0  0  0  0  0  0  0  0  0
  -12.7466   -4.0991    0.0000 H   0  0  0  0  0  0  0  0  0  0  0  0
  -13.3420   -8.3696    0.0000 H   0  0  0  0  0  0  0  0  0  0  0  0
  -14.1796   -6.7940    0.0000 H   0  0  0  0  0  0  0  0  0  0  0  0
  -10.2045   -8.6036    0.0000 H   0  0  0  0  0  0  0  0  0  0  0  0
  -10.7842   -6.7644    0.0000 H   0  0  0  0  0  0  0  0  0  0  0  0
  -11.8368   -2.7650    0.0000 H   0  0  0  0  0  0  0  0  0  0  0  0
   -8.9895   -4.6725    0.0000 H   0  0  0  0  0  0  0  0  0  0  0  0
   -9.8904   -0.3547    0.0000 H   0  0  0  0  0  0  0  0  0  0  0  0
   -8.4469   -1.4038    0.0000 H   0  0  0  0  0  0  0  0  0  0  0  0
  -11.7266   -3.2475    0.0000 H   0  0  0  0  0  0  0  0  0  0  0  0
  -13.5479   -0.2106    0.0000 H   0  0  0  0  0  0  0  0  0  0  0  0
  -12.2641    1.0288    0.0000 H   0  0  0  0  0  0  0  0  0  0  0  0
  -10.7035    0.1635    0.0000 H   0  0  0  0  0  0  0  0  0  0  0  0
  -13.3077   -3.6538    0.0000 H   0  0  0  0  0  0  0  0  0  0  0  0
  -14.3053   -2.1743    0.0000 H   0  0  0  0  0  0  0  0  0  0  0  0
  -13.1821   -0.7876    0.0000 H   0  0  0  0  0  0  0  0  0  0  0  0
   -7.7299   -0.7496    0.0000 H   0  0  0  0  0  0  0  0  0  0  0  0
   -5.1596   -4.6437    0.0000 H   0  0  0  0  0  0  0  0  0  0  0  0
   -5.9726   -3.6822    0.0000 H   0  0  0  0  0  0  0  0  0  0  0  0
   -3.8177   -5.7870    0.0000 H   0  0  0  0  0  0  0  0  0  0  0  0
   -4.7980   -4.9968    0.0000 H   0  0  0  0  0  0  0  0  0  0  0  0
   -2.2837   -6.6557    0.0000 H   0  0  0  0  0  0  0  0  0  0  0  0
   -3.3959   -6.0653    0.0000 H   0  0  0  0  0  0  0  0  0  0  0  0
   -0.6130   -7.2184    0.0000 H   0  0  0  0  0  0  0  0  0  0  0  0
   -1.8168   -6.8492    0.0000 H   0  0  0  0  0  0  0  0  0  0  0  0
    1.1339   -7.4548    0.0000 H   0  0  0  0  0  0  0  0  0  0  0  0
   -0.1180   -7.3201    0.0000 H   0  0  0  0  0  0  0  0  0  0  0  0
    3.0476   -7.2563    0.0000 H   0  0  0  0  0  0  0  0  0  0  0  0
    1.6393   -7.4609    0.0000 H   0  0  0  0  0  0  0  0  0  0  0  0
    4.0350   -7.2299    0.0000 H   0  0  0  0  0  0  0  0  0  0  0  0
   -7.5350   -3.7163    0.0000 H   0  0  0  0  0  0  0  0  0  0  0  0
   -6.1442   -4.8447    0.0000 H   0  0  0  0  0  0  0  0  0  0  0  0
   -4.8746   -4.2138    0.0000 H   0  0  0  0  0  0  0  0  0  0  0  0
   -7.7768    0.4068    0.0000 H   0  0  0  0  0  0  0  0  0  0  0  0
   -7.4885    3.2895    0.0000 H   0  0  0  0  0  0  0  0  0  0  0  0
   -8.8225    0.5758    0.0000 H   0  0  0  0  0  0  0  0  0  0  0  0
   -7.0777    0.2017    0.0000 H   0  0  0  0  0  0  0  0  0  0  0  0
  -10.4443    2.6553    0.0000 H   0  0  0  0  0  0  0  0  0  0  0  0
   -9.5271    0.9590    0.0000 H   0  0  0  0  0  0  0  0  0  0  0  0
   -8.3810    5.2478    0.0000 H   0  0  0  0  0  0  0  0  0  0  0  0
   -7.4638    3.5515    0.0000 H   0  0  0  0  0  0  0  0  0  0  0  0
  -11.5302    3.9256    0.0000 H   0  0  0  0  0  0  0  0  0  0  0  0
  -11.4047    8.4238    0.0000 H   0  0  0  0  0  0  0  0  0  0  0  0
  -12.7660    6.2109    0.0000 H   0  0  0  0  0  0  0  0  0  0  0  0
   -8.9907    8.3453    0.0000 H   0  0  0  0  0  0  0  0  0  0  0  0
   -7.8000    5.7802    0.0000 H   0  0  0  0  0  0  0  0  0  0  0  0
   -7.1102    5.4669    0.0000 H   0  0  0  0  0  0  0  0  0  0  0  0
   -5.4362    7.8551    0.0000 H   0  0  0  0  0  0  0  0  0  0  0  0
   -7.8133    6.1726    0.0000 H   0  0  0  0  0  0  0  0  0  0  0  0
   -6.5864    5.0937    0.0000 H   0  0  0  0  0  0  0  0  0  0  0  0
   -8.4898    8.2244    0.0000 H   0  0  0  0  0  0  0  0  0  0  0  0
   -3.6322    9.6645    0.0000 H   0  0  0  0  0  0  0  0  0  0  0  0
   -1.0677   10.6446    0.0000 H   0  0  0  0  0  0  0  0  0  0  0  0
   -3.9128   10.6859    0.0000 H   0  0  0  0  0  0  0  0  0  0  0  0
   -3.5283    8.9434    0.0000 H   0  0  0  0  0  0  0  0  0  0  0  0
    0.3208   11.3968    0.0000 H   0  0  0  0  0  0  0  0  0  0  0  0
    0.5879   14.2214    0.0000 H   0  0  0  0  0  0  0  0  0  0  0  0
   -1.8063   16.0291    0.0000 H   0  0  0  0  0  0  0  0  0  0  0  0
   -4.5689   14.8594    0.0000 H   0  0  0  0  0  0  0  0  0  0  0  0
   -4.9373   11.8821    0.0000 H   0  0  0  0  0  0  0  0  0  0  0  0
    1.4282   11.1914    0.0000 H   0  0  0  0  0  0  0  0  0  0  0  0
    4.1154   10.6295    0.0000 H   0  0  0  0  0  0  0  0  0  0  0  0
    1.7443   12.2024    0.0000 H   0  0  0  0  0  0  0  0  0  0  0  0
    1.1257   10.5286    0.0000 H   0  0  0  0  0  0  0  0  0  0  0  0
    5.6901   10.5116    0.0000 H   0  0  0  0  0  0  0  0  0  0  0  0
    7.4420   12.7434    0.0000 H   0  0  0  0  0  0  0  0  0  0  0  0
    6.4051   15.5585    0.0000 H   0  0  0  0  0  0  0  0  0  0  0  0
    3.4487   16.0682    0.0000 H   0  0  0  0  0  0  0  0  0  0  0  0
    1.5292   13.7626    0.0000 H   0  0  0  0  0  0  0  0  0  0  0  0
    6.5107    9.7401    0.0000 H   0  0  0  0  0  0  0  0  0  0  0  0
    8.4676    7.8146    0.0000 H   0  0  0  0  0  0  0  0  0  0  0  0
    7.3232   10.4197    0.0000 H   0  0  0  0  0  0  0  0  0  0  0  0
    5.8979    9.3461    0.0000 H   0  0  0  0  0  0  0  0  0  0  0  0
    9.0916   10.8351    0.0000 H   0  0  0  0  0  0  0  0  0  0  0  0
   10.0018    5.7714    0.0000 H   0  0  0  0  0  0  0  0  0  0  0  0
   10.5373    2.9242    0.0000 H   0  0  0  0  0  0  0  0  0  0  0  0
   10.8921    5.9919    0.0000 H   0  0  0  0  0  0  0  0  0  0  0  0
    9.2733    5.7712    0.0000 H   0  0  0  0  0  0  0  0  0  0  0  0
   11.4078    2.7696    0.0000 H   0  0  0  0  0  0  0  0  0  0  0  0
   14.2495    5.0824    0.0000 H   0  0  0  0  0  0  0  0  0  0  0  0
   13.4044    6.6541    0.0000 H   0  0  0  0  0  0  0  0  0  0  0  0
   11.6544    6.3055    0.0000 H   0  0  0  0  0  0  0  0  0  0  0  0
   14.3536    3.8331    0.0000 H   0  0  0  0  0  0  0  0  0  0  0  0
   13.7804    2.1433    0.0000 H   0  0  0  0  0  0  0  0  0  0  0  0
   11.8601    2.3192    0.0000 H   0  0  0  0  0  0  0  0  0  0  0  0
   10.7930    0.5453    0.0000 H   0  0  0  0  0  0  0  0  0  0  0  0
    9.7753   -2.3695    0.0000 H   0  0  0  0  0  0  0  0  0  0  0  0
    8.9756   -3.5466    0.0000 H   0  0  0  0  0  0  0  0  0  0  0  0
    8.7711   -4.0322    0.0000 H   0  0  0  0  0  0  0  0  0  0  0  0
    7.9986   -4.8020    0.0000 H   0  0  0  0  0  0  0  0  0  0  0  0
    7.6287   -5.1463    0.0000 H   0  0  0  0  0  0  0  0  0  0  0  0
    6.4488   -5.9419    0.0000 H   0  0  0  0  0  0  0  0  0  0  0  0
    5.7002   -6.5864    0.0000 H   0  0  0  0  0  0  0  0  0  0  0  0
    9.6898   -3.5508    0.0000 H   0  0  0  0  0  0  0  0  0  0  0  0
   11.0128   -2.9529    0.0000 H   0  0  0  0  0  0  0  0  0  0  0  0
   11.0666   -1.1506    0.0000 H   0  0  0  0  0  0  0  0  0  0  0  0
   11.1089   -3.1330    0.0000 H   0  0  0  0  0  0  0  0  0  0  0  0
   12.2983    0.0429    0.0000 H   0  0  0  0  0  0  0  0  0  0  0  0
   15.0554    0.6308    0.0000 H   0  0  0  0  0  0  0  0  0  0  0  0
   13.1283    0.5623    0.0000 H   0  0  0  0  0  0  0  0  0  0  0  0
   11.9360   -4.2013    0.0000 H   0  0  0  0  0  0  0  0  0  0  0  0
   15.3301   -3.8199    0.0000 H   0  0  0  0  0  0  0  0  0  0  0  0
   17.2179   -5.9136    0.0000 H   0  0  0  0  0  0  0  0  0  0  0  0
   16.1949   -4.2789    0.0000 H   0  0  0  0  0  0  0  0  0  0  0  0
   15.3231   -8.6318    0.0000 H   0  0  0  0  0  0  0  0  0  0  0  0
   14.3765   -7.7190    0.0000 H   0  0  0  0  0  0  0  0  0  0  0  0
   18.4888  -10.1106    0.0000 H   0  0  0  0  0  0  0  0  0  0  0  0
   16.2805  -10.6701    0.0000 H   0  0  0  0  0  0  0  0  0  0  0  0
   16.4484   -7.5949    0.0000 H   0  0  0  0  0  0  0  0  0  0  0  0
   13.1618   -8.2670    0.0000 H   0  0  0  0  0  0  0  0  0  0  0  0
   12.7028   -8.9248    0.0000 H   0  0  0  0  0  0  0  0  0  0  0  0
   13.3551  -12.8297    0.0000 H   0  0  0  0  0  0  0  0  0  0  0  0
   15.1313  -12.6574    0.0000 H   0  0  0  0  0  0  0  0  0  0  0  0
   15.6231  -11.4379    0.0000 H   0  0  0  0  0  0  0  0  0  0  0  0
   11.3697  -12.1313    0.0000 H   0  0  0  0  0  0  0  0  0  0  0  0
   13.1536  -12.1769    0.0000 H   0  0  0  0  0  0  0  0  0  0  0  0
    9.6960  -11.0411    0.0000 H   0  0  0  0  0  0  0  0  0  0  0  0
    9.9631   -9.1313    0.0000 H   0  0  0  0  0  0  0  0  0  0  0  0
   11.7392   -8.9591    0.0000 H   0  0  0  0  0  0  0  0  0  0  0  0
  1  2  1  0
  2  3  1  0
  3  4  1  0
  4  5  2  0
  4  6  1  0
  6  7  1  0
  7  8  1  0
  8  9  1  0
  9 10  1  0
  9 11  2  0
  7 12  1  0
 12 13  2  0
 12 14  1  0
 14 15  1  0
 15 16  1  0
 16 17  1  0
 17 18  1  0
 18 19  2  0
 18 20  1  0
 15 21  1  0
 21 22  2  0
 21 23  1  0
 23 24  1  0
 24 25  1  0
 25 26  1  0
 26 27  1  0
 26 28  1  0
 24 29  1  0
 29 30  2  0
 29 31  1  0
 32 31  1  1
 32 33  1  0
 33 34  1  0
 34 35  1  0
 35 36  1  0
 36 37  1  0
 37 38  1  0
 38 39  1  0
 32 40  1  0
 32 41  1  0
 41 42  2  0
 41 43  1  0
 43 44  1  0
 44 45  1  0
 45 46  1  0
 46 47  1  0
 47 48  1  0
 48 49  1  0
 49 50  2  3
 49 51  1  0
 44 52  1  0
 52 53  2  0
 52 54  1  0
 54 55  1  0
 55 56  1  0
 56 57  1  0
 55 58  1  0
 58 59  2  0
 58 60  1  0
 60 61  1  0
 61 62  1  0
 62 63  1  0
 63 64  2  0
 64 65  1  0
 65 66  2  0
 66 67  1  0
 67 68  2  0
 61 69  1  0
 69 70  2  0
 69 71  1  0
 71 72  1  0
 72 73  1  0
 73 74  1  0
 74 75  2  0
 75 76  1  0
 76 77  2  0
 77 78  1  0
 78 79  2  0
 72 80  1  0
 80 81  2  0
 80 82  1  0
 82 83  1  0
 83 84  1  0
 84 85  1  0
 83 86  1  0
 86 87  2  0
 86 88  1  0
 88 89  1  0
 89 90  1  0
 90 91  1  0
 91 92  1  0
 91 93  1  0
 89 94  1  0
 94 95  2  0
 94 96  1  0
 96 97  1  0
 97 98  1  0
 98 99  1  0
 99100  1  0
100101  1  0
 97102  1  0
 97103  1  6
103104  2  0
103105  1  0
105106  1  0
106107  1  0
107108  1  0
108109  2  0
108110  1  0
106111  1  0
111112  2  0
111113  1  0
113114  1  0
114115  1  0
115116  1  0
116117  1  0
117118  1  0
117119  2  0
114120  1  0
120121  2  0
120122  1  0
122123  1  0
123124  1  0
124125  1  0
124126  1  0
126127  1  0
123128  1  0
128129  2  0
128130  1  0
 68 63  1  0
 79 74  1  0
 39101  2  0
  1131  1  0
  1132  1  0
  2133  1  0
  2134  1  0
  3135  1  0
  3136  1  0
  6137  1  0
  7138  1  6
  8139  1  0
  8140  1  0
 10141  1  0
 10142  1  0
 14143  1  0
 15144  1  6
 16145  1  0
 16146  1  0
 17147  1  0
 17148  1  0
 23149  1  0
 24150  1  1
 25151  1  0
 25152  1  0
 26153  1  0
 27154  1  0
 27155  1  0
 27156  1  0
 28157  1  0
 28158  1  0
 28159  1  0
 31160  1  0
 33161  1  0
 33162  1  0
 34163  1  0
 34164  1  0
 35165  1  0
 35166  1  0
 36167  1  0
 36168  1  0
 37169  1  0
 37170  1  0
 38171  1  0
 38172  1  0
 39173  1  0
 40174  1  0
 40175  1  0
 40176  1  0
 43177  1  0
 44178  1  1
 45179  1  0
 45180  1  0
 46181  1  0
 46182  1  0
 47183  1  0
 47184  1  0
 48185  1  0
 50186  1  0
 50187  1  0
 51188  1  0
 51189  1  0
 54190  1  0
 55191  1  1
 56192  1  0
 56193  1  0
 57194  1  0
 60195  1  0
 61196  1  1
 62197  1  0
 62198  1  0
 64199  1  0
 65200  1  0
 66201  1  0
 67202  1  0
 68203  1  0
 71204  1  0
 72205  1  1
 73206  1  0
 73207  1  0
 75208  1  0
 76209  1  0
 77210  1  0
 78211  1  0
 79212  1  0
 82213  1  0
 83214  1  1
 84215  1  0
 84216  1  0
 85217  1  0
 88218  1  0
 89219  1  1
 90220  1  0
 90221  1  0
 91222  1  0
 92223  1  0
 92224  1  0
 92225  1  0
 93226  1  0
 93227  1  0
 93228  1  0
 96229  1  0
 98230  1  0
 98231  1  0
 99232  1  0
 99233  1  0
100234  1  0
100235  1  0
101236  1  0
102237  1  0
102238  1  0
102239  1  0
105240  1  0
106241  1  1
107242  1  0
107243  1  0
113244  1  0
114245  1  1
115246  1  0
115247  1  0
116248  1  0
116249  1  0
118250  1  0
118251  1  0
122252  1  0
123253  1  6
124254  1  6
125255  1  0
125256  1  0
125257  1  0
126258  1  0
126259  1  0
127260  1  0
127261  1  0
127262  1  0
M  CHG  4  20  -1  50   1 110  -1 130  -1
M  END
