
     RDKit          2D

310317  0  0  0  0  0  0  0  0999 V2000
   21.9248   -1.4580    0.0000 C   0  0  0  0  0  0  0  0  0  0  0  0
   22.9682   -0.3803    0.0000 N   0  0  0  0  0  0  0  0  0  0  0  0
   24.4232   -0.7449    0.0000 C   0  0  0  0  0  0  0  0  0  0  0  0
   24.8348   -2.1873    0.0000 C   0  0  0  0  0  0  0  0  0  0  0  0
   26.2898   -2.5520    0.0000 C   0  0  0  0  0  0  0  0  0  0  0  0
   27.3331   -1.4743    0.0000 C   0  0  0  0  0  0  0  0  0  0  0  0
   26.9215   -0.0319    0.0000 C   0  0  0  0  0  0  0  0  0  0  0  0
   25.4665    0.3328    0.0000 C   0  0  0  0  0  0  0  0  0  0  0  0
   28.1661    0.8054    0.0000 C   0  0  0  0  0  0  0  0  0  0  0  0
   29.3469   -0.1196    0.0000 O   0  0  0  0  0  0  0  0  0  0  0  0
   28.8322   -1.5285    0.0000 C   0  0  0  0  0  0  0  0  0  0  0  0
   29.6694   -2.7731    0.0000 O   0  0  0  0  0  0  0  0  0  0  0  0
   29.4913    1.5080    0.0000 C   0  0  0  0  0  0  0  0  0  0  0  0
   29.5455    3.0070    0.0000 C   0  0  0  0  0  0  0  0  0  0  0  0
   30.8708    3.7095    0.0000 C   0  0  0  0  0  0  0  0  0  0  0  0
   32.1419    2.9131    0.0000 C   0  0  0  0  0  0  0  0  0  0  0  0
   32.0877    1.4141    0.0000 C   0  0  0  0  0  0  0  0  0  0  0  0
   30.7624    0.7115    0.0000 C   0  0  0  0  0  0  0  0  0  0  0  0
   33.4672    3.6157    0.0000 O   0  0  0  0  0  0  0  0  0  0  0  0
   28.2744    3.8034    0.0000 O   0  0  0  0  0  0  0  0  0  0  0  0
   26.9492    3.1008    0.0000 C   0  0  0  0  0  0  0  0  0  0  0  0
   26.8950    1.6018    0.0000 C   0  0  0  0  0  0  0  0  0  0  0  0
   25.5950    1.5988    0.0000 C   0  0  0  0  0  0  0  0  0  0  0  0
   24.9170    2.0236    0.0000 C   0  0  0  0  0  0  0  0  0  0  0  0
   24.9460    2.8230    0.0000 C   0  0  0  0  0  0  0  0  0  0  0  0
   25.6528    3.1977    0.0000 C   0  0  0  0  0  0  0  0  0  0  0  0
   23.0817    3.9911    0.0000 O   0  0  0  0  0  0  0  0  0  0  0  0
   22.3365   -2.9004    0.0000 S   0  0  0  0  0  0  0  0  0  0  0  0
   20.4699   -1.0933    0.0000 N   0  0  0  0  0  0  0  0  0  0  0  0
   19.4265   -2.1710    0.0000 C   0  0  0  0  0  0  0  0  0  0  0  0
   17.9715   -1.8064    0.0000 C   0  0  0  0  0  0  0  0  0  0  0  0
   16.9282   -2.8841    0.0000 C   0  0  0  0  0  0  0  0  0  0  0  0
   17.3260   -3.5749    0.0000 O   0  0  0  0  0  0  0  0  0  0  0  0
   15.4732   -2.5194    0.0000 N   0  0  0  0  0  0  0  0  0  0  0  0
   14.4299   -3.5972    0.0000 C   0  0  0  0  0  0  0  0  0  0  0  0
   15.6724   -4.4375    0.0000 C   0  0  0  0  0  0  0  0  0  0  0  0
   17.0214   -3.7816    0.0000 C   0  0  0  0  0  0  0  0  0  0  0  0
   18.2640   -4.6219    0.0000 N   0  0  0  0  0  0  0  0  0  0  0  0
   17.4868   -2.3556    0.0000 O   0  0  0  0  0  0  0  0  0  0  0  0
   13.0809   -4.2531    0.0000 C   0  0  0  0  0  0  0  0  0  0  0  0
   13.3397   -5.7306    0.0000 O   0  0  0  0  0  0  0  0  0  0  0  0
   11.8384   -3.4127    0.0000 N   0  0  0  0  0  0  0  0  0  0  0  0
   10.4894   -4.0686    0.0000 C   0  0  0  0  0  0  0  0  0  0  0  0
   11.3696   -5.2832    0.0000 C   0  0  0  0  0  0  0  0  0  0  0  0
   12.8616   -5.1283    0.0000 C   0  0  0  0  0  0  0  0  0  0  0  0
   13.7417   -6.3429    0.0000 C   0  0  0  0  0  0  0  0  0  0  0  0
   15.2415   -6.3710    0.0000 O   0  0  0  0  0  0  0  0  0  0  0  0
   13.1299   -7.7125    0.0000 O   0  0  0  0  0  0  0  0  0  0  0  0
    8.9974   -4.2236    0.0000 C   0  0  0  0  0  0  0  0  0  0  0  0
    8.7352   -5.7005    0.0000 O   0  0  0  0  0  0  0  0  0  0  0  0
    8.1172   -3.0090    0.0000 N   0  0  0  0  0  0  0  0  0  0  0  0
    6.6253   -3.1639    0.0000 C   0  0  0  0  0  0  0  0  0  0  0  0
    7.0369   -4.6063    0.0000 C   0  0  0  0  0  0  0  0  0  0  0  0
    8.4919   -4.9710    0.0000 C   0  0  0  0  0  0  0  0  0  0  0  0
    8.9036   -6.4134    0.0000 C   0  0  0  0  0  0  0  0  0  0  0  0
    9.9839   -4.8161    0.0000 C   0  0  0  0  0  0  0  0  0  0  0  0
    5.1703   -2.7993    0.0000 C   0  0  0  0  0  0  0  0  0  0  0  0
    4.4187   -4.0974    0.0000 O   0  0  0  0  0  0  0  0  0  0  0  0
    4.7586   -1.3569    0.0000 N   0  0  0  0  0  0  0  0  0  0  0  0
    3.3036   -0.9922    0.0000 C   0  0  0  0  0  0  0  0  0  0  0  0
    3.1971   -2.4884    0.0000 C   0  0  0  0  0  0  0  0  0  0  0  0
    4.4396   -3.3287    0.0000 C   0  0  0  0  0  0  0  0  0  0  0  0
    4.3332   -4.8249    0.0000 C   0  0  0  0  0  0  0  0  0  0  0  0
    5.5757   -5.6653    0.0000 C   0  0  0  0  0  0  0  0  0  0  0  0
    5.4692   -7.1615    0.0000 N   0  0  0  0  0  0  0  0  0  0  0  0
    2.0611   -0.1519    0.0000 C   0  0  0  0  0  0  0  0  0  0  0  0
    0.9109   -1.1147    0.0000 O   0  0  0  0  0  0  0  0  0  0  0  0
    2.1675    1.3443    0.0000 N   0  0  0  0  0  0  0  0  0  0  0  0
    0.9250    2.1847    0.0000 C   0  0  0  0  0  0  0  0  0  0  0  0
    0.7239    0.6982    0.0000 C   0  0  0  0  0  0  0  0  0  0  0  0
    0.2450   -0.7233    0.0000 C   0  0  0  0  0  0  0  0  0  0  0  0
   -0.4942   -2.0285    0.0000 C   0  0  0  0  0  0  0  0  0  0  0  0
   -1.4670   -3.1702    0.0000 C   0  0  0  0  0  0  0  0  0  0  0  0
   -2.6384   -4.1072    0.0000 C   0  0  0  0  0  0  0  0  0  0  0  0
   -3.9659   -4.8056    0.0000 C   0  0  0  0  0  0  0  0  0  0  0  0
   -5.4016   -5.2401    0.0000 C   0  0  0  0  0  0  0  0  0  0  0  0
    2.2297    2.9248    0.0000 C   0  0  0  0  0  0  0  0  0  0  0  0
    0.8412    3.6823    0.0000 C   0  0  0  0  0  0  0  0  0  0  0  0
    2.2856    4.0872    0.0000 O   0  0  0  0  0  0  0  0  0  0  0  0
    0.4755    5.1371    0.0000 N   0  0  0  0  0  0  0  0  0  0  0  0
   -0.1589    6.4963    0.0000 C   0  0  0  0  0  0  0  0  0  0  0  0
    0.5385    7.8243    0.0000 C   0  0  0  0  0  0  0  0  0  0  0  0
    2.0373    7.8843    0.0000 O   0  0  0  0  0  0  0  0  0  0  0  0
   -1.0391    7.7109    0.0000 C   0  0  0  0  0  0  0  0  0  0  0  0
   -0.0429    8.8323    0.0000 O   0  0  0  0  0  0  0  0  0  0  0  0
   -2.1332    8.7370    0.0000 N   0  0  0  0  0  0  0  0  0  0  0  0
   -3.4018    9.5375    0.0000 C   0  0  0  0  0  0  0  0  0  0  0  0
   -3.5331   11.0317    0.0000 C   0  0  0  0  0  0  0  0  0  0  0  0
   -2.3046   11.8925    0.0000 C   0  0  0  0  0  0  0  0  0  0  0  0
   -0.9449   11.2591    0.0000 C   0  0  0  0  0  0  0  0  0  0  0  0
    0.2835   12.1199    0.0000 C   0  0  0  0  0  0  0  0  0  0  0  0
    0.1522   13.6141    0.0000 C   0  0  0  0  0  0  0  0  0  0  0  0
   -1.2075   14.2476    0.0000 C   0  0  0  0  0  0  0  0  0  0  0  0
   -2.4359   13.3868    0.0000 C   0  0  0  0  0  0  0  0  0  0  0  0
   -4.7989   10.0834    0.0000 C   0  0  0  0  0  0  0  0  0  0  0  0
   -4.5672   11.5654    0.0000 O   0  0  0  0  0  0  0  0  0  0  0  0
   -6.2741   10.3550    0.0000 N   0  0  0  0  0  0  0  0  0  0  0  0
   -7.7741   10.3426    0.0000 C   0  0  0  0  0  0  0  0  0  0  0  0
   -8.6923   11.5287    0.0000 C   0  0  0  0  0  0  0  0  0  0  0  0
   -8.1243   12.9170    0.0000 C   0  0  0  0  0  0  0  0  0  0  0  0
   -6.6380   13.1192    0.0000 C   0  0  0  0  0  0  0  0  0  0  0  0
   -6.0700   14.5075    0.0000 C   0  0  0  0  0  0  0  0  0  0  0  0
   -6.9882   15.6935    0.0000 C   0  0  0  0  0  0  0  0  0  0  0  0
   -8.4746   15.4913    0.0000 C   0  0  0  0  0  0  0  0  0  0  0  0
   -9.0426   14.1030    0.0000 C   0  0  0  0  0  0  0  0  0  0  0  0
   -9.2445   10.0465    0.0000 C   0  0  0  0  0  0  0  0  0  0  0  0
   -9.8508   11.4186    0.0000 O   0  0  0  0  0  0  0  0  0  0  0  0
  -10.6324    9.4775    0.0000 N   0  0  0  0  0  0  0  0  0  0  0  0
  -11.8875    8.6561    0.0000 C   0  0  0  0  0  0  0  0  0  0  0  0
  -13.3013    9.1575    0.0000 C   0  0  0  0  0  0  0  0  0  0  0  0
  -12.9645    7.6120    0.0000 C   0  0  0  0  0  0  0  0  0  0  0  0
  -14.2163    8.4385    0.0000 O   0  0  0  0  0  0  0  0  0  0  0  0
  -13.8245    6.3830    0.0000 N   0  0  0  0  0  0  0  0  0  0  0  0
  -14.4362    5.0134    0.0000 C   0  0  0  0  0  0  0  0  0  0  0  0
  -15.8966    4.6709    0.0000 C   0  0  0  0  0  0  0  0  0  0  0  0
  -16.9235    5.7643    0.0000 C   0  0  0  0  0  0  0  0  0  0  0  0
  -18.3838    5.4217    0.0000 C   0  0  0  0  0  0  0  0  0  0  0  0
  -17.5144    7.1430    0.0000 C   0  0  0  0  0  0  0  0  0  0  0  0
  -14.7778    3.5528    0.0000 C   0  0  0  0  0  0  0  0  0  0  0  0
  -16.2777    3.5713    0.0000 O   0  0  0  0  0  0  0  0  0  0  0  0
  -14.8367    2.0540    0.0000 N   0  0  0  0  0  0  0  0  0  0  0  0
  -14.6110    0.5711    0.0000 C   0  0  0  0  0  0  0  0  0  0  0  0
  -15.6543   -0.5066    0.0000 C   0  0  0  0  0  0  0  0  0  0  0  0
  -17.1093   -0.1420    0.0000 C   0  0  0  0  0  0  0  0  0  0  0  0
  -18.1526   -1.2197    0.0000 C   0  0  0  0  0  0  0  0  0  0  0  0
  -19.6076   -0.8550    0.0000 N   0  0  0  0  0  0  0  0  0  0  0  0
  -20.6509   -1.9327    0.0000 C   0  0  0  0  0  0  0  0  0  0  0  0
  -22.1059   -1.5681    0.0000 N   0  0  0  0  0  0  0  0  0  0  0  0
  -20.2392   -3.3751    0.0000 N   0  0  0  0  0  0  0  0  0  0  0  0
  -14.1086   -0.8423    0.0000 C   0  0  0  0  0  0  0  0  0  0  0  0
  -15.3804   -1.6377    0.0000 O   0  0  0  0  0  0  0  0  0  0  0  0
  -13.3479   -2.1351    0.0000 N   0  0  0  0  0  0  0  0  0  0  0  0
  -12.3562   -3.2605    0.0000 C   0  0  0  0  0  0  0  0  0  0  0  0
  -11.1695   -4.1779    0.0000 C   0  0  0  0  0  0  0  0  0  0  0  0
   -9.8306   -4.8542    0.0000 C   0  0  0  0  0  0  0  0  0  0  0  0
   -8.3879   -5.2649    0.0000 C   0  0  0  0  0  0  0  0  0  0  0  0
   -6.8936   -5.3951    0.0000 C   0  0  0  0  0  0  0  0  0  0  0  0
  -13.8050   -3.6493    0.0000 C   0  0  0  0  0  0  0  0  0  0  0  0
  -12.6513   -4.7312    0.0000 C   0  0  0  0  0  0  0  0  0  0  0  0
  -11.7983   -5.9651    0.0000 O   0  0  0  0  0  0  0  0  0  0  0  0
  -14.0724   -5.2111    0.0000 N   0  0  0  0  0  0  0  0  0  0  0  0
  -14.3675   -6.6818    0.0000 C   0  0  0  0  0  0  0  0  0  0  0  0
  -14.1417   -8.1647    0.0000 C   0  0  0  0  0  0  0  0  0  0  0  0
  -15.3130   -9.1017    0.0000 C   0  0  0  0  0  0  0  0  0  0  0  0
  -15.0873  -10.5846    0.0000 C   0  0  0  0  0  0  0  0  0  0  0  0
  -16.1357  -11.6573    0.0000 N   0  0  0  0  0  0  0  0  0  0  0  0
  -13.6901  -11.1305    0.0000 O   0  0  0  0  0  0  0  0  0  0  0  0
  -15.7886   -7.1616    0.0000 C   0  0  0  0  0  0  0  0  0  0  0  0
  -16.9148   -6.1708    0.0000 O   0  0  0  0  0  0  0  0  0  0  0  0
  -16.0837   -8.6323    0.0000 N   0  0  0  0  0  0  0  0  0  0  0  0
  -17.5048   -9.1122    0.0000 C   0  0  0  0  0  0  0  0  0  0  0  0
  -19.0044   -9.0770    0.0000 C   0  0  0  0  0  0  0  0  0  0  0  0
  -19.5580   -7.6829    0.0000 C   0  0  0  0  0  0  0  0  0  0  0  0
  -20.4256   -9.5568    0.0000 C   0  0  0  0  0  0  0  0  0  0  0  0
  -21.5518   -8.5660    0.0000 C   0  0  0  0  0  0  0  0  0  0  0  0
  -17.7999  -10.5829    0.0000 C   0  0  0  0  0  0  0  0  0  0  0  0
  -19.0627  -11.3923    0.0000 O   0  0  0  0  0  0  0  0  0  0  0  0
  -16.8029  -11.7036    0.0000 O   0  0  0  0  0  0  0  0  0  0  0  0
   22.3837    1.0012    0.0000 H   0  0  0  0  0  0  0  0  0  0  0  0
   23.7915   -3.2651    0.0000 H   0  0  0  0  0  0  0  0  0  0  0  0
   26.7015   -3.9944    0.0000 H   0  0  0  0  0  0  0  0  0  0  0  0
   24.7180    1.6327    0.0000 H   0  0  0  0  0  0  0  0  0  0  0  0
   30.9250    5.2086    0.0000 H   0  0  0  0  0  0  0  0  0  0  0  0
   33.3588    0.6176    0.0000 H   0  0  0  0  0  0  0  0  0  0  0  0
   30.7082   -0.7875    0.0000 H   0  0  0  0  0  0  0  0  0  0  0  0
   34.7383    2.8192    0.0000 H   0  0  0  0  0  0  0  0  0  0  0  0
   25.5155   -0.5998    0.0000 H   0  0  0  0  0  0  0  0  0  0  0  0
   22.8975    1.1599    0.0000 H   0  0  0  0  0  0  0  0  0  0  0  0
   25.7323    5.3963    0.0000 H   0  0  0  0  0  0  0  0  0  0  0  0
   23.1359    5.4902    0.0000 H   0  0  0  0  0  0  0  0  0  0  0  0
   20.0582    0.3491    0.0000 H   0  0  0  0  0  0  0  0  0  0  0  0
   20.6691   -3.0114    0.0000 H   0  0  0  0  0  0  0  0  0  0  0  0
   18.9863   -3.6050    0.0000 H   0  0  0  0  0  0  0  0  0  0  0  0
   18.5833   -0.4368    0.0000 H   0  0  0  0  0  0  0  0  0  0  0  0
   16.7290   -0.9661    0.0000 H   0  0  0  0  0  0  0  0  0  0  0  0
   15.0615   -1.0770    0.0000 H   0  0  0  0  0  0  0  0  0  0  0  0
   13.5497   -2.3825    0.0000 H   0  0  0  0  0  0  0  0  0  0  0  0
   16.5526   -5.6521    0.0000 H   0  0  0  0  0  0  0  0  0  0  0  0
   14.7683   -5.6343    0.0000 H   0  0  0  0  0  0  0  0  0  0  0  0
   19.6829   -4.1353    0.0000 H   0  0  0  0  0  0  0  0  0  0  0  0
   18.1575   -6.1181    0.0000 H   0  0  0  0  0  0  0  0  0  0  0  0
   11.9449   -1.9165    0.0000 H   0  0  0  0  0  0  0  0  0  0  0  0
   10.2566   -2.5868    0.0000 H   0  0  0  0  0  0  0  0  0  0  0  0
   11.7813   -6.7256    0.0000 H   0  0  0  0  0  0  0  0  0  0  0  0
   10.2194   -6.2461    0.0000 H   0  0  0  0  0  0  0  0  0  0  0  0
   14.2106   -4.4724    0.0000 H   0  0  0  0  0  0  0  0  0  0  0  0
   12.8111   -3.6291    0.0000 H   0  0  0  0  0  0  0  0  0  0  0  0
   14.0101   -8.9271    0.0000 H   0  0  0  0  0  0  0  0  0  0  0  0
    8.7290   -1.6394    0.0000 H   0  0  0  0  0  0  0  0  0  0  0  0
    6.7317   -1.6677    0.0000 H   0  0  0  0  0  0  0  0  0  0  0  0
    6.9305   -6.1026    0.0000 H   0  0  0  0  0  0  0  0  0  0  0  0
    5.5372   -4.5783    0.0000 H   0  0  0  0  0  0  0  0  0  0  0  0
    8.9573   -3.5450    0.0000 H   0  0  0  0  0  0  0  0  0  0  0  0
   10.2271   -7.1193    0.0000 H   0  0  0  0  0  0  0  0  0  0  0  0
    8.7971   -7.9096    0.0000 H   0  0  0  0  0  0  0  0  0  0  0  0
    7.4935   -6.9248    0.0000 H   0  0  0  0  0  0  0  0  0  0  0  0
   10.8641   -6.0307    0.0000 H   0  0  0  0  0  0  0  0  0  0  0  0
   11.4515   -4.5061    0.0000 H   0  0  0  0  0  0  0  0  0  0  0  0
    9.3995   -3.4346    0.0000 H   0  0  0  0  0  0  0  0  0  0  0  0
    5.8019   -0.2791    0.0000 H   0  0  0  0  0  0  0  0  0  0  0  0
    3.9154    0.3774    0.0000 H   0  0  0  0  0  0  0  0  0  0  0  0
    2.4229   -3.7732    0.0000 H   0  0  0  0  0  0  0  0  0  0  0  0
    1.7421   -2.1237    0.0000 H   0  0  0  0  0  0  0  0  0  0  0  0
    5.9282   -3.5133    0.0000 H   0  0  0  0  0  0  0  0  0  0  0  0
    5.3646   -2.1479    0.0000 H   0  0  0  0  0  0  0  0  0  0  0  0
    3.7214   -6.1945    0.0000 H   0  0  0  0  0  0  0  0  0  0  0  0
    2.8446   -4.6403    0.0000 H   0  0  0  0  0  0  0  0  0  0  0  0
    6.8992   -6.3712    0.0000 H   0  0  0  0  0  0  0  0  0  0  0  0
    6.1875   -4.2957    0.0000 H   0  0  0  0  0  0  0  0  0  0  0  0
    6.7117   -8.0018    0.0000 H   0  0  0  0  0  0  0  0  0  0  0  0
    4.1202   -7.8174    0.0000 H   0  0  0  0  0  0  0  0  0  0  0  0
    3.5864    1.8309    0.0000 H   0  0  0  0  0  0  0  0  0  0  0  0
    2.2189    0.8199    0.0000 H   0  0  0  0  0  0  0  0  0  0  0  0
    1.6477   -0.4835    0.0000 H   0  0  0  0  0  0  0  0  0  0  0  0
    1.7051   -1.0673    0.0000 H   0  0  0  0  0  0  0  0  0  0  0  0
    1.0862   -1.9652    0.0000 H   0  0  0  0  0  0  0  0  0  0  0  0
    1.0035   -2.1112    0.0000 H   0  0  0  0  0  0  0  0  0  0  0  0
    0.2604   -3.3249    0.0000 H   0  0  0  0  0  0  0  0  0  0  0  0
   -0.0673   -3.7096    0.0000 H   0  0  0  0  0  0  0  0  0  0  0  0
   -0.9714   -4.5860    0.0000 H   0  0  0  0  0  0  0  0  0  0  0  0
   -1.3661   -4.9017    0.0000 H   0  0  0  0  0  0  0  0  0  0  0  0
   -2.4196   -5.5912    0.0000 H   0  0  0  0  0  0  0  0  0  0  0  0
   -2.8669   -5.8265    0.0000 H   0  0  0  0  0  0  0  0  0  0  0  0
   -4.2141   -6.2849    0.0000 H   0  0  0  0  0  0  0  0  0  0  0  0
   -5.1055   -6.7106    0.0000 H   0  0  0  0  0  0  0  0  0  0  0  0
    3.6060    2.3283    0.0000 H   0  0  0  0  0  0  0  0  0  0  0  0
    3.3345    3.9394    0.0000 H   0  0  0  0  0  0  0  0  0  0  0  0
    1.5824    4.2780    0.0000 H   0  0  0  0  0  0  0  0  0  0  0  0
    1.8889    5.6394    0.0000 H   0  0  0  0  0  0  0  0  0  0  0  0
    1.3407    6.4611    0.0000 H   0  0  0  0  0  0  0  0  0  0  0  0
    0.9194    9.2751    0.0000 H   0  0  0  0  0  0  0  0  0  0  0  0
   -0.7376    8.6127    0.0000 H   0  0  0  0  0  0  0  0  0  0  0  0
    2.7347    9.2123    0.0000 H   0  0  0  0  0  0  0  0  0  0  0  0
   -1.0780    9.8030    0.0000 H   0  0  0  0  0  0  0  0  0  0  0  0
   -2.1212   10.3186    0.0000 H   0  0  0  0  0  0  0  0  0  0  0  0
   -3.9970   12.4581    0.0000 H   0  0  0  0  0  0  0  0  0  0  0  0
   -5.0328   11.0051    0.0000 H   0  0  0  0  0  0  0  0  0  0  0  0
   -0.6325    9.7920    0.0000 H   0  0  0  0  0  0  0  0  0  0  0  0
    1.6432   11.4864    0.0000 H   0  0  0  0  0  0  0  0  0  0  0  0
    1.3806   14.4749    0.0000 H   0  0  0  0  0  0  0  0  0  0  0  0
   -1.3387   15.7418    0.0000 H   0  0  0  0  0  0  0  0  0  0  0  0
   -3.7956   14.0202    0.0000 H   0  0  0  0  0  0  0  0  0  0  0  0
   -5.9627   11.8224    0.0000 H   0  0  0  0  0  0  0  0  0  0  0  0
   -7.1191   11.6921    0.0000 H   0  0  0  0  0  0  0  0  0  0  0  0
   -9.8539   12.4778    0.0000 H   0  0  0  0  0  0  0  0  0  0  0  0
   -9.9396   10.6954    0.0000 H   0  0  0  0  0  0  0  0  0  0  0  0
   -5.5820   12.0539    0.0000 H   0  0  0  0  0  0  0  0  0  0  0  0
   -4.5837   14.7097    0.0000 H   0  0  0  0  0  0  0  0  0  0  0  0
   -6.4202   17.0818    0.0000 H   0  0  0  0  0  0  0  0  0  0  0  0
   -9.3928   16.6774    0.0000 H   0  0  0  0  0  0  0  0  0  0  0  0
  -10.5289   13.9008    0.0000 H   0  0  0  0  0  0  0  0  0  0  0  0
  -11.3308   10.8050    0.0000 H   0  0  0  0  0  0  0  0  0  0  0  0
  -12.0661   10.1455    0.0000 H   0  0  0  0  0  0  0  0  0  0  0  0
  -13.5740   10.6325    0.0000 H   0  0  0  0  0  0  0  0  0  0  0  0
  -14.7916    9.3279    0.0000 H   0  0  0  0  0  0  0  0  0  0  0  0
  -13.9001    7.7822    0.0000 H   0  0  0  0  0  0  0  0  0  0  0  0
  -15.0298    7.2758    0.0000 H   0  0  0  0  0  0  0  0  0  0  0  0
  -15.2436    6.2776    0.0000 H   0  0  0  0  0  0  0  0  0  0  0  0
  -17.1517    3.8495    0.0000 H   0  0  0  0  0  0  0  0  0  0  0  0
  -15.6568    3.1902    0.0000 H   0  0  0  0  0  0  0  0  0  0  0  0
  -15.9044    6.8650    0.0000 H   0  0  0  0  0  0  0  0  0  0  0  0
  -19.5363    6.3818    0.0000 H   0  0  0  0  0  0  0  0  0  0  0  0
  -19.6389    4.6003    0.0000 H   0  0  0  0  0  0  0  0  0  0  0  0
  -17.9653    3.9813    0.0000 H   0  0  0  0  0  0  0  0  0  0  0  0
  -18.9711    7.5007    0.0000 H   0  0  0  0  0  0  0  0  0  0  0  0
  -17.5982    8.6406    0.0000 H   0  0  0  0  0  0  0  0  0  0  0  0
  -16.0541    7.4855    0.0000 H   0  0  0  0  0  0  0  0  0  0  0  0
  -16.3334    2.1534    0.0000 H   0  0  0  0  0  0  0  0  0  0  0  0
  -15.9736    1.1981    0.0000 H   0  0  0  0  0  0  0  0  0  0  0  0
  -16.2661   -1.8762    0.0000 H   0  0  0  0  0  0  0  0  0  0  0  0
  -14.6520   -1.6226    0.0000 H   0  0  0  0  0  0  0  0  0  0  0  0
  -18.3518    0.6984    0.0000 H   0  0  0  0  0  0  0  0  0  0  0  0
  -16.8471    1.3349    0.0000 H   0  0  0  0  0  0  0  0  0  0  0  0
  -18.7644   -2.5893    0.0000 H   0  0  0  0  0  0  0  0  0  0  0  0
  -17.0218   -2.2052    0.0000 H   0  0  0  0  0  0  0  0  0  0  0  0
  -20.0193    0.5874    0.0000 H   0  0  0  0  0  0  0  0  0  0  0  0
  -23.1492   -2.6458    0.0000 H   0  0  0  0  0  0  0  0  0  0  0  0
  -21.2825   -4.4529    0.0000 H   0  0  0  0  0  0  0  0  0  0  0  0
  -18.7842   -3.7398    0.0000 H   0  0  0  0  0  0  0  0  0  0  0  0
  -14.6607   -2.8606    0.0000 H   0  0  0  0  0  0  0  0  0  0  0  0
  -11.1809   -5.6779    0.0000 H   0  0  0  0  0  0  0  0  0  0  0  0
  -12.3197   -5.1408    0.0000 H   0  0  0  0  0  0  0  0  0  0  0  0
   -9.7397   -6.3515    0.0000 H   0  0  0  0  0  0  0  0  0  0  0  0
  -10.7778   -6.0173    0.0000 H   0  0  0  0  0  0  0  0  0  0  0  0
   -7.8410   -6.6616    0.0000 H   0  0  0  0  0  0  0  0  0  0  0  0
   -9.2536   -6.4898    0.0000 H   0  0  0  0  0  0  0  0  0  0  0  0
   -6.8811   -6.8950    0.0000 H   0  0  0  0  0  0  0  0  0  0  0  0
  -14.5318   -4.9614    0.0000 H   0  0  0  0  0  0  0  0  0  0  0  0
  -15.2993   -3.5191    0.0000 H   0  0  0  0  0  0  0  0  0  0  0  0
  -14.2939   -2.2312    0.0000 H   0  0  0  0  0  0  0  0  0  0  0  0
  -15.3110   -4.3649    0.0000 H   0  0  0  0  0  0  0  0  0  0  0  0
  -12.8679   -6.7169    0.0000 H   0  0  0  0  0  0  0  0  0  0  0  0
  -13.4223   -9.4809    0.0000 H   0  0  0  0  0  0  0  0  0  0  0  0
  -12.7205   -7.6848    0.0000 H   0  0  0  0  0  0  0  0  0  0  0  0
  -16.7342   -9.5815    0.0000 H   0  0  0  0  0  0  0  0  0  0  0  0
  -16.5662   -8.2773    0.0000 H   0  0  0  0  0  0  0  0  0  0  0  0
  -16.0329  -13.0045    0.0000 H   0  0  0  0  0  0  0  0  0  0  0  0
  -17.7755  -11.3637    0.0000 H   0  0  0  0  0  0  0  0  0  0  0  0
  -15.2307   -9.8662    0.0000 H   0  0  0  0  0  0  0  0  0  0  0  0
  -17.5482   -7.6128    0.0000 H   0  0  0  0  0  0  0  0  0  0  0  0
  -18.9611  -10.5764    0.0000 H   0  0  0  0  0  0  0  0  0  0  0  0
  -21.2162   -7.5222    0.0000 H   0  0  0  0  0  0  0  0  0  0  0  0
  -19.9496   -6.2778    0.0000 H   0  0  0  0  0  0  0  0  0  0  0  0
  -18.3717   -7.1112    0.0000 H   0  0  0  0  0  0  0  0  0  0  0  0
  -21.5970  -10.4938    0.0000 H   0  0  0  0  0  0  0  0  0  0  0  0
  -19.8721  -10.9510    0.0000 H   0  0  0  0  0  0  0  0  0  0  0  0
  -22.9729   -9.0458    0.0000 H   0  0  0  0  0  0  0  0  0  0  0  0
  -22.2711   -7.2497    0.0000 H   0  0  0  0  0  0  0  0  0  0  0  0
  -20.6419   -7.3734    0.0000 H   0  0  0  0  0  0  0  0  0  0  0  0
  -16.9688  -13.0444    0.0000 H   0  0  0  0  0  0  0  0  0  0  0  0
  1  2  1  0
  2  3  1  0
  3  4  2  0
  4  5  1  0
  5  6  2  0
  6  7  1  0
  7  8  2  0
  7  9  1  0
  9 10  1  0
 10 11  1  0
 11 12  2  0
  9 13  1  0
 13 14  1  0
 14 15  2  0
 15 16  1  0
 16 17  2  0
 17 18  1  0
 16 19  1  0
 14 20  1  0
 20 21  1  0
 21 22  2  0
 22 23  1  0
 23 24  2  0
 24 25  1  0
 25 26  2  0
 25 27  1  0
  1 28  2  0
  1 29  1  0
 29 30  1  0
 30 31  1  0
 31 32  1  0
 32 33  2  0
 32 34  1  0
 34 35  1  0
 35 36  1  0
 36 37  1  0
 37 38  1  0
 37 39  2  0
 35 40  1  0
 40 41  2  0
 40 42  1  0
 42 43  1  0
 43 44  1  0
 44 45  1  0
 45 46  1  0
 46 47  2  0
 46 48  1  0
 43 49  1  0
 49 50  2  0
 49 51  1  0
 51 52  1  0
 52 53  1  0
 53 54  1  0
 54 55  1  0
 54 56  1  0
 52 57  1  0
 57 58  2  0
 57 59  1  0
 59 60  1  0
 60 61  1  0
 61 62  1  0
 62 63  1  0
 63 64  1  0
 64 65  1  0
 60 66  1  0
 66 67  2  0
 66 68  1  0
 69 68  1  6
 69 70  1  0
 70 71  1  0
 71 72  1  0
 72 73  1  0
 73 74  1  0
 74 75  1  0
 75 76  1  0
 69 77  1  0
 69 78  1  0
 78 79  2  0
 78 80  1  0
 80 81  1  0
 81 82  1  0
 82 83  1  0
 81 84  1  0
 84 85  2  0
 84 86  1  0
 86 87  1  0
 87 88  1  0
 88 89  1  0
 89 90  2  0
 90 91  1  0
 91 92  2  0
 92 93  1  0
 93 94  2  0
 87 95  1  0
 95 96  2  0
 95 97  1  0
 97 98  1  0
 98 99  1  0
 99100  1  0
100101  2  0
101102  1  0
102103  2  0
103104  1  0
104105  2  0
 98106  1  0
106107  2  0
106108  1  0
108109  1  0
109110  1  0
109111  1  0
111112  2  0
111113  1  0
113114  1  0
114115  1  0
115116  1  0
116117  1  0
116118  1  0
114119  1  0
119120  2  0
119121  1  0
121122  1  0
122123  1  0
123124  1  0
124125  1  0
125126  1  0
126127  1  0
127128  2  3
127129  1  0
122130  1  0
130131  2  0
130132  1  0
132133  1  0
133134  1  0
134135  1  0
135136  1  0
136137  1  0
133138  1  0
133139  1  1
139140  2  0
139141  1  0
141142  1  0
142143  1  0
143144  1  0
144145  1  0
145146  1  0
145147  2  0
142148  1  0
148149  2  0
148150  1  0
150151  1  0
151152  1  0
152153  1  0
152154  1  0
154155  1  0
151156  1  0
156157  2  0
156158  1  0
  8  3  1  0
 94 89  1  0
105100  1  0
 11  6  1  0
 76137  2  0
 18 13  2  0
 22  9  1  0
 26 21  1  0
  2159  1  0
  4160  1  0
  5161  1  0
  8162  1  0
 15163  1  0
 17164  1  0
 18165  1  0
 19166  1  0
 23167  1  0
 24168  1  0
 26169  1  0
 27170  1  0
 29171  1  0
 30172  1  0
 30173  1  0
 31174  1  0
 31175  1  0
 34176  1  0
 35177  1  1
 36178  1  0
 36179  1  0
 38180  1  0
 38181  1  0
 42182  1  0
 43183  1  1
 44184  1  0
 44185  1  0
 45186  1  0
 45187  1  0
 48188  1  0
 51189  1  0
 52190  1  1
 53191  1  0
 53192  1  0
 54193  1  0
 55194  1  0
 55195  1  0
 55196  1  0
 56197  1  0
 56198  1  0
 56199  1  0
 59200  1  0
 60201  1  1
 61202  1  0
 61203  1  0
 62204  1  0
 62205  1  0
 63206  1  0
 63207  1  0
 64208  1  0
 64209  1  0
 65210  1  0
 65211  1  0
 68212  1  0
 70213  1  0
 70214  1  0
 71215  1  0
 71216  1  0
 72217  1  0
 72218  1  0
 73219  1  0
 73220  1  0
 74221  1  0
 74222  1  0
 75223  1  0
 75224  1  0
 76225  1  0
 77226  1  0
 77227  1  0
 77228  1  0
 80229  1  0
 81230  1  6
 82231  1  0
 82232  1  0
 83233  1  0
 86234  1  0
 87235  1  6
 88236  1  0
 88237  1  0
 90238  1  0
 91239  1  0
 92240  1  0
 93241  1  0
 94242  1  0
 97243  1  0
 98244  1  6
 99245  1  0
 99246  1  0
101247  1  0
102248  1  0
103249  1  0
104250  1  0
105251  1  0
108252  1  0
109253  1  6
110254  1  0
110255  1  0
110256  1  0
113257  1  0
114258  1  6
115259  1  0
115260  1  0
116261  1  0
117262  1  0
117263  1  0
117264  1  0
118265  1  0
118266  1  0
118267  1  0
121268  1  0
122269  1  6
123270  1  0
123271  1  0
124272  1  0
124273  1  0
125274  1  0
125275  1  0
126276  1  0
128277  1  0
129278  1  0
129279  1  0
132280  1  0
134281  1  0
134282  1  0
135283  1  0
135284  1  0
136285  1  0
136286  1  0
137287  1  0
138288  1  0
138289  1  0
138290  1  0
141291  1  0
142292  1  1
143293  1  0
143294  1  0
144295  1  0
144296  1  0
146297  1  0
146298  1  0
150299  1  0
151300  1  6
152301  1  1
153302  1  0
153303  1  0
153304  1  0
154305  1  0
154306  1  0
155307  1  0
155308  1  0
155309  1  0
158310  1  0
M  END
