
     RDKit          2D

381384  0  0  0  0  0  0  0  0999 V2000
  -25.7023    4.4151    0.0000 N   0  0  0  0  0  0  0  0  0  0  0  0
  -24.3794    3.7082    0.0000 C   0  0  0  0  0  0  0  0  0  0  0  0
  -24.3301    2.2090    0.0000 C   0  0  0  0  0  0  0  0  0  0  0  0
  -23.0071    1.5020    0.0000 C   0  0  0  0  0  0  0  0  0  0  0  0
  -21.7334    2.2943    0.0000 O   0  0  0  0  0  0  0  0  0  0  0  0
  -22.9578    0.0029    0.0000 N   0  0  0  0  0  0  0  0  0  0  0  0
  -21.6349   -0.7041    0.0000 C   0  0  0  0  0  0  0  0  0  0  0  0
  -22.5608   -1.8842    0.0000 C   0  0  0  0  0  0  0  0  0  0  0  0
  -23.0272   -3.3098    0.0000 O   0  0  0  0  0  0  0  0  0  0  0  0
  -24.0458   -1.6724    0.0000 C   0  0  0  0  0  0  0  0  0  0  0  0
  -20.1499   -0.9159    0.0000 C   0  0  0  0  0  0  0  0  0  0  0  0
  -19.5908   -2.3078    0.0000 O   0  0  0  0  0  0  0  0  0  0  0  0
  -19.2240    0.2642    0.0000 N   0  0  0  0  0  0  0  0  0  0  0  0
  -17.7390    0.0524    0.0000 C   0  0  0  0  0  0  0  0  0  0  0  0
  -17.7883    1.5516    0.0000 C   0  0  0  0  0  0  0  0  0  0  0  0
  -19.1113    2.2585    0.0000 C   0  0  0  0  0  0  0  0  0  0  0  0
  -19.1605    3.7577    0.0000 C   0  0  0  0  0  0  0  0  0  0  0  0
  -20.4835    4.4647    0.0000 N   0  0  0  0  0  0  0  0  0  0  0  0
  -20.5328    5.9639    0.0000 C   0  0  0  0  0  0  0  0  0  0  0  0
  -21.8557    6.6708    0.0000 N   0  0  0  0  0  0  0  0  0  0  0  0
  -19.2591    6.7561    0.0000 N   0  0  0  0  0  0  0  0  0  0  0  0
  -16.4160   -0.6545    0.0000 C   0  0  0  0  0  0  0  0  0  0  0  0
  -15.1423    0.1378    0.0000 O   0  0  0  0  0  0  0  0  0  0  0  0
  -16.3668   -2.1537    0.0000 N   0  0  0  0  0  0  0  0  0  0  0  0
  -15.0438   -2.8606    0.0000 C   0  0  0  0  0  0  0  0  0  0  0  0
  -15.9697   -4.0407    0.0000 C   0  0  0  0  0  0  0  0  0  0  0  0
  -17.4547   -3.8289    0.0000 C   0  0  0  0  0  0  0  0  0  0  0  0
  -18.3806   -5.0090    0.0000 C   0  0  0  0  0  0  0  0  0  0  0  0
  -19.8656   -4.7972    0.0000 N   0  0  0  0  0  0  0  0  0  0  0  0
  -17.8215   -6.4010    0.0000 O   0  0  0  0  0  0  0  0  0  0  0  0
  -13.5588   -3.0724    0.0000 C   0  0  0  0  0  0  0  0  0  0  0  0
  -13.1736   -4.5221    0.0000 O   0  0  0  0  0  0  0  0  0  0  0  0
  -12.6329   -1.8923    0.0000 N   0  0  0  0  0  0  0  0  0  0  0  0
  -11.1479   -2.1041    0.0000 C   0  0  0  0  0  0  0  0  0  0  0  0
  -10.3242   -3.3577    0.0000 C   0  0  0  0  0  0  0  0  0  0  0  0
   -9.1675   -4.3127    0.0000 C   0  0  0  0  0  0  0  0  0  0  0  0
   -7.7807   -4.8844    0.0000 C   0  0  0  0  0  0  0  0  0  0  0  0
   -6.2870   -5.0219    0.0000 C   0  0  0  0  0  0  0  0  0  0  0  0
  -12.1001   -3.2631    0.0000 C   0  0  0  0  0  0  0  0  0  0  0  0
  -11.5656   -0.6634    0.0000 C   0  0  0  0  0  0  0  0  0  0  0  0
  -13.0655   -0.6790    0.0000 O   0  0  0  0  0  0  0  0  0  0  0  0
  -11.5401    0.8364    0.0000 N   0  0  0  0  0  0  0  0  0  0  0  0
  -11.0736    2.2620    0.0000 C   0  0  0  0  0  0  0  0  0  0  0  0
  -12.5650    2.1008    0.0000 C   0  0  0  0  0  0  0  0  0  0  0  0
  -13.4502    3.3117    0.0000 C   0  0  0  0  0  0  0  0  0  0  0  0
  -14.9415    3.1506    0.0000 C   0  0  0  0  0  0  0  0  0  0  0  0
  -15.8267    4.3615    0.0000 N   0  0  0  0  0  0  0  0  0  0  0  0
  -17.3181    4.2003    0.0000 C   0  0  0  0  0  0  0  0  0  0  0  0
  -17.8840    5.5895    0.0000 N   0  0  0  0  0  0  0  0  0  0  0  0
  -17.5741    2.7224    0.0000 N   0  0  0  0  0  0  0  0  0  0  0  0
  -10.2077    3.4868    0.0000 C   0  0  0  0  0  0  0  0  0  0  0  0
  -11.2898    4.5256    0.0000 O   0  0  0  0  0  0  0  0  0  0  0  0
   -9.0192    4.4019    0.0000 N   0  0  0  0  0  0  0  0  0  0  0  0
   -7.6138    4.9261    0.0000 C   0  0  0  0  0  0  0  0  0  0  0  0
   -8.6696    5.9916    0.0000 C   0  0  0  0  0  0  0  0  0  0  0  0
   -8.2748    7.4387    0.0000 C   0  0  0  0  0  0  0  0  0  0  0  0
   -9.3306    8.5042    0.0000 C   0  0  0  0  0  0  0  0  0  0  0  0
   -8.9358    9.9513    0.0000 N   0  0  0  0  0  0  0  0  0  0  0  0
   -9.9916   11.0167    0.0000 C   0  0  0  0  0  0  0  0  0  0  0  0
   -9.5968   12.4639    0.0000 N   0  0  0  0  0  0  0  0  0  0  0  0
  -11.4423   10.6351    0.0000 N   0  0  0  0  0  0  0  0  0  0  0  0
   -6.1163    5.0127    0.0000 C   0  0  0  0  0  0  0  0  0  0  0  0
   -5.9788    6.5064    0.0000 O   0  0  0  0  0  0  0  0  0  0  0  0
   -4.6598    4.6541    0.0000 N   0  0  0  0  0  0  0  0  0  0  0  0
   -3.3737    3.8821    0.0000 C   0  0  0  0  0  0  0  0  0  0  0  0
   -3.1990    5.3719    0.0000 C   0  0  0  0  0  0  0  0  0  0  0  0
   -1.8214    5.9655    0.0000 C   0  0  0  0  0  0  0  0  0  0  0  0
   -1.6467    7.4553    0.0000 N   0  0  0  0  0  0  0  0  0  0  0  0
   -0.5183    5.2226    0.0000 O   0  0  0  0  0  0  0  0  0  0  0  0
   -2.3723    2.7654    0.0000 C   0  0  0  0  0  0  0  0  0  0  0  0
   -1.6523    4.0813    0.0000 O   0  0  0  0  0  0  0  0  0  0  0  0
   -1.7445    1.4030    0.0000 N   0  0  0  0  0  0  0  0  0  0  0  0
   -1.5463   -0.0838    0.0000 C   0  0  0  0  0  0  0  0  0  0  0  0
   -1.7950   -1.5630    0.0000 C   0  0  0  0  0  0  0  0  0  0  0  0
   -2.4687   -2.9032    0.0000 C   0  0  0  0  0  0  0  0  0  0  0  0
   -3.5076   -3.9853    0.0000 C   0  0  0  0  0  0  0  0  0  0  0  0
   -4.8192   -4.7131    0.0000 C   0  0  0  0  0  0  0  0  0  0  0  0
   -0.6933    1.2626    0.0000 C   0  0  0  0  0  0  0  0  0  0  0  0
   -0.2859    2.5674    0.0000 C   0  0  0  0  0  0  0  0  0  0  0  0
    0.3610    3.7716    0.0000 C   0  0  0  0  0  0  0  0  0  0  0  0
    1.2241    4.8315    0.0000 C   0  0  0  0  0  0  0  0  0  0  0  0
   -0.7396   -1.4584    0.0000 C   0  0  0  0  0  0  0  0  0  0  0  0
   -2.9066   -1.8380    0.0000 O   0  0  0  0  0  0  0  0  0  0  0  0
   -0.3768   -2.7764    0.0000 N   0  0  0  0  0  0  0  0  0  0  0  0
    0.2288   -4.0018    0.0000 C   0  0  0  0  0  0  0  0  0  0  0  0
   -1.0341   -5.7134    0.0000 C   0  0  0  0  0  0  0  0  0  0  0  0
   -0.2047   -6.9632    0.0000 C   0  0  0  0  0  0  0  0  0  0  0  0
   -0.8723   -8.3064    0.0000 C   0  0  0  0  0  0  0  0  0  0  0  0
   -0.0429   -9.5563    0.0000 N   0  0  0  0  0  0  0  0  0  0  0  0
   -0.7105  -10.8995    0.0000 C   0  0  0  0  0  0  0  0  0  0  0  0
   -0.2081  -12.3128    0.0000 N   0  0  0  0  0  0  0  0  0  0  0  0
   -2.2076  -10.9929    0.0000 N   0  0  0  0  0  0  0  0  0  0  0  0
    1.0553   -5.0905    0.0000 C   0  0  0  0  0  0  0  0  0  0  0  0
    0.1768   -6.2240    0.0000 O   0  0  0  0  0  0  0  0  0  0  0  0
    2.0730   -6.0031    0.0000 N   0  0  0  0  0  0  0  0  0  0  0  0
    3.2450   -6.7066    0.0000 C   0  0  0  0  0  0  0  0  0  0  0  0
    3.1080   -8.8292    0.0000 C   0  0  0  0  0  0  0  0  0  0  0  0
    1.8990   -9.7172    0.0000 C   0  0  0  0  0  0  0  0  0  0  0  0
    2.0636  -11.2082    0.0000 C   0  0  0  0  0  0  0  0  0  0  0  0
    0.8547  -12.0961    0.0000 N   0  0  0  0  0  0  0  0  0  0  0  0
    1.0192  -13.5871    0.0000 C   0  0  0  0  0  0  0  0  0  0  0  0
   -0.1897  -14.4751    0.0000 N   0  0  0  0  0  0  0  0  0  0  0  0
    2.3927  -14.1901    0.0000 N   0  0  0  0  0  0  0  0  0  0  0  0
    4.5289   -7.1756    0.0000 C   0  0  0  0  0  0  0  0  0  0  0  0
    4.1537   -9.3397    0.0000 O   0  0  0  0  0  0  0  0  0  0  0  0
    5.8784   -7.3931    0.0000 N   0  0  0  0  0  0  0  0  0  0  0  0
    7.2447   -7.3513    0.0000 C   0  0  0  0  0  0  0  0  0  0  0  0
    8.2770   -9.2111    0.0000 C   0  0  0  0  0  0  0  0  0  0  0  0
    7.7401  -10.6117    0.0000 C   0  0  0  0  0  0  0  0  0  0  0  0
    8.6846  -11.7770    0.0000 C   0  0  0  0  0  0  0  0  0  0  0  0
    8.1477  -13.1776    0.0000 N   0  0  0  0  0  0  0  0  0  0  0  0
    9.0922  -14.3429    0.0000 C   0  0  0  0  0  0  0  0  0  0  0  0
    8.5552  -15.7435    0.0000 N   0  0  0  0  0  0  0  0  0  0  0  0
   10.5736  -14.1076    0.0000 N   0  0  0  0  0  0  0  0  0  0  0  0
    8.5784   -7.0517    0.0000 C   0  0  0  0  0  0  0  0  0  0  0  0
    9.4328   -9.0751    0.0000 O   0  0  0  0  0  0  0  0  0  0  0  0
    9.8313   -6.5051    0.0000 N   0  0  0  0  0  0  0  0  0  0  0  0
   10.9581   -5.7312    0.0000 C   0  0  0  0  0  0  0  0  0  0  0  0
   12.8320   -6.7377    0.0000 C   0  0  0  0  0  0  0  0  0  0  0  0
   13.1375   -8.2062    0.0000 C   0  0  0  0  0  0  0  0  0  0  0  0
   12.1290   -9.3166    0.0000 C   0  0  0  0  0  0  0  0  0  0  0  0
   12.8734  -10.6189    0.0000 N   0  0  0  0  0  0  0  0  0  0  0  0
   14.3419  -10.3133    0.0000 C   0  0  0  0  0  0  0  0  0  0  0  0
   15.5516  -11.2002    0.0000 C   0  0  0  0  0  0  0  0  0  0  0  0
   16.9246  -10.5961    0.0000 C   0  0  0  0  0  0  0  0  0  0  0  0
   17.0878   -9.1050    0.0000 C   0  0  0  0  0  0  0  0  0  0  0  0
   15.8781   -8.2181    0.0000 C   0  0  0  0  0  0  0  0  0  0  0  0
   14.5052   -8.8222    0.0000 C   0  0  0  0  0  0  0  0  0  0  0  0
   11.9180   -4.7581    0.0000 C   0  0  0  0  0  0  0  0  0  0  0  0
   13.7308   -5.9985    0.0000 O   0  0  0  0  0  0  0  0  0  0  0  0
   12.6765   -3.6209    0.0000 N   0  0  0  0  0  0  0  0  0  0  0  0
   13.2061   -2.3608    0.0000 C   0  0  0  0  0  0  0  0  0  0  0  0
   15.3266   -2.1943    0.0000 C   0  0  0  0  0  0  0  0  0  0  0  0
   16.3776   -3.2646    0.0000 C   0  0  0  0  0  0  0  0  0  0  0  0
   17.8300   -2.8895    0.0000 C   0  0  0  0  0  0  0  0  0  0  0  0
   18.8809   -3.9598    0.0000 N   0  0  0  0  0  0  0  0  0  0  0  0
   20.3333   -3.5847    0.0000 C   0  0  0  0  0  0  0  0  0  0  0  0
   21.3843   -4.6549    0.0000 N   0  0  0  0  0  0  0  0  0  0  0  0
   20.7347   -2.1394    0.0000 N   0  0  0  0  0  0  0  0  0  0  0  0
   13.4876   -1.0231    0.0000 C   0  0  0  0  0  0  0  0  0  0  0  0
   15.6831   -1.0865    0.0000 O   0  0  0  0  0  0  0  0  0  0  0  0
   13.5108    0.3436    0.0000 N   0  0  0  0  0  0  0  0  0  0  0  0
   13.2750    1.6900    0.0000 C   0  0  0  0  0  0  0  0  0  0  0  0
   14.9689    2.9765    0.0000 C   0  0  0  0  0  0  0  0  0  0  0  0
   16.4317    2.6443    0.0000 C   0  0  0  0  0  0  0  0  0  0  0  0
   17.4507    3.7451    0.0000 C   0  0  0  0  0  0  0  0  0  0  0  0
   18.9135    3.4129    0.0000 O   0  0  0  0  0  0  0  0  0  0  0  0
   17.0070    5.1779    0.0000 O   0  0  0  0  0  0  0  0  0  0  0  0
   12.7886    2.9675    0.0000 C   0  0  0  0  0  0  0  0  0  0  0  0
   14.6699    4.1011    0.0000 O   0  0  0  0  0  0  0  0  0  0  0  0
   12.0693    4.1298    0.0000 N   0  0  0  0  0  0  0  0  0  0  0  0
   11.1430    5.1350    0.0000 C   0  0  0  0  0  0  0  0  0  0  0  0
   10.0431    5.9467    0.0000 C   0  0  0  0  0  0  0  0  0  0  0  0
    8.8096    6.5356    0.0000 C   0  0  0  0  0  0  0  0  0  0  0  0
    7.4869    6.8804    0.0000 C   0  0  0  0  0  0  0  0  0  0  0  0
    6.1228    6.9687    0.0000 C   0  0  0  0  0  0  0  0  0  0  0  0
    4.7667    6.7972    0.0000 C   0  0  0  0  0  0  0  0  0  0  0  0
    3.4675    6.3722    0.0000 C   0  0  0  0  0  0  0  0  0  0  0  0
    2.2723    5.7090    0.0000 C   0  0  0  0  0  0  0  0  0  0  0  0
   13.0500    6.0771    0.0000 C   0  0  0  0  0  0  0  0  0  0  0  0
   11.8725    7.1331    0.0000 C   0  0  0  0  0  0  0  0  0  0  0  0
   10.9922    8.3476    0.0000 O   0  0  0  0  0  0  0  0  0  0  0  0
   13.2826    7.6445    0.0000 N   0  0  0  0  0  0  0  0  0  0  0  0
   13.5447    9.1214    0.0000 C   0  0  0  0  0  0  0  0  0  0  0  0
   13.2860   10.5989    0.0000 C   0  0  0  0  0  0  0  0  0  0  0  0
   14.4361   11.5618    0.0000 C   0  0  0  0  0  0  0  0  0  0  0  0
   14.1774   13.0393    0.0000 C   0  0  0  0  0  0  0  0  0  0  0  0
   15.2016   14.1352    0.0000 N   0  0  0  0  0  0  0  0  0  0  0  0
   12.7684   13.5539    0.0000 O   0  0  0  0  0  0  0  0  0  0  0  0
   14.9549    9.6328    0.0000 C   0  0  0  0  0  0  0  0  0  0  0  0
   16.1028    8.6673    0.0000 O   0  0  0  0  0  0  0  0  0  0  0  0
   15.2170   11.1097    0.0000 N   0  0  0  0  0  0  0  0  0  0  0  0
   16.6272   11.6211    0.0000 C   0  0  0  0  0  0  0  0  0  0  0  0
   18.1272   11.6194    0.0000 C   0  0  0  0  0  0  0  0  0  0  0  0
   18.8757   10.3195    0.0000 C   0  0  0  0  0  0  0  0  0  0  0  0
   20.3757   10.3178    0.0000 C   0  0  0  0  0  0  0  0  0  0  0  0
   21.1242    9.0179    0.0000 N   0  0  0  0  0  0  0  0  0  0  0  0
   22.6242    9.0162    0.0000 C   0  0  0  0  0  0  0  0  0  0  0  0
   23.3727    7.7163    0.0000 N   0  0  0  0  0  0  0  0  0  0  0  0
   23.3757   10.3144    0.0000 N   0  0  0  0  0  0  0  0  0  0  0  0
   16.8893   13.0980    0.0000 C   0  0  0  0  0  0  0  0  0  0  0  0
   18.2266   13.7775    0.0000 O   0  0  0  0  0  0  0  0  0  0  0  0
   16.1445   13.8986    0.0000 O   0  0  0  0  0  0  0  0  0  0  0  0
  -25.7516    5.9143    0.0000 H   0  0  0  0  0  0  0  0  0  0  0  0
  -26.9760    3.6228    0.0000 H   0  0  0  0  0  0  0  0  0  0  0  0
  -23.9129    5.1338    0.0000 H   0  0  0  0  0  0  0  0  0  0  0  0
  -22.8944    3.4964    0.0000 H   0  0  0  0  0  0  0  0  0  0  0  0
  -25.8151    2.4208    0.0000 H   0  0  0  0  0  0  0  0  0  0  0  0
  -24.7965    0.7833    0.0000 H   0  0  0  0  0  0  0  0  0  0  0  0
  -23.6810   -0.3325    0.0000 H   0  0  0  0  0  0  0  0  0  0  0  0
  -21.1684    0.7216    0.0000 H   0  0  0  0  0  0  0  0  0  0  0  0
  -21.2378   -2.5911    0.0000 H   0  0  0  0  0  0  0  0  0  0  0  0
  -24.4465   -3.7953    0.0000 H   0  0  0  0  0  0  0  0  0  0  0  0
  -25.1086   -2.7308    0.0000 H   0  0  0  0  0  0  0  0  0  0  0  0
  -25.3687   -0.9655    0.0000 H   0  0  0  0  0  0  0  0  0  0  0  0
  -24.0904   -0.7878    0.0000 H   0  0  0  0  0  0  0  0  0  0  0  0
  -19.9485    1.5776    0.0000 H   0  0  0  0  0  0  0  0  0  0  0  0
  -18.2055   -1.3732    0.0000 H   0  0  0  0  0  0  0  0  0  0  0  0
  -16.9907    2.8220    0.0000 H   0  0  0  0  0  0  0  0  0  0  0  0
  -16.3402    1.1604    0.0000 H   0  0  0  0  0  0  0  0  0  0  0  0
  -20.5962    2.4704    0.0000 H   0  0  0  0  0  0  0  0  0  0  0  0
  -20.0577    1.0948    0.0000 H   0  0  0  0  0  0  0  0  0  0  0  0
  -18.8713    5.2296    0.0000 H   0  0  0  0  0  0  0  0  0  0  0  0
  -17.7709    3.1929    0.0000 H   0  0  0  0  0  0  0  0  0  0  0  0
  -21.7572    3.6724    0.0000 H   0  0  0  0  0  0  0  0  0  0  0  0
  -21.9050    8.1700    0.0000 H   0  0  0  0  0  0  0  0  0  0  0  0
  -23.1294    5.8785    0.0000 H   0  0  0  0  0  0  0  0  0  0  0  0
  -19.3083    8.2553    0.0000 H   0  0  0  0  0  0  0  0  0  0  0  0
  -17.8044    6.3903    0.0000 H   0  0  0  0  0  0  0  0  0  0  0  0
  -17.7275   -2.7848    0.0000 H   0  0  0  0  0  0  0  0  0  0  0  0
  -14.5773   -1.4350    0.0000 H   0  0  0  0  0  0  0  0  0  0  0  0
  -16.4362   -5.4664    0.0000 H   0  0  0  0  0  0  0  0  0  0  0  0
  -14.6467   -4.7476    0.0000 H   0  0  0  0  0  0  0  0  0  0  0  0
  -18.7776   -3.1220    0.0000 H   0  0  0  0  0  0  0  0  0  0  0  0
  -17.5302   -2.3308    0.0000 H   0  0  0  0  0  0  0  0  0  0  0  0
  -20.7915   -5.9773    0.0000 H   0  0  0  0  0  0  0  0  0  0  0  0
  -20.4246   -3.4053    0.0000 H   0  0  0  0  0  0  0  0  0  0  0  0
  -13.3575   -0.5789    0.0000 H   0  0  0  0  0  0  0  0  0  0  0  0
  -10.7190   -4.8048    0.0000 H   0  0  0  0  0  0  0  0  0  0  0  0
  -11.7659   -3.7718    0.0000 H   0  0  0  0  0  0  0  0  0  0  0  0
   -9.3013   -5.8067    0.0000 H   0  0  0  0  0  0  0  0  0  0  0  0
  -10.4231   -5.1334    0.0000 H   0  0  0  0  0  0  0  0  0  0  0  0
   -7.2917   -6.3025    0.0000 H   0  0  0  0  0  0  0  0  0  0  0  0
   -8.7386   -6.0387    0.0000 H   0  0  0  0  0  0  0  0  0  0  0  0
   -6.2004   -6.5194    0.0000 H   0  0  0  0  0  0  0  0  0  0  0  0
  -13.3995   -3.6331    0.0000 H   0  0  0  0  0  0  0  0  0  0  0  0
  -12.0810   -4.8450    0.0000 H   0  0  0  0  0  0  0  0  0  0  0  0
  -10.9104   -4.4474    0.0000 H   0  0  0  0  0  0  0  0  0  0  0  0
  -13.0193    1.0851    0.0000 H   0  0  0  0  0  0  0  0  0  0  0  0
  -11.6706    3.6381    0.0000 H   0  0  0  0  0  0  0  0  0  0  0  0
  -13.8205    1.2801    0.0000 H   0  0  0  0  0  0  0  0  0  0  0  0
  -12.5083    0.6019    0.0000 H   0  0  0  0  0  0  0  0  0  0  0  0
  -13.8679    4.7524    0.0000 H   0  0  0  0  0  0  0  0  0  0  0  0
  -12.1946    4.1324    0.0000 H   0  0  0  0  0  0  0  0  0  0  0  0
  -16.2878    2.4891    0.0000 H   0  0  0  0  0  0  0  0  0  0  0  0
  -14.7026    1.6697    0.0000 H   0  0  0  0  0  0  0  0  0  0  0  0
  -15.2207    5.7336    0.0000 H   0  0  0  0  0  0  0  0  0  0  0  0
  -19.6946    5.2501    0.0000 H   0  0  0  0  0  0  0  0  0  0  0  0
  -17.4538    6.7395    0.0000 H   0  0  0  0  0  0  0  0  0  0  0  0
  -19.3741    3.1143    0.0000 H   0  0  0  0  0  0  0  0  0  0  0  0
  -16.6784    1.8826    0.0000 H   0  0  0  0  0  0  0  0  0  0  0  0
   -9.7470    5.7135    0.0000 H   0  0  0  0  0  0  0  0  0  0  0  0
   -6.9101    6.2508    0.0000 H   0  0  0  0  0  0  0  0  0  0  0  0
  -10.0941    6.4616    0.0000 H   0  0  0  0  0  0  0  0  0  0  0  0
   -9.8062    5.0127    0.0000 H   0  0  0  0  0  0  0  0  0  0  0  0
   -7.4089    8.6635    0.0000 H   0  0  0  0  0  0  0  0  0  0  0  0
   -6.8503    6.9687    0.0000 H   0  0  0  0  0  0  0  0  0  0  0  0
  -10.6872    9.1443    0.0000 H   0  0  0  0  0  0  0  0  0  0  0  0
  -10.3394    7.3940    0.0000 H   0  0  0  0  0  0  0  0  0  0  0  0
   -7.4852   10.3329    0.0000 H   0  0  0  0  0  0  0  0  0  0  0  0
  -10.6527   13.5293    0.0000 H   0  0  0  0  0  0  0  0  0  0  0  0
   -8.1462   12.8455    0.0000 H   0  0  0  0  0  0  0  0  0  0  0  0
  -12.4981   11.7006    0.0000 H   0  0  0  0  0  0  0  0  0  0  0  0
  -11.8371    9.1880    0.0000 H   0  0  0  0  0  0  0  0  0  0  0  0
   -4.0881    6.0409    0.0000 H   0  0  0  0  0  0  0  0  0  0  0  0
   -2.0961    4.6681    0.0000 H   0  0  0  0  0  0  0  0  0  0  0  0
   -3.5443    6.8316    0.0000 H   0  0  0  0  0  0  0  0  0  0  0  0
   -4.6729    5.6502    0.0000 H   0  0  0  0  0  0  0  0  0  0  0  0
   -0.2691    8.0489    0.0000 H   0  0  0  0  0  0  0  0  0  0  0  0
   -2.8495    8.3515    0.0000 H   0  0  0  0  0  0  0  0  0  0  0  0
   -0.3039    1.8207    0.0000 H   0  0  0  0  0  0  0  0  0  0  0  0
   -0.3444   -1.1814    0.0000 H   0  0  0  0  0  0  0  0  0  0  0  0
   -0.9996   -2.8348    0.0000 H   0  0  0  0  0  0  0  0  0  0  0  0
   -1.0922   -3.4991    0.0000 H   0  0  0  0  0  0  0  0  0  0  0  0
   -2.2631   -4.3890    0.0000 H   0  0  0  0  0  0  0  0  0  0  0  0
   -2.3678   -4.9605    0.0000 H   0  0  0  0  0  0  0  0  0  0  0  0
   -3.3836   -5.4801    0.0000 H   0  0  0  0  0  0  0  0  0  0  0  0
   -4.2950   -6.1185    0.0000 H   0  0  0  0  0  0  0  0  0  0  0  0
   -2.7884    0.8954    0.0000 H   0  0  0  0  0  0  0  0  0  0  0  0
   -2.3283    2.5676    0.0000 H   0  0  0  0  0  0  0  0  0  0  0  0
   -2.3986    3.1500    0.0000 H   0  0  0  0  0  0  0  0  0  0  0  0
   -1.6444    4.1582    0.0000 H   0  0  0  0  0  0  0  0  0  0  0  0
   -1.6032    4.7434    0.0000 H   0  0  0  0  0  0  0  0  0  0  0  0
   -0.6719    5.5907    0.0000 H   0  0  0  0  0  0  0  0  0  0  0  0
   -0.3420    6.3766    0.0000 H   0  0  0  0  0  0  0  0  0  0  0  0
   -2.1484   -4.0262    0.0000 H   0  0  0  0  0  0  0  0  0  0  0  0
   -1.8555   -4.5513    0.0000 H   0  0  0  0  0  0  0  0  0  0  0  0
   -2.2388   -6.6071    0.0000 H   0  0  0  0  0  0  0  0  0  0  0  0
   -2.4801   -5.3145    0.0000 H   0  0  0  0  0  0  0  0  0  0  0  0
    0.8846   -7.9944    0.0000 H   0  0  0  0  0  0  0  0  0  0  0  0
    1.1000   -6.2230    0.0000 H   0  0  0  0  0  0  0  0  0  0  0  0
   -1.9591   -9.3403    0.0000 H   0  0  0  0  0  0  0  0  0  0  0  0
   -2.1788   -7.5695    0.0000 H   0  0  0  0  0  0  0  0  0  0  0  0
    1.4323   -9.8279    0.0000 H   0  0  0  0  0  0  0  0  0  0  0  0
   -0.5487  -13.4925    0.0000 H   0  0  0  0  0  0  0  0  0  0  0  0
    1.6240  -12.5049    0.0000 H   0  0  0  0  0  0  0  0  0  0  0  0
   -2.8752  -12.3361    0.0000 H   0  0  0  0  0  0  0  0  0  0  0  0
   -3.0370   -9.7431    0.0000 H   0  0  0  0  0  0  0  0  0  0  0  0
    0.7666   -7.7732    0.0000 H   0  0  0  0  0  0  0  0  0  0  0  0
    1.6806   -8.1478    0.0000 H   0  0  0  0  0  0  0  0  0  0  0  0
    3.7725  -10.1740    0.0000 H   0  0  0  0  0  0  0  0  0  0  0  0
    4.6068   -8.7692    0.0000 H   0  0  0  0  0  0  0  0  0  0  0  0
    0.6040  -10.4740    0.0000 H   0  0  0  0  0  0  0  0  0  0  0  0
    1.0755   -8.4635    0.0000 H   0  0  0  0  0  0  0  0  0  0  0  0
    2.7281  -12.5529    0.0000 H   0  0  0  0  0  0  0  0  0  0  0  0
    3.5439  -10.9659    0.0000 H   0  0  0  0  0  0  0  0  0  0  0  0
   -0.6239  -11.8434    0.0000 H   0  0  0  0  0  0  0  0  0  0  0  0
   -0.0252  -15.9660    0.0000 H   0  0  0  0  0  0  0  0  0  0  0  0
   -1.5632  -13.8721    0.0000 H   0  0  0  0  0  0  0  0  0  0  0  0
    2.5572  -15.6810    0.0000 H   0  0  0  0  0  0  0  0  0  0  0  0
    3.6016  -13.3021    0.0000 H   0  0  0  0  0  0  0  0  0  0  0  0
    5.5547   -9.5655    0.0000 H   0  0  0  0  0  0  0  0  0  0  0  0
    6.5463   -9.3232    0.0000 H   0  0  0  0  0  0  0  0  0  0  0  0
    9.5631   -9.9831    0.0000 H   0  0  0  0  0  0  0  0  0  0  0  0
    9.5054   -8.3502    0.0000 H   0  0  0  0  0  0  0  0  0  0  0  0
    6.7565  -11.7442    0.0000 H   0  0  0  0  0  0  0  0  0  0  0  0
    6.3054  -10.1738    0.0000 H   0  0  0  0  0  0  0  0  0  0  0  0
    9.9707  -12.5490    0.0000 H   0  0  0  0  0  0  0  0  0  0  0  0
    9.7989  -10.7728    0.0000 H   0  0  0  0  0  0  0  0  0  0  0  0
    6.6662  -13.4129    0.0000 H   0  0  0  0  0  0  0  0  0  0  0  0
    9.4997  -16.9088    0.0000 H   0  0  0  0  0  0  0  0  0  0  0  0
    7.0738  -15.9788    0.0000 H   0  0  0  0  0  0  0  0  0  0  0  0
   11.5181  -15.2729    0.0000 H   0  0  0  0  0  0  0  0  0  0  0  0
   11.1105  -12.7070    0.0000 H   0  0  0  0  0  0  0  0  0  0  0  0
   10.7334   -8.5077    0.0000 H   0  0  0  0  0  0  0  0  0  0  0  0
   11.6192   -7.7530    0.0000 H   0  0  0  0  0  0  0  0  0  0  0  0
   14.3257   -6.8749    0.0000 H   0  0  0  0  0  0  0  0  0  0  0  0
   13.4000   -5.3494    0.0000 H   0  0  0  0  0  0  0  0  0  0  0  0
   10.6291   -9.3363    0.0000 H   0  0  0  0  0  0  0  0  0  0  0  0
   12.2574  -11.9865    0.0000 H   0  0  0  0  0  0  0  0  0  0  0  0
   15.3884  -12.6913    0.0000 H   0  0  0  0  0  0  0  0  0  0  0  0
   18.1343  -11.4830    0.0000 H   0  0  0  0  0  0  0  0  0  0  0  0
   18.4608   -8.5008    0.0000 H   0  0  0  0  0  0  0  0  0  0  0  0
   16.0413   -6.7270    0.0000 H   0  0  0  0  0  0  0  0  0  0  0  0
   14.5181   -4.8179    0.0000 H   0  0  0  0  0  0  0  0  0  0  0  0
   14.7096   -3.8152    0.0000 H   0  0  0  0  0  0  0  0  0  0  0  0
   16.5631   -1.3451    0.0000 H   0  0  0  0  0  0  0  0  0  0  0  0
   15.0539   -0.7193    0.0000 H   0  0  0  0  0  0  0  0  0  0  0  0
   16.9992   -4.6297    0.0000 H   0  0  0  0  0  0  0  0  0  0  0  0
   15.3833   -4.3877    0.0000 H   0  0  0  0  0  0  0  0  0  0  0  0
   19.0664   -2.0403    0.0000 H   0  0  0  0  0  0  0  0  0  0  0  0
   17.3794   -1.4588    0.0000 H   0  0  0  0  0  0  0  0  0  0  0  0
   18.4796   -5.4051    0.0000 H   0  0  0  0  0  0  0  0  0  0  0  0
   22.8366   -4.2799    0.0000 H   0  0  0  0  0  0  0  0  0  0  0  0
   20.9829   -6.1002    0.0000 H   0  0  0  0  0  0  0  0  0  0  0  0
   22.1870   -1.7643    0.0000 H   0  0  0  0  0  0  0  0  0  0  0  0
   19.6837   -1.0691    0.0000 H   0  0  0  0  0  0  0  0  0  0  0  0
   15.7072    0.3323    0.0000 H   0  0  0  0  0  0  0  0  0  0  0  0
   15.3262    1.2793    0.0000 H   0  0  0  0  0  0  0  0  0  0  0  0
   15.7142    4.2782    0.0000 H   0  0  0  0  0  0  0  0  0  0  0  0
   13.9420    4.0699    0.0000 H   0  0  0  0  0  0  0  0  0  0  0  0
   17.6926    1.8319    0.0000 H   0  0  0  0  0  0  0  0  0  0  0  0
   16.2025    1.1620    0.0000 H   0  0  0  0  0  0  0  0  0  0  0  0
   13.9231    5.3077    0.0000 H   0  0  0  0  0  0  0  0  0  0  0  0
   10.3813    8.0467    0.0000 H   0  0  0  0  0  0  0  0  0  0  0  0
   11.5318    7.5351    0.0000 H   0  0  0  0  0  0  0  0  0  0  0  0
    8.9255    8.6880    0.0000 H   0  0  0  0  0  0  0  0  0  0  0  0
    9.9708    8.3771    0.0000 H   0  0  0  0  0  0  0  0  0  0  0  0
    7.1934    9.0158    0.0000 H   0  0  0  0  0  0  0  0  0  0  0  0
    8.4365    8.8155    0.0000 H   0  0  0  0  0  0  0  0  0  0  0  0
    5.4305    9.0100    0.0000 H   0  0  0  0  0  0  0  0  0  0  0  0
    6.6890    9.0485    0.0000 H   0  0  0  0  0  0  0  0  0  0  0  0
    3.7006    8.6706    0.0000 H   0  0  0  0  0  0  0  0  0  0  0  0
    4.9291    8.9466    0.0000 H   0  0  0  0  0  0  0  0  0  0  0  0
    1.9531    7.8658    0.0000 H   0  0  0  0  0  0  0  0  0  0  0  0
    3.2202    8.5134    0.0000 H   0  0  0  0  0  0  0  0  0  0  0  0
    1.0268    7.5225    0.0000 H   0  0  0  0  0  0  0  0  0  0  0  0
   13.7474    7.4051    0.0000 H   0  0  0  0  0  0  0  0  0  0  0  0
   14.5469    5.9802    0.0000 H   0  0  0  0  0  0  0  0  0  0  0  0
   13.5704    4.6703    0.0000 H   0  0  0  0  0  0  0  0  0  0  0  0
   14.5397    6.8261    0.0000 H   0  0  0  0  0  0  0  0  0  0  0  0
   12.0447    9.1231    0.0000 H   0  0  0  0  0  0  0  0  0  0  0  0
   12.5375   11.8988    0.0000 H   0  0  0  0  0  0  0  0  0  0  0  0
   11.8758   10.0875    0.0000 H   0  0  0  0  0  0  0  0  0  0  0  0
   15.8463   12.0732    0.0000 H   0  0  0  0  0  0  0  0  0  0  0  0
   15.7074   10.7656    0.0000 H   0  0  0  0  0  0  0  0  0  0  0  0
   15.0687   15.4796    0.0000 H   0  0  0  0  0  0  0  0  0  0  0  0
   16.8476   13.8781    0.0000 H   0  0  0  0  0  0  0  0  0  0  0  0
   14.3368   12.3243    0.0000 H   0  0  0  0  0  0  0  0  0  0  0  0
   16.7039   10.1231    0.0000 H   0  0  0  0  0  0  0  0  0  0  0  0
   19.4644   12.2989    0.0000 H   0  0  0  0  0  0  0  0  0  0  0  0
   18.0504   13.1174    0.0000 H   0  0  0  0  0  0  0  0  0  0  0  0
   19.1344    8.8420    0.0000 H   0  0  0  0  0  0  0  0  0  0  0  0
   17.5384    9.6400    0.0000 H   0  0  0  0  0  0  0  0  0  0  0  0
   21.7858   10.8292    0.0000 H   0  0  0  0  0  0  0  0  0  0  0  0
   20.2989   11.8158    0.0000 H   0  0  0  0  0  0  0  0  0  0  0  0
   20.3727    7.7197    0.0000 H   0  0  0  0  0  0  0  0  0  0  0  0
   24.8727    7.7146    0.0000 H   0  0  0  0  0  0  0  0  0  0  0  0
   22.6212    6.4181    0.0000 H   0  0  0  0  0  0  0  0  0  0  0  0
   24.8757   10.3126    0.0000 H   0  0  0  0  0  0  0  0  0  0  0  0
   22.6272   11.6142    0.0000 H   0  0  0  0  0  0  0  0  0  0  0  0
  1  2  1  0
  2  3  1  0
  3  4  1  0
  4  5  2  0
  4  6  1  0
  6  7  1  0
  7  8  1  0
  8  9  1  0
  8 10  1  0
  7 11  1  0
 11 12  2  0
 11 13  1  0
 13 14  1  0
 14 15  1  0
 15 16  1  0
 16 17  1  0
 17 18  1  0
 18 19  1  0
 19 20  2  3
 19 21  1  0
 14 22  1  0
 22 23  2  0
 22 24  1  0
 24 25  1  0
 25 26  1  0
 26 27  1  0
 27 28  1  0
 28 29  1  0
 28 30  2  0
 25 31  1  0
 31 32  2  0
 31 33  1  0
 34 33  1  6
 34 35  1  0
 35 36  1  0
 36 37  1  0
 37 38  1  0
 34 39  1  0
 34 40  1  0
 40 41  2  0
 40 42  1  0
 42 43  1  0
 43 44  1  0
 44 45  1  0
 45 46  1  0
 46 47  1  0
 47 48  1  0
 48 49  2  3
 48 50  1  0
 43 51  1  0
 51 52  2  0
 51 53  1  0
 53 54  1  0
 54 55  1  0
 55 56  1  0
 56 57  1  0
 57 58  1  0
 58 59  1  0
 59 60  2  3
 59 61  1  0
 54 62  1  0
 62 63  2  0
 62 64  1  0
 64 65  1  0
 65 66  1  0
 66 67  1  0
 67 68  1  0
 67 69  2  0
 65 70  1  0
 70 71  2  0
 70 72  1  0
 72 73  1  0
 73 74  1  0
 74 75  1  0
 75 76  1  0
 76 77  1  0
 73 78  1  0
 78 79  1  0
 79 80  1  0
 80 81  1  0
 73 82  1  0
 82 83  2  0
 82 84  1  0
 84 85  1  0
 85 86  1  0
 86 87  1  0
 87 88  1  0
 88 89  1  0
 89 90  1  0
 90 91  2  3
 90 92  1  0
 85 93  1  0
 93 94  2  0
 93 95  1  0
 95 96  1  0
 96 97  1  0
 97 98  1  0
 98 99  1  0
 99100  1  0
100101  1  0
101102  2  3
101103  1  0
 96104  1  0
104105  2  0
104106  1  0
106107  1  0
107108  1  0
108109  1  0
109110  1  0
110111  1  0
111112  1  0
112113  2  3
112114  1  0
107115  1  0
115116  2  0
115117  1  0
117118  1  0
118119  1  0
119120  1  0
120121  2  0
121122  1  0
122123  1  0
123124  2  0
124125  1  0
125126  2  0
126127  1  0
127128  2  0
118129  1  0
129130  2  0
129131  1  0
131132  1  0
132133  1  0
133134  1  0
134135  1  0
135136  1  0
136137  1  0
137138  2  3
137139  1  0
132140  1  0
140141  2  0
140142  1  0
142143  1  0
143144  1  0
144145  1  0
145146  1  0
146147  2  0
146148  1  0
143149  1  0
149150  2  0
149151  1  0
151152  1  0
152153  1  0
153154  1  0
154155  1  0
155156  1  0
156157  1  0
157158  1  0
158159  1  0
152160  1  0
152161  1  1
161162  2  0
161163  1  0
163164  1  0
164165  1  0
165166  1  0
166167  1  0
167168  1  0
167169  2  0
164170  1  0
170171  2  0
170172  1  0
172173  1  0
173174  1  0
174175  1  0
175176  1  0
176177  1  0
177178  1  0
178179  2  3
178180  1  0
173181  1  0
181182  2  0
181183  1  0
128120  1  0
128123  1  0
 38 77  2  0
 81159  2  0
  1184  1  0
  1185  1  0
  2186  1  0
  2187  1  0
  3188  1  0
  3189  1  0
  6190  1  0
  7191  1  6
  8192  1  1
  9193  1  0
 10194  1  0
 10195  1  0
 10196  1  0
 13197  1  0
 14198  1  1
 15199  1  0
 15200  1  0
 16201  1  0
 16202  1  0
 17203  1  0
 17204  1  0
 18205  1  0
 20206  1  0
 20207  1  0
 21208  1  0
 21209  1  0
 24210  1  0
 25211  1  6
 26212  1  0
 26213  1  0
 27214  1  0
 27215  1  0
 29216  1  0
 29217  1  0
 33218  1  0
 35219  1  0
 35220  1  0
 36221  1  0
 36222  1  0
 37223  1  0
 37224  1  0
 38225  1  0
 39226  1  0
 39227  1  0
 39228  1  0
 42229  1  0
 43230  1  1
 44231  1  0
 44232  1  0
 45233  1  0
 45234  1  0
 46235  1  0
 46236  1  0
 47237  1  0
 49238  1  0
 49239  1  0
 50240  1  0
 50241  1  0
 53242  1  0
 54243  1  1
 55244  1  0
 55245  1  0
 56246  1  0
 56247  1  0
 57248  1  0
 57249  1  0
 58250  1  0
 60251  1  0
 60252  1  0
 61253  1  0
 61254  1  0
 64255  1  0
 65256  1  1
 66257  1  0
 66258  1  0
 68259  1  0
 68260  1  0
 72261  1  0
 74262  1  0
 74263  1  0
 75264  1  0
 75265  1  0
 76266  1  0
 76267  1  0
 77268  1  0
 78269  1  0
 78270  1  0
 79271  1  0
 79272  1  0
 80273  1  0
 80274  1  0
 81275  1  0
 84276  1  0
 85277  1  6
 86278  1  0
 86279  1  0
 87280  1  0
 87281  1  0
 88282  1  0
 88283  1  0
 89284  1  0
 91285  1  0
 91286  1  0
 92287  1  0
 92288  1  0
 95289  1  0
 96290  1  6
 97291  1  0
 97292  1  0
 98293  1  0
 98294  1  0
 99295  1  0
 99296  1  0
100297  1  0
102298  1  0
102299  1  0
103300  1  0
103301  1  0
106302  1  0
107303  1  6
108304  1  0
108305  1  0
109306  1  0
109307  1  0
110308  1  0
110309  1  0
111310  1  0
113311  1  0
113312  1  0
114313  1  0
114314  1  0
117315  1  0
118316  1  6
119317  1  0
119318  1  0
121319  1  0
122320  1  0
124321  1  0
125322  1  0
126323  1  0
127324  1  0
131325  1  0
132326  1  6
133327  1  0
133328  1  0
134329  1  0
134330  1  0
135331  1  0
135332  1  0
136333  1  0
138334  1  0
138335  1  0
139336  1  0
139337  1  0
142338  1  0
143339  1  6
144340  1  0
144341  1  0
145342  1  0
145343  1  0
151344  1  0
153345  1  0
153346  1  0
154347  1  0
154348  1  0
155349  1  0
155350  1  0
156351  1  0
156352  1  0
157353  1  0
157354  1  0
158355  1  0
158356  1  0
159357  1  0
160358  1  0
160359  1  0
160360  1  0
163361  1  0
164362  1  1
165363  1  0
165364  1  0
166365  1  0
166366  1  0
168367  1  0
168368  1  0
172369  1  0
173370  1  6
174371  1  0
174372  1  0
175373  1  0
175374  1  0
176375  1  0
176376  1  0
177377  1  0
179378  1  0
179379  1  0
180380  1  0
180381  1  0
M  CHG  8  20   1  49   1  60   1  91   1 102   1 113   1 138   1 148  -1
M  CHG  2 179   1 183  -1
M  END
