
     RDKit          2D

301304  0  0  0  0  0  0  0  0999 V2000
  -26.9995   -0.7434    0.0000 N   0  0  0  0  0  0  0  0  0  0  0  0
  -25.5781   -1.2225    0.0000 C   0  0  0  0  0  0  0  0  0  0  0  0
  -24.4525   -0.2311    0.0000 C   0  0  0  0  0  0  0  0  0  0  0  0
  -23.0311   -0.7103    0.0000 C   0  0  0  0  0  0  0  0  0  0  0  0
  -22.9385   -1.9218    0.0000 O   0  0  0  0  0  0  0  0  0  0  0  0
  -21.9054    0.2811    0.0000 N   0  0  0  0  0  0  0  0  0  0  0  0
  -20.4840   -0.1980    0.0000 C   0  0  0  0  0  0  0  0  0  0  0  0
  -21.2027   -1.5147    0.0000 C   0  0  0  0  0  0  0  0  0  0  0  0
  -20.4218   -2.7954    0.0000 C   0  0  0  0  0  0  0  0  0  0  0  0
  -21.1405   -4.1120    0.0000 C   0  0  0  0  0  0  0  0  0  0  0  0
  -19.2500   -3.7318    0.0000 C   0  0  0  0  0  0  0  0  0  0  0  0
  -18.9844   -0.1621    0.0000 C   0  0  0  0  0  0  0  0  0  0  0  0
  -18.2035   -1.4429    0.0000 O   0  0  0  0  0  0  0  0  0  0  0  0
  -18.2657    1.1545    0.0000 N   0  0  0  0  0  0  0  0  0  0  0  0
  -16.7661    1.1904    0.0000 C   0  0  0  0  0  0  0  0  0  0  0  0
  -17.0619    2.6609    0.0000 C   0  0  0  0  0  0  0  0  0  0  0  0
  -18.4143    3.3098    0.0000 O   0  0  0  0  0  0  0  0  0  0  0  0
  -15.3447    0.7112    0.0000 C   0  0  0  0  0  0  0  0  0  0  0  0
  -15.2304   -0.7844    0.0000 O   0  0  0  0  0  0  0  0  0  0  0  0
  -14.2191    1.7026    0.0000 N   0  0  0  0  0  0  0  0  0  0  0  0
  -12.7976    1.2235    0.0000 C   0  0  0  0  0  0  0  0  0  0  0  0
  -12.2164   -0.1593    0.0000 C   0  0  0  0  0  0  0  0  0  0  0  0
  -11.2533   -1.3094    0.0000 C   0  0  0  0  0  0  0  0  0  0  0  0
   -9.9941   -2.1244    0.0000 C   0  0  0  0  0  0  0  0  0  0  0  0
   -8.5506   -2.5321    0.0000 C   0  0  0  0  0  0  0  0  0  0  0  0
  -13.9453    0.2576    0.0000 C   0  0  0  0  0  0  0  0  0  0  0  0
  -12.9455    2.7162    0.0000 C   0  0  0  0  0  0  0  0  0  0  0  0
  -14.0227    2.9045    0.0000 O   0  0  0  0  0  0  0  0  0  0  0  0
  -12.6468    4.1861    0.0000 N   0  0  0  0  0  0  0  0  0  0  0  0
  -11.9281    5.5027    0.0000 C   0  0  0  0  0  0  0  0  0  0  0  0
  -13.4238    5.6163    0.0000 C   0  0  0  0  0  0  0  0  0  0  0  0
  -14.0733    6.9684    0.0000 C   0  0  0  0  0  0  0  0  0  0  0  0
  -15.5690    7.0820    0.0000 C   0  0  0  0  0  0  0  0  0  0  0  0
  -16.2185    8.4341    0.0000 O   0  0  0  0  0  0  0  0  0  0  0  0
  -16.4152    5.8435    0.0000 O   0  0  0  0  0  0  0  0  0  0  0  0
  -10.8533    6.5490    0.0000 C   0  0  0  0  0  0  0  0  0  0  0  0
  -11.7277    7.7678    0.0000 O   0  0  0  0  0  0  0  0  0  0  0  0
   -9.5178    7.2320    0.0000 N   0  0  0  0  0  0  0  0  0  0  0  0
   -8.0403    7.4910    0.0000 C   0  0  0  0  0  0  0  0  0  0  0  0
   -8.8841    8.7312    0.0000 C   0  0  0  0  0  0  0  0  0  0  0  0
  -10.1011    9.6080    0.0000 O   0  0  0  0  0  0  0  0  0  0  0  0
   -8.2319   10.0820    0.0000 C   0  0  0  0  0  0  0  0  0  0  0  0
   -6.5521    7.3030    0.0000 C   0  0  0  0  0  0  0  0  0  0  0  0
   -6.1444    8.7465    0.0000 O   0  0  0  0  0  0  0  0  0  0  0  0
   -5.1855    6.6847    0.0000 N   0  0  0  0  0  0  0  0  0  0  0  0
   -4.0618    5.6910    0.0000 C   0  0  0  0  0  0  0  0  0  0  0  0
   -3.6183    7.1240    0.0000 C   0  0  0  0  0  0  0  0  0  0  0  0
   -3.2809    4.4103    0.0000 C   0  0  0  0  0  0  0  0  0  0  0  0
   -2.3330    5.5728    0.0000 O   0  0  0  0  0  0  0  0  0  0  0  0
   -2.9123    2.9563    0.0000 N   0  0  0  0  0  0  0  0  0  0  0  0
   -2.9885    1.4583    0.0000 C   0  0  0  0  0  0  0  0  0  0  0  0
   -3.5030    0.0493    0.0000 C   0  0  0  0  0  0  0  0  0  0  0  0
   -4.4099   -1.1455    0.0000 C   0  0  0  0  0  0  0  0  0  0  0  0
   -5.6287   -2.0199    0.0000 C   0  0  0  0  0  0  0  0  0  0  0  0
   -7.0510   -2.4962    0.0000 C   0  0  0  0  0  0  0  0  0  0  0  0
   -1.9043    2.6265    0.0000 C   0  0  0  0  0  0  0  0  0  0  0  0
   -1.2657    3.8351    0.0000 C   0  0  0  0  0  0  0  0  0  0  0  0
   -0.4100    4.9010    0.0000 C   0  0  0  0  0  0  0  0  0  0  0  0
    0.6321    5.7857    0.0000 C   0  0  0  0  0  0  0  0  0  0  0  0
   -2.4462   -0.0405    0.0000 C   0  0  0  0  0  0  0  0  0  0  0  0
   -4.6461   -0.0183    0.0000 O   0  0  0  0  0  0  0  0  0  0  0  0
   -2.3299   -1.4024    0.0000 N   0  0  0  0  0  0  0  0  0  0  0  0
   -1.9581   -2.7178    0.0000 C   0  0  0  0  0  0  0  0  0  0  0  0
   -3.5120   -4.1703    0.0000 C   0  0  0  0  0  0  0  0  0  0  0  0
   -2.9244   -5.5504    0.0000 C   0  0  0  0  0  0  0  0  0  0  0  0
   -3.8259   -6.7493    0.0000 O   0  0  0  0  0  0  0  0  0  0  0  0
   -1.5235   -6.0866    0.0000 O   0  0  0  0  0  0  0  0  0  0  0  0
   -1.3440   -3.9390    0.0000 C   0  0  0  0  0  0  0  0  0  0  0  0
   -2.4146   -4.8932    0.0000 O   0  0  0  0  0  0  0  0  0  0  0  0
   -0.5098   -5.0219    0.0000 N   0  0  0  0  0  0  0  0  0  0  0  0
    0.5141   -5.9274    0.0000 C   0  0  0  0  0  0  0  0  0  0  0  0
   -0.0078   -7.9895    0.0000 C   0  0  0  0  0  0  0  0  0  0  0  0
   -1.3584   -8.6420    0.0000 C   0  0  0  0  0  0  0  0  0  0  0  0
   -1.4686  -10.1379    0.0000 C   0  0  0  0  0  0  0  0  0  0  0  0
   -2.8508   -8.7932    0.0000 C   0  0  0  0  0  0  0  0  0  0  0  0
    1.6910   -6.6228    0.0000 C   0  0  0  0  0  0  0  0  0  0  0  0
    0.9273   -8.6822    0.0000 O   0  0  0  0  0  0  0  0  0  0  0  0
    2.9782   -7.0828    0.0000 N   0  0  0  0  0  0  0  0  0  0  0  0
    4.3291   -7.2910    0.0000 C   0  0  0  0  0  0  0  0  0  0  0  0
    5.0049   -9.3079    0.0000 C   0  0  0  0  0  0  0  0  0  0  0  0
    4.2214  -10.5870    0.0000 C   0  0  0  0  0  0  0  0  0  0  0  0
    2.7261  -10.7051    0.0000 C   0  0  0  0  0  0  0  0  0  0  0  0
    2.3763  -12.1637    0.0000 N   0  0  0  0  0  0  0  0  0  0  0  0
    3.6554  -12.9471    0.0000 C   0  0  0  0  0  0  0  0  0  0  0  0
    3.9292  -14.4220    0.0000 C   0  0  0  0  0  0  0  0  0  0  0  0
    5.3432  -14.9223    0.0000 C   0  0  0  0  0  0  0  0  0  0  0  0
    6.4836  -13.9479    0.0000 C   0  0  0  0  0  0  0  0  0  0  0  0
    6.2099  -12.4730    0.0000 C   0  0  0  0  0  0  0  0  0  0  0  0
    4.7958  -11.9727    0.0000 C   0  0  0  0  0  0  0  0  0  0  0  0
    5.6951   -7.2397    0.0000 C   0  0  0  0  0  0  0  0  0  0  0  0
    6.1660   -9.3850    0.0000 O   0  0  0  0  0  0  0  0  0  0  0  0
    7.0267   -6.9308    0.0000 N   0  0  0  0  0  0  0  0  0  0  0  0
    8.2757   -6.3755    0.0000 C   0  0  0  0  0  0  0  0  0  0  0  0
    9.9346   -7.7069    0.0000 C   0  0  0  0  0  0  0  0  0  0  0  0
    9.9671   -9.2065    0.0000 C   0  0  0  0  0  0  0  0  0  0  0  0
   11.2821   -9.9282    0.0000 C   0  0  0  0  0  0  0  0  0  0  0  0
   11.3146  -11.4279    0.0000 C   0  0  0  0  0  0  0  0  0  0  0  0
   12.6295  -12.1496    0.0000 N   0  0  0  0  0  0  0  0  0  0  0  0
    9.3971   -5.5939    0.0000 C   0  0  0  0  0  0  0  0  0  0  0  0
   10.9531   -7.1441    0.0000 O   0  0  0  0  0  0  0  0  0  0  0  0
   10.3503   -4.6141    0.0000 N   0  0  0  0  0  0  0  0  0  0  0  0
   11.1009   -3.4717    0.0000 C   0  0  0  0  0  0  0  0  0  0  0  0
   13.2162   -3.6949    0.0000 C   0  0  0  0  0  0  0  0  0  0  0  0
   14.0543   -4.9389    0.0000 C   0  0  0  0  0  0  0  0  0  0  0  0
   15.5507   -4.8351    0.0000 C   0  0  0  0  0  0  0  0  0  0  0  0
   14.4164   -6.3945    0.0000 C   0  0  0  0  0  0  0  0  0  0  0  0
   11.6216   -2.2079    0.0000 C   0  0  0  0  0  0  0  0  0  0  0  0
   13.7688   -2.6707    0.0000 O   0  0  0  0  0  0  0  0  0  0  0  0
   11.8938   -0.8683    0.0000 N   0  0  0  0  0  0  0  0  0  0  0  0
   11.9076    0.4985    0.0000 C   0  0  0  0  0  0  0  0  0  0  0  0
   13.8078    1.4544    0.0000 C   0  0  0  0  0  0  0  0  0  0  0  0
   15.1854    0.8610    0.0000 C   0  0  0  0  0  0  0  0  0  0  0  0
   16.3881    1.7573    0.0000 C   0  0  0  0  0  0  0  0  0  0  0  0
   16.2770   -0.1678    0.0000 C   0  0  0  0  0  0  0  0  0  0  0  0
   11.6624    1.8433    0.0000 C   0  0  0  0  0  0  0  0  0  0  0  0
   13.7189    2.6147    0.0000 O   0  0  0  0  0  0  0  0  0  0  0  0
   11.1672    3.1173    0.0000 N   0  0  0  0  0  0  0  0  0  0  0  0
   10.4398    4.2747    0.0000 C   0  0  0  0  0  0  0  0  0  0  0  0
    9.5065    5.2734    0.0000 C   0  0  0  0  0  0  0  0  0  0  0  0
    8.4011    6.0774    0.0000 C   0  0  0  0  0  0  0  0  0  0  0  0
    7.1635    6.6578    0.0000 C   0  0  0  0  0  0  0  0  0  0  0  0
    5.8384    6.9934    0.0000 C   0  0  0  0  0  0  0  0  0  0  0  0
    4.4737    7.0722    0.0000 C   0  0  0  0  0  0  0  0  0  0  0  0
    3.1188    6.8913    0.0000 C   0  0  0  0  0  0  0  0  0  0  0  0
    1.8227    6.4572    0.0000 C   0  0  0  0  0  0  0  0  0  0  0  0
   12.4867    4.8530    0.0000 C   0  0  0  0  0  0  0  0  0  0  0  0
   11.5215    6.1061    0.0000 C   0  0  0  0  0  0  0  0  0  0  0  0
   10.8777    7.4609    0.0000 O   0  0  0  0  0  0  0  0  0  0  0  0
   13.0013    6.3517    0.0000 N   0  0  0  0  0  0  0  0  0  0  0  0
   13.5285    7.7560    0.0000 C   0  0  0  0  0  0  0  0  0  0  0  0
   13.5436    9.2559    0.0000 C   0  0  0  0  0  0  0  0  0  0  0  0
   14.8501    9.9928    0.0000 C   0  0  0  0  0  0  0  0  0  0  0  0
   14.8652   11.4927    0.0000 C   0  0  0  0  0  0  0  0  0  0  0  0
   15.8428   12.2142    0.0000 O   0  0  0  0  0  0  0  0  0  0  0  0
   13.5738   12.2558    0.0000 O   0  0  0  0  0  0  0  0  0  0  0  0
   15.0083    8.0016    0.0000 C   0  0  0  0  0  0  0  0  0  0  0  0
   15.9608    6.8429    0.0000 O   0  0  0  0  0  0  0  0  0  0  0  0
   15.5354    9.4059    0.0000 N   0  0  0  0  0  0  0  0  0  0  0  0
   17.0152    9.6515    0.0000 C   0  0  0  0  0  0  0  0  0  0  0  0
   18.4897    9.3762    0.0000 C   0  0  0  0  0  0  0  0  0  0  0  0
   18.9885    7.9615    0.0000 C   0  0  0  0  0  0  0  0  0  0  0  0
   20.4630    7.6862    0.0000 N   0  0  0  0  0  0  0  0  0  0  0  0
   18.0128    6.8222    0.0000 O   0  0  0  0  0  0  0  0  0  0  0  0
   17.5424   11.0558    0.0000 C   0  0  0  0  0  0  0  0  0  0  0  0
   18.9812   11.4799    0.0000 O   0  0  0  0  0  0  0  0  0  0  0  0
   16.8910   12.0814    0.0000 O   0  0  0  0  0  0  0  0  0  0  0  0
  -28.1252   -1.7348    0.0000 H   0  0  0  0  0  0  0  0  0  0  0  0
  -27.2953    0.7272    0.0000 H   0  0  0  0  0  0  0  0  0  0  0  0
  -26.2968   -2.5392    0.0000 H   0  0  0  0  0  0  0  0  0  0  0  0
  -24.4063   -2.1590    0.0000 H   0  0  0  0  0  0  0  0  0  0  0  0
  -25.6243    0.7053    0.0000 H   0  0  0  0  0  0  0  0  0  0  0  0
  -23.7338    1.0855    0.0000 H   0  0  0  0  0  0  0  0  0  0  0  0
  -22.2011    1.7517    0.0000 H   0  0  0  0  0  0  0  0  0  0  0  0
  -20.2589    1.2850    0.0000 H   0  0  0  0  0  0  0  0  0  0  0  0
  -22.1145   -2.3177    0.0000 H   0  0  0  0  0  0  0  0  0  0  0  0
  -22.1967   -1.0590    0.0000 H   0  0  0  0  0  0  0  0  0  0  0  0
  -19.2961   -1.8040    0.0000 H   0  0  0  0  0  0  0  0  0  0  0  0
  -20.5216   -5.4783    0.0000 H   0  0  0  0  0  0  0  0  0  0  0  0
  -22.2662   -5.1034    0.0000 H   0  0  0  0  0  0  0  0  0  0  0  0
  -22.4177   -3.3254    0.0000 H   0  0  0  0  0  0  0  0  0  0  0  0
  -19.2926   -5.2312    0.0000 H   0  0  0  0  0  0  0  0  0  0  0  0
  -17.8286   -4.2109    0.0000 H   0  0  0  0  0  0  0  0  0  0  0  0
  -18.5313   -2.4152    0.0000 H   0  0  0  0  0  0  0  0  0  0  0  0
  -19.1969    2.3305    0.0000 H   0  0  0  0  0  0  0  0  0  0  0  0
  -16.9912   -0.2927    0.0000 H   0  0  0  0  0  0  0  0  0  0  0  0
  -16.8368    4.1439    0.0000 H   0  0  0  0  0  0  0  0  0  0  0  0
  -15.5623    2.6968    0.0000 H   0  0  0  0  0  0  0  0  0  0  0  0
  -18.7790    4.6106    0.0000 H   0  0  0  0  0  0  0  0  0  0  0  0
  -14.5637    2.7404    0.0000 H   0  0  0  0  0  0  0  0  0  0  0  0
  -12.8686   -1.5101    0.0000 H   0  0  0  0  0  0  0  0  0  0  0  0
  -13.7094   -0.3035    0.0000 H   0  0  0  0  0  0  0  0  0  0  0  0
  -11.6575   -2.7539    0.0000 H   0  0  0  0  0  0  0  0  0  0  0  0
  -12.6376   -1.8872    0.0000 H   0  0  0  0  0  0  0  0  0  0  0  0
   -9.7720   -3.6079    0.0000 H   0  0  0  0  0  0  0  0  0  0  0  0
  -11.1465   -3.0846    0.0000 H   0  0  0  0  0  0  0  0  0  0  0  0
   -8.7386   -4.0203    0.0000 H   0  0  0  0  0  0  0  0  0  0  0  0
  -15.2904    0.1309    0.0000 H   0  0  0  0  0  0  0  0  0  0  0  0
  -14.2150   -1.3012    0.0000 H   0  0  0  0  0  0  0  0  0  0  0  0
  -12.9916   -1.1238    0.0000 H   0  0  0  0  0  0  0  0  0  0  0  0
  -14.0558    4.7006    0.0000 H   0  0  0  0  0  0  0  0  0  0  0  0
  -12.2640    6.9646    0.0000 H   0  0  0  0  0  0  0  0  0  0  0  0
  -14.8682    5.2115    0.0000 H   0  0  0  0  0  0  0  0  0  0  0  0
  -13.6415    4.1322    0.0000 H   0  0  0  0  0  0  0  0  0  0  0  0
  -14.2211    8.4611    0.0000 H   0  0  0  0  0  0  0  0  0  0  0  0
  -12.6891    7.5463    0.0000 H   0  0  0  0  0  0  0  0  0  0  0  0
   -9.9941    8.6544    0.0000 H   0  0  0  0  0  0  0  0  0  0  0  0
   -7.1068    8.6651    0.0000 H   0  0  0  0  0  0  0  0  0  0  0  0
  -10.1801    7.9761    0.0000 H   0  0  0  0  0  0  0  0  0  0  0  0
  -10.1333   11.1077    0.0000 H   0  0  0  0  0  0  0  0  0  0  0  0
   -8.9181   11.4158    0.0000 H   0  0  0  0  0  0  0  0  0  0  0  0
   -7.1570   11.1283    0.0000 H   0  0  0  0  0  0  0  0  0  0  0  0
   -6.9170    9.3601    0.0000 H   0  0  0  0  0  0  0  0  0  0  0  0
   -4.5300    8.0339    0.0000 H   0  0  0  0  0  0  0  0  0  0  0  0
   -2.6069    6.0561    0.0000 H   0  0  0  0  0  0  0  0  0  0  0  0
   -4.4957    8.3406    0.0000 H   0  0  0  0  0  0  0  0  0  0  0  0
   -2.7114    8.3188    0.0000 H   0  0  0  0  0  0  0  0  0  0  0  0
   -2.2105    6.6060    0.0000 H   0  0  0  0  0  0  0  0  0  0  0  0
   -1.4196    3.1042    0.0000 H   0  0  0  0  0  0  0  0  0  0  0  0
   -2.0071    0.1599    0.0000 H   0  0  0  0  0  0  0  0  0  0  0  0
   -2.9529   -1.3463    0.0000 H   0  0  0  0  0  0  0  0  0  0  0  0
   -3.1651   -1.9826    0.0000 H   0  0  0  0  0  0  0  0  0  0  0  0
   -4.4787   -2.6440    0.0000 H   0  0  0  0  0  0  0  0  0  0  0  0
   -4.6859   -3.1867    0.0000 H   0  0  0  0  0  0  0  0  0  0  0  0
   -5.7795   -3.5123    0.0000 H   0  0  0  0  0  0  0  0  0  0  0  0
   -6.7920   -3.9737    0.0000 H   0  0  0  0  0  0  0  0  0  0  0  0
   -4.0312    2.6476    0.0000 H   0  0  0  0  0  0  0  0  0  0  0  0
   -3.2738    4.2078    0.0000 H   0  0  0  0  0  0  0  0  0  0  0  0
   -3.2367    4.7933    0.0000 H   0  0  0  0  0  0  0  0  0  0  0  0
   -2.1337    5.6925    0.0000 H   0  0  0  0  0  0  0  0  0  0  0  0
   -2.2553    6.0561    0.0000 H   0  0  0  0  0  0  0  0  0  0  0  0
   -1.2738    6.8448    0.0000 H   0  0  0  0  0  0  0  0  0  0  0  0
   -0.6260    7.5905    0.0000 H   0  0  0  0  0  0  0  0  0  0  0  0
   -4.2998   -2.3081    0.0000 H   0  0  0  0  0  0  0  0  0  0  0  0
   -4.1076   -2.8779    0.0000 H   0  0  0  0  0  0  0  0  0  0  0  0
   -4.7691   -4.9886    0.0000 H   0  0  0  0  0  0  0  0  0  0  0  0
   -4.8609   -3.5143    0.0000 H   0  0  0  0  0  0  0  0  0  0  0  0
   -2.2339   -6.3828    0.0000 H   0  0  0  0  0  0  0  0  0  0  0  0
   -1.3455   -6.8855    0.0000 H   0  0  0  0  0  0  0  0  0  0  0  0
    0.4003   -9.4329    0.0000 H   0  0  0  0  0  0  0  0  0  0  0  0
    1.4768   -8.2038    0.0000 H   0  0  0  0  0  0  0  0  0  0  0  0
   -2.1037   -7.3402    0.0000 H   0  0  0  0  0  0  0  0  0  0  0  0
   -2.7297  -10.9503    0.0000 H   0  0  0  0  0  0  0  0  0  0  0  0
   -1.0606  -11.5814    0.0000 H   0  0  0  0  0  0  0  0  0  0  0  0
    0.0310  -10.1697    0.0000 H   0  0  0  0  0  0  0  0  0  0  0  0
   -3.6282  -10.0761    0.0000 H   0  0  0  0  0  0  0  0  0  0  0  0
   -4.3049   -8.4249    0.0000 H   0  0  0  0  0  0  0  0  0  0  0  0
   -2.7406   -7.2973    0.0000 H   0  0  0  0  0  0  0  0  0  0  0  0
    2.2635   -9.1597    0.0000 H   0  0  0  0  0  0  0  0  0  0  0  0
    3.4258   -9.2167    0.0000 H   0  0  0  0  0  0  0  0  0  0  0  0
    5.9990  -10.4311    0.0000 H   0  0  0  0  0  0  0  0  0  0  0  0
    6.3697   -8.6856    0.0000 H   0  0  0  0  0  0  0  0  0  0  0  0
    1.6199   -9.6920    0.0000 H   0  0  0  0  0  0  0  0  0  0  0  0
    0.9906  -12.7381    0.0000 H   0  0  0  0  0  0  0  0  0  0  0  0
    2.7888  -15.3964    0.0000 H   0  0  0  0  0  0  0  0  0  0  0  0
    5.6170  -16.3971    0.0000 H   0  0  0  0  0  0  0  0  0  0  0  0
    7.8977  -14.4482    0.0000 H   0  0  0  0  0  0  0  0  0  0  0  0
    7.3503  -11.4986    0.0000 H   0  0  0  0  0  0  0  0  0  0  0  0
    7.5483   -9.0644    0.0000 H   0  0  0  0  0  0  0  0  0  0  0  0
    8.3747   -8.4651    0.0000 H   0  0  0  0  0  0  0  0  0  0  0  0
   11.4171   -7.9353    0.0000 H   0  0  0  0  0  0  0  0  0  0  0  0
   10.7463   -6.4455    0.0000 H   0  0  0  0  0  0  0  0  0  0  0  0
    9.3152  -10.5575    0.0000 H   0  0  0  0  0  0  0  0  0  0  0  0
    8.4734   -9.3437    0.0000 H   0  0  0  0  0  0  0  0  0  0  0  0
   12.7814   -9.9742    0.0000 H   0  0  0  0  0  0  0  0  0  0  0  0
   11.9340   -8.5773    0.0000 H   0  0  0  0  0  0  0  0  0  0  0  0
   10.8322  -12.8482    0.0000 H   0  0  0  0  0  0  0  0  0  0  0  0
    9.8153  -11.3819    0.0000 H   0  0  0  0  0  0  0  0  0  0  0  0
   12.6620  -13.6492    0.0000 H   0  0  0  0  0  0  0  0  0  0  0  0
   14.1121  -12.3780    0.0000 H   0  0  0  0  0  0  0  0  0  0  0  0
   13.2814  -10.7986    0.0000 H   0  0  0  0  0  0  0  0  0  0  0  0
   11.9427   -6.1270    0.0000 H   0  0  0  0  0  0  0  0  0  0  0  0
   12.3138   -5.1760    0.0000 H   0  0  0  0  0  0  0  0  0  0  0  0
   14.5868   -3.0855    0.0000 H   0  0  0  0  0  0  0  0  0  0  0  0
   13.2171   -2.1949    0.0000 H   0  0  0  0  0  0  0  0  0  0  0  0
   12.8718   -5.8618    0.0000 H   0  0  0  0  0  0  0  0  0  0  0  0
   16.5342   -5.9677    0.0000 H   0  0  0  0  0  0  0  0  0  0  0  0
   16.9213   -4.2257    0.0000 H   0  0  0  0  0  0  0  0  0  0  0  0
   15.3687   -3.3462    0.0000 H   0  0  0  0  0  0  0  0  0  0  0  0
   15.7968   -6.9814    0.0000 H   0  0  0  0  0  0  0  0  0  0  0  0
   14.2588   -7.8862    0.0000 H   0  0  0  0  0  0  0  0  0  0  0  0
   12.9200   -6.4984    0.0000 H   0  0  0  0  0  0  0  0  0  0  0  0
   14.0513   -1.2801    0.0000 H   0  0  0  0  0  0  0  0  0  0  0  0
   13.8495   -0.2795    0.0000 H   0  0  0  0  0  0  0  0  0  0  0  0
   14.6314    2.7081    0.0000 H   0  0  0  0  0  0  0  0  0  0  0  0
   12.9976    2.7168    0.0000 H   0  0  0  0  0  0  0  0  0  0  0  0
   14.6896   -0.5547    0.0000 H   0  0  0  0  0  0  0  0  0  0  0  0
   17.8278    1.3363    0.0000 H   0  0  0  0  0  0  0  0  0  0  0  0
   17.2118    3.0110    0.0000 H   0  0  0  0  0  0  0  0  0  0  0  0
   15.4301    2.9115    0.0000 H   0  0  0  0  0  0  0  0  0  0  0  0
   17.7556    0.0848    0.0000 H   0  0  0  0  0  0  0  0  0  0  0  0
   16.9509   -1.5079    0.0000 H   0  0  0  0  0  0  0  0  0  0  0  0
   15.0743   -1.0642    0.0000 H   0  0  0  0  0  0  0  0  0  0  0  0
   13.2048    3.9373    0.0000 H   0  0  0  0  0  0  0  0  0  0  0  0
   10.2221    7.2765    0.0000 H   0  0  0  0  0  0  0  0  0  0  0  0
   11.2600    6.5636    0.0000 H   0  0  0  0  0  0  0  0  0  0  0  0
    8.9077    8.1725    0.0000 H   0  0  0  0  0  0  0  0  0  0  0  0
    9.8787    7.6762    0.0000 H   0  0  0  0  0  0  0  0  0  0  0  0
    7.2644    8.8109    0.0000 H   0  0  0  0  0  0  0  0  0  0  0  0
    8.4501    8.3871    0.0000 H   0  0  0  0  0  0  0  0  0  0  0  0
    5.5301    9.1267    0.0000 H   0  0  0  0  0  0  0  0  0  0  0  0
    6.7745    8.9350    0.0000 H   0  0  0  0  0  0  0  0  0  0  0  0
    3.7673    9.1086    0.0000 H   0  0  0  0  0  0  0  0  0  0  0  0
    5.0255    9.1558    0.0000 H   0  0  0  0  0  0  0  0  0  0  0  0
    1.9023    8.6361    0.0000 H   0  0  0  0  0  0  0  0  0  0  0  0
    3.2663    9.0417    0.0000 H   0  0  0  0  0  0  0  0  0  0  0  0
    0.9289    8.4675    0.0000 H   0  0  0  0  0  0  0  0  0  0  0  0
   13.4147    6.0316    0.0000 H   0  0  0  0  0  0  0  0  0  0  0  0
   13.9408    4.4848    0.0000 H   0  0  0  0  0  0  0  0  0  0  0  0
   12.7418    3.3749    0.0000 H   0  0  0  0  0  0  0  0  0  0  0  0
   14.0880    5.3177    0.0000 H   0  0  0  0  0  0  0  0  0  0  0  0
   12.0540    8.0313    0.0000 H   0  0  0  0  0  0  0  0  0  0  0  0
   13.0448   10.6706    0.0000 H   0  0  0  0  0  0  0  0  0  0  0  0
   12.0638    9.0103    0.0000 H   0  0  0  0  0  0  0  0  0  0  0  0
   16.3299   10.2384    0.0000 H   0  0  0  0  0  0  0  0  0  0  0  0
   15.9548    8.9781    0.0000 H   0  0  0  0  0  0  0  0  0  0  0  0
   14.8916   10.7607    0.0000 H   0  0  0  0  0  0  0  0  0  0  0  0
   17.0001    8.1516    0.0000 H   0  0  0  0  0  0  0  0  0  0  0  0
   19.9695    9.6217    0.0000 H   0  0  0  0  0  0  0  0  0  0  0  0
   18.6875   10.8631    0.0000 H   0  0  0  0  0  0  0  0  0  0  0  0
   20.9619    6.2716    0.0000 H   0  0  0  0  0  0  0  0  0  0  0  0
   21.4387    8.8255    0.0000 H   0  0  0  0  0  0  0  0  0  0  0  0
  1  2  1  0
  2  3  1  0
  3  4  1  0
  4  5  2  0
  4  6  1  0
  6  7  1  0
  7  8  1  0
  8  9  1  0
  9 10  1  0
  9 11  1  0
  7 12  1  0
 12 13  2  0
 12 14  1  0
 14 15  1  0
 15 16  1  0
 16 17  1  0
 15 18  1  0
 18 19  2  0
 18 20  1  0
 21 20  1  6
 21 22  1  0
 22 23  1  0
 23 24  1  0
 24 25  1  0
 21 26  1  0
 21 27  1  0
 27 28  2  0
 27 29  1  0
 29 30  1  0
 30 31  1  0
 31 32  1  0
 32 33  1  0
 33 34  2  0
 33 35  1  0
 30 36  1  0
 36 37  2  0
 36 38  1  0
 38 39  1  0
 39 40  1  0
 40 41  1  0
 40 42  1  0
 39 43  1  0
 43 44  2  0
 43 45  1  0
 45 46  1  0
 46 47  1  0
 46 48  1  0
 48 49  2  0
 48 50  1  0
 50 51  1  0
 51 52  1  0
 52 53  1  0
 53 54  1  0
 54 55  1  0
 51 56  1  0
 56 57  1  0
 57 58  1  0
 58 59  1  0
 51 60  1  0
 60 61  2  0
 60 62  1  0
 62 63  1  0
 63 64  1  0
 64 65  1  0
 65 66  2  0
 65 67  1  0
 63 68  1  0
 68 69  2  0
 68 70  1  0
 70 71  1  0
 71 72  1  0
 72 73  1  0
 73 74  1  0
 73 75  1  0
 71 76  1  0
 76 77  2  0
 76 78  1  0
 78 79  1  0
 79 80  1  0
 80 81  1  0
 81 82  2  0
 82 83  1  0
 83 84  1  0
 84 85  2  0
 85 86  1  0
 86 87  2  0
 87 88  1  0
 88 89  2  0
 79 90  1  0
 90 91  2  0
 90 92  1  0
 92 93  1  0
 93 94  1  0
 94 95  1  0
 95 96  1  0
 96 97  1  0
 97 98  1  0
 93 99  1  0
 99100  2  0
 99101  1  0
101102  1  0
102103  1  0
103104  1  0
104105  1  0
104106  1  0
102107  1  0
107108  2  0
107109  1  0
109110  1  0
110111  1  0
111112  1  0
112113  1  0
112114  1  0
110115  1  0
115116  2  0
115117  1  0
117118  1  0
118119  1  0
119120  1  0
120121  1  0
121122  1  0
122123  1  0
123124  1  0
124125  1  0
118126  1  0
118127  1  1
127128  2  0
127129  1  0
129130  1  0
130131  1  0
131132  1  0
132133  1  0
133134  2  0
133135  1  0
130136  1  0
136137  2  0
136138  1  0
138139  1  0
139140  1  0
140141  1  0
141142  1  0
141143  2  0
139144  1  0
144145  2  0
144146  1  0
 89 81  1  0
 89 84  1  0
 25 55  2  0
 59125  2  0
  1147  1  0
  1148  1  0
  2149  1  0
  2150  1  0
  3151  1  0
  3152  1  0
  6153  1  0
  7154  1  6
  8155  1  0
  8156  1  0
  9157  1  0
 10158  1  0
 10159  1  0
 10160  1  0
 11161  1  0
 11162  1  0
 11163  1  0
 14164  1  0
 15165  1  1
 16166  1  0
 16167  1  0
 17168  1  0
 20169  1  0
 22170  1  0
 22171  1  0
 23172  1  0
 23173  1  0
 24174  1  0
 24175  1  0
 25176  1  0
 26177  1  0
 26178  1  0
 26179  1  0
 29180  1  0
 30181  1  1
 31182  1  0
 31183  1  0
 32184  1  0
 32185  1  0
 38186  1  0
 39187  1  1
 40188  1  1
 41189  1  0
 42190  1  0
 42191  1  0
 42192  1  0
 45193  1  0
 46194  1  1
 47195  1  0
 47196  1  0
 47197  1  0
 50198  1  0
 52199  1  0
 52200  1  0
 53201  1  0
 53202  1  0
 54203  1  0
 54204  1  0
 55205  1  0
 56206  1  0
 56207  1  0
 57208  1  0
 57209  1  0
 58210  1  0
 58211  1  0
 59212  1  0
 62213  1  0
 63214  1  6
 64215  1  0
 64216  1  0
 70217  1  0
 71218  1  6
 72219  1  0
 72220  1  0
 73221  1  0
 74222  1  0
 74223  1  0
 74224  1  0
 75225  1  0
 75226  1  0
 75227  1  0
 78228  1  0
 79229  1  6
 80230  1  0
 80231  1  0
 82232  1  0
 83233  1  0
 85234  1  0
 86235  1  0
 87236  1  0
 88237  1  0
 92238  1  0
 93239  1  6
 94240  1  0
 94241  1  0
 95242  1  0
 95243  1  0
 96244  1  0
 96245  1  0
 97246  1  0
 97247  1  0
 98248  1  0
 98249  1  0
 98250  1  0
101251  1  0
102252  1  6
103253  1  0
103254  1  0
104255  1  0
105256  1  0
105257  1  0
105258  1  0
106259  1  0
106260  1  0
106261  1  0
109262  1  0
110263  1  6
111264  1  0
111265  1  0
112266  1  0
113267  1  0
113268  1  0
113269  1  0
114270  1  0
114271  1  0
114272  1  0
117273  1  0
119274  1  0
119275  1  0
120276  1  0
120277  1  0
121278  1  0
121279  1  0
122280  1  0
122281  1  0
123282  1  0
123283  1  0
124284  1  0
124285  1  0
125286  1  0
126287  1  0
126288  1  0
126289  1  0
129290  1  0
130291  1  1
131292  1  0
131293  1  0
132294  1  0
132295  1  0
138296  1  0
139297  1  6
140298  1  0
140299  1  0
142300  1  0
142301  1  0
M  CHG  5  35  -1  67  -1  98   1 135  -1 146  -1
M  END
