
     RDKit          2D

252260  0  0  0  0  0  0  0  0999 V2000
  -17.6689   -0.5856    0.0000 C   0  0  0  0  0  0  0  0  0  0  0  0
  -18.9374   -1.3863    0.0000 N   0  0  0  0  0  0  0  0  0  0  0  0
  -20.2650   -0.6882    0.0000 C   0  0  0  0  0  0  0  0  0  0  0  0
  -20.3242    0.8107    0.0000 C   0  0  0  0  0  0  0  0  0  0  0  0
  -21.6519    1.5088    0.0000 C   0  0  0  0  0  0  0  0  0  0  0  0
  -22.9203    0.7081    0.0000 C   0  0  0  0  0  0  0  0  0  0  0  0
  -22.8610   -0.7907    0.0000 C   0  0  0  0  0  0  0  0  0  0  0  0
  -21.5334   -1.4889    0.0000 C   0  0  0  0  0  0  0  0  0  0  0  0
  -24.2682   -1.3102    0.0000 C   0  0  0  0  0  0  0  0  0  0  0  0
  -25.1971   -0.1325    0.0000 O   0  0  0  0  0  0  0  0  0  0  0  0
  -24.3641    1.1149    0.0000 C   0  0  0  0  0  0  0  0  0  0  0  0
  -24.8835    2.5221    0.0000 O   0  0  0  0  0  0  0  0  0  0  0  0
  -25.7220   -1.6798    0.0000 C   0  0  0  0  0  0  0  0  0  0  0  0
  -26.1288   -3.1236    0.0000 C   0  0  0  0  0  0  0  0  0  0  0  0
  -27.5826   -3.4931    0.0000 C   0  0  0  0  0  0  0  0  0  0  0  0
  -28.6295   -2.4189    0.0000 C   0  0  0  0  0  0  0  0  0  0  0  0
  -28.2227   -0.9751    0.0000 C   0  0  0  0  0  0  0  0  0  0  0  0
  -26.7689   -0.6056    0.0000 C   0  0  0  0  0  0  0  0  0  0  0  0
  -30.0833   -2.7885    0.0000 O   0  0  0  0  0  0  0  0  0  0  0  0
  -25.0819   -4.1978    0.0000 O   0  0  0  0  0  0  0  0  0  0  0  0
  -23.6281   -3.8282    0.0000 C   0  0  0  0  0  0  0  0  0  0  0  0
  -23.2213   -2.3845    0.0000 C   0  0  0  0  0  0  0  0  0  0  0  0
  -21.9574   -2.6887    0.0000 C   0  0  0  0  0  0  0  0  0  0  0  0
  -21.3990   -3.2616    0.0000 C   0  0  0  0  0  0  0  0  0  0  0  0
  -21.6160   -4.0316    0.0000 C   0  0  0  0  0  0  0  0  0  0  0  0
  -22.3913   -4.2287    0.0000 C   0  0  0  0  0  0  0  0  0  0  0  0
  -20.0805   -5.6071    0.0000 O   0  0  0  0  0  0  0  0  0  0  0  0
  -17.7282    0.9133    0.0000 S   0  0  0  0  0  0  0  0  0  0  0  0
  -16.3413   -1.2837    0.0000 N   0  0  0  0  0  0  0  0  0  0  0  0
  -15.0729   -0.4830    0.0000 C   0  0  0  0  0  0  0  0  0  0  0  0
  -13.7453   -1.1811    0.0000 C   0  0  0  0  0  0  0  0  0  0  0  0
  -12.4768   -0.3804    0.0000 C   0  0  0  0  0  0  0  0  0  0  0  0
  -12.5361    1.1184    0.0000 O   0  0  0  0  0  0  0  0  0  0  0  0
  -11.1492   -1.0785    0.0000 N   0  0  0  0  0  0  0  0  0  0  0  0
   -9.8808   -0.2778    0.0000 C   0  0  0  0  0  0  0  0  0  0  0  0
   -8.9627    0.9084    0.0000 C   0  0  0  0  0  0  0  0  0  0  0  0
   -7.4764    0.7065    0.0000 C   0  0  0  0  0  0  0  0  0  0  0  0
   -6.5583    1.8927    0.0000 C   0  0  0  0  0  0  0  0  0  0  0  0
   -5.0720    1.6908    0.0000 N   0  0  0  0  0  0  0  0  0  0  0  0
   -4.1539    2.8770    0.0000 C   0  0  0  0  0  0  0  0  0  0  0  0
   -2.7033    2.4954    0.0000 N   0  0  0  0  0  0  0  0  0  0  0  0
   -4.7222    4.2652    0.0000 N   0  0  0  0  0  0  0  0  0  0  0  0
   -8.5532   -0.9759    0.0000 C   0  0  0  0  0  0  0  0  0  0  0  0
   -8.6647   -2.3213    0.0000 O   0  0  0  0  0  0  0  0  0  0  0  0
   -7.2847   -0.1752    0.0000 N   0  0  0  0  0  0  0  0  0  0  0  0
   -5.9571   -0.8733    0.0000 C   0  0  0  0  0  0  0  0  0  0  0  0
   -4.9483   -1.9834    0.0000 C   0  0  0  0  0  0  0  0  0  0  0  0
   -5.4053   -3.4121    0.0000 C   0  0  0  0  0  0  0  0  0  0  0  0
   -6.8711   -3.7307    0.0000 C   0  0  0  0  0  0  0  0  0  0  0  0
   -7.8940   -2.8498    0.0000 F   0  0  0  0  0  0  0  0  0  0  0  0
   -7.3280   -5.1594    0.0000 C   0  0  0  0  0  0  0  0  0  0  0  0
   -8.7938   -5.4780    0.0000 F   0  0  0  0  0  0  0  0  0  0  0  0
   -6.3192   -6.2695    0.0000 C   0  0  0  0  0  0  0  0  0  0  0  0
   -6.7762   -7.6982    0.0000 F   0  0  0  0  0  0  0  0  0  0  0  0
   -4.8535   -5.9509    0.0000 C   0  0  0  0  0  0  0  0  0  0  0  0
   -3.8446   -7.0610    0.0000 F   0  0  0  0  0  0  0  0  0  0  0  0
   -4.3965   -4.5222    0.0000 C   0  0  0  0  0  0  0  0  0  0  0  0
   -2.9307   -4.2036    0.0000 F   0  0  0  0  0  0  0  0  0  0  0  0
   -4.6887   -0.0726    0.0000 C   0  0  0  0  0  0  0  0  0  0  0  0
   -4.4662    0.9980    0.0000 O   0  0  0  0  0  0  0  0  0  0  0  0
   -3.3611   -0.7707    0.0000 N   0  0  0  0  0  0  0  0  0  0  0  0
   -2.0926    0.0300    0.0000 C   0  0  0  0  0  0  0  0  0  0  0  0
   -1.1746    1.2162    0.0000 C   0  0  0  0  0  0  0  0  0  0  0  0
    0.3118    1.0143    0.0000 C   0  0  0  0  0  0  0  0  0  0  0  0
    1.2298    2.2005    0.0000 C   0  0  0  0  0  0  0  0  0  0  0  0
    2.7162    1.9986    0.0000 C   0  0  0  0  0  0  0  0  0  0  0  0
    3.8940    2.9274    0.0000 N   0  0  0  0  0  0  0  0  0  0  0  0
   -0.7650   -0.6682    0.0000 C   0  0  0  0  0  0  0  0  0  0  0  0
   -0.8889   -2.1630    0.0000 O   0  0  0  0  0  0  0  0  0  0  0  0
    0.5034    0.1326    0.0000 N   0  0  0  0  0  0  0  0  0  0  0  0
    1.8310   -0.5656    0.0000 C   0  0  0  0  0  0  0  0  0  0  0  0
    2.1861   -2.0229    0.0000 C   0  0  0  0  0  0  0  0  0  0  0  0
    2.9549   -3.3109    0.0000 C   0  0  0  0  0  0  0  0  0  0  0  0
    4.0692   -4.3151    0.0000 C   0  0  0  0  0  0  0  0  0  0  0  0
    5.4300   -4.9461    0.0000 C   0  0  0  0  0  0  0  0  0  0  0  0
    0.5450   -1.3376    0.0000 C   0  0  0  0  0  0  0  0  0  0  0  0
    1.9213    0.9317    0.0000 C   0  0  0  0  0  0  0  0  0  0  0  0
    1.2530    1.3662    0.0000 O   0  0  0  0  0  0  0  0  0  0  0  0
    2.4490    2.3359    0.0000 N   0  0  0  0  0  0  0  0  0  0  0  0
    3.3670    3.5221    0.0000 C   0  0  0  0  0  0  0  0  0  0  0  0
    3.0851    4.9954    0.0000 C   0  0  0  0  0  0  0  0  0  0  0  0
    1.6682    5.4878    0.0000 C   0  0  0  0  0  0  0  0  0  0  0  0
    1.3862    6.9611    0.0000 C   0  0  0  0  0  0  0  0  0  0  0  0
   -0.0306    7.4535    0.0000 N   0  0  0  0  0  0  0  0  0  0  0  0
   -0.3126    8.9268    0.0000 C   0  0  0  0  0  0  0  0  0  0  0  0
   -1.7294    9.4192    0.0000 N   0  0  0  0  0  0  0  0  0  0  0  0
    0.8223    9.9076    0.0000 N   0  0  0  0  0  0  0  0  0  0  0  0
    4.5939    4.3850    0.0000 C   0  0  0  0  0  0  0  0  0  0  0  0
    3.9235    5.7269    0.0000 O   0  0  0  0  0  0  0  0  0  0  0  0
    6.0207    4.8480    0.0000 N   0  0  0  0  0  0  0  0  0  0  0  0
    7.5206    4.8698    0.0000 C   0  0  0  0  0  0  0  0  0  0  0  0
    8.4966    6.0088    0.0000 C   0  0  0  0  0  0  0  0  0  0  0  0
    7.9982    7.4236    0.0000 C   0  0  0  0  0  0  0  0  0  0  0  0
    8.9743    8.5626    0.0000 C   0  0  0  0  0  0  0  0  0  0  0  0
    7.0460    8.5826    0.0000 C   0  0  0  0  0  0  0  0  0  0  0  0
    8.9602    4.4486    0.0000 C   0  0  0  0  0  0  0  0  0  0  0  0
    9.5913    5.8094    0.0000 O   0  0  0  0  0  0  0  0  0  0  0  0
   10.2117    3.6218    0.0000 N   0  0  0  0  0  0  0  0  0  0  0  0
   11.1639    2.4628    0.0000 C   0  0  0  0  0  0  0  0  0  0  0  0
   12.6630    2.4098    0.0000 C   0  0  0  0  0  0  0  0  0  0  0  0
   13.4584    3.6816    0.0000 C   0  0  0  0  0  0  0  0  0  0  0  0
   14.9575    3.6286    0.0000 C   0  0  0  0  0  0  0  0  0  0  0  0
   15.7528    4.9004    0.0000 C   0  0  0  0  0  0  0  0  0  0  0  0
   15.0492    6.2251    0.0000 C   0  0  0  0  0  0  0  0  0  0  0  0
   13.5501    6.2780    0.0000 C   0  0  0  0  0  0  0  0  0  0  0  0
   12.7547    5.0063    0.0000 C   0  0  0  0  0  0  0  0  0  0  0  0
   11.7322    1.0746    0.0000 C   0  0  0  0  0  0  0  0  0  0  0  0
   13.1896    1.4296    0.0000 O   0  0  0  0  0  0  0  0  0  0  0  0
   11.8661   -0.4194    0.0000 N   0  0  0  0  0  0  0  0  0  0  0  0
   11.5536   -1.8865    0.0000 C   0  0  0  0  0  0  0  0  0  0  0  0
   10.8226   -3.1963    0.0000 C   0  0  0  0  0  0  0  0  0  0  0  0
    9.7380   -4.2325    0.0000 C   0  0  0  0  0  0  0  0  0  0  0  0
    8.3962   -4.9029    0.0000 C   0  0  0  0  0  0  0  0  0  0  0  0
    6.9164   -5.1481    0.0000 C   0  0  0  0  0  0  0  0  0  0  0  0
   13.0194   -1.5679    0.0000 C   0  0  0  0  0  0  0  0  0  0  0  0
   12.4469   -3.0915    0.0000 C   0  0  0  0  0  0  0  0  0  0  0  0
   12.2007   -4.5712    0.0000 O   0  0  0  0  0  0  0  0  0  0  0  0
   13.9371   -2.9205    0.0000 N   0  0  0  0  0  0  0  0  0  0  0  0
   14.8304   -4.1255    0.0000 C   0  0  0  0  0  0  0  0  0  0  0  0
   15.2576   -5.5634    0.0000 C   0  0  0  0  0  0  0  0  0  0  0  0
   14.2260   -6.6523    0.0000 O   0  0  0  0  0  0  0  0  0  0  0  0
   16.3206   -3.9544    0.0000 C   0  0  0  0  0  0  0  0  0  0  0  0
   16.9175   -2.5783    0.0000 O   0  0  0  0  0  0  0  0  0  0  0  0
   17.2138   -5.1595    0.0000 N   0  0  0  0  0  0  0  0  0  0  0  0
   18.7041   -4.9884    0.0000 C   0  0  0  0  0  0  0  0  0  0  0  0
   20.0459   -4.3179    0.0000 C   0  0  0  0  0  0  0  0  0  0  0  0
   21.2974   -5.1448    0.0000 C   0  0  0  0  0  0  0  0  0  0  0  0
   21.2071   -6.6421    0.0000 C   0  0  0  0  0  0  0  0  0  0  0  0
   22.4587   -7.4689    0.0000 C   0  0  0  0  0  0  0  0  0  0  0  0
   23.8005   -6.7985    0.0000 C   0  0  0  0  0  0  0  0  0  0  0  0
   25.0520   -7.6253    0.0000 O   0  0  0  0  0  0  0  0  0  0  0  0
   23.8908   -5.3012    0.0000 C   0  0  0  0  0  0  0  0  0  0  0  0
   22.6393   -4.4744    0.0000 C   0  0  0  0  0  0  0  0  0  0  0  0
   19.5973   -6.1934    0.0000 C   0  0  0  0  0  0  0  0  0  0  0  0
   21.0846   -6.3880    0.0000 O   0  0  0  0  0  0  0  0  0  0  0  0
   18.8371   -7.4865    0.0000 O   0  0  0  0  0  0  0  0  0  0  0  0
  -18.6959   -2.8667    0.0000 H   0  0  0  0  0  0  0  0  0  0  0  0
  -19.0558    1.6114    0.0000 H   0  0  0  0  0  0  0  0  0  0  0  0
  -21.7111    3.0076    0.0000 H   0  0  0  0  0  0  0  0  0  0  0  0
  -21.1133   -2.9288    0.0000 H   0  0  0  0  0  0  0  0  0  0  0  0
  -27.9894   -4.9369    0.0000 H   0  0  0  0  0  0  0  0  0  0  0  0
  -29.2696    0.0991    0.0000 H   0  0  0  0  0  0  0  0  0  0  0  0
  -26.3621    0.8382    0.0000 H   0  0  0  0  0  0  0  0  0  0  0  0
  -31.1302   -1.7143    0.0000 H   0  0  0  0  0  0  0  0  0  0  0  0
  -21.3607   -0.5711    0.0000 H   0  0  0  0  0  0  0  0  0  0  0  0
  -19.2326   -2.8995    0.0000 H   0  0  0  0  0  0  0  0  0  0  0  0
  -22.9880   -6.3462    0.0000 H   0  0  0  0  0  0  0  0  0  0  0  0
  -20.4873   -7.0509    0.0000 H   0  0  0  0  0  0  0  0  0  0  0  0
  -16.2821   -2.7825    0.0000 H   0  0  0  0  0  0  0  0  0  0  0  0
  -14.1548    0.7033    0.0000 H   0  0  0  0  0  0  0  0  0  0  0  0
  -16.0817    0.6271    0.0000 H   0  0  0  0  0  0  0  0  0  0  0  0
  -12.7365   -2.2912    0.0000 H   0  0  0  0  0  0  0  0  0  0  0  0
  -14.6633   -2.3673    0.0000 H   0  0  0  0  0  0  0  0  0  0  0  0
  -11.0900   -2.5773    0.0000 H   0  0  0  0  0  0  0  0  0  0  0  0
  -10.8896    0.8323    0.0000 H   0  0  0  0  0  0  0  0  0  0  0  0
   -8.6833    2.3822    0.0000 H   0  0  0  0  0  0  0  0  0  0  0  0
  -10.2904    1.6066    0.0000 H   0  0  0  0  0  0  0  0  0  0  0  0
   -6.1488    0.0084    0.0000 H   0  0  0  0  0  0  0  0  0  0  0  0
   -7.2090   -0.7695    0.0000 H   0  0  0  0  0  0  0  0  0  0  0  0
   -6.1014    3.3214    0.0000 H   0  0  0  0  0  0  0  0  0  0  0  0
   -7.7910    2.7475    0.0000 H   0  0  0  0  0  0  0  0  0  0  0  0
   -4.1847    0.4814    0.0000 H   0  0  0  0  0  0  0  0  0  0  0  0
   -1.7495    3.8613    0.0000 H   0  0  0  0  0  0  0  0  0  0  0  0
   -2.2511    1.2223    0.0000 H   0  0  0  0  0  0  0  0  0  0  0  0
   -3.8042    5.4515    0.0000 H   0  0  0  0  0  0  0  0  0  0  0  0
   -6.2086    4.4672    0.0000 H   0  0  0  0  0  0  0  0  0  0  0  0
   -6.9795    1.2934    0.0000 H   0  0  0  0  0  0  0  0  0  0  0  0
   -6.8752   -2.0596    0.0000 H   0  0  0  0  0  0  0  0  0  0  0  0
   -3.7157   -2.8382    0.0000 H   0  0  0  0  0  0  0  0  0  0  0  0
   -3.7705   -1.0546    0.0000 H   0  0  0  0  0  0  0  0  0  0  0  0
   -3.1196   -2.2512    0.0000 H   0  0  0  0  0  0  0  0  0  0  0  0
   -3.1014    1.1401    0.0000 H   0  0  0  0  0  0  0  0  0  0  0  0
   -0.8952    2.6900    0.0000 H   0  0  0  0  0  0  0  0  0  0  0  0
   -2.6317    1.5723    0.0000 H   0  0  0  0  0  0  0  0  0  0  0  0
    1.7146    0.4832    0.0000 H   0  0  0  0  0  0  0  0  0  0  0  0
    0.3973   -0.4833    0.0000 H   0  0  0  0  0  0  0  0  0  0  0  0
    0.9624    3.6765    0.0000 H   0  0  0  0  0  0  0  0  0  0  0  0
   -0.0028    3.0553    0.0000 H   0  0  0  0  0  0  0  0  0  0  0  0
    4.0438    1.3004    0.0000 H   0  0  0  0  0  0  0  0  0  0  0  0
    2.8017    0.5010    0.0000 H   0  0  0  0  0  0  0  0  0  0  0  0
    5.1206    2.9829    0.0000 H   0  0  0  0  0  0  0  0  0  0  0  0
    4.6825    4.4308    0.0000 H   0  0  0  0  0  0  0  0  0  0  0  0
    2.2019    3.6823    0.0000 H   0  0  0  0  0  0  0  0  0  0  0  0
    0.6273    1.6274    0.0000 H   0  0  0  0  0  0  0  0  0  0  0  0
    0.6890   -1.9290    0.0000 H   0  0  0  0  0  0  0  0  0  0  0  0
    1.3283   -3.2535    0.0000 H   0  0  0  0  0  0  0  0  0  0  0  0
    1.5504   -3.8375    0.0000 H   0  0  0  0  0  0  0  0  0  0  0  0
    2.3272   -4.6733    0.0000 H   0  0  0  0  0  0  0  0  0  0  0  0
    2.7794   -5.0807    0.0000 H   0  0  0  0  0  0  0  0  0  0  0  0
    4.0537   -5.8150    0.0000 H   0  0  0  0  0  0  0  0  0  0  0  0
    5.0088   -6.3858    0.0000 H   0  0  0  0  0  0  0  0  0  0  0  0
    0.4516   -3.0009    0.0000 H   0  0  0  0  0  0  0  0  0  0  0  0
   -0.6934   -2.1083    0.0000 H   0  0  0  0  0  0  0  0  0  0  0  0
   -0.4359   -0.4569    0.0000 H   0  0  0  0  0  0  0  0  0  0  0  0
    1.2380    3.2211    0.0000 H   0  0  0  0  0  0  0  0  0  0  0  0
    1.9616    4.0462    0.0000 H   0  0  0  0  0  0  0  0  0  0  0  0
    3.5027    6.4360    0.0000 H   0  0  0  0  0  0  0  0  0  0  0  0
    4.4774    5.5534    0.0000 H   0  0  0  0  0  0  0  0  0  0  0  0
    0.1684    5.4660    0.0000 H   0  0  0  0  0  0  0  0  0  0  0  0
    0.9143    4.1910    0.0000 H   0  0  0  0  0  0  0  0  0  0  0  0
    1.6252    8.4419    0.0000 H   0  0  0  0  0  0  0  0  0  0  0  0
    2.8722    7.1656    0.0000 H   0  0  0  0  0  0  0  0  0  0  0  0
   -1.1655    6.4727    0.0000 H   0  0  0  0  0  0  0  0  0  0  0  0
   -2.0114   10.8925    0.0000 H   0  0  0  0  0  0  0  0  0  0  0  0
   -2.8643    8.4384    0.0000 H   0  0  0  0  0  0  0  0  0  0  0  0
    0.5404   11.3809    0.0000 H   0  0  0  0  0  0  0  0  0  0  0  0
    2.2392    9.4151    0.0000 H   0  0  0  0  0  0  0  0  0  0  0  0
    5.7756    6.3278    0.0000 H   0  0  0  0  0  0  0  0  0  0  0  0
    6.7230    6.1402    0.0000 H   0  0  0  0  0  0  0  0  0  0  0  0
    9.8834    6.5806    0.0000 H   0  0  0  0  0  0  0  0  0  0  0  0
    9.7010    5.1147    0.0000 H   0  0  0  0  0  0  0  0  0  0  0  0
    6.6114    6.8519    0.0000 H   0  0  0  0  0  0  0  0  0  0  0  0
    8.6520   10.0276    0.0000 H   0  0  0  0  0  0  0  0  0  0  0  0
   10.2810    9.2991    0.0000 H   0  0  0  0  0  0  0  0  0  0  0  0
   10.0606    7.5283    0.0000 H   0  0  0  0  0  0  0  0  0  0  0  0
    7.3985   10.0406    0.0000 H   0  0  0  0  0  0  0  0  0  0  0  0
    5.7548    9.3461    0.0000 H   0  0  0  0  0  0  0  0  0  0  0  0
    6.0700    7.4436    0.0000 H   0  0  0  0  0  0  0  0  0  0  0  0
   11.0725    4.8502    0.0000 H   0  0  0  0  0  0  0  0  0  0  0  0
   11.8287    3.8074    0.0000 H   0  0  0  0  0  0  0  0  0  0  0  0
   14.0536    1.8474    0.0000 H   0  0  0  0  0  0  0  0  0  0  0  0
   12.7148    0.9107    0.0000 H   0  0  0  0  0  0  0  0  0  0  0  0
   15.6611    2.3039    0.0000 H   0  0  0  0  0  0  0  0  0  0  0  0
   17.2519    4.8475    0.0000 H   0  0  0  0  0  0  0  0  0  0  0  0
   15.8445    7.4969    0.0000 H   0  0  0  0  0  0  0  0  0  0  0  0
   12.8464    7.6027    0.0000 H   0  0  0  0  0  0  0  0  0  0  0  0
   11.2733    5.2416    0.0000 H   0  0  0  0  0  0  0  0  0  0  0  0
   13.3634   -0.5097    0.0000 H   0  0  0  0  0  0  0  0  0  0  0  0
   11.3210   -4.6111    0.0000 H   0  0  0  0  0  0  0  0  0  0  0  0
   12.2419   -3.6818    0.0000 H   0  0  0  0  0  0  0  0  0  0  0  0
    9.9795   -5.7129    0.0000 H   0  0  0  0  0  0  0  0  0  0  0  0
   10.9512   -5.1147    0.0000 H   0  0  0  0  0  0  0  0  0  0  0  0
    8.0110   -6.3526    0.0000 H   0  0  0  0  0  0  0  0  0  0  0  0
    9.4350   -5.9850    0.0000 H   0  0  0  0  0  0  0  0  0  0  0  0
    6.9382   -6.6479    0.0000 H   0  0  0  0  0  0  0  0  0  0  0  0
   14.2669   -2.4009    0.0000 H   0  0  0  0  0  0  0  0  0  0  0  0
   14.1808   -0.6186    0.0000 H   0  0  0  0  0  0  0  0  0  0  0  0
   12.8039   -0.0835    0.0000 H   0  0  0  0  0  0  0  0  0  0  0  0
   14.6974   -1.6274    0.0000 H   0  0  0  0  0  0  0  0  0  0  0  0
   13.4885   -4.7959    0.0000 H   0  0  0  0  0  0  0  0  0  0  0  0
   15.9973   -6.8683    0.0000 H   0  0  0  0  0  0  0  0  0  0  0  0
   16.7218   -5.2375    0.0000 H   0  0  0  0  0  0  0  0  0  0  0  0
   14.6533   -8.0902    0.0000 H   0  0  0  0  0  0  0  0  0  0  0  0
   16.7891   -6.5981    0.0000 H   0  0  0  0  0  0  0  0  0  0  0  0
   18.2768   -3.5505    0.0000 H   0  0  0  0  0  0  0  0  0  0  0  0
   21.0775   -3.2290    0.0000 H   0  0  0  0  0  0  0  0  0  0  0  0
   19.1526   -3.1129    0.0000 H   0  0  0  0  0  0  0  0  0  0  0  0
   19.9570   -7.4711    0.0000 H   0  0  0  0  0  0  0  0  0  0  0  0
   22.3684   -8.9662    0.0000 H   0  0  0  0  0  0  0  0  0  0  0  0
   26.3939   -6.9549    0.0000 H   0  0  0  0  0  0  0  0  0  0  0  0
   25.2326   -4.6308    0.0000 H   0  0  0  0  0  0  0  0  0  0  0  0
   22.7296   -2.9771    0.0000 H   0  0  0  0  0  0  0  0  0  0  0  0
  1  2  1  0
  2  3  1  0
  3  4  2  0
  4  5  1  0
  5  6  2  0
  6  7  1  0
  7  8  2  0
  7  9  1  0
  9 10  1  0
 10 11  1  0
 11 12  2  0
  9 13  1  0
 13 14  1  0
 14 15  2  0
 15 16  1  0
 16 17  2  0
 17 18  1  0
 16 19  1  0
 14 20  1  0
 20 21  1  0
 21 22  2  0
 22 23  1  0
 23 24  2  0
 24 25  1  0
 25 26  2  0
 25 27  1  0
  1 28  2  0
  1 29  1  0
 29 30  1  0
 30 31  1  0
 31 32  1  0
 32 33  2  0
 32 34  1  0
 34 35  1  0
 35 36  1  0
 36 37  1  0
 37 38  1  0
 38 39  1  0
 39 40  1  0
 40 41  2  3
 40 42  1  0
 35 43  1  0
 43 44  2  0
 43 45  1  0
 45 46  1  0
 46 47  1  0
 47 48  1  0
 48 49  2  0
 49 50  1  0
 49 51  1  0
 51 52  1  0
 51 53  2  0
 53 54  1  0
 53 55  1  0
 55 56  1  0
 55 57  2  0
 57 58  1  0
 46 59  1  0
 59 60  2  0
 59 61  1  0
 61 62  1  0
 62 63  1  0
 63 64  1  0
 64 65  1  0
 65 66  1  0
 66 67  1  0
 62 68  1  0
 68 69  2  0
 68 70  1  0
 71 70  1  6
 71 72  1  0
 72 73  1  0
 73 74  1  0
 74 75  1  0
 71 76  1  0
 71 77  1  0
 77 78  2  0
 77 79  1  0
 79 80  1  0
 80 81  1  0
 81 82  1  0
 82 83  1  0
 83 84  1  0
 84 85  1  0
 85 86  2  3
 85 87  1  0
 80 88  1  0
 88 89  2  0
 88 90  1  0
 90 91  1  0
 91 92  1  0
 92 93  1  0
 93 94  1  0
 93 95  1  0
 91 96  1  0
 96 97  2  0
 96 98  1  0
 98 99  1  0
 99100  1  0
100101  1  0
101102  2  0
102103  1  0
103104  2  0
104105  1  0
105106  2  0
 99107  1  0
107108  2  0
107109  1  0
109110  1  0
110111  1  0
111112  1  0
112113  1  0
113114  1  0
110115  1  0
110116  1  6
116117  2  0
116118  1  0
118119  1  0
119120  1  0
120121  1  0
119122  1  0
122123  2  0
122124  1  0
124125  1  0
125126  1  0
126127  1  0
127128  2  0
128129  1  0
129130  2  0
130131  1  0
130132  1  0
132133  2  0
125134  1  0
134135  2  0
134136  1  0
  8  3  1  0
 57 48  1  0
106101  1  0
133127  1  0
 11  6  1  0
 18 13  2  0
 75114  2  0
 22  9  1  0
 26 21  1  0
  2137  1  0
  4138  1  0
  5139  1  0
  8140  1  0
 15141  1  0
 17142  1  0
 18143  1  0
 19144  1  0
 23145  1  0
 24146  1  0
 26147  1  0
 27148  1  0
 29149  1  0
 30150  1  0
 30151  1  0
 31152  1  0
 31153  1  0
 34154  1  0
 35155  1  1
 36156  1  0
 36157  1  0
 37158  1  0
 37159  1  0
 38160  1  0
 38161  1  0
 39162  1  0
 41163  1  0
 41164  1  0
 42165  1  0
 42166  1  0
 45167  1  0
 46168  1  1
 47169  1  0
 47170  1  0
 61171  1  0
 62172  1  1
 63173  1  0
 63174  1  0
 64175  1  0
 64176  1  0
 65177  1  0
 65178  1  0
 66179  1  0
 66180  1  0
 67181  1  0
 67182  1  0
 67183  1  0
 70184  1  0
 72185  1  0
 72186  1  0
 73187  1  0
 73188  1  0
 74189  1  0
 74190  1  0
 75191  1  0
 76192  1  0
 76193  1  0
 76194  1  0
 79195  1  0
 80196  1  1
 81197  1  0
 81198  1  0
 82199  1  0
 82200  1  0
 83201  1  0
 83202  1  0
 84203  1  0
 86204  1  0
 86205  1  0
 87206  1  0
 87207  1  0
 90208  1  0
 91209  1  1
 92210  1  0
 92211  1  0
 93212  1  0
 94213  1  0
 94214  1  0
 94215  1  0
 95216  1  0
 95217  1  0
 95218  1  0
 98219  1  0
 99220  1  1
100221  1  0
100222  1  0
102223  1  0
103224  1  0
104225  1  0
105226  1  0
106227  1  0
109228  1  0
111229  1  0
111230  1  0
112231  1  0
112232  1  0
113233  1  0
113234  1  0
114235  1  0
115236  1  0
115237  1  0
115238  1  0
118239  1  0
119240  1  6
120241  1  0
120242  1  0
121243  1  0
124244  1  0
125245  1  1
126246  1  0
126247  1  0
128248  1  0
129249  1  0
131250  1  0
132251  1  0
133252  1  0
M  CHG  4  41   1  67   1  86   1 136  -1
M  END
