
     RDKit          2D

298304  0  0  0  0  0  0  0  0999 V2000
   25.8877   -0.8440    0.0000 C   0  0  0  0  0  0  0  0  0  0  0  0
   27.1956   -0.1096    0.0000 N   0  0  0  0  0  0  0  0  0  0  0  0
   28.4856   -0.8750    0.0000 C   0  0  0  0  0  0  0  0  0  0  0  0
   28.4678   -2.3749    0.0000 C   0  0  0  0  0  0  0  0  0  0  0  0
   29.7578   -3.1403    0.0000 C   0  0  0  0  0  0  0  0  0  0  0  0
   31.0657   -2.4058    0.0000 C   0  0  0  0  0  0  0  0  0  0  0  0
   31.0835   -0.9059    0.0000 C   0  0  0  0  0  0  0  0  0  0  0  0
   29.7935   -0.1405    0.0000 C   0  0  0  0  0  0  0  0  0  0  0  0
   32.5155   -0.4594    0.0000 C   0  0  0  0  0  0  0  0  0  0  0  0
   33.3827   -1.6834    0.0000 O   0  0  0  0  0  0  0  0  0  0  0  0
   32.4866   -2.8863    0.0000 C   0  0  0  0  0  0  0  0  0  0  0  0
   32.9331   -4.3183    0.0000 O   0  0  0  0  0  0  0  0  0  0  0  0
   33.9864   -0.1650    0.0000 C   0  0  0  0  0  0  0  0  0  0  0  0
   34.4668    1.2559    0.0000 C   0  0  0  0  0  0  0  0  0  0  0  0
   35.9377    1.5503    0.0000 C   0  0  0  0  0  0  0  0  0  0  0  0
   36.9280    0.4237    0.0000 C   0  0  0  0  0  0  0  0  0  0  0  0
   36.4475   -0.9973    0.0000 C   0  0  0  0  0  0  0  0  0  0  0  0
   34.9767   -1.2916    0.0000 C   0  0  0  0  0  0  0  0  0  0  0  0
   38.3988    0.7181    0.0000 O   0  0  0  0  0  0  0  0  0  0  0  0
   33.4765    2.3825    0.0000 O   0  0  0  0  0  0  0  0  0  0  0  0
   32.0057    2.0881    0.0000 C   0  0  0  0  0  0  0  0  0  0  0  0
   31.5252    0.6672    0.0000 C   0  0  0  0  0  0  0  0  0  0  0  0
   30.2786    1.0359    0.0000 C   0  0  0  0  0  0  0  0  0  0  0  0
   29.7504    1.6368    0.0000 C   0  0  0  0  0  0  0  0  0  0  0  0
   30.0066    2.3946    0.0000 C   0  0  0  0  0  0  0  0  0  0  0  0
   30.7911    2.5516    0.0000 C   0  0  0  0  0  0  0  0  0  0  0  0
   28.5541    4.0469    0.0000 O   0  0  0  0  0  0  0  0  0  0  0  0
   25.8699   -2.3439    0.0000 S   0  0  0  0  0  0  0  0  0  0  0  0
   24.5977   -0.0786    0.0000 N   0  0  0  0  0  0  0  0  0  0  0  0
   23.2898   -0.8131    0.0000 C   0  0  0  0  0  0  0  0  0  0  0  0
   21.9998   -0.0477    0.0000 C   0  0  0  0  0  0  0  0  0  0  0  0
   20.6920   -0.7822    0.0000 C   0  0  0  0  0  0  0  0  0  0  0  0
   20.6741   -2.2821    0.0000 O   0  0  0  0  0  0  0  0  0  0  0  0
   19.4019   -0.0168    0.0000 N   0  0  0  0  0  0  0  0  0  0  0  0
   18.0941   -0.7512    0.0000 C   0  0  0  0  0  0  0  0  0  0  0  0
   17.1163   -1.8887    0.0000 C   0  0  0  0  0  0  0  0  0  0  0  0
   15.6423   -1.6107    0.0000 C   0  0  0  0  0  0  0  0  0  0  0  0
   15.1460   -0.1951    0.0000 C   0  0  0  0  0  0  0  0  0  0  0  0
   13.6720    0.0829    0.0000 C   0  0  0  0  0  0  0  0  0  0  0  0
   12.6942   -1.0546    0.0000 C   0  0  0  0  0  0  0  0  0  0  0  0
   11.2202   -0.7766    0.0000 O   0  0  0  0  0  0  0  0  0  0  0  0
   13.1905   -2.4702    0.0000 C   0  0  0  0  0  0  0  0  0  0  0  0
   14.6645   -2.7482    0.0000 C   0  0  0  0  0  0  0  0  0  0  0  0
   16.8040    0.0142    0.0000 C   0  0  0  0  0  0  0  0  0  0  0  0
   17.0046    1.5007    0.0000 O   0  0  0  0  0  0  0  0  0  0  0  0
   15.4962   -0.7203    0.0000 N   0  0  0  0  0  0  0  0  0  0  0  0
   14.2062    0.0451    0.0000 C   0  0  0  0  0  0  0  0  0  0  0  0
   12.8983   -0.6894    0.0000 C   0  0  0  0  0  0  0  0  0  0  0  0
   12.5180   -2.1404    0.0000 O   0  0  0  0  0  0  0  0  0  0  0  0
   11.6083    0.0761    0.0000 N   0  0  0  0  0  0  0  0  0  0  0  0
   10.3004   -0.6584    0.0000 C   0  0  0  0  0  0  0  0  0  0  0  0
    9.3226   -1.7959    0.0000 C   0  0  0  0  0  0  0  0  0  0  0  0
    7.8486   -1.5179    0.0000 C   0  0  0  0  0  0  0  0  0  0  0  0
    6.8708   -2.6554    0.0000 C   0  0  0  0  0  0  0  0  0  0  0  0
    5.3968   -2.3773    0.0000 N   0  0  0  0  0  0  0  0  0  0  0  0
    4.4190   -3.5148    0.0000 C   0  0  0  0  0  0  0  0  0  0  0  0
    2.9899   -3.0592    0.0000 N   0  0  0  0  0  0  0  0  0  0  0  0
    4.9152   -4.9304    0.0000 N   0  0  0  0  0  0  0  0  0  0  0  0
    9.0104    0.1070    0.0000 C   0  0  0  0  0  0  0  0  0  0  0  0
    9.0282    1.6069    0.0000 O   0  0  0  0  0  0  0  0  0  0  0  0
    7.7025   -0.6275    0.0000 N   0  0  0  0  0  0  0  0  0  0  0  0
    6.4125    0.1379    0.0000 C   0  0  0  0  0  0  0  0  0  0  0  0
    5.4620    1.2984    0.0000 C   0  0  0  0  0  0  0  0  0  0  0  0
    5.9918    2.7017    0.0000 C   0  0  0  0  0  0  0  0  0  0  0  0
    5.0414    3.8622    0.0000 C   0  0  0  0  0  0  0  0  0  0  0  0
    5.5712    5.2655    0.0000 C   0  0  0  0  0  0  0  0  0  0  0  0
    4.6207    6.4260    0.0000 N   0  0  0  0  0  0  0  0  0  0  0  0
    5.1046   -0.5965    0.0000 C   0  0  0  0  0  0  0  0  0  0  0  0
    4.7243   -2.0475    0.0000 O   0  0  0  0  0  0  0  0  0  0  0  0
    3.8146    0.1689    0.0000 N   0  0  0  0  0  0  0  0  0  0  0  0
    2.5067   -0.5656    0.0000 C   0  0  0  0  0  0  0  0  0  0  0  0
    1.5289   -1.7031    0.0000 C   0  0  0  0  0  0  0  0  0  0  0  0
    0.0549   -1.4251    0.0000 C   0  0  0  0  0  0  0  0  0  0  0  0
   -0.9229   -2.5626    0.0000 C   0  0  0  0  0  0  0  0  0  0  0  0
   -2.3969   -2.2845    0.0000 C   0  0  0  0  0  0  0  0  0  0  0  0
   -3.3747   -3.4220    0.0000 N   0  0  0  0  0  0  0  0  0  0  0  0
    1.2167    0.1998    0.0000 C   0  0  0  0  0  0  0  0  0  0  0  0
    1.2346    1.6997    0.0000 O   0  0  0  0  0  0  0  0  0  0  0  0
   -0.0912   -0.5347    0.0000 N   0  0  0  0  0  0  0  0  0  0  0  0
   -1.3812    0.2307    0.0000 C   0  0  0  0  0  0  0  0  0  0  0  0
   -2.3316    1.3912    0.0000 C   0  0  0  0  0  0  0  0  0  0  0  0
   -1.8019    2.7945    0.0000 C   0  0  0  0  0  0  0  0  0  0  0  0
   -2.7523    3.9550    0.0000 C   0  0  0  0  0  0  0  0  0  0  0  0
   -2.2225    5.3583    0.0000 N   0  0  0  0  0  0  0  0  0  0  0  0
   -3.1729    6.5188    0.0000 C   0  0  0  0  0  0  0  0  0  0  0  0
   -2.6432    7.9221    0.0000 N   0  0  0  0  0  0  0  0  0  0  0  0
   -4.6531    6.2759    0.0000 N   0  0  0  0  0  0  0  0  0  0  0  0
   -2.6891   -0.5037    0.0000 C   0  0  0  0  0  0  0  0  0  0  0  0
   -3.0693   -1.9547    0.0000 O   0  0  0  0  0  0  0  0  0  0  0  0
   -3.9791    0.2617    0.0000 N   0  0  0  0  0  0  0  0  0  0  0  0
   -5.2870   -0.4728    0.0000 C   0  0  0  0  0  0  0  0  0  0  0  0
   -6.2648   -1.6103    0.0000 C   0  0  0  0  0  0  0  0  0  0  0  0
   -7.7388   -1.3323    0.0000 C   0  0  0  0  0  0  0  0  0  0  0  0
   -8.7166   -2.4698    0.0000 C   0  0  0  0  0  0  0  0  0  0  0  0
  -10.1906   -2.1917    0.0000 N   0  0  0  0  0  0  0  0  0  0  0  0
  -11.1684   -3.3292    0.0000 C   0  0  0  0  0  0  0  0  0  0  0  0
  -12.5975   -2.8736    0.0000 N   0  0  0  0  0  0  0  0  0  0  0  0
  -10.6722   -4.7448    0.0000 N   0  0  0  0  0  0  0  0  0  0  0  0
   -6.5770    0.2926    0.0000 C   0  0  0  0  0  0  0  0  0  0  0  0
   -6.5591    1.7925    0.0000 O   0  0  0  0  0  0  0  0  0  0  0  0
   -7.8849   -0.4419    0.0000 N   0  0  0  0  0  0  0  0  0  0  0  0
   -9.1749    0.3236    0.0000 C   0  0  0  0  0  0  0  0  0  0  0  0
  -10.1253    1.4840    0.0000 C   0  0  0  0  0  0  0  0  0  0  0  0
   -9.5955    2.8874    0.0000 C   0  0  0  0  0  0  0  0  0  0  0  0
  -10.5460    4.0478    0.0000 C   0  0  0  0  0  0  0  0  0  0  0  0
  -10.0162    5.4512    0.0000 N   0  0  0  0  0  0  0  0  0  0  0  0
  -12.0262    3.8050    0.0000 O   0  0  0  0  0  0  0  0  0  0  0  0
  -10.4828   -0.4109    0.0000 C   0  0  0  0  0  0  0  0  0  0  0  0
  -10.8630   -1.8619    0.0000 O   0  0  0  0  0  0  0  0  0  0  0  0
  -11.7728    0.3545    0.0000 N   0  0  0  0  0  0  0  0  0  0  0  0
  -13.0806   -0.3800    0.0000 C   0  0  0  0  0  0  0  0  0  0  0  0
  -14.0584   -1.5175    0.0000 C   0  0  0  0  0  0  0  0  0  0  0  0
  -15.5324   -1.2394    0.0000 C   0  0  0  0  0  0  0  0  0  0  0  0
  -16.5102   -2.3769    0.0000 C   0  0  0  0  0  0  0  0  0  0  0  0
  -17.9842   -2.0989    0.0000 N   0  0  0  0  0  0  0  0  0  0  0  0
  -18.9620   -3.2364    0.0000 C   0  0  0  0  0  0  0  0  0  0  0  0
  -20.3912   -2.7808    0.0000 N   0  0  0  0  0  0  0  0  0  0  0  0
  -18.4658   -4.6520    0.0000 N   0  0  0  0  0  0  0  0  0  0  0  0
  -14.3707    0.3854    0.0000 C   0  0  0  0  0  0  0  0  0  0  0  0
  -14.3528    1.8853    0.0000 O   0  0  0  0  0  0  0  0  0  0  0  0
  -15.6785   -0.3490    0.0000 N   0  0  0  0  0  0  0  0  0  0  0  0
  -16.9686    0.4164    0.0000 C   0  0  0  0  0  0  0  0  0  0  0  0
  -17.9190    1.5768    0.0000 C   0  0  0  0  0  0  0  0  0  0  0  0
  -17.3892    2.9802    0.0000 C   0  0  0  0  0  0  0  0  0  0  0  0
  -18.3396    4.1406    0.0000 C   0  0  0  0  0  0  0  0  0  0  0  0
  -17.8099    5.5440    0.0000 N   0  0  0  0  0  0  0  0  0  0  0  0
  -18.7603    6.7044    0.0000 C   0  0  0  0  0  0  0  0  0  0  0  0
  -18.2305    8.1078    0.0000 N   0  0  0  0  0  0  0  0  0  0  0  0
  -20.2405    6.4616    0.0000 N   0  0  0  0  0  0  0  0  0  0  0  0
  -18.2764   -0.3181    0.0000 C   0  0  0  0  0  0  0  0  0  0  0  0
  -18.6567   -1.7691    0.0000 O   0  0  0  0  0  0  0  0  0  0  0  0
  -19.5664    0.4473    0.0000 N   0  0  0  0  0  0  0  0  0  0  0  0
  -20.8743   -0.2872    0.0000 C   0  0  0  0  0  0  0  0  0  0  0  0
  -21.8521   -1.4247    0.0000 C   0  0  0  0  0  0  0  0  0  0  0  0
  -23.3261   -1.1466    0.0000 C   0  0  0  0  0  0  0  0  0  0  0  0
  -24.3039   -2.2841    0.0000 C   0  0  0  0  0  0  0  0  0  0  0  0
  -25.7779   -2.0061    0.0000 N   0  0  0  0  0  0  0  0  0  0  0  0
  -26.7557   -3.1436    0.0000 C   0  0  0  0  0  0  0  0  0  0  0  0
  -28.2297   -2.8655    0.0000 N   0  0  0  0  0  0  0  0  0  0  0  0
  -26.2595   -4.5591    0.0000 N   0  0  0  0  0  0  0  0  0  0  0  0
  -22.1643    0.4782    0.0000 C   0  0  0  0  0  0  0  0  0  0  0  0
  -22.1465    1.9781    0.0000 O   0  0  0  0  0  0  0  0  0  0  0  0
  -23.4722   -0.2562    0.0000 N   0  0  0  0  0  0  0  0  0  0  0  0
  -23.6468   -1.7460    0.0000 C   0  0  0  0  0  0  0  0  0  0  0  0
  -25.1176   -2.0404    0.0000 C   0  0  0  0  0  0  0  0  0  0  0  0
  -25.8521   -0.7325    0.0000 C   0  0  0  0  0  0  0  0  0  0  0  0
  -24.8352    0.3702    0.0000 C   0  0  0  0  0  0  0  0  0  0  0  0
  -26.0381    1.2662    0.0000 C   0  0  0  0  0  0  0  0  0  0  0  0
  -25.8636    2.7560    0.0000 O   0  0  0  0  0  0  0  0  0  0  0  0
  -27.4777    0.8448    0.0000 O   0  0  0  0  0  0  0  0  0  0  0  0
   27.0305    1.3813    0.0000 H   0  0  0  0  0  0  0  0  0  0  0  0
   27.1599   -3.1094    0.0000 H   0  0  0  0  0  0  0  0  0  0  0  0
   29.7399   -4.6402    0.0000 H   0  0  0  0  0  0  0  0  0  0  0  0
   29.4479    1.3191    0.0000 H   0  0  0  0  0  0  0  0  0  0  0  0
   36.4181    2.9713    0.0000 H   0  0  0  0  0  0  0  0  0  0  0  0
   37.4379   -2.1239    0.0000 H   0  0  0  0  0  0  0  0  0  0  0  0
   34.4962   -2.7126    0.0000 H   0  0  0  0  0  0  0  0  0  0  0  0
   39.3892   -0.4085    0.0000 H   0  0  0  0  0  0  0  0  0  0  0  0
   29.5739   -1.0482    0.0000 H   0  0  0  0  0  0  0  0  0  0  0  0
   27.5682    1.3865    0.0000 H   0  0  0  0  0  0  0  0  0  0  0  0
   31.4958    4.6357    0.0000 H   0  0  0  0  0  0  0  0  0  0  0  0
   29.0346    5.4679    0.0000 H   0  0  0  0  0  0  0  0  0  0  0  0
   24.6156    1.4213    0.0000 H   0  0  0  0  0  0  0  0  0  0  0  0
   22.3120   -1.9506    0.0000 H   0  0  0  0  0  0  0  0  0  0  0  0
   24.2403   -1.9736    0.0000 H   0  0  0  0  0  0  0  0  0  0  0  0
   21.0494    1.1128    0.0000 H   0  0  0  0  0  0  0  0  0  0  0  0
   22.9776    1.0898    0.0000 H   0  0  0  0  0  0  0  0  0  0  0  0
   19.4198    1.4831    0.0000 H   0  0  0  0  0  0  0  0  0  0  0  0
   19.0445   -1.9117    0.0000 H   0  0  0  0  0  0  0  0  0  0  0  0
   16.5865   -3.2921    0.0000 H   0  0  0  0  0  0  0  0  0  0  0  0
   18.4063   -2.6542    0.0000 H   0  0  0  0  0  0  0  0  0  0  0  0
   15.9779    1.0531    0.0000 H   0  0  0  0  0  0  0  0  0  0  0  0
   13.0070    1.4274    0.0000 H   0  0  0  0  0  0  0  0  0  0  0  0
   10.3884   -2.0248    0.0000 H   0  0  0  0  0  0  0  0  0  0  0  0
   12.2127   -3.6077    0.0000 H   0  0  0  0  0  0  0  0  0  0  0  0
   15.1607   -4.1637    0.0000 H   0  0  0  0  0  0  0  0  0  0  0  0
   15.1159   -2.1713    0.0000 H   0  0  0  0  0  0  0  0  0  0  0  0
   13.4043    1.3128    0.0000 H   0  0  0  0  0  0  0  0  0  0  0  0
   15.1839    1.1826    0.0000 H   0  0  0  0  0  0  0  0  0  0  0  0
   11.6261    1.5760    0.0000 H   0  0  0  0  0  0  0  0  0  0  0  0
   11.2508   -1.8189    0.0000 H   0  0  0  0  0  0  0  0  0  0  0  0
    8.9678   -3.2534    0.0000 H   0  0  0  0  0  0  0  0  0  0  0  0
   10.5097   -2.7129    0.0000 H   0  0  0  0  0  0  0  0  0  0  0  0
    6.5586   -0.7525    0.0000 H   0  0  0  0  0  0  0  0  0  0  0  0
    7.6574   -0.0301    0.0000 H   0  0  0  0  0  0  0  0  0  0  0  0
    6.3410   -4.0587    0.0000 H   0  0  0  0  0  0  0  0  0  0  0  0
    8.0579   -3.5723    0.0000 H   0  0  0  0  0  0  0  0  0  0  0  0
    4.5728   -1.1239    0.0000 H   0  0  0  0  0  0  0  0  0  0  0  0
    1.9672   -4.3743    0.0000 H   0  0  0  0  0  0  0  0  0  0  0  0
    2.6037   -1.7645    0.0000 H   0  0  0  0  0  0  0  0  0  0  0  0
    3.9374   -6.0679    0.0000 H   0  0  0  0  0  0  0  0  0  0  0  0
    6.3892   -5.2084    0.0000 H   0  0  0  0  0  0  0  0  0  0  0  0
    7.3222   -2.0785    0.0000 H   0  0  0  0  0  0  0  0  0  0  0  0
    7.5216    1.1478    0.0000 H   0  0  0  0  0  0  0  0  0  0  0  0
    4.1720    2.0638    0.0000 H   0  0  0  0  0  0  0  0  0  0  0  0
    4.2381    0.4313    0.0000 H   0  0  0  0  0  0  0  0  0  0  0  0
    7.1010    3.7116    0.0000 H   0  0  0  0  0  0  0  0  0  0  0  0
    7.3655    2.0993    0.0000 H   0  0  0  0  0  0  0  0  0  0  0  0
    3.6677    4.4647    0.0000 H   0  0  0  0  0  0  0  0  0  0  0  0
    3.9322    2.8524    0.0000 H   0  0  0  0  0  0  0  0  0  0  0  0
    6.5490    6.4030    0.0000 H   0  0  0  0  0  0  0  0  0  0  0  0
    6.9449    4.6631    0.0000 H   0  0  0  0  0  0  0  0  0  0  0  0
    5.1505    7.8293    0.0000 H   0  0  0  0  0  0  0  0  0  0  0  0
    3.3307    7.1914    0.0000 H   0  0  0  0  0  0  0  0  0  0  0  0
    3.5116    5.4162    0.0000 H   0  0  0  0  0  0  0  0  0  0  0  0
    3.6495    1.6598    0.0000 H   0  0  0  0  0  0  0  0  0  0  0  0
    3.4571   -1.7261    0.0000 H   0  0  0  0  0  0  0  0  0  0  0  0
    1.1741   -3.1606    0.0000 H   0  0  0  0  0  0  0  0  0  0  0  0
    2.9658   -2.1336    0.0000 H   0  0  0  0  0  0  0  0  0  0  0  0
   -1.1322   -0.5081    0.0000 H   0  0  0  0  0  0  0  0  0  0  0  0
   -0.1363    0.0627    0.0000 H   0  0  0  0  0  0  0  0  0  0  0  0
   -1.2777   -4.0200    0.0000 H   0  0  0  0  0  0  0  0  0  0  0  0
    0.2642   -3.4795    0.0000 H   0  0  0  0  0  0  0  0  0  0  0  0
   -3.7706   -1.6821    0.0000 H   0  0  0  0  0  0  0  0  0  0  0  0
   -2.0421   -0.8271    0.0000 H   0  0  0  0  0  0  0  0  0  0  0  0
   -4.8038   -2.9664    0.0000 H   0  0  0  0  0  0  0  0  0  0  0  0
   -3.9045   -4.8254    0.0000 H   0  0  0  0  0  0  0  0  0  0  0  0
   -2.1876   -4.3390    0.0000 H   0  0  0  0  0  0  0  0  0  0  0  0
   -0.4715   -1.9857    0.0000 H   0  0  0  0  0  0  0  0  0  0  0  0
   -0.2720    1.2406    0.0000 H   0  0  0  0  0  0  0  0  0  0  0  0
   -3.6216    2.1566    0.0000 H   0  0  0  0  0  0  0  0  0  0  0  0
   -3.5556    0.5241    0.0000 H   0  0  0  0  0  0  0  0  0  0  0  0
   -0.8241    3.9320    0.0000 H   0  0  0  0  0  0  0  0  0  0  0  0
   -0.4282    2.1921    0.0000 H   0  0  0  0  0  0  0  0  0  0  0  0
   -4.0423    4.7204    0.0000 H   0  0  0  0  0  0  0  0  0  0  0  0
   -3.8614    2.9452    0.0000 H   0  0  0  0  0  0  0  0  0  0  0  0
   -0.7423    5.6012    0.0000 H   0  0  0  0  0  0  0  0  0  0  0  0
   -3.5936    9.0826    0.0000 H   0  0  0  0  0  0  0  0  0  0  0  0
   -1.1629    8.1650    0.0000 H   0  0  0  0  0  0  0  0  0  0  0  0
   -5.6036    7.4364    0.0000 H   0  0  0  0  0  0  0  0  0  0  0  0
   -5.1829    4.8726    0.0000 H   0  0  0  0  0  0  0  0  0  0  0  0
   -4.1442    1.7526    0.0000 H   0  0  0  0  0  0  0  0  0  0  0  0
   -4.4851   -1.7405    0.0000 H   0  0  0  0  0  0  0  0  0  0  0  0
   -6.6195   -3.0677    0.0000 H   0  0  0  0  0  0  0  0  0  0  0  0
   -4.8911   -2.2128    0.0000 H   0  0  0  0  0  0  0  0  0  0  0  0
   -9.0288   -0.5668    0.0000 H   0  0  0  0  0  0  0  0  0  0  0  0
   -7.9300    0.1555    0.0000 H   0  0  0  0  0  0  0  0  0  0  0  0
   -9.2463   -3.8731    0.0000 H   0  0  0  0  0  0  0  0  0  0  0  0
   -7.5295   -3.3867    0.0000 H   0  0  0  0  0  0  0  0  0  0  0  0
  -11.0146   -0.9383    0.0000 H   0  0  0  0  0  0  0  0  0  0  0  0
  -13.6202   -4.1887    0.0000 H   0  0  0  0  0  0  0  0  0  0  0  0
  -12.9836   -1.5789    0.0000 H   0  0  0  0  0  0  0  0  0  0  0  0
  -11.6500   -5.8823    0.0000 H   0  0  0  0  0  0  0  0  0  0  0  0
   -9.1982   -5.0228    0.0000 H   0  0  0  0  0  0  0  0  0  0  0  0
   -8.2651   -1.8929    0.0000 H   0  0  0  0  0  0  0  0  0  0  0  0
   -8.0657    1.3334    0.0000 H   0  0  0  0  0  0  0  0  0  0  0  0
  -11.3124    2.4010    0.0000 H   0  0  0  0  0  0  0  0  0  0  0  0
  -11.3493    0.6169    0.0000 H   0  0  0  0  0  0  0  0  0  0  0  0
   -8.6177    4.0249    0.0000 H   0  0  0  0  0  0  0  0  0  0  0  0
   -8.2218    2.2849    0.0000 H   0  0  0  0  0  0  0  0  0  0  0  0
  -10.9666    6.6116    0.0000 H   0  0  0  0  0  0  0  0  0  0  0  0
   -8.5360    5.6940    0.0000 H   0  0  0  0  0  0  0  0  0  0  0  0
  -11.9379    1.8454    0.0000 H   0  0  0  0  0  0  0  0  0  0  0  0
  -12.1302   -1.5404    0.0000 H   0  0  0  0  0  0  0  0  0  0  0  0
  -14.4132   -2.9749    0.0000 H   0  0  0  0  0  0  0  0  0  0  0  0
  -12.6215   -1.9480    0.0000 H   0  0  0  0  0  0  0  0  0  0  0  0
  -16.8225   -0.4740    0.0000 H   0  0  0  0  0  0  0  0  0  0  0  0
  -15.7237    0.2483    0.0000 H   0  0  0  0  0  0  0  0  0  0  0  0
  -17.0400   -3.7803    0.0000 H   0  0  0  0  0  0  0  0  0  0  0  0
  -15.3231   -3.2939    0.0000 H   0  0  0  0  0  0  0  0  0  0  0  0
  -18.8082   -0.8455    0.0000 H   0  0  0  0  0  0  0  0  0  0  0  0
  -21.4138   -4.0959    0.0000 H   0  0  0  0  0  0  0  0  0  0  0  0
  -20.7773   -1.4861    0.0000 H   0  0  0  0  0  0  0  0  0  0  0  0
  -19.4436   -5.7895    0.0000 H   0  0  0  0  0  0  0  0  0  0  0  0
  -16.9918   -4.9300    0.0000 H   0  0  0  0  0  0  0  0  0  0  0  0
  -16.0588   -1.8000    0.0000 H   0  0  0  0  0  0  0  0  0  0  0  0
  -15.8594    1.4262    0.0000 H   0  0  0  0  0  0  0  0  0  0  0  0
  -19.2090    2.3423    0.0000 H   0  0  0  0  0  0  0  0  0  0  0  0
  -19.1430    0.7097    0.0000 H   0  0  0  0  0  0  0  0  0  0  0  0
  -16.4114    4.1177    0.0000 H   0  0  0  0  0  0  0  0  0  0  0  0
  -16.0155    2.3777    0.0000 H   0  0  0  0  0  0  0  0  0  0  0  0
  -19.6296    4.9061    0.0000 H   0  0  0  0  0  0  0  0  0  0  0  0
  -19.4488    3.1308    0.0000 H   0  0  0  0  0  0  0  0  0  0  0  0
  -16.3296    5.7868    0.0000 H   0  0  0  0  0  0  0  0  0  0  0  0
  -19.1809    9.2682    0.0000 H   0  0  0  0  0  0  0  0  0  0  0  0
  -16.7503    8.3506    0.0000 H   0  0  0  0  0  0  0  0  0  0  0  0
  -21.1909    7.6220    0.0000 H   0  0  0  0  0  0  0  0  0  0  0  0
  -20.7703    5.0582    0.0000 H   0  0  0  0  0  0  0  0  0  0  0  0
  -19.7315    1.9382    0.0000 H   0  0  0  0  0  0  0  0  0  0  0  0
  -19.9239   -1.4476    0.0000 H   0  0  0  0  0  0  0  0  0  0  0  0
  -22.2069   -2.8821    0.0000 H   0  0  0  0  0  0  0  0  0  0  0  0
  -20.4152   -1.8552    0.0000 H   0  0  0  0  0  0  0  0  0  0  0  0
  -24.7630   -0.7161    0.0000 H   0  0  0  0  0  0  0  0  0  0  0  0
  -23.5173    0.3411    0.0000 H   0  0  0  0  0  0  0  0  0  0  0  0
  -24.6587   -3.7416    0.0000 H   0  0  0  0  0  0  0  0  0  0  0  0
  -23.2374   -3.3389    0.0000 H   0  0  0  0  0  0  0  0  0  0  0  0
  -26.6019   -0.7527    0.0000 H   0  0  0  0  0  0  0  0  0  0  0  0
  -29.2075   -4.0030    0.0000 H   0  0  0  0  0  0  0  0  0  0  0  0
  -28.7259   -1.4500    0.0000 H   0  0  0  0  0  0  0  0  0  0  0  0
  -27.2373   -5.6966    0.0000 H   0  0  0  0  0  0  0  0  0  0  0  0
  -24.7855   -4.8372    0.0000 H   0  0  0  0  0  0  0  0  0  0  0  0
  -22.1958   -2.1263    0.0000 H   0  0  0  0  0  0  0  0  0  0  0  0
  -23.3267   -3.2115    0.0000 H   0  0  0  0  0  0  0  0  0  0  0  0
  -24.8490   -3.5162    0.0000 H   0  0  0  0  0  0  0  0  0  0  0  0
  -26.3105   -2.9498    0.0000 H   0  0  0  0  0  0  0  0  0  0  0  0
  -27.0760   -1.5997    0.0000 H   0  0  0  0  0  0  0  0  0  0  0  0
  -26.9724    0.2649    0.0000 H   0  0  0  0  0  0  0  0  0  0  0  0
  -24.0698    1.6602    0.0000 H   0  0  0  0  0  0  0  0  0  0  0  0
  1  2  1  0
  2  3  1  0
  3  4  2  0
  4  5  1  0
  5  6  2  0
  6  7  1  0
  7  8  2  0
  7  9  1  0
  9 10  1  0
 10 11  1  0
 11 12  2  0
  9 13  1  0
 13 14  1  0
 14 15  2  0
 15 16  1  0
 16 17  2  0
 17 18  1  0
 16 19  1  0
 14 20  1  0
 20 21  1  0
 21 22  2  0
 22 23  1  0
 23 24  2  0
 24 25  1  0
 25 26  2  0
 25 27  1  0
  1 28  2  0
  1 29  1  0
 29 30  1  0
 30 31  1  0
 31 32  1  0
 32 33  2  0
 32 34  1  0
 34 35  1  0
 35 36  1  0
 36 37  1  0
 37 38  2  0
 38 39  1  0
 39 40  2  0
 40 41  1  0
 40 42  1  0
 42 43  2  0
 35 44  1  0
 44 45  2  0
 44 46  1  0
 46 47  1  0
 47 48  1  0
 48 49  2  0
 48 50  1  0
 50 51  1  0
 51 52  1  0
 52 53  1  0
 53 54  1  0
 54 55  1  0
 55 56  1  0
 56 57  2  3
 56 58  1  0
 51 59  1  0
 59 60  2  0
 59 61  1  0
 61 62  1  0
 62 63  1  0
 63 64  1  0
 64 65  1  0
 65 66  1  0
 66 67  1  0
 62 68  1  0
 68 69  2  0
 68 70  1  0
 70 71  1  0
 71 72  1  0
 72 73  1  0
 73 74  1  0
 74 75  1  0
 75 76  1  0
 71 77  1  0
 77 78  2  0
 77 79  1  0
 79 80  1  0
 80 81  1  0
 81 82  1  0
 82 83  1  0
 83 84  1  0
 84 85  1  0
 85 86  2  3
 85 87  1  0
 80 88  1  0
 88 89  2  0
 88 90  1  0
 90 91  1  0
 91 92  1  0
 92 93  1  0
 93 94  1  0
 94 95  1  0
 95 96  1  0
 96 97  2  3
 96 98  1  0
 91 99  1  0
 99100  2  0
 99101  1  0
101102  1  0
102103  1  0
103104  1  0
104105  1  0
105106  1  0
105107  2  0
102108  1  0
108109  2  0
108110  1  0
110111  1  0
111112  1  0
112113  1  0
113114  1  0
114115  1  0
115116  1  0
116117  2  3
116118  1  0
111119  1  0
119120  2  0
119121  1  0
121122  1  0
122123  1  0
123124  1  0
124125  1  0
125126  1  0
126127  1  0
127128  2  3
127129  1  0
122130  1  0
130131  2  0
130132  1  0
132133  1  0
133134  1  0
134135  1  0
135136  1  0
136137  1  0
137138  1  0
138139  2  3
138140  1  0
133141  1  0
141142  2  0
141143  1  0
143144  1  0
144145  1  0
145146  1  0
146147  1  0
147148  1  0
148149  2  0
148150  1  0
  8  3  1  0
 43 37  1  0
147143  1  0
 11  6  1  0
 18 13  2  0
 22  9  1  0
 26 21  1  0
  2151  1  0
  4152  1  0
  5153  1  0
  8154  1  0
 15155  1  0
 17156  1  0
 18157  1  0
 19158  1  0
 23159  1  0
 24160  1  0
 26161  1  0
 27162  1  0
 29163  1  0
 30164  1  0
 30165  1  0
 31166  1  0
 31167  1  0
 34168  1  0
 35169  1  1
 36170  1  0
 36171  1  0
 38172  1  0
 39173  1  0
 41174  1  0
 42175  1  0
 43176  1  0
 46177  1  0
 47178  1  0
 47179  1  0
 50180  1  0
 51181  1  1
 52182  1  0
 52183  1  0
 53184  1  0
 53185  1  0
 54186  1  0
 54187  1  0
 55188  1  0
 57189  1  0
 57190  1  0
 58191  1  0
 58192  1  0
 61193  1  0
 62194  1  6
 63195  1  0
 63196  1  0
 64197  1  0
 64198  1  0
 65199  1  0
 65200  1  0
 66201  1  0
 66202  1  0
 67203  1  0
 67204  1  0
 67205  1  0
 70206  1  0
 71207  1  1
 72208  1  0
 72209  1  0
 73210  1  0
 73211  1  0
 74212  1  0
 74213  1  0
 75214  1  0
 75215  1  0
 76216  1  0
 76217  1  0
 76218  1  0
 79219  1  0
 80220  1  6
 81221  1  0
 81222  1  0
 82223  1  0
 82224  1  0
 83225  1  0
 83226  1  0
 84227  1  0
 86228  1  0
 86229  1  0
 87230  1  0
 87231  1  0
 90232  1  0
 91233  1  1
 92234  1  0
 92235  1  0
 93236  1  0
 93237  1  0
 94238  1  0
 94239  1  0
 95240  1  0
 97241  1  0
 97242  1  0
 98243  1  0
 98244  1  0
101245  1  0
102246  1  6
103247  1  0
103248  1  0
104249  1  0
104250  1  0
106251  1  0
106252  1  0
110253  1  0
111254  1  1
112255  1  0
112256  1  0
113257  1  0
113258  1  0
114259  1  0
114260  1  0
115261  1  0
117262  1  0
117263  1  0
118264  1  0
118265  1  0
121266  1  0
122267  1  6
123268  1  0
123269  1  0
124270  1  0
124271  1  0
125272  1  0
125273  1  0
126274  1  0
128275  1  0
128276  1  0
129277  1  0
129278  1  0
132279  1  0
133280  1  1
134281  1  0
134282  1  0
135283  1  0
135284  1  0
136285  1  0
136286  1  0
137287  1  0
139288  1  0
139289  1  0
140290  1  0
140291  1  0
144292  1  0
144293  1  0
145294  1  0
145295  1  0
146296  1  0
146297  1  0
147298  1  0
M  CHG  8  57   1  67   1  76   1  86   1  97   1 117   1 128   1 139   1
M  CHG  1 150  -1
M  END
