
     RDKit          2D

344349  0  0  0  0  0  0  0  0999 V2000
  -31.2707    0.2225    0.0000 C   0  0  0  0  0  0  0  0  0  0  0  0
  -32.5534   -0.5552    0.0000 N   0  0  0  0  0  0  0  0  0  0  0  0
  -33.8682    0.1669    0.0000 C   0  0  0  0  0  0  0  0  0  0  0  0
  -33.9003    1.6665    0.0000 C   0  0  0  0  0  0  0  0  0  0  0  0
  -35.2150    2.3886    0.0000 C   0  0  0  0  0  0  0  0  0  0  0  0
  -36.4978    1.6110    0.0000 C   0  0  0  0  0  0  0  0  0  0  0  0
  -36.4657    0.1113    0.0000 C   0  0  0  0  0  0  0  0  0  0  0  0
  -35.1509   -0.6107    0.0000 C   0  0  0  0  0  0  0  0  0  0  0  0
  -37.8820   -0.3826    0.0000 C   0  0  0  0  0  0  0  0  0  0  0  0
  -38.7894    0.8118    0.0000 O   0  0  0  0  0  0  0  0  0  0  0  0
  -37.9339    2.0439    0.0000 C   0  0  0  0  0  0  0  0  0  0  0  0
  -38.4279    3.4602    0.0000 O   0  0  0  0  0  0  0  0  0  0  0  0
  -39.3422   -0.7258    0.0000 C   0  0  0  0  0  0  0  0  0  0  0  0
  -39.7751   -2.1620    0.0000 C   0  0  0  0  0  0  0  0  0  0  0  0
  -41.2354   -2.5051    0.0000 C   0  0  0  0  0  0  0  0  0  0  0  0
  -42.2627   -1.4121    0.0000 C   0  0  0  0  0  0  0  0  0  0  0  0
  -41.8298    0.0240    0.0000 C   0  0  0  0  0  0  0  0  0  0  0  0
  -40.3695    0.3672    0.0000 C   0  0  0  0  0  0  0  0  0  0  0  0
  -43.7229   -1.7553    0.0000 O   0  0  0  0  0  0  0  0  0  0  0  0
  -38.7478   -3.2549    0.0000 O   0  0  0  0  0  0  0  0  0  0  0  0
  -37.2876   -2.9118    0.0000 C   0  0  0  0  0  0  0  0  0  0  0  0
  -36.8547   -1.4756    0.0000 C   0  0  0  0  0  0  0  0  0  0  0  0
  -35.5965   -1.8026    0.0000 C   0  0  0  0  0  0  0  0  0  0  0  0
  -35.0486   -2.3856    0.0000 C   0  0  0  0  0  0  0  0  0  0  0  0
  -35.2795   -3.1515    0.0000 C   0  0  0  0  0  0  0  0  0  0  0  0
  -36.0583   -3.3346    0.0000 C   0  0  0  0  0  0  0  0  0  0  0  0
  -33.7728   -4.7546    0.0000 O   0  0  0  0  0  0  0  0  0  0  0  0
  -31.3028    1.7221    0.0000 S   0  0  0  0  0  0  0  0  0  0  0  0
  -29.9559   -0.4996    0.0000 N   0  0  0  0  0  0  0  0  0  0  0  0
  -28.6732    0.2780    0.0000 C   0  0  0  0  0  0  0  0  0  0  0  0
  -27.3584   -0.4440    0.0000 C   0  0  0  0  0  0  0  0  0  0  0  0
  -26.0757    0.3336    0.0000 C   0  0  0  0  0  0  0  0  0  0  0  0
  -26.1078    1.8332    0.0000 O   0  0  0  0  0  0  0  0  0  0  0  0
  -24.7610   -0.3885    0.0000 N   0  0  0  0  0  0  0  0  0  0  0  0
  -23.4783    0.3891    0.0000 C   0  0  0  0  0  0  0  0  0  0  0  0
  -22.5389    1.5586    0.0000 C   0  0  0  0  0  0  0  0  0  0  0  0
  -21.0564    1.3297    0.0000 C   0  0  0  0  0  0  0  0  0  0  0  0
  -20.1170    2.4992    0.0000 C   0  0  0  0  0  0  0  0  0  0  0  0
  -19.7416    0.6077    0.0000 C   0  0  0  0  0  0  0  0  0  0  0  0
  -22.1635   -0.3329    0.0000 C   0  0  0  0  0  0  0  0  0  0  0  0
  -22.1314   -1.8326    0.0000 O   0  0  0  0  0  0  0  0  0  0  0  0
  -20.8808    0.4447    0.0000 N   0  0  0  0  0  0  0  0  0  0  0  0
  -19.5660   -0.2773    0.0000 C   0  0  0  0  0  0  0  0  0  0  0  0
  -18.5775   -1.4055    0.0000 C   0  0  0  0  0  0  0  0  0  0  0  0
  -19.0602   -2.8257    0.0000 C   0  0  0  0  0  0  0  0  0  0  0  0
  -18.0717   -3.9539    0.0000 C   0  0  0  0  0  0  0  0  0  0  0  0
  -18.5545   -5.3741    0.0000 O   0  0  0  0  0  0  0  0  0  0  0  0
  -16.6004   -3.6619    0.0000 O   0  0  0  0  0  0  0  0  0  0  0  0
  -18.2833    0.5003    0.0000 C   0  0  0  0  0  0  0  0  0  0  0  0
  -18.1323    1.9927    0.0000 O   0  0  0  0  0  0  0  0  0  0  0  0
  -16.9685   -0.2218    0.0000 N   0  0  0  0  0  0  0  0  0  0  0  0
  -15.6858    0.5558    0.0000 C   0  0  0  0  0  0  0  0  0  0  0  0
  -14.7464    1.7253    0.0000 C   0  0  0  0  0  0  0  0  0  0  0  0
  -13.2640    1.4964    0.0000 C   0  0  0  0  0  0  0  0  0  0  0  0
  -12.3246    2.6659    0.0000 N   0  0  0  0  0  0  0  0  0  0  0  0
  -12.8041    0.8453    0.0000 O   0  0  0  0  0  0  0  0  0  0  0  0
  -14.3710   -0.1662    0.0000 C   0  0  0  0  0  0  0  0  0  0  0  0
  -14.3390   -1.6659    0.0000 O   0  0  0  0  0  0  0  0  0  0  0  0
  -13.0883    0.6114    0.0000 N   0  0  0  0  0  0  0  0  0  0  0  0
  -11.7736   -0.1106    0.0000 C   0  0  0  0  0  0  0  0  0  0  0  0
  -10.7850   -1.2388    0.0000 C   0  0  0  0  0  0  0  0  0  0  0  0
   -9.3137   -0.9468    0.0000 C   0  0  0  0  0  0  0  0  0  0  0  0
   -8.3252   -2.0750    0.0000 C   0  0  0  0  0  0  0  0  0  0  0  0
   -6.8539   -1.7830    0.0000 N   0  0  0  0  0  0  0  0  0  0  0  0
   -5.8653   -2.9112    0.0000 C   0  0  0  0  0  0  0  0  0  0  0  0
   -4.4406   -2.4420    0.0000 N   0  0  0  0  0  0  0  0  0  0  0  0
   -6.3481   -4.3314    0.0000 N   0  0  0  0  0  0  0  0  0  0  0  0
  -10.4909    0.6670    0.0000 C   0  0  0  0  0  0  0  0  0  0  0  0
  -10.3399    2.1593    0.0000 O   0  0  0  0  0  0  0  0  0  0  0  0
   -9.1761   -0.0551    0.0000 N   0  0  0  0  0  0  0  0  0  0  0  0
   -7.8934    0.7225    0.0000 C   0  0  0  0  0  0  0  0  0  0  0  0
   -6.9540    1.8919    0.0000 C   0  0  0  0  0  0  0  0  0  0  0  0
   -5.4715    1.6631    0.0000 C   0  0  0  0  0  0  0  0  0  0  0  0
   -4.5322    2.8326    0.0000 C   0  0  0  0  0  0  0  0  0  0  0  0
   -3.0329    2.7861    0.0000 N   0  0  0  0  0  0  0  0  0  0  0  0
   -5.0752    4.2308    0.0000 O   0  0  0  0  0  0  0  0  0  0  0  0
   -6.5786    0.0005    0.0000 C   0  0  0  0  0  0  0  0  0  0  0  0
   -6.1846   -1.4469    0.0000 O   0  0  0  0  0  0  0  0  0  0  0  0
   -5.2959    0.7781    0.0000 N   0  0  0  0  0  0  0  0  0  0  0  0
   -3.9811    0.0560    0.0000 C   0  0  0  0  0  0  0  0  0  0  0  0
   -2.9926   -1.0721    0.0000 C   0  0  0  0  0  0  0  0  0  0  0  0
   -1.5213   -0.7801    0.0000 C   0  0  0  0  0  0  0  0  0  0  0  0
   -0.5327   -1.9083    0.0000 C   0  0  0  0  0  0  0  0  0  0  0  0
    0.9386   -1.6163    0.0000 C   0  0  0  0  0  0  0  0  0  0  0  0
    1.9271   -2.7445    0.0000 N   0  0  0  0  0  0  0  0  0  0  0  0
   -2.6984    0.8337    0.0000 C   0  0  0  0  0  0  0  0  0  0  0  0
   -2.5474    2.3260    0.0000 O   0  0  0  0  0  0  0  0  0  0  0  0
   -1.3836    0.1116    0.0000 N   0  0  0  0  0  0  0  0  0  0  0  0
   -0.1009    0.8892    0.0000 C   0  0  0  0  0  0  0  0  0  0  0  0
    0.8385    2.0586    0.0000 C   0  0  0  0  0  0  0  0  0  0  0  0
    2.3209    1.8298    0.0000 C   0  0  0  0  0  0  0  0  0  0  0  0
    3.2603    2.9992    0.0000 C   0  0  0  0  0  0  0  0  0  0  0  0
    4.7427    2.7704    0.0000 C   0  0  0  0  0  0  0  0  0  0  0  0
    5.6821    3.9398    0.0000 N   0  0  0  0  0  0  0  0  0  0  0  0
    1.2139    0.1672    0.0000 C   0  0  0  0  0  0  0  0  0  0  0  0
    1.6079   -1.2802    0.0000 O   0  0  0  0  0  0  0  0  0  0  0  0
    2.4966    0.9448    0.0000 N   0  0  0  0  0  0  0  0  0  0  0  0
    3.8113    0.2227    0.0000 C   0  0  0  0  0  0  0  0  0  0  0  0
    4.7999   -0.9054    0.0000 C   0  0  0  0  0  0  0  0  0  0  0  0
    6.2712   -0.6134    0.0000 C   0  0  0  0  0  0  0  0  0  0  0  0
    7.2597   -1.7416    0.0000 C   0  0  0  0  0  0  0  0  0  0  0  0
    7.5539    0.1642    0.0000 C   0  0  0  0  0  0  0  0  0  0  0  0
    5.0940    1.0003    0.0000 C   0  0  0  0  0  0  0  0  0  0  0  0
    5.4258    2.4632    0.0000 O   0  0  0  0  0  0  0  0  0  0  0  0
    6.4088    0.2783    0.0000 N   0  0  0  0  0  0  0  0  0  0  0  0
    7.6915    1.0559    0.0000 C   0  0  0  0  0  0  0  0  0  0  0  0
    8.6309    2.2253    0.0000 C   0  0  0  0  0  0  0  0  0  0  0  0
   10.1134    1.9965    0.0000 C   0  0  0  0  0  0  0  0  0  0  0  0
   11.0527    3.1659    0.0000 C   0  0  0  0  0  0  0  0  0  0  0  0
   12.5465    3.3026    0.0000 O   0  0  0  0  0  0  0  0  0  0  0  0
   10.3433    4.4876    0.0000 O   0  0  0  0  0  0  0  0  0  0  0  0
    9.0063    0.3339    0.0000 C   0  0  0  0  0  0  0  0  0  0  0  0
    9.2209   -1.1507    0.0000 O   0  0  0  0  0  0  0  0  0  0  0  0
   10.2890    1.1115    0.0000 N   0  0  0  0  0  0  0  0  0  0  0  0
   11.6038    0.3894    0.0000 C   0  0  0  0  0  0  0  0  0  0  0  0
   11.9324   -1.0741    0.0000 C   0  0  0  0  0  0  0  0  0  0  0  0
   12.6778   -2.3758    0.0000 C   0  0  0  0  0  0  0  0  0  0  0  0
   13.7737   -3.4000    0.0000 C   0  0  0  0  0  0  0  0  0  0  0  0
   15.1229   -4.0556    0.0000 C   0  0  0  0  0  0  0  0  0  0  0  0
   10.3039   -0.3592    0.0000 C   0  0  0  0  0  0  0  0  0  0  0  0
   11.7212    1.8848    0.0000 C   0  0  0  0  0  0  0  0  0  0  0  0
   10.4786    2.7250    0.0000 O   0  0  0  0  0  0  0  0  0  0  0  0
   12.2741    3.2792    0.0000 N   0  0  0  0  0  0  0  0  0  0  0  0
   13.2135    4.4486    0.0000 C   0  0  0  0  0  0  0  0  0  0  0  0
   12.9583    5.9267    0.0000 C   0  0  0  0  0  0  0  0  0  0  0  0
   14.4559    5.2892    0.0000 C   0  0  0  0  0  0  0  0  0  0  0  0
   13.8098    6.6429    0.0000 O   0  0  0  0  0  0  0  0  0  0  0  0
   15.8908    5.7262    0.0000 N   0  0  0  0  0  0  0  0  0  0  0  0
   17.3908    5.7209    0.0000 C   0  0  0  0  0  0  0  0  0  0  0  0
   18.3873    6.8421    0.0000 C   0  0  0  0  0  0  0  0  0  0  0  0
   17.9146    8.2656    0.0000 C   0  0  0  0  0  0  0  0  0  0  0  0
   18.9111    9.3868    0.0000 N   0  0  0  0  0  0  0  0  0  0  0  0
   16.4454    8.5681    0.0000 O   0  0  0  0  0  0  0  0  0  0  0  0
   18.8226    5.2737    0.0000 C   0  0  0  0  0  0  0  0  0  0  0  0
   19.4782    6.6228    0.0000 O   0  0  0  0  0  0  0  0  0  0  0  0
   20.0589    4.4243    0.0000 N   0  0  0  0  0  0  0  0  0  0  0  0
   20.9900    3.2483    0.0000 C   0  0  0  0  0  0  0  0  0  0  0  0
   22.4879    3.1682    0.0000 C   0  0  0  0  0  0  0  0  0  0  0  0
   23.3061    4.4254    0.0000 C   0  0  0  0  0  0  0  0  0  0  0  0
   24.8040    4.3453    0.0000 C   0  0  0  0  0  0  0  0  0  0  0  0
   25.6223    5.6024    0.0000 N   0  0  0  0  0  0  0  0  0  0  0  0
   27.1201    5.5223    0.0000 C   0  0  0  0  0  0  0  0  0  0  0  0
   27.9384    6.7795    0.0000 N   0  0  0  0  0  0  0  0  0  0  0  0
   27.7997    4.1851    0.0000 N   0  0  0  0  0  0  0  0  0  0  0  0
   21.5330    1.8500    0.0000 C   0  0  0  0  0  0  0  0  0  0  0  0
   22.9966    2.1786    0.0000 O   0  0  0  0  0  0  0  0  0  0  0  0
   21.6398    0.3538    0.0000 N   0  0  0  0  0  0  0  0  0  0  0  0
   21.3009   -1.1074    0.0000 C   0  0  0  0  0  0  0  0  0  0  0  0
   20.5463   -2.4037    0.0000 C   0  0  0  0  0  0  0  0  0  0  0  0
   19.4431   -3.4201    0.0000 C   0  0  0  0  0  0  0  0  0  0  0  0
   18.0893   -4.0661    0.0000 C   0  0  0  0  0  0  0  0  0  0  0  0
   16.6053   -4.2844    0.0000 C   0  0  0  0  0  0  0  0  0  0  0  0
   22.7722   -0.8153    0.0000 C   0  0  0  0  0  0  0  0  0  0  0  0
   22.1722   -2.3284    0.0000 C   0  0  0  0  0  0  0  0  0  0  0  0
   21.8992   -3.8033    0.0000 O   0  0  0  0  0  0  0  0  0  0  0  0
   23.6652   -2.1843    0.0000 N   0  0  0  0  0  0  0  0  0  0  0  0
   24.5365   -3.4053    0.0000 C   0  0  0  0  0  0  0  0  0  0  0  0
   24.9377   -4.8507    0.0000 C   0  0  0  0  0  0  0  0  0  0  0  0
   23.8865   -5.9207    0.0000 C   0  0  0  0  0  0  0  0  0  0  0  0
   24.2877   -7.3661    0.0000 C   0  0  0  0  0  0  0  0  0  0  0  0
   22.5328   -6.5668    0.0000 C   0  0  0  0  0  0  0  0  0  0  0  0
   26.0296   -3.2612    0.0000 C   0  0  0  0  0  0  0  0  0  0  0  0
   26.6514   -1.8962    0.0000 O   0  0  0  0  0  0  0  0  0  0  0  0
   26.9009   -4.4822    0.0000 N   0  0  0  0  0  0  0  0  0  0  0  0
   28.3940   -4.3382    0.0000 C   0  0  0  0  0  0  0  0  0  0  0  0
   29.7477   -3.6922    0.0000 C   0  0  0  0  0  0  0  0  0  0  0  0
   30.9841   -4.5415    0.0000 C   0  0  0  0  0  0  0  0  0  0  0  0
   32.3378   -3.8955    0.0000 C   0  0  0  0  0  0  0  0  0  0  0  0
   31.8554   -5.7625    0.0000 C   0  0  0  0  0  0  0  0  0  0  0  0
   29.2652   -5.5592    0.0000 C   0  0  0  0  0  0  0  0  0  0  0  0
   30.7647   -5.5982    0.0000 O   0  0  0  0  0  0  0  0  0  0  0  0
   28.6435   -6.9243    0.0000 O   0  0  0  0  0  0  0  0  0  0  0  0
  -32.3388   -2.0397    0.0000 H   0  0  0  0  0  0  0  0  0  0  0  0
  -32.6176    2.4442    0.0000 H   0  0  0  0  0  0  0  0  0  0  0  0
  -35.2471    3.8882    0.0000 H   0  0  0  0  0  0  0  0  0  0  0  0
  -34.7569   -2.0581    0.0000 H   0  0  0  0  0  0  0  0  0  0  0  0
  -41.6683   -3.9413    0.0000 H   0  0  0  0  0  0  0  0  0  0  0  0
  -42.8571    1.1170    0.0000 H   0  0  0  0  0  0  0  0  0  0  0  0
  -39.9366    1.8034    0.0000 H   0  0  0  0  0  0  0  0  0  0  0  0
  -44.7502   -0.6623    0.0000 H   0  0  0  0  0  0  0  0  0  0  0  0
  -34.9616    0.3037    0.0000 H   0  0  0  0  0  0  0  0  0  0  0  0
  -32.8760   -2.0628    0.0000 H   0  0  0  0  0  0  0  0  0  0  0  0
  -36.6932   -5.4409    0.0000 H   0  0  0  0  0  0  0  0  0  0  0  0
  -34.2057   -6.1908    0.0000 H   0  0  0  0  0  0  0  0  0  0  0  0
  -29.9238   -1.9993    0.0000 H   0  0  0  0  0  0  0  0  0  0  0  0
  -27.7338    1.4474    0.0000 H   0  0  0  0  0  0  0  0  0  0  0  0
  -29.6618    1.4062    0.0000 H   0  0  0  0  0  0  0  0  0  0  0  0
  -26.3699   -1.5722    0.0000 H   0  0  0  0  0  0  0  0  0  0  0  0
  -28.2978   -1.6135    0.0000 H   0  0  0  0  0  0  0  0  0  0  0  0
  -24.7289   -1.8881    0.0000 H   0  0  0  0  0  0  0  0  0  0  0  0
  -24.4668    1.5173    0.0000 H   0  0  0  0  0  0  0  0  0  0  0  0
  -22.2328    3.0270    0.0000 H   0  0  0  0  0  0  0  0  0  0  0  0
  -23.8537    2.2806    0.0000 H   0  0  0  0  0  0  0  0  0  0  0  0
  -20.8158   -0.1508    0.0000 H   0  0  0  0  0  0  0  0  0  0  0  0
  -18.6233    2.6359    0.0000 H   0  0  0  0  0  0  0  0  0  0  0  0
  -19.6343    3.9194    0.0000 H   0  0  0  0  0  0  0  0  0  0  0  0
  -21.3340    3.3761    0.0000 H   0  0  0  0  0  0  0  0  0  0  0  0
  -19.3476   -0.8396    0.0000 H   0  0  0  0  0  0  0  0  0  0  0  0
  -18.2757    0.9255    0.0000 H   0  0  0  0  0  0  0  0  0  0  0  0
  -19.0894    1.9584    0.0000 H   0  0  0  0  0  0  0  0  0  0  0  0
  -20.5490    1.9076    0.0000 H   0  0  0  0  0  0  0  0  0  0  0  0
  -20.6409   -1.3235    0.0000 H   0  0  0  0  0  0  0  0  0  0  0  0
  -17.3605   -2.2825    0.0000 H   0  0  0  0  0  0  0  0  0  0  0  0
  -17.2813   -0.6505    0.0000 H   0  0  0  0  0  0  0  0  0  0  0  0
  -19.9996   -3.9951    0.0000 H   0  0  0  0  0  0  0  0  0  0  0  0
  -20.4532   -2.2693    0.0000 H   0  0  0  0  0  0  0  0  0  0  0  0
  -16.7539   -1.7063    0.0000 H   0  0  0  0  0  0  0  0  0  0  0  0
  -16.6743    1.6840    0.0000 H   0  0  0  0  0  0  0  0  0  0  0  0
  -14.2637    3.1454    0.0000 H   0  0  0  0  0  0  0  0  0  0  0  0
  -16.0612    2.4473    0.0000 H   0  0  0  0  0  0  0  0  0  0  0  0
  -10.8253    2.6195    0.0000 H   0  0  0  0  0  0  0  0  0  0  0  0
  -12.8677    4.0641    0.0000 H   0  0  0  0  0  0  0  0  0  0  0  0
  -12.7566    2.0743    0.0000 H   0  0  0  0  0  0  0  0  0  0  0  0
  -12.7129   -1.2801    0.0000 H   0  0  0  0  0  0  0  0  0  0  0  0
  -10.4164   -2.6928    0.0000 H   0  0  0  0  0  0  0  0  0  0  0  0
  -12.0677   -2.0164    0.0000 H   0  0  0  0  0  0  0  0  0  0  0  0
   -8.0310   -0.1692    0.0000 H   0  0  0  0  0  0  0  0  0  0  0  0
   -9.1366    0.5427    0.0000 H   0  0  0  0  0  0  0  0  0  0  0  0
   -7.7821   -3.4733    0.0000 H   0  0  0  0  0  0  0  0  0  0  0  0
   -9.5035   -3.0032    0.0000 H   0  0  0  0  0  0  0  0  0  0  0  0
   -5.8941   -0.6302    0.0000 H   0  0  0  0  0  0  0  0  0  0  0  0
   -3.4055   -3.7474    0.0000 H   0  0  0  0  0  0  0  0  0  0  0  0
   -4.0667   -1.1437    0.0000 H   0  0  0  0  0  0  0  0  0  0  0  0
   -5.3596   -5.4596    0.0000 H   0  0  0  0  0  0  0  0  0  0  0  0
   -7.8194   -4.6234    0.0000 H   0  0  0  0  0  0  0  0  0  0  0  0
   -8.7821   -1.5024    0.0000 H   0  0  0  0  0  0  0  0  0  0  0  0
   -8.8819    1.8507    0.0000 H   0  0  0  0  0  0  0  0  0  0  0  0
   -6.4712    3.3121    0.0000 H   0  0  0  0  0  0  0  0  0  0  0  0
   -8.2688    2.6140    0.0000 H   0  0  0  0  0  0  0  0  0  0  0  0
   -4.1568    0.9411    0.0000 H   0  0  0  0  0  0  0  0  0  0  0  0
   -5.0522    0.2229    0.0000 H   0  0  0  0  0  0  0  0  0  0  0  0
   -2.1103    3.7732    0.0000 H   0  0  0  0  0  0  0  0  0  0  0  0
   -1.9750    1.4991    0.0000 H   0  0  0  0  0  0  0  0  0  0  0  0
   -4.9641    2.2409    0.0000 H   0  0  0  0  0  0  0  0  0  0  0  0
   -4.9205   -1.1134    0.0000 H   0  0  0  0  0  0  0  0  0  0  0  0
   -2.6240   -2.5262    0.0000 H   0  0  0  0  0  0  0  0  0  0  0  0
   -4.4253   -1.5163    0.0000 H   0  0  0  0  0  0  0  0  0  0  0  0
   -0.3429    0.1480    0.0000 H   0  0  0  0  0  0  0  0  0  0  0  0
   -1.1639    0.6767    0.0000 H   0  0  0  0  0  0  0  0  0  0  0  0
   -0.1642   -3.3623    0.0000 H   0  0  0  0  0  0  0  0  0  0  0  0
   -1.7111   -2.8365    0.0000 H   0  0  0  0  0  0  0  0  0  0  0  0
    2.3065   -1.0009    0.0000 H   0  0  0  0  0  0  0  0  0  0  0  0
    0.5700   -0.1623    0.0000 H   0  0  0  0  0  0  0  0  0  0  0  0
    3.3518   -2.2753    0.0000 H   0  0  0  0  0  0  0  0  0  0  0  0
    2.4702   -4.1427    0.0000 H   0  0  0  0  0  0  0  0  0  0  0  0
    0.7488   -3.6727    0.0000 H   0  0  0  0  0  0  0  0  0  0  0  0
   -0.9896   -1.3357    0.0000 H   0  0  0  0  0  0  0  0  0  0  0  0
   -1.0895    2.0174    0.0000 H   0  0  0  0  0  0  0  0  0  0  0  0
    1.1445    3.5271    0.0000 H   0  0  0  0  0  0  0  0  0  0  0  0
   -0.4763    2.7807    0.0000 H   0  0  0  0  0  0  0  0  0  0  0  0
    3.5379    0.9529    0.0000 H   0  0  0  0  0  0  0  0  0  0  0  0
    2.5615    0.3492    0.0000 H   0  0  0  0  0  0  0  0  0  0  0  0
    3.5663    4.4677    0.0000 H   0  0  0  0  0  0  0  0  0  0  0  0
    2.0433    3.8762    0.0000 H   0  0  0  0  0  0  0  0  0  0  0  0
    6.1357    2.2140    0.0000 H   0  0  0  0  0  0  0  0  0  0  0  0
    4.4367    1.3020    0.0000 H   0  0  0  0  0  0  0  0  0  0  0  0
    7.1256    3.5320    0.0000 H   0  0  0  0  0  0  0  0  0  0  0  0
    6.1649    5.3600    0.0000 H   0  0  0  0  0  0  0  0  0  0  0  0
    4.4652    4.8168    0.0000 H   0  0  0  0  0  0  0  0  0  0  0  0
    2.8283    2.4076    0.0000 H   0  0  0  0  0  0  0  0  0  0  0  0
    3.0215   -1.0525    0.0000 H   0  0  0  0  0  0  0  0  0  0  0  0
    5.1684   -2.3595    0.0000 H   0  0  0  0  0  0  0  0  0  0  0  0
    3.4320   -1.5209    0.0000 H   0  0  0  0  0  0  0  0  0  0  0  0
    6.4483    0.8761    0.0000 H   0  0  0  0  0  0  0  0  0  0  0  0
    8.7379   -1.9964    0.0000 H   0  0  0  0  0  0  0  0  0  0  0  0
    7.8028   -3.1399    0.0000 H   0  0  0  0  0  0  0  0  0  0  0  0
    6.0814   -2.6698    0.0000 H   0  0  0  0  0  0  0  0  0  0  0  0
    8.7708   -0.7128    0.0000 H   0  0  0  0  0  0  0  0  0  0  0  0
    8.4933    1.3336    0.0000 H   0  0  0  0  0  0  0  0  0  0  0  0
    6.4352    1.1634    0.0000 H   0  0  0  0  0  0  0  0  0  0  0  0
    6.8028   -1.1690    0.0000 H   0  0  0  0  0  0  0  0  0  0  0  0
    7.0054    2.3898    0.0000 H   0  0  0  0  0  0  0  0  0  0  0  0
    9.1137    3.6455    0.0000 H   0  0  0  0  0  0  0  0  0  0  0  0
    7.2379    2.7817    0.0000 H   0  0  0  0  0  0  0  0  0  0  0  0
   11.5638    1.6141    0.0000 H   0  0  0  0  0  0  0  0  0  0  0  0
   10.1717    0.4976    0.0000 H   0  0  0  0  0  0  0  0  0  0  0  0
   10.4400    2.6039    0.0000 H   0  0  0  0  0  0  0  0  0  0  0  0
   10.4373   -0.9531    0.0000 H   0  0  0  0  0  0  0  0  0  0  0  0
   11.0525   -2.2889    0.0000 H   0  0  0  0  0  0  0  0  0  0  0  0
   11.2639   -2.8769    0.0000 H   0  0  0  0  0  0  0  0  0  0  0  0
   12.0255   -3.7266    0.0000 H   0  0  0  0  0  0  0  0  0  0  0  0
   12.4702   -4.1422    0.0000 H   0  0  0  0  0  0  0  0  0  0  0  0
   13.7310   -4.8994    0.0000 H   0  0  0  0  0  0  0  0  0  0  0  0
   14.6757   -5.4874    0.0000 H   0  0  0  0  0  0  0  0  0  0  0  0
   10.1804   -2.0205    0.0000 H   0  0  0  0  0  0  0  0  0  0  0  0
    9.2701   -1.3880    0.0000 H   0  0  0  0  0  0  0  0  0  0  0  0
    9.3392    0.5391    0.0000 H   0  0  0  0  0  0  0  0  0  0  0  0
   11.0794    4.1862    0.0000 H   0  0  0  0  0  0  0  0  0  0  0  0
   11.7612    4.8239    0.0000 H   0  0  0  0  0  0  0  0  0  0  0  0
   11.5506    6.4448    0.0000 H   0  0  0  0  0  0  0  0  0  0  0  0
   13.2240    7.4030    0.0000 H   0  0  0  0  0  0  0  0  0  0  0  0
   14.4150    6.2845    0.0000 H   0  0  0  0  0  0  0  0  0  0  0  0
   15.6725    7.2103    0.0000 H   0  0  0  0  0  0  0  0  0  0  0  0
   16.7787    7.0904    0.0000 H   0  0  0  0  0  0  0  0  0  0  0  0
   19.7072    7.5548    0.0000 H   0  0  0  0  0  0  0  0  0  0  0  0
   19.5753    5.9263    0.0000 H   0  0  0  0  0  0  0  0  0  0  0  0
   18.4384   10.8104    0.0000 H   0  0  0  0  0  0  0  0  0  0  0  0
   20.3803    9.0844    0.0000 H   0  0  0  0  0  0  0  0  0  0  0  0
   21.0831    5.5203    0.0000 H   0  0  0  0  0  0  0  0  0  0  0  0
   21.5115    4.6547    0.0000 H   0  0  0  0  0  0  0  0  0  0  0  0
   23.7861    2.4168    0.0000 H   0  0  0  0  0  0  0  0  0  0  0  0
   22.5125    1.6684    0.0000 H   0  0  0  0  0  0  0  0  0  0  0  0
   23.6451    5.8866    0.0000 H   0  0  0  0  0  0  0  0  0  0  0  0
   22.0079    5.1768    0.0000 H   0  0  0  0  0  0  0  0  0  0  0  0
   26.1841    3.7577    0.0000 H   0  0  0  0  0  0  0  0  0  0  0  0
   24.6457    2.8537    0.0000 H   0  0  0  0  0  0  0  0  0  0  0  0
   24.9427    6.9396    0.0000 H   0  0  0  0  0  0  0  0  0  0  0  0
   29.4363    6.6994    0.0000 H   0  0  0  0  0  0  0  0  0  0  0  0
   27.2588    8.1167    0.0000 H   0  0  0  0  0  0  0  0  0  0  0  0
   29.2976    4.1050    0.0000 H   0  0  0  0  0  0  0  0  0  0  0  0
   26.9814    2.9280    0.0000 H   0  0  0  0  0  0  0  0  0  0  0  0
   23.1352    0.2364    0.0000 H   0  0  0  0  0  0  0  0  0  0  0  0
   21.0190   -3.8273    0.0000 H   0  0  0  0  0  0  0  0  0  0  0  0
   21.9565   -2.9148    0.0000 H   0  0  0  0  0  0  0  0  0  0  0  0
   19.6577   -4.9046    0.0000 H   0  0  0  0  0  0  0  0  0  0  0  0
   20.6400   -4.3241    0.0000 H   0  0  0  0  0  0  0  0  0  0  0  0
   17.6780   -5.5086    0.0000 H   0  0  0  0  0  0  0  0  0  0  0  0
   19.1084   -5.1668    0.0000 H   0  0  0  0  0  0  0  0  0  0  0  0
   16.6000   -5.7844    0.0000 H   0  0  0  0  0  0  0  0  0  0  0  0
   24.0043   -1.6708    0.0000 H   0  0  0  0  0  0  0  0  0  0  0  0
   23.9505    0.1128    0.0000 H   0  0  0  0  0  0  0  0  0  0  0  0
   22.5836    0.6728    0.0000 H   0  0  0  0  0  0  0  0  0  0  0  0
   24.4488   -0.9052    0.0000 H   0  0  0  0  0  0  0  0  0  0  0  0
   23.1141   -3.8815    0.0000 H   0  0  0  0  0  0  0  0  0  0  0  0
   25.8090   -6.0717    0.0000 H   0  0  0  0  0  0  0  0  0  0  0  0
   26.4075   -4.5514    0.0000 H   0  0  0  0  0  0  0  0  0  0  0  0
   22.8729   -4.8151    0.0000 H   0  0  0  0  0  0  0  0  0  0  0  0
   23.3748   -8.5563    0.0000 H   0  0  0  0  0  0  0  0  0  0  0  0
   25.1589   -8.5871    0.0000 H   0  0  0  0  0  0  0  0  0  0  0  0
   25.7101   -6.8899    0.0000 H   0  0  0  0  0  0  0  0  0  0  0  0
   22.2340   -8.0367    0.0000 H   0  0  0  0  0  0  0  0  0  0  0  0
   21.0397   -6.7108    0.0000 H   0  0  0  0  0  0  0  0  0  0  0  0
   22.1316   -5.1214    0.0000 H   0  0  0  0  0  0  0  0  0  0  0  0
   26.4501   -5.9129    0.0000 H   0  0  0  0  0  0  0  0  0  0  0  0
   27.9928   -2.8928    0.0000 H   0  0  0  0  0  0  0  0  0  0  0  0
   30.6606   -2.5019    0.0000 H   0  0  0  0  0  0  0  0  0  0  0  0
   28.8764   -2.4712    0.0000 H   0  0  0  0  0  0  0  0  0  0  0  0
   30.3863   -5.9173    0.0000 H   0  0  0  0  0  0  0  0  0  0  0  0
   33.6685   -4.5878    0.0000 H   0  0  0  0  0  0  0  0  0  0  0  0
   33.3890   -2.8254    0.0000 H   0  0  0  0  0  0  0  0  0  0  0  0
   31.6219   -2.5774    0.0000 H   0  0  0  0  0  0  0  0  0  0  0  0
   33.3548   -5.8015    0.0000 H   0  0  0  0  0  0  0  0  0  0  0  0
   32.2565   -7.2079    0.0000 H   0  0  0  0  0  0  0  0  0  0  0  0
   30.5016   -6.4086    0.0000 H   0  0  0  0  0  0  0  0  0  0  0  0
  1  2  1  0
  2  3  1  0
  3  4  2  0
  4  5  1  0
  5  6  2  0
  6  7  1  0
  7  8  2  0
  7  9  1  0
  9 10  1  0
 10 11  1  0
 11 12  2  0
  9 13  1  0
 13 14  1  0
 14 15  2  0
 15 16  1  0
 16 17  2  0
 17 18  1  0
 16 19  1  0
 14 20  1  0
 20 21  1  0
 21 22  2  0
 22 23  1  0
 23 24  2  0
 24 25  1  0
 25 26  2  0
 25 27  1  0
  1 28  2  0
  1 29  1  0
 29 30  1  0
 30 31  1  0
 31 32  1  0
 32 33  2  0
 32 34  1  0
 34 35  1  0
 35 36  1  0
 36 37  1  0
 37 38  1  0
 37 39  1  0
 35 40  1  0
 40 41  2  0
 40 42  1  0
 42 43  1  0
 43 44  1  0
 44 45  1  0
 45 46  1  0
 46 47  2  0
 46 48  1  0
 43 49  1  0
 49 50  2  0
 49 51  1  0
 51 52  1  0
 52 53  1  0
 53 54  1  0
 54 55  1  0
 54 56  2  0
 52 57  1  0
 57 58  2  0
 57 59  1  0
 59 60  1  0
 60 61  1  0
 61 62  1  0
 62 63  1  0
 63 64  1  0
 64 65  1  0
 65 66  2  3
 65 67  1  0
 60 68  1  0
 68 69  2  0
 68 70  1  0
 70 71  1  0
 71 72  1  0
 72 73  1  0
 73 74  1  0
 74 75  1  0
 74 76  2  0
 71 77  1  0
 77 78  2  0
 77 79  1  0
 79 80  1  0
 80 81  1  0
 81 82  1  0
 82 83  1  0
 83 84  1  0
 84 85  1  0
 80 86  1  0
 86 87  2  0
 86 88  1  0
 88 89  1  0
 89 90  1  0
 90 91  1  0
 91 92  1  0
 92 93  1  0
 93 94  1  0
 89 95  1  0
 95 96  2  0
 95 97  1  0
 97 98  1  0
 98 99  1  0
 99100  1  0
100101  1  0
100102  1  0
 98103  1  0
103104  2  0
103105  1  0
105106  1  0
106107  1  0
107108  1  0
108109  1  0
109110  2  0
109111  1  0
106112  1  0
112113  2  0
112114  1  0
115114  1  6
115116  1  0
116117  1  0
117118  1  0
118119  1  0
115120  1  0
115121  1  0
121122  2  0
121123  1  0
123124  1  0
124125  1  0
124126  1  0
126127  2  0
126128  1  0
128129  1  0
129130  1  0
130131  1  0
131132  1  0
131133  2  0
129134  1  0
134135  2  0
134136  1  0
136137  1  0
137138  1  0
138139  1  0
139140  1  0
140141  1  0
141142  1  0
142143  2  3
142144  1  0
137145  1  0
145146  2  0
145147  1  0
147148  1  0
148149  1  0
149150  1  0
150151  1  0
151152  1  0
148153  1  0
148154  1  6
154155  2  0
154156  1  0
156157  1  0
157158  1  0
158159  1  0
159160  1  0
159161  1  0
157162  1  0
162163  2  0
162164  1  0
164165  1  0
165166  1  0
166167  1  0
167168  1  0
167169  1  0
165170  1  0
170171  2  0
170172  1  0
  8  3  1  0
 11  6  1  0
119152  2  0
 18 13  2  0
 22  9  1  0
 26 21  1  0
  2173  1  0
  4174  1  0
  5175  1  0
  8176  1  0
 15177  1  0
 17178  1  0
 18179  1  0
 19180  1  0
 23181  1  0
 24182  1  0
 26183  1  0
 27184  1  0
 29185  1  0
 30186  1  0
 30187  1  0
 31188  1  0
 31189  1  0
 34190  1  0
 35191  1  1
 36192  1  0
 36193  1  0
 37194  1  0
 38195  1  0
 38196  1  0
 38197  1  0
 39198  1  0
 39199  1  0
 39200  1  0
 42201  1  0
 43202  1  6
 44203  1  0
 44204  1  0
 45205  1  0
 45206  1  0
 51207  1  0
 52208  1  1
 53209  1  0
 53210  1  0
 55211  1  0
 55212  1  0
 59213  1  0
 60214  1  6
 61215  1  0
 61216  1  0
 62217  1  0
 62218  1  0
 63219  1  0
 63220  1  0
 64221  1  0
 66222  1  0
 66223  1  0
 67224  1  0
 67225  1  0
 70226  1  0
 71227  1  1
 72228  1  0
 72229  1  0
 73230  1  0
 73231  1  0
 75232  1  0
 75233  1  0
 79234  1  0
 80235  1  6
 81236  1  0
 81237  1  0
 82238  1  0
 82239  1  0
 83240  1  0
 83241  1  0
 84242  1  0
 84243  1  0
 85244  1  0
 85245  1  0
 85246  1  0
 88247  1  0
 89248  1  1
 90249  1  0
 90250  1  0
 91251  1  0
 91252  1  0
 92253  1  0
 92254  1  0
 93255  1  0
 93256  1  0
 94257  1  0
 94258  1  0
 94259  1  0
 97260  1  0
 98261  1  6
 99262  1  0
 99263  1  0
100264  1  0
101265  1  0
101266  1  0
101267  1  0
102268  1  0
102269  1  0
102270  1  0
105271  1  0
106272  1  1
107273  1  0
107274  1  0
108275  1  0
108276  1  0
114277  1  0
116278  1  0
116279  1  0
117280  1  0
117281  1  0
118282  1  0
118283  1  0
119284  1  0
120285  1  0
120286  1  0
120287  1  0
123288  1  0
124289  1  1
125290  1  0
125291  1  0
125292  1  0
128293  1  0
129294  1  1
130295  1  0
130296  1  0
132297  1  0
132298  1  0
136299  1  0
137300  1  1
138301  1  0
138302  1  0
139303  1  0
139304  1  0
140305  1  0
140306  1  0
141307  1  0
143308  1  0
143309  1  0
144310  1  0
144311  1  0
147312  1  0
149313  1  0
149314  1  0
150315  1  0
150316  1  0
151317  1  0
151318  1  0
152319  1  0
153320  1  0
153321  1  0
153322  1  0
156323  1  0
157324  1  6
158325  1  0
158326  1  0
159327  1  0
160328  1  0
160329  1  0
160330  1  0
161331  1  0
161332  1  0
161333  1  0
164334  1  0
165335  1  1
166336  1  0
166337  1  0
167338  1  0
168339  1  0
168340  1  0
168341  1  0
169342  1  0
169343  1  0
169344  1  0
M  CHG  7  48  -1  66   1  85   1  94   1 111  -1 143   1 172  -1
M  END
