
     RDKit          2D

248258  0  0  0  0  0  0  0  0999 V2000
   12.4499   -1.4719    0.0000 C   0  0  0  0  0  0  0  0  0  0  0  0
   13.8208   -2.0806    0.0000 N   0  0  0  0  0  0  0  0  0  0  0  0
   13.9792   -3.5722    0.0000 C   0  0  0  0  0  0  0  0  0  0  0  0
   12.7666   -4.4552    0.0000 C   0  0  0  0  0  0  0  0  0  0  0  0
   12.9249   -5.9468    0.0000 C   0  0  0  0  0  0  0  0  0  0  0  0
   14.2958   -6.5555    0.0000 C   0  0  0  0  0  0  0  0  0  0  0  0
   15.5085   -5.6726    0.0000 C   0  0  0  0  0  0  0  0  0  0  0  0
   15.3501   -4.1809    0.0000 C   0  0  0  0  0  0  0  0  0  0  0  0
   16.7229   -6.5530    0.0000 C   0  0  0  0  0  0  0  0  0  0  0  0
   16.2608   -7.9800    0.0000 O   0  0  0  0  0  0  0  0  0  0  0  0
   14.7608   -7.9816    0.0000 C   0  0  0  0  0  0  0  0  0  0  0  0
   13.8804   -9.1960    0.0000 O   0  0  0  0  0  0  0  0  0  0  0  0
   17.8386   -7.5555    0.0000 C   0  0  0  0  0  0  0  0  0  0  0  0
   19.2647   -7.0905    0.0000 C   0  0  0  0  0  0  0  0  0  0  0  0
   20.3805   -8.0931    0.0000 C   0  0  0  0  0  0  0  0  0  0  0  0
   20.0701   -9.5606    0.0000 C   0  0  0  0  0  0  0  0  0  0  0  0
   18.6440  -10.0256    0.0000 C   0  0  0  0  0  0  0  0  0  0  0  0
   17.5283   -9.0231    0.0000 C   0  0  0  0  0  0  0  0  0  0  0  0
   21.1859  -10.5632    0.0000 O   0  0  0  0  0  0  0  0  0  0  0  0
   19.5751   -5.6230    0.0000 O   0  0  0  0  0  0  0  0  0  0  0  0
   18.4593   -4.6204    0.0000 C   0  0  0  0  0  0  0  0  0  0  0  0
   17.0332   -5.0854    0.0000 C   0  0  0  0  0  0  0  0  0  0  0  0
   16.5830   -3.8659    0.0000 C   0  0  0  0  0  0  0  0  0  0  0  0
   16.7485   -3.0832    0.0000 C   0  0  0  0  0  0  0  0  0  0  0  0
   17.5091   -2.8352    0.0000 C   0  0  0  0  0  0  0  0  0  0  0  0
   18.1042   -3.3699    0.0000 C   0  0  0  0  0  0  0  0  0  0  0  0
   17.9643   -0.6828    0.0000 O   0  0  0  0  0  0  0  0  0  0  0  0
   11.2373   -2.3549    0.0000 S   0  0  0  0  0  0  0  0  0  0  0  0
   12.2916    0.0197    0.0000 N   0  0  0  0  0  0  0  0  0  0  0  0
   10.9206    0.6284    0.0000 C   0  0  0  0  0  0  0  0  0  0  0  0
   10.7623    2.1200    0.0000 C   0  0  0  0  0  0  0  0  0  0  0  0
    9.3913    2.7287    0.0000 C   0  0  0  0  0  0  0  0  0  0  0  0
    8.5758    1.4698    0.0000 O   0  0  0  0  0  0  0  0  0  0  0  0
    9.2330    4.2203    0.0000 N   0  0  0  0  0  0  0  0  0  0  0  0
    7.8621    4.8290    0.0000 C   0  0  0  0  0  0  0  0  0  0  0  0
    7.8711    3.3290    0.0000 C   0  0  0  0  0  0  0  0  0  0  0  0
    7.4376    1.8930    0.0000 C   0  0  0  0  0  0  0  0  0  0  0  0
    6.6001    0.6486    0.0000 C   0  0  0  0  0  0  0  0  0  0  0  0
    5.4330   -0.2937    0.0000 C   0  0  0  0  0  0  0  0  0  0  0  0
    8.9807    5.8283    0.0000 C   0  0  0  0  0  0  0  0  0  0  0  0
    7.4113    6.2597    0.0000 C   0  0  0  0  0  0  0  0  0  0  0  0
    8.7588    6.9186    0.0000 O   0  0  0  0  0  0  0  0  0  0  0  0
    6.5589    7.4939    0.0000 N   0  0  0  0  0  0  0  0  0  0  0  0
    5.3805    8.4221    0.0000 C   0  0  0  0  0  0  0  0  0  0  0  0
    5.2967    9.9197    0.0000 C   0  0  0  0  0  0  0  0  0  0  0  0
    6.5519   10.7411    0.0000 C   0  0  0  0  0  0  0  0  0  0  0  0
    6.4681   12.2388    0.0000 O   0  0  0  0  0  0  0  0  0  0  0  0
    7.8908   10.0649    0.0000 O   0  0  0  0  0  0  0  0  0  0  0  0
    3.9809    8.9617    0.0000 C   0  0  0  0  0  0  0  0  0  0  0  0
    4.3059   10.4260    0.0000 O   0  0  0  0  0  0  0  0  0  0  0  0
    2.4845    9.0648    0.0000 N   0  0  0  0  0  0  0  0  0  0  0  0
    1.0241    8.7222    0.0000 C   0  0  0  0  0  0  0  0  0  0  0  0
   -0.1990    9.5905    0.0000 C   0  0  0  0  0  0  0  0  0  0  0  0
   -0.0587   11.0839    0.0000 C   0  0  0  0  0  0  0  0  0  0  0  0
    1.3049   11.7090    0.0000 C   0  0  0  0  0  0  0  0  0  0  0  0
    1.4452   13.2024    0.0000 C   0  0  0  0  0  0  0  0  0  0  0  0
    0.2221   14.0707    0.0000 C   0  0  0  0  0  0  0  0  0  0  0  0
   -1.1415   13.4456    0.0000 C   0  0  0  0  0  0  0  0  0  0  0  0
   -1.2818   11.9521    0.0000 C   0  0  0  0  0  0  0  0  0  0  0  0
   -0.2704    7.9644    0.0000 C   0  0  0  0  0  0  0  0  0  0  0  0
   -1.2127    9.1315    0.0000 O   0  0  0  0  0  0  0  0  0  0  0  0
   -1.2840    6.8587    0.0000 N   0  0  0  0  0  0  0  0  0  0  0  0
   -1.9267    5.5033    0.0000 C   0  0  0  0  0  0  0  0  0  0  0  0
   -3.3681    5.0884    0.0000 C   0  0  0  0  0  0  0  0  0  0  0  0
   -4.1643    6.3597    0.0000 O   0  0  0  0  0  0  0  0  0  0  0  0
   -2.1413    4.0188    0.0000 C   0  0  0  0  0  0  0  0  0  0  0  0
   -3.2039    4.2770    0.0000 O   0  0  0  0  0  0  0  0  0  0  0  0
   -1.9088    2.5369    0.0000 N   0  0  0  0  0  0  0  0  0  0  0  0
   -1.2499    1.1894    0.0000 C   0  0  0  0  0  0  0  0  0  0  0  0
   -0.2230    0.0960    0.0000 C   0  0  0  0  0  0  0  0  0  0  0  0
    1.0805   -0.6462    0.0000 C   0  0  0  0  0  0  0  0  0  0  0  0
    2.5449   -0.9712    0.0000 C   0  0  0  0  0  0  0  0  0  0  0  0
    4.0400   -0.8501    0.0000 C   0  0  0  0  0  0  0  0  0  0  0  0
   -1.2586   -0.3685    0.0000 C   0  0  0  0  0  0  0  0  0  0  0  0
   -1.0584   -1.6442    0.0000 C   0  0  0  0  0  0  0  0  0  0  0  0
   -1.2432   -2.9223    0.0000 C   0  0  0  0  0  0  0  0  0  0  0  0
   -1.7965   -4.0891    0.0000 C   0  0  0  0  0  0  0  0  0  0  0  0
   -2.7099    1.7329    0.0000 C   0  0  0  0  0  0  0  0  0  0  0  0
   -1.3486    3.4612    0.0000 O   0  0  0  0  0  0  0  0  0  0  0  0
   -3.8321    2.3718    0.0000 N   0  0  0  0  0  0  0  0  0  0  0  0
   -5.0927    2.6516    0.0000 C   0  0  0  0  0  0  0  0  0  0  0  0
   -5.7699    4.6629    0.0000 C   0  0  0  0  0  0  0  0  0  0  0  0
   -4.9955    5.9476    0.0000 C   0  0  0  0  0  0  0  0  0  0  0  0
   -3.4958    5.9192    0.0000 C   0  0  0  0  0  0  0  0  0  0  0  0
   -2.7213    7.2038    0.0000 C   0  0  0  0  0  0  0  0  0  0  0  0
   -3.4466    8.5168    0.0000 C   0  0  0  0  0  0  0  0  0  0  0  0
   -2.6722    9.8014    0.0000 O   0  0  0  0  0  0  0  0  0  0  0  0
   -4.9464    8.5452    0.0000 C   0  0  0  0  0  0  0  0  0  0  0  0
   -5.7208    7.2605    0.0000 C   0  0  0  0  0  0  0  0  0  0  0  0
   -6.3799    2.5473    0.0000 C   0  0  0  0  0  0  0  0  0  0  0  0
   -6.8823    4.6892    0.0000 O   0  0  0  0  0  0  0  0  0  0  0  0
   -7.5791    2.0683    0.0000 N   0  0  0  0  0  0  0  0  0  0  0  0
   -8.5838    1.2571    0.0000 C   0  0  0  0  0  0  0  0  0  0  0  0
  -10.5786    1.9817    0.0000 C   0  0  0  0  0  0  0  0  0  0  0  0
  -11.1001    3.3882    0.0000 C   0  0  0  0  0  0  0  0  0  0  0  0
  -10.2688    4.6367    0.0000 C   0  0  0  0  0  0  0  0  0  0  0  0
  -11.1994    5.8132    0.0000 N   0  0  0  0  0  0  0  0  0  0  0  0
  -12.6058    5.2917    0.0000 C   0  0  0  0  0  0  0  0  0  0  0  0
  -13.9344    5.9879    0.0000 C   0  0  0  0  0  0  0  0  0  0  0  0
  -15.2017    5.1854    0.0000 C   0  0  0  0  0  0  0  0  0  0  0  0
  -15.1403    3.6866    0.0000 C   0  0  0  0  0  0  0  0  0  0  0  0
  -13.8117    2.9904    0.0000 C   0  0  0  0  0  0  0  0  0  0  0  0
  -12.5444    3.7929    0.0000 C   0  0  0  0  0  0  0  0  0  0  0  0
   -9.3048    0.1858    0.0000 C   0  0  0  0  0  0  0  0  0  0  0  0
  -11.2927    1.1284    0.0000 O   0  0  0  0  0  0  0  0  0  0  0  0
   -9.6780   -1.0504    0.0000 N   0  0  0  0  0  0  0  0  0  0  0  0
   -9.6703   -2.3417    0.0000 C   0  0  0  0  0  0  0  0  0  0  0  0
  -11.4805   -3.4495    0.0000 C   0  0  0  0  0  0  0  0  0  0  0  0
  -12.9052   -2.9803    0.0000 C   0  0  0  0  0  0  0  0  0  0  0  0
  -14.0239   -3.9796    0.0000 C   0  0  0  0  0  0  0  0  0  0  0  0
  -15.4486   -3.5105    0.0000 C   0  0  0  0  0  0  0  0  0  0  0  0
  -16.5673   -4.5097    0.0000 N   0  0  0  0  0  0  0  0  0  0  0  0
   -9.2822   -3.5734    0.0000 C   0  0  0  0  0  0  0  0  0  0  0  0
  -11.2586   -4.5399    0.0000 O   0  0  0  0  0  0  0  0  0  0  0  0
   -8.5484   -4.6360    0.0000 N   0  0  0  0  0  0  0  0  0  0  0  0
   -7.5339   -5.4350    0.0000 C   0  0  0  0  0  0  0  0  0  0  0  0
   -6.3290   -5.8995    0.0000 C   0  0  0  0  0  0  0  0  0  0  0  0
   -5.0407   -5.9883    0.0000 C   0  0  0  0  0  0  0  0  0  0  0  0
   -3.7835   -5.6934    0.0000 C   0  0  0  0  0  0  0  0  0  0  0  0
   -2.6691   -5.0410    0.0000 C   0  0  0  0  0  0  0  0  0  0  0  0
   -9.2109   -6.7356    0.0000 C   0  0  0  0  0  0  0  0  0  0  0  0
   -7.7965   -7.5410    0.0000 C   0  0  0  0  0  0  0  0  0  0  0  0
   -6.6610   -8.5211    0.0000 O   0  0  0  0  0  0  0  0  0  0  0  0
   -9.0516   -8.3624    0.0000 N   0  0  0  0  0  0  0  0  0  0  0  0
   -8.9678   -9.8600    0.0000 C   0  0  0  0  0  0  0  0  0  0  0  0
   -8.3768  -11.2387    0.0000 C   0  0  0  0  0  0  0  0  0  0  0  0
   -9.2753  -12.4398    0.0000 C   0  0  0  0  0  0  0  0  0  0  0  0
   -8.6844  -13.8185    0.0000 C   0  0  0  0  0  0  0  0  0  0  0  0
  -10.5305  -13.2612    0.0000 C   0  0  0  0  0  0  0  0  0  0  0  0
  -10.2229  -10.6814    0.0000 C   0  0  0  0  0  0  0  0  0  0  0  0
  -10.3223  -12.1781    0.0000 O   0  0  0  0  0  0  0  0  0  0  0  0
  -11.5618  -10.0051    0.0000 O   0  0  0  0  0  0  0  0  0  0  0  0
   14.9168   -1.0565    0.0000 H   0  0  0  0  0  0  0  0  0  0  0  0
   11.3956   -3.8465    0.0000 H   0  0  0  0  0  0  0  0  0  0  0  0
   11.7123   -6.8297    0.0000 H   0  0  0  0  0  0  0  0  0  0  0  0
   15.8619   -3.5697    0.0000 H   0  0  0  0  0  0  0  0  0  0  0  0
   21.8066   -7.6281    0.0000 H   0  0  0  0  0  0  0  0  0  0  0  0
   18.3337  -11.4932    0.0000 H   0  0  0  0  0  0  0  0  0  0  0  0
   16.1022   -9.4881    0.0000 H   0  0  0  0  0  0  0  0  0  0  0  0
   20.8755  -12.0307    0.0000 H   0  0  0  0  0  0  0  0  0  0  0  0
   14.4914   -4.5479    0.0000 H   0  0  0  0  0  0  0  0  0  0  0  0
   15.2426   -1.4843    0.0000 H   0  0  0  0  0  0  0  0  0  0  0  0
   20.1958   -2.6879    0.0000 H   0  0  0  0  0  0  0  0  0  0  0  0
   19.3904   -0.2178    0.0000 H   0  0  0  0  0  0  0  0  0  0  0  0
   13.5042    0.9026    0.0000 H   0  0  0  0  0  0  0  0  0  0  0  0
   10.5592   -0.8274    0.0000 H   0  0  0  0  0  0  0  0  0  0  0  0
    9.4242    0.7315    0.0000 H   0  0  0  0  0  0  0  0  0  0  0  0
   12.2587    2.0169    0.0000 H   0  0  0  0  0  0  0  0  0  0  0  0
   11.1237    3.5758    0.0000 H   0  0  0  0  0  0  0  0  0  0  0  0
   10.5442    4.9488    0.0000 H   0  0  0  0  0  0  0  0  0  0  0  0
    9.3454    3.6057    0.0000 H   0  0  0  0  0  0  0  0  0  0  0  0
    8.8731    2.2128    0.0000 H   0  0  0  0  0  0  0  0  0  0  0  0
    8.8424    1.3673    0.0000 H   0  0  0  0  0  0  0  0  0  0  0  0
    8.3770    0.7236    0.0000 H   0  0  0  0  0  0  0  0  0  0  0  0
    8.0371    0.2187    0.0000 H   0  0  0  0  0  0  0  0  0  0  0  0
    6.9790   -0.8028    0.0000 H   0  0  0  0  0  0  0  0  0  0  0  0
    6.1908   -1.5882    0.0000 H   0  0  0  0  0  0  0  0  0  0  0  0
   10.4520    5.5363    0.0000 H   0  0  0  0  0  0  0  0  0  0  0  0
    9.6902    7.1499    0.0000 H   0  0  0  0  0  0  0  0  0  0  0  0
    8.0620    7.0140    0.0000 H   0  0  0  0  0  0  0  0  0  0  0  0
    7.6523    8.5208    0.0000 H   0  0  0  0  0  0  0  0  0  0  0  0
    6.7112    9.1144    0.0000 H   0  0  0  0  0  0  0  0  0  0  0  0
    4.7058   11.2984    0.0000 H   0  0  0  0  0  0  0  0  0  0  0  0
    3.7969    9.9407    0.0000 H   0  0  0  0  0  0  0  0  0  0  0  0
    9.1459   10.8862    0.0000 H   0  0  0  0  0  0  0  0  0  0  0  0
    2.5465   10.5635    0.0000 H   0  0  0  0  0  0  0  0  0  0  0  0
    1.3125   10.1942    0.0000 H   0  0  0  0  0  0  0  0  0  0  0  0
   -1.6454    9.9880    0.0000 H   0  0  0  0  0  0  0  0  0  0  0  0
   -1.1506    8.4309    0.0000 H   0  0  0  0  0  0  0  0  0  0  0  0
    2.6247   10.9963    0.0000 H   0  0  0  0  0  0  0  0  0  0  0  0
    2.8087   13.8276    0.0000 H   0  0  0  0  0  0  0  0  0  0  0  0
    0.3624   15.5641    0.0000 H   0  0  0  0  0  0  0  0  0  0  0  0
   -2.3646   14.3138    0.0000 H   0  0  0  0  0  0  0  0  0  0  0  0
   -2.7114   11.4979    0.0000 H   0  0  0  0  0  0  0  0  0  0  0  0
   -2.2888    7.9724    0.0000 H   0  0  0  0  0  0  0  0  0  0  0  0
   -2.5923    6.8476    0.0000 H   0  0  0  0  0  0  0  0  0  0  0  0
   -4.6793    4.3599    0.0000 H   0  0  0  0  0  0  0  0  0  0  0  0
   -3.4191    3.5893    0.0000 H   0  0  0  0  0  0  0  0  0  0  0  0
   -5.8897    5.7143    0.0000 H   0  0  0  0  0  0  0  0  0  0  0  0
   -3.3395    2.0861    0.0000 H   0  0  0  0  0  0  0  0  0  0  0  0
   -0.1803   -1.4034    0.0000 H   0  0  0  0  0  0  0  0  0  0  0  0
   -1.6420   -0.3903    0.0000 H   0  0  0  0  0  0  0  0  0  0  0  0
    1.5633   -2.0664    0.0000 H   0  0  0  0  0  0  0  0  0  0  0  0
    0.2650   -1.9051    0.0000 H   0  0  0  0  0  0  0  0  0  0  0  0
    3.2702   -2.2842    0.0000 H   0  0  0  0  0  0  0  0  0  0  0  0
    1.9637   -2.3540    0.0000 H   0  0  0  0  0  0  0  0  0  0  0  0
    4.3826   -2.3104    0.0000 H   0  0  0  0  0  0  0  0  0  0  0  0
    0.3663    0.9967    0.0000 H   0  0  0  0  0  0  0  0  0  0  0  0
    0.7962   -0.7290    0.0000 H   0  0  0  0  0  0  0  0  0  0  0  0
    1.1077   -1.3231    0.0000 H   0  0  0  0  0  0  0  0  0  0  0  0
    0.7988   -2.5944    0.0000 H   0  0  0  0  0  0  0  0  0  0  0  0
    0.9260   -3.0708    0.0000 H   0  0  0  0  0  0  0  0  0  0  0  0
    0.3980   -4.2678    0.0000 H   0  0  0  0  0  0  0  0  0  0  0  0
    0.0287   -5.3174    0.0000 H   0  0  0  0  0  0  0  0  0  0  0  0
   -3.5782    4.5250    0.0000 H   0  0  0  0  0  0  0  0  0  0  0  0
   -4.4635    4.7328    0.0000 H   0  0  0  0  0  0  0  0  0  0  0  0
   -6.9006    5.6487    0.0000 H   0  0  0  0  0  0  0  0  0  0  0  0
   -7.1304    4.0311    0.0000 H   0  0  0  0  0  0  0  0  0  0  0  0
   -2.7705    4.6062    0.0000 H   0  0  0  0  0  0  0  0  0  0  0  0
   -1.2593    7.5392    0.0000 H   0  0  0  0  0  0  0  0  0  0  0  0
   -3.5521   11.0162    0.0000 H   0  0  0  0  0  0  0  0  0  0  0  0
   -5.6717    9.8582    0.0000 H   0  0  0  0  0  0  0  0  0  0  0  0
   -7.2205    7.2889    0.0000 H   0  0  0  0  0  0  0  0  0  0  0  0
   -8.5271    4.0497    0.0000 H   0  0  0  0  0  0  0  0  0  0  0  0
   -9.4787    3.1815    0.0000 H   0  0  0  0  0  0  0  0  0  0  0  0
  -12.0542    1.7124    0.0000 H   0  0  0  0  0  0  0  0  0  0  0  0
  -10.9328    0.5242    0.0000 H   0  0  0  0  0  0  0  0  0  0  0  0
   -8.7887    4.8803    0.0000 H   0  0  0  0  0  0  0  0  0  0  0  0
  -10.7946    7.2575    0.0000 H   0  0  0  0  0  0  0  0  0  0  0  0
  -13.9958    7.4866    0.0000 H   0  0  0  0  0  0  0  0  0  0  0  0
  -16.5303    5.8816    0.0000 H   0  0  0  0  0  0  0  0  0  0  0  0
  -16.4076    2.8841    0.0000 H   0  0  0  0  0  0  0  0  0  0  0  0
  -13.7503    1.4917    0.0000 H   0  0  0  0  0  0  0  0  0  0  0  0
  -11.8554   -0.7356    0.0000 H   0  0  0  0  0  0  0  0  0  0  0  0
  -11.6483   -1.6790    0.0000 H   0  0  0  0  0  0  0  0  0  0  0  0
  -12.0235   -4.8478    0.0000 H   0  0  0  0  0  0  0  0  0  0  0  0
  -10.5617   -4.6352    0.0000 H   0  0  0  0  0  0  0  0  0  0  0  0
  -13.9616   -1.9155    0.0000 H   0  0  0  0  0  0  0  0  0  0  0  0
  -12.3622   -1.5821    0.0000 H   0  0  0  0  0  0  0  0  0  0  0  0
  -14.7333   -5.3013    0.0000 H   0  0  0  0  0  0  0  0  0  0  0  0
  -12.9675   -5.0445    0.0000 H   0  0  0  0  0  0  0  0  0  0  0  0
  -16.6270   -2.5823    0.0000 H   0  0  0  0  0  0  0  0  0  0  0  0
  -14.9056   -2.1122    0.0000 H   0  0  0  0  0  0  0  0  0  0  0  0
  -17.9920   -4.0406    0.0000 H   0  0  0  0  0  0  0  0  0  0  0  0
  -16.2612   -5.9782    0.0000 H   0  0  0  0  0  0  0  0  0  0  0  0
  -10.1520   -6.1420    0.0000 H   0  0  0  0  0  0  0  0  0  0  0  0
   -5.9592   -7.9893    0.0000 H   0  0  0  0  0  0  0  0  0  0  0  0
   -7.2614   -7.8637    0.0000 H   0  0  0  0  0  0  0  0  0  0  0  0
   -4.2232   -7.9786    0.0000 H   0  0  0  0  0  0  0  0  0  0  0  0
   -5.3528   -8.1400    0.0000 H   0  0  0  0  0  0  0  0  0  0  0  0
   -2.3007   -7.2117    0.0000 H   0  0  0  0  0  0  0  0  0  0  0  0
   -3.6306   -7.8396    0.0000 H   0  0  0  0  0  0  0  0  0  0  0  0
   -1.2871   -6.7527    0.0000 H   0  0  0  0  0  0  0  0  0  0  0  0
   -9.6373   -8.1738    0.0000 H   0  0  0  0  0  0  0  0  0  0  0  0
  -10.7109   -6.7484    0.0000 H   0  0  0  0  0  0  0  0  0  0  0  0
   -9.9945   -5.4566    0.0000 H   0  0  0  0  0  0  0  0  0  0  0  0
  -10.4629   -7.8543    0.0000 H   0  0  0  0  0  0  0  0  0  0  0  0
   -7.5075   -9.5174    0.0000 H   0  0  0  0  0  0  0  0  0  0  0  0
   -7.2244  -12.1988    0.0000 H   0  0  0  0  0  0  0  0  0  0  0  0
   -7.1217  -10.4173    0.0000 H   0  0  0  0  0  0  0  0  0  0  0  0
  -10.6259  -11.7871    0.0000 H   0  0  0  0  0  0  0  0  0  0  0  0
   -9.4298  -15.1202    0.0000 H   0  0  0  0  0  0  0  0  0  0  0  0
   -7.6575  -14.9119    0.0000 H   0  0  0  0  0  0  0  0  0  0  0  0
   -7.3385  -13.1562    0.0000 H   0  0  0  0  0  0  0  0  0  0  0  0
  -10.6299  -14.7579    0.0000 H   0  0  0  0  0  0  0  0  0  0  0  0
  -11.9908  -13.6038    0.0000 H   0  0  0  0  0  0  0  0  0  0  0  0
  -11.1214  -11.8825    0.0000 H   0  0  0  0  0  0  0  0  0  0  0  0
  -12.8169  -10.8265    0.0000 H   0  0  0  0  0  0  0  0  0  0  0  0
  1  2  1  0
  2  3  1  0
  3  4  2  0
  4  5  1  0
  5  6  2  0
  6  7  1  0
  7  8  2  0
  7  9  1  0
  9 10  1  0
 10 11  1  0
 11 12  2  0
  9 13  1  0
 13 14  1  0
 14 15  2  0
 15 16  1  0
 16 17  2  0
 17 18  1  0
 16 19  1  0
 14 20  1  0
 20 21  1  0
 21 22  2  0
 22 23  1  0
 23 24  2  0
 24 25  1  0
 25 26  2  0
 25 27  1  0
  1 28  2  0
  1 29  1  0
 29 30  1  0
 30 31  1  0
 31 32  1  0
 32 33  2  0
 32 34  1  0
 35 34  1  6
 35 36  1  0
 36 37  1  0
 37 38  1  0
 38 39  1  0
 35 40  1  0
 35 41  1  0
 41 42  2  0
 41 43  1  0
 43 44  1  0
 44 45  1  0
 45 46  1  0
 46 47  2  0
 46 48  1  0
 44 49  1  0
 49 50  2  0
 49 51  1  0
 51 52  1  0
 52 53  1  0
 53 54  1  0
 54 55  2  0
 55 56  1  0
 56 57  2  0
 57 58  1  0
 58 59  2  0
 52 60  1  0
 60 61  2  0
 60 62  1  0
 62 63  1  0
 63 64  1  0
 64 65  1  0
 63 66  1  0
 66 67  2  0
 66 68  1  0
 68 69  1  0
 69 70  1  0
 70 71  1  0
 71 72  1  0
 72 73  1  0
 69 74  1  0
 74 75  1  0
 75 76  1  0
 76 77  1  0
 69 78  1  0
 78 79  2  0
 78 80  1  0
 80 81  1  0
 81 82  1  0
 82 83  1  0
 83 84  2  0
 84 85  1  0
 85 86  2  0
 86 87  1  0
 86 88  1  0
 88 89  2  0
 81 90  1  0
 90 91  2  0
 90 92  1  0
 92 93  1  0
 93 94  1  0
 94 95  1  0
 95 96  2  0
 96 97  1  0
 97 98  1  0
 98 99  2  0
 99100  1  0
100101  2  0
101102  1  0
102103  2  0
 93104  1  0
104105  2  0
104106  1  0
106107  1  0
107108  1  0
108109  1  0
109110  1  0
110111  1  0
111112  1  0
107113  1  0
113114  2  0
113115  1  0
115116  1  0
116117  1  0
117118  1  0
118119  1  0
119120  1  0
116121  1  0
116122  1  1
122123  2  0
122124  1  0
124125  1  0
125126  1  0
126127  1  0
127128  1  0
127129  1  0
125130  1  0
130131  2  0
130132  1  0
  8  3  1  0
 59 54  1  0
 89 83  1  0
103 95  1  0
 11  6  1  0
 39 73  2  0
103 98  1  0
 18 13  2  0
 77120  2  0
 22  9  1  0
 26 21  1  0
  2133  1  0
  4134  1  0
  5135  1  0
  8136  1  0
 15137  1  0
 17138  1  0
 18139  1  0
 19140  1  0
 23141  1  0
 24142  1  0
 26143  1  0
 27144  1  0
 29145  1  0
 30146  1  0
 30147  1  0
 31148  1  0
 31149  1  0
 34150  1  0
 36151  1  0
 36152  1  0
 37153  1  0
 37154  1  0
 38155  1  0
 38156  1  0
 39157  1  0
 40158  1  0
 40159  1  0
 40160  1  0
 43161  1  0
 44162  1  6
 45163  1  0
 45164  1  0
 48165  1  0
 51166  1  0
 52167  1  6
 53168  1  0
 53169  1  0
 55170  1  0
 56171  1  0
 57172  1  0
 58173  1  0
 59174  1  0
 62175  1  0
 63176  1  6
 64177  1  0
 64178  1  0
 65179  1  0
 68180  1  0
 70181  1  0
 70182  1  0
 71183  1  0
 71184  1  0
 72185  1  0
 72186  1  0
 73187  1  0
 74188  1  0
 74189  1  0
 75190  1  0
 75191  1  0
 76192  1  0
 76193  1  0
 77194  1  0
 80195  1  0
 81196  1  6
 82197  1  0
 82198  1  0
 84199  1  0
 85200  1  0
 87201  1  0
 88202  1  0
 89203  1  0
 92204  1  0
 93205  1  6
 94206  1  0
 94207  1  0
 96208  1  0
 97209  1  0
 99210  1  0
100211  1  0
101212  1  0
102213  1  0
106214  1  0
107215  1  6
108216  1  0
108217  1  0
109218  1  0
109219  1  0
110220  1  0
110221  1  0
111222  1  0
111223  1  0
112224  1  0
112225  1  0
115226  1  0
117227  1  0
117228  1  0
118229  1  0
118230  1  0
119231  1  0
119232  1  0
120233  1  0
121234  1  0
121235  1  0
121236  1  0
124237  1  0
125238  1  1
126239  1  0
126240  1  0
127241  1  0
128242  1  0
128243  1  0
128244  1  0
129245  1  0
129246  1  0
129247  1  0
132248  1  0
M  END
