
     RDKit          2D

237245  0  0  0  0  0  0  0  0999 V2000
  -19.2343    0.9813    0.0000 C   0  0  0  0  0  0  0  0  0  0  0  0
  -20.5318    0.2287    0.0000 N   0  0  0  0  0  0  0  0  0  0  0  0
  -21.8324    0.9761    0.0000 C   0  0  0  0  0  0  0  0  0  0  0  0
  -21.8354    2.4761    0.0000 C   0  0  0  0  0  0  0  0  0  0  0  0
  -23.1359    3.2235    0.0000 C   0  0  0  0  0  0  0  0  0  0  0  0
  -24.4334    2.4709    0.0000 C   0  0  0  0  0  0  0  0  0  0  0  0
  -24.4304    0.9709    0.0000 C   0  0  0  0  0  0  0  0  0  0  0  0
  -23.1299    0.2235    0.0000 C   0  0  0  0  0  0  0  0  0  0  0  0
  -25.8561    0.5045    0.0000 C   0  0  0  0  0  0  0  0  0  0  0  0
  -26.7402    1.7162    0.0000 O   0  0  0  0  0  0  0  0  0  0  0  0
  -25.8610    2.9315    0.0000 C   0  0  0  0  0  0  0  0  0  0  0  0
  -26.3273    4.3572    0.0000 O   0  0  0  0  0  0  0  0  0  0  0  0
  -27.3227    0.1897    0.0000 C   0  0  0  0  0  0  0  0  0  0  0  0
  -27.7833   -1.2378    0.0000 C   0  0  0  0  0  0  0  0  0  0  0  0
  -29.2499   -1.5527    0.0000 C   0  0  0  0  0  0  0  0  0  0  0  0
  -30.2559   -0.4400    0.0000 C   0  0  0  0  0  0  0  0  0  0  0  0
  -29.7952    0.9876    0.0000 C   0  0  0  0  0  0  0  0  0  0  0  0
  -28.3286    1.3024    0.0000 C   0  0  0  0  0  0  0  0  0  0  0  0
  -31.7224   -0.7548    0.0000 O   0  0  0  0  0  0  0  0  0  0  0  0
  -26.7774   -2.3505    0.0000 O   0  0  0  0  0  0  0  0  0  0  0  0
  -25.3108   -2.0357    0.0000 C   0  0  0  0  0  0  0  0  0  0  0  0
  -24.8501   -0.6082    0.0000 C   0  0  0  0  0  0  0  0  0  0  0  0
  -23.5985   -0.9596    0.0000 C   0  0  0  0  0  0  0  0  0  0  0  0
  -23.0620   -1.5530    0.0000 C   0  0  0  0  0  0  0  0  0  0  0  0
  -23.3077   -2.3143    0.0000 C   0  0  0  0  0  0  0  0  0  0  0  0
  -24.0899   -2.4823    0.0000 C   0  0  0  0  0  0  0  0  0  0  0  0
  -21.8323   -3.9463    0.0000 O   0  0  0  0  0  0  0  0  0  0  0  0
  -19.2373    2.4813    0.0000 S   0  0  0  0  0  0  0  0  0  0  0  0
  -17.9337    0.2339    0.0000 N   0  0  0  0  0  0  0  0  0  0  0  0
  -16.6362    0.9865    0.0000 C   0  0  0  0  0  0  0  0  0  0  0  0
  -15.3357    0.2391    0.0000 C   0  0  0  0  0  0  0  0  0  0  0  0
  -14.0381    0.9918    0.0000 C   0  0  0  0  0  0  0  0  0  0  0  0
  -14.0412    2.4918    0.0000 O   0  0  0  0  0  0  0  0  0  0  0  0
  -12.7376    0.2444    0.0000 N   0  0  0  0  0  0  0  0  0  0  0  0
  -11.4401    0.9970    0.0000 C   0  0  0  0  0  0  0  0  0  0  0  0
  -10.4782    2.1480    0.0000 C   0  0  0  0  0  0  0  0  0  0  0  0
   -9.0005    1.8905    0.0000 C   0  0  0  0  0  0  0  0  0  0  0  0
   -8.0386    3.0415    0.0000 C   0  0  0  0  0  0  0  0  0  0  0  0
   -6.5405    2.9660    0.0000 N   0  0  0  0  0  0  0  0  0  0  0  0
   -8.5545    4.4500    0.0000 O   0  0  0  0  0  0  0  0  0  0  0  0
  -10.1395    0.2496    0.0000 C   0  0  0  0  0  0  0  0  0  0  0  0
  -10.1365   -1.2504    0.0000 O   0  0  0  0  0  0  0  0  0  0  0  0
   -8.8420    1.0022    0.0000 N   0  0  0  0  0  0  0  0  0  0  0  0
   -7.5415    0.2548    0.0000 C   0  0  0  0  0  0  0  0  0  0  0  0
   -6.5750   -0.8923    0.0000 C   0  0  0  0  0  0  0  0  0  0  0  0
   -5.3752   -1.7927    0.0000 O   0  0  0  0  0  0  0  0  0  0  0  0
   -7.0852   -2.3029    0.0000 C   0  0  0  0  0  0  0  0  0  0  0  0
   -6.2439    1.0074    0.0000 C   0  0  0  0  0  0  0  0  0  0  0  0
   -6.1128    2.0930    0.0000 O   0  0  0  0  0  0  0  0  0  0  0  0
   -4.9434    0.2600    0.0000 N   0  0  0  0  0  0  0  0  0  0  0  0
   -3.6459    1.0126    0.0000 C   0  0  0  0  0  0  0  0  0  0  0  0
   -2.6840    2.1636    0.0000 C   0  0  0  0  0  0  0  0  0  0  0  0
   -1.2063    1.9061    0.0000 C   0  0  0  0  0  0  0  0  0  0  0  0
   -0.6904    0.4976    0.0000 C   0  0  0  0  0  0  0  0  0  0  0  0
    0.7873    0.2401    0.0000 C   0  0  0  0  0  0  0  0  0  0  0  0
    1.7492    1.3911    0.0000 C   0  0  0  0  0  0  0  0  0  0  0  0
    1.2333    2.7996    0.0000 C   0  0  0  0  0  0  0  0  0  0  0  0
   -0.2444    3.0571    0.0000 C   0  0  0  0  0  0  0  0  0  0  0  0
   -2.3453    0.2652    0.0000 C   0  0  0  0  0  0  0  0  0  0  0  0
   -2.5252   -1.2239    0.0000 O   0  0  0  0  0  0  0  0  0  0  0  0
   -1.0478    1.0179    0.0000 N   0  0  0  0  0  0  0  0  0  0  0  0
    0.2527    0.2705    0.0000 C   0  0  0  0  0  0  0  0  0  0  0  0
    1.2192   -0.8767    0.0000 C   0  0  0  0  0  0  0  0  0  0  0  0
    0.7090   -2.2872    0.0000 O   0  0  0  0  0  0  0  0  0  0  0  0
    1.5503    1.0231    0.0000 C   0  0  0  0  0  0  0  0  0  0  0  0
    1.7301    2.5123    0.0000 O   0  0  0  0  0  0  0  0  0  0  0  0
    2.8508    0.2757    0.0000 N   0  0  0  0  0  0  0  0  0  0  0  0
    4.1483    1.0283    0.0000 C   0  0  0  0  0  0  0  0  0  0  0  0
    4.4426    2.4991    0.0000 C   0  0  0  0  0  0  0  0  0  0  0  0
    5.1573    3.8179    0.0000 C   0  0  0  0  0  0  0  0  0  0  0  0
    6.2290    4.8674    0.0000 C   0  0  0  0  0  0  0  0  0  0  0  0
    7.5625    5.5544    0.0000 C   0  0  0  0  0  0  0  0  0  0  0  0
    2.8313    1.7463    0.0000 C   0  0  0  0  0  0  0  0  0  0  0  0
    4.3007   -0.4639    0.0000 C   0  0  0  0  0  0  0  0  0  0  0  0
    2.9813   -1.1775    0.0000 O   0  0  0  0  0  0  0  0  0  0  0  0
    4.8861   -1.8450    0.0000 N   0  0  0  0  0  0  0  0  0  0  0  0
    5.8526   -2.9921    0.0000 C   0  0  0  0  0  0  0  0  0  0  0  0
    5.6320   -4.4758    0.0000 C   0  0  0  0  0  0  0  0  0  0  0  0
    4.2368   -5.0266    0.0000 C   0  0  0  0  0  0  0  0  0  0  0  0
    4.0162   -6.5103    0.0000 C   0  0  0  0  0  0  0  0  0  0  0  0
    2.7374   -5.0670    0.0000 C   0  0  0  0  0  0  0  0  0  0  0  0
    7.1143   -3.8034    0.0000 C   0  0  0  0  0  0  0  0  0  0  0  0
    6.5001   -5.1719    0.0000 O   0  0  0  0  0  0  0  0  0  0  0  0
    8.5590   -4.2068    0.0000 N   0  0  0  0  0  0  0  0  0  0  0  0
   10.0585   -4.1664    0.0000 C   0  0  0  0  0  0  0  0  0  0  0  0
   11.0810   -5.2639    0.0000 C   0  0  0  0  0  0  0  0  0  0  0  0
   10.6417   -6.6981    0.0000 C   0  0  0  0  0  0  0  0  0  0  0  0
    9.2232   -7.1858    0.0000 C   0  0  0  0  0  0  0  0  0  0  0  0
    9.2486   -8.6856    0.0000 N   0  0  0  0  0  0  0  0  0  0  0  0
   10.6829   -9.1248    0.0000 C   0  0  0  0  0  0  0  0  0  0  0  0
   11.3162  -10.4846    0.0000 C   0  0  0  0  0  0  0  0  0  0  0  0
   12.8104  -10.6161    0.0000 C   0  0  0  0  0  0  0  0  0  0  0  0
   13.6713   -9.3877    0.0000 C   0  0  0  0  0  0  0  0  0  0  0  0
   13.0381   -8.0280    0.0000 C   0  0  0  0  0  0  0  0  0  0  0  0
   11.5438   -7.8965    0.0000 C   0  0  0  0  0  0  0  0  0  0  0  0
   11.4794   -3.6858    0.0000 C   0  0  0  0  0  0  0  0  0  0  0  0
   12.1664   -5.0192    0.0000 O   0  0  0  0  0  0  0  0  0  0  0  0
   12.6956   -2.8077    0.0000 N   0  0  0  0  0  0  0  0  0  0  0  0
   13.5989   -1.6102    0.0000 C   0  0  0  0  0  0  0  0  0  0  0  0
   15.0944   -1.4951    0.0000 C   0  0  0  0  0  0  0  0  0  0  0  0
   15.9419   -2.7327    0.0000 C   0  0  0  0  0  0  0  0  0  0  0  0
   17.4375   -2.6176    0.0000 C   0  0  0  0  0  0  0  0  0  0  0  0
   18.2850   -3.8553    0.0000 C   0  0  0  0  0  0  0  0  0  0  0  0
   19.7805   -3.7402    0.0000 N   0  0  0  0  0  0  0  0  0  0  0  0
   14.1091   -0.1996    0.0000 C   0  0  0  0  0  0  0  0  0  0  0  0
   15.5799   -0.4939    0.0000 O   0  0  0  0  0  0  0  0  0  0  0  0
   14.1808    1.2987    0.0000 N   0  0  0  0  0  0  0  0  0  0  0  0
   13.8078    2.7515    0.0000 C   0  0  0  0  0  0  0  0  0  0  0  0
   13.0230    4.0299    0.0000 C   0  0  0  0  0  0  0  0  0  0  0  0
   11.8964    5.0202    0.0000 C   0  0  0  0  0  0  0  0  0  0  0  0
   10.5279    5.6343    0.0000 C   0  0  0  0  0  0  0  0  0  0  0  0
    9.0392    5.8179    0.0000 C   0  0  0  0  0  0  0  0  0  0  0  0
   15.2855    2.4940    0.0000 C   0  0  0  0  0  0  0  0  0  0  0  0
   14.6503    3.9926    0.0000 C   0  0  0  0  0  0  0  0  0  0  0  0
   14.3428    5.4607    0.0000 O   0  0  0  0  0  0  0  0  0  0  0  0
   16.1463    3.8835    0.0000 N   0  0  0  0  0  0  0  0  0  0  0  0
   16.9888    5.1245    0.0000 C   0  0  0  0  0  0  0  0  0  0  0  0
   17.3560    6.5789    0.0000 C   0  0  0  0  0  0  0  0  0  0  0  0
   18.7991    6.9881    0.0000 C   0  0  0  0  0  0  0  0  0  0  0  0
   19.1663    8.4424    0.0000 C   0  0  0  0  0  0  0  0  0  0  0  0
   20.2951    6.8790    0.0000 C   0  0  0  0  0  0  0  0  0  0  0  0
   18.4848    5.0155    0.0000 C   0  0  0  0  0  0  0  0  0  0  0  0
   19.4723    6.1446    0.0000 O   0  0  0  0  0  0  0  0  0  0  0  0
   19.1383    3.6653    0.0000 O   0  0  0  0  0  0  0  0  0  0  0  0
  -20.3460   -1.2597    0.0000 H   0  0  0  0  0  0  0  0  0  0  0  0
  -20.5378    3.2287    0.0000 H   0  0  0  0  0  0  0  0  0  0  0  0
  -23.1389    4.7235    0.0000 H   0  0  0  0  0  0  0  0  0  0  0  0
  -22.7640   -1.2312    0.0000 H   0  0  0  0  0  0  0  0  0  0  0  0
  -29.7106   -2.9802    0.0000 H   0  0  0  0  0  0  0  0  0  0  0  0
  -30.8011    2.1003    0.0000 H   0  0  0  0  0  0  0  0  0  0  0  0
  -27.8679    2.7299    0.0000 H   0  0  0  0  0  0  0  0  0  0  0  0
  -32.7284    0.3579    0.0000 H   0  0  0  0  0  0  0  0  0  0  0  0
  -22.9229    1.1341    0.0000 H   0  0  0  0  0  0  0  0  0  0  0  0
  -20.8836   -1.2724    0.0000 H   0  0  0  0  0  0  0  0  0  0  0  0
  -24.7655   -4.5759    0.0000 H   0  0  0  0  0  0  0  0  0  0  0  0
  -22.2930   -5.3738    0.0000 H   0  0  0  0  0  0  0  0  0  0  0  0
  -17.9307   -1.2661    0.0000 H   0  0  0  0  0  0  0  0  0  0  0  0
  -15.6743    2.1375    0.0000 H   0  0  0  0  0  0  0  0  0  0  0  0
  -17.6027    2.1337    0.0000 H   0  0  0  0  0  0  0  0  0  0  0  0
  -14.3692   -0.9080    0.0000 H   0  0  0  0  0  0  0  0  0  0  0  0
  -16.2975   -0.9119    0.0000 H   0  0  0  0  0  0  0  0  0  0  0  0
  -12.7346   -1.2556    0.0000 H   0  0  0  0  0  0  0  0  0  0  0  0
  -12.4066    2.1441    0.0000 H   0  0  0  0  0  0  0  0  0  0  0  0
   -9.9680    3.5585    0.0000 H   0  0  0  0  0  0  0  0  0  0  0  0
  -11.7787    2.8954    0.0000 H   0  0  0  0  0  0  0  0  0  0  0  0
   -7.6999    1.1431    0.0000 H   0  0  0  0  0  0  0  0  0  0  0  0
   -8.7886    0.4055    0.0000 H   0  0  0  0  0  0  0  0  0  0  0  0
   -5.5990    3.9350    0.0000 H   0  0  0  0  0  0  0  0  0  0  0  0
   -5.6749    1.5426    0.0000 H   0  0  0  0  0  0  0  0  0  0  0  0
   -8.4820    2.4583    0.0000 H   0  0  0  0  0  0  0  0  0  0  0  0
   -8.6365   -0.7704    0.0000 H   0  0  0  0  0  0  0  0  0  0  0  0
   -5.3632   -0.0083    0.0000 H   0  0  0  0  0  0  0  0  0  0  0  0
   -5.0886   -3.1282    0.0000 H   0  0  0  0  0  0  0  0  0  0  0  0
   -6.2657   -3.5593    0.0000 H   0  0  0  0  0  0  0  0  0  0  0  0
   -8.0470   -3.4539    0.0000 H   0  0  0  0  0  0  0  0  0  0  0  0
   -8.4671   -1.7196    0.0000 H   0  0  0  0  0  0  0  0  0  0  0  0
   -4.7576   -1.2284    0.0000 H   0  0  0  0  0  0  0  0  0  0  0  0
   -4.6124    2.1598    0.0000 H   0  0  0  0  0  0  0  0  0  0  0  0
   -2.1738    3.5742    0.0000 H   0  0  0  0  0  0  0  0  0  0  0  0
   -3.9845    2.9110    0.0000 H   0  0  0  0  0  0  0  0  0  0  0  0
   -1.5048   -0.7620    0.0000 H   0  0  0  0  0  0  0  0  0  0  0  0
    1.6287   -1.0017    0.0000 H   0  0  0  0  0  0  0  0  0  0  0  0
    3.2269    1.1336    0.0000 H   0  0  0  0  0  0  0  0  0  0  0  0
    2.1952    3.9506    0.0000 H   0  0  0  0  0  0  0  0  0  0  0  0
   -0.7603    4.4656    0.0000 H   0  0  0  0  0  0  0  0  0  0  0  0
   -0.6878    2.4740    0.0000 H   0  0  0  0  0  0  0  0  0  0  0  0
   -0.7091   -0.8805    0.0000 H   0  0  0  0  0  0  0  0  0  0  0  0
    2.3003   -1.9165    0.0000 H   0  0  0  0  0  0  0  0  0  0  0  0
    2.3142    0.1485    0.0000 H   0  0  0  0  0  0  0  0  0  0  0  0
    1.6755   -3.4344    0.0000 H   0  0  0  0  0  0  0  0  0  0  0  0
    2.8538   -1.2243    0.0000 H   0  0  0  0  0  0  0  0  0  0  0  0
    2.9508    2.3431    0.0000 H   0  0  0  0  0  0  0  0  0  0  0  0
    3.5345    3.6930    0.0000 H   0  0  0  0  0  0  0  0  0  0  0  0
    3.7322    4.2858    0.0000 H   0  0  0  0  0  0  0  0  0  0  0  0
    4.4736    5.1530    0.0000 H   0  0  0  0  0  0  0  0  0  0  0  0
    4.9085    5.5789    0.0000 H   0  0  0  0  0  0  0  0  0  0  0  0
    6.1513    6.3654    0.0000 H   0  0  0  0  0  0  0  0  0  0  0  0
    7.0819    6.9754    0.0000 H   0  0  0  0  0  0  0  0  0  0  0  0
    2.6690    3.4043    0.0000 H   0  0  0  0  0  0  0  0  0  0  0  0
    1.4259    2.1364    0.0000 H   0  0  0  0  0  0  0  0  0  0  0  0
    1.8879    0.8257    0.0000 H   0  0  0  0  0  0  0  0  0  0  0  0
    3.6078   -2.6297    0.0000 H   0  0  0  0  0  0  0  0  0  0  0  0
    4.3704   -3.2223    0.0000 H   0  0  0  0  0  0  0  0  0  0  0  0
    6.1091   -5.8979    0.0000 H   0  0  0  0  0  0  0  0  0  0  0  0
    7.0967   -4.7994    0.0000 H   0  0  0  0  0  0  0  0  0  0  0  0
    3.7597   -3.6045    0.0000 H   0  0  0  0  0  0  0  0  0  0  0  0
    2.6986   -7.2271    0.0000 H   0  0  0  0  0  0  0  0  0  0  0  0
    4.3164   -7.9800    0.0000 H   0  0  0  0  0  0  0  0  0  0  0  0
    5.5094   -6.6530    0.0000 H   0  0  0  0  0  0  0  0  0  0  0  0
    1.8672   -6.2888    0.0000 H   0  0  0  0  0  0  0  0  0  0  0  0
    1.3145   -4.5922    0.0000 H   0  0  0  0  0  0  0  0  0  0  0  0
    2.9580   -3.5833    0.0000 H   0  0  0  0  0  0  0  0  0  0  0  0
    8.1954   -5.6620    0.0000 H   0  0  0  0  0  0  0  0  0  0  0  0
    9.4786   -5.5497    0.0000 H   0  0  0  0  0  0  0  0  0  0  0  0
   12.4171   -5.9455    0.0000 H   0  0  0  0  0  0  0  0  0  0  0  0
   12.2472   -4.3205    0.0000 H   0  0  0  0  0  0  0  0  0  0  0  0
    7.8991   -6.4810    0.0000 H   0  0  0  0  0  0  0  0  0  0  0  0
    8.0503   -9.5877    0.0000 H   0  0  0  0  0  0  0  0  0  0  0  0
   10.4552  -11.7129    0.0000 H   0  0  0  0  0  0  0  0  0  0  0  0
   13.4437  -11.9758    0.0000 H   0  0  0  0  0  0  0  0  0  0  0  0
   15.1656   -9.5192    0.0000 H   0  0  0  0  0  0  0  0  0  0  0  0
   13.8990   -6.7997    0.0000 H   0  0  0  0  0  0  0  0  0  0  0  0
   13.7451   -3.8794    0.0000 H   0  0  0  0  0  0  0  0  0  0  0  0
   14.1531   -3.0040    0.0000 H   0  0  0  0  0  0  0  0  0  0  0  0
   16.3747   -0.7135    0.0000 H   0  0  0  0  0  0  0  0  0  0  0  0
   15.0840    0.0049    0.0000 H   0  0  0  0  0  0  0  0  0  0  0  0
   16.1351   -4.2203    0.0000 H   0  0  0  0  0  0  0  0  0  0  0  0
   14.6616   -3.5143    0.0000 H   0  0  0  0  0  0  0  0  0  0  0  0
   18.7178   -1.8361    0.0000 H   0  0  0  0  0  0  0  0  0  0  0  0
   17.2443   -1.1301    0.0000 H   0  0  0  0  0  0  0  0  0  0  0  0
   18.6580   -5.3082    0.0000 H   0  0  0  0  0  0  0  0  0  0  0  0
   17.0047   -4.6369    0.0000 H   0  0  0  0  0  0  0  0  0  0  0  0
   20.6280   -4.9779    0.0000 H   0  0  0  0  0  0  0  0  0  0  0  0
   21.1466   -3.1205    0.0000 H   0  0  0  0  0  0  0  0  0  0  0  0
   19.5874   -2.2527    0.0000 H   0  0  0  0  0  0  0  0  0  0  0  0
   15.6731    1.4510    0.0000 H   0  0  0  0  0  0  0  0  0  0  0  0
   13.4623    5.4641    0.0000 H   0  0  0  0  0  0  0  0  0  0  0  0
   14.4210    4.5738    0.0000 H   0  0  0  0  0  0  0  0  0  0  0  0
   12.0762    6.5093    0.0000 H   0  0  0  0  0  0  0  0  0  0  0  0
   13.0719    5.9520    0.0000 H   0  0  0  0  0  0  0  0  0  0  0  0
   10.0829    7.0668    0.0000 H   0  0  0  0  0  0  0  0  0  0  0  0
   11.5209    6.7586    0.0000 H   0  0  0  0  0  0  0  0  0  0  0  0
    8.9987    7.3173    0.0000 H   0  0  0  0  0  0  0  0  0  0  0  0
   16.4973    3.3781    0.0000 H   0  0  0  0  0  0  0  0  0  0  0  0
   16.4852    1.5937    0.0000 H   0  0  0  0  0  0  0  0  0  0  0  0
   15.1318    1.0019    0.0000 H   0  0  0  0  0  0  0  0  0  0  0  0
   16.9595    2.6231    0.0000 H   0  0  0  0  0  0  0  0  0  0  0  0
   15.6203    5.7387    0.0000 H   0  0  0  0  0  0  0  0  0  0  0  0
   17.0229    8.0414    0.0000 H   0  0  0  0  0  0  0  0  0  0  0  0
   15.8600    6.6880    0.0000 H   0  0  0  0  0  0  0  0  0  0  0  0
   19.4762    5.6496    0.0000 H   0  0  0  0  0  0  0  0  0  0  0  0
   20.5488    9.0244    0.0000 H   0  0  0  0  0  0  0  0  0  0  0  0
   19.0140    9.9347    0.0000 H   0  0  0  0  0  0  0  0  0  0  0  0
   17.6947    8.7331    0.0000 H   0  0  0  0  0  0  0  0  0  0  0  0
   21.2826    8.0081    0.0000 H   0  0  0  0  0  0  0  0  0  0  0  0
   21.6636    6.2648    0.0000 H   0  0  0  0  0  0  0  0  0  0  0  0
   19.9279    5.4246    0.0000 H   0  0  0  0  0  0  0  0  0  0  0  0
  1  2  1  0
  2  3  1  0
  3  4  2  0
  4  5  1  0
  5  6  2  0
  6  7  1  0
  7  8  2  0
  7  9  1  0
  9 10  1  0
 10 11  1  0
 11 12  2  0
  9 13  1  0
 13 14  1  0
 14 15  2  0
 15 16  1  0
 16 17  2  0
 17 18  1  0
 16 19  1  0
 14 20  1  0
 20 21  1  0
 21 22  2  0
 22 23  1  0
 23 24  2  0
 24 25  1  0
 25 26  2  0
 25 27  1  0
  1 28  2  0
  1 29  1  0
 29 30  1  0
 30 31  1  0
 31 32  1  0
 32 33  2  0
 32 34  1  0
 34 35  1  0
 35 36  1  0
 36 37  1  0
 37 38  1  0
 38 39  1  0
 38 40  2  0
 35 41  1  0
 41 42  2  0
 41 43  1  0
 43 44  1  0
 44 45  1  0
 45 46  1  0
 45 47  1  0
 44 48  1  0
 48 49  2  0
 48 50  1  0
 50 51  1  0
 51 52  1  0
 52 53  1  0
 53 54  2  0
 54 55  1  0
 55 56  2  0
 56 57  1  0
 57 58  2  0
 51 59  1  0
 59 60  2  0
 59 61  1  0
 61 62  1  0
 62 63  1  0
 63 64  1  0
 62 65  1  0
 65 66  2  0
 65 67  1  0
 68 67  1  1
 68 69  1  0
 69 70  1  0
 70 71  1  0
 71 72  1  0
 68 73  1  0
 68 74  1  0
 74 75  2  0
 74 76  1  0
 76 77  1  0
 77 78  1  0
 78 79  1  0
 79 80  1  0
 79 81  1  0
 77 82  1  0
 82 83  2  0
 82 84  1  0
 84 85  1  0
 85 86  1  0
 86 87  1  0
 87 88  2  0
 88 89  1  0
 89 90  1  0
 90 91  2  0
 91 92  1  0
 92 93  2  0
 93 94  1  0
 94 95  2  0
 85 96  1  0
 96 97  2  0
 96 98  1  0
 98 99  1  0
 99100  1  0
100101  1  0
101102  1  0
102103  1  0
103104  1  0
 99105  1  0
105106  2  0
105107  1  0
107108  1  0
108109  1  0
109110  1  0
110111  1  0
111112  1  0
108113  1  0
108114  1  1
114115  2  0
114116  1  0
116117  1  0
117118  1  0
118119  1  0
119120  1  0
119121  1  0
117122  1  0
122123  2  0
122124  1  0
  8  3  1  0
 58 53  1  0
 95 87  1  0
 11  6  1  0
 95 90  1  0
 18 13  2  0
 72112  2  0
 22  9  1  0
 26 21  1  0
  2125  1  0
  4126  1  0
  5127  1  0
  8128  1  0
 15129  1  0
 17130  1  0
 18131  1  0
 19132  1  0
 23133  1  0
 24134  1  0
 26135  1  0
 27136  1  0
 29137  1  0
 30138  1  0
 30139  1  0
 31140  1  0
 31141  1  0
 34142  1  0
 35143  1  1
 36144  1  0
 36145  1  0
 37146  1  0
 37147  1  0
 39148  1  0
 39149  1  0
 43150  1  0
 44151  1  6
 45152  1  1
 46153  1  0
 47154  1  0
 47155  1  0
 47156  1  0
 50157  1  0
 51158  1  1
 52159  1  0
 52160  1  0
 54161  1  0
 55162  1  0
 56163  1  0
 57164  1  0
 58165  1  0
 61166  1  0
 62167  1  6
 63168  1  0
 63169  1  0
 64170  1  0
 67171  1  0
 69172  1  0
 69173  1  0
 70174  1  0
 70175  1  0
 71176  1  0
 71177  1  0
 72178  1  0
 73179  1  0
 73180  1  0
 73181  1  0
 76182  1  0
 77183  1  6
 78184  1  0
 78185  1  0
 79186  1  0
 80187  1  0
 80188  1  0
 80189  1  0
 81190  1  0
 81191  1  0
 81192  1  0
 84193  1  0
 85194  1  6
 86195  1  0
 86196  1  0
 88197  1  0
 89198  1  0
 91199  1  0
 92200  1  0
 93201  1  0
 94202  1  0
 98203  1  0
 99204  1  6
100205  1  0
100206  1  0
101207  1  0
101208  1  0
102209  1  0
102210  1  0
103211  1  0
103212  1  0
104213  1  0
104214  1  0
104215  1  0
107216  1  0
109217  1  0
109218  1  0
110219  1  0
110220  1  0
111221  1  0
111222  1  0
112223  1  0
113224  1  0
113225  1  0
113226  1  0
116227  1  0
117228  1  1
118229  1  0
118230  1  0
119231  1  0
120232  1  0
120233  1  0
120234  1  0
121235  1  0
121236  1  0
121237  1  0
M  CHG  2 104   1 124  -1
M  END
