
     RDKit          2D

338338  0  0  0  0  0  0  0  0999 V2000
  -28.0430   -2.5441    0.0000 N   0  0  0  0  0  0  0  0  0  0  0  0
  -26.5952   -2.1519    0.0000 C   0  0  0  0  0  0  0  0  0  0  0  0
  -25.5316   -3.2097    0.0000 C   0  0  0  0  0  0  0  0  0  0  0  0
  -24.0838   -2.8175    0.0000 C   0  0  0  0  0  0  0  0  0  0  0  0
  -23.6996   -1.3676    0.0000 O   0  0  0  0  0  0  0  0  0  0  0  0
  -23.0202   -3.8753    0.0000 N   0  0  0  0  0  0  0  0  0  0  0  0
  -21.5724   -3.4831    0.0000 C   0  0  0  0  0  0  0  0  0  0  0  0
  -21.4376   -4.9770    0.0000 C   0  0  0  0  0  0  0  0  0  0  0  0
  -20.0764   -5.6072    0.0000 C   0  0  0  0  0  0  0  0  0  0  0  0
  -19.9416   -7.1011    0.0000 O   0  0  0  0  0  0  0  0  0  0  0  0
  -18.8500   -4.7435    0.0000 O   0  0  0  0  0  0  0  0  0  0  0  0
  -20.3461   -2.6193    0.0000 C   0  0  0  0  0  0  0  0  0  0  0  0
  -18.9849   -3.2495    0.0000 O   0  0  0  0  0  0  0  0  0  0  0  0
  -20.4809   -1.1254    0.0000 N   0  0  0  0  0  0  0  0  0  0  0  0
  -19.2545   -0.2617    0.0000 C   0  0  0  0  0  0  0  0  0  0  0  0
  -20.3181    0.7961    0.0000 C   0  0  0  0  0  0  0  0  0  0  0  0
  -21.7659    0.4039    0.0000 C   0  0  0  0  0  0  0  0  0  0  0  0
  -22.8295    1.4616    0.0000 C   0  0  0  0  0  0  0  0  0  0  0  0
  -24.2773    1.0694    0.0000 N   0  0  0  0  0  0  0  0  0  0  0  0
  -25.3408    2.1272    0.0000 C   0  0  0  0  0  0  0  0  0  0  0  0
  -26.7887    1.7350    0.0000 N   0  0  0  0  0  0  0  0  0  0  0  0
  -24.9566    3.5771    0.0000 N   0  0  0  0  0  0  0  0  0  0  0  0
  -17.8067    0.1305    0.0000 C   0  0  0  0  0  0  0  0  0  0  0  0
  -17.6020    1.6165    0.0000 O   0  0  0  0  0  0  0  0  0  0  0  0
  -16.7431   -0.9272    0.0000 N   0  0  0  0  0  0  0  0  0  0  0  0
  -15.2953   -0.5350    0.0000 C   0  0  0  0  0  0  0  0  0  0  0  0
  -15.9330    0.8227    0.0000 C   0  0  0  0  0  0  0  0  0  0  0  0
  -15.0760    2.0538    0.0000 C   0  0  0  0  0  0  0  0  0  0  0  0
  -15.7136    3.4115    0.0000 C   0  0  0  0  0  0  0  0  0  0  0  0
  -14.8566    4.6426    0.0000 N   0  0  0  0  0  0  0  0  0  0  0  0
  -15.4943    6.0003    0.0000 C   0  0  0  0  0  0  0  0  0  0  0  0
  -14.6373    7.2314    0.0000 N   0  0  0  0  0  0  0  0  0  0  0  0
  -16.9889    6.1269    0.0000 N   0  0  0  0  0  0  0  0  0  0  0  0
  -13.8007   -0.6617    0.0000 C   0  0  0  0  0  0  0  0  0  0  0  0
  -12.9437    0.5694    0.0000 O   0  0  0  0  0  0  0  0  0  0  0  0
  -13.1630   -2.0194    0.0000 N   0  0  0  0  0  0  0  0  0  0  0  0
  -11.6684   -2.1460    0.0000 C   0  0  0  0  0  0  0  0  0  0  0  0
  -12.0526   -3.5960    0.0000 C   0  0  0  0  0  0  0  0  0  0  0  0
  -13.5005   -3.9882    0.0000 C   0  0  0  0  0  0  0  0  0  0  0  0
  -13.8847   -5.4381    0.0000 C   0  0  0  0  0  0  0  0  0  0  0  0
  -15.3325   -5.8303    0.0000 N   0  0  0  0  0  0  0  0  0  0  0  0
  -12.8212   -6.4959    0.0000 O   0  0  0  0  0  0  0  0  0  0  0  0
  -10.2206   -1.7538    0.0000 C   0  0  0  0  0  0  0  0  0  0  0  0
   -9.1570   -2.8116    0.0000 O   0  0  0  0  0  0  0  0  0  0  0  0
   -9.8363   -0.3039    0.0000 N   0  0  0  0  0  0  0  0  0  0  0  0
   -8.3885    0.0883    0.0000 C   0  0  0  0  0  0  0  0  0  0  0  0
   -9.0261    1.4460    0.0000 C   0  0  0  0  0  0  0  0  0  0  0  0
  -10.5208    1.5727    0.0000 C   0  0  0  0  0  0  0  0  0  0  0  0
  -11.1584    2.9304    0.0000 C   0  0  0  0  0  0  0  0  0  0  0  0
  -10.3014    4.1615    0.0000 N   0  0  0  0  0  0  0  0  0  0  0  0
  -10.9391    5.5192    0.0000 C   0  0  0  0  0  0  0  0  0  0  0  0
  -10.0821    6.7503    0.0000 N   0  0  0  0  0  0  0  0  0  0  0  0
  -12.4337    5.6458    0.0000 N   0  0  0  0  0  0  0  0  0  0  0  0
   -6.8938   -0.0383    0.0000 C   0  0  0  0  0  0  0  0  0  0  0  0
   -6.1933    1.2880    0.0000 O   0  0  0  0  0  0  0  0  0  0  0  0
   -6.2562   -1.3961    0.0000 N   0  0  0  0  0  0  0  0  0  0  0  0
   -4.7615   -1.5227    0.0000 C   0  0  0  0  0  0  0  0  0  0  0  0
   -4.8964   -0.0288    0.0000 C   0  0  0  0  0  0  0  0  0  0  0  0
   -3.6700    0.8349    0.0000 C   0  0  0  0  0  0  0  0  0  0  0  0
   -3.8048    2.3289    0.0000 C   0  0  0  0  0  0  0  0  0  0  0  0
   -2.5785    3.1926    0.0000 N   0  0  0  0  0  0  0  0  0  0  0  0
   -2.7133    4.6865    0.0000 C   0  0  0  0  0  0  0  0  0  0  0  0
   -1.4869    5.5503    0.0000 N   0  0  0  0  0  0  0  0  0  0  0  0
   -4.0745    5.3167    0.0000 N   0  0  0  0  0  0  0  0  0  0  0  0
   -3.4004   -2.1529    0.0000 C   0  0  0  0  0  0  0  0  0  0  0  0
   -2.1740   -1.2892    0.0000 O   0  0  0  0  0  0  0  0  0  0  0  0
   -3.2655   -3.6468    0.0000 N   0  0  0  0  0  0  0  0  0  0  0  0
   -1.9043   -4.2770    0.0000 C   0  0  0  0  0  0  0  0  0  0  0  0
   -2.7613   -5.5081    0.0000 C   0  0  0  0  0  0  0  0  0  0  0  0
   -4.2560   -5.3815    0.0000 C   0  0  0  0  0  0  0  0  0  0  0  0
   -5.1130   -6.6126    0.0000 C   0  0  0  0  0  0  0  0  0  0  0  0
   -6.6076   -6.4859    0.0000 N   0  0  0  0  0  0  0  0  0  0  0  0
   -7.4646   -7.7170    0.0000 C   0  0  0  0  0  0  0  0  0  0  0  0
   -8.9593   -7.5904    0.0000 N   0  0  0  0  0  0  0  0  0  0  0  0
   -6.8270   -9.0747    0.0000 N   0  0  0  0  0  0  0  0  0  0  0  0
   -0.4097   -4.4037    0.0000 C   0  0  0  0  0  0  0  0  0  0  0  0
    0.0577   -5.8290    0.0000 O   0  0  0  0  0  0  0  0  0  0  0  0
    0.4473   -3.1726    0.0000 N   0  0  0  0  0  0  0  0  0  0  0  0
    1.9420   -3.2992    0.0000 C   0  0  0  0  0  0  0  0  0  0  0  0
    2.8360   -4.5037    0.0000 C   0  0  0  0  0  0  0  0  0  0  0  0
    4.0453   -5.3911    0.0000 C   0  0  0  0  0  0  0  0  0  0  0  0
    5.4625   -5.8827    0.0000 C   0  0  0  0  0  0  0  0  0  0  0  0
    6.9616   -5.9346    0.0000 C   0  0  0  0  0  0  0  0  0  0  0  0
    1.0575   -4.5108    0.0000 C   0  0  0  0  0  0  0  0  0  0  0  0
    1.4427   -1.8848    0.0000 C   0  0  0  0  0  0  0  0  0  0  0  0
   -0.0539   -1.9860    0.0000 O   0  0  0  0  0  0  0  0  0  0  0  0
    1.3825   -0.3860    0.0000 N   0  0  0  0  0  0  0  0  0  0  0  0
    1.7667    1.0640    0.0000 C   0  0  0  0  0  0  0  0  0  0  0  0
    0.2870    0.8179    0.0000 C   0  0  0  0  0  0  0  0  0  0  0  0
   -0.6659    1.9763    0.0000 C   0  0  0  0  0  0  0  0  0  0  0  0
   -0.1392    3.3807    0.0000 C   0  0  0  0  0  0  0  0  0  0  0  0
   -1.0921    4.5391    0.0000 N   0  0  0  0  0  0  0  0  0  0  0  0
   -0.5654    5.9436    0.0000 C   0  0  0  0  0  0  0  0  0  0  0  0
   -1.3701    7.2095    0.0000 N   0  0  0  0  0  0  0  0  0  0  0  0
    0.9142    6.1897    0.0000 N   0  0  0  0  0  0  0  0  0  0  0  0
    2.5613    2.3362    0.0000 C   0  0  0  0  0  0  0  0  0  0  0  0
    1.3113    3.1653    0.0000 O   0  0  0  0  0  0  0  0  0  0  0  0
    3.6956    3.3178    0.0000 N   0  0  0  0  0  0  0  0  0  0  0  0
    5.0688    3.9214    0.0000 C   0  0  0  0  0  0  0  0  0  0  0  0
    3.9538    4.9248    0.0000 C   0  0  0  0  0  0  0  0  0  0  0  0
    4.2653    6.3921    0.0000 C   0  0  0  0  0  0  0  0  0  0  0  0
    3.1503    7.3955    0.0000 C   0  0  0  0  0  0  0  0  0  0  0  0
    3.4618    8.8628    0.0000 N   0  0  0  0  0  0  0  0  0  0  0  0
    1.6780    7.1090    0.0000 O   0  0  0  0  0  0  0  0  0  0  0  0
    6.5589    4.0934    0.0000 C   0  0  0  0  0  0  0  0  0  0  0  0
    6.6108    5.5925    0.0000 O   0  0  0  0  0  0  0  0  0  0  0  0
    8.0335    3.8186    0.0000 N   0  0  0  0  0  0  0  0  0  0  0  0
    9.3616    3.1213    0.0000 C   0  0  0  0  0  0  0  0  0  0  0  0
    9.4509    4.6186    0.0000 C   0  0  0  0  0  0  0  0  0  0  0  0
   10.7923    5.2899    0.0000 C   0  0  0  0  0  0  0  0  0  0  0  0
   10.8816    6.7873    0.0000 C   0  0  0  0  0  0  0  0  0  0  0  0
   12.2230    7.4586    0.0000 N   0  0  0  0  0  0  0  0  0  0  0  0
   12.3124    8.9559    0.0000 C   0  0  0  0  0  0  0  0  0  0  0  0
   13.6538    9.6272    0.0000 N   0  0  0  0  0  0  0  0  0  0  0  0
   11.0603    9.7819    0.0000 N   0  0  0  0  0  0  0  0  0  0  0  0
   10.4251    2.0635    0.0000 C   0  0  0  0  0  0  0  0  0  0  0  0
   11.6296    2.9576    0.0000 O   0  0  0  0  0  0  0  0  0  0  0  0
   11.1297    0.7393    0.0000 N   0  0  0  0  0  0  0  0  0  0  0  0
   11.4126   -0.7338    0.0000 C   0  0  0  0  0  0  0  0  0  0  0  0
   11.2487   -2.2248    0.0000 C   0  0  0  0  0  0  0  0  0  0  0  0
   10.6526   -3.6013    0.0000 C   0  0  0  0  0  0  0  0  0  0  0  0
    9.6773   -4.7409    0.0000 C   0  0  0  0  0  0  0  0  0  0  0  0
    8.4094   -5.5424    0.0000 C   0  0  0  0  0  0  0  0  0  0  0  0
   12.7876   -1.3332    0.0000 C   0  0  0  0  0  0  0  0  0  0  0  0
   12.6389    0.1299    0.0000 C   0  0  0  0  0  0  0  0  0  0  0  0
   12.6872    1.6292    0.0000 O   0  0  0  0  0  0  0  0  0  0  0  0
   14.0001   -0.5003    0.0000 N   0  0  0  0  0  0  0  0  0  0  0  0
   15.2265    0.3635    0.0000 C   0  0  0  0  0  0  0  0  0  0  0  0
   16.0835    1.5945    0.0000 C   0  0  0  0  0  0  0  0  0  0  0  0
   17.5781    1.4679    0.0000 C   0  0  0  0  0  0  0  0  0  0  0  0
   18.4351    2.6990    0.0000 C   0  0  0  0  0  0  0  0  0  0  0  0
   19.9298    2.5723    0.0000 N   0  0  0  0  0  0  0  0  0  0  0  0
   20.7868    3.8034    0.0000 C   0  0  0  0  0  0  0  0  0  0  0  0
   22.2814    3.6768    0.0000 N   0  0  0  0  0  0  0  0  0  0  0  0
   20.1491    5.1611    0.0000 N   0  0  0  0  0  0  0  0  0  0  0  0
   16.5877   -0.2667    0.0000 C   0  0  0  0  0  0  0  0  0  0  0  0
   16.7225   -1.7607    0.0000 O   0  0  0  0  0  0  0  0  0  0  0  0
   17.8140    0.5970    0.0000 N   0  0  0  0  0  0  0  0  0  0  0  0
   19.1752   -0.0332    0.0000 C   0  0  0  0  0  0  0  0  0  0  0  0
   20.6699   -0.1599    0.0000 C   0  0  0  0  0  0  0  0  0  0  0  0
   21.5269    1.0712    0.0000 C   0  0  0  0  0  0  0  0  0  0  0  0
   23.0215    0.9446    0.0000 C   0  0  0  0  0  0  0  0  0  0  0  0
   23.8785    2.1757    0.0000 N   0  0  0  0  0  0  0  0  0  0  0  0
   25.3732    2.0490    0.0000 C   0  0  0  0  0  0  0  0  0  0  0  0
   26.2302    3.2801    0.0000 N   0  0  0  0  0  0  0  0  0  0  0  0
   26.0108    0.6913    0.0000 N   0  0  0  0  0  0  0  0  0  0  0  0
   19.3101   -1.5271    0.0000 C   0  0  0  0  0  0  0  0  0  0  0  0
   18.0837   -2.3909    0.0000 O   0  0  0  0  0  0  0  0  0  0  0  0
   20.6713   -2.1573    0.0000 N   0  0  0  0  0  0  0  0  0  0  0  0
   20.8061   -3.6513    0.0000 C   0  0  0  0  0  0  0  0  0  0  0  0
   20.4218   -5.1012    0.0000 C   0  0  0  0  0  0  0  0  0  0  0  0
   21.4854   -6.1590    0.0000 C   0  0  0  0  0  0  0  0  0  0  0  0
   21.1011   -7.6089    0.0000 C   0  0  0  0  0  0  0  0  0  0  0  0
   22.1647   -8.6667    0.0000 N   0  0  0  0  0  0  0  0  0  0  0  0
   21.7804  -10.1166    0.0000 C   0  0  0  0  0  0  0  0  0  0  0  0
   22.8440  -11.1744    0.0000 N   0  0  0  0  0  0  0  0  0  0  0  0
   20.3326  -10.5088    0.0000 N   0  0  0  0  0  0  0  0  0  0  0  0
   22.1673   -4.2815    0.0000 C   0  0  0  0  0  0  0  0  0  0  0  0
   22.4832   -5.7478    0.0000 O   0  0  0  0  0  0  0  0  0  0  0  0
   23.3936   -3.4177    0.0000 O   0  0  0  0  0  0  0  0  0  0  0  0
  -29.1066   -1.4864    0.0000 H   0  0  0  0  0  0  0  0  0  0  0  0
  -28.4273   -3.9941    0.0000 H   0  0  0  0  0  0  0  0  0  0  0  0
  -27.2328   -0.7942    0.0000 H   0  0  0  0  0  0  0  0  0  0  0  0
  -25.3688   -1.2882    0.0000 H   0  0  0  0  0  0  0  0  0  0  0  0
  -26.7580   -4.0734    0.0000 H   0  0  0  0  0  0  0  0  0  0  0  0
  -24.8940   -4.5674    0.0000 H   0  0  0  0  0  0  0  0  0  0  0  0
  -23.3864   -4.7887    0.0000 H   0  0  0  0  0  0  0  0  0  0  0  0
  -22.2101   -2.1253    0.0000 H   0  0  0  0  0  0  0  0  0  0  0  0
  -21.8219   -6.4269    0.0000 H   0  0  0  0  0  0  0  0  0  0  0  0
  -22.4211   -5.0141    0.0000 H   0  0  0  0  0  0  0  0  0  0  0  0
  -21.2397   -0.8812    0.0000 H   0  0  0  0  0  0  0  0  0  0  0  0
  -18.6169   -1.6194    0.0000 H   0  0  0  0  0  0  0  0  0  0  0  0
  -20.7855    2.2214    0.0000 H   0  0  0  0  0  0  0  0  0  0  0  0
  -19.0917    1.6598    0.0000 H   0  0  0  0  0  0  0  0  0  0  0  0
  -22.9923   -0.4599    0.0000 H   0  0  0  0  0  0  0  0  0  0  0  0
  -21.7018   -0.4795    0.0000 H   0  0  0  0  0  0  0  0  0  0  0  0
  -23.4671    2.8193    0.0000 H   0  0  0  0  0  0  0  0  0  0  0  0
  -21.7175    2.4684    0.0000 H   0  0  0  0  0  0  0  0  0  0  0  0
  -24.6615   -0.3805    0.0000 H   0  0  0  0  0  0  0  0  0  0  0  0
  -27.8522    2.7927    0.0000 H   0  0  0  0  0  0  0  0  0  0  0  0
  -27.1729    0.2850    0.0000 H   0  0  0  0  0  0  0  0  0  0  0  0
  -26.0201    4.6349    0.0000 H   0  0  0  0  0  0  0  0  0  0  0  0
  -23.5088    3.9693    0.0000 H   0  0  0  0  0  0  0  0  0  0  0  0
  -17.1274   -2.3772    0.0000 H   0  0  0  0  0  0  0  0  0  0  0  0
  -15.1605   -2.0290    0.0000 H   0  0  0  0  0  0  0  0  0  0  0  0
  -16.9965    1.8804    0.0000 H   0  0  0  0  0  0  0  0  0  0  0  0
  -17.3319    0.2814    0.0000 H   0  0  0  0  0  0  0  0  0  0  0  0
  -13.8496    2.9175    0.0000 H   0  0  0  0  0  0  0  0  0  0  0  0
  -14.0124    0.9960    0.0000 H   0  0  0  0  0  0  0  0  0  0  0  0
  -16.7772    4.4692    0.0000 H   0  0  0  0  0  0  0  0  0  0  0  0
  -17.0361    2.7037    0.0000 H   0  0  0  0  0  0  0  0  0  0  0  0
  -13.3886    4.3347    0.0000 H   0  0  0  0  0  0  0  0  0  0  0  0
  -15.2749    8.5891    0.0000 H   0  0  0  0  0  0  0  0  0  0  0  0
  -13.1383    7.2879    0.0000 H   0  0  0  0  0  0  0  0  0  0  0  0
  -17.6266    7.4846    0.0000 H   0  0  0  0  0  0  0  0  0  0  0  0
  -17.8459    4.8958    0.0000 H   0  0  0  0  0  0  0  0  0  0  0  0
  -14.1637   -3.1368    0.0000 H   0  0  0  0  0  0  0  0  0  0  0  0
  -11.8032   -0.6521    0.0000 H   0  0  0  0  0  0  0  0  0  0  0  0
  -11.9178   -5.0899    0.0000 H   0  0  0  0  0  0  0  0  0  0  0  0
  -10.5580   -3.7226    0.0000 H   0  0  0  0  0  0  0  0  0  0  0  0
  -14.9951   -3.8615    0.0000 H   0  0  0  0  0  0  0  0  0  0  0  0
  -14.1618   -2.6419    0.0000 H   0  0  0  0  0  0  0  0  0  0  0  0
  -15.7168   -7.2803    0.0000 H   0  0  0  0  0  0  0  0  0  0  0  0
  -16.3961   -4.7726    0.0000 H   0  0  0  0  0  0  0  0  0  0  0  0
  -11.0209    0.6163    0.0000 H   0  0  0  0  0  0  0  0  0  0  0  0
   -8.2537   -1.4056    0.0000 H   0  0  0  0  0  0  0  0  0  0  0  0
   -9.1610    2.9399    0.0000 H   0  0  0  0  0  0  0  0  0  0  0  0
   -7.5783    1.8382    0.0000 H   0  0  0  0  0  0  0  0  0  0  0  0
  -11.9686    1.1805    0.0000 H   0  0  0  0  0  0  0  0  0  0  0  0
  -10.9304    0.1297    0.0000 H   0  0  0  0  0  0  0  0  0  0  0  0
  -12.2220    3.9881    0.0000 H   0  0  0  0  0  0  0  0  0  0  0  0
  -12.3848    2.0666    0.0000 H   0  0  0  0  0  0  0  0  0  0  0  0
   -8.8068    4.0348    0.0000 H   0  0  0  0  0  0  0  0  0  0  0  0
  -10.7197    8.1080    0.0000 H   0  0  0  0  0  0  0  0  0  0  0  0
   -8.5874    6.6236    0.0000 H   0  0  0  0  0  0  0  0  0  0  0  0
  -12.9011    7.0711    0.0000 H   0  0  0  0  0  0  0  0  0  0  0  0
  -13.1343    4.3195    0.0000 H   0  0  0  0  0  0  0  0  0  0  0  0
   -7.1132   -2.6271    0.0000 H   0  0  0  0  0  0  0  0  0  0  0  0
   -5.1458   -2.9727    0.0000 H   0  0  0  0  0  0  0  0  0  0  0  0
   -5.5340    1.3289    0.0000 H   0  0  0  0  0  0  0  0  0  0  0  0
   -6.3961   -0.0590    0.0000 H   0  0  0  0  0  0  0  0  0  0  0  0
   -2.1852    1.0477    0.0000 H   0  0  0  0  0  0  0  0  0  0  0  0
   -3.0324   -0.5228    0.0000 H   0  0  0  0  0  0  0  0  0  0  0  0
   -4.4425    3.6866    0.0000 H   0  0  0  0  0  0  0  0  0  0  0  0
   -5.2897    2.1161    0.0000 H   0  0  0  0  0  0  0  0  0  0  0  0
   -1.1506    2.7330    0.0000 H   0  0  0  0  0  0  0  0  0  0  0  0
   -1.8028    7.0166    0.0000 H   0  0  0  0  0  0  0  0  0  0  0  0
   -0.1257    4.9201    0.0000 H   0  0  0  0  0  0  0  0  0  0  0  0
   -4.2093    6.8107    0.0000 H   0  0  0  0  0  0  0  0  0  0  0  0
   -5.3008    4.4530    0.0000 H   0  0  0  0  0  0  0  0  0  0  0  0
   -4.5880   -4.3546    0.0000 H   0  0  0  0  0  0  0  0  0  0  0  0
   -1.5201   -2.8271    0.0000 H   0  0  0  0  0  0  0  0  0  0  0  0
   -2.9660   -6.9941    0.0000 H   0  0  0  0  0  0  0  0  0  0  0  0
   -1.4001   -6.1383    0.0000 H   0  0  0  0  0  0  0  0  0  0  0  0
   -5.6172   -4.7513    0.0000 H   0  0  0  0  0  0  0  0  0  0  0  0
   -4.4170   -3.8901    0.0000 H   0  0  0  0  0  0  0  0  0  0  0  0
   -5.4972   -8.0625    0.0000 H   0  0  0  0  0  0  0  0  0  0  0  0
   -3.8387   -7.4040    0.0000 H   0  0  0  0  0  0  0  0  0  0  0  0
   -7.2453   -5.1282    0.0000 H   0  0  0  0  0  0  0  0  0  0  0  0
   -9.8163   -8.8214    0.0000 H   0  0  0  0  0  0  0  0  0  0  0  0
   -9.5969   -6.2326    0.0000 H   0  0  0  0  0  0  0  0  0  0  0  0
   -7.6840  -10.3058    0.0000 H   0  0  0  0  0  0  0  0  0  0  0  0
   -5.3323   -9.2014    0.0000 H   0  0  0  0  0  0  0  0  0  0  0  0
   -0.3511   -1.9027    0.0000 H   0  0  0  0  0  0  0  0  0  0  0  0
    2.5245   -5.9710    0.0000 H   0  0  0  0  0  0  0  0  0  0  0  0
    1.4203   -4.9995    0.0000 H   0  0  0  0  0  0  0  0  0  0  0  0
    3.9970   -6.8903    0.0000 H   0  0  0  0  0  0  0  0  0  0  0  0
    2.8387   -6.2822    0.0000 H   0  0  0  0  0  0  0  0  0  0  0  0
    6.0317   -7.2705    0.0000 H   0  0  0  0  0  0  0  0  0  0  0  0
    4.5721   -7.0898    0.0000 H   0  0  0  0  0  0  0  0  0  0  0  0
    7.1336   -7.4247    0.0000 H   0  0  0  0  0  0  0  0  0  0  0  0
   -0.2186   -4.9543    0.0000 H   0  0  0  0  0  0  0  0  0  0  0  0
    1.1670   -6.0890    0.0000 H   0  0  0  0  0  0  0  0  0  0  0  0
    2.3129   -5.6251    0.0000 H   0  0  0  0  0  0  0  0  0  0  0  0
   -0.1086   -0.2221    0.0000 H   0  0  0  0  0  0  0  0  0  0  0  0
    1.0921    2.4037    0.0000 H   0  0  0  0  0  0  0  0  0  0  0  0
   -1.0192    0.0805    0.0000 H   0  0  0  0  0  0  0  0  0  0  0  0
    0.4292   -0.6754    0.0000 H   0  0  0  0  0  0  0  0  0  0  0  0
   -1.5984    3.1512    0.0000 H   0  0  0  0  0  0  0  0  0  0  0  0
   -1.4950    0.7262    0.0000 H   0  0  0  0  0  0  0  0  0  0  0  0
    0.8361    4.5204    0.0000 H   0  0  0  0  0  0  0  0  0  0  0  0
    1.1525    2.6181    0.0000 H   0  0  0  0  0  0  0  0  0  0  0  0
   -2.5874    4.6584    0.0000 H   0  0  0  0  0  0  0  0  0  0  0  0
   -0.9917    8.5065    0.0000 H   0  0  0  0  0  0  0  0  0  0  0  0
   -2.9981    6.8559    0.0000 H   0  0  0  0  0  0  0  0  0  0  0  0
    1.2658    7.6479    0.0000 H   0  0  0  0  0  0  0  0  0  0  0  0
    1.7189    4.9238    0.0000 H   0  0  0  0  0  0  0  0  0  0  0  0
    2.8940    4.5857    0.0000 H   0  0  0  0  0  0  0  0  0  0  0  0
    5.6956    5.2841    0.0000 H   0  0  0  0  0  0  0  0  0  0  0  0
    2.5048    5.3126    0.0000 H   0  0  0  0  0  0  0  0  0  0  0  0
    2.8750    3.8826    0.0000 H   0  0  0  0  0  0  0  0  0  0  0  0
    5.0599    7.6644    0.0000 H   0  0  0  0  0  0  0  0  0  0  0  0
    5.7143    6.0043    0.0000 H   0  0  0  0  0  0  0  0  0  0  0  0
    2.3469    9.8662    0.0000 H   0  0  0  0  0  0  0  0  0  0  0  0
    4.8883    9.3267    0.0000 H   0  0  0  0  0  0  0  0  0  0  0  0
    8.5250    5.2357    0.0000 H   0  0  0  0  0  0  0  0  0  0  0  0
   10.8178    3.4809    0.0000 H   0  0  0  0  0  0  0  0  0  0  0  0
    8.8507    5.9933    0.0000 H   0  0  0  0  0  0  0  0  0  0  0  0
    7.9634    4.8123    0.0000 H   0  0  0  0  0  0  0  0  0  0  0  0
   12.2824    5.4620    0.0000 H   0  0  0  0  0  0  0  0  0  0  0  0
   11.3925    3.9153    0.0000 H   0  0  0  0  0  0  0  0  0  0  0  0
   10.4535    8.2249    0.0000 H   0  0  0  0  0  0  0  0  0  0  0  0
    9.3817    6.7982    0.0000 H   0  0  0  0  0  0  0  0  0  0  0  0
   13.4751    6.6325    0.0000 H   0  0  0  0  0  0  0  0  0  0  0  0
   13.7431   11.1245    0.0000 H   0  0  0  0  0  0  0  0  0  0  0  0
   14.9058    8.8012    0.0000 H   0  0  0  0  0  0  0  0  0  0  0  0
   11.1497   11.2793    0.0000 H   0  0  0  0  0  0  0  0  0  0  0  0
    9.7189    9.1106    0.0000 H   0  0  0  0  0  0  0  0  0  0  0  0
   12.4727    1.4073    0.0000 H   0  0  0  0  0  0  0  0  0  0  0  0
   12.7211   -1.9383    0.0000 H   0  0  0  0  0  0  0  0  0  0  0  0
   12.2582   -3.3343    0.0000 H   0  0  0  0  0  0  0  0  0  0  0  0
   12.1440   -3.7615    0.0000 H   0  0  0  0  0  0  0  0  0  0  0  0
   11.4510   -4.8712    0.0000 H   0  0  0  0  0  0  0  0  0  0  0  0
   11.0553   -5.3336    0.0000 H   0  0  0  0  0  0  0  0  0  0  0  0
    9.8864   -6.2263    0.0000 H   0  0  0  0  0  0  0  0  0  0  0  0
    9.0130   -6.9156    0.0000 H   0  0  0  0  0  0  0  0  0  0  0  0
   14.1131   -1.0720    0.0000 H   0  0  0  0  0  0  0  0  0  0  0  0
   13.4896   -2.7509    0.0000 H   0  0  0  0  0  0  0  0  0  0  0  0
   12.2662   -2.9289    0.0000 H   0  0  0  0  0  0  0  0  0  0  0  0
   14.3160   -1.9666    0.0000 H   0  0  0  0  0  0  0  0  0  0  0  0
   14.1629    1.4212    0.0000 H   0  0  0  0  0  0  0  0  0  0  0  0
   16.2881    3.0805    0.0000 H   0  0  0  0  0  0  0  0  0  0  0  0
   14.7223    2.2247    0.0000 H   0  0  0  0  0  0  0  0  0  0  0  0
   19.0060    1.0083    0.0000 H   0  0  0  0  0  0  0  0  0  0  0  0
   17.9197    0.0073    0.0000 H   0  0  0  0  0  0  0  0  0  0  0  0
   18.8194    4.1489    0.0000 H   0  0  0  0  0  0  0  0  0  0  0  0
   17.1609    3.4904    0.0000 H   0  0  0  0  0  0  0  0  0  0  0  0
   20.3972    1.1470    0.0000 H   0  0  0  0  0  0  0  0  0  0  0  0
   23.1384    4.9079    0.0000 H   0  0  0  0  0  0  0  0  0  0  0  0
   22.9191    2.3191    0.0000 H   0  0  0  0  0  0  0  0  0  0  0  0
   21.0061    6.3922    0.0000 H   0  0  0  0  0  0  0  0  0  0  0  0
   18.6545    5.2878    0.0000 H   0  0  0  0  0  0  0  0  0  0  0  0
   18.0447    2.0791    0.0000 H   0  0  0  0  0  0  0  0  0  0  0  0
   19.5595    1.4167    0.0000 H   0  0  0  0  0  0  0  0  0  0  0  0
   22.0311   -0.7901    0.0000 H   0  0  0  0  0  0  0  0  0  0  0  0
   20.6479   -1.6597    0.0000 H   0  0  0  0  0  0  0  0  0  0  0  0
   21.9111    2.5212    0.0000 H   0  0  0  0  0  0  0  0  0  0  0  0
   20.0536    1.3533    0.0000 H   0  0  0  0  0  0  0  0  0  0  0  0
   24.3827    0.3144    0.0000 H   0  0  0  0  0  0  0  0  0  0  0  0
   22.8169   -0.5414    0.0000 H   0  0  0  0  0  0  0  0  0  0  0  0
   23.2409    3.5334    0.0000 H   0  0  0  0  0  0  0  0  0  0  0  0
   27.7248    3.1535    0.0000 H   0  0  0  0  0  0  0  0  0  0  0  0
   25.5925    4.6378    0.0000 H   0  0  0  0  0  0  0  0  0  0  0  0
   27.5055    0.5647    0.0000 H   0  0  0  0  0  0  0  0  0  0  0  0
   25.1538   -0.5398    0.0000 H   0  0  0  0  0  0  0  0  0  0  0  0
   21.9938   -1.4495    0.0000 H   0  0  0  0  0  0  0  0  0  0  0  0
   19.3114   -3.5246    0.0000 H   0  0  0  0  0  0  0  0  0  0  0  0
   19.4211   -6.2187    0.0000 H   0  0  0  0  0  0  0  0  0  0  0  0
   19.0606   -4.4710    0.0000 H   0  0  0  0  0  0  0  0  0  0  0  0
   22.8466   -6.7892    0.0000 H   0  0  0  0  0  0  0  0  0  0  0  0
   22.7267   -5.3169    0.0000 H   0  0  0  0  0  0  0  0  0  0  0  0
   20.2441   -8.8400    0.0000 H   0  0  0  0  0  0  0  0  0  0  0  0
   19.6733   -7.1493    0.0000 H   0  0  0  0  0  0  0  0  0  0  0  0
   23.6125   -8.2745    0.0000 H   0  0  0  0  0  0  0  0  0  0  0  0
   22.4597  -12.6243    0.0000 H   0  0  0  0  0  0  0  0  0  0  0  0
   24.2918  -10.7822    0.0000 H   0  0  0  0  0  0  0  0  0  0  0  0
   19.9483  -11.9588    0.0000 H   0  0  0  0  0  0  0  0  0  0  0  0
   19.2690   -9.4511    0.0000 H   0  0  0  0  0  0  0  0  0  0  0  0
  1  2  1  0
  2  3  1  0
  3  4  1  0
  4  5  2  0
  4  6  1  0
  6  7  1  0
  7  8  1  0
  8  9  1  0
  9 10  2  0
  9 11  1  0
  7 12  1  0
 12 13  2  0
 12 14  1  0
 14 15  1  0
 15 16  1  0
 16 17  1  0
 17 18  1  0
 18 19  1  0
 19 20  1  0
 20 21  2  3
 20 22  1  0
 15 23  1  0
 23 24  2  0
 23 25  1  0
 25 26  1  0
 26 27  1  0
 27 28  1  0
 28 29  1  0
 29 30  1  0
 30 31  1  0
 31 32  2  3
 31 33  1  0
 26 34  1  0
 34 35  2  0
 34 36  1  0
 36 37  1  0
 37 38  1  0
 38 39  1  0
 39 40  1  0
 40 41  1  0
 40 42  2  0
 37 43  1  0
 43 44  2  0
 43 45  1  0
 45 46  1  0
 46 47  1  0
 47 48  1  0
 48 49  1  0
 49 50  1  0
 50 51  1  0
 51 52  2  3
 51 53  1  0
 46 54  1  0
 54 55  2  0
 54 56  1  0
 56 57  1  0
 57 58  1  0
 58 59  1  0
 59 60  1  0
 60 61  1  0
 61 62  1  0
 62 63  2  3
 62 64  1  0
 57 65  1  0
 65 66  2  0
 65 67  1  0
 67 68  1  0
 68 69  1  0
 69 70  1  0
 70 71  1  0
 71 72  1  0
 72 73  1  0
 73 74  2  3
 73 75  1  0
 68 76  1  0
 76 77  2  0
 76 78  1  0
 79 78  1  6
 79 80  1  0
 80 81  1  0
 81 82  1  0
 82 83  1  0
 79 84  1  0
 79 85  1  0
 85 86  2  0
 85 87  1  0
 87 88  1  0
 88 89  1  0
 89 90  1  0
 90 91  1  0
 91 92  1  0
 92 93  1  0
 93 94  2  3
 93 95  1  0
 88 96  1  0
 96 97  2  0
 96 98  1  0
 98 99  1  0
 99100  1  0
100101  1  0
101102  1  0
102103  1  0
102104  2  0
 99105  1  0
105106  2  0
105107  1  0
107108  1  0
108109  1  0
109110  1  0
110111  1  0
111112  1  0
112113  1  0
113114  2  3
113115  1  0
108116  1  0
116117  2  0
116118  1  0
118119  1  0
119120  1  0
120121  1  0
121122  1  0
122123  1  0
119124  1  0
119125  1  6
125126  2  0
125127  1  0
127128  1  0
128129  1  0
129130  1  0
130131  1  0
131132  1  0
132133  1  0
133134  2  3
133135  1  0
128136  1  0
136137  2  0
136138  1  0
138139  1  0
139140  1  0
140141  1  0
141142  1  0
142143  1  0
143144  1  0
144145  2  3
144146  1  0
139147  1  0
147148  2  0
147149  1  0
149150  1  0
150151  1  0
151152  1  0
152153  1  0
153154  1  0
154155  1  0
155156  2  3
155157  1  0
150158  1  0
158159  2  0
158160  1  0
 83123  2  0
  1161  1  0
  1162  1  0
  2163  1  0
  2164  1  0
  3165  1  0
  3166  1  0
  6167  1  0
  7168  1  6
  8169  1  0
  8170  1  0
 14171  1  0
 15172  1  1
 16173  1  0
 16174  1  0
 17175  1  0
 17176  1  0
 18177  1  0
 18178  1  0
 19179  1  0
 21180  1  0
 21181  1  0
 22182  1  0
 22183  1  0
 25184  1  0
 26185  1  1
 27186  1  0
 27187  1  0
 28188  1  0
 28189  1  0
 29190  1  0
 29191  1  0
 30192  1  0
 32193  1  0
 32194  1  0
 33195  1  0
 33196  1  0
 36197  1  0
 37198  1  6
 38199  1  0
 38200  1  0
 39201  1  0
 39202  1  0
 41203  1  0
 41204  1  0
 45205  1  0
 46206  1  1
 47207  1  0
 47208  1  0
 48209  1  0
 48210  1  0
 49211  1  0
 49212  1  0
 50213  1  0
 52214  1  0
 52215  1  0
 53216  1  0
 53217  1  0
 56218  1  0
 57219  1  1
 58220  1  0
 58221  1  0
 59222  1  0
 59223  1  0
 60224  1  0
 60225  1  0
 61226  1  0
 63227  1  0
 63228  1  0
 64229  1  0
 64230  1  0
 67231  1  0
 68232  1  6
 69233  1  0
 69234  1  0
 70235  1  0
 70236  1  0
 71237  1  0
 71238  1  0
 72239  1  0
 74240  1  0
 74241  1  0
 75242  1  0
 75243  1  0
 78244  1  0
 80245  1  0
 80246  1  0
 81247  1  0
 81248  1  0
 82249  1  0
 82250  1  0
 83251  1  0
 84252  1  0
 84253  1  0
 84254  1  0
 87255  1  0
 88256  1  1
 89257  1  0
 89258  1  0
 90259  1  0
 90260  1  0
 91261  1  0
 91262  1  0
 92263  1  0
 94264  1  0
 94265  1  0
 95266  1  0
 95267  1  0
 98268  1  0
 99269  1  1
100270  1  0
100271  1  0
101272  1  0
101273  1  0
103274  1  0
103275  1  0
107276  1  0
108277  1  1
109278  1  0
109279  1  0
110280  1  0
110281  1  0
111282  1  0
111283  1  0
112284  1  0
114285  1  0
114286  1  0
115287  1  0
115288  1  0
118289  1  0
120290  1  0
120291  1  0
121292  1  0
121293  1  0
122294  1  0
122295  1  0
123296  1  0
124297  1  0
124298  1  0
124299  1  0
127300  1  0
128301  1  1
129302  1  0
129303  1  0
130304  1  0
130305  1  0
131306  1  0
131307  1  0
132308  1  0
134309  1  0
134310  1  0
135311  1  0
135312  1  0
138313  1  0
139314  1  1
140315  1  0
140316  1  0
141317  1  0
141318  1  0
142319  1  0
142320  1  0
143321  1  0
145322  1  0
145323  1  0
146324  1  0
146325  1  0
149326  1  0
150327  1  6
151328  1  0
151329  1  0
152330  1  0
152331  1  0
153332  1  0
153333  1  0
154334  1  0
156335  1  0
156336  1  0
157337  1  0
157338  1  0
M  CHG  8  11  -1  21   1  32   1  52   1  63   1  74   1  94   1 114   1
M  CHG  4 134   1 145   1 156   1 160  -1
M  END
