
     RDKit          2D

252260  0  0  0  0  0  0  0  0999 V2000
  -17.6614   -0.4780    0.0000 C   0  0  0  0  0  0  0  0  0  0  0  0
  -18.9284   -1.2809    0.0000 N   0  0  0  0  0  0  0  0  0  0  0  0
  -20.2573   -0.5852    0.0000 C   0  0  0  0  0  0  0  0  0  0  0  0
  -20.3192    0.9135    0.0000 C   0  0  0  0  0  0  0  0  0  0  0  0
  -21.6481    1.6093    0.0000 C   0  0  0  0  0  0  0  0  0  0  0  0
  -22.9151    0.8063    0.0000 C   0  0  0  0  0  0  0  0  0  0  0  0
  -22.8532   -0.6924    0.0000 C   0  0  0  0  0  0  0  0  0  0  0  0
  -21.5243   -1.3882    0.0000 C   0  0  0  0  0  0  0  0  0  0  0  0
  -24.2594   -1.2144    0.0000 C   0  0  0  0  0  0  0  0  0  0  0  0
  -25.1904   -0.0383    0.0000 O   0  0  0  0  0  0  0  0  0  0  0  0
  -24.3596    1.2106    0.0000 C   0  0  0  0  0  0  0  0  0  0  0  0
  -24.8816    2.6168    0.0000 O   0  0  0  0  0  0  0  0  0  0  0  0
  -25.7125   -1.5866    0.0000 C   0  0  0  0  0  0  0  0  0  0  0  0
  -26.1168   -3.0311    0.0000 C   0  0  0  0  0  0  0  0  0  0  0  0
  -27.5699   -3.4032    0.0000 C   0  0  0  0  0  0  0  0  0  0  0  0
  -28.6187   -2.3309    0.0000 C   0  0  0  0  0  0  0  0  0  0  0  0
  -28.2145   -0.8864    0.0000 C   0  0  0  0  0  0  0  0  0  0  0  0
  -26.7614   -0.5142    0.0000 C   0  0  0  0  0  0  0  0  0  0  0  0
  -30.0718   -2.7030    0.0000 O   0  0  0  0  0  0  0  0  0  0  0  0
  -25.0679   -4.1034    0.0000 O   0  0  0  0  0  0  0  0  0  0  0  0
  -23.6148   -3.7313    0.0000 C   0  0  0  0  0  0  0  0  0  0  0  0
  -23.2106   -2.2868    0.0000 C   0  0  0  0  0  0  0  0  0  0  0  0
  -21.9461   -2.5887    0.0000 C   0  0  0  0  0  0  0  0  0  0  0  0
  -21.3867   -3.1606    0.0000 C   0  0  0  0  0  0  0  0  0  0  0  0
  -21.6023   -3.9310    0.0000 C   0  0  0  0  0  0  0  0  0  0  0  0
  -22.3773   -4.1295    0.0000 C   0  0  0  0  0  0  0  0  0  0  0  0
  -20.0640   -5.5038    0.0000 O   0  0  0  0  0  0  0  0  0  0  0  0
  -17.7233    1.0207    0.0000 S   0  0  0  0  0  0  0  0  0  0  0  0
  -16.3326   -1.1737    0.0000 N   0  0  0  0  0  0  0  0  0  0  0  0
  -15.0656   -0.3708    0.0000 C   0  0  0  0  0  0  0  0  0  0  0  0
  -13.7367   -1.0665    0.0000 C   0  0  0  0  0  0  0  0  0  0  0  0
  -12.4697   -0.2635    0.0000 C   0  0  0  0  0  0  0  0  0  0  0  0
  -12.5316    1.2352    0.0000 O   0  0  0  0  0  0  0  0  0  0  0  0
  -11.1408   -0.9593    0.0000 N   0  0  0  0  0  0  0  0  0  0  0  0
   -9.8739   -0.1563    0.0000 C   0  0  0  0  0  0  0  0  0  0  0  0
   -8.9579    1.0315    0.0000 C   0  0  0  0  0  0  0  0  0  0  0  0
   -7.4712    0.8323    0.0000 C   0  0  0  0  0  0  0  0  0  0  0  0
   -6.5553    2.0201    0.0000 C   0  0  0  0  0  0  0  0  0  0  0  0
   -5.0686    1.8208    0.0000 N   0  0  0  0  0  0  0  0  0  0  0  0
   -4.1526    3.0087    0.0000 C   0  0  0  0  0  0  0  0  0  0  0  0
   -2.7013    2.6297    0.0000 N   0  0  0  0  0  0  0  0  0  0  0  0
   -4.7234    4.3959    0.0000 N   0  0  0  0  0  0  0  0  0  0  0  0
   -8.5450   -0.8521    0.0000 C   0  0  0  0  0  0  0  0  0  0  0  0
   -8.4831   -2.3508    0.0000 O   0  0  0  0  0  0  0  0  0  0  0  0
   -7.2780   -0.0491    0.0000 N   0  0  0  0  0  0  0  0  0  0  0  0
   -5.9491   -0.7449    0.0000 C   0  0  0  0  0  0  0  0  0  0  0  0
   -4.9383   -1.8532    0.0000 C   0  0  0  0  0  0  0  0  0  0  0  0
   -5.3928   -3.2827    0.0000 C   0  0  0  0  0  0  0  0  0  0  0  0
   -4.3820   -4.3910    0.0000 C   0  0  0  0  0  0  0  0  0  0  0  0
   -4.8364   -5.8205    0.0000 C   0  0  0  0  0  0  0  0  0  0  0  0
   -3.8256   -6.9288    0.0000 N   0  0  0  0  0  0  0  0  0  0  0  0
   -4.6821    0.0581    0.0000 C   0  0  0  0  0  0  0  0  0  0  0  0
   -4.4615    1.1291    0.0000 O   0  0  0  0  0  0  0  0  0  0  0  0
   -3.3533   -0.6376    0.0000 N   0  0  0  0  0  0  0  0  0  0  0  0
   -2.0863    0.1653    0.0000 C   0  0  0  0  0  0  0  0  0  0  0  0
   -1.1703    1.3532    0.0000 C   0  0  0  0  0  0  0  0  0  0  0  0
    0.3164    1.1539    0.0000 C   0  0  0  0  0  0  0  0  0  0  0  0
    0.8871   -0.2333    0.0000 C   0  0  0  0  0  0  0  0  0  0  0  0
    2.3738   -0.4325    0.0000 C   0  0  0  0  0  0  0  0  0  0  0  0
    3.2898    0.7553    0.0000 C   0  0  0  0  0  0  0  0  0  0  0  0
    2.7190    2.1425    0.0000 C   0  0  0  0  0  0  0  0  0  0  0  0
    1.2323    2.3418    0.0000 C   0  0  0  0  0  0  0  0  0  0  0  0
   -0.7574   -0.5304    0.0000 C   0  0  0  0  0  0  0  0  0  0  0  0
   -1.0600   -1.9996    0.0000 O   0  0  0  0  0  0  0  0  0  0  0  0
    0.5096    0.2725    0.0000 N   0  0  0  0  0  0  0  0  0  0  0  0
    1.8385   -0.4232    0.0000 C   0  0  0  0  0  0  0  0  0  0  0  0
    2.1961   -1.8800    0.0000 C   0  0  0  0  0  0  0  0  0  0  0  0
    2.9672   -3.1666    0.0000 C   0  0  0  0  0  0  0  0  0  0  0  0
    4.0834   -4.1687    0.0000 C   0  0  0  0  0  0  0  0  0  0  0  0
    5.4453   -4.7974    0.0000 C   0  0  0  0  0  0  0  0  0  0  0  0
    0.6577   -1.3483    0.0000 C   0  0  0  0  0  0  0  0  0  0  0  0
    1.9261    1.0742    0.0000 C   0  0  0  0  0  0  0  0  0  0  0  0
    0.6670    1.8895    0.0000 O   0  0  0  0  0  0  0  0  0  0  0  0
    2.4512    2.4793    0.0000 N   0  0  0  0  0  0  0  0  0  0  0  0
    3.3672    3.6672    0.0000 C   0  0  0  0  0  0  0  0  0  0  0  0
    3.0826    5.1399    0.0000 C   0  0  0  0  0  0  0  0  0  0  0  0
    1.6648    5.6299    0.0000 C   0  0  0  0  0  0  0  0  0  0  0  0
    1.3803    7.1026    0.0000 C   0  0  0  0  0  0  0  0  0  0  0  0
   -0.0375    7.5925    0.0000 N   0  0  0  0  0  0  0  0  0  0  0  0
   -0.3221    9.0653    0.0000 C   0  0  0  0  0  0  0  0  0  0  0  0
   -1.7398    9.5552    0.0000 N   0  0  0  0  0  0  0  0  0  0  0  0
    0.8111   10.0481    0.0000 N   0  0  0  0  0  0  0  0  0  0  0  0
    4.5925    4.5323    0.0000 C   0  0  0  0  0  0  0  0  0  0  0  0
    3.9197    5.8729    0.0000 O   0  0  0  0  0  0  0  0  0  0  0  0
    6.0185    4.9978    0.0000 N   0  0  0  0  0  0  0  0  0  0  0  0
    7.5183    5.0223    0.0000 C   0  0  0  0  0  0  0  0  0  0  0  0
    8.4923    6.1631    0.0000 C   0  0  0  0  0  0  0  0  0  0  0  0
    7.9914    7.5770    0.0000 C   0  0  0  0  0  0  0  0  0  0  0  0
    8.9654    8.7177    0.0000 C   0  0  0  0  0  0  0  0  0  0  0  0
    7.0371    8.7343    0.0000 C   0  0  0  0  0  0  0  0  0  0  0  0
    8.9587    4.6037    0.0000 C   0  0  0  0  0  0  0  0  0  0  0  0
    9.5873    5.9656    0.0000 O   0  0  0  0  0  0  0  0  0  0  0  0
   10.2117    3.7791    0.0000 N   0  0  0  0  0  0  0  0  0  0  0  0
   11.1660    2.6218    0.0000 C   0  0  0  0  0  0  0  0  0  0  0  0
   12.6651    2.5715    0.0000 C   0  0  0  0  0  0  0  0  0  0  0  0
   13.4582    3.8447    0.0000 C   0  0  0  0  0  0  0  0  0  0  0  0
   14.9574    3.7944    0.0000 C   0  0  0  0  0  0  0  0  0  0  0  0
   15.7505    5.0676    0.0000 C   0  0  0  0  0  0  0  0  0  0  0  0
   15.0445    6.3910    0.0000 C   0  0  0  0  0  0  0  0  0  0  0  0
   13.5453    6.4413    0.0000 C   0  0  0  0  0  0  0  0  0  0  0  0
   12.7522    5.1681    0.0000 C   0  0  0  0  0  0  0  0  0  0  0  0
   11.7367    1.2346    0.0000 C   0  0  0  0  0  0  0  0  0  0  0  0
   13.1935    1.5922    0.0000 O   0  0  0  0  0  0  0  0  0  0  0  0
   11.8733   -0.2592    0.0000 N   0  0  0  0  0  0  0  0  0  0  0  0
   11.5634   -1.7268    0.0000 C   0  0  0  0  0  0  0  0  0  0  0  0
   10.8348   -3.0380    0.0000 C   0  0  0  0  0  0  0  0  0  0  0  0
    9.7520   -4.0760    0.0000 C   0  0  0  0  0  0  0  0  0  0  0  0
    8.4114   -4.7489    0.0000 C   0  0  0  0  0  0  0  0  0  0  0  0
    6.9320   -4.9967    0.0000 C   0  0  0  0  0  0  0  0  0  0  0  0
   13.0286   -1.4056    0.0000 C   0  0  0  0  0  0  0  0  0  0  0  0
   12.4588   -2.9303    0.0000 C   0  0  0  0  0  0  0  0  0  0  0  0
   12.2152   -4.4103    0.0000 O   0  0  0  0  0  0  0  0  0  0  0  0
   13.9487   -2.7565    0.0000 N   0  0  0  0  0  0  0  0  0  0  0  0
   14.8441   -3.9600    0.0000 C   0  0  0  0  0  0  0  0  0  0  0  0
   15.2739   -5.3971    0.0000 C   0  0  0  0  0  0  0  0  0  0  0  0
   14.2443   -6.4878    0.0000 O   0  0  0  0  0  0  0  0  0  0  0  0
   16.3340   -3.7862    0.0000 C   0  0  0  0  0  0  0  0  0  0  0  0
   16.9285   -2.4091    0.0000 O   0  0  0  0  0  0  0  0  0  0  0  0
   17.2294   -4.9897    0.0000 N   0  0  0  0  0  0  0  0  0  0  0  0
   18.7194   -4.8159    0.0000 C   0  0  0  0  0  0  0  0  0  0  0  0
   20.0600   -4.1431    0.0000 C   0  0  0  0  0  0  0  0  0  0  0  0
   21.3130   -4.9677    0.0000 C   0  0  0  0  0  0  0  0  0  0  0  0
   21.2254   -6.4652    0.0000 C   0  0  0  0  0  0  0  0  0  0  0  0
   22.4784   -7.2898    0.0000 C   0  0  0  0  0  0  0  0  0  0  0  0
   23.8190   -6.6169    0.0000 C   0  0  0  0  0  0  0  0  0  0  0  0
   25.0720   -7.4416    0.0000 O   0  0  0  0  0  0  0  0  0  0  0  0
   23.9066   -5.1195    0.0000 C   0  0  0  0  0  0  0  0  0  0  0  0
   22.6536   -4.2949    0.0000 C   0  0  0  0  0  0  0  0  0  0  0  0
   19.6148   -6.0194    0.0000 C   0  0  0  0  0  0  0  0  0  0  0  0
   21.1024   -6.2113    0.0000 O   0  0  0  0  0  0  0  0  0  0  0  0
   18.8568   -7.3138    0.0000 O   0  0  0  0  0  0  0  0  0  0  0  0
  -18.6843   -2.7609    0.0000 H   0  0  0  0  0  0  0  0  0  0  0  0
  -19.0522    1.7165    0.0000 H   0  0  0  0  0  0  0  0  0  0  0  0
  -21.7100    3.1080    0.0000 H   0  0  0  0  0  0  0  0  0  0  0  0
  -21.1016   -2.8274    0.0000 H   0  0  0  0  0  0  0  0  0  0  0  0
  -27.9741   -4.8477    0.0000 H   0  0  0  0  0  0  0  0  0  0  0  0
  -29.2633    0.1860    0.0000 H   0  0  0  0  0  0  0  0  0  0  0  0
  -26.3571    0.9303    0.0000 H   0  0  0  0  0  0  0  0  0  0  0  0
  -31.1207   -1.6307    0.0000 H   0  0  0  0  0  0  0  0  0  0  0  0
  -21.3532   -0.4701    0.0000 H   0  0  0  0  0  0  0  0  0  0  0  0
  -19.2210   -2.7947    0.0000 H   0  0  0  0  0  0  0  0  0  0  0  0
  -22.9702   -6.2481    0.0000 H   0  0  0  0  0  0  0  0  0  0  0  0
  -20.4683   -6.9483    0.0000 H   0  0  0  0  0  0  0  0  0  0  0  0
  -16.2707   -2.6725    0.0000 H   0  0  0  0  0  0  0  0  0  0  0  0
  -14.1496    0.8171    0.0000 H   0  0  0  0  0  0  0  0  0  0  0  0
  -16.0764    0.7375    0.0000 H   0  0  0  0  0  0  0  0  0  0  0  0
  -12.7259   -2.1748    0.0000 H   0  0  0  0  0  0  0  0  0  0  0  0
  -14.6526   -2.2544    0.0000 H   0  0  0  0  0  0  0  0  0  0  0  0
  -11.0789   -2.4580    0.0000 H   0  0  0  0  0  0  0  0  0  0  0  0
  -10.8846    0.9520    0.0000 H   0  0  0  0  0  0  0  0  0  0  0  0
   -8.6811    2.5058    0.0000 H   0  0  0  0  0  0  0  0  0  0  0  0
  -10.2868    1.7273    0.0000 H   0  0  0  0  0  0  0  0  0  0  0  0
   -6.1423    0.1365    0.0000 H   0  0  0  0  0  0  0  0  0  0  0  0
   -7.2012   -0.6432    0.0000 H   0  0  0  0  0  0  0  0  0  0  0  0
   -6.1008    3.4496    0.0000 H   0  0  0  0  0  0  0  0  0  0  0  0
   -7.7894    2.8727    0.0000 H   0  0  0  0  0  0  0  0  0  0  0  0
   -4.1791    0.6130    0.0000 H   0  0  0  0  0  0  0  0  0  0  0  0
   -1.7500    3.9973    0.0000 H   0  0  0  0  0  0  0  0  0  0  0  0
   -2.2469    1.3574    0.0000 H   0  0  0  0  0  0  0  0  0  0  0  0
   -3.8075    5.5838    0.0000 H   0  0  0  0  0  0  0  0  0  0  0  0
   -6.2101    4.5952    0.0000 H   0  0  0  0  0  0  0  0  0  0  0  0
   -6.9754    1.4201    0.0000 H   0  0  0  0  0  0  0  0  0  0  0  0
   -7.0030   -1.8122    0.0000 H   0  0  0  0  0  0  0  0  0  0  0  0
   -3.6095   -2.5489    0.0000 H   0  0  0  0  0  0  0  0  0  0  0  0
   -3.7622   -0.9222    0.0000 H   0  0  0  0  0  0  0  0  0  0  0  0
   -6.4467   -4.3500    0.0000 H   0  0  0  0  0  0  0  0  0  0  0  0
   -6.7965   -2.7541    0.0000 H   0  0  0  0  0  0  0  0  0  0  0  0
   -2.9782   -4.9196    0.0000 H   0  0  0  0  0  0  0  0  0  0  0  0
   -3.3281   -3.3236    0.0000 H   0  0  0  0  0  0  0  0  0  0  0  0
   -5.7523   -7.0084    0.0000 H   0  0  0  0  0  0  0  0  0  0  0  0
   -6.2402   -5.2919    0.0000 H   0  0  0  0  0  0  0  0  0  0  0  0
   -4.2801   -8.3583    0.0000 H   0  0  0  0  0  0  0  0  0  0  0  0
   -2.4967   -7.6245    0.0000 H   0  0  0  0  0  0  0  0  0  0  0  0
   -2.7717   -5.8614    0.0000 H   0  0  0  0  0  0  0  0  0  0  0  0
   -3.1091   -2.1176    0.0000 H   0  0  0  0  0  0  0  0  0  0  0  0
   -3.0970    1.2736    0.0000 H   0  0  0  0  0  0  0  0  0  0  0  0
   -0.7159    2.7827    0.0000 H   0  0  0  0  0  0  0  0  0  0  0  0
   -2.6281    1.7067    0.0000 H   0  0  0  0  0  0  0  0  0  0  0  0
   -0.2890   -1.1642    0.0000 H   0  0  0  0  0  0  0  0  0  0  0  0
    3.2633   -1.6404    0.0000 H   0  0  0  0  0  0  0  0  0  0  0  0
    4.7765    0.5560    0.0000 H   0  0  0  0  0  0  0  0  0  0  0  0
    3.8952    3.0734    0.0000 H   0  0  0  0  0  0  0  0  0  0  0  0
    0.3429    3.5496    0.0000 H   0  0  0  0  0  0  0  0  0  0  0  0
    0.6308    1.7676    0.0000 H   0  0  0  0  0  0  0  0  0  0  0  0
    0.6989   -1.9718    0.0000 H   0  0  0  0  0  0  0  0  0  0  0  0
    1.3405   -3.1120    0.0000 H   0  0  0  0  0  0  0  0  0  0  0  0
    1.5637   -3.6956    0.0000 H   0  0  0  0  0  0  0  0  0  0  0  0
    2.3420   -4.5300    0.0000 H   0  0  0  0  0  0  0  0  0  0  0  0
    2.7949   -4.9367    0.0000 H   0  0  0  0  0  0  0  0  0  0  0  0
    4.0705   -5.6687    0.0000 H   0  0  0  0  0  0  0  0  0  0  0  0
    5.0266   -6.2378    0.0000 H   0  0  0  0  0  0  0  0  0  0  0  0
    0.5029   -2.8403    0.0000 H   0  0  0  0  0  0  0  0  0  0  0  0
   -0.6132   -2.1451    0.0000 H   0  0  0  0  0  0  0  0  0  0  0  0
   -0.3476   -0.2351    0.0000 H   0  0  0  0  0  0  0  0  0  0  0  0
    1.2387    3.3624    0.0000 H   0  0  0  0  0  0  0  0  0  0  0  0
    1.8764    3.8330    0.0000 H   0  0  0  0  0  0  0  0  0  0  0  0
    3.4977    6.5814    0.0000 H   0  0  0  0  0  0  0  0  0  0  0  0
    4.5319    5.5266    0.0000 H   0  0  0  0  0  0  0  0  0  0  0  0
    0.1650    5.6053    0.0000 H   0  0  0  0  0  0  0  0  0  0  0  0
    1.0771    4.2498    0.0000 H   0  0  0  0  0  0  0  0  0  0  0  0
    1.6166    8.5839    0.0000 H   0  0  0  0  0  0  0  0  0  0  0  0
    2.8659    7.3098    0.0000 H   0  0  0  0  0  0  0  0  0  0  0  0
   -1.1706    6.6097    0.0000 H   0  0  0  0  0  0  0  0  0  0  0  0
   -2.0244   11.0280    0.0000 H   0  0  0  0  0  0  0  0  0  0  0  0
   -2.8729    8.5724    0.0000 H   0  0  0  0  0  0  0  0  0  0  0  0
    0.5265   11.5209    0.0000 H   0  0  0  0  0  0  0  0  0  0  0  0
    2.2288    9.5582    0.0000 H   0  0  0  0  0  0  0  0  0  0  0  0
    5.7707    6.4772    0.0000 H   0  0  0  0  0  0  0  0  0  0  0  0
    6.7184    6.2913    0.0000 H   0  0  0  0  0  0  0  0  0  0  0  0
    9.8781    6.7372    0.0000 H   0  0  0  0  0  0  0  0  0  0  0  0
    9.6983    5.2711    0.0000 H   0  0  0  0  0  0  0  0  0  0  0  0
    6.6056    7.0028    0.0000 H   0  0  0  0  0  0  0  0  0  0  0  0
    8.6406   10.1821    0.0000 H   0  0  0  0  0  0  0  0  0  0  0  0
   10.2708    9.4565    0.0000 H   0  0  0  0  0  0  0  0  0  0  0  0
   10.0536    7.6854    0.0000 H   0  0  0  0  0  0  0  0  0  0  0  0
    7.3870   10.1929    0.0000 H   0  0  0  0  0  0  0  0  0  0  0  0
    5.7446    9.4954    0.0000 H   0  0  0  0  0  0  0  0  0  0  0  0
    6.0631    7.5935    0.0000 H   0  0  0  0  0  0  0  0  0  0  0  0
   11.0703    5.0090    0.0000 H   0  0  0  0  0  0  0  0  0  0  0  0
   11.8284    3.9676    0.0000 H   0  0  0  0  0  0  0  0  0  0  0  0
   14.0567    2.0115    0.0000 H   0  0  0  0  0  0  0  0  0  0  0  0
   12.7196    1.0725    0.0000 H   0  0  0  0  0  0  0  0  0  0  0  0
   15.6634    2.4710    0.0000 H   0  0  0  0  0  0  0  0  0  0  0  0
   17.2497    5.0173    0.0000 H   0  0  0  0  0  0  0  0  0  0  0  0
   15.8376    7.6642    0.0000 H   0  0  0  0  0  0  0  0  0  0  0  0
   12.8393    7.7647    0.0000 H   0  0  0  0  0  0  0  0  0  0  0  0
   11.2703    5.4007    0.0000 H   0  0  0  0  0  0  0  0  0  0  0  0
   13.3707   -0.3468    0.0000 H   0  0  0  0  0  0  0  0  0  0  0  0
   11.3357   -4.4518    0.0000 H   0  0  0  0  0  0  0  0  0  0  0  0
   12.2549   -3.5209    0.0000 H   0  0  0  0  0  0  0  0  0  0  0  0
    9.9961   -5.5560    0.0000 H   0  0  0  0  0  0  0  0  0  0  0  0
   10.9667   -4.9561    0.0000 H   0  0  0  0  0  0  0  0  0  0  0  0
    8.0288   -6.1993    0.0000 H   0  0  0  0  0  0  0  0  0  0  0  0
    9.4521   -5.8291    0.0000 H   0  0  0  0  0  0  0  0  0  0  0  0
    6.9565   -6.4965    0.0000 H   0  0  0  0  0  0  0  0  0  0  0  0
   14.2775   -2.2364    0.0000 H   0  0  0  0  0  0  0  0  0  0  0  0
   14.1883   -0.4542    0.0000 H   0  0  0  0  0  0  0  0  0  0  0  0
   12.8105    0.0784    0.0000 H   0  0  0  0  0  0  0  0  0  0  0  0
   14.7067   -1.4621    0.0000 H   0  0  0  0  0  0  0  0  0  0  0  0
   13.5035   -4.6328    0.0000 H   0  0  0  0  0  0  0  0  0  0  0  0
   16.0160   -6.7007    0.0000 H   0  0  0  0  0  0  0  0  0  0  0  0
   16.7375   -5.0686    0.0000 H   0  0  0  0  0  0  0  0  0  0  0  0
   14.6741   -7.9249    0.0000 H   0  0  0  0  0  0  0  0  0  0  0  0
   16.8072   -6.4290    0.0000 H   0  0  0  0  0  0  0  0  0  0  0  0
   18.2895   -3.3788    0.0000 H   0  0  0  0  0  0  0  0  0  0  0  0
   21.0897   -3.0523    0.0000 H   0  0  0  0  0  0  0  0  0  0  0  0
   19.1646   -2.9397    0.0000 H   0  0  0  0  0  0  0  0  0  0  0  0
   19.9767   -7.2964    0.0000 H   0  0  0  0  0  0  0  0  0  0  0  0
   22.3907   -8.7872    0.0000 H   0  0  0  0  0  0  0  0  0  0  0  0
   26.4126   -6.7687    0.0000 H   0  0  0  0  0  0  0  0  0  0  0  0
   25.2473   -4.4467    0.0000 H   0  0  0  0  0  0  0  0  0  0  0  0
   22.7413   -2.7975    0.0000 H   0  0  0  0  0  0  0  0  0  0  0  0
  1  2  1  0
  2  3  1  0
  3  4  2  0
  4  5  1  0
  5  6  2  0
  6  7  1  0
  7  8  2  0
  7  9  1  0
  9 10  1  0
 10 11  1  0
 11 12  2  0
  9 13  1  0
 13 14  1  0
 14 15  2  0
 15 16  1  0
 16 17  2  0
 17 18  1  0
 16 19  1  0
 14 20  1  0
 20 21  1  0
 21 22  2  0
 22 23  1  0
 23 24  2  0
 24 25  1  0
 25 26  2  0
 25 27  1  0
  1 28  2  0
  1 29  1  0
 29 30  1  0
 30 31  1  0
 31 32  1  0
 32 33  2  0
 32 34  1  0
 34 35  1  0
 35 36  1  0
 36 37  1  0
 37 38  1  0
 38 39  1  0
 39 40  1  0
 40 41  2  3
 40 42  1  0
 35 43  1  0
 43 44  2  0
 43 45  1  0
 45 46  1  0
 46 47  1  0
 47 48  1  0
 48 49  1  0
 49 50  1  0
 50 51  1  0
 46 52  1  0
 52 53  2  0
 52 54  1  0
 54 55  1  0
 55 56  1  0
 56 57  1  0
 57 58  2  0
 58 59  1  0
 59 60  2  0
 60 61  1  0
 61 62  2  0
 55 63  1  0
 63 64  2  0
 63 65  1  0
 66 65  1  6
 66 67  1  0
 67 68  1  0
 68 69  1  0
 69 70  1  0
 66 71  1  0
 66 72  1  0
 72 73  2  0
 72 74  1  0
 74 75  1  0
 75 76  1  0
 76 77  1  0
 77 78  1  0
 78 79  1  0
 79 80  1  0
 80 81  2  3
 80 82  1  0
 75 83  1  0
 83 84  2  0
 83 85  1  0
 85 86  1  0
 86 87  1  0
 87 88  1  0
 88 89  1  0
 88 90  1  0
 86 91  1  0
 91 92  2  0
 91 93  1  0
 93 94  1  0
 94 95  1  0
 95 96  1  0
 96 97  2  0
 97 98  1  0
 98 99  2  0
 99100  1  0
100101  2  0
 94102  1  0
102103  2  0
102104  1  0
104105  1  0
105106  1  0
106107  1  0
107108  1  0
108109  1  0
105110  1  0
105111  1  6
111112  2  0
111113  1  0
113114  1  0
114115  1  0
115116  1  0
114117  1  0
117118  2  0
117119  1  0
119120  1  0
120121  1  0
121122  1  0
122123  2  0
123124  1  0
124125  2  0
125126  1  0
125127  1  0
127128  2  0
120129  1  0
129130  2  0
129131  1  0
  8  3  1  0
 62 57  1  0
101 96  1  0
128122  1  0
 11  6  1  0
 18 13  2  0
 70109  2  0
 22  9  1  0
 26 21  1  0
  2132  1  0
  4133  1  0
  5134  1  0
  8135  1  0
 15136  1  0
 17137  1  0
 18138  1  0
 19139  1  0
 23140  1  0
 24141  1  0
 26142  1  0
 27143  1  0
 29144  1  0
 30145  1  0
 30146  1  0
 31147  1  0
 31148  1  0
 34149  1  0
 35150  1  1
 36151  1  0
 36152  1  0
 37153  1  0
 37154  1  0
 38155  1  0
 38156  1  0
 39157  1  0
 41158  1  0
 41159  1  0
 42160  1  0
 42161  1  0
 45162  1  0
 46163  1  6
 47164  1  0
 47165  1  0
 48166  1  0
 48167  1  0
 49168  1  0
 49169  1  0
 50170  1  0
 50171  1  0
 51172  1  0
 51173  1  0
 51174  1  0
 54175  1  0
 55176  1  1
 56177  1  0
 56178  1  0
 58179  1  0
 59180  1  0
 60181  1  0
 61182  1  0
 62183  1  0
 65184  1  0
 67185  1  0
 67186  1  0
 68187  1  0
 68188  1  0
 69189  1  0
 69190  1  0
 70191  1  0
 71192  1  0
 71193  1  0
 71194  1  0
 74195  1  0
 75196  1  1
 76197  1  0
 76198  1  0
 77199  1  0
 77200  1  0
 78201  1  0
 78202  1  0
 79203  1  0
 81204  1  0
 81205  1  0
 82206  1  0
 82207  1  0
 85208  1  0
 86209  1  1
 87210  1  0
 87211  1  0
 88212  1  0
 89213  1  0
 89214  1  0
 89215  1  0
 90216  1  0
 90217  1  0
 90218  1  0
 93219  1  0
 94220  1  1
 95221  1  0
 95222  1  0
 97223  1  0
 98224  1  0
 99225  1  0
100226  1  0
101227  1  0
104228  1  0
106229  1  0
106230  1  0
107231  1  0
107232  1  0
108233  1  0
108234  1  0
109235  1  0
110236  1  0
110237  1  0
110238  1  0
113239  1  0
114240  1  6
115241  1  0
115242  1  0
116243  1  0
119244  1  0
120245  1  1
121246  1  0
121247  1  0
123248  1  0
124249  1  0
126250  1  0
127251  1  0
128252  1  0
M  CHG  4  41   1  51   1  81   1 131  -1
M  END
