
     RDKit          2D

354362  0  0  0  0  0  0  0  0999 V2000
  -28.7712    0.0426    0.0000 C   0  0  0  0  0  0  0  0  0  0  0  0
  -30.0232   -0.7836    0.0000 N   0  0  0  0  0  0  0  0  0  0  0  0
  -31.3647   -0.1124    0.0000 C   0  0  0  0  0  0  0  0  0  0  0  0
  -31.4542    1.3849    0.0000 C   0  0  0  0  0  0  0  0  0  0  0  0
  -32.7956    2.0561    0.0000 C   0  0  0  0  0  0  0  0  0  0  0  0
  -34.0476    1.2299    0.0000 C   0  0  0  0  0  0  0  0  0  0  0  0
  -33.9581   -0.2674    0.0000 C   0  0  0  0  0  0  0  0  0  0  0  0
  -32.6167   -0.9386    0.0000 C   0  0  0  0  0  0  0  0  0  0  0  0
  -35.3545   -0.8152    0.0000 C   0  0  0  0  0  0  0  0  0  0  0  0
  -36.3070    0.3436    0.0000 O   0  0  0  0  0  0  0  0  0  0  0  0
  -35.4993    1.6075    0.0000 C   0  0  0  0  0  0  0  0  0  0  0  0
  -36.0471    3.0039    0.0000 O   0  0  0  0  0  0  0  0  0  0  0  0
  -36.8005   -1.2140    0.0000 C   0  0  0  0  0  0  0  0  0  0  0  0
  -37.1781   -2.6657    0.0000 C   0  0  0  0  0  0  0  0  0  0  0  0
  -38.6242   -3.0645    0.0000 C   0  0  0  0  0  0  0  0  0  0  0  0
  -39.6926   -2.0117    0.0000 C   0  0  0  0  0  0  0  0  0  0  0  0
  -39.3149   -0.5600    0.0000 C   0  0  0  0  0  0  0  0  0  0  0  0
  -37.8689   -0.1612    0.0000 C   0  0  0  0  0  0  0  0  0  0  0  0
  -41.1386   -2.4105    0.0000 O   0  0  0  0  0  0  0  0  0  0  0  0
  -36.1097   -3.7186    0.0000 O   0  0  0  0  0  0  0  0  0  0  0  0
  -34.6637   -3.3197    0.0000 C   0  0  0  0  0  0  0  0  0  0  0  0
  -34.2861   -1.8680    0.0000 C   0  0  0  0  0  0  0  0  0  0  0  0
  -33.0163   -2.1467    0.0000 C   0  0  0  0  0  0  0  0  0  0  0  0
  -32.4465   -2.7082    0.0000 C   0  0  0  0  0  0  0  0  0  0  0  0
  -32.6479   -3.4824    0.0000 C   0  0  0  0  0  0  0  0  0  0  0  0
  -33.4191   -3.6951    0.0000 C   0  0  0  0  0  0  0  0  0  0  0  0
  -31.0809   -5.0266    0.0000 O   0  0  0  0  0  0  0  0  0  0  0  0
  -28.8607    1.5399    0.0000 S   0  0  0  0  0  0  0  0  0  0  0  0
  -27.4298   -0.6286    0.0000 N   0  0  0  0  0  0  0  0  0  0  0  0
  -26.1778    0.1975    0.0000 C   0  0  0  0  0  0  0  0  0  0  0  0
  -24.8363   -0.4737    0.0000 C   0  0  0  0  0  0  0  0  0  0  0  0
  -23.5843    0.3525    0.0000 C   0  0  0  0  0  0  0  0  0  0  0  0
  -23.6738    1.8498    0.0000 O   0  0  0  0  0  0  0  0  0  0  0  0
  -22.2429   -0.3187    0.0000 N   0  0  0  0  0  0  0  0  0  0  0  0
  -20.9909    0.5075    0.0000 C   0  0  0  0  0  0  0  0  0  0  0  0
  -20.0970    1.7120    0.0000 C   0  0  0  0  0  0  0  0  0  0  0  0
  -18.6068    1.5401    0.0000 C   0  0  0  0  0  0  0  0  0  0  0  0
  -17.7129    2.7446    0.0000 C   0  0  0  0  0  0  0  0  0  0  0  0
  -16.4980    2.7536    0.0000 O   0  0  0  0  0  0  0  0  0  0  0  0
  -18.3091    4.1211    0.0000 O   0  0  0  0  0  0  0  0  0  0  0  0
  -19.6494   -0.1637    0.0000 C   0  0  0  0  0  0  0  0  0  0  0  0
  -19.5600   -1.6610    0.0000 O   0  0  0  0  0  0  0  0  0  0  0  0
  -18.3974    0.6624    0.0000 N   0  0  0  0  0  0  0  0  0  0  0  0
  -17.0560   -0.0087    0.0000 C   0  0  0  0  0  0  0  0  0  0  0  0
  -16.0250   -1.0982    0.0000 C   0  0  0  0  0  0  0  0  0  0  0  0
  -16.4530   -2.5359    0.0000 C   0  0  0  0  0  0  0  0  0  0  0  0
  -15.4220   -3.6254    0.0000 C   0  0  0  0  0  0  0  0  0  0  0  0
  -15.8500   -5.0630    0.0000 N   0  0  0  0  0  0  0  0  0  0  0  0
  -14.8190   -6.1525    0.0000 C   0  0  0  0  0  0  0  0  0  0  0  0
  -15.2471   -7.5902    0.0000 N   0  0  0  0  0  0  0  0  0  0  0  0
  -13.3600   -5.8044    0.0000 N   0  0  0  0  0  0  0  0  0  0  0  0
  -15.8040    0.8174    0.0000 C   0  0  0  0  0  0  0  0  0  0  0  0
  -15.7281    2.0300    0.0000 O   0  0  0  0  0  0  0  0  0  0  0  0
  -14.4625    0.1462    0.0000 N   0  0  0  0  0  0  0  0  0  0  0  0
  -13.2105    0.9724    0.0000 C   0  0  0  0  0  0  0  0  0  0  0  0
  -12.3166    2.1769    0.0000 C   0  0  0  0  0  0  0  0  0  0  0  0
  -10.8265    2.0050    0.0000 C   0  0  0  0  0  0  0  0  0  0  0  0
   -9.9326    3.2096    0.0000 C   0  0  0  0  0  0  0  0  0  0  0  0
   -9.4850    1.3338    0.0000 C   0  0  0  0  0  0  0  0  0  0  0  0
  -11.8691    0.3012    0.0000 C   0  0  0  0  0  0  0  0  0  0  0  0
  -11.7796   -1.1961    0.0000 O   0  0  0  0  0  0  0  0  0  0  0  0
  -10.6171    1.1274    0.0000 N   0  0  0  0  0  0  0  0  0  0  0  0
   -9.2756    0.4562    0.0000 C   0  0  0  0  0  0  0  0  0  0  0  0
   -8.2446   -0.6333    0.0000 C   0  0  0  0  0  0  0  0  0  0  0  0
   -8.6727   -2.0710    0.0000 C   0  0  0  0  0  0  0  0  0  0  0  0
   -7.6417   -3.1605    0.0000 C   0  0  0  0  0  0  0  0  0  0  0  0
   -8.0697   -4.5981    0.0000 N   0  0  0  0  0  0  0  0  0  0  0  0
   -7.0387   -5.6876    0.0000 C   0  0  0  0  0  0  0  0  0  0  0  0
   -7.4667   -7.1252    0.0000 N   0  0  0  0  0  0  0  0  0  0  0  0
   -5.5796   -5.3395    0.0000 N   0  0  0  0  0  0  0  0  0  0  0  0
   -8.0236    1.2823    0.0000 C   0  0  0  0  0  0  0  0  0  0  0  0
   -7.9299    2.7794    0.0000 O   0  0  0  0  0  0  0  0  0  0  0  0
   -6.6822    0.6112    0.0000 N   0  0  0  0  0  0  0  0  0  0  0  0
   -5.4302    1.4373    0.0000 C   0  0  0  0  0  0  0  0  0  0  0  0
   -4.5363    2.6418    0.0000 C   0  0  0  0  0  0  0  0  0  0  0  0
   -3.0461    2.4699    0.0000 C   0  0  0  0  0  0  0  0  0  0  0  0
   -2.1522    3.6745    0.0000 C   0  0  0  0  0  0  0  0  0  0  0  0
   -0.6621    3.5026    0.0000 N   0  0  0  0  0  0  0  0  0  0  0  0
    0.2318    4.7071    0.0000 C   0  0  0  0  0  0  0  0  0  0  0  0
    1.6899    4.3549    0.0000 N   0  0  0  0  0  0  0  0  0  0  0  0
   -0.3644    6.0835    0.0000 N   0  0  0  0  0  0  0  0  0  0  0  0
   -4.0887    0.7661    0.0000 C   0  0  0  0  0  0  0  0  0  0  0  0
   -3.9993   -0.7312    0.0000 O   0  0  0  0  0  0  0  0  0  0  0  0
   -2.8367    1.5923    0.0000 N   0  0  0  0  0  0  0  0  0  0  0  0
   -1.4953    0.9211    0.0000 C   0  0  0  0  0  0  0  0  0  0  0  0
   -0.4643   -0.1684    0.0000 C   0  0  0  0  0  0  0  0  0  0  0  0
   -0.8923   -1.6060    0.0000 C   0  0  0  0  0  0  0  0  0  0  0  0
    0.1387   -2.6956    0.0000 C   0  0  0  0  0  0  0  0  0  0  0  0
   -0.2893   -4.1332    0.0000 N   0  0  0  0  0  0  0  0  0  0  0  0
    0.7417   -5.2227    0.0000 C   0  0  0  0  0  0  0  0  0  0  0  0
    0.3136   -6.6603    0.0000 N   0  0  0  0  0  0  0  0  0  0  0  0
    2.2007   -4.8746    0.0000 N   0  0  0  0  0  0  0  0  0  0  0  0
   -0.2433    1.7472    0.0000 C   0  0  0  0  0  0  0  0  0  0  0  0
   -0.0424    2.8221    0.0000 O   0  0  0  0  0  0  0  0  0  0  0  0
    1.0982    1.0761    0.0000 N   0  0  0  0  0  0  0  0  0  0  0  0
    2.3502    1.9022    0.0000 C   0  0  0  0  0  0  0  0  0  0  0  0
    3.2441    3.1068    0.0000 C   0  0  0  0  0  0  0  0  0  0  0  0
    4.7342    2.9349    0.0000 C   0  0  0  0  0  0  0  0  0  0  0  0
    5.3304    1.5584    0.0000 C   0  0  0  0  0  0  0  0  0  0  0  0
    6.8205    1.3865    0.0000 C   0  0  0  0  0  0  0  0  0  0  0  0
    7.7144    2.5911    0.0000 C   0  0  0  0  0  0  0  0  0  0  0  0
    7.1182    3.9675    0.0000 C   0  0  0  0  0  0  0  0  0  0  0  0
    5.6281    4.1394    0.0000 C   0  0  0  0  0  0  0  0  0  0  0  0
    3.6916    1.2310    0.0000 C   0  0  0  0  0  0  0  0  0  0  0  0
    3.4161   -0.2434    0.0000 O   0  0  0  0  0  0  0  0  0  0  0  0
    4.9436    2.0572    0.0000 N   0  0  0  0  0  0  0  0  0  0  0  0
    6.2851    1.3860    0.0000 C   0  0  0  0  0  0  0  0  0  0  0  0
    6.6695   -0.0639    0.0000 C   0  0  0  0  0  0  0  0  0  0  0  0
    7.4641   -1.3361    0.0000 C   0  0  0  0  0  0  0  0  0  0  0  0
    8.5985   -2.3175    0.0000 C   0  0  0  0  0  0  0  0  0  0  0  0
    9.9718   -2.9210    0.0000 C   0  0  0  0  0  0  0  0  0  0  0  0
    5.1216    0.4393    0.0000 C   0  0  0  0  0  0  0  0  0  0  0  0
    6.3451    2.8848    0.0000 C   0  0  0  0  0  0  0  0  0  0  0  0
    5.0713    3.6768    0.0000 O   0  0  0  0  0  0  0  0  0  0  0  0
    6.8443    4.2993    0.0000 N   0  0  0  0  0  0  0  0  0  0  0  0
    7.7382    5.5038    0.0000 C   0  0  0  0  0  0  0  0  0  0  0  0
    7.4266    6.9711    0.0000 C   0  0  0  0  0  0  0  0  0  0  0  0
    6.0001    7.4349    0.0000 C   0  0  0  0  0  0  0  0  0  0  0  0
    5.6884    8.9021    0.0000 C   0  0  0  0  0  0  0  0  0  0  0  0
    4.5010    7.3828    0.0000 C   0  0  0  0  0  0  0  0  0  0  0  0
    8.9475    6.3914    0.0000 C   0  0  0  0  0  0  0  0  0  0  0  0
    8.2501    7.7194    0.0000 O   0  0  0  0  0  0  0  0  0  0  0  0
   10.3646    6.8830    0.0000 N   0  0  0  0  0  0  0  0  0  0  0  0
   11.8637    6.9352    0.0000 C   0  0  0  0  0  0  0  0  0  0  0  0
   12.8166    8.0936    0.0000 C   0  0  0  0  0  0  0  0  0  0  0  0
   12.2897    9.4981    0.0000 S   0  0  0  0  0  0  0  0  0  0  0  0
   13.3116    6.5431    0.0000 C   0  0  0  0  0  0  0  0  0  0  0  0
   13.9150    7.9163    0.0000 O   0  0  0  0  0  0  0  0  0  0  0  0
   14.5795    5.7417    0.0000 N   0  0  0  0  0  0  0  0  0  0  0  0
   15.5549    4.6021    0.0000 C   0  0  0  0  0  0  0  0  0  0  0  0
   17.0548    4.5795    0.0000 C   0  0  0  0  0  0  0  0  0  0  0  0
   17.8243    5.8670    0.0000 C   0  0  0  0  0  0  0  0  0  0  0  0
   19.3241    5.8443    0.0000 C   0  0  0  0  0  0  0  0  0  0  0  0
   20.0937    7.1319    0.0000 N   0  0  0  0  0  0  0  0  0  0  0  0
   21.5935    7.1092    0.0000 C   0  0  0  0  0  0  0  0  0  0  0  0
   22.3631    8.3968    0.0000 N   0  0  0  0  0  0  0  0  0  0  0  0
   22.3238    5.7990    0.0000 N   0  0  0  0  0  0  0  0  0  0  0  0
   16.1511    3.2257    0.0000 C   0  0  0  0  0  0  0  0  0  0  0  0
   17.6010    3.6101    0.0000 O   0  0  0  0  0  0  0  0  0  0  0  0
   16.3151    1.7347    0.0000 N   0  0  0  0  0  0  0  0  0  0  0  0
   16.0324    0.2616    0.0000 C   0  0  0  0  0  0  0  0  0  0  0  0
   15.3279   -1.0627    0.0000 C   0  0  0  0  0  0  0  0  0  0  0  0
   14.2645   -2.1206    0.0000 C   0  0  0  0  0  0  0  0  0  0  0  0
   12.9365   -2.8179    0.0000 C   0  0  0  0  0  0  0  0  0  0  0  0
   11.4619   -3.0929    0.0000 C   0  0  0  0  0  0  0  0  0  0  0  0
   17.4914    0.6097    0.0000 C   0  0  0  0  0  0  0  0  0  0  0  0
   16.9498   -0.9251    0.0000 C   0  0  0  0  0  0  0  0  0  0  0  0
   16.7334   -2.4095    0.0000 O   0  0  0  0  0  0  0  0  0  0  0  0
   18.4362   -0.7240    0.0000 N   0  0  0  0  0  0  0  0  0  0  0  0
   19.3536   -1.9108    0.0000 C   0  0  0  0  0  0  0  0  0  0  0  0
   19.8098   -3.3397    0.0000 C   0  0  0  0  0  0  0  0  0  0  0  0
   18.8004   -4.4493    0.0000 C   0  0  0  0  0  0  0  0  0  0  0  0
   19.1047   -5.9181    0.0000 C   0  0  0  0  0  0  0  0  0  0  0  0
   17.8018   -6.6614    0.0000 N   0  0  0  0  0  0  0  0  0  0  0  0
   16.6923   -5.6520    0.0000 C   0  0  0  0  0  0  0  0  0  0  0  0
   17.3094   -4.2848    0.0000 N   0  0  0  0  0  0  0  0  0  0  0  0
   20.8401   -1.7097    0.0000 C   0  0  0  0  0  0  0  0  0  0  0  0
   21.4091   -0.3218    0.0000 O   0  0  0  0  0  0  0  0  0  0  0  0
   21.7575   -2.8964    0.0000 N   0  0  0  0  0  0  0  0  0  0  0  0
   23.2439   -2.6953    0.0000 C   0  0  0  0  0  0  0  0  0  0  0  0
   24.5720   -1.9979    0.0000 C   0  0  0  0  0  0  0  0  0  0  0  0
   25.8399   -2.7993    0.0000 C   0  0  0  0  0  0  0  0  0  0  0  0
   27.2336   -2.2446    0.0000 C   0  0  0  0  0  0  0  0  0  0  0  0
   28.1918   -3.3986    0.0000 N   0  0  0  0  0  0  0  0  0  0  0  0
   27.3904   -4.6665    0.0000 C   0  0  0  0  0  0  0  0  0  0  0  0
   25.9369   -4.2962    0.0000 N   0  0  0  0  0  0  0  0  0  0  0  0
   24.1613   -3.8820    0.0000 C   0  0  0  0  0  0  0  0  0  0  0  0
   23.5923   -5.2699    0.0000 O   0  0  0  0  0  0  0  0  0  0  0  0
   25.6478   -3.6809    0.0000 N   0  0  0  0  0  0  0  0  0  0  0  0
   26.5652   -4.8677    0.0000 C   0  0  0  0  0  0  0  0  0  0  0  0
   27.0214   -6.2966    0.0000 C   0  0  0  0  0  0  0  0  0  0  0  0
   26.0120   -7.4062    0.0000 O   0  0  0  0  0  0  0  0  0  0  0  0
   28.0517   -4.6666    0.0000 C   0  0  0  0  0  0  0  0  0  0  0  0
   28.9396   -3.4576    0.0000 O   0  0  0  0  0  0  0  0  0  0  0  0
   28.9691   -5.8533    0.0000 N   0  0  0  0  0  0  0  0  0  0  0  0
   30.4555   -5.6522    0.0000 C   0  0  0  0  0  0  0  0  0  0  0  0
   31.7835   -4.9548    0.0000 C   0  0  0  0  0  0  0  0  0  0  0  0
   32.7929   -3.8453    0.0000 O   0  0  0  0  0  0  0  0  0  0  0  0
   33.0515   -5.7562    0.0000 C   0  0  0  0  0  0  0  0  0  0  0  0
   31.3729   -6.8389    0.0000 C   0  0  0  0  0  0  0  0  0  0  0  0
   32.8728   -6.8205    0.0000 O   0  0  0  0  0  0  0  0  0  0  0  0
   30.8039   -8.2268    0.0000 O   0  0  0  0  0  0  0  0  0  0  0  0
  -29.7519   -2.2589    0.0000 H   0  0  0  0  0  0  0  0  0  0  0  0
  -30.2022    2.2111    0.0000 H   0  0  0  0  0  0  0  0  0  0  0  0
  -32.8851    3.5534    0.0000 H   0  0  0  0  0  0  0  0  0  0  0  0
  -32.1675   -2.3698    0.0000 H   0  0  0  0  0  0  0  0  0  0  0  0
  -39.0018   -4.5162    0.0000 H   0  0  0  0  0  0  0  0  0  0  0  0
  -40.3833    0.4929    0.0000 H   0  0  0  0  0  0  0  0  0  0  0  0
  -37.4913    1.2905    0.0000 H   0  0  0  0  0  0  0  0  0  0  0  0
  -42.2070   -1.3576    0.0000 H   0  0  0  0  0  0  0  0  0  0  0  0
  -32.4625   -0.0175    0.0000 H   0  0  0  0  0  0  0  0  0  0  0  0
  -30.2879   -2.3025    0.0000 H   0  0  0  0  0  0  0  0  0  0  0  0
  -33.9729   -5.8243    0.0000 H   0  0  0  0  0  0  0  0  0  0  0  0
  -31.4585   -6.4783    0.0000 H   0  0  0  0  0  0  0  0  0  0  0  0
  -27.3403   -2.1260    0.0000 H   0  0  0  0  0  0  0  0  0  0  0  0
  -25.2839    1.4021    0.0000 H   0  0  0  0  0  0  0  0  0  0  0  0
  -27.2088    1.2870    0.0000 H   0  0  0  0  0  0  0  0  0  0  0  0
  -23.8053   -1.5632    0.0000 H   0  0  0  0  0  0  0  0  0  0  0  0
  -25.7303   -1.6782    0.0000 H   0  0  0  0  0  0  0  0  0  0  0  0
  -22.1534   -1.8160    0.0000 H   0  0  0  0  0  0  0  0  0  0  0  0
  -22.0219    1.5970    0.0000 H   0  0  0  0  0  0  0  0  0  0  0  0
  -19.6689    3.1496    0.0000 H   0  0  0  0  0  0  0  0  0  0  0  0
  -21.4384    2.3832    0.0000 H   0  0  0  0  0  0  0  0  0  0  0  0
  -17.2654    0.8689    0.0000 H   0  0  0  0  0  0  0  0  0  0  0  0
  -18.3097    0.0698    0.0000 H   0  0  0  0  0  0  0  0  0  0  0  0
  -18.1219    2.1369    0.0000 H   0  0  0  0  0  0  0  0  0  0  0  0
  -18.0901   -1.0953    0.0000 H   0  0  0  0  0  0  0  0  0  0  0  0
  -14.6835   -1.7694    0.0000 H   0  0  0  0  0  0  0  0  0  0  0  0
  -14.8661   -0.1458    0.0000 H   0  0  0  0  0  0  0  0  0  0  0  0
  -17.3469   -3.7404    0.0000 H   0  0  0  0  0  0  0  0  0  0  0  0
  -17.8663   -2.0332    0.0000 H   0  0  0  0  0  0  0  0  0  0  0  0
  -14.0805   -4.2966    0.0000 H   0  0  0  0  0  0  0  0  0  0  0  0
  -14.3879   -2.5388    0.0000 H   0  0  0  0  0  0  0  0  0  0  0  0
  -17.3091   -5.4111    0.0000 H   0  0  0  0  0  0  0  0  0  0  0  0
  -14.2161   -8.6797    0.0000 H   0  0  0  0  0  0  0  0  0  0  0  0
  -16.7061   -7.9383    0.0000 H   0  0  0  0  0  0  0  0  0  0  0  0
  -12.3290   -6.8939    0.0000 H   0  0  0  0  0  0  0  0  0  0  0  0
  -12.9320   -4.3668    0.0000 H   0  0  0  0  0  0  0  0  0  0  0  0
  -14.1912   -1.3290    0.0000 H   0  0  0  0  0  0  0  0  0  0  0  0
  -14.2415    2.0619    0.0000 H   0  0  0  0  0  0  0  0  0  0  0  0
  -12.0670    3.6560    0.0000 H   0  0  0  0  0  0  0  0  0  0  0  0
  -13.6581    2.8481    0.0000 H   0  0  0  0  0  0  0  0  0  0  0  0
  -10.5293    0.5348    0.0000 H   0  0  0  0  0  0  0  0  0  0  0  0
   -8.4451    3.4033    0.0000 H   0  0  0  0  0  0  0  0  0  0  0  0
   -9.5045    4.6472    0.0000 H   0  0  0  0  0  0  0  0  0  0  0  0
  -11.1822    4.0392    0.0000 H   0  0  0  0  0  0  0  0  0  0  0  0
   -9.0359   -0.0973    0.0000 H   0  0  0  0  0  0  0  0  0  0  0  0
   -8.0323    1.7075    0.0000 H   0  0  0  0  0  0  0  0  0  0  0  0
   -8.8849    2.7086    0.0000 H   0  0  0  0  0  0  0  0  0  0  0  0
  -10.3416    2.6018    0.0000 H   0  0  0  0  0  0  0  0  0  0  0  0
  -10.3097   -0.6304    0.0000 H   0  0  0  0  0  0  0  0  0  0  0  0
   -6.9032   -1.3045    0.0000 H   0  0  0  0  0  0  0  0  0  0  0  0
   -6.9783    0.1707    0.0000 H   0  0  0  0  0  0  0  0  0  0  0  0
   -9.5666   -3.2755    0.0000 H   0  0  0  0  0  0  0  0  0  0  0  0
  -10.0859   -1.5683    0.0000 H   0  0  0  0  0  0  0  0  0  0  0  0
   -6.3002   -3.8316    0.0000 H   0  0  0  0  0  0  0  0  0  0  0  0
   -6.6076   -2.0739    0.0000 H   0  0  0  0  0  0  0  0  0  0  0  0
   -9.5287   -4.9462    0.0000 H   0  0  0  0  0  0  0  0  0  0  0  0
   -6.4357   -8.2147    0.0000 H   0  0  0  0  0  0  0  0  0  0  0  0
   -8.9258   -7.4734    0.0000 H   0  0  0  0  0  0  0  0  0  0  0  0
   -4.5486   -6.4290    0.0000 H   0  0  0  0  0  0  0  0  0  0  0  0
   -5.1516   -3.9019    0.0000 H   0  0  0  0  0  0  0  0  0  0  0  0
   -6.4109   -0.8641    0.0000 H   0  0  0  0  0  0  0  0  0  0  0  0
   -6.4612    2.5268    0.0000 H   0  0  0  0  0  0  0  0  0  0  0  0
   -4.2867    4.1209    0.0000 H   0  0  0  0  0  0  0  0  0  0  0  0
   -5.8777    3.3130    0.0000 H   0  0  0  0  0  0  0  0  0  0  0  0
   -1.7047    1.7988    0.0000 H   0  0  0  0  0  0  0  0  0  0  0  0
   -2.7490    0.9997    0.0000 H   0  0  0  0  0  0  0  0  0  0  0  0
   -1.7242    5.1121    0.0000 H   0  0  0  0  0  0  0  0  0  0  0  0
   -3.4019    4.5042    0.0000 H   0  0  0  0  0  0  0  0  0  0  0  0
    0.2494    2.3113    0.0000 H   0  0  0  0  0  0  0  0  0  0  0  0
    2.6159    5.7397    0.0000 H   0  0  0  0  0  0  0  0  0  0  0  0
    2.1677    3.0911    0.0000 H   0  0  0  0  0  0  0  0  0  0  0  0
    0.5296    7.2881    0.0000 H   0  0  0  0  0  0  0  0  0  0  0  0
   -1.8545    6.2554    0.0000 H   0  0  0  0  0  0  0  0  0  0  0  0
   -2.5612    3.0668    0.0000 H   0  0  0  0  0  0  0  0  0  0  0  0
   -2.5294   -0.1655    0.0000 H   0  0  0  0  0  0  0  0  0  0  0  0
    0.8772   -0.8396    0.0000 H   0  0  0  0  0  0  0  0  0  0  0  0
    0.6946    0.7840    0.0000 H   0  0  0  0  0  0  0  0  0  0  0  0
   -1.7862   -2.8106    0.0000 H   0  0  0  0  0  0  0  0  0  0  0  0
   -2.3056   -1.1034    0.0000 H   0  0  0  0  0  0  0  0  0  0  0  0
    1.4802   -3.3667    0.0000 H   0  0  0  0  0  0  0  0  0  0  0  0
    1.1728   -1.6090    0.0000 H   0  0  0  0  0  0  0  0  0  0  0  0
   -1.7484   -4.4813    0.0000 H   0  0  0  0  0  0  0  0  0  0  0  0
    1.3446   -7.7498    0.0000 H   0  0  0  0  0  0  0  0  0  0  0  0
   -1.1454   -7.0084    0.0000 H   0  0  0  0  0  0  0  0  0  0  0  0
    3.2317   -5.9641    0.0000 H   0  0  0  0  0  0  0  0  0  0  0  0
    2.6287   -3.4369    0.0000 H   0  0  0  0  0  0  0  0  0  0  0  0
    1.3695   -0.3992    0.0000 H   0  0  0  0  0  0  0  0  0  0  0  0
    1.3192    2.9917    0.0000 H   0  0  0  0  0  0  0  0  0  0  0  0
    3.6721    4.5444    0.0000 H   0  0  0  0  0  0  0  0  0  0  0  0
    1.7801    3.4334    0.0000 H   0  0  0  0  0  0  0  0  0  0  0  0
    4.1716    0.6060    0.0000 H   0  0  0  0  0  0  0  0  0  0  0  0
    7.7321    0.1953    0.0000 H   0  0  0  0  0  0  0  0  0  0  0  0
    9.2046    2.4192    0.0000 H   0  0  0  0  0  0  0  0  0  0  0  0
    8.2771    4.9199    0.0000 H   0  0  0  0  0  0  0  0  0  0  0  0
    4.5782    5.2107    0.0000 H   0  0  0  0  0  0  0  0  0  0  0  0
    5.0373    3.5543    0.0000 H   0  0  0  0  0  0  0  0  0  0  0  0
    5.1742   -0.1833    0.0000 H   0  0  0  0  0  0  0  0  0  0  0  0
    5.8367   -1.3115    0.0000 H   0  0  0  0  0  0  0  0  0  0  0  0
    6.0705   -1.8909    0.0000 H   0  0  0  0  0  0  0  0  0  0  0  0
    6.8641   -2.7108    0.0000 H   0  0  0  0  0  0  0  0  0  0  0  0
    7.3244   -3.1091    0.0000 H   0  0  0  0  0  0  0  0  0  0  0  0
    8.6132   -3.8175    0.0000 H   0  0  0  0  0  0  0  0  0  0  0  0
    9.5797   -4.3689    0.0000 H   0  0  0  0  0  0  0  0  0  0  0  0
    4.9942   -1.0553    0.0000 H   0  0  0  0  0  0  0  0  0  0  0  0
    3.8655   -0.3807    0.0000 H   0  0  0  0  0  0  0  0  0  0  0  0
    4.0959    1.5339    0.0000 H   0  0  0  0  0  0  0  0  0  0  0  0
    5.6157    5.1599    0.0000 H   0  0  0  0  0  0  0  0  0  0  0  0
    6.2446    5.6422    0.0000 H   0  0  0  0  0  0  0  0  0  0  0  0
    7.8151    8.4199    0.0000 H   0  0  0  0  0  0  0  0  0  0  0  0
    8.8685    7.3844    0.0000 H   0  0  0  0  0  0  0  0  0  0  0  0
    5.4379    6.0442    0.0000 H   0  0  0  0  0  0  0  0  0  0  0  0
    4.3291    9.5363    0.0000 H   0  0  0  0  0  0  0  0  0  0  0  0
    5.8974   10.3875    0.0000 H   0  0  0  0  0  0  0  0  0  0  0  0
    7.1700    9.1366    0.0000 H   0  0  0  0  0  0  0  0  0  0  0  0
    3.5571    8.5486    0.0000 H   0  0  0  0  0  0  0  0  0  0  0  0
    3.1101    6.8211    0.0000 H   0  0  0  0  0  0  0  0  0  0  0  0
    4.6314    5.8884    0.0000 H   0  0  0  0  0  0  0  0  0  0  0  0
   10.0896    8.3576    0.0000 H   0  0  0  0  0  0  0  0  0  0  0  0
   11.1996    8.2802    0.0000 H   0  0  0  0  0  0  0  0  0  0  0  0
   14.1082    8.8564    0.0000 H   0  0  0  0  0  0  0  0  0  0  0  0
   14.0387    7.2240    0.0000 H   0  0  0  0  0  0  0  0  0  0  0  0
   13.2426   10.6565    0.0000 H   0  0  0  0  0  0  0  0  0  0  0  0
   15.5610    6.8760    0.0000 H   0  0  0  0  0  0  0  0  0  0  0  0
   16.0222    6.0275    0.0000 H   0  0  0  0  0  0  0  0  0  0  0  0
   18.3808    3.8783    0.0000 H   0  0  0  0  0  0  0  0  0  0  0  0
   17.1369    3.0817    0.0000 H   0  0  0  0  0  0  0  0  0  0  0  0
   18.1071    7.3401    0.0000 H   0  0  0  0  0  0  0  0  0  0  0  0
   16.4983    6.5682    0.0000 H   0  0  0  0  0  0  0  0  0  0  0  0
   20.7258    5.3101    0.0000 H   0  0  0  0  0  0  0  0  0  0  0  0
   19.2231    4.3478    0.0000 H   0  0  0  0  0  0  0  0  0  0  0  0
   19.3634    8.4421    0.0000 H   0  0  0  0  0  0  0  0  0  0  0  0
   23.8629    8.3741    0.0000 H   0  0  0  0  0  0  0  0  0  0  0  0
   21.6328    9.7070    0.0000 H   0  0  0  0  0  0  0  0  0  0  0  0
   23.8236    5.7763    0.0000 H   0  0  0  0  0  0  0  0  0  0  0  0
   21.5543    4.5115    0.0000 H   0  0  0  0  0  0  0  0  0  0  0  0
   17.8139    1.6746    0.0000 H   0  0  0  0  0  0  0  0  0  0  0  0
   15.8548   -2.4671    0.0000 H   0  0  0  0  0  0  0  0  0  0  0  0
   16.7567   -1.5194    0.0000 H   0  0  0  0  0  0  0  0  0  0  0  0
   14.5358   -3.5958    0.0000 H   0  0  0  0  0  0  0  0  0  0  0  0
   15.4952   -2.9781    0.0000 H   0  0  0  0  0  0  0  0  0  0  0  0
   12.5806   -4.2751    0.0000 H   0  0  0  0  0  0  0  0  0  0  0  0
   13.9969   -3.8788    0.0000 H   0  0  0  0  0  0  0  0  0  0  0  0
   11.5140   -4.5920    0.0000 H   0  0  0  0  0  0  0  0  0  0  0  0
   18.7554   -0.1979    0.0000 H   0  0  0  0  0  0  0  0  0  0  0  0
   18.6334    1.5823    0.0000 H   0  0  0  0  0  0  0  0  0  0  0  0
   17.2460    2.0895    0.0000 H   0  0  0  0  0  0  0  0  0  0  0  0
   19.1702    0.5841    0.0000 H   0  0  0  0  0  0  0  0  0  0  0  0
   18.0256   -2.6082    0.0000 H   0  0  0  0  0  0  0  0  0  0  0  0
   20.5757   -4.6295    0.0000 H   0  0  0  0  0  0  0  0  0  0  0  0
   21.2671   -2.9844    0.0000 H   0  0  0  0  0  0  0  0  0  0  0  0
   20.4719   -6.5352    0.0000 H   0  0  0  0  0  0  0  0  0  0  0  0
   17.6374   -8.1523    0.0000 H   0  0  0  0  0  0  0  0  0  0  0  0
   15.2235   -5.9563    0.0000 H   0  0  0  0  0  0  0  0  0  0  0  0
   21.3618   -4.3433    0.0000 H   0  0  0  0  0  0  0  0  0  0  0  0
   22.7878   -1.2663    0.0000 H   0  0  0  0  0  0  0  0  0  0  0  0
   25.5814   -0.8884    0.0000 H   0  0  0  0  0  0  0  0  0  0  0  0
   23.6546   -0.8112    0.0000 H   0  0  0  0  0  0  0  0  0  0  0  0
   27.6039   -0.7910    0.0000 H   0  0  0  0  0  0  0  0  0  0  0  0
   29.6887   -3.3016    0.0000 H   0  0  0  0  0  0  0  0  0  0  0  0
   28.1109   -5.9822    0.0000 H   0  0  0  0  0  0  0  0  0  0  0  0
   26.5358   -2.4720    0.0000 H   0  0  0  0  0  0  0  0  0  0  0  0
   25.2372   -5.5651    0.0000 H   0  0  0  0  0  0  0  0  0  0  0  0
   27.7873   -7.5864    0.0000 H   0  0  0  0  0  0  0  0  0  0  0  0
   28.5111   -6.1216    0.0000 H   0  0  0  0  0  0  0  0  0  0  0  0
   26.4681   -8.8351    0.0000 H   0  0  0  0  0  0  0  0  0  0  0  0
   28.5734   -7.3002    0.0000 H   0  0  0  0  0  0  0  0  0  0  0  0
   29.9993   -4.2232    0.0000 H   0  0  0  0  0  0  0  0  0  0  0  0
   30.8661   -3.7680    0.0000 H   0  0  0  0  0  0  0  0  0  0  0  0
   34.2866   -3.9836    0.0000 H   0  0  0  0  0  0  0  0  0  0  0  0
   34.4546   -5.2259    0.0000 H   0  0  0  0  0  0  0  0  0  0  0  0
   33.9689   -6.9430    0.0000 H   0  0  0  0  0  0  0  0  0  0  0  0
   32.5069   -7.1538    0.0000 H   0  0  0  0  0  0  0  0  0  0  0  0
  1  2  1  0
  2  3  1  0
  3  4  2  0
  4  5  1  0
  5  6  2  0
  6  7  1  0
  7  8  2  0
  7  9  1  0
  9 10  1  0
 10 11  1  0
 11 12  2  0
  9 13  1  0
 13 14  1  0
 14 15  2  0
 15 16  1  0
 16 17  2  0
 17 18  1  0
 16 19  1  0
 14 20  1  0
 20 21  1  0
 21 22  2  0
 22 23  1  0
 23 24  2  0
 24 25  1  0
 25 26  2  0
 25 27  1  0
  1 28  2  0
  1 29  1  0
 29 30  1  0
 30 31  1  0
 31 32  1  0
 32 33  2  0
 32 34  1  0
 34 35  1  0
 35 36  1  0
 36 37  1  0
 37 38  1  0
 38 39  2  0
 38 40  1  0
 35 41  1  0
 41 42  2  0
 41 43  1  0
 43 44  1  0
 44 45  1  0
 45 46  1  0
 46 47  1  0
 47 48  1  0
 48 49  1  0
 49 50  2  3
 49 51  1  0
 44 52  1  0
 52 53  2  0
 52 54  1  0
 54 55  1  0
 55 56  1  0
 56 57  1  0
 57 58  1  0
 57 59  1  0
 55 60  1  0
 60 61  2  0
 60 62  1  0
 62 63  1  0
 63 64  1  0
 64 65  1  0
 65 66  1  0
 66 67  1  0
 67 68  1  0
 68 69  2  3
 68 70  1  0
 63 71  1  0
 71 72  2  0
 71 73  1  0
 73 74  1  0
 74 75  1  0
 75 76  1  0
 76 77  1  0
 77 78  1  0
 78 79  1  0
 79 80  2  3
 79 81  1  0
 74 82  1  0
 82 83  2  0
 82 84  1  0
 84 85  1  0
 85 86  1  0
 86 87  1  0
 87 88  1  0
 88 89  1  0
 89 90  1  0
 90 91  2  3
 90 92  1  0
 85 93  1  0
 93 94  2  0
 93 95  1  0
 95 96  1  0
 96 97  1  0
 97 98  1  0
 98 99  2  0
 99100  1  0
100101  2  0
101102  1  0
102103  2  0
 96104  1  0
104105  2  0
104106  1  0
107106  1  6
107108  1  0
108109  1  0
109110  1  0
110111  1  0
107112  1  0
107113  1  0
113114  2  0
113115  1  0
115116  1  0
116117  1  0
117118  1  0
118119  1  0
118120  1  0
116121  1  0
121122  2  0
121123  1  0
123124  1  0
124125  1  0
125126  1  0
124127  1  0
127128  2  0
127129  1  0
129130  1  0
130131  1  0
131132  1  0
132133  1  0
133134  1  0
134135  1  0
135136  2  3
135137  1  0
130138  1  0
138139  2  0
138140  1  0
140141  1  0
141142  1  0
142143  1  0
143144  1  0
144145  1  0
141146  1  0
141147  1  6
147148  2  0
147149  1  0
149150  1  0
150151  1  0
151152  1  0
152153  2  0
153154  1  0
154155  1  0
155156  2  0
150157  1  0
157158  2  0
157159  1  0
159160  1  0
160161  1  0
161162  1  0
162163  2  0
163164  1  0
164165  1  0
165166  2  0
160167  1  0
167168  2  0
167169  1  0
169170  1  0
170171  1  0
171172  1  0
170173  1  0
173174  2  0
173175  1  0
175176  1  0
176177  1  0
177178  1  0
177179  1  0
176180  1  0
180181  2  0
180182  1  0
  8  3  1  0
103 98  1  0
156152  1  0
166162  1  0
 11  6  1  0
111145  2  0
 18 13  2  0
 22  9  1  0
 26 21  1  0
  2183  1  0
  4184  1  0
  5185  1  0
  8186  1  0
 15187  1  0
 17188  1  0
 18189  1  0
 19190  1  0
 23191  1  0
 24192  1  0
 26193  1  0
 27194  1  0
 29195  1  0
 30196  1  0
 30197  1  0
 31198  1  0
 31199  1  0
 34200  1  0
 35201  1  1
 36202  1  0
 36203  1  0
 37204  1  0
 37205  1  0
 43206  1  0
 44207  1  6
 45208  1  0
 45209  1  0
 46210  1  0
 46211  1  0
 47212  1  0
 47213  1  0
 48214  1  0
 50215  1  0
 50216  1  0
 51217  1  0
 51218  1  0
 54219  1  0
 55220  1  1
 56221  1  0
 56222  1  0
 57223  1  0
 58224  1  0
 58225  1  0
 58226  1  0
 59227  1  0
 59228  1  0
 59229  1  0
 62230  1  0
 63231  1  6
 64232  1  0
 64233  1  0
 65234  1  0
 65235  1  0
 66236  1  0
 66237  1  0
 67238  1  0
 69239  1  0
 69240  1  0
 70241  1  0
 70242  1  0
 73243  1  0
 74244  1  1
 75245  1  0
 75246  1  0
 76247  1  0
 76248  1  0
 77249  1  0
 77250  1  0
 78251  1  0
 80252  1  0
 80253  1  0
 81254  1  0
 81255  1  0
 84256  1  0
 85257  1  6
 86258  1  0
 86259  1  0
 87260  1  0
 87261  1  0
 88262  1  0
 88263  1  0
 89264  1  0
 91265  1  0
 91266  1  0
 92267  1  0
 92268  1  0
 95269  1  0
 96270  1  1
 97271  1  0
 97272  1  0
 99273  1  0
100274  1  0
101275  1  0
102276  1  0
103277  1  0
106278  1  0
108279  1  0
108280  1  0
109281  1  0
109282  1  0
110283  1  0
110284  1  0
111285  1  0
112286  1  0
112287  1  0
112288  1  0
115289  1  0
116290  1  1
117291  1  0
117292  1  0
118293  1  0
119294  1  0
119295  1  0
119296  1  0
120297  1  0
120298  1  0
120299  1  0
123300  1  0
124301  1  1
125302  1  0
125303  1  0
126304  1  0
129305  1  0
130306  1  1
131307  1  0
131308  1  0
132309  1  0
132310  1  0
133311  1  0
133312  1  0
134313  1  0
136314  1  0
136315  1  0
137316  1  0
137317  1  0
140318  1  0
142319  1  0
142320  1  0
143321  1  0
143322  1  0
144323  1  0
144324  1  0
145325  1  0
146326  1  0
146327  1  0
146328  1  0
149329  1  0
150330  1  6
151331  1  0
151332  1  0
153333  1  0
154334  1  0
155335  1  0
159336  1  0
160337  1  1
161338  1  0
161339  1  0
163340  1  0
164341  1  0
165342  1  0
169343  1  0
170344  1  6
171345  1  0
171346  1  0
172347  1  0
175348  1  0
176349  1  1
177350  1  1
178351  1  0
179352  1  0
179353  1  0
179354  1  0
M  CHG  7  40  -1  50   1  69   1  80   1  91   1 136   1 182  -1
M  END
