
     RDKit          2D

355361  0  0  0  0  0  0  0  0999 V2000
  -22.0124    5.0190    0.0000 C   0  0  0  0  0  0  0  0  0  0  0  0
  -23.2050    5.9288    0.0000 N   0  0  0  0  0  0  0  0  0  0  0  0
  -23.0133    7.4165    0.0000 C   0  0  0  0  0  0  0  0  0  0  0  0
  -21.6291    7.9944    0.0000 C   0  0  0  0  0  0  0  0  0  0  0  0
  -21.4375    9.4821    0.0000 C   0  0  0  0  0  0  0  0  0  0  0  0
  -22.6301   10.3919    0.0000 C   0  0  0  0  0  0  0  0  0  0  0  0
  -24.0143    9.8140    0.0000 C   0  0  0  0  0  0  0  0  0  0  0  0
  -24.2059    8.3263    0.0000 C   0  0  0  0  0  0  0  0  0  0  0  0
  -24.9917   10.9519    0.0000 C   0  0  0  0  0  0  0  0  0  0  0  0
  -24.2115   12.2330    0.0000 O   0  0  0  0  0  0  0  0  0  0  0  0
  -22.7520   11.8869    0.0000 C   0  0  0  0  0  0  0  0  0  0  0  0
  -21.6141   12.8643    0.0000 O   0  0  0  0  0  0  0  0  0  0  0  0
  -25.8447   12.1857    0.0000 C   0  0  0  0  0  0  0  0  0  0  0  0
  -27.3398   12.0638    0.0000 C   0  0  0  0  0  0  0  0  0  0  0  0
  -28.1928   13.2976    0.0000 C   0  0  0  0  0  0  0  0  0  0  0  0
  -27.5509   14.6533    0.0000 C   0  0  0  0  0  0  0  0  0  0  0  0
  -26.0558   14.7752    0.0000 C   0  0  0  0  0  0  0  0  0  0  0  0
  -25.2028   13.5414    0.0000 C   0  0  0  0  0  0  0  0  0  0  0  0
  -28.4039   15.8871    0.0000 O   0  0  0  0  0  0  0  0  0  0  0  0
  -27.9817   10.7081    0.0000 O   0  0  0  0  0  0  0  0  0  0  0  0
  -27.1287    9.4743    0.0000 C   0  0  0  0  0  0  0  0  0  0  0  0
  -25.6336    9.5962    0.0000 C   0  0  0  0  0  0  0  0  0  0  0  0
  -25.4783    8.3055    0.0000 C   0  0  0  0  0  0  0  0  0  0  0  0
  -25.8206    7.5825    0.0000 C   0  0  0  0  0  0  0  0  0  0  0  0
  -26.6180    7.5175    0.0000 C   0  0  0  0  0  0  0  0  0  0  0  0
  -27.0730    8.1755    0.0000 C   0  0  0  0  0  0  0  0  0  0  0  0
  -27.5596    5.5292    0.0000 O   0  0  0  0  0  0  0  0  0  0  0  0
  -20.6282    5.5969    0.0000 S   0  0  0  0  0  0  0  0  0  0  0  0
  -22.2040    3.5313    0.0000 N   0  0  0  0  0  0  0  0  0  0  0  0
  -21.0114    2.6215    0.0000 C   0  0  0  0  0  0  0  0  0  0  0  0
  -21.2031    1.1337    0.0000 C   0  0  0  0  0  0  0  0  0  0  0  0
  -20.0105    0.2239    0.0000 C   0  0  0  0  0  0  0  0  0  0  0  0
  -19.3710    0.6999    0.0000 O   0  0  0  0  0  0  0  0  0  0  0  0
  -20.2021   -1.2638    0.0000 N   0  0  0  0  0  0  0  0  0  0  0  0
  -19.0095   -2.1736    0.0000 C   0  0  0  0  0  0  0  0  0  0  0  0
  -18.3206   -0.8411    0.0000 C   0  0  0  0  0  0  0  0  0  0  0  0
  -19.1301    0.4217    0.0000 C   0  0  0  0  0  0  0  0  0  0  0  0
  -18.4412    1.7541    0.0000 C   0  0  0  0  0  0  0  0  0  0  0  0
  -19.2507    3.0170    0.0000 N   0  0  0  0  0  0  0  0  0  0  0  0
  -18.5618    4.3494    0.0000 C   0  0  0  0  0  0  0  0  0  0  0  0
  -19.3713    5.6122    0.0000 N   0  0  0  0  0  0  0  0  0  0  0  0
  -17.0634    4.4190    0.0000 N   0  0  0  0  0  0  0  0  0  0  0  0
  -18.2000   -3.4364    0.0000 C   0  0  0  0  0  0  0  0  0  0  0  0
  -16.7016   -3.3668    0.0000 O   0  0  0  0  0  0  0  0  0  0  0  0
  -18.8889   -4.7689    0.0000 N   0  0  0  0  0  0  0  0  0  0  0  0
  -18.0794   -6.0317    0.0000 C   0  0  0  0  0  0  0  0  0  0  0  0
  -19.4636   -6.6096    0.0000 C   0  0  0  0  0  0  0  0  0  0  0  0
  -20.6562   -5.6998    0.0000 C   0  0  0  0  0  0  0  0  0  0  0  0
  -22.0404   -6.2777    0.0000 C   0  0  0  0  0  0  0  0  0  0  0  0
  -23.2330   -5.3679    0.0000 N   0  0  0  0  0  0  0  0  0  0  0  0
  -24.6172   -5.9458    0.0000 C   0  0  0  0  0  0  0  0  0  0  0  0
  -25.8098   -5.0360    0.0000 N   0  0  0  0  0  0  0  0  0  0  0  0
  -24.8088   -7.4335    0.0000 N   0  0  0  0  0  0  0  0  0  0  0  0
  -16.8869   -6.9415    0.0000 C   0  0  0  0  0  0  0  0  0  0  0  0
  -17.0785   -8.4292    0.0000 O   0  0  0  0  0  0  0  0  0  0  0  0
  -15.5026   -6.3636    0.0000 N   0  0  0  0  0  0  0  0  0  0  0  0
  -14.3101   -7.2734    0.0000 C   0  0  0  0  0  0  0  0  0  0  0  0
  -12.9259   -6.6955    0.0000 C   0  0  0  0  0  0  0  0  0  0  0  0
  -12.9170   -5.1955    0.0000 O   0  0  0  0  0  0  0  0  0  0  0  0
  -11.7333   -7.6053    0.0000 N   0  0  0  0  0  0  0  0  0  0  0  0
  -10.3491   -7.0274    0.0000 C   0  0  0  0  0  0  0  0  0  0  0  0
  -11.1586   -5.7646    0.0000 C   0  0  0  0  0  0  0  0  0  0  0  0
  -12.6543   -5.6510    0.0000 O   0  0  0  0  0  0  0  0  0  0  0  0
   -8.8507   -6.9578    0.0000 C   0  0  0  0  0  0  0  0  0  0  0  0
   -8.5047   -5.4982    0.0000 O   0  0  0  0  0  0  0  0  0  0  0  0
   -8.0412   -8.2206    0.0000 N   0  0  0  0  0  0  0  0  0  0  0  0
   -6.5428   -8.1510    0.0000 C   0  0  0  0  0  0  0  0  0  0  0  0
   -6.8716   -6.6874    0.0000 C   0  0  0  0  0  0  0  0  0  0  0  0
   -8.3034   -6.2404    0.0000 C   0  0  0  0  0  0  0  0  0  0  0  0
   -8.6322   -4.7769    0.0000 C   0  0  0  0  0  0  0  0  0  0  0  0
  -10.0640   -4.3298    0.0000 N   0  0  0  0  0  0  0  0  0  0  0  0
  -10.3928   -2.8663    0.0000 C   0  0  0  0  0  0  0  0  0  0  0  0
  -11.8246   -2.4192    0.0000 N   0  0  0  0  0  0  0  0  0  0  0  0
   -9.2897   -1.8498    0.0000 N   0  0  0  0  0  0  0  0  0  0  0  0
   -5.1110   -8.5980    0.0000 C   0  0  0  0  0  0  0  0  0  0  0  0
   -4.0079   -7.5815    0.0000 O   0  0  0  0  0  0  0  0  0  0  0  0
   -4.7822  -10.0615    0.0000 N   0  0  0  0  0  0  0  0  0  0  0  0
   -5.7730  -11.1878    0.0000 C   0  0  0  0  0  0  0  0  0  0  0  0
   -5.0081  -12.4781    0.0000 C   0  0  0  0  0  0  0  0  0  0  0  0
   -3.5445  -12.1493    0.0000 C   0  0  0  0  0  0  0  0  0  0  0  0
   -3.4050  -10.6558    0.0000 C   0  0  0  0  0  0  0  0  0  0  0  0
   -1.9342  -10.9507    0.0000 C   0  0  0  0  0  0  0  0  0  0  0  0
   -0.9435   -9.8245    0.0000 O   0  0  0  0  0  0  0  0  0  0  0  0
   -1.4543  -12.3719    0.0000 N   0  0  0  0  0  0  0  0  0  0  0  0
    0.0164  -12.6668    0.0000 C   0  0  0  0  0  0  0  0  0  0  0  0
   -0.5294  -14.0640    0.0000 C   0  0  0  0  0  0  0  0  0  0  0  0
   -1.9737  -14.4689    0.0000 O   0  0  0  0  0  0  0  0  0  0  0  0
    1.4993  -12.4410    0.0000 C   0  0  0  0  0  0  0  0  0  0  0  0
    2.4364  -13.6123    0.0000 O   0  0  0  0  0  0  0  0  0  0  0  0
    2.0452  -11.0438    0.0000 N   0  0  0  0  0  0  0  0  0  0  0  0
    3.5281  -10.8179    0.0000 C   0  0  0  0  0  0  0  0  0  0  0  0
    4.0739   -9.4208    0.0000 C   0  0  0  0  0  0  0  0  0  0  0  0
    3.0010   -8.3724    0.0000 O   0  0  0  0  0  0  0  0  0  0  0  0
    5.5568   -9.1949    0.0000 N   0  0  0  0  0  0  0  0  0  0  0  0
    6.1026   -7.7977    0.0000 C   0  0  0  0  0  0  0  0  0  0  0  0
    4.6319   -7.5028    0.0000 C   0  0  0  0  0  0  0  0  0  0  0  0
    7.0934   -6.6715    0.0000 C   0  0  0  0  0  0  0  0  0  0  0  0
    6.2839   -5.4088    0.0000 O   0  0  0  0  0  0  0  0  0  0  0  0
    8.5641   -6.9665    0.0000 N   0  0  0  0  0  0  0  0  0  0  0  0
    9.5549   -5.8403    0.0000 C   0  0  0  0  0  0  0  0  0  0  0  0
    8.1059   -5.4526    0.0000 C   0  0  0  0  0  0  0  0  0  0  0  0
    6.7564   -4.7978    0.0000 C   0  0  0  0  0  0  0  0  0  0  0  0
    5.5552   -3.8994    0.0000 C   0  0  0  0  0  0  0  0  0  0  0  0
    4.5457   -2.7899    0.0000 C   0  0  0  0  0  0  0  0  0  0  0  0
    3.7645   -1.5094    0.0000 C   0  0  0  0  0  0  0  0  0  0  0  0
    3.2397   -0.1042    0.0000 C   0  0  0  0  0  0  0  0  0  0  0  0
    2.9903    1.3749    0.0000 C   0  0  0  0  0  0  0  0  0  0  0  0
   10.1240   -7.2281    0.0000 C   0  0  0  0  0  0  0  0  0  0  0  0
   11.0511   -5.9466    0.0000 C   0  0  0  0  0  0  0  0  0  0  0  0
   11.2700   -7.4306    0.0000 O   0  0  0  0  0  0  0  0  0  0  0  0
   12.5405   -5.7679    0.0000 N   0  0  0  0  0  0  0  0  0  0  0  0
   13.9690   -5.3106    0.0000 C   0  0  0  0  0  0  0  0  0  0  0  0
   15.1981   -6.1705    0.0000 C   0  0  0  0  0  0  0  0  0  0  0  0
   15.0680   -7.6648    0.0000 C   0  0  0  0  0  0  0  0  0  0  0  0
   16.2971   -8.5246    0.0000 C   0  0  0  0  0  0  0  0  0  0  0  0
   16.1670  -10.0190    0.0000 N   0  0  0  0  0  0  0  0  0  0  0  0
   17.3961  -10.8788    0.0000 C   0  0  0  0  0  0  0  0  0  0  0  0
   17.2660  -12.3732    0.0000 N   0  0  0  0  0  0  0  0  0  0  0  0
   18.7553  -10.2443    0.0000 N   0  0  0  0  0  0  0  0  0  0  0  0
   15.2853   -4.5912    0.0000 C   0  0  0  0  0  0  0  0  0  0  0  0
   16.2716   -5.7212    0.0000 O   0  0  0  0  0  0  0  0  0  0  0  0
   16.4415   -3.6357    0.0000 N   0  0  0  0  0  0  0  0  0  0  0  0
   17.3961   -2.4786    0.0000 C   0  0  0  0  0  0  0  0  0  0  0  0
   18.8949   -2.5374    0.0000 C   0  0  0  0  0  0  0  0  0  0  0  0
   19.5934   -3.8649    0.0000 C   0  0  0  0  0  0  0  0  0  0  0  0
   21.0922   -3.9238    0.0000 C   0  0  0  0  0  0  0  0  0  0  0  0
   21.7907   -5.2512    0.0000 N   0  0  0  0  0  0  0  0  0  0  0  0
   23.2895   -5.3101    0.0000 C   0  0  0  0  0  0  0  0  0  0  0  0
   23.9880   -6.6375    0.0000 N   0  0  0  0  0  0  0  0  0  0  0  0
   24.0899   -4.0415    0.0000 N   0  0  0  0  0  0  0  0  0  0  0  0
   18.1144   -1.1618    0.0000 C   0  0  0  0  0  0  0  0  0  0  0  0
   19.5552   -1.5791    0.0000 O   0  0  0  0  0  0  0  0  0  0  0  0
   18.5705    0.2672    0.0000 N   0  0  0  0  0  0  0  0  0  0  0  0
   18.7480    1.7567    0.0000 C   0  0  0  0  0  0  0  0  0  0  0  0
   20.0407    2.5175    0.0000 C   0  0  0  0  0  0  0  0  0  0  0  0
   21.3460    1.7784    0.0000 C   0  0  0  0  0  0  0  0  0  0  0  0
   22.6387    2.5392    0.0000 C   0  0  0  0  0  0  0  0  0  0  0  0
   23.9440    1.8001    0.0000 N   0  0  0  0  0  0  0  0  0  0  0  0
   25.2367    2.5609    0.0000 C   0  0  0  0  0  0  0  0  0  0  0  0
   26.5419    1.8218    0.0000 N   0  0  0  0  0  0  0  0  0  0  0  0
   25.2242    4.0609    0.0000 N   0  0  0  0  0  0  0  0  0  0  0  0
   18.6403    3.2528    0.0000 C   0  0  0  0  0  0  0  0  0  0  0  0
   20.0780    3.6806    0.0000 O   0  0  0  0  0  0  0  0  0  0  0  0
   18.2515    4.7015    0.0000 N   0  0  0  0  0  0  0  0  0  0  0  0
   17.5955    6.0505    0.0000 C   0  0  0  0  0  0  0  0  0  0  0  0
   18.2717    7.3894    0.0000 C   0  0  0  0  0  0  0  0  0  0  0  0
   19.7694    7.4733    0.0000 C   0  0  0  0  0  0  0  0  0  0  0  0
   20.4455    8.8123    0.0000 C   0  0  0  0  0  0  0  0  0  0  0  0
   21.9432    8.8962    0.0000 N   0  0  0  0  0  0  0  0  0  0  0  0
   22.6194   10.2351    0.0000 C   0  0  0  0  0  0  0  0  0  0  0  0
   24.1170   10.3190    0.0000 N   0  0  0  0  0  0  0  0  0  0  0  0
   21.7979   11.4902    0.0000 N   0  0  0  0  0  0  0  0  0  0  0  0
   16.6961    7.2509    0.0000 C   0  0  0  0  0  0  0  0  0  0  0  0
   17.6743    8.3881    0.0000 O   0  0  0  0  0  0  0  0  0  0  0  0
   15.5858    8.2595    0.0000 N   0  0  0  0  0  0  0  0  0  0  0  0
   14.3046    9.0396    0.0000 C   0  0  0  0  0  0  0  0  0  0  0  0
   14.1495   10.5316    0.0000 C   0  0  0  0  0  0  0  0  0  0  0  0
   15.3641   11.4118    0.0000 C   0  0  0  0  0  0  0  0  0  0  0  0
   15.2091   12.9038    0.0000 C   0  0  0  0  0  0  0  0  0  0  0  0
   16.4236   13.7841    0.0000 N   0  0  0  0  0  0  0  0  0  0  0  0
   16.2686   15.2760    0.0000 C   0  0  0  0  0  0  0  0  0  0  0  0
   17.4831   16.1563    0.0000 N   0  0  0  0  0  0  0  0  0  0  0  0
   14.8989   15.8877    0.0000 N   0  0  0  0  0  0  0  0  0  0  0  0
   12.8990    9.5632    0.0000 C   0  0  0  0  0  0  0  0  0  0  0  0
   13.1071   11.0487    0.0000 O   0  0  0  0  0  0  0  0  0  0  0  0
   11.4196    9.8113    0.0000 N   0  0  0  0  0  0  0  0  0  0  0  0
    9.9201    9.7750    0.0000 C   0  0  0  0  0  0  0  0  0  0  0  0
    8.9830   10.9463    0.0000 C   0  0  0  0  0  0  0  0  0  0  0  0
    8.4545    9.4556    0.0000 C   0  0  0  0  0  0  0  0  0  0  0  0
    7.8264   10.8177    0.0000 O   0  0  0  0  0  0  0  0  0  0  0  0
    7.0758    8.8645    0.0000 N   0  0  0  0  0  0  0  0  0  0  0  0
    5.8340    8.0232    0.0000 C   0  0  0  0  0  0  0  0  0  0  0  0
    4.7737    6.9621    0.0000 C   0  0  0  0  0  0  0  0  0  0  0  0
    3.9335    5.7195    0.0000 C   0  0  0  0  0  0  0  0  0  0  0  0
    3.3436    4.3404    0.0000 C   0  0  0  0  0  0  0  0  0  0  0  0
    3.0254    2.8745    0.0000 C   0  0  0  0  0  0  0  0  0  0  0  0
    5.6317    9.5095    0.0000 C   0  0  0  0  0  0  0  0  0  0  0  0
    4.4124    8.5020    0.0000 C   0  0  0  0  0  0  0  0  0  0  0  0
    3.9392    9.9254    0.0000 O   0  0  0  0  0  0  0  0  0  0  0  0
    3.0805    7.8120    0.0000 O   0  0  0  0  0  0  0  0  0  0  0  0
  -24.5084    5.1865    0.0000 H   0  0  0  0  0  0  0  0  0  0  0  0
  -20.4366    7.0846    0.0000 H   0  0  0  0  0  0  0  0  0  0  0  0
  -20.0533   10.0600    0.0000 H   0  0  0  0  0  0  0  0  0  0  0  0
  -25.4092    7.4306    0.0000 H   0  0  0  0  0  0  0  0  0  0  0  0
  -29.6879   13.1757    0.0000 H   0  0  0  0  0  0  0  0  0  0  0  0
  -25.4139   16.1309    0.0000 H   0  0  0  0  0  0  0  0  0  0  0  0
  -23.7077   13.6632    0.0000 H   0  0  0  0  0  0  0  0  0  0  0  0
  -27.7620   17.2428    0.0000 H   0  0  0  0  0  0  0  0  0  0  0  0
  -23.2855    8.4843    0.0000 H   0  0  0  0  0  0  0  0  0  0  0  0
  -24.7262    5.6781    0.0000 H   0  0  0  0  0  0  0  0  0  0  0  0
  -29.2657    7.9968    0.0000 H   0  0  0  0  0  0  0  0  0  0  0  0
  -29.0546    5.4073    0.0000 H   0  0  0  0  0  0  0  0  0  0  0  0
  -23.5882    2.9534    0.0000 H   0  0  0  0  0  0  0  0  0  0  0  0
  -20.3225    3.9539    0.0000 H   0  0  0  0  0  0  0  0  0  0  0  0
  -19.5140    2.5342    0.0000 H   0  0  0  0  0  0  0  0  0  0  0  0
  -22.6349    1.5808    0.0000 H   0  0  0  0  0  0  0  0  0  0  0  0
  -21.8919   -0.1987    0.0000 H   0  0  0  0  0  0  0  0  0  0  0  0
  -21.5863   -1.8417    0.0000 H   0  0  0  0  0  0  0  0  0  0  0  0
  -20.1126   -3.1901    0.0000 H   0  0  0  0  0  0  0  0  0  0  0  0
  -17.1019    0.0333    0.0000 H   0  0  0  0  0  0  0  0  0  0  0  0
  -17.1280   -1.7509    0.0000 H   0  0  0  0  0  0  0  0  0  0  0  0
  -20.3227    1.3315    0.0000 H   0  0  0  0  0  0  0  0  0  0  0  0
  -20.4464   -0.2977    0.0000 H   0  0  0  0  0  0  0  0  0  0  0  0
  -17.3381    2.7706    0.0000 H   0  0  0  0  0  0  0  0  0  0  0  0
  -17.1466    0.9965    0.0000 H   0  0  0  0  0  0  0  0  0  0  0  0
  -20.7214    3.3120    0.0000 H   0  0  0  0  0  0  0  0  0  0  0  0
  -18.6824    6.9447    0.0000 H   0  0  0  0  0  0  0  0  0  0  0  0
  -16.3745    5.7515    0.0000 H   0  0  0  0  0  0  0  0  0  0  0  0
  -16.2539    3.1562    0.0000 H   0  0  0  0  0  0  0  0  0  0  0  0
  -20.3846   -4.6553    0.0000 H   0  0  0  0  0  0  0  0  0  0  0  0
  -16.9764   -5.0152    0.0000 H   0  0  0  0  0  0  0  0  0  0  0  0
  -20.4346   -7.7529    0.0000 H   0  0  0  0  0  0  0  0  0  0  0  0
  -18.6542   -7.8724    0.0000 H   0  0  0  0  0  0  0  0  0  0  0  0
  -21.4657   -4.4370    0.0000 H   0  0  0  0  0  0  0  0  0  0  0  0
  -19.9908   -4.3555    0.0000 H   0  0  0  0  0  0  0  0  0  0  0  0
  -23.1435   -7.2942    0.0000 H   0  0  0  0  0  0  0  0  0  0  0  0
  -21.3909   -7.6298    0.0000 H   0  0  0  0  0  0  0  0  0  0  0  0
  -23.0414   -3.8802    0.0000 H   0  0  0  0  0  0  0  0  0  0  0  0
  -27.1940   -5.6139    0.0000 H   0  0  0  0  0  0  0  0  0  0  0  0
  -26.1930   -8.0114    0.0000 H   0  0  0  0  0  0  0  0  0  0  0  0
  -23.6163   -8.3433    0.0000 H   0  0  0  0  0  0  0  0  0  0  0  0
  -15.3110   -4.8759    0.0000 H   0  0  0  0  0  0  0  0  0  0  0  0
  -15.4131   -8.2899    0.0000 H   0  0  0  0  0  0  0  0  0  0  0  0
  -13.5006   -8.5362    0.0000 H   0  0  0  0  0  0  0  0  0  0  0  0
  -11.9249   -9.0930    0.0000 H   0  0  0  0  0  0  0  0  0  0  0  0
  -10.0203   -8.4909    0.0000 H   0  0  0  0  0  0  0  0  0  0  0  0
  -11.4873   -4.3010    0.0000 H   0  0  0  0  0  0  0  0  0  0  0  0
   -9.9553   -4.8689    0.0000 H   0  0  0  0  0  0  0  0  0  0  0  0
  -13.4664   -4.5714    0.0000 H   0  0  0  0  0  0  0  0  0  0  0  0
   -8.7301   -9.5530    0.0000 H   0  0  0  0  0  0  0  0  0  0  0  0
   -6.9144   -9.6042    0.0000 H   0  0  0  0  0  0  0  0  0  0  0  0
   -6.5000   -5.2342    0.0000 H   0  0  0  0  0  0  0  0  0  0  0  0
   -5.3732   -6.6178    0.0000 H   0  0  0  0  0  0  0  0  0  0  0  0
   -9.8018   -6.3100    0.0000 H   0  0  0  0  0  0  0  0  0  0  0  0
   -8.8493   -7.6375    0.0000 H   0  0  0  0  0  0  0  0  0  0  0  0
   -8.4405   -3.2891    0.0000 H   0  0  0  0  0  0  0  0  0  0  0  0
   -7.1534   -4.5251    0.0000 H   0  0  0  0  0  0  0  0  0  0  0  0
  -11.3802   -5.0492    0.0000 H   0  0  0  0  0  0  0  0  0  0  0  0
  -12.1533   -0.9557    0.0000 H   0  0  0  0  0  0  0  0  0  0  0  0
   -9.6184   -0.3863    0.0000 H   0  0  0  0  0  0  0  0  0  0  0  0
   -7.8578   -2.2968    0.0000 H   0  0  0  0  0  0  0  0  0  0  0  0
   -6.9164  -10.2168    0.0000 H   0  0  0  0  0  0  0  0  0  0  0  0
   -6.9763  -12.0834    0.0000 H   0  0  0  0  0  0  0  0  0  0  0  0
   -6.3713  -13.1039    0.0000 H   0  0  0  0  0  0  0  0  0  0  0  0
   -4.5281  -13.8992    0.0000 H   0  0  0  0  0  0  0  0  0  0  0  0
   -3.3706  -13.6392    0.0000 H   0  0  0  0  0  0  0  0  0  0  0  0
   -2.0850  -12.4955    0.0000 H   0  0  0  0  0  0  0  0  0  0  0  0
   -2.9579   -9.2240    0.0000 H   0  0  0  0  0  0  0  0  0  0  0  0
   -2.5750  -13.3689    0.0000 H   0  0  0  0  0  0  0  0  0  0  0  0
    0.0515  -11.1672    0.0000 H   0  0  0  0  0  0  0  0  0  0  0  0
   -0.5645  -15.5636    0.0000 H   0  0  0  0  0  0  0  0  0  0  0  0
    0.9413  -14.3589    0.0000 H   0  0  0  0  0  0  0  0  0  0  0  0
   -2.5582  -15.6870    0.0000 H   0  0  0  0  0  0  0  0  0  0  0  0
    1.1081   -9.8725    0.0000 H   0  0  0  0  0  0  0  0  0  0  0  0
    3.4930  -12.3175    0.0000 H   0  0  0  0  0  0  0  0  0  0  0  0
    4.9988  -11.1129    0.0000 H   0  0  0  0  0  0  0  0  0  0  0  0
    6.4938  -10.3662    0.0000 H   0  0  0  0  0  0  0  0  0  0  0  0
    7.3838   -8.5779    0.0000 H   0  0  0  0  0  0  0  0  0  0  0  0
    3.5112   -8.4999    0.0000 H   0  0  0  0  0  0  0  0  0  0  0  0
    3.3508   -6.7227    0.0000 H   0  0  0  0  0  0  0  0  0  0  0  0
    5.1778   -6.1057    0.0000 H   0  0  0  0  0  0  0  0  0  0  0  0
    8.8673   -8.4355    0.0000 H   0  0  0  0  0  0  0  0  0  0  0  0
    8.0374   -6.9511    0.0000 H   0  0  0  0  0  0  0  0  0  0  0  0
    6.8167   -6.2196    0.0000 H   0  0  0  0  0  0  0  0  0  0  0  0
    6.2304   -6.2026    0.0000 H   0  0  0  0  0  0  0  0  0  0  0  0
    5.4180   -5.4751    0.0000 H   0  0  0  0  0  0  0  0  0  0  0  0
    5.2836   -5.3746    0.0000 H   0  0  0  0  0  0  0  0  0  0  0  0
    4.1737   -4.4839    0.0000 H   0  0  0  0  0  0  0  0  0  0  0  0
    3.8336   -4.1101    0.0000 H   0  0  0  0  0  0  0  0  0  0  0  0
    3.0786   -3.1024    0.0000 H   0  0  0  0  0  0  0  0  0  0  0  0
    2.8154   -2.6710    0.0000 H   0  0  0  0  0  0  0  0  0  0  0  0
    2.2648   -1.5386    0.0000 H   0  0  0  0  0  0  0  0  0  0  0  0
    2.0879   -1.0652    0.0000 H   0  0  0  0  0  0  0  0  0  0  0  0
    1.8037    0.3292    0.0000 H   0  0  0  0  0  0  0  0  0  0  0  0
    1.4942    1.2673    0.0000 H   0  0  0  0  0  0  0  0  0  0  0  0
    9.3582   -8.5179    0.0000 H   0  0  0  0  0  0  0  0  0  0  0  0
   10.9907   -8.4524    0.0000 H   0  0  0  0  0  0  0  0  0  0  0  0
   11.5482   -6.7573    0.0000 H   0  0  0  0  0  0  0  0  0  0  0  0
   12.6789   -7.2615    0.0000 H   0  0  0  0  0  0  0  0  0  0  0  0
   13.5653   -6.7553    0.0000 H   0  0  0  0  0  0  0  0  0  0  0  0
   16.6472   -6.5581    0.0000 H   0  0  0  0  0  0  0  0  0  0  0  0
   16.1417   -5.0044    0.0000 H   0  0  0  0  0  0  0  0  0  0  0  0
   14.4347   -9.0245    0.0000 H   0  0  0  0  0  0  0  0  0  0  0  0
   13.5682   -7.6393    0.0000 H   0  0  0  0  0  0  0  0  0  0  0  0
   17.7462   -8.9123    0.0000 H   0  0  0  0  0  0  0  0  0  0  0  0
   17.0915   -7.2523    0.0000 H   0  0  0  0  0  0  0  0  0  0  0  0
   14.8078  -10.6535    0.0000 H   0  0  0  0  0  0  0  0  0  0  0  0
   18.4951  -13.2330    0.0000 H   0  0  0  0  0  0  0  0  0  0  0  0
   19.9844  -11.1042    0.0000 H   0  0  0  0  0  0  0  0  0  0  0  0
   18.8854   -8.7500    0.0000 H   0  0  0  0  0  0  0  0  0  0  0  0
   17.3655   -4.8173    0.0000 H   0  0  0  0  0  0  0  0  0  0  0  0
   17.8375   -3.9122    0.0000 H   0  0  0  0  0  0  0  0  0  0  0  0
   20.3235   -2.0801    0.0000 H   0  0  0  0  0  0  0  0  0  0  0  0
   19.0583   -1.0464    0.0000 H   0  0  0  0  0  0  0  0  0  0  0  0
   19.7957   -5.3512    0.0000 H   0  0  0  0  0  0  0  0  0  0  0  0
   18.3179   -4.6543    0.0000 H   0  0  0  0  0  0  0  0  0  0  0  0
   22.5208   -3.4664    0.0000 H   0  0  0  0  0  0  0  0  0  0  0  0
   21.0726   -2.4239    0.0000 H   0  0  0  0  0  0  0  0  0  0  0  0
   20.9903   -6.5198    0.0000 H   0  0  0  0  0  0  0  0  0  0  0  0
   25.4868   -6.6964    0.0000 H   0  0  0  0  0  0  0  0  0  0  0  0
   25.5888   -4.1003    0.0000 H   0  0  0  0  0  0  0  0  0  0  0  0
   23.3915   -2.7140    0.0000 H   0  0  0  0  0  0  0  0  0  0  0  0
   19.9867   -0.2273    0.0000 H   0  0  0  0  0  0  0  0  0  0  0  0
   19.8944    0.7893    0.0000 H   0  0  0  0  0  0  0  0  0  0  0  0
   20.9953    3.6746    0.0000 H   0  0  0  0  0  0  0  0  0  0  0  0
   19.3720    3.8602    0.0000 H   0  0  0  0  0  0  0  0  0  0  0  0
   22.3197    0.6374    0.0000 H   0  0  0  0  0  0  0  0  0  0  0  0
   20.6998    0.4247    0.0000 H   0  0  0  0  0  0  0  0  0  0  0  0
   23.5932    3.6963    0.0000 H   0  0  0  0  0  0  0  0  0  0  0  0
   21.8113    3.7904    0.0000 H   0  0  0  0  0  0  0  0  0  0  0  0
   23.9565    0.3001    0.0000 H   0  0  0  0  0  0  0  0  0  0  0  0
   27.8347    2.5826    0.0000 H   0  0  0  0  0  0  0  0  0  0  0  0
   26.5169    4.8217    0.0000 H   0  0  0  0  0  0  0  0  0  0  0  0
   23.9189    4.8000    0.0000 H   0  0  0  0  0  0  0  0  0  0  0  0
   19.7102    5.0511    0.0000 H   0  0  0  0  0  0  0  0  0  0  0  0
   19.0829    5.8565    0.0000 H   0  0  0  0  0  0  0  0  0  0  0  0
   18.4492    8.8789    0.0000 H   0  0  0  0  0  0  0  0  0  0  0  0
   16.9832    8.1574    0.0000 H   0  0  0  0  0  0  0  0  0  0  0  0
   21.2054    7.0399    0.0000 H   0  0  0  0  0  0  0  0  0  0  0  0
   19.9576    5.9852    0.0000 H   0  0  0  0  0  0  0  0  0  0  0  0
   20.6230   10.3017    0.0000 H   0  0  0  0  0  0  0  0  0  0  0  0
   19.0730    9.4175    0.0000 H   0  0  0  0  0  0  0  0  0  0  0  0
   22.7647    7.6411    0.0000 H   0  0  0  0  0  0  0  0  0  0  0  0
   24.7932   11.6579    0.0000 H   0  0  0  0  0  0  0  0  0  0  0  0
   22.4741   12.8291    0.0000 H   0  0  0  0  0  0  0  0  0  0  0  0
   20.3002   11.4063    0.0000 H   0  0  0  0  0  0  0  0  0  0  0  0
   16.6239    9.3422    0.0000 H   0  0  0  0  0  0  0  0  0  0  0  0
   15.6608    9.6805    0.0000 H   0  0  0  0  0  0  0  0  0  0  0  0
   13.4936   11.8805    0.0000 H   0  0  0  0  0  0  0  0  0  0  0  0
   12.6504   10.4811    0.0000 H   0  0  0  0  0  0  0  0  0  0  0  0
   16.8065   11.8236    0.0000 H   0  0  0  0  0  0  0  0  0  0  0  0
   16.3270   10.2617    0.0000 H   0  0  0  0  0  0  0  0  0  0  0  0
   14.5531   14.2528    0.0000 H   0  0  0  0  0  0  0  0  0  0  0  0
   13.7272   12.6709    0.0000 H   0  0  0  0  0  0  0  0  0  0  0  0
   17.7932   13.1724    0.0000 H   0  0  0  0  0  0  0  0  0  0  0  0
   17.3281   17.6483    0.0000 H   0  0  0  0  0  0  0  0  0  0  0  0
   14.7439   17.3797    0.0000 H   0  0  0  0  0  0  0  0  0  0  0  0
   13.6844   15.0075    0.0000 H   0  0  0  0  0  0  0  0  0  0  0  0
   11.5260   11.3076    0.0000 H   0  0  0  0  0  0  0  0  0  0  0  0
   10.5534   11.1347    0.0000 H   0  0  0  0  0  0  0  0  0  0  0  0
    9.5288   12.3435    0.0000 H   0  0  0  0  0  0  0  0  0  0  0  0
    7.8065   11.8768    0.0000 H   0  0  0  0  0  0  0  0  0  0  0  0
    7.7492   10.0933    0.0000 H   0  0  0  0  0  0  0  0  0  0  0  0
    6.5222   10.2586    0.0000 H   0  0  0  0  0  0  0  0  0  0  0  0
    3.2873    7.1632    0.0000 H   0  0  0  0  0  0  0  0  0  0  0  0
    3.9642    8.2249    0.0000 H   0  0  0  0  0  0  0  0  0  0  0  0
    2.4368    5.8188    0.0000 H   0  0  0  0  0  0  0  0  0  0  0  0
    2.8996    6.8063    0.0000 H   0  0  0  0  0  0  0  0  0  0  0  0
    1.8889    3.9746    0.0000 H   0  0  0  0  0  0  0  0  0  0  0  0
    2.2380    5.3542    0.0000 H   0  0  0  0  0  0  0  0  0  0  0  0
    1.5359    3.0520    0.0000 H   0  0  0  0  0  0  0  0  0  0  0  0
    4.3229   10.2424    0.0000 H   0  0  0  0  0  0  0  0  0  0  0  0
    5.7688   11.0032    0.0000 H   0  0  0  0  0  0  0  0  0  0  0  0
    7.1002    9.8151    0.0000 H   0  0  0  0  0  0  0  0  0  0  0  0
    1.8655    7.9890    0.0000 H   0  0  0  0  0  0  0  0  0  0  0  0
  1  2  1  0
  2  3  1  0
  3  4  2  0
  4  5  1  0
  5  6  2  0
  6  7  1  0
  7  8  2  0
  7  9  1  0
  9 10  1  0
 10 11  1  0
 11 12  2  0
  9 13  1  0
 13 14  1  0
 14 15  2  0
 15 16  1  0
 16 17  2  0
 17 18  1  0
 16 19  1  0
 14 20  1  0
 20 21  1  0
 21 22  2  0
 22 23  1  0
 23 24  2  0
 24 25  1  0
 25 26  2  0
 25 27  1  0
  1 28  2  0
  1 29  1  0
 29 30  1  0
 30 31  1  0
 31 32  1  0
 32 33  2  0
 32 34  1  0
 34 35  1  0
 35 36  1  0
 36 37  1  0
 37 38  1  0
 38 39  1  0
 39 40  1  0
 40 41  2  3
 40 42  1  0
 35 43  1  0
 43 44  2  0
 43 45  1  0
 45 46  1  0
 46 47  1  0
 47 48  1  0
 48 49  1  0
 49 50  1  0
 50 51  1  0
 51 52  2  3
 51 53  1  0
 46 54  1  0
 54 55  2  0
 54 56  1  0
 56 57  1  0
 57 58  1  0
 58 59  2  0
 58 60  1  0
 60 61  1  0
 61 62  1  0
 62 63  1  0
 61 64  1  0
 64 65  2  0
 64 66  1  0
 66 67  1  0
 67 68  1  0
 68 69  1  0
 69 70  1  0
 70 71  1  0
 71 72  1  0
 72 73  2  3
 72 74  1  0
 67 75  1  0
 75 76  2  0
 75 77  1  0
 77 78  1  0
 78 79  1  0
 79 80  1  0
 80 81  1  0
 81 82  1  0
 82 83  2  0
 82 84  1  0
 84 85  1  0
 85 86  1  0
 86 87  1  0
 85 88  1  0
 88 89  2  0
 88 90  1  0
 90 91  1  0
 91 92  1  0
 92 93  2  0
 92 94  1  0
 94 95  1  0
 95 96  1  0
 95 97  1  0
 97 98  2  0
 97 99  1  0
100 99  1  6
100101  1  0
101102  1  0
102103  1  0
103104  1  0
104105  1  0
105106  1  0
106107  1  0
100108  1  0
100109  1  0
109110  2  0
109111  1  0
111112  1  0
112113  1  0
113114  1  0
114115  1  0
115116  1  0
116117  1  0
117118  2  3
117119  1  0
112120  1  0
120121  2  0
120122  1  0
122123  1  0
123124  1  0
124125  1  0
125126  1  0
126127  1  0
127128  1  0
128129  2  3
128130  1  0
123131  1  0
131132  2  0
131133  1  0
133134  1  0
134135  1  0
135136  1  0
136137  1  0
137138  1  0
138139  1  0
139140  2  3
139141  1  0
134142  1  0
142143  2  0
142144  1  0
144145  1  0
145146  1  0
146147  1  0
147148  1  0
148149  1  0
149150  1  0
150151  2  3
150152  1  0
145153  1  0
153154  2  0
153155  1  0
155156  1  0
156157  1  0
157158  1  0
158159  1  0
159160  1  0
160161  1  0
161162  2  3
161163  1  0
156164  1  0
164165  2  0
164166  1  0
166167  1  0
167168  1  0
167169  1  0
169170  2  0
169171  1  0
171172  1  0
172173  1  0
173174  1  0
174175  1  0
175176  1  0
172177  1  0
172178  1  1
178179  2  0
178180  1  0
  8  3  1  0
 81 77  1  0
 11  6  1  0
107176  2  0
 18 13  2  0
 22  9  1  0
 26 21  1  0
  2181  1  0
  4182  1  0
  5183  1  0
  8184  1  0
 15185  1  0
 17186  1  0
 18187  1  0
 19188  1  0
 23189  1  0
 24190  1  0
 26191  1  0
 27192  1  0
 29193  1  0
 30194  1  0
 30195  1  0
 31196  1  0
 31197  1  0
 34198  1  0
 35199  1  1
 36200  1  0
 36201  1  0
 37202  1  0
 37203  1  0
 38204  1  0
 38205  1  0
 39206  1  0
 41207  1  0
 42208  1  0
 42209  1  0
 45210  1  0
 46211  1  6
 47212  1  0
 47213  1  0
 48214  1  0
 48215  1  0
 49216  1  0
 49217  1  0
 50218  1  0
 52219  1  0
 53220  1  0
 53221  1  0
 56222  1  0
 57223  1  0
 57224  1  0
 60225  1  0
 61226  1  1
 62227  1  0
 62228  1  0
 63229  1  0
 66230  1  0
 67231  1  1
 68232  1  0
 68233  1  0
 69234  1  0
 69235  1  0
 70236  1  0
 70237  1  0
 71238  1  0
 73239  1  0
 74240  1  0
 74241  1  0
 78242  1  0
 78243  1  0
 79244  1  0
 79245  1  0
 80246  1  0
 80247  1  0
 81248  1  0
 84249  1  0
 85250  1  6
 86251  1  0
 86252  1  0
 87253  1  0
 90254  1  0
 91255  1  0
 91256  1  0
 94257  1  0
 95258  1  1
 96259  1  0
 96260  1  0
 96261  1  0
 99262  1  0
101263  1  0
101264  1  0
102265  1  0
102266  1  0
103267  1  0
103268  1  0
104269  1  0
104270  1  0
105271  1  0
105272  1  0
106273  1  0
106274  1  0
107275  1  0
108276  1  0
108277  1  0
108278  1  0
111279  1  0
112280  1  6
113281  1  0
113282  1  0
114283  1  0
114284  1  0
115285  1  0
115286  1  0
116287  1  0
118288  1  0
119289  1  0
119290  1  0
122291  1  0
123292  1  6
124293  1  0
124294  1  0
125295  1  0
125296  1  0
126297  1  0
126298  1  0
127299  1  0
129300  1  0
130301  1  0
130302  1  0
133303  1  0
134304  1  6
135305  1  0
135306  1  0
136307  1  0
136308  1  0
137309  1  0
137310  1  0
138311  1  0
140312  1  0
141313  1  0
141314  1  0
144315  1  0
145316  1  6
146317  1  0
146318  1  0
147319  1  0
147320  1  0
148321  1  0
148322  1  0
149323  1  0
151324  1  0
152325  1  0
152326  1  0
155327  1  0
156328  1  6
157329  1  0
157330  1  0
158331  1  0
158332  1  0
159333  1  0
159334  1  0
160335  1  0
162336  1  0
163337  1  0
163338  1  0
166339  1  0
167340  1  6
168341  1  0
168342  1  0
168343  1  0
171344  1  0
173345  1  0
173346  1  0
174347  1  0
174348  1  0
175349  1  0
175350  1  0
176351  1  0
177352  1  0
177353  1  0
177354  1  0
180355  1  0
M  END
