
     RDKit          2D

459464  0  0  0  0  0  0  0  0999 V2000
   30.3274  -12.6147    0.0000 C   0  0  0  0  0  0  0  0  0  0  0  0
   31.1375  -13.8771    0.0000 N   0  0  0  0  0  0  0  0  0  0  0  0
   30.4493  -15.2099    0.0000 C   0  0  0  0  0  0  0  0  0  0  0  0
   28.9509  -15.2803    0.0000 C   0  0  0  0  0  0  0  0  0  0  0  0
   28.2627  -16.6131    0.0000 C   0  0  0  0  0  0  0  0  0  0  0  0
   29.0728  -17.8755    0.0000 C   0  0  0  0  0  0  0  0  0  0  0  0
   30.5712  -17.8052    0.0000 C   0  0  0  0  0  0  0  0  0  0  0  0
   31.2594  -16.4724    0.0000 C   0  0  0  0  0  0  0  0  0  0  0  0
   31.1011  -19.2084    0.0000 C   0  0  0  0  0  0  0  0  0  0  0  0
   29.9303  -20.1461    0.0000 O   0  0  0  0  0  0  0  0  0  0  0  0
   28.6767  -19.3223    0.0000 C   0  0  0  0  0  0  0  0  0  0  0  0
   27.2735  -19.8522    0.0000 O   0  0  0  0  0  0  0  0  0  0  0  0
   31.4815  -20.6594    0.0000 C   0  0  0  0  0  0  0  0  0  0  0  0
   32.9282  -21.0555    0.0000 C   0  0  0  0  0  0  0  0  0  0  0  0
   33.3086  -22.5064    0.0000 C   0  0  0  0  0  0  0  0  0  0  0  0
   32.2422  -23.5613    0.0000 C   0  0  0  0  0  0  0  0  0  0  0  0
   30.7955  -23.1653    0.0000 C   0  0  0  0  0  0  0  0  0  0  0  0
   30.4151  -21.7143    0.0000 C   0  0  0  0  0  0  0  0  0  0  0  0
   32.6226  -25.0123    0.0000 O   0  0  0  0  0  0  0  0  0  0  0  0
   33.9946  -20.0006    0.0000 O   0  0  0  0  0  0  0  0  0  0  0  0
   33.6143  -18.5496    0.0000 C   0  0  0  0  0  0  0  0  0  0  0  0
   32.1675  -18.1535    0.0000 C   0  0  0  0  0  0  0  0  0  0  0  0
   32.4623  -16.8874    0.0000 C   0  0  0  0  0  0  0  0  0  0  0  0
   33.0310  -16.3248    0.0000 C   0  0  0  0  0  0  0  0  0  0  0  0
   33.8027  -16.5360    0.0000 C   0  0  0  0  0  0  0  0  0  0  0  0
   34.0055  -17.3099    0.0000 C   0  0  0  0  0  0  0  0  0  0  0  0
   35.3667  -14.9888    0.0000 O   0  0  0  0  0  0  0  0  0  0  0  0
   28.8290  -12.6851    0.0000 S   0  0  0  0  0  0  0  0  0  0  0  0
   31.0156  -11.2819    0.0000 N   0  0  0  0  0  0  0  0  0  0  0  0
   30.2055  -10.0195    0.0000 C   0  0  0  0  0  0  0  0  0  0  0  0
   30.8937   -8.6867    0.0000 C   0  0  0  0  0  0  0  0  0  0  0  0
   30.0836   -7.4243    0.0000 C   0  0  0  0  0  0  0  0  0  0  0  0
   29.2978   -7.5585    0.0000 O   0  0  0  0  0  0  0  0  0  0  0  0
   30.7718   -6.0915    0.0000 N   0  0  0  0  0  0  0  0  0  0  0  0
   29.9616   -4.8291    0.0000 C   0  0  0  0  0  0  0  0  0  0  0  0
   28.8591   -5.8461    0.0000 C   0  0  0  0  0  0  0  0  0  0  0  0
   29.0077   -7.3387    0.0000 O   0  0  0  0  0  0  0  0  0  0  0  0
   29.6321   -3.3657    0.0000 C   0  0  0  0  0  0  0  0  0  0  0  0
   28.1346   -3.2792    0.0000 O   0  0  0  0  0  0  0  0  0  0  0  0
   30.7347   -2.3487    0.0000 N   0  0  0  0  0  0  0  0  0  0  0  0
   30.4052   -0.8853    0.0000 C   0  0  0  0  0  0  0  0  0  0  0  0
   29.2404   -1.8304    0.0000 C   0  0  0  0  0  0  0  0  0  0  0  0
   27.9177   -2.5379    0.0000 C   0  0  0  0  0  0  0  0  0  0  0  0
   26.4851   -2.9823    0.0000 C   0  0  0  0  0  0  0  0  0  0  0  0
   24.9942   -3.1476    0.0000 C   0  0  0  0  0  0  0  0  0  0  0  0
   23.4990   -3.0277    0.0000 C   0  0  0  0  0  0  0  0  0  0  0  0
   22.0535   -2.6271    0.0000 C   0  0  0  0  0  0  0  0  0  0  0  0
   20.7100   -1.9601    0.0000 C   0  0  0  0  0  0  0  0  0  0  0  0
   31.8627   -1.2399    0.0000 C   0  0  0  0  0  0  0  0  0  0  0  0
   31.3702    0.2631    0.0000 C   0  0  0  0  0  0  0  0  0  0  0  0
   32.6997   -0.4314    0.0000 O   0  0  0  0  0  0  0  0  0  0  0  0
   32.1003    1.5734    0.0000 N   0  0  0  0  0  0  0  0  0  0  0  0
   32.5693    2.9982    0.0000 C   0  0  0  0  0  0  0  0  0  0  0  0
   33.9871    3.4879    0.0000 C   0  0  0  0  0  0  0  0  0  0  0  0
   35.1201    2.5048    0.0000 C   0  0  0  0  0  0  0  0  0  0  0  0
   36.5379    2.9945    0.0000 C   0  0  0  0  0  0  0  0  0  0  0  0
   37.6709    2.0114    0.0000 O   0  0  0  0  0  0  0  0  0  0  0  0
   36.8228    4.4672    0.0000 O   0  0  0  0  0  0  0  0  0  0  0  0
   32.7602    4.4860    0.0000 C   0  0  0  0  0  0  0  0  0  0  0  0
   34.2541    4.6205    0.0000 O   0  0  0  0  0  0  0  0  0  0  0  0
   32.6660    5.9830    0.0000 N   0  0  0  0  0  0  0  0  0  0  0  0
   32.2903    7.4352    0.0000 C   0  0  0  0  0  0  0  0  0  0  0  0
   33.2183    8.6137    0.0000 C   0  0  0  0  0  0  0  0  0  0  0  0
   34.7029    8.3992    0.0000 C   0  0  0  0  0  0  0  0  0  0  0  0
   35.6309    9.5777    0.0000 C   0  0  0  0  0  0  0  0  0  0  0  0
   36.0246    7.6900    0.0000 C   0  0  0  0  0  0  0  0  0  0  0  0
   31.6465    8.7900    0.0000 C   0  0  0  0  0  0  0  0  0  0  0  0
   32.8305    9.7109    0.0000 O   0  0  0  0  0  0  0  0  0  0  0  0
   30.7579    9.9985    0.0000 N   0  0  0  0  0  0  0  0  0  0  0  0
   29.6567   11.0170    0.0000 C   0  0  0  0  0  0  0  0  0  0  0  0
   29.8003   12.5101    0.0000 C   0  0  0  0  0  0  0  0  0  0  0  0
   31.1651   13.1324    0.0000 C   0  0  0  0  0  0  0  0  0  0  0  0
   28.3826   11.8087    0.0000 C   0  0  0  0  0  0  0  0  0  0  0  0
   28.8809   13.2235    0.0000 O   0  0  0  0  0  0  0  0  0  0  0  0
   26.9818   12.3450    0.0000 N   0  0  0  0  0  0  0  0  0  0  0  0
   25.5047   12.6064    0.0000 C   0  0  0  0  0  0  0  0  0  0  0  0
   24.8183   13.9401    0.0000 C   0  0  0  0  0  0  0  0  0  0  0  0
   24.0049   12.5836    0.0000 C   0  0  0  0  0  0  0  0  0  0  0  0
   23.6591   14.0432    0.0000 O   0  0  0  0  0  0  0  0  0  0  0  0
   22.5365   12.2774    0.0000 N   0  0  0  0  0  0  0  0  0  0  0  0
   21.1526   11.6988    0.0000 C   0  0  0  0  0  0  0  0  0  0  0  0
   19.8540   12.4496    0.0000 C   0  0  0  0  0  0  0  0  0  0  0  0
   19.8550   13.9496    0.0000 C   0  0  0  0  0  0  0  0  0  0  0  0
   18.5565   14.7005    0.0000 C   0  0  0  0  0  0  0  0  0  0  0  0
   18.5575   16.2005    0.0000 O   0  0  0  0  0  0  0  0  0  0  0  0
   17.2570   13.9513    0.0000 O   0  0  0  0  0  0  0  0  0  0  0  0
   19.9032   10.8687    0.0000 C   0  0  0  0  0  0  0  0  0  0  0  0
   18.8232   11.9097    0.0000 O   0  0  0  0  0  0  0  0  0  0  0  0
   18.8334    9.8172    0.0000 N   0  0  0  0  0  0  0  0  0  0  0  0
   17.9820    8.5823    0.0000 C   0  0  0  0  0  0  0  0  0  0  0  0
   16.4837    8.5119    0.0000 C   0  0  0  0  0  0  0  0  0  0  0  0
   17.3797    7.2085    0.0000 C   0  0  0  0  0  0  0  0  0  0  0  0
   15.9084    7.5003    0.0000 O   0  0  0  0  0  0  0  0  0  0  0  0
   17.0483    5.7456    0.0000 N   0  0  0  0  0  0  0  0  0  0  0  0
   16.9997    4.2464    0.0000 C   0  0  0  0  0  0  0  0  0  0  0  0
   17.2357    2.7650    0.0000 C   0  0  0  0  0  0  0  0  0  0  0  0
   17.7478    1.3552    0.0000 C   0  0  0  0  0  0  0  0  0  0  0  0
   18.5175    0.0677    0.0000 C   0  0  0  0  0  0  0  0  0  0  0  0
   19.5169   -1.0509    0.0000 C   0  0  0  0  0  0  0  0  0  0  0  0
   15.6780    4.9556    0.0000 C   0  0  0  0  0  0  0  0  0  0  0  0
   15.7773    3.3771    0.0000 C   0  0  0  0  0  0  0  0  0  0  0  0
   15.5533    1.8939    0.0000 O   0  0  0  0  0  0  0  0  0  0  0  0
   14.4132    4.0011    0.0000 N   0  0  0  0  0  0  0  0  0  0  0  0
   13.1908    3.1318    0.0000 C   0  0  0  0  0  0  0  0  0  0  0  0
   12.3394    1.8969    0.0000 C   0  0  0  0  0  0  0  0  0  0  0  0
   10.8442    2.0167    0.0000 C   0  0  0  0  0  0  0  0  0  0  0  0
    9.9928    0.7818    0.0000 N   0  0  0  0  0  0  0  0  0  0  0  0
    9.8917    3.1755    0.0000 O   0  0  0  0  0  0  0  0  0  0  0  0
   11.8268    3.7558    0.0000 C   0  0  0  0  0  0  0  0  0  0  0  0
   11.6852    5.2491    0.0000 O   0  0  0  0  0  0  0  0  0  0  0  0
   10.6043    2.8866    0.0000 N   0  0  0  0  0  0  0  0  0  0  0  0
    9.2403    3.5106    0.0000 C   0  0  0  0  0  0  0  0  0  0  0  0
    8.1719    4.5635    0.0000 C   0  0  0  0  0  0  0  0  0  0  0  0
    6.7259    4.1648    0.0000 C   0  0  0  0  0  0  0  0  0  0  0  0
    5.6576    5.2177    0.0000 C   0  0  0  0  0  0  0  0  0  0  0  0
    5.5035    3.2955    0.0000 C   0  0  0  0  0  0  0  0  0  0  0  0
    8.0178    2.6413    0.0000 C   0  0  0  0  0  0  0  0  0  0  0  0
    7.9764    1.1419    0.0000 O   0  0  0  0  0  0  0  0  0  0  0  0
    6.6538    3.2653    0.0000 N   0  0  0  0  0  0  0  0  0  0  0  0
    5.4314    2.3961    0.0000 C   0  0  0  0  0  0  0  0  0  0  0  0
    4.5800    1.1611    0.0000 C   0  0  0  0  0  0  0  0  0  0  0  0
    3.1412    0.7371    0.0000 S   0  0  0  0  0  0  0  0  0  0  0  0
    4.0673    3.0201    0.0000 C   0  0  0  0  0  0  0  0  0  0  0  0
    3.5686    4.4348    0.0000 O   0  0  0  0  0  0  0  0  0  0  0  0
    2.8449    2.1508    0.0000 N   0  0  0  0  0  0  0  0  0  0  0  0
    1.4809    2.7748    0.0000 C   0  0  0  0  0  0  0  0  0  0  0  0
    0.4125    3.8278    0.0000 C   0  0  0  0  0  0  0  0  0  0  0  0
   -0.8653    4.6134    0.0000 O   0  0  0  0  0  0  0  0  0  0  0  0
    0.7902    5.2794    0.0000 C   0  0  0  0  0  0  0  0  0  0  0  0
    0.2584    1.9056    0.0000 C   0  0  0  0  0  0  0  0  0  0  0  0
    0.4000    0.4123    0.0000 O   0  0  0  0  0  0  0  0  0  0  0  0
   -1.1056    2.5296    0.0000 N   0  0  0  0  0  0  0  0  0  0  0  0
   -2.3280    1.6603    0.0000 C   0  0  0  0  0  0  0  0  0  0  0  0
   -3.1795    0.4254    0.0000 C   0  0  0  0  0  0  0  0  0  0  0  0
   -4.6747    0.5452    0.0000 C   0  0  0  0  0  0  0  0  0  0  0  0
   -5.5261   -0.6897    0.0000 C   0  0  0  0  0  0  0  0  0  0  0  0
   -6.0387    1.1693    0.0000 C   0  0  0  0  0  0  0  0  0  0  0  0
   -3.6921    2.2843    0.0000 C   0  0  0  0  0  0  0  0  0  0  0  0
   -3.8337    3.7776    0.0000 O   0  0  0  0  0  0  0  0  0  0  0  0
   -4.9145    1.4151    0.0000 N   0  0  0  0  0  0  0  0  0  0  0  0
   -6.2786    2.0391    0.0000 C   0  0  0  0  0  0  0  0  0  0  0  0
   -7.3469    3.0920    0.0000 C   0  0  0  0  0  0  0  0  0  0  0  0
   -6.9692    4.5437    0.0000 C   0  0  0  0  0  0  0  0  0  0  0  0
   -8.0376    5.5966    0.0000 C   0  0  0  0  0  0  0  0  0  0  0  0
   -6.1178    5.7786    0.0000 C   0  0  0  0  0  0  0  0  0  0  0  0
   -7.5010    1.1698    0.0000 C   0  0  0  0  0  0  0  0  0  0  0  0
   -7.5425   -0.3296    0.0000 O   0  0  0  0  0  0  0  0  0  0  0  0
   -8.8650    1.7938    0.0000 N   0  0  0  0  0  0  0  0  0  0  0  0
  -10.0875    0.9246    0.0000 C   0  0  0  0  0  0  0  0  0  0  0  0
  -10.9389   -0.3104    0.0000 C   0  0  0  0  0  0  0  0  0  0  0  0
  -12.4341   -0.1905    0.0000 C   0  0  0  0  0  0  0  0  0  0  0  0
  -13.2855   -1.4255    0.0000 C   0  0  0  0  0  0  0  0  0  0  0  0
  -14.7842   -1.4888    0.0000 O   0  0  0  0  0  0  0  0  0  0  0  0
  -12.6417   -2.7803    0.0000 O   0  0  0  0  0  0  0  0  0  0  0  0
  -11.4515    1.5486    0.0000 C   0  0  0  0  0  0  0  0  0  0  0  0
  -11.5931    3.0419    0.0000 O   0  0  0  0  0  0  0  0  0  0  0  0
  -12.6739    0.6793    0.0000 N   0  0  0  0  0  0  0  0  0  0  0  0
  -14.0380    1.3033    0.0000 C   0  0  0  0  0  0  0  0  0  0  0  0
  -15.1063    2.3563    0.0000 C   0  0  0  0  0  0  0  0  0  0  0  0
  -14.7286    3.8079    0.0000 C   0  0  0  0  0  0  0  0  0  0  0  0
  -15.7970    4.8608    0.0000 N   0  0  0  0  0  0  0  0  0  0  0  0
  -13.2826    4.2067    0.0000 O   0  0  0  0  0  0  0  0  0  0  0  0
  -15.2604    0.4341    0.0000 C   0  0  0  0  0  0  0  0  0  0  0  0
  -15.3019   -1.0654    0.0000 O   0  0  0  0  0  0  0  0  0  0  0  0
  -16.6245    1.0581    0.0000 N   0  0  0  0  0  0  0  0  0  0  0  0
  -17.8469    0.1888    0.0000 C   0  0  0  0  0  0  0  0  0  0  0  0
  -18.6983   -1.0461    0.0000 C   0  0  0  0  0  0  0  0  0  0  0  0
  -19.2109    0.8128    0.0000 C   0  0  0  0  0  0  0  0  0  0  0  0
  -19.3525    2.3061    0.0000 O   0  0  0  0  0  0  0  0  0  0  0  0
  -20.4334   -0.0564    0.0000 N   0  0  0  0  0  0  0  0  0  0  0  0
  -21.7974    0.5676    0.0000 C   0  0  0  0  0  0  0  0  0  0  0  0
  -22.8658    1.6205    0.0000 C   0  0  0  0  0  0  0  0  0  0  0  0
  -22.3139    3.0153    0.0000 C   0  0  0  0  0  0  0  0  0  0  0  0
  -24.2298    2.2445    0.0000 C   0  0  0  0  0  0  0  0  0  0  0  0
  -24.3714    3.7378    0.0000 C   0  0  0  0  0  0  0  0  0  0  0  0
  -23.0198   -0.3017    0.0000 C   0  0  0  0  0  0  0  0  0  0  0  0
  -22.8783   -1.7950    0.0000 O   0  0  0  0  0  0  0  0  0  0  0  0
  -24.3839    0.3223    0.0000 N   0  0  0  0  0  0  0  0  0  0  0  0
  -25.6063   -0.5469    0.0000 C   0  0  0  0  0  0  0  0  0  0  0  0
  -26.4577   -1.7819    0.0000 C   0  0  0  0  0  0  0  0  0  0  0  0
  -27.9529   -1.6620    0.0000 C   0  0  0  0  0  0  0  0  0  0  0  0
  -28.8043   -2.8970    0.0000 C   0  0  0  0  0  0  0  0  0  0  0  0
  -30.3030   -2.9603    0.0000 N   0  0  0  0  0  0  0  0  0  0  0  0
  -28.1605   -4.2518    0.0000 O   0  0  0  0  0  0  0  0  0  0  0  0
  -26.9704    0.0771    0.0000 C   0  0  0  0  0  0  0  0  0  0  0  0
  -27.1120    1.5704    0.0000 O   0  0  0  0  0  0  0  0  0  0  0  0
  -28.1928   -0.7922    0.0000 N   0  0  0  0  0  0  0  0  0  0  0  0
  -29.5568   -0.1682    0.0000 C   0  0  0  0  0  0  0  0  0  0  0  0
  -30.6252    0.8847    0.0000 C   0  0  0  0  0  0  0  0  0  0  0  0
  -30.2475    2.3364    0.0000 C   0  0  0  0  0  0  0  0  0  0  0  0
  -31.3158    3.3893    0.0000 O   0  0  0  0  0  0  0  0  0  0  0  0
  -28.8015    2.7352    0.0000 O   0  0  0  0  0  0  0  0  0  0  0  0
  -30.7793   -1.0375    0.0000 C   0  0  0  0  0  0  0  0  0  0  0  0
  -30.8208   -2.5369    0.0000 O   0  0  0  0  0  0  0  0  0  0  0  0
  -32.1433   -0.4134    0.0000 N   0  0  0  0  0  0  0  0  0  0  0  0
  -33.3657   -1.2827    0.0000 C   0  0  0  0  0  0  0  0  0  0  0  0
  -34.2172   -2.5177    0.0000 C   0  0  0  0  0  0  0  0  0  0  0  0
  -34.5948   -3.9693    0.0000 O   0  0  0  0  0  0  0  0  0  0  0  0
  -35.7158   -2.5809    0.0000 C   0  0  0  0  0  0  0  0  0  0  0  0
  -34.7298   -0.6587    0.0000 C   0  0  0  0  0  0  0  0  0  0  0  0
  -34.8714    0.8346    0.0000 O   0  0  0  0  0  0  0  0  0  0  0  0
  -35.9522   -1.5280    0.0000 N   0  0  0  0  0  0  0  0  0  0  0  0
  -37.3163   -0.9039    0.0000 C   0  0  0  0  0  0  0  0  0  0  0  0
  -38.3846    0.1490    0.0000 C   0  0  0  0  0  0  0  0  0  0  0  0
  -38.0069    1.6007    0.0000 C   0  0  0  0  0  0  0  0  0  0  0  0
  -38.5387   -1.7732    0.0000 C   0  0  0  0  0  0  0  0  0  0  0  0
  -38.3971   -3.2665    0.0000 O   0  0  0  0  0  0  0  0  0  0  0  0
  -39.9027   -1.1492    0.0000 N   0  0  0  0  0  0  0  0  0  0  0  0
  -41.1252   -2.0185    0.0000 C   0  0  0  0  0  0  0  0  0  0  0  0
  -41.9766   -3.2534    0.0000 C   0  0  0  0  0  0  0  0  0  0  0  0
  -43.4718   -3.1335    0.0000 C   0  0  0  0  0  0  0  0  0  0  0  0
  -44.3232   -4.3685    0.0000 C   0  0  0  0  0  0  0  0  0  0  0  0
  -45.8184   -4.2486    0.0000 N   0  0  0  0  0  0  0  0  0  0  0  0
  -46.6698   -5.4836    0.0000 C   0  0  0  0  0  0  0  0  0  0  0  0
  -48.1392   -5.1824    0.0000 N   0  0  0  0  0  0  0  0  0  0  0  0
  -46.0260   -6.8384    0.0000 N   0  0  0  0  0  0  0  0  0  0  0  0
  -42.4892   -1.3944    0.0000 C   0  0  0  0  0  0  0  0  0  0  0  0
  -42.6308    0.0989    0.0000 O   0  0  0  0  0  0  0  0  0  0  0  0
  -43.7116   -2.2637    0.0000 N   0  0  0  0  0  0  0  0  0  0  0  0
  -45.0757   -1.6397    0.0000 C   0  0  0  0  0  0  0  0  0  0  0  0
  -46.1440   -0.5868    0.0000 C   0  0  0  0  0  0  0  0  0  0  0  0
  -45.7663    0.8649    0.0000 C   0  0  0  0  0  0  0  0  0  0  0  0
  -46.8347    1.9178    0.0000 C   0  0  0  0  0  0  0  0  0  0  0  0
  -46.4570    3.3695    0.0000 O   0  0  0  0  0  0  0  0  0  0  0  0
  -48.2807    1.5191    0.0000 O   0  0  0  0  0  0  0  0  0  0  0  0
  -46.2981   -2.5090    0.0000 C   0  0  0  0  0  0  0  0  0  0  0  0
  -46.5221   -3.9921    0.0000 O   0  0  0  0  0  0  0  0  0  0  0  0
  -47.6622   -1.8849    0.0000 N   0  0  0  0  0  0  0  0  0  0  0  0
  -48.8846   -2.7542    0.0000 C   0  0  0  0  0  0  0  0  0  0  0  0
  -49.7360   -3.9892    0.0000 C   0  0  0  0  0  0  0  0  0  0  0  0
  -51.2312   -3.8693    0.0000 C   0  0  0  0  0  0  0  0  0  0  0  0
  -52.0826   -5.1043    0.0000 C   0  0  0  0  0  0  0  0  0  0  0  0
  -53.5778   -4.9844    0.0000 N   0  0  0  0  0  0  0  0  0  0  0  0
  -51.4388   -6.4591    0.0000 O   0  0  0  0  0  0  0  0  0  0  0  0
  -50.2486   -2.1302    0.0000 C   0  0  0  0  0  0  0  0  0  0  0  0
  -51.5679   -2.8440    0.0000 O   0  0  0  0  0  0  0  0  0  0  0  0
  -50.3902   -0.6369    0.0000 O   0  0  0  0  0  0  0  0  0  0  0  0
   32.6161  -13.6246    0.0000 H   0  0  0  0  0  0  0  0  0  0  0  0
   28.1408  -14.0179    0.0000 H   0  0  0  0  0  0  0  0  0  0  0  0
   26.7643  -16.6835    0.0000 H   0  0  0  0  0  0  0  0  0  0  0  0
   32.6962  -16.0415    0.0000 H   0  0  0  0  0  0  0  0  0  0  0  0
   34.7554  -22.9025    0.0000 H   0  0  0  0  0  0  0  0  0  0  0  0
   29.7291  -24.2201    0.0000 H   0  0  0  0  0  0  0  0  0  0  0  0
   28.9683  -21.3182    0.0000 H   0  0  0  0  0  0  0  0  0  0  0  0
   31.5562  -26.0672    0.0000 H   0  0  0  0  0  0  0  0  0  0  0  0
   30.3404  -16.3065    0.0000 H   0  0  0  0  0  0  0  0  0  0  0  0
   32.6529  -14.1611    0.0000 H   0  0  0  0  0  0  0  0  0  0  0  0
   36.1274  -17.8908    0.0000 H   0  0  0  0  0  0  0  0  0  0  0  0
   36.8135  -15.3849    0.0000 H   0  0  0  0  0  0  0  0  0  0  0  0
   32.5139  -11.2115    0.0000 H   0  0  0  0  0  0  0  0  0  0  0  0
   29.1029  -11.0365    0.0000 H   0  0  0  0  0  0  0  0  0  0  0  0
   29.0124   -9.1103    0.0000 H   0  0  0  0  0  0  0  0  0  0  0  0
   32.0867   -9.5959    0.0000 H   0  0  0  0  0  0  0  0  0  0  0  0
   31.9962   -7.6697    0.0000 H   0  0  0  0  0  0  0  0  0  0  0  0
   32.2701   -6.0211    0.0000 H   0  0  0  0  0  0  0  0  0  0  0  0
   31.3456   -4.2505    0.0000 H   0  0  0  0  0  0  0  0  0  0  0  0
   27.4752   -6.4247    0.0000 H   0  0  0  0  0  0  0  0  0  0  0  0
   28.0490   -4.5837    0.0000 H   0  0  0  0  0  0  0  0  0  0  0  0
   28.0860   -8.3265    0.0000 H   0  0  0  0  0  0  0  0  0  0  0  0
   32.1017   -2.9662    0.0000 H   0  0  0  0  0  0  0  0  0  0  0  0
   30.4129   -2.7659    0.0000 H   0  0  0  0  0  0  0  0  0  0  0  0
   29.1039   -3.3242    0.0000 H   0  0  0  0  0  0  0  0  0  0  0  0
   28.7457   -3.7887    0.0000 H   0  0  0  0  0  0  0  0  0  0  0  0
   27.6797   -4.0189    0.0000 H   0  0  0  0  0  0  0  0  0  0  0  0
   27.5195   -4.0686    0.0000 H   0  0  0  0  0  0  0  0  0  0  0  0
   26.1467   -4.4437    0.0000 H   0  0  0  0  0  0  0  0  0  0  0  0
   25.6444   -4.4994    0.0000 H   0  0  0  0  0  0  0  0  0  0  0  0
   24.3854   -4.5185    0.0000 H   0  0  0  0  0  0  0  0  0  0  0  0
   23.8816   -4.4781    0.0000 H   0  0  0  0  0  0  0  0  0  0  0  0
   22.6418   -4.2587    0.0000 H   0  0  0  0  0  0  0  0  0  0  0  0
   22.1547   -4.1237    0.0000 H   0  0  0  0  0  0  0  0  0  0  0  0
   20.8593   -3.5347    0.0000 H   0  0  0  0  0  0  0  0  0  0  0  0
   19.9183   -3.2342    0.0000 H   0  0  0  0  0  0  0  0  0  0  0  0
   32.4567   -2.6173    0.0000 H   0  0  0  0  0  0  0  0  0  0  0  0
   33.3626   -1.2576    0.0000 H   0  0  0  0  0  0  0  0  0  0  0  0
   32.3182    0.1893    0.0000 H   0  0  0  0  0  0  0  0  0  0  0  0
   33.3904    0.8081    0.0000 H   0  0  0  0  0  0  0  0  0  0  0  0
   33.5013    1.8229    0.0000 H   0  0  0  0  0  0  0  0  0  0  0  0
   35.2585    4.2839    0.0000 H   0  0  0  0  0  0  0  0  0  0  0  0
   33.5976    4.9364    0.0000 H   0  0  0  0  0  0  0  0  0  0  0  0
   35.8485    1.1936    0.0000 H   0  0  0  0  0  0  0  0  0  0  0  0
   34.2186    1.3060    0.0000 H   0  0  0  0  0  0  0  0  0  0  0  0
   34.1651    6.0367    0.0000 H   0  0  0  0  0  0  0  0  0  0  0  0
   33.7098    6.9504    0.0000 H   0  0  0  0  0  0  0  0  0  0  0  0
   33.6873   10.0385    0.0000 H   0  0  0  0  0  0  0  0  0  0  0  0
   32.1075    9.6217    0.0000 H   0  0  0  0  0  0  0  0  0  0  0  0
   34.5926    6.9033    0.0000 H   0  0  0  0  0  0  0  0  0  0  0  0
   37.1306    9.5458    0.0000 H   0  0  0  0  0  0  0  0  0  0  0  0
   36.0999   11.0025    0.0000 H   0  0  0  0  0  0  0  0  0  0  0  0
   34.4055   10.4428    0.0000 H   0  0  0  0  0  0  0  0  0  0  0  0
   37.3865    8.3186    0.0000 H   0  0  0  0  0  0  0  0  0  0  0  0
   37.0240    6.5714    0.0000 H   0  0  0  0  0  0  0  0  0  0  0  0
   35.0966    6.5115    0.0000 H   0  0  0  0  0  0  0  0  0  0  0  0
   31.9900   10.8541    0.0000 H   0  0  0  0  0  0  0  0  0  0  0  0
   31.1130   11.3766    0.0000 H   0  0  0  0  0  0  0  0  0  0  0  0
   29.6043   13.9973    0.0000 H   0  0  0  0  0  0  0  0  0  0  0  0
   28.3208   12.7576    0.0000 H   0  0  0  0  0  0  0  0  0  0  0  0
   31.3087   14.6255    0.0000 H   0  0  0  0  0  0  0  0  0  0  0  0
   32.6605   13.2502    0.0000 H   0  0  0  0  0  0  0  0  0  0  0  0
   31.8811   11.8143    0.0000 H   0  0  0  0  0  0  0  0  0  0  0  0
   27.3824   13.7905    0.0000 H   0  0  0  0  0  0  0  0  0  0  0  0
   26.3949   13.8137    0.0000 H   0  0  0  0  0  0  0  0  0  0  0  0
   25.6301   15.2015    0.0000 H   0  0  0  0  0  0  0  0  0  0  0  0
   23.8494   15.0853    0.0000 H   0  0  0  0  0  0  0  0  0  0  0  0
   23.4399   13.3484    0.0000 H   0  0  0  0  0  0  0  0  0  0  0  0
   22.2700   13.7535    0.0000 H   0  0  0  0  0  0  0  0  0  0  0  0
   21.4305   13.1728    0.0000 H   0  0  0  0  0  0  0  0  0  0  0  0
   18.4199   12.8892    0.0000 H   0  0  0  0  0  0  0  0  0  0  0  0
   19.0144   11.2067    0.0000 H   0  0  0  0  0  0  0  0  0  0  0  0
   20.3690   15.3588    0.0000 H   0  0  0  0  0  0  0  0  0  0  0  0
   21.3514   14.0533    0.0000 H   0  0  0  0  0  0  0  0  0  0  0  0
   17.6850   10.7821    0.0000 H   0  0  0  0  0  0  0  0  0  0  0  0
   17.2536    9.8935    0.0000 H   0  0  0  0  0  0  0  0  0  0  0  0
   15.6736    9.7743    0.0000 H   0  0  0  0  0  0  0  0  0  0  0  0
   15.0396    8.1063    0.0000 H   0  0  0  0  0  0  0  0  0  0  0  0
   16.4493    7.0123    0.0000 H   0  0  0  0  0  0  0  0  0  0  0  0
   15.5949    6.1164    0.0000 H   0  0  0  0  0  0  0  0  0  0  0  0
   16.1999    1.6801    0.0000 H   0  0  0  0  0  0  0  0  0  0  0  0
   15.7382    2.8516    0.0000 H   0  0  0  0  0  0  0  0  0  0  0  0
   16.7883    0.2022    0.0000 H   0  0  0  0  0  0  0  0  0  0  0  0
   16.2610    1.1567    0.0000 H   0  0  0  0  0  0  0  0  0  0  0  0
   17.9591   -1.3245    0.0000 H   0  0  0  0  0  0  0  0  0  0  0  0
   17.0477   -0.2316    0.0000 H   0  0  0  0  0  0  0  0  0  0  0  0
   18.4984   -2.1521    0.0000 H   0  0  0  0  0  0  0  0  0  0  0  0
   14.2496    4.4977    0.0000 H   0  0  0  0  0  0  0  0  0  0  0  0
   14.6786    6.0742    0.0000 H   0  0  0  0  0  0  0  0  0  0  0  0
   16.2933    6.3236    0.0000 H   0  0  0  0  0  0  0  0  0  0  0  0
   14.0907    5.4660    0.0000 H   0  0  0  0  0  0  0  0  0  0  0  0
   14.2591    2.0789    0.0000 H   0  0  0  0  0  0  0  0  0  0  0  0
   11.9617    0.4452    0.0000 H   0  0  0  0  0  0  0  0  0  0  0  0
   13.7034    1.2728    0.0000 H   0  0  0  0  0  0  0  0  0  0  0  0
    8.4941    0.7185    0.0000 H   0  0  0  0  0  0  0  0  0  0  0  0
   10.6366   -0.5730    0.0000 H   0  0  0  0  0  0  0  0  0  0  0  0
   10.3804    1.4034    0.0000 H   0  0  0  0  0  0  0  0  0  0  0  0
   10.0917    4.7455    0.0000 H   0  0  0  0  0  0  0  0  0  0  0  0
    7.6981    5.9867    0.0000 H   0  0  0  0  0  0  0  0  0  0  0  0
    9.3944    5.4328    0.0000 H   0  0  0  0  0  0  0  0  0  0  0  0
    6.6581    2.6663    0.0000 H   0  0  0  0  0  0  0  0  0  0  0  0
    4.1580    5.1807    0.0000 H   0  0  0  0  0  0  0  0  0  0  0  0
    5.0138    6.5725    0.0000 H   0  0  0  0  0  0  0  0  0  0  0  0
    6.7649    6.2295    0.0000 H   0  0  0  0  0  0  0  0  0  0  0  0
    4.1394    3.9195    0.0000 H   0  0  0  0  0  0  0  0  0  0  0  0
    4.6521    2.0605    0.0000 H   0  0  0  0  0  0  0  0  0  0  0  0
    6.6922    2.3806    0.0000 H   0  0  0  0  0  0  0  0  0  0  0  0
    6.1551    4.6800    0.0000 H   0  0  0  0  0  0  0  0  0  0  0  0
    6.3634    1.2208    0.0000 H   0  0  0  0  0  0  0  0  0  0  0  0
    4.2023   -0.2906    0.0000 H   0  0  0  0  0  0  0  0  0  0  0  0
    5.9440    0.5371    0.0000 H   0  0  0  0  0  0  0  0  0  0  0  0
    2.2334    0.0460    0.0000 H   0  0  0  0  0  0  0  0  0  0  0  0
    2.8034    0.6514    0.0000 H   0  0  0  0  0  0  0  0  0  0  0  0
    2.4765    3.8968    0.0000 H   0  0  0  0  0  0  0  0  0  0  0  0
   -0.7124    2.8355    0.0000 H   0  0  0  0  0  0  0  0  0  0  0  0
   -1.2741    5.9167    0.0000 H   0  0  0  0  0  0  0  0  0  0  0  0
   -0.1418    6.4547    0.0000 H   0  0  0  0  0  0  0  0  0  0  0  0
    1.6416    6.5144    0.0000 H   0  0  0  0  0  0  0  0  0  0  0  0
    2.2201    4.8263    0.0000 H   0  0  0  0  0  0  0  0  0  0  0  0
   -1.4282    3.9945    0.0000 H   0  0  0  0  0  0  0  0  0  0  0  0
   -1.2597    0.6074    0.0000 H   0  0  0  0  0  0  0  0  0  0  0  0
   -3.3774   -1.0615    0.0000 H   0  0  0  0  0  0  0  0  0  0  0  0
   -1.8154   -0.1987    0.0000 H   0  0  0  0  0  0  0  0  0  0  0  0
   -5.0229    2.0043    0.0000 H   0  0  0  0  0  0  0  0  0  0  0  0
   -7.0058   -0.9352    0.0000 H   0  0  0  0  0  0  0  0  0  0  0  0
   -5.9037   -2.1414    0.0000 H   0  0  0  0  0  0  0  0  0  0  0  0
   -4.2483   -1.4754    0.0000 H   0  0  0  0  0  0  0  0  0  0  0  0
   -6.5374    2.5839    0.0000 H   0  0  0  0  0  0  0  0  0  0  0  0
   -7.4775    0.7452    0.0000 H   0  0  0  0  0  0  0  0  0  0  0  0
   -6.5905   -0.2256    0.0000 H   0  0  0  0  0  0  0  0  0  0  0  0
   -5.1385   -0.0681    0.0000 H   0  0  0  0  0  0  0  0  0  0  0  0
   -5.2830    3.1610    0.0000 H   0  0  0  0  0  0  0  0  0  0  0  0
   -8.7109    3.7160    0.0000 H   0  0  0  0  0  0  0  0  0  0  0  0
   -8.5844    2.2443    0.0000 H   0  0  0  0  0  0  0  0  0  0  0  0
   -5.5393    4.0906    0.0000 H   0  0  0  0  0  0  0  0  0  0  0  0
   -7.8397    7.0835    0.0000 H   0  0  0  0  0  0  0  0  0  0  0  0
   -9.4016    6.2206    0.0000 H   0  0  0  0  0  0  0  0  0  0  0  0
   -9.0332    4.4746    0.0000 H   0  0  0  0  0  0  0  0  0  0  0  0
   -6.5917    7.2018    0.0000 H   0  0  0  0  0  0  0  0  0  0  0  0
   -4.8954    6.6479    0.0000 H   0  0  0  0  0  0  0  0  0  0  0  0
   -5.0495    4.7257    0.0000 H   0  0  0  0  0  0  0  0  0  0  0  0
   -9.1876    3.2587    0.0000 H   0  0  0  0  0  0  0  0  0  0  0  0
   -9.0191   -0.1284    0.0000 H   0  0  0  0  0  0  0  0  0  0  0  0
  -11.3166   -1.7621    0.0000 H   0  0  0  0  0  0  0  0  0  0  0  0
   -9.5748   -0.9344    0.0000 H   0  0  0  0  0  0  0  0  0  0  0  0
  -13.7981    0.4335    0.0000 H   0  0  0  0  0  0  0  0  0  0  0  0
  -12.7823    1.2685    0.0000 H   0  0  0  0  0  0  0  0  0  0  0  0
  -12.8979   -0.8039    0.0000 H   0  0  0  0  0  0  0  0  0  0  0  0
  -13.1866    2.5383    0.0000 H   0  0  0  0  0  0  0  0  0  0  0  0
  -16.3841    3.1419    0.0000 H   0  0  0  0  0  0  0  0  0  0  0  0
  -16.2313    1.3640    0.0000 H   0  0  0  0  0  0  0  0  0  0  0  0
  -15.4193    6.3125    0.0000 H   0  0  0  0  0  0  0  0  0  0  0  0
  -17.2430    4.4621    0.0000 H   0  0  0  0  0  0  0  0  0  0  0  0
  -16.9470    2.5230    0.0000 H   0  0  0  0  0  0  0  0  0  0  0  0
  -16.7786   -0.8641    0.0000 H   0  0  0  0  0  0  0  0  0  0  0  0
  -20.1371   -1.4702    0.0000 H   0  0  0  0  0  0  0  0  0  0  0  0
  -19.0760   -2.4978    0.0000 H   0  0  0  0  0  0  0  0  0  0  0  0
  -17.3343   -1.6702    0.0000 H   0  0  0  0  0  0  0  0  0  0  0  0
  -20.4749   -1.5559    0.0000 H   0  0  0  0  0  0  0  0  0  0  0  0
  -20.8018    1.6895    0.0000 H   0  0  0  0  0  0  0  0  0  0  0  0
  -23.9907    0.6283    0.0000 H   0  0  0  0  0  0  0  0  0  0  0  0
  -23.4119    4.2683    0.0000 H   0  0  0  0  0  0  0  0  0  0  0  0
  -21.6367    4.3071    0.0000 H   0  0  0  0  0  0  0  0  0  0  0  0
  -21.0581    2.6191    0.0000 H   0  0  0  0  0  0  0  0  0  0  0  0
  -25.7250    2.3644    0.0000 H   0  0  0  0  0  0  0  0  0  0  0  0
  -24.9475    0.9274    0.0000 H   0  0  0  0  0  0  0  0  0  0  0  0
  -25.7354    4.3619    0.0000 H   0  0  0  0  0  0  0  0  0  0  0  0
  -23.9937    5.1895    0.0000 H   0  0  0  0  0  0  0  0  0  0  0  0
  -22.8916    3.9833    0.0000 H   0  0  0  0  0  0  0  0  0  0  0  0
  -24.8826    1.7370    0.0000 H   0  0  0  0  0  0  0  0  0  0  0  0
  -24.5380   -1.5999    0.0000 H   0  0  0  0  0  0  0  0  0  0  0  0
  -26.8354   -3.2336    0.0000 H   0  0  0  0  0  0  0  0  0  0  0  0
  -25.0937   -2.4059    0.0000 H   0  0  0  0  0  0  0  0  0  0  0  0
  -29.3170   -1.0380    0.0000 H   0  0  0  0  0  0  0  0  0  0  0  0
  -28.3011   -0.2030    0.0000 H   0  0  0  0  0  0  0  0  0  0  0  0
  -31.1510   -4.0121    0.0000 H   0  0  0  0  0  0  0  0  0  0  0  0
  -31.2965   -1.6230    0.0000 H   0  0  0  0  0  0  0  0  0  0  0  0
  -28.4167   -2.2754    0.0000 H   0  0  0  0  0  0  0  0  0  0  0  0
  -28.7054    1.0668    0.0000 H   0  0  0  0  0  0  0  0  0  0  0  0
  -31.9030    1.6704    0.0000 H   0  0  0  0  0  0  0  0  0  0  0  0
  -31.7501   -0.1075    0.0000 H   0  0  0  0  0  0  0  0  0  0  0  0
  -32.4659    1.0515    0.0000 H   0  0  0  0  0  0  0  0  0  0  0  0
  -32.2974   -2.3356    0.0000 H   0  0  0  0  0  0  0  0  0  0  0  0
  -32.8531   -3.1417    0.0000 H   0  0  0  0  0  0  0  0  0  0  0  0
  -35.9815   -4.5414    0.0000 H   0  0  0  0  0  0  0  0  0  0  0  0
  -36.7080   -3.5198    0.0000 H   0  0  0  0  0  0  0  0  0  0  0  0
  -37.0764   -1.7738    0.0000 H   0  0  0  0  0  0  0  0  0  0  0  0
  -36.0606   -0.9388    0.0000 H   0  0  0  0  0  0  0  0  0  0  0  0
  -35.9937   -3.0274    0.0000 H   0  0  0  0  0  0  0  0  0  0  0  0
  -36.3207    0.2180    0.0000 H   0  0  0  0  0  0  0  0  0  0  0  0
  -39.6624    0.9346    0.0000 H   0  0  0  0  0  0  0  0  0  0  0  0
  -39.5095   -0.8432    0.0000 H   0  0  0  0  0  0  0  0  0  0  0  0
  -39.0753    2.6536    0.0000 H   0  0  0  0  0  0  0  0  0  0  0  0
  -37.1555    2.8356    0.0000 H   0  0  0  0  0  0  0  0  0  0  0  0
  -36.5770    1.1476    0.0000 H   0  0  0  0  0  0  0  0  0  0  0  0
  -40.2253    0.3157    0.0000 H   0  0  0  0  0  0  0  0  0  0  0  0
  -40.0568   -3.0714    0.0000 H   0  0  0  0  0  0  0  0  0  0  0  0
  -42.1745   -4.7403    0.0000 H   0  0  0  0  0  0  0  0  0  0  0  0
  -40.6125   -3.8774    0.0000 H   0  0  0  0  0  0  0  0  0  0  0  0
  -44.8358   -2.5095    0.0000 H   0  0  0  0  0  0  0  0  0  0  0  0
  -43.8200   -1.6745    0.0000 H   0  0  0  0  0  0  0  0  0  0  0  0
  -44.7009   -5.8202    0.0000 H   0  0  0  0  0  0  0  0  0  0  0  0
  -43.0454   -5.1541    0.0000 H   0  0  0  0  0  0  0  0  0  0  0  0
  -46.7709   -3.0899    0.0000 H   0  0  0  0  0  0  0  0  0  0  0  0
  -49.0164   -6.5987    0.0000 H   0  0  0  0  0  0  0  0  0  0  0  0
  -48.6608   -3.9360    0.0000 H   0  0  0  0  0  0  0  0  0  0  0  0
  -46.8774   -8.0734    0.0000 H   0  0  0  0  0  0  0  0  0  0  0  0
  -44.5308   -6.9583    0.0000 H   0  0  0  0  0  0  0  0  0  0  0  0
  -43.9356   -3.7469    0.0000 H   0  0  0  0  0  0  0  0  0  0  0  0
  -44.0801   -0.5177    0.0000 H   0  0  0  0  0  0  0  0  0  0  0  0
  -47.4218    0.1989    0.0000 H   0  0  0  0  0  0  0  0  0  0  0  0
  -47.2690   -1.5790    0.0000 H   0  0  0  0  0  0  0  0  0  0  0  0
  -44.9149    2.0999    0.0000 H   0  0  0  0  0  0  0  0  0  0  0  0
  -44.3364    0.4118    0.0000 H   0  0  0  0  0  0  0  0  0  0  0  0
  -47.9847   -0.4200    0.0000 H   0  0  0  0  0  0  0  0  0  0  0  0
  -47.8163   -3.8071    0.0000 H   0  0  0  0  0  0  0  0  0  0  0  0
  -50.1137   -5.4408    0.0000 H   0  0  0  0  0  0  0  0  0  0  0  0
  -48.2615   -4.2646    0.0000 H   0  0  0  0  0  0  0  0  0  0  0  0
  -52.5952   -3.2453    0.0000 H   0  0  0  0  0  0  0  0  0  0  0  0
  -51.3990   -2.3787    0.0000 H   0  0  0  0  0  0  0  0  0  0  0  0
  -54.4292   -6.2193    0.0000 H   0  0  0  0  0  0  0  0  0  0  0  0
  -54.2216   -3.6296    0.0000 H   0  0  0  0  0  0  0  0  0  0  0  0
  1  2  1  0
  2  3  1  0
  3  4  2  0
  4  5  1  0
  5  6  2  0
  6  7  1  0
  7  8  2  0
  7  9  1  0
  9 10  1  0
 10 11  1  0
 11 12  2  0
  9 13  1  0
 13 14  1  0
 14 15  2  0
 15 16  1  0
 16 17  2  0
 17 18  1  0
 16 19  1  0
 14 20  1  0
 20 21  1  0
 21 22  2  0
 22 23  1  0
 23 24  2  0
 24 25  1  0
 25 26  2  0
 25 27  1  0
  1 28  2  0
  1 29  1  0
 29 30  1  0
 30 31  1  0
 31 32  1  0
 32 33  2  0
 32 34  1  0
 34 35  1  0
 35 36  1  0
 36 37  1  0
 35 38  1  0
 38 39  2  0
 38 40  1  0
 41 40  1  6
 41 42  1  0
 42 43  1  0
 43 44  1  0
 44 45  1  0
 45 46  1  0
 46 47  1  0
 47 48  1  0
 41 49  1  0
 41 50  1  0
 50 51  2  0
 50 52  1  0
 52 53  1  0
 53 54  1  0
 54 55  1  0
 55 56  1  0
 56 57  2  0
 56 58  1  0
 53 59  1  0
 59 60  2  0
 59 61  1  0
 61 62  1  0
 62 63  1  0
 63 64  1  0
 64 65  1  0
 64 66  1  0
 62 67  1  0
 67 68  2  0
 67 69  1  0
 69 70  1  0
 70 71  1  0
 71 72  1  0
 70 73  1  0
 73 74  2  0
 73 75  1  0
 75 76  1  0
 76 77  1  0
 76 78  1  0
 78 79  2  0
 78 80  1  0
 80 81  1  0
 81 82  1  0
 82 83  1  0
 83 84  1  0
 84 85  2  0
 84 86  1  0
 81 87  1  0
 87 88  2  0
 87 89  1  0
 89 90  1  0
 90 91  1  0
 90 92  1  0
 92 93  2  0
 92 94  1  0
 94 95  1  0
 95 96  1  0
 96 97  1  0
 97 98  1  0
 98 99  1  0
 95100  1  0
 95101  1  1
101102  2  0
101103  1  0
103104  1  0
104105  1  0
105106  1  0
106107  1  0
106108  2  0
104109  1  0
109110  2  0
109111  1  0
111112  1  0
112113  1  0
113114  1  0
114115  1  0
114116  1  0
112117  1  0
117118  2  0
117119  1  0
119120  1  0
120121  1  0
121122  1  0
120123  1  0
123124  2  0
123125  1  0
125126  1  0
126127  1  0
127128  1  0
127129  1  0
126130  1  0
130131  2  0
130132  1  0
132133  1  0
133134  1  0
134135  1  0
135136  1  0
135137  1  0
133138  1  0
138139  2  0
138140  1  0
140141  1  0
141142  1  0
142143  1  0
143144  1  0
143145  1  0
141146  1  0
146147  2  0
146148  1  0
148149  1  0
149150  1  0
150151  1  0
151152  1  0
152153  2  0
152154  1  0
149155  1  0
155156  2  0
155157  1  0
157158  1  0
158159  1  0
159160  1  0
160161  1  0
160162  2  0
158163  1  0
163164  2  0
163165  1  0
165166  1  0
166167  1  0
166168  1  0
168169  2  0
168170  1  0
170171  1  0
171172  1  0
172173  1  0
172174  1  0
174175  1  0
171176  1  0
176177  2  0
176178  1  0
178179  1  0
179180  1  0
180181  1  0
181182  1  0
182183  1  0
182184  2  0
179185  1  0
185186  2  0
185187  1  0
187188  1  0
188189  1  0
189190  1  0
190191  2  0
190192  1  0
188193  1  0
193194  2  0
193195  1  0
195196  1  0
196197  1  0
197198  1  0
197199  1  0
196200  1  0
200201  2  0
200202  1  0
202203  1  0
203204  1  0
204205  1  0
203206  1  0
206207  2  0
206208  1  0
208209  1  0
209210  1  0
210211  1  0
211212  1  0
212213  1  0
213214  1  0
214215  2  3
214216  1  0
209217  1  0
217218  2  0
217219  1  0
219220  1  0
220221  1  0
221222  1  0
222223  1  0
223224  2  0
223225  1  0
220226  1  0
226227  2  0
226228  1  0
228229  1  0
229230  1  0
230231  1  0
231232  1  0
232233  1  0
232234  2  0
229235  1  0
235236  2  0
235237  1  0
  8  3  1  0
 11  6  1  0
 48 99  2  0
 18 13  2  0
 22  9  1  0
 26 21  1  0
  2238  1  0
  4239  1  0
  5240  1  0
  8241  1  0
 15242  1  0
 17243  1  0
 18244  1  0
 19245  1  0
 23246  1  0
 24247  1  0
 26248  1  0
 27249  1  0
 29250  1  0
 30251  1  0
 30252  1  0
 31253  1  0
 31254  1  0
 34255  1  0
 35256  1  1
 36257  1  0
 36258  1  0
 37259  1  0
 40260  1  0
 42261  1  0
 42262  1  0
 43263  1  0
 43264  1  0
 44265  1  0
 44266  1  0
 45267  1  0
 45268  1  0
 46269  1  0
 46270  1  0
 47271  1  0
 47272  1  0
 48273  1  0
 49274  1  0
 49275  1  0
 49276  1  0
 52277  1  0
 53278  1  6
 54279  1  0
 54280  1  0
 55281  1  0
 55282  1  0
 61283  1  0
 62284  1  6
 63285  1  0
 63286  1  0
 64287  1  0
 65288  1  0
 65289  1  0
 65290  1  0
 66291  1  0
 66292  1  0
 66293  1  0
 69294  1  0
 70295  1  6
 71296  1  0
 71297  1  0
 72298  1  0
 72299  1  0
 72300  1  0
 75301  1  0
 76302  1  6
 77303  1  0
 77304  1  0
 77305  1  0
 80306  1  0
 81307  1  6
 82308  1  0
 82309  1  0
 83310  1  0
 83311  1  0
 89312  1  0
 90313  1  6
 91314  1  0
 91315  1  0
 91316  1  0
 94317  1  0
 96318  1  0
 96319  1  0
 97320  1  0
 97321  1  0
 98322  1  0
 98323  1  0
 99324  1  0
100325  1  0
100326  1  0
100327  1  0
103328  1  0
104329  1  1
105330  1  0
105331  1  0
107332  1  0
107333  1  0
111334  1  0
112335  1  6
113336  1  0
113337  1  0
114338  1  0
115339  1  0
115340  1  0
115341  1  0
116342  1  0
116343  1  0
116344  1  0
119345  1  0
120346  1  1
121347  1  0
121348  1  0
122349  1  0
125350  1  0
126351  1  6
127352  1  1
128353  1  0
129354  1  0
129355  1  0
129356  1  0
132357  1  0
133358  1  1
134359  1  0
134360  1  0
135361  1  0
136362  1  0
136363  1  0
136364  1  0
137365  1  0
137366  1  0
137367  1  0
140368  1  0
141369  1  6
142370  1  0
142371  1  0
143372  1  0
144373  1  0
144374  1  0
144375  1  0
145376  1  0
145377  1  0
145378  1  0
148379  1  0
149380  1  1
150381  1  0
150382  1  0
151383  1  0
151384  1  0
157385  1  0
158386  1  6
159387  1  0
159388  1  0
161389  1  0
161390  1  0
165391  1  0
166392  1  1
167393  1  0
167394  1  0
167395  1  0
170396  1  0
171397  1  6
172398  1  1
173399  1  0
173400  1  0
173401  1  0
174402  1  0
174403  1  0
175404  1  0
175405  1  0
175406  1  0
178407  1  0
179408  1  1
180409  1  0
180410  1  0
181411  1  0
181412  1  0
183413  1  0
183414  1  0
187415  1  0
188416  1  6
189417  1  0
189418  1  0
195419  1  0
196420  1  1
197421  1  1
198422  1  0
199423  1  0
199424  1  0
199425  1  0
202426  1  0
203427  1  6
204428  1  0
204429  1  0
205430  1  0
205431  1  0
205432  1  0
208433  1  0
209434  1  1
210435  1  0
210436  1  0
211437  1  0
211438  1  0
212439  1  0
212440  1  0
213441  1  0
215442  1  0
215443  1  0
216444  1  0
216445  1  0
219446  1  0
220447  1  6
221448  1  0
221449  1  0
222450  1  0
222451  1  0
228452  1  0
229453  1  1
230454  1  0
230455  1  0
231456  1  0
231457  1  0
233458  1  0
233459  1  0
M  CHG  7  58  -1  86  -1 154  -1 192  -1 215   1 225  -1 237  -1
M  END
