
     RDKit          2D

382388  0  0  0  0  0  0  0  0999 V2000
  -22.1760    4.4666    0.0000 C   0  0  0  0  0  0  0  0  0  0  0  0
  -23.3644    5.3819    0.0000 N   0  0  0  0  0  0  0  0  0  0  0  0
  -23.1660    6.8687    0.0000 C   0  0  0  0  0  0  0  0  0  0  0  0
  -21.7791    7.4402    0.0000 C   0  0  0  0  0  0  0  0  0  0  0  0
  -21.5807    8.9271    0.0000 C   0  0  0  0  0  0  0  0  0  0  0  0
  -22.7691    9.8423    0.0000 C   0  0  0  0  0  0  0  0  0  0  0  0
  -24.1559    9.2708    0.0000 C   0  0  0  0  0  0  0  0  0  0  0  0
  -24.3544    7.7839    0.0000 C   0  0  0  0  0  0  0  0  0  0  0  0
  -25.1281   10.4131    0.0000 C   0  0  0  0  0  0  0  0  0  0  0  0
  -24.3420   11.6907    0.0000 O   0  0  0  0  0  0  0  0  0  0  0  0
  -22.8841   11.3379    0.0000 C   0  0  0  0  0  0  0  0  0  0  0  0
  -21.7418   12.3100    0.0000 O   0  0  0  0  0  0  0  0  0  0  0  0
  -25.9755   11.6508    0.0000 C   0  0  0  0  0  0  0  0  0  0  0  0
  -27.4711   11.5358    0.0000 C   0  0  0  0  0  0  0  0  0  0  0  0
  -28.3185   12.7735    0.0000 C   0  0  0  0  0  0  0  0  0  0  0  0
  -27.6703   14.1262    0.0000 C   0  0  0  0  0  0  0  0  0  0  0  0
  -26.1747   14.2412    0.0000 C   0  0  0  0  0  0  0  0  0  0  0  0
  -25.3273   13.0035    0.0000 C   0  0  0  0  0  0  0  0  0  0  0  0
  -28.5177   15.3639    0.0000 O   0  0  0  0  0  0  0  0  0  0  0  0
  -28.1192   10.1830    0.0000 O   0  0  0  0  0  0  0  0  0  0  0  0
  -27.2718    8.9453    0.0000 C   0  0  0  0  0  0  0  0  0  0  0  0
  -25.7762    9.0604    0.0000 C   0  0  0  0  0  0  0  0  0  0  0  0
  -25.6268    7.7690    0.0000 C   0  0  0  0  0  0  0  0  0  0  0  0
  -25.9725    7.0475    0.0000 C   0  0  0  0  0  0  0  0  0  0  0  0
  -26.7701    6.9862    0.0000 C   0  0  0  0  0  0  0  0  0  0  0  0
  -27.2221    7.6463    0.0000 C   0  0  0  0  0  0  0  0  0  0  0  0
  -27.7208    5.0022    0.0000 O   0  0  0  0  0  0  0  0  0  0  0  0
  -20.8692    5.2030    0.0000 S   0  0  0  0  0  0  0  0  0  0  0  0
  -22.3744    2.9798    0.0000 N   0  0  0  0  0  0  0  0  0  0  0  0
  -21.1860    2.0645    0.0000 C   0  0  0  0  0  0  0  0  0  0  0  0
  -21.3844    0.5777    0.0000 C   0  0  0  0  0  0  0  0  0  0  0  0
  -20.1960   -0.3375    0.0000 C   0  0  0  0  0  0  0  0  0  0  0  0
  -19.5544    0.1355    0.0000 O   0  0  0  0  0  0  0  0  0  0  0  0
  -20.3945   -1.8244    0.0000 N   0  0  0  0  0  0  0  0  0  0  0  0
  -19.2061   -2.7396    0.0000 C   0  0  0  0  0  0  0  0  0  0  0  0
  -18.5111   -1.4103    0.0000 C   0  0  0  0  0  0  0  0  0  0  0  0
  -19.3148   -0.1438    0.0000 C   0  0  0  0  0  0  0  0  0  0  0  0
  -18.6198    1.1855    0.0000 C   0  0  0  0  0  0  0  0  0  0  0  0
  -19.4235    2.4520    0.0000 N   0  0  0  0  0  0  0  0  0  0  0  0
  -18.7285    3.7813    0.0000 C   0  0  0  0  0  0  0  0  0  0  0  0
  -19.5322    5.0478    0.0000 N   0  0  0  0  0  0  0  0  0  0  0  0
  -17.2298    3.8440    0.0000 N   0  0  0  0  0  0  0  0  0  0  0  0
  -18.4024   -4.0061    0.0000 C   0  0  0  0  0  0  0  0  0  0  0  0
  -16.9037   -3.9434    0.0000 O   0  0  0  0  0  0  0  0  0  0  0  0
  -19.0974   -5.3354    0.0000 N   0  0  0  0  0  0  0  0  0  0  0  0
  -18.2937   -6.6019    0.0000 C   0  0  0  0  0  0  0  0  0  0  0  0
  -19.6805   -7.1735    0.0000 C   0  0  0  0  0  0  0  0  0  0  0  0
  -20.8689   -6.2582    0.0000 C   0  0  0  0  0  0  0  0  0  0  0  0
  -22.2557   -6.8298    0.0000 C   0  0  0  0  0  0  0  0  0  0  0  0
  -23.4441   -5.9145    0.0000 N   0  0  0  0  0  0  0  0  0  0  0  0
  -24.8310   -6.4861    0.0000 C   0  0  0  0  0  0  0  0  0  0  0  0
  -26.0194   -5.5708    0.0000 N   0  0  0  0  0  0  0  0  0  0  0  0
  -25.0294   -7.9729    0.0000 N   0  0  0  0  0  0  0  0  0  0  0  0
  -17.1053   -7.5172    0.0000 C   0  0  0  0  0  0  0  0  0  0  0  0
  -17.3037   -9.0040    0.0000 O   0  0  0  0  0  0  0  0  0  0  0  0
  -15.7184   -6.9456    0.0000 N   0  0  0  0  0  0  0  0  0  0  0  0
  -14.5300   -7.8609    0.0000 C   0  0  0  0  0  0  0  0  0  0  0  0
  -13.1432   -7.2893    0.0000 C   0  0  0  0  0  0  0  0  0  0  0  0
  -13.1275   -5.7894    0.0000 O   0  0  0  0  0  0  0  0  0  0  0  0
  -11.9548   -8.2046    0.0000 N   0  0  0  0  0  0  0  0  0  0  0  0
  -10.5679   -7.6330    0.0000 C   0  0  0  0  0  0  0  0  0  0  0  0
  -11.3716   -6.3665    0.0000 C   0  0  0  0  0  0  0  0  0  0  0  0
  -12.8668   -6.2461    0.0000 O   0  0  0  0  0  0  0  0  0  0  0  0
   -9.0692   -7.5703    0.0000 C   0  0  0  0  0  0  0  0  0  0  0  0
   -8.7166   -6.1123    0.0000 O   0  0  0  0  0  0  0  0  0  0  0  0
   -8.2655   -8.8368    0.0000 N   0  0  0  0  0  0  0  0  0  0  0  0
   -6.7669   -8.7740    0.0000 C   0  0  0  0  0  0  0  0  0  0  0  0
   -7.0889   -7.3090    0.0000 C   0  0  0  0  0  0  0  0  0  0  0  0
   -8.5187   -6.8554    0.0000 C   0  0  0  0  0  0  0  0  0  0  0  0
   -8.8407   -5.3904    0.0000 C   0  0  0  0  0  0  0  0  0  0  0  0
  -10.2705   -4.9368    0.0000 N   0  0  0  0  0  0  0  0  0  0  0  0
  -10.5926   -3.4718    0.0000 C   0  0  0  0  0  0  0  0  0  0  0  0
  -12.0223   -3.0182    0.0000 N   0  0  0  0  0  0  0  0  0  0  0  0
   -9.4849   -2.4603    0.0000 N   0  0  0  0  0  0  0  0  0  0  0  0
   -5.3371   -9.2276    0.0000 C   0  0  0  0  0  0  0  0  0  0  0  0
   -4.2294   -8.2162    0.0000 O   0  0  0  0  0  0  0  0  0  0  0  0
   -5.0150  -10.6926    0.0000 N   0  0  0  0  0  0  0  0  0  0  0  0
   -6.0110  -11.8143    0.0000 C   0  0  0  0  0  0  0  0  0  0  0  0
   -5.2520  -13.1081    0.0000 C   0  0  0  0  0  0  0  0  0  0  0  0
   -3.7869  -12.7860    0.0000 C   0  0  0  0  0  0  0  0  0  0  0  0
   -3.6405  -11.2932    0.0000 C   0  0  0  0  0  0  0  0  0  0  0  0
   -2.1712  -11.5949    0.0000 C   0  0  0  0  0  0  0  0  0  0  0  0
   -1.1752  -10.4732    0.0000 O   0  0  0  0  0  0  0  0  0  0  0  0
   -1.6977  -13.0182    0.0000 N   0  0  0  0  0  0  0  0  0  0  0  0
   -0.2284  -13.3199    0.0000 C   0  0  0  0  0  0  0  0  0  0  0  0
   -0.7806  -14.7145    0.0000 C   0  0  0  0  0  0  0  0  0  0  0  0
   -2.2268  -15.1128    0.0000 O   0  0  0  0  0  0  0  0  0  0  0  0
    1.2555  -13.1008    0.0000 C   0  0  0  0  0  0  0  0  0  0  0  0
    2.1872  -14.2764    0.0000 O   0  0  0  0  0  0  0  0  0  0  0  0
    1.8078  -11.7061    0.0000 N   0  0  0  0  0  0  0  0  0  0  0  0
    3.2917  -11.4871    0.0000 C   0  0  0  0  0  0  0  0  0  0  0  0
    3.8439  -10.0924    0.0000 C   0  0  0  0  0  0  0  0  0  0  0  0
    2.7759   -9.0392    0.0000 O   0  0  0  0  0  0  0  0  0  0  0  0
    5.3278   -9.8733    0.0000 N   0  0  0  0  0  0  0  0  0  0  0  0
    5.8801   -8.4787    0.0000 C   0  0  0  0  0  0  0  0  0  0  0  0
    4.4107   -8.1770    0.0000 C   0  0  0  0  0  0  0  0  0  0  0  0
    6.8760   -7.3570    0.0000 C   0  0  0  0  0  0  0  0  0  0  0  0
    6.0722   -6.0906    0.0000 O   0  0  0  0  0  0  0  0  0  0  0  0
    8.3453   -7.6587    0.0000 N   0  0  0  0  0  0  0  0  0  0  0  0
    9.3413   -6.5370    0.0000 C   0  0  0  0  0  0  0  0  0  0  0  0
    7.8940   -6.1428    0.0000 C   0  0  0  0  0  0  0  0  0  0  0  0
    6.5475   -5.4818    0.0000 C   0  0  0  0  0  0  0  0  0  0  0  0
    5.3505   -4.5779    0.0000 C   0  0  0  0  0  0  0  0  0  0  0  0
    4.3461   -3.4637    0.0000 C   0  0  0  0  0  0  0  0  0  0  0  0
    3.5707   -2.1797    0.0000 C   0  0  0  0  0  0  0  0  0  0  0  0
    3.0524   -0.7721    0.0000 C   0  0  0  0  0  0  0  0  0  0  0  0
    2.8098    0.7082    0.0000 C   0  0  0  0  0  0  0  0  0  0  0  0
    9.9040   -7.9275    0.0000 C   0  0  0  0  0  0  0  0  0  0  0  0
   10.8370   -6.6503    0.0000 C   0  0  0  0  0  0  0  0  0  0  0  0
   11.0490   -8.1352    0.0000 O   0  0  0  0  0  0  0  0  0  0  0  0
   12.3271   -6.4784    0.0000 N   0  0  0  0  0  0  0  0  0  0  0  0
   13.7578   -6.0276    0.0000 C   0  0  0  0  0  0  0  0  0  0  0  0
   14.9829   -6.8931    0.0000 C   0  0  0  0  0  0  0  0  0  0  0  0
   14.8460   -8.3868    0.0000 C   0  0  0  0  0  0  0  0  0  0  0  0
   16.0711   -9.2523    0.0000 C   0  0  0  0  0  0  0  0  0  0  0  0
   15.9342  -10.7460    0.0000 N   0  0  0  0  0  0  0  0  0  0  0  0
   17.1593  -11.6115    0.0000 C   0  0  0  0  0  0  0  0  0  0  0  0
   17.0224  -13.1052    0.0000 N   0  0  0  0  0  0  0  0  0  0  0  0
   18.5214  -10.9832    0.0000 N   0  0  0  0  0  0  0  0  0  0  0  0
   15.0773   -5.3142    0.0000 C   0  0  0  0  0  0  0  0  0  0  0  0
   16.0585   -6.4488    0.0000 O   0  0  0  0  0  0  0  0  0  0  0  0
   16.2379   -4.3640    0.0000 N   0  0  0  0  0  0  0  0  0  0  0  0
   17.1977   -3.2113    0.0000 C   0  0  0  0  0  0  0  0  0  0  0  0
   18.6963   -3.2770    0.0000 C   0  0  0  0  0  0  0  0  0  0  0  0
   19.3887   -4.6076    0.0000 C   0  0  0  0  0  0  0  0  0  0  0  0
   20.8872   -4.6734    0.0000 C   0  0  0  0  0  0  0  0  0  0  0  0
   21.5796   -6.0040    0.0000 N   0  0  0  0  0  0  0  0  0  0  0  0
   23.0782   -6.0697    0.0000 C   0  0  0  0  0  0  0  0  0  0  0  0
   23.7705   -7.4004    0.0000 N   0  0  0  0  0  0  0  0  0  0  0  0
   23.8844   -4.8048    0.0000 N   0  0  0  0  0  0  0  0  0  0  0  0
   17.9221   -1.8978    0.0000 C   0  0  0  0  0  0  0  0  0  0  0  0
   19.3609   -2.3217    0.0000 O   0  0  0  0  0  0  0  0  0  0  0  0
   18.3848   -0.4709    0.0000 N   0  0  0  0  0  0  0  0  0  0  0  0
   18.5690    1.0177    0.0000 C   0  0  0  0  0  0  0  0  0  0  0  0
   19.8652    1.7726    0.0000 C   0  0  0  0  0  0  0  0  0  0  0  0
   21.1671    1.0275    0.0000 C   0  0  0  0  0  0  0  0  0  0  0  0
   22.4633    1.7824    0.0000 C   0  0  0  0  0  0  0  0  0  0  0  0
   23.7651    1.0374    0.0000 N   0  0  0  0  0  0  0  0  0  0  0  0
   25.0613    1.7923    0.0000 C   0  0  0  0  0  0  0  0  0  0  0  0
   26.3632    1.0472    0.0000 N   0  0  0  0  0  0  0  0  0  0  0  0
   25.0557    3.2922    0.0000 N   0  0  0  0  0  0  0  0  0  0  0  0
   18.4682    2.5143    0.0000 C   0  0  0  0  0  0  0  0  0  0  0  0
   19.9079    2.9356    0.0000 O   0  0  0  0  0  0  0  0  0  0  0  0
   18.0860    3.9648    0.0000 N   0  0  0  0  0  0  0  0  0  0  0  0
   17.4362    5.3168    0.0000 C   0  0  0  0  0  0  0  0  0  0  0  0
   18.1185    6.6526    0.0000 C   0  0  0  0  0  0  0  0  0  0  0  0
   19.6166    6.7296    0.0000 C   0  0  0  0  0  0  0  0  0  0  0  0
   20.2989    8.0655    0.0000 C   0  0  0  0  0  0  0  0  0  0  0  0
   21.7969    8.1425    0.0000 N   0  0  0  0  0  0  0  0  0  0  0  0
   22.4792    9.4784    0.0000 C   0  0  0  0  0  0  0  0  0  0  0  0
   23.9772    9.5554    0.0000 N   0  0  0  0  0  0  0  0  0  0  0  0
   21.6635   10.7372    0.0000 N   0  0  0  0  0  0  0  0  0  0  0  0
   16.5423    6.5213    0.0000 C   0  0  0  0  0  0  0  0  0  0  0  0
   17.5257    7.6540    0.0000 O   0  0  0  0  0  0  0  0  0  0  0  0
   15.4366    7.5349    0.0000 N   0  0  0  0  0  0  0  0  0  0  0  0
   14.1590    8.3209    0.0000 C   0  0  0  0  0  0  0  0  0  0  0  0
   14.0108    9.8136    0.0000 C   0  0  0  0  0  0  0  0  0  0  0  0
   15.2294   10.6883    0.0000 C   0  0  0  0  0  0  0  0  0  0  0  0
   15.0812   12.1809    0.0000 C   0  0  0  0  0  0  0  0  0  0  0  0
   16.2997   13.0556    0.0000 N   0  0  0  0  0  0  0  0  0  0  0  0
   16.1515   14.5483    0.0000 C   0  0  0  0  0  0  0  0  0  0  0  0
   17.3701   15.4230    0.0000 N   0  0  0  0  0  0  0  0  0  0  0  0
   14.7847   15.1663    0.0000 N   0  0  0  0  0  0  0  0  0  0  0  0
   12.7558    8.8510    0.0000 C   0  0  0  0  0  0  0  0  0  0  0  0
   12.9707   10.3355    0.0000 O   0  0  0  0  0  0  0  0  0  0  0  0
   11.2776    9.1059    0.0000 N   0  0  0  0  0  0  0  0  0  0  0  0
    9.7779    9.0764    0.0000 C   0  0  0  0  0  0  0  0  0  0  0  0
    8.8462   10.2520    0.0000 C   0  0  0  0  0  0  0  0  0  0  0  0
    8.3109    8.7637    0.0000 C   0  0  0  0  0  0  0  0  0  0  0  0
    7.6891   10.1287    0.0000 O   0  0  0  0  0  0  0  0  0  0  0  0
    6.9295    8.1789    0.0000 N   0  0  0  0  0  0  0  0  0  0  0  0
    5.6838    7.3433    0.0000 C   0  0  0  0  0  0  0  0  0  0  0  0
    4.6188    6.2871    0.0000 C   0  0  0  0  0  0  0  0  0  0  0  0
    3.7729    5.0484    0.0000 C   0  0  0  0  0  0  0  0  0  0  0  0
    3.1766    3.6720    0.0000 C   0  0  0  0  0  0  0  0  0  0  0  0
    2.8517    2.2076    0.0000 C   0  0  0  0  0  0  0  0  0  0  0  0
    5.4883    8.8305    0.0000 C   0  0  0  0  0  0  0  0  0  0  0  0
    4.2645    7.8286    0.0000 C   0  0  0  0  0  0  0  0  0  0  0  0
    2.9294    7.1447    0.0000 O   0  0  0  0  0  0  0  0  0  0  0  0
    3.9751    9.3004    0.0000 N   0  0  0  0  0  0  0  0  0  0  0  0
    2.5557    9.7856    0.0000 C   0  0  0  0  0  0  0  0  0  0  0  0
    1.0560    9.7562    0.0000 C   0  0  0  0  0  0  0  0  0  0  0  0
    2.2663   11.2574    0.0000 C   0  0  0  0  0  0  0  0  0  0  0  0
    3.3962   12.2440    0.0000 O   0  0  0  0  0  0  0  0  0  0  0  0
    0.8469   11.7427    0.0000 N   0  0  0  0  0  0  0  0  0  0  0  0
    0.5575   13.2145    0.0000 C   0  0  0  0  0  0  0  0  0  0  0  0
    0.7889   14.6965    0.0000 C   0  0  0  0  0  0  0  0  0  0  0  0
   -0.8618   13.6998    0.0000 C   0  0  0  0  0  0  0  0  0  0  0  0
   -1.3285   15.1253    0.0000 O   0  0  0  0  0  0  0  0  0  0  0  0
   -1.9918   12.7132    0.0000 O   0  0  0  0  0  0  0  0  0  0  0  0
  -24.6712    4.6455    0.0000 H   0  0  0  0  0  0  0  0  0  0  0  0
  -20.5907    6.5250    0.0000 H   0  0  0  0  0  0  0  0  0  0  0  0
  -20.1938    9.4986    0.0000 H   0  0  0  0  0  0  0  0  0  0  0  0
  -25.5617    6.8938    0.0000 H   0  0  0  0  0  0  0  0  0  0  0  0
  -29.8141   12.6584    0.0000 H   0  0  0  0  0  0  0  0  0  0  0  0
  -25.5265   15.5939    0.0000 H   0  0  0  0  0  0  0  0  0  0  0  0
  -23.8317   13.1185    0.0000 H   0  0  0  0  0  0  0  0  0  0  0  0
  -27.8695   16.7166    0.0000 H   0  0  0  0  0  0  0  0  0  0  0  0
  -23.4332    7.9377    0.0000 H   0  0  0  0  0  0  0  0  0  0  0  0
  -24.8868    5.1382    0.0000 H   0  0  0  0  0  0  0  0  0  0  0  0
  -29.4156    7.4776    0.0000 H   0  0  0  0  0  0  0  0  0  0  0  0
  -29.2163    4.8871    0.0000 H   0  0  0  0  0  0  0  0  0  0  0  0
  -23.7613    2.4082    0.0000 H   0  0  0  0  0  0  0  0  0  0  0  0
  -20.4910    3.3938    0.0000 H   0  0  0  0  0  0  0  0  0  0  0  0
  -19.6890    1.9704    0.0000 H   0  0  0  0  0  0  0  0  0  0  0  0
  -22.8142    1.0313    0.0000 H   0  0  0  0  0  0  0  0  0  0  0  0
  -22.0794   -0.7516    0.0000 H   0  0  0  0  0  0  0  0  0  0  0  0
  -21.7813   -2.3959    0.0000 H   0  0  0  0  0  0  0  0  0  0  0  0
  -20.3138   -3.7510    0.0000 H   0  0  0  0  0  0  0  0  0  0  0  0
  -17.2883   -0.5415    0.0000 H   0  0  0  0  0  0  0  0  0  0  0  0
  -17.3227   -2.3256    0.0000 H   0  0  0  0  0  0  0  0  0  0  0  0
  -20.5032    0.7714    0.0000 H   0  0  0  0  0  0  0  0  0  0  0  0
  -20.6343   -0.8571    0.0000 H   0  0  0  0  0  0  0  0  0  0  0  0
  -17.5121    2.1969    0.0000 H   0  0  0  0  0  0  0  0  0  0  0  0
  -17.3287    0.4219    0.0000 H   0  0  0  0  0  0  0  0  0  0  0  0
  -20.8928    2.7537    0.0000 H   0  0  0  0  0  0  0  0  0  0  0  0
  -18.8372    6.3771    0.0000 H   0  0  0  0  0  0  0  0  0  0  0  0
  -21.0274    5.1682    0.0000 H   0  0  0  0  0  0  0  0  0  0  0  0
  -16.5348    5.1733    0.0000 H   0  0  0  0  0  0  0  0  0  0  0  0
  -16.4261    2.5775    0.0000 H   0  0  0  0  0  0  0  0  0  0  0  0
  -20.5925   -5.2150    0.0000 H   0  0  0  0  0  0  0  0  0  0  0  0
  -17.1859   -5.5905    0.0000 H   0  0  0  0  0  0  0  0  0  0  0  0
  -20.6567   -8.3124    0.0000 H   0  0  0  0  0  0  0  0  0  0  0  0
  -18.8768   -8.4400    0.0000 H   0  0  0  0  0  0  0  0  0  0  0  0
  -21.6726   -4.9917    0.0000 H   0  0  0  0  0  0  0  0  0  0  0  0
  -20.1973   -4.9170    0.0000 H   0  0  0  0  0  0  0  0  0  0  0  0
  -23.3635   -7.8412    0.0000 H   0  0  0  0  0  0  0  0  0  0  0  0
  -21.6124   -8.1848    0.0000 H   0  0  0  0  0  0  0  0  0  0  0  0
  -23.2457   -4.4277    0.0000 H   0  0  0  0  0  0  0  0  0  0  0  0
  -27.4062   -6.1424    0.0000 H   0  0  0  0  0  0  0  0  0  0  0  0
  -25.8210   -4.0840    0.0000 H   0  0  0  0  0  0  0  0  0  0  0  0
  -26.4163   -8.5445    0.0000 H   0  0  0  0  0  0  0  0  0  0  0  0
  -23.8410   -8.8882    0.0000 H   0  0  0  0  0  0  0  0  0  0  0  0
  -15.5200   -5.4588    0.0000 H   0  0  0  0  0  0  0  0  0  0  0  0
  -15.6377   -8.8723    0.0000 H   0  0  0  0  0  0  0  0  0  0  0  0
  -13.7263   -9.1274    0.0000 H   0  0  0  0  0  0  0  0  0  0  0  0
  -12.1532   -9.6914    0.0000 H   0  0  0  0  0  0  0  0  0  0  0  0
  -10.2459   -9.0980    0.0000 H   0  0  0  0  0  0  0  0  0  0  0  0
  -11.6937   -4.9015    0.0000 H   0  0  0  0  0  0  0  0  0  0  0  0
  -10.1643   -5.4764    0.0000 H   0  0  0  0  0  0  0  0  0  0  0  0
  -13.6740   -5.1628    0.0000 H   0  0  0  0  0  0  0  0  0  0  0  0
   -8.9605  -10.1661    0.0000 H   0  0  0  0  0  0  0  0  0  0  0  0
   -7.1451  -10.2256    0.0000 H   0  0  0  0  0  0  0  0  0  0  0  0
   -6.7107   -5.8575    0.0000 H   0  0  0  0  0  0  0  0  0  0  0  0
   -5.5902   -7.2462    0.0000 H   0  0  0  0  0  0  0  0  0  0  0  0
  -10.0174   -6.9182    0.0000 H   0  0  0  0  0  0  0  0  0  0  0  0
   -9.0710   -8.2500    0.0000 H   0  0  0  0  0  0  0  0  0  0  0  0
   -8.6423   -3.9036    0.0000 H   0  0  0  0  0  0  0  0  0  0  0  0
   -7.3609   -5.1454    0.0000 H   0  0  0  0  0  0  0  0  0  0  0  0
  -11.5900   -5.6501    0.0000 H   0  0  0  0  0  0  0  0  0  0  0  0
  -12.3444   -1.5531    0.0000 H   0  0  0  0  0  0  0  0  0  0  0  0
  -13.1301   -4.0296    0.0000 H   0  0  0  0  0  0  0  0  0  0  0  0
   -9.8069   -0.9953    0.0000 H   0  0  0  0  0  0  0  0  0  0  0  0
   -8.0551   -2.9139    0.0000 H   0  0  0  0  0  0  0  0  0  0  0  0
   -7.1499  -10.8381    0.0000 H   0  0  0  0  0  0  0  0  0  0  0  0
   -7.2183  -12.7044    0.0000 H   0  0  0  0  0  0  0  0  0  0  0  0
   -6.6180  -13.7277    0.0000 H   0  0  0  0  0  0  0  0  0  0  0  0
   -4.7785  -14.5314    0.0000 H   0  0  0  0  0  0  0  0  0  0  0  0
   -3.6198  -14.2767    0.0000 H   0  0  0  0  0  0  0  0  0  0  0  0
   -2.3290  -13.1389    0.0000 H   0  0  0  0  0  0  0  0  0  0  0  0
   -3.1869   -9.8634    0.0000 H   0  0  0  0  0  0  0  0  0  0  0  0
   -2.8230  -14.0101    0.0000 H   0  0  0  0  0  0  0  0  0  0  0  0
   -0.1864  -11.8205    0.0000 H   0  0  0  0  0  0  0  0  0  0  0  0
   -0.8225  -16.2139    0.0000 H   0  0  0  0  0  0  0  0  0  0  0  0
    0.6887  -15.0162    0.0000 H   0  0  0  0  0  0  0  0  0  0  0  0
   -2.8168  -16.3282    0.0000 H   0  0  0  0  0  0  0  0  0  0  0  0
    0.8761  -10.5306    0.0000 H   0  0  0  0  0  0  0  0  0  0  0  0
    3.2498  -12.9865    0.0000 H   0  0  0  0  0  0  0  0  0  0  0  0
    4.7610  -11.7887    0.0000 H   0  0  0  0  0  0  0  0  0  0  0  0
    6.2595  -11.0489    0.0000 H   0  0  0  0  0  0  0  0  0  0  0  0
    7.1576   -9.2647    0.0000 H   0  0  0  0  0  0  0  0  0  0  0  0
    3.2855   -9.1689    0.0000 H   0  0  0  0  0  0  0  0  0  0  0  0
    3.1331   -7.3910    0.0000 H   0  0  0  0  0  0  0  0  0  0  0  0
    4.9629   -6.7824    0.0000 H   0  0  0  0  0  0  0  0  0  0  0  0
    8.6417   -9.1291    0.0000 H   0  0  0  0  0  0  0  0  0  0  0  0
    7.8187   -7.6409    0.0000 H   0  0  0  0  0  0  0  0  0  0  0  0
    6.6014   -6.9038    0.0000 H   0  0  0  0  0  0  0  0  0  0  0  0
    6.0151   -6.8841    0.0000 H   0  0  0  0  0  0  0  0  0  0  0  0
    5.2060   -6.1529    0.0000 H   0  0  0  0  0  0  0  0  0  0  0  0
    5.0721   -6.0518    0.0000 H   0  0  0  0  0  0  0  0  0  0  0  0
    3.9664   -5.1561    0.0000 H   0  0  0  0  0  0  0  0  0  0  0  0
    3.6280   -4.7807    0.0000 H   0  0  0  0  0  0  0  0  0  0  0  0
    2.8776   -3.7696    0.0000 H   0  0  0  0  0  0  0  0  0  0  0  0
    2.6163   -3.3369    0.0000 H   0  0  0  0  0  0  0  0  0  0  0  0
    2.0709   -2.2021    0.0000 H   0  0  0  0  0  0  0  0  0  0  0  0
    1.8962   -1.7278    0.0000 H   0  0  0  0  0  0  0  0  0  0  0  0
    1.6183   -0.3321    0.0000 H   0  0  0  0  0  0  0  0  0  0  0  0
    1.3132    0.6074    0.0000 H   0  0  0  0  0  0  0  0  0  0  0  0
    9.1323   -9.2137    0.0000 H   0  0  0  0  0  0  0  0  0  0  0  0
   10.7651   -9.1557    0.0000 H   0  0  0  0  0  0  0  0  0  0  0  0
   11.3304   -7.4632    0.0000 H   0  0  0  0  0  0  0  0  0  0  0  0
   12.4587   -7.9726    0.0000 H   0  0  0  0  0  0  0  0  0  0  0  0
   13.3474   -7.4704    0.0000 H   0  0  0  0  0  0  0  0  0  0  0  0
   16.4302   -7.2873    0.0000 H   0  0  0  0  0  0  0  0  0  0  0  0
   15.9318   -5.7313    0.0000 H   0  0  0  0  0  0  0  0  0  0  0  0
   14.2064   -9.7436    0.0000 H   0  0  0  0  0  0  0  0  0  0  0  0
   13.3463   -8.3545    0.0000 H   0  0  0  0  0  0  0  0  0  0  0  0
   17.5184   -9.6465    0.0000 H   0  0  0  0  0  0  0  0  0  0  0  0
   16.8713   -7.9835    0.0000 H   0  0  0  0  0  0  0  0  0  0  0  0
   14.5721  -11.3743    0.0000 H   0  0  0  0  0  0  0  0  0  0  0  0
   18.2475  -13.9707    0.0000 H   0  0  0  0  0  0  0  0  0  0  0  0
   15.6603  -13.7335    0.0000 H   0  0  0  0  0  0  0  0  0  0  0  0
   19.7465  -11.8487    0.0000 H   0  0  0  0  0  0  0  0  0  0  0  0
   18.6583   -9.4895    0.0000 H   0  0  0  0  0  0  0  0  0  0  0  0
   17.1564   -5.5499    0.0000 H   0  0  0  0  0  0  0  0  0  0  0  0
   17.6326   -4.6469    0.0000 H   0  0  0  0  0  0  0  0  0  0  0  0
   20.1270   -2.8262    0.0000 H   0  0  0  0  0  0  0  0  0  0  0  0
   18.8665   -1.7867    0.0000 H   0  0  0  0  0  0  0  0  0  0  0  0
   19.5842   -6.0949    0.0000 H   0  0  0  0  0  0  0  0  0  0  0  0
   18.1096   -5.3912    0.0000 H   0  0  0  0  0  0  0  0  0  0  0  0
   22.3179   -4.2226    0.0000 H   0  0  0  0  0  0  0  0  0  0  0  0
   20.8745   -3.1734    0.0000 H   0  0  0  0  0  0  0  0  0  0  0  0
   20.7734   -7.2689    0.0000 H   0  0  0  0  0  0  0  0  0  0  0  0
   25.2691   -7.4661    0.0000 H   0  0  0  0  0  0  0  0  0  0  0  0
   22.9643   -8.6653    0.0000 H   0  0  0  0  0  0  0  0  0  0  0  0
   25.3829   -4.8705    0.0000 H   0  0  0  0  0  0  0  0  0  0  0  0
   23.1920   -3.4741    0.0000 H   0  0  0  0  0  0  0  0  0  0  0  0
   19.7986   -0.9719    0.0000 H   0  0  0  0  0  0  0  0  0  0  0  0
   19.7110    0.0451    0.0000 H   0  0  0  0  0  0  0  0  0  0  0  0
   20.8251    2.9253    0.0000 H   0  0  0  0  0  0  0  0  0  0  0  0
   19.2027    3.1184    0.0000 H   0  0  0  0  0  0  0  0  0  0  0  0
   22.1356   -0.1179    0.0000 H   0  0  0  0  0  0  0  0  0  0  0  0
   20.5147   -0.3232    0.0000 H   0  0  0  0  0  0  0  0  0  0  0  0
   23.4231    2.9351    0.0000 H   0  0  0  0  0  0  0  0  0  0  0  0
   21.6416    3.0374    0.0000 H   0  0  0  0  0  0  0  0  0  0  0  0
   23.7708   -0.4626    0.0000 H   0  0  0  0  0  0  0  0  0  0  0  0
   27.6594    1.8021    0.0000 H   0  0  0  0  0  0  0  0  0  0  0  0
   26.3689   -0.4528    0.0000 H   0  0  0  0  0  0  0  0  0  0  0  0
   26.3519    4.0471    0.0000 H   0  0  0  0  0  0  0  0  0  0  0  0
   23.7538    4.0373    0.0000 H   0  0  0  0  0  0  0  0  0  0  0  0
   19.5463    4.3077    0.0000 H   0  0  0  0  0  0  0  0  0  0  0  0
   18.9227    5.1159    0.0000 H   0  0  0  0  0  0  0  0  0  0  0  0
   18.3028    8.1413    0.0000 H   0  0  0  0  0  0  0  0  0  0  0  0
   16.8336    7.4265    0.0000 H   0  0  0  0  0  0  0  0  0  0  0  0
   21.0506    6.2897    0.0000 H   0  0  0  0  0  0  0  0  0  0  0  0
   19.7980    5.2407    0.0000 H   0  0  0  0  0  0  0  0  0  0  0  0
   20.4831    9.5541    0.0000 H   0  0  0  0  0  0  0  0  0  0  0  0
   18.9292    8.6770    0.0000 H   0  0  0  0  0  0  0  0  0  0  0  0
   22.6126    6.8837    0.0000 H   0  0  0  0  0  0  0  0  0  0  0  0
   24.6595   10.8912    0.0000 H   0  0  0  0  0  0  0  0  0  0  0  0
   24.7929    8.2966    0.0000 H   0  0  0  0  0  0  0  0  0  0  0  0
   22.3458   12.0730    0.0000 H   0  0  0  0  0  0  0  0  0  0  0  0
   20.1654   10.6601    0.0000 H   0  0  0  0  0  0  0  0  0  0  0  0
   16.4797    8.6129    0.0000 H   0  0  0  0  0  0  0  0  0  0  0  0
   15.5181    8.9556    0.0000 H   0  0  0  0  0  0  0  0  0  0  0  0
   13.3610   11.1655    0.0000 H   0  0  0  0  0  0  0  0  0  0  0  0
   12.5115    9.7699    0.0000 H   0  0  0  0  0  0  0  0  0  0  0  0
   16.6736   11.0935    0.0000 H   0  0  0  0  0  0  0  0  0  0  0  0
   16.1870    9.5338    0.0000 H   0  0  0  0  0  0  0  0  0  0  0  0
   14.4314   13.5329    0.0000 H   0  0  0  0  0  0  0  0  0  0  0  0
   13.5983   11.9549    0.0000 H   0  0  0  0  0  0  0  0  0  0  0  0
   17.6665   12.4377    0.0000 H   0  0  0  0  0  0  0  0  0  0  0  0
   17.2219   16.9157    0.0000 H   0  0  0  0  0  0  0  0  0  0  0  0
   18.7369   14.8050    0.0000 H   0  0  0  0  0  0  0  0  0  0  0  0
   14.6365   16.6589    0.0000 H   0  0  0  0  0  0  0  0  0  0  0  0
   13.5662   14.2916    0.0000 H   0  0  0  0  0  0  0  0  0  0  0  0
   11.3908   10.6016    0.0000 H   0  0  0  0  0  0  0  0  0  0  0  0
   10.4175   10.4332    0.0000 H   0  0  0  0  0  0  0  0  0  0  0  0
    9.3985   11.6466    0.0000 H   0  0  0  0  0  0  0  0  0  0  0  0
    7.6740   11.1879    0.0000 H   0  0  0  0  0  0  0  0  0  0  0  0
    7.6085    9.4046    0.0000 H   0  0  0  0  0  0  0  0  0  0  0  0
    6.3823    9.5755    0.0000 H   0  0  0  0  0  0  0  0  0  0  0  0
    3.1332    6.4950    0.0000 H   0  0  0  0  0  0  0  0  0  0  0  0
    3.8150    7.5536    0.0000 H   0  0  0  0  0  0  0  0  0  0  0  0
    2.2766    5.1545    0.0000 H   0  0  0  0  0  0  0  0  0  0  0  0
    2.7439    6.1398    0.0000 H   0  0  0  0  0  0  0  0  0  0  0  0
    1.7203    3.3128    0.0000 H   0  0  0  0  0  0  0  0  0  0  0  0
    2.0757    4.6908    0.0000 H   0  0  0  0  0  0  0  0  0  0  0  0
    1.3631    2.3918    0.0000 H   0  0  0  0  0  0  0  0  0  0  0  0
    4.2828    9.7231    0.0000 H   0  0  0  0  0  0  0  0  0  0  0  0
    5.8133   10.2949    0.0000 H   0  0  0  0  0  0  0  0  0  0  0  0
    6.9583    9.1294    0.0000 H   0  0  0  0  0  0  0  0  0  0  0  0
    4.9763   10.4173    0.0000 H   0  0  0  0  0  0  0  0  0  0  0  0
    2.3243    8.3036    0.0000 H   0  0  0  0  0  0  0  0  0  0  0  0
   -0.1281   10.6770    0.0000 H   0  0  0  0  0  0  0  0  0  0  0  0
   -0.3432    9.2156    0.0000 H   0  0  0  0  0  0  0  0  0  0  0  0
    1.3454    8.2844    0.0000 H   0  0  0  0  0  0  0  0  0  0  0  0
   -0.3948   10.9012    0.0000 H   0  0  0  0  0  0  0  0  0  0  0  0
    2.0572   13.2440    0.0000 H   0  0  0  0  0  0  0  0  0  0  0  0
    2.1881   15.2372    0.0000 H   0  0  0  0  0  0  0  0  0  0  0  0
    0.4995   16.1684    0.0000 H   0  0  0  0  0  0  0  0  0  0  0  0
   -0.7032   14.8501    0.0000 H   0  0  0  0  0  0  0  0  0  0  0  0
  1  2  1  0
  2  3  1  0
  3  4  2  0
  4  5  1  0
  5  6  2  0
  6  7  1  0
  7  8  2  0
  7  9  1  0
  9 10  1  0
 10 11  1  0
 11 12  2  0
  9 13  1  0
 13 14  1  0
 14 15  2  0
 15 16  1  0
 16 17  2  0
 17 18  1  0
 16 19  1  0
 14 20  1  0
 20 21  1  0
 21 22  2  0
 22 23  1  0
 23 24  2  0
 24 25  1  0
 25 26  2  0
 25 27  1  0
  1 28  2  0
  1 29  1  0
 29 30  1  0
 30 31  1  0
 31 32  1  0
 32 33  2  0
 32 34  1  0
 34 35  1  0
 35 36  1  0
 36 37  1  0
 37 38  1  0
 38 39  1  0
 39 40  1  0
 40 41  2  3
 40 42  1  0
 35 43  1  0
 43 44  2  0
 43 45  1  0
 45 46  1  0
 46 47  1  0
 47 48  1  0
 48 49  1  0
 49 50  1  0
 50 51  1  0
 51 52  2  3
 51 53  1  0
 46 54  1  0
 54 55  2  0
 54 56  1  0
 56 57  1  0
 57 58  1  0
 58 59  2  0
 58 60  1  0
 60 61  1  0
 61 62  1  0
 62 63  1  0
 61 64  1  0
 64 65  2  0
 64 66  1  0
 66 67  1  0
 67 68  1  0
 68 69  1  0
 69 70  1  0
 70 71  1  0
 71 72  1  0
 72 73  2  3
 72 74  1  0
 67 75  1  0
 75 76  2  0
 75 77  1  0
 77 78  1  0
 78 79  1  0
 79 80  1  0
 80 81  1  0
 81 82  1  0
 82 83  2  0
 82 84  1  0
 84 85  1  0
 85 86  1  0
 86 87  1  0
 85 88  1  0
 88 89  2  0
 88 90  1  0
 90 91  1  0
 91 92  1  0
 92 93  2  0
 92 94  1  0
 94 95  1  0
 95 96  1  0
 95 97  1  0
 97 98  2  0
 97 99  1  0
100 99  1  6
100101  1  0
101102  1  0
102103  1  0
103104  1  0
104105  1  0
105106  1  0
106107  1  0
100108  1  0
100109  1  0
109110  2  0
109111  1  0
111112  1  0
112113  1  0
113114  1  0
114115  1  0
115116  1  0
116117  1  0
117118  2  3
117119  1  0
112120  1  0
120121  2  0
120122  1  0
122123  1  0
123124  1  0
124125  1  0
125126  1  0
126127  1  0
127128  1  0
128129  2  3
128130  1  0
123131  1  0
131132  2  0
131133  1  0
133134  1  0
134135  1  0
135136  1  0
136137  1  0
137138  1  0
138139  1  0
139140  2  3
139141  1  0
134142  1  0
142143  2  0
142144  1  0
144145  1  0
145146  1  0
146147  1  0
147148  1  0
148149  1  0
149150  1  0
150151  2  3
150152  1  0
145153  1  0
153154  2  0
153155  1  0
155156  1  0
156157  1  0
157158  1  0
158159  1  0
159160  1  0
160161  1  0
161162  2  3
161163  1  0
156164  1  0
164165  2  0
164166  1  0
166167  1  0
167168  1  0
167169  1  0
169170  2  0
169171  1  0
171172  1  0
172173  1  0
173174  1  0
174175  1  0
175176  1  0
172177  1  0
172178  1  1
178179  2  0
178180  1  0
180181  1  0
181182  1  0
181183  1  0
183184  2  0
183185  1  0
185186  1  0
186187  1  0
186188  1  0
188189  2  0
188190  1  0
  8  3  1  0
 81 77  1  0
 11  6  1  0
107176  2  0
 18 13  2  0
 22  9  1  0
 26 21  1  0
  2191  1  0
  4192  1  0
  5193  1  0
  8194  1  0
 15195  1  0
 17196  1  0
 18197  1  0
 19198  1  0
 23199  1  0
 24200  1  0
 26201  1  0
 27202  1  0
 29203  1  0
 30204  1  0
 30205  1  0
 31206  1  0
 31207  1  0
 34208  1  0
 35209  1  1
 36210  1  0
 36211  1  0
 37212  1  0
 37213  1  0
 38214  1  0
 38215  1  0
 39216  1  0
 41217  1  0
 41218  1  0
 42219  1  0
 42220  1  0
 45221  1  0
 46222  1  6
 47223  1  0
 47224  1  0
 48225  1  0
 48226  1  0
 49227  1  0
 49228  1  0
 50229  1  0
 52230  1  0
 52231  1  0
 53232  1  0
 53233  1  0
 56234  1  0
 57235  1  0
 57236  1  0
 60237  1  0
 61238  1  1
 62239  1  0
 62240  1  0
 63241  1  0
 66242  1  0
 67243  1  1
 68244  1  0
 68245  1  0
 69246  1  0
 69247  1  0
 70248  1  0
 70249  1  0
 71250  1  0
 73251  1  0
 73252  1  0
 74253  1  0
 74254  1  0
 78255  1  0
 78256  1  0
 79257  1  0
 79258  1  0
 80259  1  0
 80260  1  0
 81261  1  0
 84262  1  0
 85263  1  6
 86264  1  0
 86265  1  0
 87266  1  0
 90267  1  0
 91268  1  0
 91269  1  0
 94270  1  0
 95271  1  1
 96272  1  0
 96273  1  0
 96274  1  0
 99275  1  0
101276  1  0
101277  1  0
102278  1  0
102279  1  0
103280  1  0
103281  1  0
104282  1  0
104283  1  0
105284  1  0
105285  1  0
106286  1  0
106287  1  0
107288  1  0
108289  1  0
108290  1  0
108291  1  0
111292  1  0
112293  1  6
113294  1  0
113295  1  0
114296  1  0
114297  1  0
115298  1  0
115299  1  0
116300  1  0
118301  1  0
118302  1  0
119303  1  0
119304  1  0
122305  1  0
123306  1  6
124307  1  0
124308  1  0
125309  1  0
125310  1  0
126311  1  0
126312  1  0
127313  1  0
129314  1  0
129315  1  0
130316  1  0
130317  1  0
133318  1  0
134319  1  6
135320  1  0
135321  1  0
136322  1  0
136323  1  0
137324  1  0
137325  1  0
138326  1  0
140327  1  0
140328  1  0
141329  1  0
141330  1  0
144331  1  0
145332  1  6
146333  1  0
146334  1  0
147335  1  0
147336  1  0
148337  1  0
148338  1  0
149339  1  0
151340  1  0
151341  1  0
152342  1  0
152343  1  0
155344  1  0
156345  1  6
157346  1  0
157347  1  0
158348  1  0
158349  1  0
159350  1  0
159351  1  0
160352  1  0
162353  1  0
162354  1  0
163355  1  0
163356  1  0
166357  1  0
167358  1  6
168359  1  0
168360  1  0
168361  1  0
171362  1  0
173363  1  0
173364  1  0
174365  1  0
174366  1  0
175367  1  0
175368  1  0
176369  1  0
177370  1  0
177371  1  0
177372  1  0
180373  1  0
181374  1  1
182375  1  0
182376  1  0
182377  1  0
185378  1  0
186379  1  6
187380  1  0
187381  1  0
187382  1  0
M  CHG  8  41   1  52   1  73   1 118   1 129   1 140   1 151   1 162   1
M  CHG  1 190  -1
M  END
