
     RDKit          2D

309317  0  0  0  0  0  0  0  0999 V2000
   27.0383   -3.7327    0.0000 C   0  0  0  0  0  0  0  0  0  0  0  0
   28.5043   -3.4151    0.0000 N   0  0  0  0  0  0  0  0  0  0  0  0
   29.5123   -4.5259    0.0000 C   0  0  0  0  0  0  0  0  0  0  0  0
   29.0543   -5.9542    0.0000 C   0  0  0  0  0  0  0  0  0  0  0  0
   30.0624   -7.0650    0.0000 C   0  0  0  0  0  0  0  0  0  0  0  0
   31.5284   -6.7474    0.0000 C   0  0  0  0  0  0  0  0  0  0  0  0
   31.9863   -5.3191    0.0000 C   0  0  0  0  0  0  0  0  0  0  0  0
   30.9783   -4.2083    0.0000 C   0  0  0  0  0  0  0  0  0  0  0  0
   33.4863   -5.3132    0.0000 C   0  0  0  0  0  0  0  0  0  0  0  0
   33.9554   -6.7380    0.0000 O   0  0  0  0  0  0  0  0  0  0  0  0
   32.7453   -7.6244    0.0000 C   0  0  0  0  0  0  0  0  0  0  0  0
   32.7512   -9.1244    0.0000 O   0  0  0  0  0  0  0  0  0  0  0  0
   34.9787   -5.4642    0.0000 C   0  0  0  0  0  0  0  0  0  0  0  0
   35.8556   -4.2472    0.0000 C   0  0  0  0  0  0  0  0  0  0  0  0
   37.3480   -4.3982    0.0000 C   0  0  0  0  0  0  0  0  0  0  0  0
   37.9635   -5.7661    0.0000 C   0  0  0  0  0  0  0  0  0  0  0  0
   37.0865   -6.9831    0.0000 C   0  0  0  0  0  0  0  0  0  0  0  0
   35.5941   -6.8321    0.0000 C   0  0  0  0  0  0  0  0  0  0  0  0
   39.4558   -5.9171    0.0000 O   0  0  0  0  0  0  0  0  0  0  0  0
   35.2402   -2.8793    0.0000 O   0  0  0  0  0  0  0  0  0  0  0  0
   33.7478   -2.7283    0.0000 C   0  0  0  0  0  0  0  0  0  0  0  0
   32.8709   -3.9453    0.0000 C   0  0  0  0  0  0  0  0  0  0  0  0
   31.7877   -3.2264    0.0000 C   0  0  0  0  0  0  0  0  0  0  0  0
   31.4595   -2.4968    0.0000 C   0  0  0  0  0  0  0  0  0  0  0  0
   31.9272   -1.8478    0.0000 C   0  0  0  0  0  0  0  0  0  0  0  0
   32.7231   -1.9283    0.0000 C   0  0  0  0  0  0  0  0  0  0  0  0
   31.0245    0.1585    0.0000 O   0  0  0  0  0  0  0  0  0  0  0  0
   26.5803   -5.1610    0.0000 S   0  0  0  0  0  0  0  0  0  0  0  0
   26.0302   -2.6219    0.0000 N   0  0  0  0  0  0  0  0  0  0  0  0
   24.5642   -2.9394    0.0000 C   0  0  0  0  0  0  0  0  0  0  0  0
   23.5562   -1.8287    0.0000 C   0  0  0  0  0  0  0  0  0  0  0  0
   22.0902   -2.1462    0.0000 C   0  0  0  0  0  0  0  0  0  0  0  0
   21.6322   -3.5746    0.0000 O   0  0  0  0  0  0  0  0  0  0  0  0
   21.0822   -1.0355    0.0000 N   0  0  0  0  0  0  0  0  0  0  0  0
   19.6162   -1.3530    0.0000 C   0  0  0  0  0  0  0  0  0  0  0  0
   18.3472   -2.1529    0.0000 C   0  0  0  0  0  0  0  0  0  0  0  0
   17.4283   -3.3385    0.0000 O   0  0  0  0  0  0  0  0  0  0  0  0
   16.9447   -1.6208    0.0000 C   0  0  0  0  0  0  0  0  0  0  0  0
   18.6081   -0.2423    0.0000 C   0  0  0  0  0  0  0  0  0  0  0  0
   19.2368    1.1197    0.0000 O   0  0  0  0  0  0  0  0  0  0  0  0
   17.1421   -0.5598    0.0000 N   0  0  0  0  0  0  0  0  0  0  0  0
   16.1341    0.5509    0.0000 C   0  0  0  0  0  0  0  0  0  0  0  0
   15.5668    1.9395    0.0000 C   0  0  0  0  0  0  0  0  0  0  0  0
   16.4856    3.1251    0.0000 C   0  0  0  0  0  0  0  0  0  0  0  0
   17.9718    2.9222    0.0000 C   0  0  0  0  0  0  0  0  0  0  0  0
   18.8907    4.1078    0.0000 C   0  0  0  0  0  0  0  0  0  0  0  0
   18.3234    5.4964    0.0000 C   0  0  0  0  0  0  0  0  0  0  0  0
   19.2423    6.6820    0.0000 O   0  0  0  0  0  0  0  0  0  0  0  0
   16.8372    5.6993    0.0000 C   0  0  0  0  0  0  0  0  0  0  0  0
   15.9183    4.5137    0.0000 C   0  0  0  0  0  0  0  0  0  0  0  0
   14.6681    0.2334    0.0000 C   0  0  0  0  0  0  0  0  0  0  0  0
   14.3877   -1.2402    0.0000 O   0  0  0  0  0  0  0  0  0  0  0  0
   13.6601    1.3441    0.0000 N   0  0  0  0  0  0  0  0  0  0  0  0
   12.1941    1.0266    0.0000 C   0  0  0  0  0  0  0  0  0  0  0  0
   11.4622   -0.2828    0.0000 C   0  0  0  0  0  0  0  0  0  0  0  0
   10.3769   -1.3182    0.0000 C   0  0  0  0  0  0  0  0  0  0  0  0
    9.0346   -1.9877    0.0000 C   0  0  0  0  0  0  0  0  0  0  0  0
    7.5546   -2.2318    0.0000 C   0  0  0  0  0  0  0  0  0  0  0  0
   13.2268   -0.0613    0.0000 C   0  0  0  0  0  0  0  0  0  0  0  0
   12.5075    2.4934    0.0000 C   0  0  0  0  0  0  0  0  0  0  0  0
   13.9824    2.7671    0.0000 O   0  0  0  0  0  0  0  0  0  0  0  0
   12.3747    3.9875    0.0000 N   0  0  0  0  0  0  0  0  0  0  0  0
   11.8074    5.3761    0.0000 C   0  0  0  0  0  0  0  0  0  0  0  0
   10.8559    6.5358    0.0000 C   0  0  0  0  0  0  0  0  0  0  0  0
   11.8608    7.6494    0.0000 O   0  0  0  0  0  0  0  0  0  0  0  0
    9.6050    7.3635    0.0000 N   0  0  0  0  0  0  0  0  0  0  0  0
    8.1656    7.7857    0.0000 C   0  0  0  0  0  0  0  0  0  0  0  0
    7.5298    9.1442    0.0000 C   0  0  0  0  0  0  0  0  0  0  0  0
    6.6658    7.7649    0.0000 C   0  0  0  0  0  0  0  0  0  0  0  0
    6.4216    9.2449    0.0000 O   0  0  0  0  0  0  0  0  0  0  0  0
    5.2387    7.3029    0.0000 N   0  0  0  0  0  0  0  0  0  0  0  0
    4.0112    6.4408    0.0000 C   0  0  0  0  0  0  0  0  0  0  0  0
    2.5526    6.7907    0.0000 C   0  0  0  0  0  0  0  0  0  0  0  0
    2.1263    8.2289    0.0000 C   0  0  0  0  0  0  0  0  0  0  0  0
    3.1587    9.3171    0.0000 C   0  0  0  0  0  0  0  0  0  0  0  0
    2.7324   10.7553    0.0000 C   0  0  0  0  0  0  0  0  0  0  0  0
    1.2738   11.1052    0.0000 C   0  0  0  0  0  0  0  0  0  0  0  0
    0.2414   10.0170    0.0000 C   0  0  0  0  0  0  0  0  0  0  0  0
    0.6677    8.5788    0.0000 C   0  0  0  0  0  0  0  0  0  0  0  0
    3.0923    5.2552    0.0000 C   0  0  0  0  0  0  0  0  0  0  0  0
    1.7830    5.9871    0.0000 O   0  0  0  0  0  0  0  0  0  0  0  0
    2.5637    3.8514    0.0000 N   0  0  0  0  0  0  0  0  0  0  0  0
    2.4724    2.3542    0.0000 C   0  0  0  0  0  0  0  0  0  0  0  0
    2.8264    0.8966    0.0000 C   0  0  0  0  0  0  0  0  0  0  0  0
    3.5944   -0.3919    0.0000 C   0  0  0  0  0  0  0  0  0  0  0  0
    4.7080   -1.3968    0.0000 C   0  0  0  0  0  0  0  0  0  0  0  0
    6.0684   -2.0289    0.0000 C   0  0  0  0  0  0  0  0  0  0  0  0
    1.1452    3.0532    0.0000 C   0  0  0  0  0  0  0  0  0  0  0  0
    1.2894    1.4320    0.0000 C   0  0  0  0  0  0  0  0  0  0  0  0
    1.1309   -0.0596    0.0000 O   0  0  0  0  0  0  0  0  0  0  0  0
   -0.1008    1.9954    0.0000 N   0  0  0  0  0  0  0  0  0  0  0  0
   -1.2838    1.0732    0.0000 C   0  0  0  0  0  0  0  0  0  0  0  0
   -2.0801   -0.1980    0.0000 C   0  0  0  0  0  0  0  0  0  0  0  0
   -3.5791   -0.1441    0.0000 C   0  0  0  0  0  0  0  0  0  0  0  0
   -4.3754   -1.4153    0.0000 N   0  0  0  0  0  0  0  0  0  0  0  0
   -4.1119    0.4489    0.0000 O   0  0  0  0  0  0  0  0  0  0  0  0
   -2.6740    1.6366    0.0000 C   0  0  0  0  0  0  0  0  0  0  0  0
   -2.8811    3.1222    0.0000 O   0  0  0  0  0  0  0  0  0  0  0  0
   -3.8570    0.7144    0.0000 N   0  0  0  0  0  0  0  0  0  0  0  0
   -5.2472    1.2778    0.0000 C   0  0  0  0  0  0  0  0  0  0  0  0
   -6.3608    2.2827    0.0000 C   0  0  0  0  0  0  0  0  0  0  0  0
   -7.7879    1.8207    0.0000 C   0  0  0  0  0  0  0  0  0  0  0  0
   -8.9015    2.8256    0.0000 C   0  0  0  0  0  0  0  0  0  0  0  0
   -8.9709    0.8985    0.0000 C   0  0  0  0  0  0  0  0  0  0  0  0
   -6.4302    0.3556    0.0000 C   0  0  0  0  0  0  0  0  0  0  0  0
   -6.4057   -1.1442    0.0000 O   0  0  0  0  0  0  0  0  0  0  0  0
   -7.8203    0.9190    0.0000 N   0  0  0  0  0  0  0  0  0  0  0  0
   -9.0034   -0.0032    0.0000 C   0  0  0  0  0  0  0  0  0  0  0  0
   -9.7996   -1.2744    0.0000 C   0  0  0  0  0  0  0  0  0  0  0  0
  -11.2987   -1.2204    0.0000 C   0  0  0  0  0  0  0  0  0  0  0  0
  -12.0014    0.1047    0.0000 C   0  0  0  0  0  0  0  0  0  0  0  0
  -13.5005    0.1587    0.0000 C   0  0  0  0  0  0  0  0  0  0  0  0
  -14.2967   -1.1125    0.0000 C   0  0  0  0  0  0  0  0  0  0  0  0
  -13.5939   -2.4377    0.0000 C   0  0  0  0  0  0  0  0  0  0  0  0
  -12.0949   -2.4916    0.0000 C   0  0  0  0  0  0  0  0  0  0  0  0
  -10.3935    0.5602    0.0000 C   0  0  0  0  0  0  0  0  0  0  0  0
  -10.7802    2.0095    0.0000 O   0  0  0  0  0  0  0  0  0  0  0  0
  -11.5765   -0.3620    0.0000 N   0  0  0  0  0  0  0  0  0  0  0  0
  -12.9667    0.2014    0.0000 C   0  0  0  0  0  0  0  0  0  0  0  0
  -14.0803    1.2063    0.0000 C   0  0  0  0  0  0  0  0  0  0  0  0
  -13.7669    2.6732    0.0000 C   0  0  0  0  0  0  0  0  0  0  0  0
  -14.8805    3.6781    0.0000 C   0  0  0  0  0  0  0  0  0  0  0  0
  -14.5671    5.1450    0.0000 N   0  0  0  0  0  0  0  0  0  0  0  0
  -16.3076    3.2161    0.0000 O   0  0  0  0  0  0  0  0  0  0  0  0
  -14.1497   -0.7208    0.0000 C   0  0  0  0  0  0  0  0  0  0  0  0
  -14.3082   -2.2124    0.0000 O   0  0  0  0  0  0  0  0  0  0  0  0
  -15.5399   -0.1574    0.0000 N   0  0  0  0  0  0  0  0  0  0  0  0
  -16.7229   -1.0796    0.0000 C   0  0  0  0  0  0  0  0  0  0  0  0
  -17.5192   -2.3508    0.0000 C   0  0  0  0  0  0  0  0  0  0  0  0
  -18.9379   -2.8377    0.0000 O   0  0  0  0  0  0  0  0  0  0  0  0
  -18.1131   -0.5162    0.0000 C   0  0  0  0  0  0  0  0  0  0  0  0
  -18.3202    0.9695    0.0000 O   0  0  0  0  0  0  0  0  0  0  0  0
  -19.2961   -1.4384    0.0000 N   0  0  0  0  0  0  0  0  0  0  0  0
  -20.6863   -0.8750    0.0000 C   0  0  0  0  0  0  0  0  0  0  0  0
  -21.7999    0.1300    0.0000 C   0  0  0  0  0  0  0  0  0  0  0  0
  -21.4864    1.5968    0.0000 C   0  0  0  0  0  0  0  0  0  0  0  0
  -21.8693   -1.7972    0.0000 C   0  0  0  0  0  0  0  0  0  0  0  0
  -21.6621   -3.2828    0.0000 O   0  0  0  0  0  0  0  0  0  0  0  0
  -23.2594   -1.2337    0.0000 N   0  0  0  0  0  0  0  0  0  0  0  0
  -24.4425   -2.1560    0.0000 C   0  0  0  0  0  0  0  0  0  0  0  0
  -25.2387   -3.4272    0.0000 C   0  0  0  0  0  0  0  0  0  0  0  0
  -26.7377   -3.3732    0.0000 C   0  0  0  0  0  0  0  0  0  0  0  0
  -27.5340   -4.6444    0.0000 C   0  0  0  0  0  0  0  0  0  0  0  0
  -29.0330   -4.5904    0.0000 N   0  0  0  0  0  0  0  0  0  0  0  0
  -29.8293   -5.8616    0.0000 C   0  0  0  0  0  0  0  0  0  0  0  0
  -31.3106   -5.6253    0.0000 N   0  0  0  0  0  0  0  0  0  0  0  0
  -29.1265   -7.1868    0.0000 N   0  0  0  0  0  0  0  0  0  0  0  0
  -25.8326   -1.5925    0.0000 C   0  0  0  0  0  0  0  0  0  0  0  0
  -26.0398   -0.1069    0.0000 O   0  0  0  0  0  0  0  0  0  0  0  0
  -27.0156   -2.5147    0.0000 N   0  0  0  0  0  0  0  0  0  0  0  0
  -28.4058   -1.9513    0.0000 C   0  0  0  0  0  0  0  0  0  0  0  0
  -29.5194   -0.9464    0.0000 C   0  0  0  0  0  0  0  0  0  0  0  0
  -29.2060    0.5205    0.0000 C   0  0  0  0  0  0  0  0  0  0  0  0
  -30.3196    1.5254    0.0000 C   0  0  0  0  0  0  0  0  0  0  0  0
  -30.0061    2.9922    0.0000 O   0  0  0  0  0  0  0  0  0  0  0  0
  -31.7467    1.0634    0.0000 O   0  0  0  0  0  0  0  0  0  0  0  0
  -29.5888   -2.8735    0.0000 C   0  0  0  0  0  0  0  0  0  0  0  0
  -29.7473   -4.3651    0.0000 O   0  0  0  0  0  0  0  0  0  0  0  0
  -30.9790   -2.3101    0.0000 N   0  0  0  0  0  0  0  0  0  0  0  0
  -32.1620   -3.2323    0.0000 C   0  0  0  0  0  0  0  0  0  0  0  0
  -32.9583   -4.5035    0.0000 C   0  0  0  0  0  0  0  0  0  0  0  0
  -34.4573   -4.4496    0.0000 C   0  0  0  0  0  0  0  0  0  0  0  0
  -33.5522   -2.6689    0.0000 C   0  0  0  0  0  0  0  0  0  0  0  0
  -34.8388   -3.4400    0.0000 O   0  0  0  0  0  0  0  0  0  0  0  0
  -33.7593   -1.1833    0.0000 O   0  0  0  0  0  0  0  0  0  0  0  0
   28.7847   -1.9415    0.0000 H   0  0  0  0  0  0  0  0  0  0  0  0
   27.5883   -6.2718    0.0000 H   0  0  0  0  0  0  0  0  0  0  0  0
   29.6044   -8.4934    0.0000 H   0  0  0  0  0  0  0  0  0  0  0  0
   31.0770   -2.7115    0.0000 H   0  0  0  0  0  0  0  0  0  0  0  0
   38.2250   -3.1812    0.0000 H   0  0  0  0  0  0  0  0  0  0  0  0
   37.7020   -8.3510    0.0000 H   0  0  0  0  0  0  0  0  0  0  0  0
   34.7172   -8.0491    0.0000 H   0  0  0  0  0  0  0  0  0  0  0  0
   40.0713   -7.2850    0.0000 H   0  0  0  0  0  0  0  0  0  0  0  0
   30.5015   -5.0113    0.0000 H   0  0  0  0  0  0  0  0  0  0  0  0
   29.3002   -2.0946    0.0000 H   0  0  0  0  0  0  0  0  0  0  0  0
   34.0093   -0.1434    0.0000 H   0  0  0  0  0  0  0  0  0  0  0  0
   31.9015    1.3755    0.0000 H   0  0  0  0  0  0  0  0  0  0  0  0
   26.4882   -1.1935    0.0000 H   0  0  0  0  0  0  0  0  0  0  0  0
   23.2953   -3.7393    0.0000 H   0  0  0  0  0  0  0  0  0  0  0  0
   25.1316   -4.3280    0.0000 H   0  0  0  0  0  0  0  0  0  0  0  0
   22.9889   -0.4401    0.0000 H   0  0  0  0  0  0  0  0  0  0  0  0
   24.8252   -1.0288    0.0000 H   0  0  0  0  0  0  0  0  0  0  0  0
   21.5401    0.3929    0.0000 H   0  0  0  0  0  0  0  0  0  0  0  0
   20.1835   -2.7416    0.0000 H   0  0  0  0  0  0  0  0  0  0  0  0
   19.3552   -3.2637    0.0000 H   0  0  0  0  0  0  0  0  0  0  0  0
   17.9957   -4.7271    0.0000 H   0  0  0  0  0  0  0  0  0  0  0  0
   15.7511   -2.2537    0.0000 H   0  0  0  0  0  0  0  0  0  0  0  0
   16.0120   -0.3431    0.0000 H   0  0  0  0  0  0  0  0  0  0  0  0
   17.2746    0.0244    0.0000 H   0  0  0  0  0  0  0  0  0  0  0  0
   16.5135   -1.9218    0.0000 H   0  0  0  0  0  0  0  0  0  0  0  0
   17.4031    1.3508    0.0000 H   0  0  0  0  0  0  0  0  0  0  0  0
   14.8575    3.2612    0.0000 H   0  0  0  0  0  0  0  0  0  0  0  0
   14.2098    1.3003    0.0000 H   0  0  0  0  0  0  0  0  0  0  0  0
   18.7042    1.6131    0.0000 H   0  0  0  0  0  0  0  0  0  0  0  0
   20.3769    3.9048    0.0000 H   0  0  0  0  0  0  0  0  0  0  0  0
   18.6749    8.0705    0.0000 H   0  0  0  0  0  0  0  0  0  0  0  0
   16.2698    7.0879    0.0000 H   0  0  0  0  0  0  0  0  0  0  0  0
   14.4679    4.8963    0.0000 H   0  0  0  0  0  0  0  0  0  0  0  0
   14.1180    2.7725    0.0000 H   0  0  0  0  0  0  0  0  0  0  0  0
   12.9298   -0.5926    0.0000 H   0  0  0  0  0  0  0  0  0  0  0  0
   11.9596   -1.6979    0.0000 H   0  0  0  0  0  0  0  0  0  0  0  0
   11.5894   -2.2012    0.0000 H   0  0  0  0  0  0  0  0  0  0  0  0
   10.6173   -2.7988    0.0000 H   0  0  0  0  0  0  0  0  0  0  0  0
   10.0727   -3.0705    0.0000 H   0  0  0  0  0  0  0  0  0  0  0  0
    8.6484   -3.4371    0.0000 H   0  0  0  0  0  0  0  0  0  0  0  0
    7.5754   -3.7317    0.0000 H   0  0  0  0  0  0  0  0  0  0  0  0
   12.8719   -1.6890    0.0000 H   0  0  0  0  0  0  0  0  0  0  0  0
   14.2139   -1.1351    0.0000 H   0  0  0  0  0  0  0  0  0  0  0  0
   14.4074    0.5249    0.0000 H   0  0  0  0  0  0  0  0  0  0  0  0
   13.7783    4.5166    0.0000 H   0  0  0  0  0  0  0  0  0  0  0  0
   12.4731    6.7203    0.0000 H   0  0  0  0  0  0  0  0  0  0  0  0
   13.3064    5.3221    0.0000 H   0  0  0  0  0  0  0  0  0  0  0  0
   10.2370    8.7238    0.0000 H   0  0  0  0  0  0  0  0  0  0  0  0
    9.1425    8.9240    0.0000 H   0  0  0  0  0  0  0  0  0  0  0  0
    8.3884   10.3742    0.0000 H   0  0  0  0  0  0  0  0  0  0  0  0
    6.4676   10.2034    0.0000 H   0  0  0  0  0  0  0  0  0  0  0  0
    6.1301    8.6048    0.0000 H   0  0  0  0  0  0  0  0  0  0  0  0
    4.7378    8.7168    0.0000 H   0  0  0  0  0  0  0  0  0  0  0  0
    3.7302    7.9142    0.0000 H   0  0  0  0  0  0  0  0  0  0  0  0
    1.0622    6.6207    0.0000 H   0  0  0  0  0  0  0  0  0  0  0  0
    2.1017    5.3601    0.0000 H   0  0  0  0  0  0  0  0  0  0  0  0
    4.6490    9.1476    0.0000 H   0  0  0  0  0  0  0  0  0  0  0  0
    3.7648   11.8435    0.0000 H   0  0  0  0  0  0  0  0  0  0  0  0
    0.8475   12.5434    0.0000 H   0  0  0  0  0  0  0  0  0  0  0  0
   -1.2172   10.3669    0.0000 H   0  0  0  0  0  0  0  0  0  0  0  0
   -0.3647    7.4906    0.0000 H   0  0  0  0  0  0  0  0  0  0  0  0
    1.0968    4.1649    0.0000 H   0  0  0  0  0  0  0  0  0  0  0  0
    1.9678   -0.3334    0.0000 H   0  0  0  0  0  0  0  0  0  0  0  0
    1.3290    0.8084    0.0000 H   0  0  0  0  0  0  0  0  0  0  0  0
    2.9657   -1.7539    0.0000 H   0  0  0  0  0  0  0  0  0  0  0  0
    2.1895   -0.9176    0.0000 H   0  0  0  0  0  0  0  0  0  0  0  0
    4.6914   -2.8968    0.0000 H   0  0  0  0  0  0  0  0  0  0  0  0
    3.4176   -2.1616    0.0000 H   0  0  0  0  0  0  0  0  0  0  0  0
    5.6462   -3.4682    0.0000 H   0  0  0  0  0  0  0  0  0  0  0  0
   -0.2796    2.5842    0.0000 H   0  0  0  0  0  0  0  0  0  0  0  0
    0.2801    4.2786    0.0000 H   0  0  0  0  0  0  0  0  0  0  0  0
    1.7499    4.4259    0.0000 H   0  0  0  0  0  0  0  0  0  0  0  0
   -0.4875    3.4447    0.0000 H   0  0  0  0  0  0  0  0  0  0  0  0
   -0.1702    0.0683    0.0000 H   0  0  0  0  0  0  0  0  0  0  0  0
   -2.3935   -1.6649    0.0000 H   0  0  0  0  0  0  0  0  0  0  0  0
   -0.6899   -0.7614    0.0000 H   0  0  0  0  0  0  0  0  0  0  0  0
   -5.8698   -1.5444    0.0000 H   0  0  0  0  0  0  0  0  0  0  0  0
   -3.6726   -2.7404    0.0000 H   0  0  0  0  0  0  0  0  0  0  0  0
   -4.0155   -0.7772    0.0000 H   0  0  0  0  0  0  0  0  0  0  0  0
   -4.4509    2.5490    0.0000 H   0  0  0  0  0  0  0  0  0  0  0  0
   -6.8968    3.6837    0.0000 H   0  0  0  0  0  0  0  0  0  0  0  0
   -5.1778    3.2049    0.0000 H   0  0  0  0  0  0  0  0  0  0  0  0
   -7.7897    0.3207    0.0000 H   0  0  0  0  0  0  0  0  0  0  0  0
  -10.3980    2.7227    0.0000 H   0  0  0  0  0  0  0  0  0  0  0  0
   -9.6043    4.1508    0.0000 H   0  0  0  0  0  0  0  0  0  0  0  0
   -7.8397    3.8852    0.0000 H   0  0  0  0  0  0  0  0  0  0  0  0
  -10.2820    1.6272    0.0000 H   0  0  0  0  0  0  0  0  0  0  0  0
   -9.7672   -0.3727    0.0000 H   0  0  0  0  0  0  0  0  0  0  0  0
   -7.7431    0.0369    0.0000 H   0  0  0  0  0  0  0  0  0  0  0  0
   -8.3808    2.3104    0.0000 H   0  0  0  0  0  0  0  0  0  0  0  0
   -8.0205   -1.1364    0.0000 H   0  0  0  0  0  0  0  0  0  0  0  0
  -10.1131   -2.7413    0.0000 H   0  0  0  0  0  0  0  0  0  0  0  0
   -8.4095   -1.8378    0.0000 H   0  0  0  0  0  0  0  0  0  0  0  0
  -11.5364    1.5309    0.0000 H   0  0  0  0  0  0  0  0  0  0  0  0
  -14.5030    1.2745    0.0000 H   0  0  0  0  0  0  0  0  0  0  0  0
  -15.7957   -1.0585    0.0000 H   0  0  0  0  0  0  0  0  0  0  0  0
  -14.3902   -3.7089    0.0000 H   0  0  0  0  0  0  0  0  0  0  0  0
  -11.3921   -3.8168    0.0000 H   0  0  0  0  0  0  0  0  0  0  0  0
  -11.7350   -1.8536    0.0000 H   0  0  0  0  0  0  0  0  0  0  0  0
  -12.0214    1.3661    0.0000 H   0  0  0  0  0  0  0  0  0  0  0  0
  -15.3915    1.9350    0.0000 H   0  0  0  0  0  0  0  0  0  0  0  0
  -15.1605    0.1656    0.0000 H   0  0  0  0  0  0  0  0  0  0  0  0
  -12.9706    3.9444    0.0000 H   0  0  0  0  0  0  0  0  0  0  0  0
  -12.3184    2.2835    0.0000 H   0  0  0  0  0  0  0  0  0  0  0  0
  -15.6807    6.1499    0.0000 H   0  0  0  0  0  0  0  0  0  0  0  0
  -13.1400    5.6070    0.0000 H   0  0  0  0  0  0  0  0  0  0  0  0
  -15.9266    1.2919    0.0000 H   0  0  0  0  0  0  0  0  0  0  0  0
  -15.6093   -2.0845    0.0000 H   0  0  0  0  0  0  0  0  0  0  0  0
  -17.8326   -3.8177    0.0000 H   0  0  0  0  0  0  0  0  0  0  0  0
  -16.1290   -2.9142    0.0000 H   0  0  0  0  0  0  0  0  0  0  0  0
  -19.8145   -3.5680    0.0000 H   0  0  0  0  0  0  0  0  0  0  0  0
  -19.2716   -2.9382    0.0000 H   0  0  0  0  0  0  0  0  0  0  0  0
  -19.7410    0.2897    0.0000 H   0  0  0  0  0  0  0  0  0  0  0  0
  -23.1110    0.8586    0.0000 H   0  0  0  0  0  0  0  0  0  0  0  0
  -22.8801   -0.9108    0.0000 H   0  0  0  0  0  0  0  0  0  0  0  0
  -22.6001    2.6017    0.0000 H   0  0  0  0  0  0  0  0  0  0  0  0
  -20.6902    2.8680    0.0000 H   0  0  0  0  0  0  0  0  0  0  0  0
  -20.0380    1.2071    0.0000 H   0  0  0  0  0  0  0  0  0  0  0  0
  -23.6461    0.2156    0.0000 H   0  0  0  0  0  0  0  0  0  0  0  0
  -23.3288   -3.1609    0.0000 H   0  0  0  0  0  0  0  0  0  0  0  0
  -25.3710   -4.9213    0.0000 H   0  0  0  0  0  0  0  0  0  0  0  0
  -23.8486   -3.9906    0.0000 H   0  0  0  0  0  0  0  0  0  0  0  0
  -28.1279   -2.8098    0.0000 H   0  0  0  0  0  0  0  0  0  0  0  0
  -27.1498   -1.9309    0.0000 H   0  0  0  0  0  0  0  0  0  0  0  0
  -27.8475   -6.1113    0.0000 H   0  0  0  0  0  0  0  0  0  0  0  0
  -26.2229   -5.3731    0.0000 H   0  0  0  0  0  0  0  0  0  0  0  0
  -30.0356   -3.4747    0.0000 H   0  0  0  0  0  0  0  0  0  0  0  0
  -32.1246   -7.0789    0.0000 H   0  0  0  0  0  0  0  0  0  0  0  0
  -31.8864   -4.4032    0.0000 H   0  0  0  0  0  0  0  0  0  0  0  0
  -29.9228   -8.4580    0.0000 H   0  0  0  0  0  0  0  0  0  0  0  0
  -27.6275   -7.2408    0.0000 H   0  0  0  0  0  0  0  0  0  0  0  0
  -27.1741   -4.0064    0.0000 H   0  0  0  0  0  0  0  0  0  0  0  0
  -27.4605   -0.7867    0.0000 H   0  0  0  0  0  0  0  0  0  0  0  0
  -30.8306   -0.2178    0.0000 H   0  0  0  0  0  0  0  0  0  0  0  0
  -30.5996   -1.9872    0.0000 H   0  0  0  0  0  0  0  0  0  0  0  0
  -28.4097    1.7917    0.0000 H   0  0  0  0  0  0  0  0  0  0  0  0
  -27.7575    0.1307    0.0000 H   0  0  0  0  0  0  0  0  0  0  0  0
  -31.3657   -0.8608    0.0000 H   0  0  0  0  0  0  0  0  0  0  0  0
  -31.0484   -4.2372    0.0000 H   0  0  0  0  0  0  0  0  0  0  0  0
  -33.2717   -5.9704    0.0000 H   0  0  0  0  0  0  0  0  0  0  0  0
  -31.4731   -4.7138    0.0000 H   0  0  0  0  0  0  0  0  0  0  0  0
  -35.2536   -5.7208    0.0000 H   0  0  0  0  0  0  0  0  0  0  0  0
  -35.8475   -3.8862    0.0000 H   0  0  0  0  0  0  0  0  0  0  0  0
  -34.6905   -2.9678    0.0000 H   0  0  0  0  0  0  0  0  0  0  0  0
  1  2  1  0
  2  3  1  0
  3  4  2  0
  4  5  1  0
  5  6  2  0
  6  7  1  0
  7  8  2  0
  7  9  1  0
  9 10  1  0
 10 11  1  0
 11 12  2  0
  9 13  1  0
 13 14  1  0
 14 15  2  0
 15 16  1  0
 16 17  2  0
 17 18  1  0
 16 19  1  0
 14 20  1  0
 20 21  1  0
 21 22  2  0
 22 23  1  0
 23 24  2  0
 24 25  1  0
 25 26  2  0
 25 27  1  0
  1 28  2  0
  1 29  1  0
 29 30  1  0
 30 31  1  0
 31 32  1  0
 32 33  2  0
 32 34  1  0
 34 35  1  0
 35 36  1  0
 36 37  1  0
 36 38  1  0
 35 39  1  0
 39 40  2  0
 39 41  1  0
 41 42  1  0
 42 43  1  0
 43 44  1  0
 44 45  2  0
 45 46  1  0
 46 47  2  0
 47 48  1  0
 47 49  1  0
 49 50  2  0
 42 51  1  0
 51 52  2  0
 51 53  1  0
 54 53  1  1
 54 55  1  0
 55 56  1  0
 56 57  1  0
 57 58  1  0
 54 59  1  0
 54 60  1  0
 60 61  2  0
 60 62  1  0
 62 63  1  0
 63 64  1  0
 64 65  2  0
 64 66  1  0
 66 67  1  0
 67 68  1  0
 67 69  1  0
 69 70  2  0
 69 71  1  0
 71 72  1  0
 72 73  1  0
 73 74  1  0
 74 75  2  0
 75 76  1  0
 76 77  2  0
 77 78  1  0
 78 79  2  0
 72 80  1  0
 80 81  2  0
 80 82  1  0
 82 83  1  0
 83 84  1  0
 84 85  1  0
 85 86  1  0
 86 87  1  0
 83 88  1  0
 83 89  1  1
 89 90  2  0
 89 91  1  0
 91 92  1  0
 92 93  1  0
 93 94  1  0
 94 95  1  0
 94 96  2  0
 92 97  1  0
 97 98  2  0
 97 99  1  0
 99100  1  0
100101  1  0
101102  1  0
102103  1  0
102104  1  0
100105  1  0
105106  2  0
105107  1  0
107108  1  0
108109  1  0
109110  1  0
110111  2  0
111112  1  0
112113  2  0
113114  1  0
114115  2  0
108116  1  0
116117  2  0
116118  1  0
118119  1  0
119120  1  0
120121  1  0
121122  1  0
122123  1  0
122124  2  0
119125  1  0
125126  2  0
125127  1  0
127128  1  0
128129  1  0
129130  1  0
128131  1  0
131132  2  0
131133  1  0
133134  1  0
134135  1  0
135136  1  0
134137  1  0
137138  2  0
137139  1  0
139140  1  0
140141  1  0
141142  1  0
142143  1  0
143144  1  0
144145  1  0
145146  2  3
145147  1  0
140148  1  0
148149  2  0
148150  1  0
150151  1  0
151152  1  0
152153  1  0
153154  1  0
154155  2  0
154156  1  0
151157  1  0
157158  2  0
157159  1  0
159160  1  0
160161  1  0
161162  1  0
160163  1  0
163164  2  0
163165  1  0
  8  3  1  0
 50 44  1  0
 79 74  1  0
115110  1  0
 11  6  1  0
 58 87  2  0
 18 13  2  0
 22  9  1  0
 26 21  1  0
  2166  1  0
  4167  1  0
  5168  1  0
  8169  1  0
 15170  1  0
 17171  1  0
 18172  1  0
 19173  1  0
 23174  1  0
 24175  1  0
 26176  1  0
 27177  1  0
 29178  1  0
 30179  1  0
 30180  1  0
 31181  1  0
 31182  1  0
 34183  1  0
 35184  1  1
 36185  1  1
 37186  1  0
 38187  1  0
 38188  1  0
 38189  1  0
 41190  1  0
 42191  1  6
 43192  1  0
 43193  1  0
 45194  1  0
 46195  1  0
 48196  1  0
 49197  1  0
 50198  1  0
 53199  1  0
 55200  1  0
 55201  1  0
 56202  1  0
 56203  1  0
 57204  1  0
 57205  1  0
 58206  1  0
 59207  1  0
 59208  1  0
 59209  1  0
 62210  1  0
 63211  1  0
 63212  1  0
 66213  1  0
 67214  1  6
 68215  1  0
 68216  1  0
 68217  1  0
 71218  1  0
 72219  1  6
 73220  1  0
 73221  1  0
 75222  1  0
 76223  1  0
 77224  1  0
 78225  1  0
 79226  1  0
 82227  1  0
 84228  1  0
 84229  1  0
 85230  1  0
 85231  1  0
 86232  1  0
 86233  1  0
 87234  1  0
 88235  1  0
 88236  1  0
 88237  1  0
 91238  1  0
 92239  1  1
 93240  1  0
 93241  1  0
 95242  1  0
 95243  1  0
 99244  1  0
100245  1  6
101246  1  0
101247  1  0
102248  1  0
103249  1  0
103250  1  0
103251  1  0
104252  1  0
104253  1  0
104254  1  0
107255  1  0
108256  1  1
109257  1  0
109258  1  0
111259  1  0
112260  1  0
113261  1  0
114262  1  0
115263  1  0
118264  1  0
119265  1  6
120266  1  0
120267  1  0
121268  1  0
121269  1  0
123270  1  0
123271  1  0
127272  1  0
128273  1  1
129274  1  0
129275  1  0
130276  1  0
133277  1  0
134278  1  6
135279  1  0
135280  1  0
136281  1  0
136282  1  0
136283  1  0
139284  1  0
140285  1  1
141286  1  0
141287  1  0
142288  1  0
142289  1  0
143290  1  0
143291  1  0
144292  1  0
146293  1  0
146294  1  0
147295  1  0
147296  1  0
150297  1  0
151298  1  6
152299  1  0
152300  1  0
153301  1  0
153302  1  0
159303  1  0
160304  1  1
161305  1  0
161306  1  0
162307  1  0
162308  1  0
162309  1  0
M  CHG  3 146   1 156  -1 165  -1
M  END
