
     RDKit          2D

302308  0  0  0  0  0  0  0  0999 V2000
   25.4464   -0.7669    0.0000 C   0  0  0  0  0  0  0  0  0  0  0  0
   26.7731   -1.4667    0.0000 N   0  0  0  0  0  0  0  0  0  0  0  0
   28.0425   -0.6676    0.0000 C   0  0  0  0  0  0  0  0  0  0  0  0
   27.9852    0.8313    0.0000 C   0  0  0  0  0  0  0  0  0  0  0  0
   29.2547    1.6304    0.0000 C   0  0  0  0  0  0  0  0  0  0  0  0
   30.5814    0.9306    0.0000 C   0  0  0  0  0  0  0  0  0  0  0  0
   30.6387   -0.5683    0.0000 C   0  0  0  0  0  0  0  0  0  0  0  0
   29.3693   -1.3674    0.0000 C   0  0  0  0  0  0  0  0  0  0  0  0
   32.0820   -0.9770    0.0000 C   0  0  0  0  0  0  0  0  0  0  0  0
   32.9166    0.2693    0.0000 O   0  0  0  0  0  0  0  0  0  0  0  0
   31.9892    1.4483    0.0000 C   0  0  0  0  0  0  0  0  0  0  0  0
   32.3979    2.8915    0.0000 O   0  0  0  0  0  0  0  0  0  0  0  0
   33.5601   -1.2326    0.0000 C   0  0  0  0  0  0  0  0  0  0  0  0
   34.0778   -2.6404    0.0000 C   0  0  0  0  0  0  0  0  0  0  0  0
   35.5558   -2.8960    0.0000 C   0  0  0  0  0  0  0  0  0  0  0  0
   36.5162   -1.7437    0.0000 C   0  0  0  0  0  0  0  0  0  0  0  0
   35.9985   -0.3359    0.0000 C   0  0  0  0  0  0  0  0  0  0  0  0
   34.5204   -0.0803    0.0000 C   0  0  0  0  0  0  0  0  0  0  0  0
   37.9943   -1.9993    0.0000 O   0  0  0  0  0  0  0  0  0  0  0  0
   33.1174   -3.7927    0.0000 O   0  0  0  0  0  0  0  0  0  0  0  0
   31.6393   -3.5371    0.0000 C   0  0  0  0  0  0  0  0  0  0  0  0
   31.1216   -2.1293    0.0000 C   0  0  0  0  0  0  0  0  0  0  0  0
   29.8851   -2.5307    0.0000 C   0  0  0  0  0  0  0  0  0  0  0  0
   29.3729   -3.1452    0.0000 C   0  0  0  0  0  0  0  0  0  0  0  0
   29.6491   -3.8961    0.0000 C   0  0  0  0  0  0  0  0  0  0  0  0
   30.4374   -4.0324    0.0000 C   0  0  0  0  0  0  0  0  0  0  0  0
   28.2405   -5.5860    0.0000 O   0  0  0  0  0  0  0  0  0  0  0  0
   25.3891    0.7320    0.0000 S   0  0  0  0  0  0  0  0  0  0  0  0
   24.1769   -1.5660    0.0000 N   0  0  0  0  0  0  0  0  0  0  0  0
   22.8502   -0.8662    0.0000 C   0  0  0  0  0  0  0  0  0  0  0  0
   21.5808   -1.6653    0.0000 C   0  0  0  0  0  0  0  0  0  0  0  0
   20.2540   -0.9655    0.0000 O   0  0  0  0  0  0  0  0  0  0  0  0
   18.9846   -1.7646    0.0000 C   0  0  0  0  0  0  0  0  0  0  0  0
   17.6578   -1.0647    0.0000 C   0  0  0  0  0  0  0  0  0  0  0  0
   16.3884   -1.8638    0.0000 O   0  0  0  0  0  0  0  0  0  0  0  0
   15.0617   -1.1640    0.0000 C   0  0  0  0  0  0  0  0  0  0  0  0
   13.7922   -1.9631    0.0000 C   0  0  0  0  0  0  0  0  0  0  0  0
   14.0318   -3.4439    0.0000 O   0  0  0  0  0  0  0  0  0  0  0  0
   12.4655   -1.2633    0.0000 N   0  0  0  0  0  0  0  0  0  0  0  0
   11.1960   -2.0624    0.0000 C   0  0  0  0  0  0  0  0  0  0  0  0
   12.4424   -2.8970    0.0000 C   0  0  0  0  0  0  0  0  0  0  0  0
    9.7299   -2.3791    0.0000 C   0  0  0  0  0  0  0  0  0  0  0  0
    9.6769   -3.1745    0.0000 O   0  0  0  0  0  0  0  0  0  0  0  0
    8.7225   -1.2677    0.0000 N   0  0  0  0  0  0  0  0  0  0  0  0
    7.2563   -1.5845    0.0000 C   0  0  0  0  0  0  0  0  0  0  0  0
    7.8228   -2.9734    0.0000 C   0  0  0  0  0  0  0  0  0  0  0  0
    9.3089   -3.1772    0.0000 C   0  0  0  0  0  0  0  0  0  0  0  0
   10.3473   -2.0948    0.0000 C   0  0  0  0  0  0  0  0  0  0  0  0
   11.6977   -2.7478    0.0000 N   0  0  0  0  0  0  0  0  0  0  0  0
   11.4938   -4.2339    0.0000 C   0  0  0  0  0  0  0  0  0  0  0  0
   10.0175   -4.4993    0.0000 N   0  0  0  0  0  0  0  0  0  0  0  0
    5.7702   -1.3806    0.0000 C   0  0  0  0  0  0  0  0  0  0  0  0
    5.1647   -2.7530    0.0000 O   0  0  0  0  0  0  0  0  0  0  0  0
    5.2037    0.0083    0.0000 N   0  0  0  0  0  0  0  0  0  0  0  0
    3.7176    0.2121    0.0000 C   0  0  0  0  0  0  0  0  0  0  0  0
    3.7749   -1.2868    0.0000 C   0  0  0  0  0  0  0  0  0  0  0  0
    5.1017   -1.9866    0.0000 C   0  0  0  0  0  0  0  0  0  0  0  0
    5.1590   -3.4855    0.0000 C   0  0  0  0  0  0  0  0  0  0  0  0
    6.5878   -2.1905    0.0000 C   0  0  0  0  0  0  0  0  0  0  0  0
    2.3909    0.9119    0.0000 C   0  0  0  0  0  0  0  0  0  0  0  0
    1.3525   -0.1706    0.0000 O   0  0  0  0  0  0  0  0  0  0  0  0
    2.3335    2.4108    0.0000 N   0  0  0  0  0  0  0  0  0  0  0  0
    1.0068    3.1106    0.0000 C   0  0  0  0  0  0  0  0  0  0  0  0
    0.9689    1.6111    0.0000 C   0  0  0  0  0  0  0  0  0  0  0  0
    0.6480    0.1458    0.0000 C   0  0  0  0  0  0  0  0  0  0  0  0
    0.0555   -1.2322    0.0000 C   0  0  0  0  0  0  0  0  0  0  0  0
   -0.7871   -2.4732    0.0000 C   0  0  0  0  0  0  0  0  0  0  0  0
   -1.8492   -3.5323    0.0000 C   0  0  0  0  0  0  0  0  0  0  0  0
   -3.0927   -4.3713    0.0000 C   0  0  0  0  0  0  0  0  0  0  0  0
   -4.4724   -4.9598    0.0000 C   0  0  0  0  0  0  0  0  0  0  0  0
    2.2230    3.9886    0.0000 C   0  0  0  0  0  0  0  0  0  0  0  0
    0.7602    4.5902    0.0000 C   0  0  0  0  0  0  0  0  0  0  0  0
    2.1518    5.1502    0.0000 O   0  0  0  0  0  0  0  0  0  0  0  0
    0.2380    5.9964    0.0000 N   0  0  0  0  0  0  0  0  0  0  0  0
   -0.5408    7.2783    0.0000 C   0  0  0  0  0  0  0  0  0  0  0  0
    0.0076    8.6745    0.0000 C   0  0  0  0  0  0  0  0  0  0  0  0
    1.4909    8.8976    0.0000 C   0  0  0  0  0  0  0  0  0  0  0  0
    2.0394   10.2937    0.0000 C   0  0  0  0  0  0  0  0  0  0  0  0
    2.9611    8.5999    0.0000 C   0  0  0  0  0  0  0  0  0  0  0  0
   -1.5482    8.3897    0.0000 C   0  0  0  0  0  0  0  0  0  0  0  0
   -0.6803    9.6131    0.0000 O   0  0  0  0  0  0  0  0  0  0  0  0
   -2.7477    9.2904    0.0000 N   0  0  0  0  0  0  0  0  0  0  0  0
   -4.0960    9.9477    0.0000 C   0  0  0  0  0  0  0  0  0  0  0  0
   -4.3894   11.4188    0.0000 C   0  0  0  0  0  0  0  0  0  0  0  0
   -3.2622   12.4084    0.0000 S   0  0  0  0  0  0  0  0  0  0  0  0
   -5.5443   10.3381    0.0000 C   0  0  0  0  0  0  0  0  0  0  0  0
   -5.4756   11.8365    0.0000 O   0  0  0  0  0  0  0  0  0  0  0  0
   -7.0404   10.4472    0.0000 N   0  0  0  0  0  0  0  0  0  0  0  0
   -8.5300   10.2713    0.0000 C   0  0  0  0  0  0  0  0  0  0  0  0
   -9.5722   11.3502    0.0000 C   0  0  0  0  0  0  0  0  0  0  0  0
   -9.1589   12.7921    0.0000 C   0  0  0  0  0  0  0  0  0  0  0  0
  -10.2010   13.8710    0.0000 C   0  0  0  0  0  0  0  0  0  0  0  0
   -8.2774   14.0058    0.0000 C   0  0  0  0  0  0  0  0  0  0  0  0
   -9.9594    9.8166    0.0000 C   0  0  0  0  0  0  0  0  0  0  0  0
  -10.7117   11.1143    0.0000 O   0  0  0  0  0  0  0  0  0  0  0  0
  -11.2770    9.0997    0.0000 N   0  0  0  0  0  0  0  0  0  0  0  0
  -12.4351    8.1463    0.0000 C   0  0  0  0  0  0  0  0  0  0  0  0
  -13.8950    8.4905    0.0000 C   0  0  0  0  0  0  0  0  0  0  0  0
  -14.3270    9.9269    0.0000 C   0  0  0  0  0  0  0  0  0  0  0  0
  -15.7870   10.2711    0.0000 C   0  0  0  0  0  0  0  0  0  0  0  0
  -16.2189   11.7076    0.0000 O   0  0  0  0  0  0  0  0  0  0  0  0
  -16.8150    9.1788    0.0000 O   0  0  0  0  0  0  0  0  0  0  0  0
  -13.3918    6.9910    0.0000 C   0  0  0  0  0  0  0  0  0  0  0  0
  -14.7262    7.6760    0.0000 O   0  0  0  0  0  0  0  0  0  0  0  0
  -14.1125    5.6755    0.0000 N   0  0  0  0  0  0  0  0  0  0  0  0
  -14.5713    4.2474    0.0000 C   0  0  0  0  0  0  0  0  0  0  0  0
  -15.9856    3.7476    0.0000 C   0  0  0  0  0  0  0  0  0  0  0  0
  -17.1256    4.7225    0.0000 C   0  0  0  0  0  0  0  0  0  0  0  0
  -18.5399    4.2227    0.0000 C   0  0  0  0  0  0  0  0  0  0  0  0
  -19.6799    5.1976    0.0000 C   0  0  0  0  0  0  0  0  0  0  0  0
  -21.0941    4.6979    0.0000 N   0  0  0  0  0  0  0  0  0  0  0  0
  -14.7516    2.7583    0.0000 C   0  0  0  0  0  0  0  0  0  0  0  0
  -16.2445    2.6131    0.0000 O   0  0  0  0  0  0  0  0  0  0  0  0
  -14.6467    1.2619    0.0000 N   0  0  0  0  0  0  0  0  0  0  0  0
  -14.2606   -0.1875    0.0000 C   0  0  0  0  0  0  0  0  0  0  0  0
  -15.1801   -1.3726    0.0000 C   0  0  0  0  0  0  0  0  0  0  0  0
  -16.6662   -1.1688    0.0000 C   0  0  0  0  0  0  0  0  0  0  0  0
  -17.5858   -2.3538    0.0000 C   0  0  0  0  0  0  0  0  0  0  0  0
  -17.9930   -0.4689    0.0000 C   0  0  0  0  0  0  0  0  0  0  0  0
  -13.6071   -1.5377    0.0000 C   0  0  0  0  0  0  0  0  0  0  0  0
  -14.7846   -2.4670    0.0000 O   0  0  0  0  0  0  0  0  0  0  0  0
  -12.7099   -2.7398    0.0000 N   0  0  0  0  0  0  0  0  0  0  0  0
  -11.6015   -3.7504    0.0000 C   0  0  0  0  0  0  0  0  0  0  0  0
  -10.3218   -4.5329    0.0000 C   0  0  0  0  0  0  0  0  0  0  0  0
   -8.9171   -5.0592    0.0000 C   0  0  0  0  0  0  0  0  0  0  0  0
   -7.4382   -5.3100    0.0000 C   0  0  0  0  0  0  0  0  0  0  0  0
   -5.9386   -5.2765    0.0000 C   0  0  0  0  0  0  0  0  0  0  0  0
  -12.9992   -4.2948    0.0000 C   0  0  0  0  0  0  0  0  0  0  0  0
  -11.7343   -5.2445    0.0000 C   0  0  0  0  0  0  0  0  0  0  0  0
  -10.7520   -6.3780    0.0000 O   0  0  0  0  0  0  0  0  0  0  0  0
  -13.0947   -5.8765    0.0000 N   0  0  0  0  0  0  0  0  0  0  0  0
  -13.2276   -7.3706    0.0000 C   0  0  0  0  0  0  0  0  0  0  0  0
  -14.5880   -8.0025    0.0000 C   0  0  0  0  0  0  0  0  0  0  0  0
  -15.8155   -7.1404    0.0000 O   0  0  0  0  0  0  0  0  0  0  0  0
  -14.7209   -9.4966    0.0000 N   0  0  0  0  0  0  0  0  0  0  0  0
  -16.0813  -10.1286    0.0000 C   0  0  0  0  0  0  0  0  0  0  0  0
  -17.5757  -10.2572    0.0000 C   0  0  0  0  0  0  0  0  0  0  0  0
  -18.4343   -9.0272    0.0000 C   0  0  0  0  0  0  0  0  0  0  0  0
  -19.9288   -9.1558    0.0000 C   0  0  0  0  0  0  0  0  0  0  0  0
  -18.8205   -7.5777    0.0000 C   0  0  0  0  0  0  0  0  0  0  0  0
  -16.2141  -11.6227    0.0000 C   0  0  0  0  0  0  0  0  0  0  0  0
  -14.9867  -12.4848    0.0000 O   0  0  0  0  0  0  0  0  0  0  0  0
  -17.5745  -12.2547    0.0000 N   0  0  0  0  0  0  0  0  0  0  0  0
  -17.7074  -13.7488    0.0000 C   0  0  0  0  0  0  0  0  0  0  0  0
  -17.3213  -15.1982    0.0000 C   0  0  0  0  0  0  0  0  0  0  0  0
  -18.3835  -16.2573    0.0000 C   0  0  0  0  0  0  0  0  0  0  0  0
  -19.0678  -14.3807    0.0000 C   0  0  0  0  0  0  0  0  0  0  0  0
  -19.3818  -15.8475    0.0000 O   0  0  0  0  0  0  0  0  0  0  0  0
  -20.2953  -13.5186    0.0000 O   0  0  0  0  0  0  0  0  0  0  0  0
   26.6473   -2.9614    0.0000 H   0  0  0  0  0  0  0  0  0  0  0  0
   26.6585    1.5311    0.0000 H   0  0  0  0  0  0  0  0  0  0  0  0
   29.1973    3.1293    0.0000 H   0  0  0  0  0  0  0  0  0  0  0  0
   29.0622   -2.8357    0.0000 H   0  0  0  0  0  0  0  0  0  0  0  0
   36.0735   -4.3038    0.0000 H   0  0  0  0  0  0  0  0  0  0  0  0
   36.9588    0.8164    0.0000 H   0  0  0  0  0  0  0  0  0  0  0  0
   34.0027    1.3275    0.0000 H   0  0  0  0  0  0  0  0  0  0  0  0
   38.9546   -0.8470    0.0000 H   0  0  0  0  0  0  0  0  0  0  0  0
   29.1258   -0.4659    0.0000 H   0  0  0  0  0  0  0  0  0  0  0  0
   27.1850   -2.9525    0.0000 H   0  0  0  0  0  0  0  0  0  0  0  0
   31.1967   -6.0972    0.0000 H   0  0  0  0  0  0  0  0  0  0  0  0
   28.7582   -6.9939    0.0000 H   0  0  0  0  0  0  0  0  0  0  0  0
   24.2343   -3.0649    0.0000 H   0  0  0  0  0  0  0  0  0  0  0  0
   23.7698    0.3189    0.0000 H   0  0  0  0  0  0  0  0  0  0  0  0
   21.8428    0.2452    0.0000 H   0  0  0  0  0  0  0  0  0  0  0  0
   22.5881   -2.7767    0.0000 H   0  0  0  0  0  0  0  0  0  0  0  0
   20.8125   -2.9536    0.0000 H   0  0  0  0  0  0  0  0  0  0  0  0
   19.8490   -2.9904    0.0000 H   0  0  0  0  0  0  0  0  0  0  0  0
   18.0650   -2.9496    0.0000 H   0  0  0  0  0  0  0  0  0  0  0  0
   18.5774    0.1203    0.0000 H   0  0  0  0  0  0  0  0  0  0  0  0
   16.7934    0.1612    0.0000 H   0  0  0  0  0  0  0  0  0  0  0  0
   15.8299    0.1243    0.0000 H   0  0  0  0  0  0  0  0  0  0  0  0
   14.0543   -0.0526    0.0000 H   0  0  0  0  0  0  0  0  0  0  0  0
   12.4082    0.2356    0.0000 H   0  0  0  0  0  0  0  0  0  0  0  0
   10.8031   -0.6148    0.0000 H   0  0  0  0  0  0  0  0  0  0  0  0
   13.6653   -3.0069    0.0000 H   0  0  0  0  0  0  0  0  0  0  0  0
   12.9706   -4.5103    0.0000 H   0  0  0  0  0  0  0  0  0  0  0  0
   11.2392   -4.3059    0.0000 H   0  0  0  0  0  0  0  0  0  0  0  0
    9.1813    0.1604    0.0000 H   0  0  0  0  0  0  0  0  0  0  0  0
    7.3821   -0.0898    0.0000 H   0  0  0  0  0  0  0  0  0  0  0  0
    7.8801   -4.4723    0.0000 H   0  0  0  0  0  0  0  0  0  0  0  0
    6.4769   -3.6355    0.0000 H   0  0  0  0  0  0  0  0  0  0  0  0
    9.9040   -0.6618    0.0000 H   0  0  0  0  0  0  0  0  0  0  0  0
   13.1519   -2.3802    0.0000 H   0  0  0  0  0  0  0  0  0  0  0  0
   12.4417   -5.3965    0.0000 H   0  0  0  0  0  0  0  0  0  0  0  0
    6.1233    1.1933    0.0000 H   0  0  0  0  0  0  0  0  0  0  0  0
    4.1764    1.6402    0.0000 H   0  0  0  0  0  0  0  0  0  0  0  0
    3.1455   -2.6483    0.0000 H   0  0  0  0  0  0  0  0  0  0  0  0
    2.2888   -1.0830    0.0000 H   0  0  0  0  0  0  0  0  0  0  0  0
    5.8924   -0.7120    0.0000 H   0  0  0  0  0  0  0  0  0  0  0  0
    6.2770   -4.4856    0.0000 H   0  0  0  0  0  0  0  0  0  0  0  0
    4.7002   -4.9136    0.0000 H   0  0  0  0  0  0  0  0  0  0  0  0
    3.6592   -3.4644    0.0000 H   0  0  0  0  0  0  0  0  0  0  0  0
    7.1543   -3.5794    0.0000 H   0  0  0  0  0  0  0  0  0  0  0  0
    8.0870   -2.2379    0.0000 H   0  0  0  0  0  0  0  0  0  0  0  0
    6.3482   -0.7097    0.0000 H   0  0  0  0  0  0  0  0  0  0  0  0
    3.6909    3.0492    0.0000 H   0  0  0  0  0  0  0  0  0  0  0  0
    2.4418    1.8951    0.0000 H   0  0  0  0  0  0  0  0  0  0  0  0
    2.0162    0.5372    0.0000 H   0  0  0  0  0  0  0  0  0  0  0  0
    2.1368   -0.0369    0.0000 H   0  0  0  0  0  0  0  0  0  0  0  0
    1.6196   -0.9969    0.0000 H   0  0  0  0  0  0  0  0  0  0  0  0
    1.5533   -1.1511    0.0000 H   0  0  0  0  0  0  0  0  0  0  0  0
    0.9470   -2.4385    0.0000 H   0  0  0  0  0  0  0  0  0  0  0  0
    0.6631   -2.8567    0.0000 H   0  0  0  0  0  0  0  0  0  0  0  0
   -0.1400   -3.8265    0.0000 H   0  0  0  0  0  0  0  0  0  0  0  0
   -0.4979   -4.1833    0.0000 H   0  0  0  0  0  0  0  0  0  0  0  0
   -1.4700   -4.9836    0.0000 H   0  0  0  0  0  0  0  0  0  0  0  0
   -1.8889   -5.2663    0.0000 H   0  0  0  0  0  0  0  0  0  0  0  0
   -3.1781   -5.8689    0.0000 H   0  0  0  0  0  0  0  0  0  0  0  0
   -4.0178   -6.3892    0.0000 H   0  0  0  0  0  0  0  0  0  0  0  0
    3.6561    3.5458    0.0000 H   0  0  0  0  0  0  0  0  0  0  0  0
    3.2105    5.1177    0.0000 H   0  0  0  0  0  0  0  0  0  0  0  0
    1.4320    5.2631    0.0000 H   0  0  0  0  0  0  0  0  0  0  0  0
    1.6578    6.4804    0.0000 H   0  0  0  0  0  0  0  0  0  0  0  0
    0.9582    7.2238    0.0000 H   0  0  0  0  0  0  0  0  0  0  0  0
    0.0455   10.1740    0.0000 H   0  0  0  0  0  0  0  0  0  0  0  0
   -1.3468    9.3191    0.0000 H   0  0  0  0  0  0  0  0  0  0  0  0
    1.8170    7.4335    0.0000 H   0  0  0  0  0  0  0  0  0  0  0  0
    3.4844   10.6960    0.0000 H   0  0  0  0  0  0  0  0  0  0  0  0
    2.0772   11.7932    0.0000 H   0  0  0  0  0  0  0  0  0  0  0  0
    0.6165   10.7684    0.0000 H   0  0  0  0  0  0  0  0  0  0  0  0
    4.0836    9.5949    0.0000 H   0  0  0  0  0  0  0  0  0  0  0  0
    4.2408    7.8174    0.0000 H   0  0  0  0  0  0  0  0  0  0  0  0
    2.4126    7.2038    0.0000 H   0  0  0  0  0  0  0  0  0  0  0  0
   -1.9652   10.5701    0.0000 H   0  0  0  0  0  0  0  0  0  0  0  0
   -2.9083   10.8639    0.0000 H   0  0  0  0  0  0  0  0  0  0  0  0
   -5.0062   12.7861    0.0000 H   0  0  0  0  0  0  0  0  0  0  0  0
   -5.8774   11.2287    0.0000 H   0  0  0  0  0  0  0  0  0  0  0  0
   -3.5557   13.8794    0.0000 H   0  0  0  0  0  0  0  0  0  0  0  0
   -6.8909   11.9398    0.0000 H   0  0  0  0  0  0  0  0  0  0  0  0
   -7.8577   11.6122    0.0000 H   0  0  0  0  0  0  0  0  0  0  0  0
  -10.9204   12.0075    0.0000 H   0  0  0  0  0  0  0  0  0  0  0  0
  -10.7211   10.3859    0.0000 H   0  0  0  0  0  0  0  0  0  0  0  0
   -7.6916   12.4805    0.0000 H   0  0  0  0  0  0  0  0  0  0  0  0
   -9.9666   15.3525    0.0000 H   0  0  0  0  0  0  0  0  0  0  0  0
  -11.5493   14.5283    0.0000 H   0  0  0  0  0  0  0  0  0  0  0  0
  -11.2239   12.7738    0.0000 H   0  0  0  0  0  0  0  0  0  0  0  0
   -8.7161   15.4402    0.0000 H   0  0  0  0  0  0  0  0  0  0  0  0
   -7.0340   14.8447    0.0000 H   0  0  0  0  0  0  0  0  0  0  0  0
   -7.2353   12.9269    0.0000 H   0  0  0  0  0  0  0  0  0  0  0  0
  -11.9581   10.4361    0.0000 H   0  0  0  0  0  0  0  0  0  0  0  0
  -12.5944    9.6378    0.0000 H   0  0  0  0  0  0  0  0  0  0  0  0
  -15.3950    8.4974    0.0000 H   0  0  0  0  0  0  0  0  0  0  0  0
  -14.3403    7.0581    0.0000 H   0  0  0  0  0  0  0  0  0  0  0  0
  -14.2416   11.4245    0.0000 H   0  0  0  0  0  0  0  0  0  0  0  0
  -12.9242   10.4581    0.0000 H   0  0  0  0  0  0  0  0  0  0  0  0
  -18.2750    9.5230    0.0000 H   0  0  0  0  0  0  0  0  0  0  0  0
  -15.4081    6.4315    0.0000 H   0  0  0  0  0  0  0  0  0  0  0  0
  -15.5117    5.4160    0.0000 H   0  0  0  0  0  0  0  0  0  0  0  0
  -17.1437    2.7942    0.0000 H   0  0  0  0  0  0  0  0  0  0  0  0
  -15.5858    2.3019    0.0000 H   0  0  0  0  0  0  0  0  0  0  0  0
  -17.6987    6.1087    0.0000 H   0  0  0  0  0  0  0  0  0  0  0  0
  -16.2326    5.9278    0.0000 H   0  0  0  0  0  0  0  0  0  0  0  0
  -19.6979    3.2694    0.0000 H   0  0  0  0  0  0  0  0  0  0  0  0
  -17.9668    2.8365    0.0000 H   0  0  0  0  0  0  0  0  0  0  0  0
  -20.4176    6.5037    0.0000 H   0  0  0  0  0  0  0  0  0  0  0  0
  -18.6466    6.2851    0.0000 H   0  0  0  0  0  0  0  0  0  0  0  0
  -22.2341    5.6728    0.0000 H   0  0  0  0  0  0  0  0  0  0  0  0
  -21.3685    3.2232    0.0000 H   0  0  0  0  0  0  0  0  0  0  0  0
  -16.1453    1.1975    0.0000 H   0  0  0  0  0  0  0  0  0  0  0  0
  -15.6835    0.2872    0.0000 H   0  0  0  0  0  0  0  0  0  0  0  0
  -15.6389   -2.8007    0.0000 H   0  0  0  0  0  0  0  0  0  0  0  0
  -14.0622   -2.3726    0.0000 H   0  0  0  0  0  0  0  0  0  0  0  0
  -16.5666    0.3279    0.0000 H   0  0  0  0  0  0  0  0  0  0  0  0
  -19.0856   -2.3327    0.0000 H   0  0  0  0  0  0  0  0  0  0  0  0
  -18.0446   -3.7819    0.0000 H   0  0  0  0  0  0  0  0  0  0  0  0
  -16.3542   -3.2101    0.0000 H   0  0  0  0  0  0  0  0  0  0  0  0
  -19.3503   -1.1073    0.0000 H   0  0  0  0  0  0  0  0  0  0  0  0
  -19.0004    0.6424    0.0000 H   0  0  0  0  0  0  0  0  0  0  0  0
  -17.0734    0.7161    0.0000 H   0  0  0  0  0  0  0  0  0  0  0  0
  -13.9358   -3.6042    0.0000 H   0  0  0  0  0  0  0  0  0  0  0  0
  -10.1695   -6.0252    0.0000 H   0  0  0  0  0  0  0  0  0  0  0  0
  -11.3601   -5.6155    0.0000 H   0  0  0  0  0  0  0  0  0  0  0  0
   -8.6635   -6.5376    0.0000 H   0  0  0  0  0  0  0  0  0  0  0  0
   -9.7318   -6.3186    0.0000 H   0  0  0  0  0  0  0  0  0  0  0  0
   -6.7422   -6.6388    0.0000 H   0  0  0  0  0  0  0  0  0  0  0  0
   -8.1652   -6.6221    0.0000 H   0  0  0  0  0  0  0  0  0  0  0  0
   -5.7627   -6.7662    0.0000 H   0  0  0  0  0  0  0  0  0  0  0  0
  -13.5786   -5.6784    0.0000 H   0  0  0  0  0  0  0  0  0  0  0  0
  -14.4988   -4.3283    0.0000 H   0  0  0  0  0  0  0  0  0  0  0  0
  -13.6398   -2.9385    0.0000 H   0  0  0  0  0  0  0  0  0  0  0  0
  -14.4181   -5.1704    0.0000 H   0  0  0  0  0  0  0  0  0  0  0  0
  -12.8415   -8.8200    0.0000 H   0  0  0  0  0  0  0  0  0  0  0  0
  -11.7331   -7.2420    0.0000 H   0  0  0  0  0  0  0  0  0  0  0  0
  -13.4934  -10.3588    0.0000 H   0  0  0  0  0  0  0  0  0  0  0  0
  -16.2878   -8.6429    0.0000 H   0  0  0  0  0  0  0  0  0  0  0  0
  -18.9361  -10.8891    0.0000 H   0  0  0  0  0  0  0  0  0  0  0  0
  -17.5518  -11.7570    0.0000 H   0  0  0  0  0  0  0  0  0  0  0  0
  -17.1611   -8.2341    0.0000 H   0  0  0  0  0  0  0  0  0  0  0  0
  -20.9309   -8.0396    0.0000 H   0  0  0  0  0  0  0  0  0  0  0  0
  -21.2892   -9.7877    0.0000 H   0  0  0  0  0  0  0  0  0  0  0  0
  -19.7222  -10.6415    0.0000 H   0  0  0  0  0  0  0  0  0  0  0  0
  -20.2104   -7.0138    0.0000 H   0  0  0  0  0  0  0  0  0  0  0  0
  -18.6876   -6.0836    0.0000 H   0  0  0  0  0  0  0  0  0  0  0  0
  -17.3260   -7.4492    0.0000 H   0  0  0  0  0  0  0  0  0  0  0  0
  -18.8979  -11.5486    0.0000 H   0  0  0  0  0  0  0  0  0  0  0  0
  -16.2129  -13.6202    0.0000 H   0  0  0  0  0  0  0  0  0  0  0  0
  -16.4627  -16.4282    0.0000 H   0  0  0  0  0  0  0  0  0  0  0  0
  -15.9609  -14.5662    0.0000 H   0  0  0  0  0  0  0  0  0  0  0  0
  -17.9973  -17.7068    0.0000 H   0  0  0  0  0  0  0  0  0  0  0  0
  -19.7438  -16.8893    0.0000 H   0  0  0  0  0  0  0  0  0  0  0  0
  -19.6259  -15.4168    0.0000 H   0  0  0  0  0  0  0  0  0  0  0  0
  -21.6556  -14.1505    0.0000 H   0  0  0  0  0  0  0  0  0  0  0  0
  1  2  1  0
  2  3  1  0
  3  4  2  0
  4  5  1  0
  5  6  2  0
  6  7  1  0
  7  8  2  0
  7  9  1  0
  9 10  1  0
 10 11  1  0
 11 12  2  0
  9 13  1  0
 13 14  1  0
 14 15  2  0
 15 16  1  0
 16 17  2  0
 17 18  1  0
 16 19  1  0
 14 20  1  0
 20 21  1  0
 21 22  2  0
 22 23  1  0
 23 24  2  0
 24 25  1  0
 25 26  2  0
 25 27  1  0
  1 28  2  0
  1 29  1  0
 29 30  1  0
 30 31  1  0
 31 32  1  0
 32 33  1  0
 33 34  1  0
 34 35  1  0
 35 36  1  0
 36 37  1  0
 37 38  2  0
 37 39  1  0
 39 40  1  0
 40 41  1  0
 40 42  1  0
 42 43  2  0
 42 44  1  0
 44 45  1  0
 45 46  1  0
 46 47  1  0
 47 48  2  0
 48 49  1  0
 49 50  1  0
 50 51  2  0
 45 52  1  0
 52 53  2  0
 52 54  1  0
 54 55  1  0
 55 56  1  0
 56 57  1  0
 57 58  1  0
 57 59  1  0
 55 60  1  0
 60 61  2  0
 60 62  1  0
 63 62  1  6
 63 64  1  0
 64 65  1  0
 65 66  1  0
 66 67  1  0
 67 68  1  0
 68 69  1  0
 69 70  1  0
 63 71  1  0
 63 72  1  0
 72 73  2  0
 72 74  1  0
 74 75  1  0
 75 76  1  0
 76 77  1  0
 77 78  1  0
 77 79  1  0
 75 80  1  0
 80 81  2  0
 80 82  1  0
 82 83  1  0
 83 84  1  0
 84 85  1  0
 83 86  1  0
 86 87  2  0
 86 88  1  0
 88 89  1  0
 89 90  1  0
 90 91  1  0
 91 92  1  0
 91 93  1  0
 89 94  1  0
 94 95  2  0
 94 96  1  0
 96 97  1  0
 97 98  1  0
 98 99  1  0
 99100  1  0
100101  2  0
100102  1  0
 97103  1  0
103104  2  0
103105  1  0
105106  1  0
106107  1  0
107108  1  0
108109  1  0
109110  1  0
110111  1  0
106112  1  0
112113  2  0
112114  1  0
114115  1  0
115116  1  0
116117  1  0
117118  1  0
117119  1  0
115120  1  0
120121  2  0
120122  1  0
122123  1  0
123124  1  0
124125  1  0
125126  1  0
126127  1  0
123128  1  0
123129  1  1
129130  2  0
129131  1  0
131132  1  0
132133  1  0
133134  2  0
133135  1  0
135136  1  0
136137  1  0
137138  1  0
138139  1  0
138140  1  0
136141  1  0
141142  2  0
141143  1  0
143144  1  0
144145  1  0
145146  1  0
144147  1  0
147148  2  0
147149  1  0
  8  3  1  0
 51 47  1  0
 11  6  1  0
 70127  2  0
 18 13  2  0
 22  9  1  0
 26 21  1  0
  2150  1  0
  4151  1  0
  5152  1  0
  8153  1  0
 15154  1  0
 17155  1  0
 18156  1  0
 19157  1  0
 23158  1  0
 24159  1  0
 26160  1  0
 27161  1  0
 29162  1  0
 30163  1  0
 30164  1  0
 31165  1  0
 31166  1  0
 33167  1  0
 33168  1  0
 34169  1  0
 34170  1  0
 36171  1  0
 36172  1  0
 39173  1  0
 40174  1  1
 41175  1  0
 41176  1  0
 41177  1  0
 44178  1  0
 45179  1  1
 46180  1  0
 46181  1  0
 48182  1  0
 49183  1  0
 50184  1  0
 54185  1  0
 55186  1  1
 56187  1  0
 56188  1  0
 57189  1  0
 58190  1  0
 58191  1  0
 58192  1  0
 59193  1  0
 59194  1  0
 59195  1  0
 62196  1  0
 64197  1  0
 64198  1  0
 65199  1  0
 65200  1  0
 66201  1  0
 66202  1  0
 67203  1  0
 67204  1  0
 68205  1  0
 68206  1  0
 69207  1  0
 69208  1  0
 70209  1  0
 71210  1  0
 71211  1  0
 71212  1  0
 74213  1  0
 75214  1  6
 76215  1  0
 76216  1  0
 77217  1  0
 78218  1  0
 78219  1  0
 78220  1  0
 79221  1  0
 79222  1  0
 79223  1  0
 82224  1  0
 83225  1  6
 84226  1  0
 84227  1  0
 85228  1  0
 88229  1  0
 89230  1  6
 90231  1  0
 90232  1  0
 91233  1  0
 92234  1  0
 92235  1  0
 92236  1  0
 93237  1  0
 93238  1  0
 93239  1  0
 96240  1  0
 97241  1  6
 98242  1  0
 98243  1  0
 99244  1  0
 99245  1  0
102246  1  0
105247  1  0
106248  1  6
107249  1  0
107250  1  0
108251  1  0
108252  1  0
109253  1  0
109254  1  0
110255  1  0
110256  1  0
111257  1  0
111258  1  0
114259  1  0
115260  1  6
116261  1  0
116262  1  0
117263  1  0
118264  1  0
118265  1  0
118266  1  0
119267  1  0
119268  1  0
119269  1  0
122270  1  0
124271  1  0
124272  1  0
125273  1  0
125274  1  0
126275  1  0
126276  1  0
127277  1  0
128278  1  0
128279  1  0
128280  1  0
131281  1  0
132282  1  0
132283  1  0
135284  1  0
136285  1  6
137286  1  0
137287  1  0
138288  1  0
139289  1  0
139290  1  0
139291  1  0
140292  1  0
140293  1  0
140294  1  0
143295  1  0
144296  1  1
145297  1  0
145298  1  0
146299  1  0
146300  1  0
146301  1  0
149302  1  0
M  END
