
     RDKit          2D

424425  0  0  0  0  0  0  0  0999 V2000
   31.4728   -0.4454    0.0000 N   0  0  0  0  0  0  0  0  0  0  0  0
   31.2921   -1.9345    0.0000 C   0  0  0  0  0  0  0  0  0  0  0  0
   32.4913   -2.8355    0.0000 C   0  0  0  0  0  0  0  0  0  0  0  0
   32.3107   -4.3246    0.0000 C   0  0  0  0  0  0  0  0  0  0  0  0
   30.9308   -4.9126    0.0000 O   0  0  0  0  0  0  0  0  0  0  0  0
   33.5099   -5.2256    0.0000 N   0  0  0  0  0  0  0  0  0  0  0  0
   33.3293   -6.7146    0.0000 C   0  0  0  0  0  0  0  0  0  0  0  0
   34.8271   -6.6340    0.0000 C   0  0  0  0  0  0  0  0  0  0  0  0
   35.6641   -5.3892    0.0000 O   0  0  0  0  0  0  0  0  0  0  0  0
   32.6502   -8.0521    0.0000 C   0  0  0  0  0  0  0  0  0  0  0  0
   33.5195   -9.0850    0.0000 O   0  0  0  0  0  0  0  0  0  0  0  0
   31.1524   -8.1328    0.0000 N   0  0  0  0  0  0  0  0  0  0  0  0
   30.4733   -9.4703    0.0000 C   0  0  0  0  0  0  0  0  0  0  0  0
   31.9084   -9.9068    0.0000 C   0  0  0  0  0  0  0  0  0  0  0  0
   32.2479  -11.3678    0.0000 C   0  0  0  0  0  0  0  0  0  0  0  0
   33.6830  -11.8043    0.0000 C   0  0  0  0  0  0  0  0  0  0  0  0
   34.0225  -13.2654    0.0000 O   0  0  0  0  0  0  0  0  0  0  0  0
   34.7786  -10.7798    0.0000 O   0  0  0  0  0  0  0  0  0  0  0  0
   29.3778  -10.4948    0.0000 C   0  0  0  0  0  0  0  0  0  0  0  0
   29.8413  -11.7628    0.0000 O   0  0  0  0  0  0  0  0  0  0  0  0
   27.9427  -10.0584    0.0000 N   0  0  0  0  0  0  0  0  0  0  0  0
   26.8471  -11.0829    0.0000 C   0  0  0  0  0  0  0  0  0  0  0  0
   28.0464  -11.9839    0.0000 C   0  0  0  0  0  0  0  0  0  0  0  0
   27.8657  -13.4730    0.0000 C   0  0  0  0  0  0  0  0  0  0  0  0
   29.0650  -14.3740    0.0000 C   0  0  0  0  0  0  0  0  0  0  0  0
   28.8843  -15.8631    0.0000 O   0  0  0  0  0  0  0  0  0  0  0  0
   30.4449  -13.7859    0.0000 O   0  0  0  0  0  0  0  0  0  0  0  0
   25.4672  -11.6710    0.0000 C   0  0  0  0  0  0  0  0  0  0  0  0
   25.4692  -13.0210    0.0000 O   0  0  0  0  0  0  0  0  0  0  0  0
   24.2680  -10.7700    0.0000 N   0  0  0  0  0  0  0  0  0  0  0  0
   22.8880  -11.3581    0.0000 C   0  0  0  0  0  0  0  0  0  0  0  0
   23.7068  -12.6149    0.0000 C   0  0  0  0  0  0  0  0  0  0  0  0
   23.0277  -13.9524    0.0000 C   0  0  0  0  0  0  0  0  0  0  0  0
   23.8465  -15.2092    0.0000 C   0  0  0  0  0  0  0  0  0  0  0  0
   21.9322  -14.9770    0.0000 C   0  0  0  0  0  0  0  0  0  0  0  0
   21.3902  -11.4388    0.0000 C   0  0  0  0  0  0  0  0  0  0  0  0
   20.8792  -12.8490    0.0000 O   0  0  0  0  0  0  0  0  0  0  0  0
   20.5714  -10.1819    0.0000 N   0  0  0  0  0  0  0  0  0  0  0  0
   19.0736  -10.2626    0.0000 C   0  0  0  0  0  0  0  0  0  0  0  0
   19.4131  -11.7237    0.0000 C   0  0  0  0  0  0  0  0  0  0  0  0
   18.3176  -12.7482    0.0000 C   0  0  0  0  0  0  0  0  0  0  0  0
   17.6385   -9.8261    0.0000 C   0  0  0  0  0  0  0  0  0  0  0  0
   16.6760  -10.9766    0.0000 O   0  0  0  0  0  0  0  0  0  0  0  0
   17.2990   -8.3650    0.0000 N   0  0  0  0  0  0  0  0  0  0  0  0
   15.8639   -7.9285    0.0000 C   0  0  0  0  0  0  0  0  0  0  0  0
   15.6832   -9.4176    0.0000 C   0  0  0  0  0  0  0  0  0  0  0  0
   14.6647   -7.0275    0.0000 C   0  0  0  0  0  0  0  0  0  0  0  0
   13.3667   -7.7794    0.0000 O   0  0  0  0  0  0  0  0  0  0  0  0
   14.8453   -5.5385    0.0000 N   0  0  0  0  0  0  0  0  0  0  0  0
   13.6461   -4.6375    0.0000 C   0  0  0  0  0  0  0  0  0  0  0  0
   12.9670   -5.9749    0.0000 C   0  0  0  0  0  0  0  0  0  0  0  0
   11.4692   -6.0556    0.0000 C   0  0  0  0  0  0  0  0  0  0  0  0
   10.7901   -7.3931    0.0000 C   0  0  0  0  0  0  0  0  0  0  0  0
    9.2923   -7.4737    0.0000 O   0  0  0  0  0  0  0  0  0  0  0  0
   11.6089   -8.6499    0.0000 O   0  0  0  0  0  0  0  0  0  0  0  0
   12.8273   -3.3806    0.0000 C   0  0  0  0  0  0  0  0  0  0  0  0
   11.3505   -3.6433    0.0000 O   0  0  0  0  0  0  0  0  0  0  0  0
   13.5064   -2.0431    0.0000 N   0  0  0  0  0  0  0  0  0  0  0  0
   12.6876   -0.7863    0.0000 C   0  0  0  0  0  0  0  0  0  0  0  0
   11.5920   -1.8109    0.0000 C   0  0  0  0  0  0  0  0  0  0  0  0
   12.3481    0.6748    0.0000 C   0  0  0  0  0  0  0  0  0  0  0  0
   10.9130    1.1113    0.0000 O   0  0  0  0  0  0  0  0  0  0  0  0
   13.4436    1.6993    0.0000 N   0  0  0  0  0  0  0  0  0  0  0  0
   13.1041    3.1604    0.0000 C   0  0  0  0  0  0  0  0  0  0  0  0
   14.6019    3.2411    0.0000 C   0  0  0  0  0  0  0  0  0  0  0  0
   15.4207    1.9842    0.0000 C   0  0  0  0  0  0  0  0  0  0  0  0
   14.8852    0.5831    0.0000 C   0  0  0  0  0  0  0  0  0  0  0  0
   16.0522   -0.3592    0.0000 N   0  0  0  0  0  0  0  0  0  0  0  0
   17.3091    0.4596    0.0000 C   0  0  0  0  0  0  0  0  0  0  0  0
   16.9187    1.9079    0.0000 N   0  0  0  0  0  0  0  0  0  0  0  0
   12.2853    4.4172    0.0000 C   0  0  0  0  0  0  0  0  0  0  0  0
   13.1224    5.6620    0.0000 O   0  0  0  0  0  0  0  0  0  0  0  0
   10.7875    4.3366    0.0000 N   0  0  0  0  0  0  0  0  0  0  0  0
    9.9687    5.5934    0.0000 C   0  0  0  0  0  0  0  0  0  0  0  0
    9.2062    4.3017    0.0000 C   0  0  0  0  0  0  0  0  0  0  0  0
    8.2130    3.1776    0.0000 C   0  0  0  0  0  0  0  0  0  0  0  0
    7.0250    2.2618    0.0000 C   0  0  0  0  0  0  0  0  0  0  0  0
    5.6852    1.5874    0.0000 C   0  0  0  0  0  0  0  0  0  0  0  0
    4.2419    1.1787    0.0000 C   0  0  0  0  0  0  0  0  0  0  0  0
    2.7474    1.0506    0.0000 C   0  0  0  0  0  0  0  0  0  0  0  0
    1.2556    1.2076    0.0000 C   0  0  0  0  0  0  0  0  0  0  0  0
   11.4584    5.7689    0.0000 C   0  0  0  0  0  0  0  0  0  0  0  0
   10.4730    7.0061    0.0000 C   0  0  0  0  0  0  0  0  0  0  0  0
   11.9612    6.8184    0.0000 O   0  0  0  0  0  0  0  0  0  0  0  0
   10.7008    8.4887    0.0000 N   0  0  0  0  0  0  0  0  0  0  0  0
   10.6439    9.9876    0.0000 C   0  0  0  0  0  0  0  0  0  0  0  0
   11.8023   10.9406    0.0000 C   0  0  0  0  0  0  0  0  0  0  0  0
   13.2068   10.4140    0.0000 C   0  0  0  0  0  0  0  0  0  0  0  0
   14.3651   11.3670    0.0000 C   0  0  0  0  0  0  0  0  0  0  0  0
   14.3465    9.4388    0.0000 C   0  0  0  0  0  0  0  0  0  0  0  0
   10.3044   11.4487    0.0000 C   0  0  0  0  0  0  0  0  0  0  0  0
   11.6579   12.0954    0.0000 O   0  0  0  0  0  0  0  0  0  0  0  0
    9.6945   12.8191    0.0000 N   0  0  0  0  0  0  0  0  0  0  0  0
    8.8363   14.0493    0.0000 C   0  0  0  0  0  0  0  0  0  0  0  0
    9.2955   15.4773    0.0000 C   0  0  0  0  0  0  0  0  0  0  0  0
   10.7618   15.7936    0.0000 S   0  0  0  0  0  0  0  0  0  0  0  0
    7.7607   15.0949    0.0000 C   0  0  0  0  0  0  0  0  0  0  0  0
    8.5497   16.3706    0.0000 O   0  0  0  0  0  0  0  0  0  0  0  0
    6.5068   15.9180    0.0000 N   0  0  0  0  0  0  0  0  0  0  0  0
    5.1197   16.4889    0.0000 C   0  0  0  0  0  0  0  0  0  0  0  0
    4.7339   17.9385    0.0000 C   0  0  0  0  0  0  0  0  0  0  0  0
    4.0321   19.2641    0.0000 O   0  0  0  0  0  0  0  0  0  0  0  0
    5.7964   18.9973    0.0000 C   0  0  0  0  0  0  0  0  0  0  0  0
    3.6496   16.7870    0.0000 C   0  0  0  0  0  0  0  0  0  0  0  0
    3.6236   18.2868    0.0000 O   0  0  0  0  0  0  0  0  0  0  0  0
    2.1496   16.8015    0.0000 N   0  0  0  0  0  0  0  0  0  0  0  0
    0.6741   16.5319    0.0000 C   0  0  0  0  0  0  0  0  0  0  0  0
   -0.4341   17.5428    0.0000 C   0  0  0  0  0  0  0  0  0  0  0  0
   -0.1127   19.0080    0.0000 C   0  0  0  0  0  0  0  0  0  0  0  0
   -1.2209   20.0189    0.0000 C   0  0  0  0  0  0  0  0  0  0  0  0
    0.6904   20.2749    0.0000 C   0  0  0  0  0  0  0  0  0  0  0  0
   -0.7238   15.9879    0.0000 C   0  0  0  0  0  0  0  0  0  0  0  0
   -1.5565   17.2355    0.0000 O   0  0  0  0  0  0  0  0  0  0  0  0
   -1.9935   15.1892    0.0000 N   0  0  0  0  0  0  0  0  0  0  0  0
   -3.0890   14.1646    0.0000 C   0  0  0  0  0  0  0  0  0  0  0  0
   -4.5678   14.4159    0.0000 C   0  0  0  0  0  0  0  0  0  0  0  0
   -5.0896   15.8222    0.0000 C   0  0  0  0  0  0  0  0  0  0  0  0
   -6.5684   16.0736    0.0000 C   0  0  0  0  0  0  0  0  0  0  0  0
   -5.0989   17.3222    0.0000 C   0  0  0  0  0  0  0  0  0  0  0  0
   -3.9709   12.9512    0.0000 C   0  0  0  0  0  0  0  0  0  0  0  0
   -5.3459   13.5506    0.0000 O   0  0  0  0  0  0  0  0  0  0  0  0
   -4.6072   11.5928    0.0000 N   0  0  0  0  0  0  0  0  0  0  0  0
   -4.9749   10.1386    0.0000 C   0  0  0  0  0  0  0  0  0  0  0  0
   -6.3548    9.5505    0.0000 C   0  0  0  0  0  0  0  0  0  0  0  0
   -7.5540   10.4515    0.0000 C   0  0  0  0  0  0  0  0  0  0  0  0
   -8.9339    9.8634    0.0000 C   0  0  0  0  0  0  0  0  0  0  0  0
  -10.1332   10.7644    0.0000 O   0  0  0  0  0  0  0  0  0  0  0  0
   -9.1146    8.3744    0.0000 O   0  0  0  0  0  0  0  0  0  0  0  0
   -5.0607    8.6411    0.0000 C   0  0  0  0  0  0  0  0  0  0  0  0
   -6.5415    8.4019    0.0000 O   0  0  0  0  0  0  0  0  0  0  0  0
   -4.8616    7.1543    0.0000 N   0  0  0  0  0  0  0  0  0  0  0  0
   -4.3847    5.7322    0.0000 C   0  0  0  0  0  0  0  0  0  0  0  0
   -3.6473    4.4259    0.0000 C   0  0  0  0  0  0  0  0  0  0  0  0
   -2.6761    3.2829    0.0000 C   0  0  0  0  0  0  0  0  0  0  0  0
   -1.5060    2.3443    0.0000 C   0  0  0  0  0  0  0  0  0  0  0  0
   -0.1794    1.6441    0.0000 C   0  0  0  0  0  0  0  0  0  0  0  0
   -5.8708    5.9364    0.0000 C   0  0  0  0  0  0  0  0  0  0  0  0
   -5.2277    4.4914    0.0000 C   0  0  0  0  0  0  0  0  0  0  0  0
   -4.9207    3.0231    0.0000 O   0  0  0  0  0  0  0  0  0  0  0  0
   -6.7236    4.6010    0.0000 N   0  0  0  0  0  0  0  0  0  0  0  0
   -7.5666    3.3602    0.0000 C   0  0  0  0  0  0  0  0  0  0  0  0
   -7.9343    1.9060    0.0000 C   0  0  0  0  0  0  0  0  0  0  0  0
   -9.0626    3.4699    0.0000 C   0  0  0  0  0  0  0  0  0  0  0  0
   -9.7156    4.8202    0.0000 O   0  0  0  0  0  0  0  0  0  0  0  0
   -9.9055    2.2291    0.0000 N   0  0  0  0  0  0  0  0  0  0  0  0
  -11.4015    2.3387    0.0000 C   0  0  0  0  0  0  0  0  0  0  0  0
  -12.7697    2.9533    0.0000 C   0  0  0  0  0  0  0  0  0  0  0  0
  -12.7385    4.4530    0.0000 C   0  0  0  0  0  0  0  0  0  0  0  0
  -14.2657    3.0629    0.0000 C   0  0  0  0  0  0  0  0  0  0  0  0
  -14.9188    4.4133    0.0000 C   0  0  0  0  0  0  0  0  0  0  0  0
  -12.2444    1.0979    0.0000 C   0  0  0  0  0  0  0  0  0  0  0  0
  -11.5913   -0.2524    0.0000 O   0  0  0  0  0  0  0  0  0  0  0  0
  -13.7404    1.2075    0.0000 N   0  0  0  0  0  0  0  0  0  0  0  0
  -14.5833   -0.0332    0.0000 C   0  0  0  0  0  0  0  0  0  0  0  0
  -14.9510   -1.4875    0.0000 C   0  0  0  0  0  0  0  0  0  0  0  0
  -16.3942   -1.8961    0.0000 C   0  0  0  0  0  0  0  0  0  0  0  0
  -16.7620   -3.3504    0.0000 C   0  0  0  0  0  0  0  0  0  0  0  0
  -18.1446   -3.9319    0.0000 N   0  0  0  0  0  0  0  0  0  0  0  0
  -15.6864   -4.3959    0.0000 O   0  0  0  0  0  0  0  0  0  0  0  0
  -16.0793    0.0764    0.0000 C   0  0  0  0  0  0  0  0  0  0  0  0
  -16.7323    1.4267    0.0000 O   0  0  0  0  0  0  0  0  0  0  0  0
  -16.9222   -1.1644    0.0000 N   0  0  0  0  0  0  0  0  0  0  0  0
  -18.4182   -1.0548    0.0000 C   0  0  0  0  0  0  0  0  0  0  0  0
  -19.7865   -0.4401    0.0000 C   0  0  0  0  0  0  0  0  0  0  0  0
  -19.9383    1.0522    0.0000 C   0  0  0  0  0  0  0  0  0  0  0  0
  -21.3066    1.6668    0.0000 O   0  0  0  0  0  0  0  0  0  0  0  0
  -18.7218    1.9298    0.0000 O   0  0  0  0  0  0  0  0  0  0  0  0
  -19.2611   -2.2956    0.0000 C   0  0  0  0  0  0  0  0  0  0  0  0
  -18.9085   -3.3307    0.0000 O   0  0  0  0  0  0  0  0  0  0  0  0
  -20.7571   -2.1859    0.0000 N   0  0  0  0  0  0  0  0  0  0  0  0
  -21.6000   -3.4267    0.0000 C   0  0  0  0  0  0  0  0  0  0  0  0
  -21.9677   -4.8809    0.0000 C   0  0  0  0  0  0  0  0  0  0  0  0
  -21.8159   -6.3732    0.0000 O   0  0  0  0  0  0  0  0  0  0  0  0
  -23.3504   -5.4625    0.0000 C   0  0  0  0  0  0  0  0  0  0  0  0
  -23.0960   -3.3171    0.0000 C   0  0  0  0  0  0  0  0  0  0  0  0
  -23.7491   -1.9667    0.0000 O   0  0  0  0  0  0  0  0  0  0  0  0
  -23.9389   -4.5579    0.0000 N   0  0  0  0  0  0  0  0  0  0  0  0
  -25.4349   -4.4483    0.0000 C   0  0  0  0  0  0  0  0  0  0  0  0
  -26.8032   -3.8336    0.0000 C   0  0  0  0  0  0  0  0  0  0  0  0
  -26.9550   -2.3413    0.0000 C   0  0  0  0  0  0  0  0  0  0  0  0
  -26.2778   -5.6890    0.0000 C   0  0  0  0  0  0  0  0  0  0  0  0
  -25.6247   -7.0394    0.0000 O   0  0  0  0  0  0  0  0  0  0  0  0
  -27.7738   -5.5794    0.0000 N   0  0  0  0  0  0  0  0  0  0  0  0
  -28.6167   -6.8202    0.0000 C   0  0  0  0  0  0  0  0  0  0  0  0
  -28.9844   -8.2744    0.0000 C   0  0  0  0  0  0  0  0  0  0  0  0
  -30.4277   -8.6831    0.0000 C   0  0  0  0  0  0  0  0  0  0  0  0
  -30.7954  -10.1373    0.0000 C   0  0  0  0  0  0  0  0  0  0  0  0
  -32.2387  -10.5460    0.0000 N   0  0  0  0  0  0  0  0  0  0  0  0
  -32.6064  -12.0002    0.0000 C   0  0  0  0  0  0  0  0  0  0  0  0
  -34.0887  -12.2299    0.0000 N   0  0  0  0  0  0  0  0  0  0  0  0
  -31.5308  -13.0458    0.0000 N   0  0  0  0  0  0  0  0  0  0  0  0
  -30.1127   -6.7106    0.0000 C   0  0  0  0  0  0  0  0  0  0  0  0
  -30.7658   -5.3602    0.0000 O   0  0  0  0  0  0  0  0  0  0  0  0
  -30.9556   -7.9514    0.0000 N   0  0  0  0  0  0  0  0  0  0  0  0
  -32.4516   -7.8417    0.0000 C   0  0  0  0  0  0  0  0  0  0  0  0
  -33.8199   -7.2271    0.0000 C   0  0  0  0  0  0  0  0  0  0  0  0
  -33.9717   -5.7348    0.0000 C   0  0  0  0  0  0  0  0  0  0  0  0
  -35.3400   -5.1201    0.0000 C   0  0  0  0  0  0  0  0  0  0  0  0
  -35.4918   -3.6279    0.0000 O   0  0  0  0  0  0  0  0  0  0  0  0
  -36.5565   -5.9978    0.0000 O   0  0  0  0  0  0  0  0  0  0  0  0
  -33.2945   -9.0825    0.0000 C   0  0  0  0  0  0  0  0  0  0  0  0
  -33.0708  -10.1529    0.0000 O   0  0  0  0  0  0  0  0  0  0  0  0
  -34.7905   -8.9729    0.0000 N   0  0  0  0  0  0  0  0  0  0  0  0
  -35.6334  -10.2137    0.0000 C   0  0  0  0  0  0  0  0  0  0  0  0
  -36.0011  -11.6679    0.0000 C   0  0  0  0  0  0  0  0  0  0  0  0
  -37.4444  -12.0766    0.0000 C   0  0  0  0  0  0  0  0  0  0  0  0
  -37.8121  -13.5308    0.0000 C   0  0  0  0  0  0  0  0  0  0  0  0
  -39.2554  -13.9395    0.0000 N   0  0  0  0  0  0  0  0  0  0  0  0
  -36.7366  -14.5764    0.0000 O   0  0  0  0  0  0  0  0  0  0  0  0
  -37.1294  -10.1041    0.0000 C   0  0  0  0  0  0  0  0  0  0  0  0
  -38.1173  -11.2328    0.0000 O   0  0  0  0  0  0  0  0  0  0  0  0
  -37.7825   -8.7537    0.0000 O   0  0  0  0  0  0  0  0  0  0  0  0
   30.2735    0.4556    0.0000 H   0  0  0  0  0  0  0  0  0  0  0  0
   32.8527    0.1427    0.0000 H   0  0  0  0  0  0  0  0  0  0  0  0
   29.8570   -1.4980    0.0000 H   0  0  0  0  0  0  0  0  0  0  0  0
   30.6130   -3.2720    0.0000 H   0  0  0  0  0  0  0  0  0  0  0  0
   33.1704   -1.4980    0.0000 H   0  0  0  0  0  0  0  0  0  0  0  0
   33.9264   -3.2720    0.0000 H   0  0  0  0  0  0  0  0  0  0  0  0
   34.8079   -4.4737    0.0000 H   0  0  0  0  0  0  0  0  0  0  0  0
   31.8942   -6.2781    0.0000 H   0  0  0  0  0  0  0  0  0  0  0  0
   36.2622   -7.0705    0.0000 H   0  0  0  0  0  0  0  0  0  0  0  0
   34.6464   -8.1231    0.0000 H   0  0  0  0  0  0  0  0  0  0  0  0
   37.0040   -5.2158    0.0000 H   0  0  0  0  0  0  0  0  0  0  0  0
   30.3336   -6.8760    0.0000 H   0  0  0  0  0  0  0  0  0  0  0  0
   29.2741   -8.5693    0.0000 H   0  0  0  0  0  0  0  0  0  0  0  0
   33.2552   -9.9990    0.0000 H   0  0  0  0  0  0  0  0  0  0  0  0
   32.2989   -8.8854    0.0000 H   0  0  0  0  0  0  0  0  0  0  0  0
   32.0673  -12.8569    0.0000 H   0  0  0  0  0  0  0  0  0  0  0  0
   30.7501  -11.4485    0.0000 H   0  0  0  0  0  0  0  0  0  0  0  0
   27.6031   -8.5973    0.0000 H   0  0  0  0  0  0  0  0  0  0  0  0
   26.0283   -9.8261    0.0000 H   0  0  0  0  0  0  0  0  0  0  0  0
   29.2804  -12.5313    0.0000 H   0  0  0  0  0  0  0  0  0  0  0  0
   28.7626  -11.1577    0.0000 H   0  0  0  0  0  0  0  0  0  0  0  0
   27.1866  -14.8105    0.0000 H   0  0  0  0  0  0  0  0  0  0  0  0
   26.4306  -13.0365    0.0000 H   0  0  0  0  0  0  0  0  0  0  0  0
   24.4486   -9.2809    0.0000 H   0  0  0  0  0  0  0  0  0  0  0  0
   22.5485   -9.8970    0.0000 H   0  0  0  0  0  0  0  0  0  0  0  0
   24.7861  -13.4258    0.0000 H   0  0  0  0  0  0  0  0  0  0  0  0
   25.0177  -11.8859    0.0000 H   0  0  0  0  0  0  0  0  0  0  0  0
   21.8285  -13.0514    0.0000 H   0  0  0  0  0  0  0  0  0  0  0  0
   23.3355  -16.6195    0.0000 H   0  0  0  0  0  0  0  0  0  0  0  0
   25.0458  -16.1102    0.0000 H   0  0  0  0  0  0  0  0  0  0  0  0
   25.0588  -14.3259    0.0000 H   0  0  0  0  0  0  0  0  0  0  0  0
   22.0911  -16.4685    0.0000 H   0  0  0  0  0  0  0  0  0  0  0  0
   20.5523  -15.5651    0.0000 H   0  0  0  0  0  0  0  0  0  0  0  0
   21.1134  -13.7202    0.0000 H   0  0  0  0  0  0  0  0  0  0  0  0
   21.2505   -8.8444    0.0000 H   0  0  0  0  0  0  0  0  0  0  0  0
   19.2543   -8.7735    0.0000 H   0  0  0  0  0  0  0  0  0  0  0  0
   20.0726  -13.0709    0.0000 H   0  0  0  0  0  0  0  0  0  0  0  0
   20.8943  -11.4870    0.0000 H   0  0  0  0  0  0  0  0  0  0  0  0
   18.6571  -14.2093    0.0000 H   0  0  0  0  0  0  0  0  0  0  0  0
   16.9377  -13.3363    0.0000 H   0  0  0  0  0  0  0  0  0  0  0  0
   17.4988  -11.4914    0.0000 H   0  0  0  0  0  0  0  0  0  0  0  0
   18.3946   -7.3404    0.0000 H   0  0  0  0  0  0  0  0  0  0  0  0
   16.5430   -6.5910    0.0000 H   0  0  0  0  0  0  0  0  0  0  0  0
   16.7637  -10.4581    0.0000 H   0  0  0  0  0  0  0  0  0  0  0  0
   15.0042  -10.7551    0.0000 H   0  0  0  0  0  0  0  0  0  0  0  0
   14.2482   -8.9811    0.0000 H   0  0  0  0  0  0  0  0  0  0  0  0
   16.2252   -4.9504    0.0000 H   0  0  0  0  0  0  0  0  0  0  0  0
   14.7416   -3.6129    0.0000 H   0  0  0  0  0  0  0  0  0  0  0  0
   12.6062   -7.4309    0.0000 H   0  0  0  0  0  0  0  0  0  0  0  0
   14.2538   -6.7457    0.0000 H   0  0  0  0  0  0  0  0  0  0  0  0
   10.0341   -5.6191    0.0000 H   0  0  0  0  0  0  0  0  0  0  0  0
   11.6498   -4.5665    0.0000 H   0  0  0  0  0  0  0  0  0  0  0  0
   15.0042   -1.9625    0.0000 H   0  0  0  0  0  0  0  0  0  0  0  0
   13.9855   -0.0344    0.0000 H   0  0  0  0  0  0  0  0  0  0  0  0
   11.7509   -3.3024    0.0000 H   0  0  0  0  0  0  0  0  0  0  0  0
   10.2121   -2.3990    0.0000 H   0  0  0  0  0  0  0  0  0  0  0  0
   10.7733   -0.5541    0.0000 H   0  0  0  0  0  0  0  0  0  0  0  0
   14.7304    0.9286    0.0000 H   0  0  0  0  0  0  0  0  0  0  0  0
   11.7242    2.5723    0.0000 H   0  0  0  0  0  0  0  0  0  0  0  0
   15.9818    3.8291    0.0000 H   0  0  0  0  0  0  0  0  0  0  0  0
   14.2624    4.7021    0.0000 H   0  0  0  0  0  0  0  0  0  0  0  0
   13.4001    0.3722    0.0000 H   0  0  0  0  0  0  0  0  0  0  0  0
   15.9759   -1.8573    0.0000 H   0  0  0  0  0  0  0  0  0  0  0  0
   18.7102   -0.0760    0.0000 H   0  0  0  0  0  0  0  0  0  0  0  0
   10.4523    2.8745    0.0000 H   0  0  0  0  0  0  0  0  0  0  0  0
   10.6312    3.8333    0.0000 H   0  0  0  0  0  0  0  0  0  0  0  0
    9.7723    2.9126    0.0000 H   0  0  0  0  0  0  0  0  0  0  0  0
    9.5236    2.4480    0.0000 H   0  0  0  0  0  0  0  0  0  0  0  0
    8.6831    1.7532    0.0000 H   0  0  0  0  0  0  0  0  0  0  0  0
    8.2829    1.4446    0.0000 H   0  0  0  0  0  0  0  0  0  0  0  0
    7.2171    0.7742    0.0000 H   0  0  0  0  0  0  0  0  0  0  0  0
    6.7657    0.5469    0.0000 H   0  0  0  0  0  0  0  0  0  0  0  0
    5.5922    0.0903    0.0000 H   0  0  0  0  0  0  0  0  0  0  0  0
    5.1060   -0.0474    0.0000 H   0  0  0  0  0  0  0  0  0  0  0  0
    3.8673   -0.2738    0.0000 H   0  0  0  0  0  0  0  0  0  0  0  0
    3.3638   -0.3169    0.0000 H   0  0  0  0  0  0  0  0  0  0  0  0
    1.9443   -0.2163    0.0000 H   0  0  0  0  0  0  0  0  0  0  0  0
    0.9575   -0.2625    0.0000 H   0  0  0  0  0  0  0  0  0  0  0  0
   12.6196    4.8193    0.0000 H   0  0  0  0  0  0  0  0  0  0  0  0
   12.7983    6.4433    0.0000 H   0  0  0  0  0  0  0  0  0  0  0  0
   11.3874    7.2672    0.0000 H   0  0  0  0  0  0  0  0  0  0  0  0
   12.1767    8.2209    0.0000 H   0  0  0  0  0  0  0  0  0  0  0  0
   11.9271    9.2108    0.0000 H   0  0  0  0  0  0  0  0  0  0  0  0
   12.5648   12.2324    0.0000 H   0  0  0  0  0  0  0  0  0  0  0  0
   10.9324   12.1627    0.0000 H   0  0  0  0  0  0  0  0  0  0  0  0
   12.7795    8.9762    0.0000 H   0  0  0  0  0  0  0  0  0  0  0  0
   15.8234   11.0155    0.0000 H   0  0  0  0  0  0  0  0  0  0  0  0
   15.1276   12.6588    0.0000 H   0  0  0  0  0  0  0  0  0  0  0  0
   13.3528   12.4739    0.0000 H   0  0  0  0  0  0  0  0  0  0  0  0
   15.8112    9.7620    0.0000 H   0  0  0  0  0  0  0  0  0  0  0  0
   15.0839    8.1325    0.0000 H   0  0  0  0  0  0  0  0  0  0  0  0
   13.1881    8.4857    0.0000 H   0  0  0  0  0  0  0  0  0  0  0  0
   11.0007   13.5565    0.0000 H   0  0  0  0  0  0  0  0  0  0  0  0
   10.3197   14.2720    0.0000 H   0  0  0  0  0  0  0  0  0  0  0  0
    9.4217   16.9720    0.0000 H   0  0  0  0  0  0  0  0  0  0  0  0
    7.9030   16.0351    0.0000 H   0  0  0  0  0  0  0  0  0  0  0  0
   11.2210   17.2216    0.0000 H   0  0  0  0  0  0  0  0  0  0  0  0
    7.3634   17.1493    0.0000 H   0  0  0  0  0  0  0  0  0  0  0  0
    6.3594   17.3334    0.0000 H   0  0  0  0  0  0  0  0  0  0  0  0
    3.2610   17.6549    0.0000 H   0  0  0  0  0  0  0  0  0  0  0  0
    4.3545   20.5761    0.0000 H   0  0  0  0  0  0  0  0  0  0  0  0
    5.5903   20.4831    0.0000 H   0  0  0  0  0  0  0  0  0  0  0  0
    7.1570   19.6289    0.0000 H   0  0  0  0  0  0  0  0  0  0  0  0
    6.9269   18.0113    0.0000 H   0  0  0  0  0  0  0  0  0  0  0  0
    2.2046   18.3005    0.0000 H   0  0  0  0  0  0  0  0  0  0  0  0
    1.2604   17.9126    0.0000 H   0  0  0  0  0  0  0  0  0  0  0  0
   -1.8212   18.1138    0.0000 H   0  0  0  0  0  0  0  0  0  0  0  0
   -1.5199   16.5079    0.0000 H   0  0  0  0  0  0  0  0  0  0  0  0
    1.3713   18.7897    0.0000 H   0  0  0  0  0  0  0  0  0  0  0  0
   -1.0805   21.5123    0.0000 H   0  0  0  0  0  0  0  0  0  0  0  0
   -2.6080   20.5898    0.0000 H   0  0  0  0  0  0  0  0  0  0  0  0
   -2.1724   18.8594    0.0000 H   0  0  0  0  0  0  0  0  0  0  0  0
    0.1620   21.6787    0.0000 H   0  0  0  0  0  0  0  0  0  0  0  0
    1.8784   21.1907    0.0000 H   0  0  0  0  0  0  0  0  0  0  0  0
    1.7986   19.2640    0.0000 H   0  0  0  0  0  0  0  0  0  0  0  0
   -2.7576   16.4799    0.0000 H   0  0  0  0  0  0  0  0  0  0  0  0
   -3.3422   15.6431    0.0000 H   0  0  0  0  0  0  0  0  0  0  0  0
   -6.0434   14.1463    0.0000 H   0  0  0  0  0  0  0  0  0  0  0  0
   -4.9217   12.9583    0.0000 H   0  0  0  0  0  0  0  0  0  0  0  0
   -3.7231   16.4409    0.0000 H   0  0  0  0  0  0  0  0  0  0  0  0
   -7.2577   17.4058    0.0000 H   0  0  0  0  0  0  0  0  0  0  0  0
   -8.0439   15.8039    0.0000 H   0  0  0  0  0  0  0  0  0  0  0  0
   -6.7420   14.5836    0.0000 H   0  0  0  0  0  0  0  0  0  0  0  0
   -6.3024   18.2175    0.0000 H   0  0  0  0  0  0  0  0  0  0  0  0
   -4.5946   18.7349    0.0000 H   0  0  0  0  0  0  0  0  0  0  0  0
   -3.6201   17.0709    0.0000 H   0  0  0  0  0  0  0  0  0  0  0  0
   -5.9478   12.2656    0.0000 H   0  0  0  0  0  0  0  0  0  0  0  0
   -5.9872   11.2455    0.0000 H   0  0  0  0  0  0  0  0  0  0  0  0
   -7.5671    8.6671    0.0000 H   0  0  0  0  0  0  0  0  0  0  0  0
   -5.8645    8.1329    0.0000 H   0  0  0  0  0  0  0  0  0  0  0  0
   -8.3728   11.7084    0.0000 H   0  0  0  0  0  0  0  0  0  0  0  0
   -6.7390   11.7108    0.0000 H   0  0  0  0  0  0  0  0  0  0  0  0
   -6.3532    6.9955    0.0000 H   0  0  0  0  0  0  0  0  0  0  0  0
   -4.2402    3.0481    0.0000 H   0  0  0  0  0  0  0  0  0  0  0  0
   -5.0811    3.9852    0.0000 H   0  0  0  0  0  0  0  0  0  0  0  0
   -3.1736    1.8678    0.0000 H   0  0  0  0  0  0  0  0  0  0  0  0
   -4.0005    2.5788    0.0000 H   0  0  0  0  0  0  0  0  0  0  0  0
   -1.5443    0.8448    0.0000 H   0  0  0  0  0  0  0  0  0  0  0  0
   -2.7794    1.5516    0.0000 H   0  0  0  0  0  0  0  0  0  0  0  0
   -0.7504    0.2570    0.0000 H   0  0  0  0  0  0  0  0  0  0  0  0
   -7.0500    5.0094    0.0000 H   0  0  0  0  0  0  0  0  0  0  0  0
   -7.1973    6.6366    0.0000 H   0  0  0  0  0  0  0  0  0  0  0  0
   -5.7707    7.4331    0.0000 H   0  0  0  0  0  0  0  0  0  0  0  0
   -7.5365    5.8617    0.0000 H   0  0  0  0  0  0  0  0  0  0  0  0
   -6.1983    2.7456    0.0000 H   0  0  0  0  0  0  0  0  0  0  0  0
   -9.1351    1.0072    0.0000 H   0  0  0  0  0  0  0  0  0  0  0  0
   -7.7824    0.4137    0.0000 H   0  0  0  0  0  0  0  0  0  0  0  0
   -6.4383    1.7964    0.0000 H   0  0  0  0  0  0  0  0  0  0  0  0
   -9.4219    0.8092    0.0000 H   0  0  0  0  0  0  0  0  0  0  0  0
  -10.8592    3.7373    0.0000 H   0  0  0  0  0  0  0  0  0  0  0  0
  -13.4784    1.6313    0.0000 H   0  0  0  0  0  0  0  0  0  0  0  0
  -14.2043    5.2449    0.0000 H   0  0  0  0  0  0  0  0  0  0  0  0
  -12.5539    5.8999    0.0000 H   0  0  0  0  0  0  0  0  0  0  0  0
  -11.4234    4.5192    0.0000 H   0  0  0  0  0  0  0  0  0  0  0  0
  -15.7090    2.6543    0.0000 H   0  0  0  0  0  0  0  0  0  0  0  0
  -14.4795    1.5783    0.0000 H   0  0  0  0  0  0  0  0  0  0  0  0
  -16.4148    4.5229    0.0000 H   0  0  0  0  0  0  0  0  0  0  0  0
  -15.0706    5.9056    0.0000 H   0  0  0  0  0  0  0  0  0  0  0  0
  -13.6173    5.1591    0.0000 H   0  0  0  0  0  0  0  0  0  0  0  0
  -14.7008    2.3597    0.0000 H   0  0  0  0  0  0  0  0  0  0  0  0
  -13.2150   -0.6479    0.0000 H   0  0  0  0  0  0  0  0  0  0  0  0
  -14.7992   -2.9798    0.0000 H   0  0  0  0  0  0  0  0  0  0  0  0
  -13.4550   -1.5971    0.0000 H   0  0  0  0  0  0  0  0  0  0  0  0
  -17.8902   -1.7865    0.0000 H   0  0  0  0  0  0  0  0  0  0  0  0
  -17.2290   -0.6499    0.0000 H   0  0  0  0  0  0  0  0  0  0  0  0
  -18.5729   -5.2133    0.0000 H   0  0  0  0  0  0  0  0  0  0  0  0
  -19.5418   -3.0246    0.0000 H   0  0  0  0  0  0  0  0  0  0  0  0
  -16.6153   -2.6327    0.0000 H   0  0  0  0  0  0  0  0  0  0  0  0
  -18.0505    0.3994    0.0000 H   0  0  0  0  0  0  0  0  0  0  0  0
  -21.2579   -0.1490    0.0000 H   0  0  0  0  0  0  0  0  0  0  0  0
  -20.4951   -1.7622    0.0000 H   0  0  0  0  0  0  0  0  0  0  0  0
  -21.5699   -0.9253    0.0000 H   0  0  0  0  0  0  0  0  0  0  0  0
  -20.2317   -4.0414    0.0000 H   0  0  0  0  0  0  0  0  0  0  0  0
  -20.4717   -4.9905    0.0000 H   0  0  0  0  0  0  0  0  0  0  0  0
  -22.9163   -7.3926    0.0000 H   0  0  0  0  0  0  0  0  0  0  0  0
  -23.9532   -6.6882    0.0000 H   0  0  0  0  0  0  0  0  0  0  0  0
  -24.9070   -5.1800    0.0000 H   0  0  0  0  0  0  0  0  0  0  0  0
  -24.2458   -4.0434    0.0000 H   0  0  0  0  0  0  0  0  0  0  0  0
  -23.4553   -5.9778    0.0000 H   0  0  0  0  0  0  0  0  0  0  0  0
  -24.8927   -3.0497    0.0000 H   0  0  0  0  0  0  0  0  0  0  0  0
  -28.2746   -3.5425    0.0000 H   0  0  0  0  0  0  0  0  0  0  0  0
  -27.5118   -5.1557    0.0000 H   0  0  0  0  0  0  0  0  0  0  0  0
  -28.3233   -1.7267    0.0000 H   0  0  0  0  0  0  0  0  0  0  0  0
  -26.5873   -0.8871    0.0000 H   0  0  0  0  0  0  0  0  0  0  0  0
  -25.4568   -2.2678    0.0000 H   0  0  0  0  0  0  0  0  0  0  0  0
  -28.5866   -4.3187    0.0000 H   0  0  0  0  0  0  0  0  0  0  0  0
  -27.2484   -7.4348    0.0000 H   0  0  0  0  0  0  0  0  0  0  0  0
  -28.6518   -9.7371    0.0000 H   0  0  0  0  0  0  0  0  0  0  0  0
  -27.4884   -8.3840    0.0000 H   0  0  0  0  0  0  0  0  0  0  0  0
  -31.9237   -8.5735    0.0000 H   0  0  0  0  0  0  0  0  0  0  0  0
  -31.2625   -7.4368    0.0000 H   0  0  0  0  0  0  0  0  0  0  0  0
  -30.6436  -11.6296    0.0000 H   0  0  0  0  0  0  0  0  0  0  0  0
  -29.3239  -10.4285    0.0000 H   0  0  0  0  0  0  0  0  0  0  0  0
  -33.5352   -9.7917    0.0000 H   0  0  0  0  0  0  0  0  0  0  0  0
  -34.4173  -13.8631    0.0000 H   0  0  0  0  0  0  0  0  0  0  0  0
  -35.0118  -11.2434    0.0000 H   0  0  0  0  0  0  0  0  0  0  0  0
  -31.8985  -14.5000    0.0000 H   0  0  0  0  0  0  0  0  0  0  0  0
  -30.0876  -12.6371    0.0000 H   0  0  0  0  0  0  0  0  0  0  0  0
  -30.6487   -9.4196    0.0000 H   0  0  0  0  0  0  0  0  0  0  0  0
  -31.9094   -6.4432    0.0000 H   0  0  0  0  0  0  0  0  0  0  0  0
  -35.2914   -6.9360    0.0000 H   0  0  0  0  0  0  0  0  0  0  0  0
  -34.5286   -8.5491    0.0000 H   0  0  0  0  0  0  0  0  0  0  0  0
  -33.6040   -4.2806    0.0000 H   0  0  0  0  0  0  0  0  0  0  0  0
  -32.4735   -5.6612    0.0000 H   0  0  0  0  0  0  0  0  0  0  0  0
  -35.6033   -7.7122    0.0000 H   0  0  0  0  0  0  0  0  0  0  0  0
  -34.2651  -10.8283    0.0000 H   0  0  0  0  0  0  0  0  0  0  0  0
  -35.8493  -13.1602    0.0000 H   0  0  0  0  0  0  0  0  0  0  0  0
  -34.5231  -11.4123    0.0000 H   0  0  0  0  0  0  0  0  0  0  0  0
  -38.9404  -11.9670    0.0000 H   0  0  0  0  0  0  0  0  0  0  0  0
  -38.1210  -10.7379    0.0000 H   0  0  0  0  0  0  0  0  0  0  0  0
  -39.6231  -15.3937    0.0000 H   0  0  0  0  0  0  0  0  0  0  0  0
  -40.3309  -12.8939    0.0000 H   0  0  0  0  0  0  0  0  0  0  0  0
  1  2  1  0
  2  3  1  0
  3  4  1  0
  4  5  2  0
  4  6  1  0
  6  7  1  0
  7  8  1  0
  8  9  1  0
  7 10  1  0
 10 11  2  0
 10 12  1  0
 12 13  1  0
 13 14  1  0
 14 15  1  0
 15 16  1  0
 16 17  2  0
 16 18  1  0
 13 19  1  0
 19 20  2  0
 19 21  1  0
 21 22  1  0
 22 23  1  0
 23 24  1  0
 24 25  1  0
 25 26  2  0
 25 27  1  0
 22 28  1  0
 28 29  2  0
 28 30  1  0
 30 31  1  0
 31 32  1  0
 32 33  1  0
 33 34  1  0
 33 35  1  0
 31 36  1  0
 36 37  2  0
 36 38  1  0
 38 39  1  0
 39 40  1  0
 40 41  1  0
 39 42  1  0
 42 43  2  0
 42 44  1  0
 44 45  1  0
 45 46  1  0
 45 47  1  0
 47 48  2  0
 47 49  1  0
 49 50  1  0
 50 51  1  0
 51 52  1  0
 52 53  1  0
 53 54  2  0
 53 55  1  0
 50 56  1  0
 56 57  2  0
 56 58  1  0
 58 59  1  0
 59 60  1  0
 59 61  1  0
 61 62  2  0
 61 63  1  0
 63 64  1  0
 64 65  1  0
 65 66  1  0
 66 67  2  0
 67 68  1  0
 68 69  1  0
 69 70  2  0
 64 71  1  0
 71 72  2  0
 71 73  1  0
 74 73  1  6
 74 75  1  0
 75 76  1  0
 76 77  1  0
 77 78  1  0
 78 79  1  0
 79 80  1  0
 80 81  1  0
 74 82  1  0
 74 83  1  0
 83 84  2  0
 83 85  1  0
 85 86  1  0
 86 87  1  0
 87 88  1  0
 88 89  1  0
 88 90  1  0
 86 91  1  0
 91 92  2  0
 91 93  1  0
 93 94  1  0
 94 95  1  0
 95 96  1  0
 94 97  1  0
 97 98  2  0
 97 99  1  0
 99100  1  0
100101  1  0
101102  1  0
101103  1  0
100104  1  0
104105  2  0
104106  1  0
106107  1  0
107108  1  0
108109  1  0
109110  1  0
109111  1  0
107112  1  0
112113  2  0
112114  1  0
114115  1  0
115116  1  0
116117  1  0
117118  1  0
117119  1  0
115120  1  0
120121  2  0
120122  1  0
122123  1  0
123124  1  0
124125  1  0
125126  1  0
126127  2  0
126128  1  0
123129  1  0
129130  2  0
129131  1  0
131132  1  0
132133  1  0
133134  1  0
134135  1  0
135136  1  0
132137  1  0
132138  1  1
138139  2  0
138140  1  0
140141  1  0
141142  1  0
141143  1  0
143144  2  0
143145  1  0
145146  1  0
146147  1  0
147148  1  0
147149  1  0
149150  1  0
146151  1  0
151152  2  0
151153  1  0
153154  1  0
154155  1  0
155156  1  0
156157  1  0
157158  1  0
157159  2  0
154160  1  0
160161  2  0
160162  1  0
162163  1  0
163164  1  0
164165  1  0
165166  2  0
165167  1  0
163168  1  0
168169  2  0
168170  1  0
170171  1  0
171172  1  0
172173  1  0
172174  1  0
171175  1  0
175176  2  0
175177  1  0
177178  1  0
178179  1  0
179180  1  0
178181  1  0
181182  2  0
181183  1  0
183184  1  0
184185  1  0
185186  1  0
186187  1  0
187188  1  0
188189  1  0
189190  2  3
189191  1  0
184192  1  0
192193  2  0
192194  1  0
194195  1  0
195196  1  0
196197  1  0
197198  1  0
198199  2  0
198200  1  0
195201  1  0
201202  2  0
201203  1  0
203204  1  0
204205  1  0
205206  1  0
206207  1  0
207208  1  0
207209  2  0
204210  1  0
210211  2  0
210212  1  0
 70 66  1  0
 81136  2  0
  1213  1  0
  1214  1  0
  2215  1  0
  2216  1  0
  3217  1  0
  3218  1  0
  6219  1  0
  7220  1  1
  8221  1  0
  8222  1  0
  9223  1  0
 12224  1  0
 13225  1  1
 14226  1  0
 14227  1  0
 15228  1  0
 15229  1  0
 21230  1  0
 22231  1  1
 23232  1  0
 23233  1  0
 24234  1  0
 24235  1  0
 30236  1  0
 31237  1  1
 32238  1  0
 32239  1  0
 33240  1  0
 34241  1  0
 34242  1  0
 34243  1  0
 35244  1  0
 35245  1  0
 35246  1  0
 38247  1  0
 39248  1  1
 40249  1  0
 40250  1  0
 41251  1  0
 41252  1  0
 41253  1  0
 44254  1  0
 45255  1  1
 46256  1  0
 46257  1  0
 46258  1  0
 49259  1  0
 50260  1  1
 51261  1  0
 51262  1  0
 52263  1  0
 52264  1  0
 58265  1  0
 59266  1  1
 60267  1  0
 60268  1  0
 60269  1  0
 63270  1  0
 64271  1  6
 65272  1  0
 65273  1  0
 67274  1  0
 68275  1  0
 69276  1  0
 73277  1  0
 75278  1  0
 75279  1  0
 76280  1  0
 76281  1  0
 77282  1  0
 77283  1  0
 78284  1  0
 78285  1  0
 79286  1  0
 79287  1  0
 80288  1  0
 80289  1  0
 81290  1  0
 82291  1  0
 82292  1  0
 82293  1  0
 85294  1  0
 86295  1  6
 87296  1  0
 87297  1  0
 88298  1  0
 89299  1  0
 89300  1  0
 89301  1  0
 90302  1  0
 90303  1  0
 90304  1  0
 93305  1  0
 94306  1  6
 95307  1  0
 95308  1  0
 96309  1  0
 99310  1  0
100311  1  6
101312  1  1
102313  1  0
103314  1  0
103315  1  0
103316  1  0
106317  1  0
107318  1  6
108319  1  0
108320  1  0
109321  1  0
110322  1  0
110323  1  0
110324  1  0
111325  1  0
111326  1  0
111327  1  0
114328  1  0
115329  1  6
116330  1  0
116331  1  0
117332  1  0
118333  1  0
118334  1  0
118335  1  0
119336  1  0
119337  1  0
119338  1  0
122339  1  0
123340  1  6
124341  1  0
124342  1  0
125343  1  0
125344  1  0
131345  1  0
133346  1  0
133347  1  0
134348  1  0
134349  1  0
135350  1  0
135351  1  0
136352  1  0
137353  1  0
137354  1  0
137355  1  0
140356  1  0
141357  1  1
142358  1  0
142359  1  0
142360  1  0
145361  1  0
146362  1  6
147363  1  1
148364  1  0
148365  1  0
148366  1  0
149367  1  0
149368  1  0
150369  1  0
150370  1  0
150371  1  0
153372  1  0
154373  1  1
155374  1  0
155375  1  0
156376  1  0
156377  1  0
158378  1  0
158379  1  0
162380  1  0
163381  1  6
164382  1  0
164383  1  0
170384  1  0
171385  1  1
172386  1  1
173387  1  0
174388  1  0
174389  1  0
174390  1  0
177391  1  0
178392  1  6
179393  1  0
179394  1  0
180395  1  0
180396  1  0
180397  1  0
183398  1  0
184399  1  1
185400  1  0
185401  1  0
186402  1  0
186403  1  0
187404  1  0
187405  1  0
188406  1  0
190407  1  0
190408  1  0
191409  1  0
191410  1  0
194411  1  0
195412  1  6
196413  1  0
196414  1  0
197415  1  0
197416  1  0
203417  1  0
204418  1  1
205419  1  0
205420  1  0
206421  1  0
206422  1  0
208423  1  0
208424  1  0
M  CHG  8  18  -1  27  -1  55  -1 128  -1 167  -1 190   1 200  -1 212  -1
M  END
