
     RDKit          2D

417417  0  0  0  0  0  0  0  0999 V2000
   28.4430  -17.5316    0.0000 N   0  0  0  0  0  0  0  0  0  0  0  0
   28.4871  -16.0322    0.0000 C   0  0  0  0  0  0  0  0  0  0  0  0
   29.8076  -15.3207    0.0000 C   0  0  0  0  0  0  0  0  0  0  0  0
   29.8517  -13.8214    0.0000 C   0  0  0  0  0  0  0  0  0  0  0  0
   28.5752  -13.0335    0.0000 O   0  0  0  0  0  0  0  0  0  0  0  0
   31.1722  -13.1099    0.0000 N   0  0  0  0  0  0  0  0  0  0  0  0
   31.2163  -11.6105    0.0000 C   0  0  0  0  0  0  0  0  0  0  0  0
   32.6852  -11.9143    0.0000 C   0  0  0  0  0  0  0  0  0  0  0  0
   34.1694  -11.6973    0.0000 O   0  0  0  0  0  0  0  0  0  0  0  0
   33.1566  -13.3383    0.0000 C   0  0  0  0  0  0  0  0  0  0  0  0
   30.7449  -10.1865    0.0000 C   0  0  0  0  0  0  0  0  0  0  0  0
   31.8715   -9.1962    0.0000 O   0  0  0  0  0  0  0  0  0  0  0  0
   29.2759   -9.8827    0.0000 N   0  0  0  0  0  0  0  0  0  0  0  0
   28.8046   -8.4587    0.0000 C   0  0  0  0  0  0  0  0  0  0  0  0
   27.4840   -9.1702    0.0000 C   0  0  0  0  0  0  0  0  0  0  0  0
   26.3132   -8.2327    0.0000 C   0  0  0  0  0  0  0  0  0  0  0  0
   26.4865  -10.2905    0.0000 C   0  0  0  0  0  0  0  0  0  0  0  0
   25.0176   -9.9867    0.0000 C   0  0  0  0  0  0  0  0  0  0  0  0
   28.8486   -6.9594    0.0000 C   0  0  0  0  0  0  0  0  0  0  0  0
   27.5722   -6.1715    0.0000 O   0  0  0  0  0  0  0  0  0  0  0  0
   30.1691   -6.2479    0.0000 N   0  0  0  0  0  0  0  0  0  0  0  0
   30.2132   -4.7485    0.0000 C   0  0  0  0  0  0  0  0  0  0  0  0
   31.6821   -5.0523    0.0000 C   0  0  0  0  0  0  0  0  0  0  0  0
   32.1535   -6.4763    0.0000 C   0  0  0  0  0  0  0  0  0  0  0  0
   33.6224   -6.7801    0.0000 C   0  0  0  0  0  0  0  0  0  0  0  0
   32.1095   -7.9756    0.0000 C   0  0  0  0  0  0  0  0  0  0  0  0
   29.7418   -3.3245    0.0000 C   0  0  0  0  0  0  0  0  0  0  0  0
   30.8685   -2.3342    0.0000 O   0  0  0  0  0  0  0  0  0  0  0  0
   28.2729   -3.0208    0.0000 N   0  0  0  0  0  0  0  0  0  0  0  0
   27.8015   -1.5968    0.0000 C   0  0  0  0  0  0  0  0  0  0  0  0
   29.2857   -1.3798    0.0000 C   0  0  0  0  0  0  0  0  0  0  0  0
   29.8400    0.0141    0.0000 C   0  0  0  0  0  0  0  0  0  0  0  0
   31.3242    0.2310    0.0000 C   0  0  0  0  0  0  0  0  0  0  0  0
   31.8784    1.6249    0.0000 C   0  0  0  0  0  0  0  0  0  0  0  0
   33.3626    1.8418    0.0000 N   0  0  0  0  0  0  0  0  0  0  0  0
   26.8715   -0.4199    0.0000 C   0  0  0  0  0  0  0  0  0  0  0  0
   27.5915    0.8960    0.0000 O   0  0  0  0  0  0  0  0  0  0  0  0
   25.3873   -0.6368    0.0000 N   0  0  0  0  0  0  0  0  0  0  0  0
   24.4573    0.5401    0.0000 C   0  0  0  0  0  0  0  0  0  0  0  0
   25.7778    1.2516    0.0000 C   0  0  0  0  0  0  0  0  0  0  0  0
   23.1808    1.3279    0.0000 C   0  0  0  0  0  0  0  0  0  0  0  0
   23.2249    2.8273    0.0000 O   0  0  0  0  0  0  0  0  0  0  0  0
   21.8603    0.6164    0.0000 N   0  0  0  0  0  0  0  0  0  0  0  0
   20.5839    1.4043    0.0000 C   0  0  0  0  0  0  0  0  0  0  0  0
   20.0297    0.0104    0.0000 C   0  0  0  0  0  0  0  0  0  0  0  0
   20.8093   -1.2711    0.0000 O   0  0  0  0  0  0  0  0  0  0  0  0
   19.6539    2.5812    0.0000 C   0  0  0  0  0  0  0  0  0  0  0  0
   18.1696    2.3642    0.0000 O   0  0  0  0  0  0  0  0  0  0  0  0
   20.2081    3.9750    0.0000 N   0  0  0  0  0  0  0  0  0  0  0  0
   19.2781    5.1519    0.0000 C   0  0  0  0  0  0  0  0  0  0  0  0
   20.5986    5.8634    0.0000 C   0  0  0  0  0  0  0  0  0  0  0  0
   21.8750    5.0756    0.0000 C   0  0  0  0  0  0  0  0  0  0  0  0
   18.0017    5.9398    0.0000 C   0  0  0  0  0  0  0  0  0  0  0  0
   18.0457    7.4391    0.0000 O   0  0  0  0  0  0  0  0  0  0  0  0
   16.6811    5.2283    0.0000 N   0  0  0  0  0  0  0  0  0  0  0  0
   15.4047    6.0161    0.0000 C   0  0  0  0  0  0  0  0  0  0  0  0
   14.8505    4.6223    0.0000 C   0  0  0  0  0  0  0  0  0  0  0  0
   15.7805    3.4454    0.0000 C   0  0  0  0  0  0  0  0  0  0  0  0
   15.2263    2.0515    0.0000 O   0  0  0  0  0  0  0  0  0  0  0  0
   17.2801    3.4798    0.0000 O   0  0  0  0  0  0  0  0  0  0  0  0
   14.4747    7.1930    0.0000 C   0  0  0  0  0  0  0  0  0  0  0  0
   13.7059    6.9824    0.0000 O   0  0  0  0  0  0  0  0  0  0  0  0
   15.0289    8.5869    0.0000 N   0  0  0  0  0  0  0  0  0  0  0  0
   14.0989    9.7638    0.0000 C   0  0  0  0  0  0  0  0  0  0  0  0
   13.6275   11.1878    0.0000 C   0  0  0  0  0  0  0  0  0  0  0  0
   14.6251   12.3080    0.0000 C   0  0  0  0  0  0  0  0  0  0  0  0
   16.0940   12.0042    0.0000 C   0  0  0  0  0  0  0  0  0  0  0  0
   17.0915   13.1245    0.0000 C   0  0  0  0  0  0  0  0  0  0  0  0
   16.6201   14.5485    0.0000 C   0  0  0  0  0  0  0  0  0  0  0  0
   17.6176   15.6687    0.0000 O   0  0  0  0  0  0  0  0  0  0  0  0
   15.1512   14.8523    0.0000 C   0  0  0  0  0  0  0  0  0  0  0  0
   14.1537   13.7320    0.0000 C   0  0  0  0  0  0  0  0  0  0  0  0
   13.1014    8.6435    0.0000 C   0  0  0  0  0  0  0  0  0  0  0  0
   13.2578    7.8619    0.0000 O   0  0  0  0  0  0  0  0  0  0  0  0
   11.6325    8.9473    0.0000 N   0  0  0  0  0  0  0  0  0  0  0  0
   10.6349    7.8270    0.0000 C   0  0  0  0  0  0  0  0  0  0  0  0
   10.0807    6.4332    0.0000 C   0  0  0  0  0  0  0  0  0  0  0  0
    8.6340    6.0369    0.0000 C   0  0  0  0  0  0  0  0  0  0  0  0
   10.0366    4.9338    0.0000 C   0  0  0  0  0  0  0  0  0  0  0  0
   11.3131    4.1460    0.0000 C   0  0  0  0  0  0  0  0  0  0  0  0
    9.1660    8.1308    0.0000 C   0  0  0  0  0  0  0  0  0  0  0  0
    8.6946    9.5548    0.0000 O   0  0  0  0  0  0  0  0  0  0  0  0
    8.1685    7.0106    0.0000 N   0  0  0  0  0  0  0  0  0  0  0  0
    6.6996    7.3143    0.0000 C   0  0  0  0  0  0  0  0  0  0  0  0
    5.4231    8.1022    0.0000 C   0  0  0  0  0  0  0  0  0  0  0  0
    4.1026    7.3907    0.0000 C   0  0  0  0  0  0  0  0  0  0  0  0
    2.8262    8.1785    0.0000 C   0  0  0  0  0  0  0  0  0  0  0  0
    1.5057    7.4670    0.0000 N   0  0  0  0  0  0  0  0  0  0  0  0
    0.2292    8.2549    0.0000 C   0  0  0  0  0  0  0  0  0  0  0  0
   -0.9947    7.3877    0.0000 N   0  0  0  0  0  0  0  0  0  0  0  0
    0.2733    9.7542    0.0000 N   0  0  0  0  0  0  0  0  0  0  0  0
    5.7020    6.1941    0.0000 C   0  0  0  0  0  0  0  0  0  0  0  0
    6.1734    4.7701    0.0000 O   0  0  0  0  0  0  0  0  0  0  0  0
    4.2331    6.4979    0.0000 N   0  0  0  0  0  0  0  0  0  0  0  0
    3.2356    5.3776    0.0000 C   0  0  0  0  0  0  0  0  0  0  0  0
    2.6814    3.9838    0.0000 C   0  0  0  0  0  0  0  0  0  0  0  0
    1.1971    3.7668    0.0000 C   0  0  0  0  0  0  0  0  0  0  0  0
    0.6429    2.3729    0.0000 C   0  0  0  0  0  0  0  0  0  0  0  0
   -0.8413    2.1560    0.0000 C   0  0  0  0  0  0  0  0  0  0  0  0
   -1.3955    0.7621    0.0000 N   0  0  0  0  0  0  0  0  0  0  0  0
    1.7667    5.6814    0.0000 C   0  0  0  0  0  0  0  0  0  0  0  0
    0.9647    6.9490    0.0000 O   0  0  0  0  0  0  0  0  0  0  0  0
    0.7692    4.5611    0.0000 N   0  0  0  0  0  0  0  0  0  0  0  0
   -0.6998    4.8649    0.0000 C   0  0  0  0  0  0  0  0  0  0  0  0
   -1.9762    5.6527    0.0000 C   0  0  0  0  0  0  0  0  0  0  0  0
   -3.2967    4.9412    0.0000 C   0  0  0  0  0  0  0  0  0  0  0  0
   -4.5732    5.7291    0.0000 C   0  0  0  0  0  0  0  0  0  0  0  0
   -4.2943    3.8210    0.0000 C   0  0  0  0  0  0  0  0  0  0  0  0
   -1.6973    3.7447    0.0000 C   0  0  0  0  0  0  0  0  0  0  0  0
   -1.5845    2.2489    0.0000 O   0  0  0  0  0  0  0  0  0  0  0  0
   -3.1662    4.0484    0.0000 N   0  0  0  0  0  0  0  0  0  0  0  0
   -4.1637    2.9282    0.0000 C   0  0  0  0  0  0  0  0  0  0  0  0
   -4.7180    1.5343    0.0000 C   0  0  0  0  0  0  0  0  0  0  0  0
   -6.2022    1.3174    0.0000 C   0  0  0  0  0  0  0  0  0  0  0  0
   -6.7564   -0.0765    0.0000 C   0  0  0  0  0  0  0  0  0  0  0  0
   -8.2031   -0.4727    0.0000 N   0  0  0  0  0  0  0  0  0  0  0  0
   -5.8264   -1.2534    0.0000 O   0  0  0  0  0  0  0  0  0  0  0  0
   -5.6327    3.2319    0.0000 C   0  0  0  0  0  0  0  0  0  0  0  0
   -6.4346    4.4996    0.0000 O   0  0  0  0  0  0  0  0  0  0  0  0
   -6.6302    2.1117    0.0000 N   0  0  0  0  0  0  0  0  0  0  0  0
   -8.0991    2.4155    0.0000 C   0  0  0  0  0  0  0  0  0  0  0  0
   -9.3756    3.2033    0.0000 C   0  0  0  0  0  0  0  0  0  0  0  0
   -9.3315    4.7027    0.0000 C   0  0  0  0  0  0  0  0  0  0  0  0
  -10.6079    5.4905    0.0000 C   0  0  0  0  0  0  0  0  0  0  0  0
  -10.5638    6.9899    0.0000 N   0  0  0  0  0  0  0  0  0  0  0  0
  -11.8403    7.7777    0.0000 C   0  0  0  0  0  0  0  0  0  0  0  0
  -11.7962    9.2771    0.0000 N   0  0  0  0  0  0  0  0  0  0  0  0
  -13.1608    7.0662    0.0000 N   0  0  0  0  0  0  0  0  0  0  0  0
   -9.0966    1.2952    0.0000 C   0  0  0  0  0  0  0  0  0  0  0  0
   -8.8023   -0.1756    0.0000 O   0  0  0  0  0  0  0  0  0  0  0  0
  -10.5656    1.5990    0.0000 N   0  0  0  0  0  0  0  0  0  0  0  0
  -11.5631    0.4788    0.0000 C   0  0  0  0  0  0  0  0  0  0  0  0
  -12.1173   -0.9151    0.0000 C   0  0  0  0  0  0  0  0  0  0  0  0
  -13.6015   -1.1321    0.0000 C   0  0  0  0  0  0  0  0  0  0  0  0
  -14.1558   -2.5259    0.0000 C   0  0  0  0  0  0  0  0  0  0  0  0
  -15.6025   -2.9222    0.0000 O   0  0  0  0  0  0  0  0  0  0  0  0
  -13.2258   -3.7028    0.0000 O   0  0  0  0  0  0  0  0  0  0  0  0
  -13.0320    0.7825    0.0000 C   0  0  0  0  0  0  0  0  0  0  0  0
  -13.5034    2.2065    0.0000 O   0  0  0  0  0  0  0  0  0  0  0  0
  -14.0295   -0.3377    0.0000 N   0  0  0  0  0  0  0  0  0  0  0  0
  -15.4985   -0.0340    0.0000 C   0  0  0  0  0  0  0  0  0  0  0  0
  -16.7749    0.7539    0.0000 C   0  0  0  0  0  0  0  0  0  0  0  0
  -16.7308    2.2532    0.0000 C   0  0  0  0  0  0  0  0  0  0  0  0
  -18.0073    3.0411    0.0000 C   0  0  0  0  0  0  0  0  0  0  0  0
  -17.9632    4.5404    0.0000 N   0  0  0  0  0  0  0  0  0  0  0  0
  -19.3278    2.3296    0.0000 O   0  0  0  0  0  0  0  0  0  0  0  0
  -16.4960   -1.1542    0.0000 C   0  0  0  0  0  0  0  0  0  0  0  0
  -16.2017   -2.6250    0.0000 O   0  0  0  0  0  0  0  0  0  0  0  0
  -17.9649   -0.8504    0.0000 N   0  0  0  0  0  0  0  0  0  0  0  0
  -18.9624   -1.9707    0.0000 C   0  0  0  0  0  0  0  0  0  0  0  0
  -19.5167   -3.3645    0.0000 C   0  0  0  0  0  0  0  0  0  0  0  0
  -21.0009   -3.5815    0.0000 C   0  0  0  0  0  0  0  0  0  0  0  0
  -21.5551   -4.9753    0.0000 C   0  0  0  0  0  0  0  0  0  0  0  0
  -23.0018   -5.3716    0.0000 N   0  0  0  0  0  0  0  0  0  0  0  0
  -20.6251   -6.1522    0.0000 O   0  0  0  0  0  0  0  0  0  0  0  0
  -20.4314   -1.6669    0.0000 C   0  0  0  0  0  0  0  0  0  0  0  0
  -20.9027   -0.2429    0.0000 O   0  0  0  0  0  0  0  0  0  0  0  0
  -21.4289   -2.7872    0.0000 N   0  0  0  0  0  0  0  0  0  0  0  0
  -22.8978   -2.4834    0.0000 C   0  0  0  0  0  0  0  0  0  0  0  0
  -24.1742   -1.6955    0.0000 C   0  0  0  0  0  0  0  0  0  0  0  0
  -24.1302   -0.1962    0.0000 C   0  0  0  0  0  0  0  0  0  0  0  0
  -25.4066    0.5916    0.0000 C   0  0  0  0  0  0  0  0  0  0  0  0
  -25.3625    2.0910    0.0000 N   0  0  0  0  0  0  0  0  0  0  0  0
  -26.6390    2.8788    0.0000 C   0  0  0  0  0  0  0  0  0  0  0  0
  -26.5949    4.3782    0.0000 N   0  0  0  0  0  0  0  0  0  0  0  0
  -27.9595    2.1673    0.0000 N   0  0  0  0  0  0  0  0  0  0  0  0
  -23.8953   -3.6036    0.0000 C   0  0  0  0  0  0  0  0  0  0  0  0
  -23.6010   -5.0745    0.0000 O   0  0  0  0  0  0  0  0  0  0  0  0
  -25.3642   -3.2999    0.0000 N   0  0  0  0  0  0  0  0  0  0  0  0
  -26.3618   -4.4201    0.0000 C   0  0  0  0  0  0  0  0  0  0  0  0
  -26.9160   -5.8140    0.0000 C   0  0  0  0  0  0  0  0  0  0  0  0
  -27.8307   -4.1163    0.0000 C   0  0  0  0  0  0  0  0  0  0  0  0
  -28.3021   -2.6923    0.0000 O   0  0  0  0  0  0  0  0  0  0  0  0
  -28.8282   -5.2366    0.0000 N   0  0  0  0  0  0  0  0  0  0  0  0
  -30.2971   -4.9328    0.0000 C   0  0  0  0  0  0  0  0  0  0  0  0
  -31.5736   -4.1450    0.0000 C   0  0  0  0  0  0  0  0  0  0  0  0
  -31.5295   -2.6456    0.0000 C   0  0  0  0  0  0  0  0  0  0  0  0
  -32.8060   -1.8578    0.0000 C   0  0  0  0  0  0  0  0  0  0  0  0
  -32.7619   -0.3584    0.0000 C   0  0  0  0  0  0  0  0  0  0  0  0
  -34.0383    0.4294    0.0000 N   0  0  0  0  0  0  0  0  0  0  0  0
  -31.2947   -6.0531    0.0000 C   0  0  0  0  0  0  0  0  0  0  0  0
  -30.8233   -7.4771    0.0000 O   0  0  0  0  0  0  0  0  0  0  0  0
  -32.7636   -5.7493    0.0000 N   0  0  0  0  0  0  0  0  0  0  0  0
  -33.7611   -6.8695    0.0000 C   0  0  0  0  0  0  0  0  0  0  0  0
  -34.3153   -8.2634    0.0000 C   0  0  0  0  0  0  0  0  0  0  0  0
  -35.7996   -8.4804    0.0000 C   0  0  0  0  0  0  0  0  0  0  0  0
  -36.3538   -9.8742    0.0000 C   0  0  0  0  0  0  0  0  0  0  0  0
  -37.8005  -10.2705    0.0000 O   0  0  0  0  0  0  0  0  0  0  0  0
  -35.4238  -11.0511    0.0000 O   0  0  0  0  0  0  0  0  0  0  0  0
  -35.2300   -6.5658    0.0000 C   0  0  0  0  0  0  0  0  0  0  0  0
  -35.7014   -5.1418    0.0000 O   0  0  0  0  0  0  0  0  0  0  0  0
  -36.2276   -7.6860    0.0000 N   0  0  0  0  0  0  0  0  0  0  0  0
  -37.6965   -7.3823    0.0000 C   0  0  0  0  0  0  0  0  0  0  0  0
  -38.9729   -6.5944    0.0000 C   0  0  0  0  0  0  0  0  0  0  0  0
  -38.9289   -5.0951    0.0000 C   0  0  0  0  0  0  0  0  0  0  0  0
  -40.2053   -4.3072    0.0000 C   0  0  0  0  0  0  0  0  0  0  0  0
  -38.3746   -3.7012    0.0000 C   0  0  0  0  0  0  0  0  0  0  0  0
  -38.6940   -8.5025    0.0000 C   0  0  0  0  0  0  0  0  0  0  0  0
  -40.1890   -8.3801    0.0000 O   0  0  0  0  0  0  0  0  0  0  0  0
  -38.3997   -9.9733    0.0000 O   0  0  0  0  0  0  0  0  0  0  0  0
   27.1225  -18.2431    0.0000 H   0  0  0  0  0  0  0  0  0  0  0  0
   29.7195  -18.3194    0.0000 H   0  0  0  0  0  0  0  0  0  0  0  0
   27.0029  -16.2492    0.0000 H   0  0  0  0  0  0  0  0  0  0  0  0
   28.0157  -14.6082    0.0000 H   0  0  0  0  0  0  0  0  0  0  0  0
   30.2790  -16.7447    0.0000 H   0  0  0  0  0  0  0  0  0  0  0  0
   31.2918  -15.1038    0.0000 H   0  0  0  0  0  0  0  0  0  0  0  0
   32.3431  -14.0474    0.0000 H   0  0  0  0  0  0  0  0  0  0  0  0
   29.7320  -11.8275    0.0000 H   0  0  0  0  0  0  0  0  0  0  0  0
   32.7293  -10.4149    0.0000 H   0  0  0  0  0  0  0  0  0  0  0  0
   35.2359  -12.7521    0.0000 H   0  0  0  0  0  0  0  0  0  0  0  0
   34.5775  -13.8188    0.0000 H   0  0  0  0  0  0  0  0  0  0  0  0
   33.1125  -14.8376    0.0000 H   0  0  0  0  0  0  0  0  0  0  0  0
   31.8487  -14.0728    0.0000 H   0  0  0  0  0  0  0  0  0  0  0  0
   28.5791  -11.2111    0.0000 H   0  0  0  0  0  0  0  0  0  0  0  0
   30.2513   -8.0625    0.0000 H   0  0  0  0  0  0  0  0  0  0  0  0
   28.2636  -10.4517    0.0000 H   0  0  0  0  0  0  0  0  0  0  0  0
   24.7927   -8.9137    0.0000 H   0  0  0  0  0  0  0  0  0  0  0  0
   25.2776   -7.2055    0.0000 H   0  0  0  0  0  0  0  0  0  0  0  0
   27.2051   -7.2622    0.0000 H   0  0  0  0  0  0  0  0  0  0  0  0
   25.9323  -11.6843    0.0000 H   0  0  0  0  0  0  0  0  0  0  0  0
   27.6574  -11.2281    0.0000 H   0  0  0  0  0  0  0  0  0  0  0  0
   24.0201  -11.1070    0.0000 H   0  0  0  0  0  0  0  0  0  0  0  0
   23.7411   -9.1989    0.0000 H   0  0  0  0  0  0  0  0  0  0  0  0
   25.2181   -8.5002    0.0000 H   0  0  0  0  0  0  0  0  0  0  0  0
   31.3400   -7.1854    0.0000 H   0  0  0  0  0  0  0  0  0  0  0  0
   28.7290   -4.9655    0.0000 H   0  0  0  0  0  0  0  0  0  0  0  0
   33.1288   -4.6560    0.0000 H   0  0  0  0  0  0  0  0  0  0  0  0
   31.7262   -3.5529    0.0000 H   0  0  0  0  0  0  0  0  0  0  0  0
   30.8457   -7.2108    0.0000 H   0  0  0  0  0  0  0  0  0  0  0  0
   34.2639   -8.1360    0.0000 H   0  0  0  0  0  0  0  0  0  0  0  0
   35.1067   -6.5631    0.0000 H   0  0  0  0  0  0  0  0  0  0  0  0
   33.8490   -5.2973    0.0000 H   0  0  0  0  0  0  0  0  0  0  0  0
   33.2803   -8.9132    0.0000 H   0  0  0  0  0  0  0  0  0  0  0  0
   31.7293   -9.4267    0.0000 H   0  0  0  0  0  0  0  0  0  0  0  0
   30.6885   -7.4951    0.0000 H   0  0  0  0  0  0  0  0  0  0  0  0
   27.2754   -4.1410    0.0000 H   0  0  0  0  0  0  0  0  0  0  0  0
   26.4810   -2.3083    0.0000 H   0  0  0  0  0  0  0  0  0  0  0  0
   30.7547   -1.6836    0.0000 H   0  0  0  0  0  0  0  0  0  0  0  0
   29.6058   -2.8453    0.0000 H   0  0  0  0  0  0  0  0  0  0  0  0
   29.7009    1.5076    0.0000 H   0  0  0  0  0  0  0  0  0  0  0  0
   28.3710    0.3178    0.0000 H   0  0  0  0  0  0  0  0  0  0  0  0
   32.7451   -0.2495    0.0000 H   0  0  0  0  0  0  0  0  0  0  0  0
   31.4632   -1.2625    0.0000 H   0  0  0  0  0  0  0  0  0  0  0  0
   31.9225    3.1242    0.0000 H   0  0  0  0  0  0  0  0  0  0  0  0
   30.4575    2.1054    0.0000 H   0  0  0  0  0  0  0  0  0  0  0  0
   33.9169    3.2357    0.0000 H   0  0  0  0  0  0  0  0  0  0  0  0
   34.8316    1.5381    0.0000 H   0  0  0  0  0  0  0  0  0  0  0  0
   33.5017    0.3483    0.0000 H   0  0  0  0  0  0  0  0  0  0  0  0
   24.8330   -2.0307    0.0000 H   0  0  0  0  0  0  0  0  0  0  0  0
   23.4597   -0.5802    0.0000 H   0  0  0  0  0  0  0  0  0  0  0  0
   27.1407    0.6252    0.0000 H   0  0  0  0  0  0  0  0  0  0  0  0
   26.7753    2.3718    0.0000 H   0  0  0  0  0  0  0  0  0  0  0  0
   24.8478    2.4285    0.0000 H   0  0  0  0  0  0  0  0  0  0  0  0
   21.9993   -0.8771    0.0000 H   0  0  0  0  0  0  0  0  0  0  0  0
   21.5814    2.5245    0.0000 H   0  0  0  0  0  0  0  0  0  0  0  0
   19.0321   -1.1098    0.0000 H   0  0  0  0  0  0  0  0  0  0  0  0
   18.7532    0.7983    0.0000 H   0  0  0  0  0  0  0  0  0  0  0  0
   20.4054   -2.5603    0.0000 H   0  0  0  0  0  0  0  0  0  0  0  0
   21.7077    4.0094    0.0000 H   0  0  0  0  0  0  0  0  0  0  0  0
   18.2806    4.0317    0.0000 H   0  0  0  0  0  0  0  0  0  0  0  0
   21.5961    6.9837    0.0000 H   0  0  0  0  0  0  0  0  0  0  0  0
   19.6686    7.0403    0.0000 H   0  0  0  0  0  0  0  0  0  0  0  0
   23.1956    5.7871    0.0000 H   0  0  0  0  0  0  0  0  0  0  0  0
   22.8051    3.8987    0.0000 H   0  0  0  0  0  0  0  0  0  0  0  0
   21.3453    3.6722    0.0000 H   0  0  0  0  0  0  0  0  0  0  0  0
   16.8202    3.7347    0.0000 H   0  0  0  0  0  0  0  0  0  0  0  0
   16.4022    7.1363    0.0000 H   0  0  0  0  0  0  0  0  0  0  0  0
   13.8529    3.5020    0.0000 H   0  0  0  0  0  0  0  0  0  0  0  0
   13.5740    5.4101    0.0000 H   0  0  0  0  0  0  0  0  0  0  0  0
   16.5131    8.8038    0.0000 H   0  0  0  0  0  0  0  0  0  0  0  0
   15.4194   10.4753    0.0000 H   0  0  0  0  0  0  0  0  0  0  0  0
   12.3070   10.4763    0.0000 H   0  0  0  0  0  0  0  0  0  0  0  0
   12.6975   12.3647    0.0000 H   0  0  0  0  0  0  0  0  0  0  0  0
   16.5654   10.5802    0.0000 H   0  0  0  0  0  0  0  0  0  0  0  0
   18.5604   12.8207    0.0000 H   0  0  0  0  0  0  0  0  0  0  0  0
   17.1462   17.0927    0.0000 H   0  0  0  0  0  0  0  0  0  0  0  0
   14.6798   16.2763    0.0000 H   0  0  0  0  0  0  0  0  0  0  0  0
   12.6847   14.0358    0.0000 H   0  0  0  0  0  0  0  0  0  0  0  0
   11.1611   10.3713    0.0000 H   0  0  0  0  0  0  0  0  0  0  0  0
   11.9114    7.0392    0.0000 H   0  0  0  0  0  0  0  0  0  0  0  0
   11.5757    6.3107    0.0000 H   0  0  0  0  0  0  0  0  0  0  0  0
    7.8765    4.9003    0.0000 H   0  0  0  0  0  0  0  0  0  0  0  0
    7.1276    6.5200    0.0000 H   0  0  0  0  0  0  0  0  0  0  0  0
    7.9314    7.5607    0.0000 H   0  0  0  0  0  0  0  0  0  0  0  0
    9.4824    3.5400    0.0000 H   0  0  0  0  0  0  0  0  0  0  0  0
    8.5379    4.8731    0.0000 H   0  0  0  0  0  0  0  0  0  0  0  0
   11.2690    2.6466    0.0000 H   0  0  0  0  0  0  0  0  0  0  0  0
   12.7820    3.8422    0.0000 H   0  0  0  0  0  0  0  0  0  0  0  0
   12.0331    5.4619    0.0000 H   0  0  0  0  0  0  0  0  0  0  0  0
    8.2813    5.5148    0.0000 H   0  0  0  0  0  0  0  0  0  0  0  0
    7.2538    8.7082    0.0000 H   0  0  0  0  0  0  0  0  0  0  0  0
    4.6435    9.3837    0.0000 H   0  0  0  0  0  0  0  0  0  0  0  0
    6.4207    9.2224    0.0000 H   0  0  0  0  0  0  0  0  0  0  0  0
    3.1051    6.2704    0.0000 H   0  0  0  0  0  0  0  0  0  0  0  0
    4.3711    5.9149    0.0000 H   0  0  0  0  0  0  0  0  0  0  0  0
    1.8962    9.3554    0.0000 H   0  0  0  0  0  0  0  0  0  0  0  0
    3.6797    9.4120    0.0000 H   0  0  0  0  0  0  0  0  0  0  0  0
    0.9271    6.0831    0.0000 H   0  0  0  0  0  0  0  0  0  0  0  0
   -2.3677    8.3312    0.0000 H   0  0  0  0  0  0  0  0  0  0  0  0
   -0.9705    6.0369    0.0000 H   0  0  0  0  0  0  0  0  0  0  0  0
   -1.0031   10.5420    0.0000 H   0  0  0  0  0  0  0  0  0  0  0  0
    1.5938   10.4657    0.0000 H   0  0  0  0  0  0  0  0  0  0  0  0
    3.4312    7.7655    0.0000 H   0  0  0  0  0  0  0  0  0  0  0  0
    4.5120    4.5898    0.0000 H   0  0  0  0  0  0  0  0  0  0  0  0
    2.8204    2.4902    0.0000 H   0  0  0  0  0  0  0  0  0  0  0  0
    4.1503    3.6800    0.0000 H   0  0  0  0  0  0  0  0  0  0  0  0
   -0.2238    4.2474    0.0000 H   0  0  0  0  0  0  0  0  0  0  0  0
    0.3731    5.0202    0.0000 H   0  0  0  0  0  0  0  0  0  0  0  0
    0.7819    0.8794    0.0000 H   0  0  0  0  0  0  0  0  0  0  0  0
    2.0639    1.8924    0.0000 H   0  0  0  0  0  0  0  0  0  0  0  0
   -2.3363    2.2784    0.0000 H   0  0  0  0  0  0  0  0  0  0  0  0
   -0.9803    3.6495    0.0000 H   0  0  0  0  0  0  0  0  0  0  0  0
   -2.8951    0.7277    0.0000 H   0  0  0  0  0  0  0  0  0  0  0  0
   -1.4396   -0.7372    0.0000 H   0  0  0  0  0  0  0  0  0  0  0  0
    0.0254    0.2816    0.0000 H   0  0  0  0  0  0  0  0  0  0  0  0
    0.8820    3.0654    0.0000 H   0  0  0  0  0  0  0  0  0  0  0  0
   -0.1455    6.2588    0.0000 H   0  0  0  0  0  0  0  0  0  0  0  0
   -2.7558    6.9342    0.0000 H   0  0  0  0  0  0  0  0  0  0  0  0
   -0.7373    6.4983    0.0000 H   0  0  0  0  0  0  0  0  0  0  0  0
   -3.0283    3.4655    0.0000 H   0  0  0  0  0  0  0  0  0  0  0  0
   -6.0266    5.3583    0.0000 H   0  0  0  0  0  0  0  0  0  0  0  0
   -5.5032    6.9060    0.0000 H   0  0  0  0  0  0  0  0  0  0  0  0
   -3.7196    6.9626    0.0000 H   0  0  0  0  0  0  0  0  0  0  0  0
   -5.7632    4.1248    0.0000 H   0  0  0  0  0  0  0  0  0  0  0  0
   -4.8485    2.4271    0.0000 H   0  0  0  0  0  0  0  0  0  0  0  0
   -2.9313    3.1946    0.0000 H   0  0  0  0  0  0  0  0  0  0  0  0
   -3.9682    5.3160    0.0000 H   0  0  0  0  0  0  0  0  0  0  0  0
   -3.1159    1.8549    0.0000 H   0  0  0  0  0  0  0  0  0  0  0  0
   -4.7620    0.0350    0.0000 H   0  0  0  0  0  0  0  0  0  0  0  0
   -3.2230    1.4119    0.0000 H   0  0  0  0  0  0  0  0  0  0  0  0
   -7.6711    1.6211    0.0000 H   0  0  0  0  0  0  0  0  0  0  0  0
   -6.8673    2.6618    0.0000 H   0  0  0  0  0  0  0  0  0  0  0  0
   -8.7949   -1.6873    0.0000 H   0  0  0  0  0  0  0  0  0  0  0  0
   -9.4701    0.6090    0.0000 H   0  0  0  0  0  0  0  0  0  0  0  0
   -6.5174    0.6160    0.0000 H   0  0  0  0  0  0  0  0  0  0  0  0
   -7.3791    3.7314    0.0000 H   0  0  0  0  0  0  0  0  0  0  0  0
  -10.8445    3.5071    0.0000 H   0  0  0  0  0  0  0  0  0  0  0  0
  -10.2506    1.9850    0.0000 H   0  0  0  0  0  0  0  0  0  0  0  0
   -8.7773    6.0965    0.0000 H   0  0  0  0  0  0  0  0  0  0  0  0
   -7.8365    4.5802    0.0000 H   0  0  0  0  0  0  0  0  0  0  0  0
  -12.0768    5.7943    0.0000 H   0  0  0  0  0  0  0  0  0  0  0  0
  -11.3279    4.1746    0.0000 H   0  0  0  0  0  0  0  0  0  0  0  0
   -9.2433    7.7014    0.0000 H   0  0  0  0  0  0  0  0  0  0  0  0
  -13.0727   10.0649    0.0000 H   0  0  0  0  0  0  0  0  0  0  0  0
  -10.4757    9.9886    0.0000 H   0  0  0  0  0  0  0  0  0  0  0  0
  -14.4372    7.8540    0.0000 H   0  0  0  0  0  0  0  0  0  0  0  0
  -13.2049    5.5668    0.0000 H   0  0  0  0  0  0  0  0  0  0  0  0
  -11.2070    2.9549    0.0000 H   0  0  0  0  0  0  0  0  0  0  0  0
  -10.2866   -0.3091    0.0000 H   0  0  0  0  0  0  0  0  0  0  0  0
  -12.1614   -2.4145    0.0000 H   0  0  0  0  0  0  0  0  0  0  0  0
  -10.6484   -1.2189    0.0000 H   0  0  0  0  0  0  0  0  0  0  0  0
  -15.0705   -0.8283    0.0000 H   0  0  0  0  0  0  0  0  0  0  0  0
  -14.2667    0.2124    0.0000 H   0  0  0  0  0  0  0  0  0  0  0  0
  -13.9167   -1.8335    0.0000 H   0  0  0  0  0  0  0  0  0  0  0  0
  -14.7785    1.2819    0.0000 H   0  0  0  0  0  0  0  0  0  0  0  0
  -18.1958    1.2344    0.0000 H   0  0  0  0  0  0  0  0  0  0  0  0
  -17.6499   -0.4644    0.0000 H   0  0  0  0  0  0  0  0  0  0  0  0
  -16.1766    3.6471    0.0000 H   0  0  0  0  0  0  0  0  0  0  0  0
  -15.2358    2.1308    0.0000 H   0  0  0  0  0  0  0  0  0  0  0  0
  -19.2396    5.3283    0.0000 H   0  0  0  0  0  0  0  0  0  0  0  0
  -16.6427    5.2519    0.0000 H   0  0  0  0  0  0  0  0  0  0  0  0
  -18.6064    0.5055    0.0000 H   0  0  0  0  0  0  0  0  0  0  0  0
  -17.6860   -2.7585    0.0000 H   0  0  0  0  0  0  0  0  0  0  0  0
  -19.5607   -4.8639    0.0000 H   0  0  0  0  0  0  0  0  0  0  0  0
  -18.0477   -3.6683    0.0000 H   0  0  0  0  0  0  0  0  0  0  0  0
  -22.4698   -3.2777    0.0000 H   0  0  0  0  0  0  0  0  0  0  0  0
  -21.6660   -2.2370    0.0000 H   0  0  0  0  0  0  0  0  0  0  0  0
  -23.5936   -6.5862    0.0000 H   0  0  0  0  0  0  0  0  0  0  0  0
  -24.2688   -4.2898    0.0000 H   0  0  0  0  0  0  0  0  0  0  0  0
  -21.3161   -4.2829    0.0000 H   0  0  0  0  0  0  0  0  0  0  0  0
  -22.1778   -1.1675    0.0000 H   0  0  0  0  0  0  0  0  0  0  0  0
  -25.6432   -1.3918    0.0000 H   0  0  0  0  0  0  0  0  0  0  0  0
  -25.0493   -2.9139    0.0000 H   0  0  0  0  0  0  0  0  0  0  0  0
  -23.5759    1.1977    0.0000 H   0  0  0  0  0  0  0  0  0  0  0  0
  -22.6352   -0.3186    0.0000 H   0  0  0  0  0  0  0  0  0  0  0  0
  -26.8755    0.8954    0.0000 H   0  0  0  0  0  0  0  0  0  0  0  0
  -26.1266   -0.7243    0.0000 H   0  0  0  0  0  0  0  0  0  0  0  0
  -24.0420    2.8025    0.0000 H   0  0  0  0  0  0  0  0  0  0  0  0
  -27.8713    5.1660    0.0000 H   0  0  0  0  0  0  0  0  0  0  0  0
  -25.2744    5.0897    0.0000 H   0  0  0  0  0  0  0  0  0  0  0  0
  -29.2359    2.9552    0.0000 H   0  0  0  0  0  0  0  0  0  0  0  0
  -28.0036    0.6680    0.0000 H   0  0  0  0  0  0  0  0  0  0  0  0
  -26.0057   -1.9439    0.0000 H   0  0  0  0  0  0  0  0  0  0  0  0
  -25.0853   -5.2080    0.0000 H   0  0  0  0  0  0  0  0  0  0  0  0
  -28.2238   -6.5485    0.0000 H   0  0  0  0  0  0  0  0  0  0  0  0
  -26.9601   -7.3133    0.0000 H   0  0  0  0  0  0  0  0  0  0  0  0
  -25.4471   -6.1177    0.0000 H   0  0  0  0  0  0  0  0  0  0  0  0
  -28.5339   -6.7074    0.0000 H   0  0  0  0  0  0  0  0  0  0  0  0
  -29.5771   -3.6169    0.0000 H   0  0  0  0  0  0  0  0  0  0  0  0
  -33.0425   -3.8412    0.0000 H   0  0  0  0  0  0  0  0  0  0  0  0
  -32.4486   -5.3633    0.0000 H   0  0  0  0  0  0  0  0  0  0  0  0
  -30.8095   -1.3297    0.0000 H   0  0  0  0  0  0  0  0  0  0  0  0
  -30.0345   -2.7681    0.0000 H   0  0  0  0  0  0  0  0  0  0  0  0
  -34.3009   -1.7353    0.0000 H   0  0  0  0  0  0  0  0  0  0  0  0
  -33.5259   -3.1737    0.0000 H   0  0  0  0  0  0  0  0  0  0  0  0
  -32.2077    1.0354    0.0000 H   0  0  0  0  0  0  0  0  0  0  0  0
  -31.2669   -0.4809    0.0000 H   0  0  0  0  0  0  0  0  0  0  0  0
  -33.9942    1.9288    0.0000 H   0  0  0  0  0  0  0  0  0  0  0  0
  -35.5072    0.7332    0.0000 H   0  0  0  0  0  0  0  0  0  0  0  0
  -34.7583   -0.8865    0.0000 H   0  0  0  0  0  0  0  0  0  0  0  0
  -33.4051   -4.3934    0.0000 H   0  0  0  0  0  0  0  0  0  0  0  0
  -32.4847   -7.6574    0.0000 H   0  0  0  0  0  0  0  0  0  0  0  0
  -34.3594   -9.7628    0.0000 H   0  0  0  0  0  0  0  0  0  0  0  0
  -32.8464   -8.5672    0.0000 H   0  0  0  0  0  0  0  0  0  0  0  0
  -37.2685   -8.1766    0.0000 H   0  0  0  0  0  0  0  0  0  0  0  0
  -36.4647   -7.1359    0.0000 H   0  0  0  0  0  0  0  0  0  0  0  0
  -36.1148   -9.1818    0.0000 H   0  0  0  0  0  0  0  0  0  0  0  0
  -36.9765   -6.0664    0.0000 H   0  0  0  0  0  0  0  0  0  0  0  0
  -40.4679   -6.4720    0.0000 H   0  0  0  0  0  0  0  0  0  0  0  0
  -39.6929   -7.9103    0.0000 H   0  0  0  0  0  0  0  0  0  0  0  0
  -37.4339   -5.2175    0.0000 H   0  0  0  0  0  0  0  0  0  0  0  0
  -40.3443   -2.8137    0.0000 H   0  0  0  0  0  0  0  0  0  0  0  0
  -41.6742   -4.0035    0.0000 H   0  0  0  0  0  0  0  0  0  0  0  0
  -40.9253   -5.6231    0.0000 H   0  0  0  0  0  0  0  0  0  0  0  0
  -39.1542   -2.4197    0.0000 H   0  0  0  0  0  0  0  0  0  0  0  0
  -37.3771   -2.5810    0.0000 H   0  0  0  0  0  0  0  0  0  0  0  0
  -37.0982   -4.4890    0.0000 H   0  0  0  0  0  0  0  0  0  0  0  0
  1  2  1  0
  2  3  1  0
  3  4  1  0
  4  5  2  0
  4  6  1  0
  6  7  1  0
  7  8  1  0
  8  9  1  0
  8 10  1  0
  7 11  1  0
 11 12  2  0
 11 13  1  0
 13 14  1  0
 14 15  1  0
 15 16  1  0
 15 17  1  0
 17 18  1  0
 14 19  1  0
 19 20  2  0
 19 21  1  0
 21 22  1  0
 22 23  1  0
 23 24  1  0
 24 25  1  0
 24 26  1  0
 22 27  1  0
 27 28  2  0
 27 29  1  0
 29 30  1  0
 30 31  1  0
 31 32  1  0
 32 33  1  0
 33 34  1  0
 34 35  1  0
 30 36  1  0
 36 37  2  0
 36 38  1  0
 38 39  1  0
 39 40  1  0
 39 41  1  0
 41 42  2  0
 41 43  1  0
 43 44  1  0
 44 45  1  0
 45 46  1  0
 44 47  1  0
 47 48  2  0
 47 49  1  0
 49 50  1  0
 50 51  1  0
 51 52  1  0
 50 53  1  0
 53 54  2  0
 53 55  1  0
 55 56  1  0
 56 57  1  0
 57 58  1  0
 58 59  2  0
 58 60  1  0
 56 61  1  0
 61 62  2  0
 61 63  1  0
 63 64  1  0
 64 65  1  0
 65 66  1  0
 66 67  2  0
 67 68  1  0
 68 69  2  0
 69 70  1  0
 69 71  1  0
 71 72  2  0
 64 73  1  0
 73 74  2  0
 73 75  1  0
 75 76  1  0
 76 77  1  0
 77 78  1  0
 77 79  1  0
 79 80  1  0
 76 81  1  0
 81 82  2  0
 81 83  1  0
 83 84  1  0
 84 85  1  0
 85 86  1  0
 86 87  1  0
 87 88  1  0
 88 89  1  0
 89 90  2  3
 89 91  1  0
 84 92  1  0
 92 93  2  0
 92 94  1  0
 94 95  1  0
 95 96  1  0
 96 97  1  0
 97 98  1  0
 98 99  1  0
 99100  1  0
 95101  1  0
101102  2  0
101103  1  0
103104  1  0
104105  1  0
105106  1  0
106107  1  0
106108  1  0
104109  1  0
109110  2  0
109111  1  0
111112  1  0
112113  1  0
113114  1  0
114115  1  0
115116  1  0
115117  2  0
112118  1  0
118119  2  0
118120  1  0
120121  1  0
121122  1  0
122123  1  0
123124  1  0
124125  1  0
125126  1  0
126127  2  3
126128  1  0
121129  1  0
129130  2  0
129131  1  0
131132  1  0
132133  1  0
133134  1  0
134135  1  0
135136  2  0
135137  1  0
132138  1  0
138139  2  0
138140  1  0
140141  1  0
141142  1  0
142143  1  0
143144  1  0
144145  1  0
144146  2  0
141147  1  0
147148  2  0
147149  1  0
149150  1  0
150151  1  0
151152  1  0
152153  1  0
153154  1  0
153155  2  0
150156  1  0
156157  2  0
156158  1  0
158159  1  0
159160  1  0
160161  1  0
161162  1  0
162163  1  0
163164  1  0
164165  2  3
164166  1  0
159167  1  0
167168  2  0
167169  1  0
169170  1  0
170171  1  0
170172  1  0
172173  2  0
172174  1  0
174175  1  0
175176  1  0
176177  1  0
177178  1  0
178179  1  0
179180  1  0
175181  1  0
181182  2  0
181183  1  0
183184  1  0
184185  1  0
185186  1  0
186187  1  0
187188  2  0
187189  1  0
184190  1  0
190191  2  0
190192  1  0
192193  1  0
193194  1  0
194195  1  0
195196  1  0
195197  1  0
193198  1  0
198199  2  0
198200  1  0
 72 66  1  0
  1201  1  0
  1202  1  0
  2203  1  0
  2204  1  0
  3205  1  0
  3206  1  0
  6207  1  0
  7208  1  6
  8209  1  1
  9210  1  0
 10211  1  0
 10212  1  0
 10213  1  0
 13214  1  0
 14215  1  1
 15216  1  1
 16217  1  0
 16218  1  0
 16219  1  0
 17220  1  0
 17221  1  0
 18222  1  0
 18223  1  0
 18224  1  0
 21225  1  0
 22226  1  6
 23227  1  0
 23228  1  0
 24229  1  0
 25230  1  0
 25231  1  0
 25232  1  0
 26233  1  0
 26234  1  0
 26235  1  0
 29236  1  0
 30237  1  6
 31238  1  0
 31239  1  0
 32240  1  0
 32241  1  0
 33242  1  0
 33243  1  0
 34244  1  0
 34245  1  0
 35246  1  0
 35247  1  0
 35248  1  0
 38249  1  0
 39250  1  6
 40251  1  0
 40252  1  0
 40253  1  0
 43254  1  0
 44255  1  1
 45256  1  0
 45257  1  0
 46258  1  0
 49259  1  0
 50260  1  6
 51261  1  0
 51262  1  0
 52263  1  0
 52264  1  0
 52265  1  0
 55266  1  0
 56267  1  1
 57268  1  0
 57269  1  0
 63270  1  0
 64271  1  6
 65272  1  0
 65273  1  0
 67274  1  0
 68275  1  0
 70276  1  0
 71277  1  0
 72278  1  0
 75279  1  0
 76280  1  1
 77281  1  1
 78282  1  0
 78283  1  0
 78284  1  0
 79285  1  0
 79286  1  0
 80287  1  0
 80288  1  0
 80289  1  0
 83290  1  0
 84291  1  6
 85292  1  0
 85293  1  0
 86294  1  0
 86295  1  0
 87296  1  0
 87297  1  0
 88298  1  0
 90299  1  0
 90300  1  0
 91301  1  0
 91302  1  0
 94303  1  0
 95304  1  1
 96305  1  0
 96306  1  0
 97307  1  0
 97308  1  0
 98309  1  0
 98310  1  0
 99311  1  0
 99312  1  0
100313  1  0
100314  1  0
100315  1  0
103316  1  0
104317  1  6
105318  1  0
105319  1  0
106320  1  0
107321  1  0
107322  1  0
107323  1  0
108324  1  0
108325  1  0
108326  1  0
111327  1  0
112328  1  1
113329  1  0
113330  1  0
114331  1  0
114332  1  0
116333  1  0
116334  1  0
120335  1  0
121336  1  6
122337  1  0
122338  1  0
123339  1  0
123340  1  0
124341  1  0
124342  1  0
125343  1  0
127344  1  0
127345  1  0
128346  1  0
128347  1  0
131348  1  0
132349  1  1
133350  1  0
133351  1  0
134352  1  0
134353  1  0
140354  1  0
141355  1  6
142356  1  0
142357  1  0
143358  1  0
143359  1  0
145360  1  0
145361  1  0
149362  1  0
150363  1  1
151364  1  0
151365  1  0
152366  1  0
152367  1  0
154368  1  0
154369  1  0
158370  1  0
159371  1  6
160372  1  0
160373  1  0
161374  1  0
161375  1  0
162376  1  0
162377  1  0
163378  1  0
165379  1  0
165380  1  0
166381  1  0
166382  1  0
169383  1  0
170384  1  1
171385  1  0
171386  1  0
171387  1  0
174388  1  0
175389  1  6
176390  1  0
176391  1  0
177392  1  0
177393  1  0
178394  1  0
178395  1  0
179396  1  0
179397  1  0
180398  1  0
180399  1  0
180400  1  0
183401  1  0
184402  1  1
185403  1  0
185404  1  0
186405  1  0
186406  1  0
192407  1  0
193408  1  6
194409  1  0
194410  1  0
195411  1  0
196412  1  0
196413  1  0
196414  1  0
197415  1  0
197416  1  0
197417  1  0
M  CHG  8  35   1  60  -1  90   1 100   1 127   1 137  -1 165   1 180   1
M  CHG  2 189  -1 200  -1
M  END
