
     RDKit          2D

303310  0  0  0  0  0  0  0  0999 V2000
   20.1746   -2.8912    0.0000 C   0  0  0  0  0  0  0  0  0  0  0  0
   21.5055   -2.1993    0.0000 N   0  0  0  0  0  0  0  0  0  0  0  0
   22.7701   -3.0059    0.0000 C   0  0  0  0  0  0  0  0  0  0  0  0
   22.7039   -4.5044    0.0000 C   0  0  0  0  0  0  0  0  0  0  0  0
   23.9685   -5.3111    0.0000 C   0  0  0  0  0  0  0  0  0  0  0  0
   25.2994   -4.6192    0.0000 C   0  0  0  0  0  0  0  0  0  0  0  0
   25.3657   -3.1207    0.0000 C   0  0  0  0  0  0  0  0  0  0  0  0
   24.1010   -2.3140    0.0000 C   0  0  0  0  0  0  0  0  0  0  0  0
   26.8113   -2.7206    0.0000 C   0  0  0  0  0  0  0  0  0  0  0  0
   27.6385   -3.9719    0.0000 O   0  0  0  0  0  0  0  0  0  0  0  0
   26.7041   -5.1453    0.0000 C   0  0  0  0  0  0  0  0  0  0  0  0
   27.1042   -6.5910    0.0000 O   0  0  0  0  0  0  0  0  0  0  0  0
   28.2909   -2.4738    0.0000 C   0  0  0  0  0  0  0  0  0  0  0  0
   28.8170   -1.0691    0.0000 C   0  0  0  0  0  0  0  0  0  0  0  0
   30.2965   -0.8224    0.0000 C   0  0  0  0  0  0  0  0  0  0  0  0
   31.2500   -1.9803    0.0000 C   0  0  0  0  0  0  0  0  0  0  0  0
   30.7239   -3.3851    0.0000 C   0  0  0  0  0  0  0  0  0  0  0  0
   29.2444   -3.6318    0.0000 C   0  0  0  0  0  0  0  0  0  0  0  0
   32.7296   -1.7336    0.0000 O   0  0  0  0  0  0  0  0  0  0  0  0
   27.8635    0.0888    0.0000 O   0  0  0  0  0  0  0  0  0  0  0  0
   26.3839   -0.1579    0.0000 C   0  0  0  0  0  0  0  0  0  0  0  0
   25.8578   -1.5626    0.0000 C   0  0  0  0  0  0  0  0  0  0  0  0
   24.6238   -1.1539    0.0000 C   0  0  0  0  0  0  0  0  0  0  0  0
   24.1153   -0.5363    0.0000 C   0  0  0  0  0  0  0  0  0  0  0  0
   24.3958    0.2129    0.0000 C   0  0  0  0  0  0  0  0  0  0  0  0
   25.1849    0.3445    0.0000 C   0  0  0  0  0  0  0  0  0  0  0  0
   22.9974    1.9112    0.0000 O   0  0  0  0  0  0  0  0  0  0  0  0
   20.1083   -4.3897    0.0000 S   0  0  0  0  0  0  0  0  0  0  0  0
   18.9099   -2.0845    0.0000 N   0  0  0  0  0  0  0  0  0  0  0  0
   17.5790   -2.7764    0.0000 C   0  0  0  0  0  0  0  0  0  0  0  0
   16.3144   -1.9698    0.0000 C   0  0  0  0  0  0  0  0  0  0  0  0
   14.9835   -2.6616    0.0000 C   0  0  0  0  0  0  0  0  0  0  0  0
   15.1420   -3.4429    0.0000 O   0  0  0  0  0  0  0  0  0  0  0  0
   13.7189   -1.8550    0.0000 N   0  0  0  0  0  0  0  0  0  0  0  0
   12.3880   -2.5469    0.0000 C   0  0  0  0  0  0  0  0  0  0  0  0
   13.3004   -3.7374    0.0000 C   0  0  0  0  0  0  0  0  0  0  0  0
   14.7877   -3.5425    0.0000 C   0  0  0  0  0  0  0  0  0  0  0  0
   15.7002   -4.7330    0.0000 N   0  0  0  0  0  0  0  0  0  0  0  0
   15.6807   -2.3372    0.0000 O   0  0  0  0  0  0  0  0  0  0  0  0
   10.9007   -2.7419    0.0000 C   0  0  0  0  0  0  0  0  0  0  0  0
   10.6782   -4.2253    0.0000 O   0  0  0  0  0  0  0  0  0  0  0  0
    9.9882   -1.5513    0.0000 N   0  0  0  0  0  0  0  0  0  0  0  0
    8.5009   -1.7463    0.0000 C   0  0  0  0  0  0  0  0  0  0  0  0
    8.9512   -3.1771    0.0000 C   0  0  0  0  0  0  0  0  0  0  0  0
   10.4155   -3.5026    0.0000 C   0  0  0  0  0  0  0  0  0  0  0  0
   10.8657   -4.9334    0.0000 C   0  0  0  0  0  0  0  0  0  0  0  0
   12.2794   -5.4349    0.0000 N   0  0  0  0  0  0  0  0  0  0  0  0
    9.8517   -6.0388    0.0000 O   0  0  0  0  0  0  0  0  0  0  0  0
    7.0367   -1.4208    0.0000 C   0  0  0  0  0  0  0  0  0  0  0  0
    6.3203   -2.7387    0.0000 O   0  0  0  0  0  0  0  0  0  0  0  0
    6.5864    0.0100    0.0000 N   0  0  0  0  0  0  0  0  0  0  0  0
    5.1221    0.3355    0.0000 C   0  0  0  0  0  0  0  0  0  0  0  0
    5.0559   -1.1631    0.0000 C   0  0  0  0  0  0  0  0  0  0  0  0
    6.3205   -1.9697    0.0000 C   0  0  0  0  0  0  0  0  0  0  0  0
    6.2543   -3.4683    0.0000 C   0  0  0  0  0  0  0  0  0  0  0  0
    7.5189   -4.2749    0.0000 N   0  0  0  0  0  0  0  0  0  0  0  0
    7.4526   -5.7734    0.0000 C   0  0  0  0  0  0  0  0  0  0  0  0
    8.7173   -6.5801    0.0000 N   0  0  0  0  0  0  0  0  0  0  0  0
    6.1218   -6.4653    0.0000 N   0  0  0  0  0  0  0  0  0  0  0  0
    3.8575    1.1421    0.0000 C   0  0  0  0  0  0  0  0  0  0  0  0
    2.7336    0.1487    0.0000 O   0  0  0  0  0  0  0  0  0  0  0  0
    3.9237    2.6406    0.0000 N   0  0  0  0  0  0  0  0  0  0  0  0
    2.6591    3.4473    0.0000 C   0  0  0  0  0  0  0  0  0  0  0  0
    2.4979    1.9560    0.0000 C   0  0  0  0  0  0  0  0  0  0  0  0
    2.0574    0.5221    0.0000 C   0  0  0  0  0  0  0  0  0  0  0  0
    1.3536   -0.8025    0.0000 C   0  0  0  0  0  0  0  0  0  0  0  0
    0.4117   -1.9699    0.0000 C   0  0  0  0  0  0  0  0  0  0  0  0
   -0.7341   -2.9380    0.0000 C   0  0  0  0  0  0  0  0  0  0  0  0
   -2.0423   -3.6718    0.0000 C   0  0  0  0  0  0  0  0  0  0  0  0
   -3.4658   -4.1447    0.0000 C   0  0  0  0  0  0  0  0  0  0  0  0
    3.9434    4.2222    0.0000 C   0  0  0  0  0  0  0  0  0  0  0  0
    2.5351    4.9421    0.0000 C   0  0  0  0  0  0  0  0  0  0  0  0
    3.9680    5.3856    0.0000 O   0  0  0  0  0  0  0  0  0  0  0  0
    2.1305    6.3865    0.0000 N   0  0  0  0  0  0  0  0  0  0  0  0
    1.4598    7.7282    0.0000 C   0  0  0  0  0  0  0  0  0  0  0  0
    2.1213    9.0745    0.0000 C   0  0  0  0  0  0  0  0  0  0  0  0
    3.6179    9.1748    0.0000 C   0  0  0  0  0  0  0  0  0  0  0  0
    4.2794   10.5210    0.0000 C   0  0  0  0  0  0  0  0  0  0  0  0
    5.0586    8.7571    0.0000 C   0  0  0  0  0  0  0  0  0  0  0  0
    0.5473    8.9188    0.0000 C   0  0  0  0  0  0  0  0  0  0  0  0
    1.5130   10.0666    0.0000 O   0  0  0  0  0  0  0  0  0  0  0  0
   -0.5740    9.9151    0.0000 N   0  0  0  0  0  0  0  0  0  0  0  0
   -1.8636   10.6812    0.0000 C   0  0  0  0  0  0  0  0  0  0  0  0
   -2.0350   12.1714    0.0000 C   0  0  0  0  0  0  0  0  0  0  0  0
   -0.8301   13.0649    0.0000 O   0  0  0  0  0  0  0  0  0  0  0  0
   -3.2749   11.1894    0.0000 C   0  0  0  0  0  0  0  0  0  0  0  0
   -3.0831   12.6771    0.0000 O   0  0  0  0  0  0  0  0  0  0  0  0
   -4.7569   11.4214    0.0000 N   0  0  0  0  0  0  0  0  0  0  0  0
   -6.2559   11.3687    0.0000 C   0  0  0  0  0  0  0  0  0  0  0  0
   -7.2057   12.5296    0.0000 C   0  0  0  0  0  0  0  0  0  0  0  0
   -6.6752   13.9327    0.0000 C   0  0  0  0  0  0  0  0  0  0  0  0
   -5.1949   14.1747    0.0000 C   0  0  0  0  0  0  0  0  0  0  0  0
   -4.6643   15.5778    0.0000 C   0  0  0  0  0  0  0  0  0  0  0  0
   -5.6141   16.7388    0.0000 C   0  0  0  0  0  0  0  0  0  0  0  0
   -7.0945   16.4967    0.0000 C   0  0  0  0  0  0  0  0  0  0  0  0
   -7.6250   15.0937    0.0000 C   0  0  0  0  0  0  0  0  0  0  0  0
   -7.7179   11.0332    0.0000 C   0  0  0  0  0  0  0  0  0  0  0  0
   -8.3609   12.3884    0.0000 O   0  0  0  0  0  0  0  0  0  0  0  0
   -9.0900   10.4271    0.0000 N   0  0  0  0  0  0  0  0  0  0  0  0
  -10.3226    9.5723    0.0000 C   0  0  0  0  0  0  0  0  0  0  0  0
  -11.7493   10.0355    0.0000 C   0  0  0  0  0  0  0  0  0  0  0  0
  -12.0616   11.5026    0.0000 C   0  0  0  0  0  0  0  0  0  0  0  0
  -10.9471   12.5066    0.0000 C   0  0  0  0  0  0  0  0  0  0  0  0
  -11.2593   13.9737    0.0000 C   0  0  0  0  0  0  0  0  0  0  0  0
  -12.6860   14.4369    0.0000 C   0  0  0  0  0  0  0  0  0  0  0  0
  -13.8005   13.4330    0.0000 C   0  0  0  0  0  0  0  0  0  0  0  0
  -13.4883   11.9658    0.0000 C   0  0  0  0  0  0  0  0  0  0  0  0
  -11.3712    8.4997    0.0000 C   0  0  0  0  0  0  0  0  0  0  0  0
  -12.6447    9.2922    0.0000 O   0  0  0  0  0  0  0  0  0  0  0  0
  -12.1978    7.2480    0.0000 N   0  0  0  0  0  0  0  0  0  0  0  0
  -12.7726    5.8625    0.0000 C   0  0  0  0  0  0  0  0  0  0  0  0
  -14.2232    5.4808    0.0000 C   0  0  0  0  0  0  0  0  0  0  0  0
  -13.0748    4.3932    0.0000 C   0  0  0  0  0  0  0  0  0  0  0  0
  -14.5746    4.3714    0.0000 O   0  0  0  0  0  0  0  0  0  0  0  0
  -13.0935    2.8934    0.0000 N   0  0  0  0  0  0  0  0  0  0  0  0
  -12.8279    1.4170    0.0000 C   0  0  0  0  0  0  0  0  0  0  0  0
  -13.8419    0.3117    0.0000 C   0  0  0  0  0  0  0  0  0  0  0  0
  -15.3062    0.6372    0.0000 C   0  0  0  0  0  0  0  0  0  0  0  0
  -16.3202   -0.4682    0.0000 C   0  0  0  0  0  0  0  0  0  0  0  0
  -16.5709    1.4438    0.0000 C   0  0  0  0  0  0  0  0  0  0  0  0
  -12.2878    0.0177    0.0000 C   0  0  0  0  0  0  0  0  0  0  0  0
  -13.5378   -0.8116    0.0000 O   0  0  0  0  0  0  0  0  0  0  0  0
  -11.4926   -1.2542    0.0000 N   0  0  0  0  0  0  0  0  0  0  0  0
  -10.4711   -2.3526    0.0000 C   0  0  0  0  0  0  0  0  0  0  0  0
   -9.2602   -3.2379    0.0000 C   0  0  0  0  0  0  0  0  0  0  0  0
   -7.9036   -3.8779    0.0000 C   0  0  0  0  0  0  0  0  0  0  0  0
   -6.4504   -4.2497    0.0000 C   0  0  0  0  0  0  0  0  0  0  0  0
   -4.9531   -4.3397    0.0000 C   0  0  0  0  0  0  0  0  0  0  0  0
  -11.9089   -2.7801    0.0000 C   0  0  0  0  0  0  0  0  0  0  0  0
  -10.7265   -3.8307    0.0000 C   0  0  0  0  0  0  0  0  0  0  0  0
   -9.8408   -5.0413    0.0000 O   0  0  0  0  0  0  0  0  0  0  0  0
  -12.1343   -4.3486    0.0000 N   0  0  0  0  0  0  0  0  0  0  0  0
  -12.3898   -5.8267    0.0000 C   0  0  0  0  0  0  0  0  0  0  0  0
  -12.1242   -7.3030    0.0000 C   0  0  0  0  0  0  0  0  0  0  0  0
  -13.2700   -8.2711    0.0000 C   0  0  0  0  0  0  0  0  0  0  0  0
  -13.0045   -9.7474    0.0000 O   0  0  0  0  0  0  0  0  0  0  0  0
  -14.7623   -8.1195    0.0000 O   0  0  0  0  0  0  0  0  0  0  0  0
  -13.7975   -6.3445    0.0000 C   0  0  0  0  0  0  0  0  0  0  0  0
  -14.9499   -5.3842    0.0000 O   0  0  0  0  0  0  0  0  0  0  0  0
  -14.0530   -7.8226    0.0000 N   0  0  0  0  0  0  0  0  0  0  0  0
  -15.4607   -8.3404    0.0000 C   0  0  0  0  0  0  0  0  0  0  0  0
  -16.9607   -8.3456    0.0000 C   0  0  0  0  0  0  0  0  0  0  0  0
  -17.7063   -9.6471    0.0000 C   0  0  0  0  0  0  0  0  0  0  0  0
  -19.2063   -9.6523    0.0000 C   0  0  0  0  0  0  0  0  0  0  0  0
  -20.1049  -10.8533    0.0000 N   0  0  0  0  0  0  0  0  0  0  0  0
  -19.9607   -8.3558    0.0000 O   0  0  0  0  0  0  0  0  0  0  0  0
  -15.7162   -9.8185    0.0000 C   0  0  0  0  0  0  0  0  0  0  0  0
  -14.5638  -10.7788    0.0000 O   0  0  0  0  0  0  0  0  0  0  0  0
  -17.1239  -10.3364    0.0000 N   0  0  0  0  0  0  0  0  0  0  0  0
  -17.3794  -11.8145    0.0000 C   0  0  0  0  0  0  0  0  0  0  0  0
  -17.1138  -13.2908    0.0000 C   0  0  0  0  0  0  0  0  0  0  0  0
  -18.2596  -14.2589    0.0000 C   0  0  0  0  0  0  0  0  0  0  0  0
  -16.3594  -14.5872    0.0000 C   0  0  0  0  0  0  0  0  0  0  0  0
  -14.8594  -14.5821    0.0000 C   0  0  0  0  0  0  0  0  0  0  0  0
  -18.7871  -12.3323    0.0000 C   0  0  0  0  0  0  0  0  0  0  0  0
  -19.2208  -13.7682    0.0000 O   0  0  0  0  0  0  0  0  0  0  0  0
  -20.0479  -11.5197    0.0000 O   0  0  0  0  0  0  0  0  0  0  0  0
   21.3886   -0.7038    0.0000 H   0  0  0  0  0  0  0  0  0  0  0  0
   21.3730   -5.1963    0.0000 H   0  0  0  0  0  0  0  0  0  0  0  0
   23.9023   -6.8096    0.0000 H   0  0  0  0  0  0  0  0  0  0  0  0
   23.8027   -0.8440    0.0000 H   0  0  0  0  0  0  0  0  0  0  0  0
   30.8226    0.5823    0.0000 H   0  0  0  0  0  0  0  0  0  0  0  0
   31.6774   -4.5430    0.0000 H   0  0  0  0  0  0  0  0  0  0  0  0
   28.7183   -5.0365    0.0000 H   0  0  0  0  0  0  0  0  0  0  0  0
   33.6831   -2.8915    0.0000 H   0  0  0  0  0  0  0  0  0  0  0  0
   23.8522   -3.2141    0.0000 H   0  0  0  0  0  0  0  0  0  0  0  0
   21.9262   -0.7160    0.0000 H   0  0  0  0  0  0  0  0  0  0  0  0
   25.9565    2.4048    0.0000 H   0  0  0  0  0  0  0  0  0  0  0  0
   23.5235    3.3160    0.0000 H   0  0  0  0  0  0  0  0  0  0  0  0
   18.9762   -0.5860    0.0000 H   0  0  0  0  0  0  0  0  0  0  0  0
   18.4915   -3.9669    0.0000 H   0  0  0  0  0  0  0  0  0  0  0  0
   16.7073   -3.9971    0.0000 H   0  0  0  0  0  0  0  0  0  0  0  0
   17.3284   -0.8644    0.0000 H   0  0  0  0  0  0  0  0  0  0  0  0
   15.4019   -0.7792    0.0000 H   0  0  0  0  0  0  0  0  0  0  0  0
   13.7851   -0.3565    0.0000 H   0  0  0  0  0  0  0  0  0  0  0  0
   11.9377   -1.1161    0.0000 H   0  0  0  0  0  0  0  0  0  0  0  0
   13.7507   -5.1682    0.0000 H   0  0  0  0  0  0  0  0  0  0  0  0
   12.0638   -4.5864    0.0000 H   0  0  0  0  0  0  0  0  0  0  0  0
   17.2002   -4.7208    0.0000 H   0  0  0  0  0  0  0  0  0  0  0  0
   15.1254   -6.1185    0.0000 H   0  0  0  0  0  0  0  0  0  0  0  0
   10.5630   -0.1658    0.0000 H   0  0  0  0  0  0  0  0  0  0  0  0
    8.5672   -0.2478    0.0000 H   0  0  0  0  0  0  0  0  0  0  0  0
    8.8849   -4.6757    0.0000 H   0  0  0  0  0  0  0  0  0  0  0  0
    7.5553   -3.7262    0.0000 H   0  0  0  0  0  0  0  0  0  0  0  0
   11.9027   -3.3076    0.0000 H   0  0  0  0  0  0  0  0  0  0  0  0
   10.8424   -2.0646    0.0000 H   0  0  0  0  0  0  0  0  0  0  0  0
   12.7803   -6.6897    0.0000 H   0  0  0  0  0  0  0  0  0  0  0  0
   13.6224   -4.4492    0.0000 H   0  0  0  0  0  0  0  0  0  0  0  0
    7.6004    1.1153    0.0000 H   0  0  0  0  0  0  0  0  0  0  0  0
    5.6969    1.7210    0.0000 H   0  0  0  0  0  0  0  0  0  0  0  0
    4.3165   -2.4682    0.0000 H   0  0  0  0  0  0  0  0  0  0  0  0
    3.5916   -0.8376    0.0000 H   0  0  0  0  0  0  0  0  0  0  0  0
    7.7848   -2.2952    0.0000 H   0  0  0  0  0  0  0  0  0  0  0  0
    7.2135   -0.7645    0.0000 H   0  0  0  0  0  0  0  0  0  0  0  0
    5.6795   -4.8538    0.0000 H   0  0  0  0  0  0  0  0  0  0  0  0
    4.7612   -3.3237    0.0000 H   0  0  0  0  0  0  0  0  0  0  0  0
    8.9777   -3.9256    0.0000 H   0  0  0  0  0  0  0  0  0  0  0  0
    8.6510   -8.0786    0.0000 H   0  0  0  0  0  0  0  0  0  0  0  0
    6.0555   -7.9639    0.0000 H   0  0  0  0  0  0  0  0  0  0  0  0
    4.8571   -5.6587    0.0000 H   0  0  0  0  0  0  0  0  0  0  0  0
    5.3290    3.1651    0.0000 H   0  0  0  0  0  0  0  0  0  0  0  0
    3.9892    2.1178    0.0000 H   0  0  0  0  0  0  0  0  0  0  0  0
    3.4532    0.7995    0.0000 H   0  0  0  0  0  0  0  0  0  0  0  0
    3.5262    0.2175    0.0000 H   0  0  0  0  0  0  0  0  0  0  0  0
    2.9317   -0.6968    0.0000 H   0  0  0  0  0  0  0  0  0  0  0  0
    2.8530   -0.8450    0.0000 H   0  0  0  0  0  0  0  0  0  0  0  0
    2.1427   -2.0781    0.0000 H   0  0  0  0  0  0  0  0  0  0  0  0
    1.8254   -2.4715    0.0000 H   0  0  0  0  0  0  0  0  0  0  0  0
    0.9452   -3.3719    0.0000 H   0  0  0  0  0  0  0  0  0  0  0  0
    0.5592   -3.6980    0.0000 H   0  0  0  0  0  0  0  0  0  0  0  0
   -0.4755   -4.4156    0.0000 H   0  0  0  0  0  0  0  0  0  0  0  0
   -0.9163   -4.6628    0.0000 H   0  0  0  0  0  0  0  0  0  0  0  0
   -2.2507   -5.1573    0.0000 H   0  0  0  0  0  0  0  0  0  0  0  0
   -3.1304   -5.6067    0.0000 H   0  0  0  0  0  0  0  0  0  0  0  0
    5.3352    3.6629    0.0000 H   0  0  0  0  0  0  0  0  0  0  0  0
    5.0206    5.2661    0.0000 H   0  0  0  0  0  0  0  0  0  0  0  0
    3.2601    5.5575    0.0000 H   0  0  0  0  0  0  0  0  0  0  0  0
    3.5852    6.7520    0.0000 H   0  0  0  0  0  0  0  0  0  0  0  0
    2.9492    7.5505    0.0000 H   0  0  0  0  0  0  0  0  0  0  0  0
    2.2824   10.5658    0.0000 H   0  0  0  0  0  0  0  0  0  0  0  0
    0.8245    9.8284    0.0000 H   0  0  0  0  0  0  0  0  0  0  0  0
    3.8224    7.6888    0.0000 H   0  0  0  0  0  0  0  0  0  0  0  0
    5.7527   10.8029    0.0000 H   0  0  0  0  0  0  0  0  0  0  0  0
    4.4406   12.0123    0.0000 H   0  0  0  0  0  0  0  0  0  0  0  0
    2.9004   11.1112    0.0000 H   0  0  0  0  0  0  0  0  0  0  0  0
    6.2592    9.6562    0.0000 H   0  0  0  0  0  0  0  0  0  0  0  0
    6.2695    7.8718    0.0000 H   0  0  0  0  0  0  0  0  0  0  0  0
    4.3971    7.4108    0.0000 H   0  0  0  0  0  0  0  0  0  0  0  0
    0.3112   11.1260    0.0000 H   0  0  0  0  0  0  0  0  0  0  0  0
   -0.6045   11.4965    0.0000 H   0  0  0  0  0  0  0  0  0  0  0  0
   -2.5371   13.5849    0.0000 H   0  0  0  0  0  0  0  0  0  0  0  0
   -3.5335   12.1045    0.0000 H   0  0  0  0  0  0  0  0  0  0  0  0
   -1.0015   14.5551    0.0000 H   0  0  0  0  0  0  0  0  0  0  0  0
   -4.4850   12.8965    0.0000 H   0  0  0  0  0  0  0  0  0  0  0  0
   -5.6375   12.7352    0.0000 H   0  0  0  0  0  0  0  0  0  0  0  0
   -8.3923   13.4472    0.0000 H   0  0  0  0  0  0  0  0  0  0  0  0
   -8.4302   11.6632    0.0000 H   0  0  0  0  0  0  0  0  0  0  0  0
   -4.1106   13.1382    0.0000 H   0  0  0  0  0  0  0  0  0  0  0  0
   -3.1840   15.8198    0.0000 H   0  0  0  0  0  0  0  0  0  0  0  0
   -5.0836   18.1418    0.0000 H   0  0  0  0  0  0  0  0  0  0  0  0
   -8.0443   17.6577    0.0000 H   0  0  0  0  0  0  0  0  0  0  0  0
   -9.1053   14.8516    0.0000 H   0  0  0  0  0  0  0  0  0  0  0  0
   -9.6589   11.8151    0.0000 H   0  0  0  0  0  0  0  0  0  0  0  0
  -10.5412   11.0563    0.0000 H   0  0  0  0  0  0  0  0  0  0  0  0
  -13.2437   10.1659    0.0000 H   0  0  0  0  0  0  0  0  0  0  0  0
  -12.3110    8.6446    0.0000 H   0  0  0  0  0  0  0  0  0  0  0  0
   -9.4746   12.2208    0.0000 H   0  0  0  0  0  0  0  0  0  0  0  0
  -10.1448   14.9777    0.0000 H   0  0  0  0  0  0  0  0  0  0  0  0
  -12.9982   15.9041    0.0000 H   0  0  0  0  0  0  0  0  0  0  0  0
  -15.2272   13.8961    0.0000 H   0  0  0  0  0  0  0  0  0  0  0  0
  -14.6027   10.9618    0.0000 H   0  0  0  0  0  0  0  0  0  0  0  0
  -13.5224    7.9519    0.0000 H   0  0  0  0  0  0  0  0  0  0  0  0
  -13.7588    6.9927    0.0000 H   0  0  0  0  0  0  0  0  0  0  0  0
  -15.2791    6.5462    0.0000 H   0  0  0  0  0  0  0  0  0  0  0  0
  -15.5508    4.7826    0.0000 H   0  0  0  0  0  0  0  0  0  0  0  0
  -13.9437    4.0071    0.0000 H   0  0  0  0  0  0  0  0  0  0  0  0
  -14.5923    2.9525    0.0000 H   0  0  0  0  0  0  0  0  0  0  0  0
  -14.2070    2.0072    0.0000 H   0  0  0  0  0  0  0  0  0  0  0  0
  -14.4167   -1.0738    0.0000 H   0  0  0  0  0  0  0  0  0  0  0  0
  -12.8101   -0.7770    0.0000 H   0  0  0  0  0  0  0  0  0  0  0  0
  -15.0838    2.1206    0.0000 H   0  0  0  0  0  0  0  0  0  0  0  0
  -17.8132   -0.3237    0.0000 H   0  0  0  0  0  0  0  0  0  0  0  0
  -16.8950   -1.8537    0.0000 H   0  0  0  0  0  0  0  0  0  0  0  0
  -15.1633   -1.4230    0.0000 H   0  0  0  0  0  0  0  0  0  0  0  0
  -17.9762    0.9193    0.0000 H   0  0  0  0  0  0  0  0  0  0  0  0
  -17.4833    2.6343    0.0000 H   0  0  0  0  0  0  0  0  0  0  0  0
  -15.5569    2.5492    0.0000 H   0  0  0  0  0  0  0  0  0  0  0  0
  -12.7855   -2.0148    0.0000 H   0  0  0  0  0  0  0  0  0  0  0  0
   -9.2313   -4.7376    0.0000 H   0  0  0  0  0  0  0  0  0  0  0  0
  -10.3841   -4.2312    0.0000 H   0  0  0  0  0  0  0  0  0  0  0  0
   -7.7725   -5.3722    0.0000 H   0  0  0  0  0  0  0  0  0  0  0  0
   -8.8192   -5.0660    0.0000 H   0  0  0  0  0  0  0  0  0  0  0  0
   -5.8662   -5.6312    0.0000 H   0  0  0  0  0  0  0  0  0  0  0  0
   -7.2829   -5.4974    0.0000 H   0  0  0  0  0  0  0  0  0  0  0  0
   -4.9004   -5.8388    0.0000 H   0  0  0  0  0  0  0  0  0  0  0  0
  -12.6002   -4.1113    0.0000 H   0  0  0  0  0  0  0  0  0  0  0  0
  -13.4062   -2.6901    0.0000 H   0  0  0  0  0  0  0  0  0  0  0  0
  -12.4358   -1.3757    0.0000 H   0  0  0  0  0  0  0  0  0  0  0  0
  -13.3951   -3.5359    0.0000 H   0  0  0  0  0  0  0  0  0  0  0  0
  -10.8898   -5.8215    0.0000 H   0  0  0  0  0  0  0  0  0  0  0  0
  -11.3698   -8.5994    0.0000 H   0  0  0  0  0  0  0  0  0  0  0  0
  -10.7165   -6.7851    0.0000 H   0  0  0  0  0  0  0  0  0  0  0  0
  -15.9434   -8.4551    0.0000 H   0  0  0  0  0  0  0  0  0  0  0  0
  -13.1672   -9.0331    0.0000 H   0  0  0  0  0  0  0  0  0  0  0  0
  -15.7262   -6.8641    0.0000 H   0  0  0  0  0  0  0  0  0  0  0  0
  -18.3720   -7.8373    0.0000 H   0  0  0  0  0  0  0  0  0  0  0  0
  -16.7053   -6.8675    0.0000 H   0  0  0  0  0  0  0  0  0  0  0  0
  -17.9617  -11.1252    0.0000 H   0  0  0  0  0  0  0  0  0  0  0  0
  -16.6989  -10.7585    0.0000 H   0  0  0  0  0  0  0  0  0  0  0  0
  -21.4518  -10.9590    0.0000 H   0  0  0  0  0  0  0  0  0  0  0  0
  -19.7585  -12.4828    0.0000 H   0  0  0  0  0  0  0  0  0  0  0  0
  -18.4744   -9.6835    0.0000 H   0  0  0  0  0  0  0  0  0  0  0  0
  -15.8794  -11.8093    0.0000 H   0  0  0  0  0  0  0  0  0  0  0  0
  -15.7797  -12.6052    0.0000 H   0  0  0  0  0  0  0  0  0  0  0  0
  -18.1760  -15.7565    0.0000 H   0  0  0  0  0  0  0  0  0  0  0  0
  -19.6674  -14.7767    0.0000 H   0  0  0  0  0  0  0  0  0  0  0  0
  -19.5345  -13.4685    0.0000 H   0  0  0  0  0  0  0  0  0  0  0  0
  -16.0939  -16.0636    0.0000 H   0  0  0  0  0  0  0  0  0  0  0  0
  -17.6936  -15.2728    0.0000 H   0  0  0  0  0  0  0  0  0  0  0  0
  -14.1050  -15.8786    0.0000 H   0  0  0  0  0  0  0  0  0  0  0  0
  -13.4516  -14.0643    0.0000 H   0  0  0  0  0  0  0  0  0  0  0  0
  -14.9430  -13.0844    0.0000 H   0  0  0  0  0  0  0  0  0  0  0  0
  -21.3473  -11.8899    0.0000 H   0  0  0  0  0  0  0  0  0  0  0  0
  1  2  1  0
  2  3  1  0
  3  4  2  0
  4  5  1  0
  5  6  2  0
  6  7  1  0
  7  8  2  0
  7  9  1  0
  9 10  1  0
 10 11  1  0
 11 12  2  0
  9 13  1  0
 13 14  1  0
 14 15  2  0
 15 16  1  0
 16 17  2  0
 17 18  1  0
 16 19  1  0
 14 20  1  0
 20 21  1  0
 21 22  2  0
 22 23  1  0
 23 24  2  0
 24 25  1  0
 25 26  2  0
 25 27  1  0
  1 28  2  0
  1 29  1  0
 29 30  1  0
 30 31  1  0
 31 32  1  0
 32 33  2  0
 32 34  1  0
 34 35  1  0
 35 36  1  0
 36 37  1  0
 37 38  1  0
 37 39  2  0
 35 40  1  0
 40 41  2  0
 40 42  1  0
 42 43  1  0
 43 44  1  0
 44 45  1  0
 45 46  1  0
 46 47  1  0
 46 48  2  0
 43 49  1  0
 49 50  2  0
 49 51  1  0
 51 52  1  0
 52 53  1  0
 53 54  1  0
 54 55  1  0
 55 56  1  0
 56 57  1  0
 57 58  2  3
 57 59  1  0
 52 60  1  0
 60 61  2  0
 60 62  1  0
 63 62  1  6
 63 64  1  0
 64 65  1  0
 65 66  1  0
 66 67  1  0
 67 68  1  0
 68 69  1  0
 69 70  1  0
 63 71  1  0
 63 72  1  0
 72 73  2  0
 72 74  1  0
 74 75  1  0
 75 76  1  0
 76 77  1  0
 77 78  1  0
 77 79  1  0
 75 80  1  0
 80 81  2  0
 80 82  1  0
 82 83  1  0
 83 84  1  0
 84 85  1  0
 83 86  1  0
 86 87  2  0
 86 88  1  0
 88 89  1  0
 89 90  1  0
 90 91  1  0
 91 92  2  0
 92 93  1  0
 93 94  2  0
 94 95  1  0
 95 96  2  0
 89 97  1  0
 97 98  2  0
 97 99  1  0
 99100  1  0
100101  1  0
101102  1  0
102103  2  0
103104  1  0
104105  2  0
105106  1  0
106107  2  0
100108  1  0
108109  2  0
108110  1  0
110111  1  0
111112  1  0
111113  1  0
113114  2  0
113115  1  0
115116  1  0
116117  1  0
117118  1  0
118119  1  0
118120  1  0
116121  1  0
121122  2  0
121123  1  0
123124  1  0
124125  1  0
125126  1  0
126127  1  0
127128  1  0
124129  1  0
124130  1  1
130131  2  0
130132  1  0
132133  1  0
133134  1  0
134135  1  0
135136  2  0
135137  1  0
133138  1  0
138139  2  0
138140  1  0
140141  1  0
141142  1  0
142143  1  0
143144  1  0
144145  1  0
144146  2  0
141147  1  0
147148  2  0
147149  1  0
149150  1  0
150151  1  0
151152  1  0
151153  1  0
153154  1  0
150155  1  0
155156  2  0
155157  1  0
  8  3  1  0
 96 91  1  0
107102  1  0
 11  6  1  0
 70128  2  0
 18 13  2  0
 22  9  1  0
 26 21  1  0
  2158  1  0
  4159  1  0
  5160  1  0
  8161  1  0
 15162  1  0
 17163  1  0
 18164  1  0
 19165  1  0
 23166  1  0
 24167  1  0
 26168  1  0
 27169  1  0
 29170  1  0
 30171  1  0
 30172  1  0
 31173  1  0
 31174  1  0
 34175  1  0
 35176  1  1
 36177  1  0
 36178  1  0
 38179  1  0
 38180  1  0
 42181  1  0
 43182  1  1
 44183  1  0
 44184  1  0
 45185  1  0
 45186  1  0
 47187  1  0
 47188  1  0
 51189  1  0
 52190  1  1
 53191  1  0
 53192  1  0
 54193  1  0
 54194  1  0
 55195  1  0
 55196  1  0
 56197  1  0
 58198  1  0
 59199  1  0
 59200  1  0
 62201  1  0
 64202  1  0
 64203  1  0
 65204  1  0
 65205  1  0
 66206  1  0
 66207  1  0
 67208  1  0
 67209  1  0
 68210  1  0
 68211  1  0
 69212  1  0
 69213  1  0
 70214  1  0
 71215  1  0
 71216  1  0
 71217  1  0
 74218  1  0
 75219  1  6
 76220  1  0
 76221  1  0
 77222  1  0
 78223  1  0
 78224  1  0
 78225  1  0
 79226  1  0
 79227  1  0
 79228  1  0
 82229  1  0
 83230  1  6
 84231  1  0
 84232  1  0
 85233  1  0
 88234  1  0
 89235  1  6
 90236  1  0
 90237  1  0
 92238  1  0
 93239  1  0
 94240  1  0
 95241  1  0
 96242  1  0
 99243  1  0
100244  1  6
101245  1  0
101246  1  0
103247  1  0
104248  1  0
105249  1  0
106250  1  0
107251  1  0
110252  1  0
111253  1  6
112254  1  0
112255  1  0
112256  1  0
115257  1  0
116258  1  6
117259  1  0
117260  1  0
118261  1  0
119262  1  0
119263  1  0
119264  1  0
120265  1  0
120266  1  0
120267  1  0
123268  1  0
125269  1  0
125270  1  0
126271  1  0
126272  1  0
127273  1  0
127274  1  0
128275  1  0
129276  1  0
129277  1  0
129278  1  0
132279  1  0
133280  1  1
134281  1  0
134282  1  0
137283  1  0
140284  1  0
141285  1  6
142286  1  0
142287  1  0
143288  1  0
143289  1  0
145290  1  0
145291  1  0
149292  1  0
150293  1  1
151294  1  1
152295  1  0
152296  1  0
152297  1  0
153298  1  0
153299  1  0
154300  1  0
154301  1  0
154302  1  0
157303  1  0
M  END
