
     RDKit          2D

300308  0  0  0  0  0  0  0  0999 V2000
  -17.4487    0.4621    0.0000 C   0  0  0  0  0  0  0  0  0  0  0  0
  -18.9482    0.4224    0.0000 N   0  0  0  0  0  0  0  0  0  0  0  0
  -19.7323    1.7012    0.0000 C   0  0  0  0  0  0  0  0  0  0  0  0
  -19.0169    3.0196    0.0000 C   0  0  0  0  0  0  0  0  0  0  0  0
  -19.8010    4.2984    0.0000 C   0  0  0  0  0  0  0  0  0  0  0  0
  -21.3005    4.2587    0.0000 C   0  0  0  0  0  0  0  0  0  0  0  0
  -22.0158    2.9403    0.0000 C   0  0  0  0  0  0  0  0  0  0  0  0
  -21.2318    1.6615    0.0000 C   0  0  0  0  0  0  0  0  0  0  0  0
  -23.4908    3.2133    0.0000 C   0  0  0  0  0  0  0  0  0  0  0  0
  -23.6870    4.7004    0.0000 O   0  0  0  0  0  0  0  0  0  0  0  0
  -22.3333    5.3465    0.0000 C   0  0  0  0  0  0  0  0  0  0  0  0
  -22.0603    6.8215    0.0000 O   0  0  0  0  0  0  0  0  0  0  0  0
  -24.9291    3.6389    0.0000 C   0  0  0  0  0  0  0  0  0  0  0  0
  -26.0169    2.6061    0.0000 C   0  0  0  0  0  0  0  0  0  0  0  0
  -27.4553    3.0317    0.0000 C   0  0  0  0  0  0  0  0  0  0  0  0
  -27.8058    4.4902    0.0000 C   0  0  0  0  0  0  0  0  0  0  0  0
  -26.7180    5.5230    0.0000 C   0  0  0  0  0  0  0  0  0  0  0  0
  -25.2797    5.0974    0.0000 C   0  0  0  0  0  0  0  0  0  0  0  0
  -29.2442    4.9158    0.0000 O   0  0  0  0  0  0  0  0  0  0  0  0
  -25.6664    1.1476    0.0000 O   0  0  0  0  0  0  0  0  0  0  0  0
  -24.2280    0.7220    0.0000 C   0  0  0  0  0  0  0  0  0  0  0  0
  -23.1403    1.7548    0.0000 C   0  0  0  0  0  0  0  0  0  0  0  0
  -22.2095    0.8472    0.0000 C   0  0  0  0  0  0  0  0  0  0  0  0
  -22.0226    0.0693    0.0000 C   0  0  0  0  0  0  0  0  0  0  0  0
  -22.6027   -0.4815    0.0000 C   0  0  0  0  0  0  0  0  0  0  0  0
  -23.3699   -0.2545    0.0000 C   0  0  0  0  0  0  0  0  0  0  0  0
  -22.0886   -2.6206    0.0000 O   0  0  0  0  0  0  0  0  0  0  0  0
  -16.7333    1.7805    0.0000 S   0  0  0  0  0  0  0  0  0  0  0  0
  -16.6646   -0.8166    0.0000 N   0  0  0  0  0  0  0  0  0  0  0  0
  -15.1652   -0.7770    0.0000 C   0  0  0  0  0  0  0  0  0  0  0  0
  -14.3811   -2.0557    0.0000 C   0  0  0  0  0  0  0  0  0  0  0  0
  -12.8816   -2.0161    0.0000 C   0  0  0  0  0  0  0  0  0  0  0  0
  -12.5065   -0.5637    0.0000 O   0  0  0  0  0  0  0  0  0  0  0  0
  -12.0975   -3.2948    0.0000 N   0  0  0  0  0  0  0  0  0  0  0  0
  -10.5980   -3.2552    0.0000 C   0  0  0  0  0  0  0  0  0  0  0  0
  -11.2367   -1.8979    0.0000 C   0  0  0  0  0  0  0  0  0  0  0  0
  -11.4000   -0.4068    0.0000 C   0  0  0  0  0  0  0  0  0  0  0  0
  -11.0704    1.0565    0.0000 C   0  0  0  0  0  0  0  0  0  0  0  0
  -10.2835    2.3335    0.0000 C   0  0  0  0  0  0  0  0  0  0  0  0
  -11.1641   -4.6443    0.0000 C   0  0  0  0  0  0  0  0  0  0  0  0
   -9.5533   -4.3315    0.0000 C   0  0  0  0  0  0  0  0  0  0  0  0
  -10.4430   -5.5392    0.0000 O   0  0  0  0  0  0  0  0  0  0  0  0
   -8.2157   -5.0103    0.0000 N   0  0  0  0  0  0  0  0  0  0  0  0
   -6.7301   -5.2180    0.0000 C   0  0  0  0  0  0  0  0  0  0  0  0
   -5.8768   -6.4516    0.0000 C   0  0  0  0  0  0  0  0  0  0  0  0
   -6.5185   -7.8074    0.0000 C   0  0  0  0  0  0  0  0  0  0  0  0
   -5.6651   -9.0410    0.0000 C   0  0  0  0  0  0  0  0  0  0  0  0
   -6.3068  -10.3969    0.0000 C   0  0  0  0  0  0  0  0  0  0  0  0
   -5.4535  -11.6305    0.0000 N   0  0  0  0  0  0  0  0  0  0  0  0
   -5.2576   -4.9321    0.0000 C   0  0  0  0  0  0  0  0  0  0  0  0
   -4.7332   -6.3374    0.0000 O   0  0  0  0  0  0  0  0  0  0  0  0
   -3.9577   -4.1835    0.0000 N   0  0  0  0  0  0  0  0  0  0  0  0
   -2.9714   -3.0534    0.0000 C   0  0  0  0  0  0  0  0  0  0  0  0
   -1.4719   -3.0138    0.0000 C   0  0  0  0  0  0  0  0  0  0  0  0
   -1.0205   -4.4443    0.0000 C   0  0  0  0  0  0  0  0  0  0  0  0
   -0.0764   -2.4637    0.0000 C   0  0  0  0  0  0  0  0  0  0  0  0
    0.6851   -3.7560    0.0000 C   0  0  0  0  0  0  0  0  0  0  0  0
   -2.4054   -1.6643    0.0000 C   0  0  0  0  0  0  0  0  0  0  0  0
   -0.9128   -1.8131    0.0000 O   0  0  0  0  0  0  0  0  0  0  0  0
   -2.3211   -0.1667    0.0000 N   0  0  0  0  0  0  0  0  0  0  0  0
   -2.7276    1.2772    0.0000 C   0  0  0  0  0  0  0  0  0  0  0  0
   -4.0230    2.0334    0.0000 C   0  0  0  0  0  0  0  0  0  0  0  0
   -4.7040    3.3699    0.0000 C   0  0  0  0  0  0  0  0  0  0  0  0
   -5.7780    2.3228    0.0000 C   0  0  0  0  0  0  0  0  0  0  0  0
   -7.2739    2.2111    0.0000 N   0  0  0  0  0  0  0  0  0  0  0  0
   -8.4916    3.0870    0.0000 C   0  0  0  0  0  0  0  0  0  0  0  0
   -8.8613    4.5407    0.0000 C   0  0  0  0  0  0  0  0  0  0  0  0
   -8.2102    5.8920    0.0000 C   0  0  0  0  0  0  0  0  0  0  0  0
   -6.8427    6.5086    0.0000 C   0  0  0  0  0  0  0  0  0  0  0  0
   -5.3989    6.1020    0.0000 C   0  0  0  0  0  0  0  0  0  0  0  0
   -4.5542    4.8624    0.0000 C   0  0  0  0  0  0  0  0  0  0  0  0
   -1.2290    1.3414    0.0000 C   0  0  0  0  0  0  0  0  0  0  0  0
   -0.9218   -0.1269    0.0000 O   0  0  0  0  0  0  0  0  0  0  0  0
   -0.0030    2.2056    0.0000 N   0  0  0  0  0  0  0  0  0  0  0  0
    0.5612    3.5954    0.0000 C   0  0  0  0  0  0  0  0  0  0  0  0
    0.2844    5.0697    0.0000 C   0  0  0  0  0  0  0  0  0  0  0  0
   -0.7455    6.1602    0.0000 C   0  0  0  0  0  0  0  0  0  0  0  0
   -2.2015    6.5208    0.0000 C   0  0  0  0  0  0  0  0  0  0  0  0
   -3.6214    6.0370    0.0000 C   0  0  0  0  0  0  0  0  0  0  0  0
    1.5228    4.8665    0.0000 C   0  0  0  0  0  0  0  0  0  0  0  0
    2.0369    6.1331    0.0000 C   0  0  0  0  0  0  0  0  0  0  0  0
    2.7814    7.2795    0.0000 C   0  0  0  0  0  0  0  0  0  0  0  0
    3.7295    8.2642    0.0000 C   0  0  0  0  0  0  0  0  0  0  0  0
    1.2512    2.1587    0.0000 C   0  0  0  0  0  0  0  0  0  0  0  0
    0.5141    1.9648    0.0000 O   0  0  0  0  0  0  0  0  0  0  0  0
    1.5034    0.8152    0.0000 N   0  0  0  0  0  0  0  0  0  0  0  0
    2.0054   -0.4562    0.0000 C   0  0  0  0  0  0  0  0  0  0  0  0
    0.6050   -2.0573    0.0000 C   0  0  0  0  0  0  0  0  0  0  0  0
    1.3280   -3.3715    0.0000 C   0  0  0  0  0  0  0  0  0  0  0  0
    0.5513   -4.6548    0.0000 C   0  0  0  0  0  0  0  0  0  0  0  0
    1.1087   -6.0474    0.0000 N   0  0  0  0  0  0  0  0  0  0  0  0
   -0.9410   -4.8068    0.0000 O   0  0  0  0  0  0  0  0  0  0  0  0
    2.7389   -1.6097    0.0000 C   0  0  0  0  0  0  0  0  0  0  0  0
    1.4120   -3.3243    0.0000 O   0  0  0  0  0  0  0  0  0  0  0  0
    3.6774   -2.6035    0.0000 N   0  0  0  0  0  0  0  0  0  0  0  0
    4.7871   -3.4017    0.0000 C   0  0  0  0  0  0  0  0  0  0  0  0
    4.4746   -5.5057    0.0000 C   0  0  0  0  0  0  0  0  0  0  0  0
    3.1962   -6.2904    0.0000 C   0  0  0  0  0  0  0  0  0  0  0  0
    3.2366   -7.7898    0.0000 N   0  0  0  0  0  0  0  0  0  0  0  0
    1.8774   -5.5757    0.0000 O   0  0  0  0  0  0  0  0  0  0  0  0
    6.0277   -3.9755    0.0000 C   0  0  0  0  0  0  0  0  0  0  0  0
    5.4744   -6.1011    0.0000 O   0  0  0  0  0  0  0  0  0  0  0  0
    7.3545   -4.3041    0.0000 N   0  0  0  0  0  0  0  0  0  0  0  0
    8.7196   -4.3757    0.0000 C   0  0  0  0  0  0  0  0  0  0  0  0
    9.5942   -6.3146    0.0000 C   0  0  0  0  0  0  0  0  0  0  0  0
    8.9430   -7.6659    0.0000 C   0  0  0  0  0  0  0  0  0  0  0  0
    9.7877   -8.9055    0.0000 C   0  0  0  0  0  0  0  0  0  0  0  0
    9.1365  -10.2567    0.0000 N   0  0  0  0  0  0  0  0  0  0  0  0
    9.9812  -11.4963    0.0000 C   0  0  0  0  0  0  0  0  0  0  0  0
    9.3300  -12.8476    0.0000 N   0  0  0  0  0  0  0  0  0  0  0  0
   11.4770  -11.3846    0.0000 N   0  0  0  0  0  0  0  0  0  0  0  0
   10.0735   -4.1876    0.0000 C   0  0  0  0  0  0  0  0  0  0  0  0
   10.7572   -6.2749    0.0000 O   0  0  0  0  0  0  0  0  0  0  0  0
   11.3674   -3.7467    0.0000 N   0  0  0  0  0  0  0  0  0  0  0  0
   12.5544   -3.0689    0.0000 C   0  0  0  0  0  0  0  0  0  0  0  0
   14.3385   -4.2272    0.0000 C   0  0  0  0  0  0  0  0  0  0  0  0
   14.5212   -5.7161    0.0000 C   0  0  0  0  0  0  0  0  0  0  0  0
   15.9020   -6.3022    0.0000 C   0  0  0  0  0  0  0  0  0  0  0  0
   16.0847   -7.7910    0.0000 N   0  0  0  0  0  0  0  0  0  0  0  0
   17.4655   -8.3772    0.0000 C   0  0  0  0  0  0  0  0  0  0  0  0
   17.6482   -9.8660    0.0000 N   0  0  0  0  0  0  0  0  0  0  0  0
   18.6635   -7.4745    0.0000 N   0  0  0  0  0  0  0  0  0  0  0  0
   13.5918   -2.1788    0.0000 C   0  0  0  0  0  0  0  0  0  0  0  0
   15.2954   -3.5651    0.0000 O   0  0  0  0  0  0  0  0  0  0  0  0
   14.4419   -1.1083    0.0000 N   0  0  0  0  0  0  0  0  0  0  0  0
   15.0740    0.1036    0.0000 C   0  0  0  0  0  0  0  0  0  0  0  0
   17.2011    0.0937    0.0000 C   0  0  0  0  0  0  0  0  0  0  0  0
   15.4654    1.4133    0.0000 C   0  0  0  0  0  0  0  0  0  0  0  0
   17.6481    1.1681    0.0000 O   0  0  0  0  0  0  0  0  0  0  0  0
   15.6019    2.7734    0.0000 N   0  0  0  0  0  0  0  0  0  0  0  0
   15.4785    4.1347    0.0000 C   0  0  0  0  0  0  0  0  0  0  0  0
   17.2732    5.2764    0.0000 C   0  0  0  0  0  0  0  0  0  0  0  0
   18.7034    4.8242    0.0000 C   0  0  0  0  0  0  0  0  0  0  0  0
   19.8101    5.8366    0.0000 C   0  0  0  0  0  0  0  0  0  0  0  0
   21.2403    5.3844    0.0000 C   0  0  0  0  0  0  0  0  0  0  0  0
   22.3471    6.3969    0.0000 N   0  0  0  0  0  0  0  0  0  0  0  0
   15.0996    5.4481    0.0000 C   0  0  0  0  0  0  0  0  0  0  0  0
   17.0684    6.4219    0.0000 O   0  0  0  0  0  0  0  0  0  0  0  0
   14.4791    6.6661    0.0000 N   0  0  0  0  0  0  0  0  0  0  0  0
   13.6393    7.7446    0.0000 C   0  0  0  0  0  0  0  0  0  0  0  0
   12.6105    8.6447    0.0000 C   0  0  0  0  0  0  0  0  0  0  0  0
   11.4300    9.3338    0.0000 C   0  0  0  0  0  0  0  0  0  0  0  0
   10.1404    9.7870    0.0000 C   0  0  0  0  0  0  0  0  0  0  0  0
    8.7884    9.9880    0.0000 C   0  0  0  0  0  0  0  0  0  0  0  0
    7.4227    9.9295    0.0000 C   0  0  0  0  0  0  0  0  0  0  0  0
    6.0928    9.6136    0.0000 C   0  0  0  0  0  0  0  0  0  0  0  0
    4.8467    9.0518    0.0000 C   0  0  0  0  0  0  0  0  0  0  0  0
   15.6179    8.5254    0.0000 C   0  0  0  0  0  0  0  0  0  0  0  0
   14.5319    9.6753    0.0000 C   0  0  0  0  0  0  0  0  0  0  0  0
   15.9209   10.2416    0.0000 O   0  0  0  0  0  0  0  0  0  0  0  0
   13.7554   10.9587    0.0000 O   0  0  0  0  0  0  0  0  0  0  0  0
  -19.4975   -0.9733    0.0000 H   0  0  0  0  0  0  0  0  0  0  0  0
  -17.5174    3.0593    0.0000 H   0  0  0  0  0  0  0  0  0  0  0  0
  -19.0856    5.6168    0.0000 H   0  0  0  0  0  0  0  0  0  0  0  0
  -21.6069    0.2092    0.0000 H   0  0  0  0  0  0  0  0  0  0  0  0
  -28.5431    1.9989    0.0000 H   0  0  0  0  0  0  0  0  0  0  0  0
  -27.0686    6.9815    0.0000 H   0  0  0  0  0  0  0  0  0  0  0  0
  -24.1919    6.1302    0.0000 H   0  0  0  0  0  0  0  0  0  0  0  0
  -29.5947    6.3743    0.0000 H   0  0  0  0  0  0  0  0  0  0  0  0
  -20.6141    2.3620    0.0000 H   0  0  0  0  0  0  0  0  0  0  0  0
  -19.9756   -0.7271    0.0000 H   0  0  0  0  0  0  0  0  0  0  0  0
  -24.9653   -1.7693    0.0000 H   0  0  0  0  0  0  0  0  0  0  0  0
  -23.1764   -3.6534    0.0000 H   0  0  0  0  0  0  0  0  0  0  0  0
  -17.3800   -2.1351    0.0000 H   0  0  0  0  0  0  0  0  0  0  0  0
  -15.4646    0.6928    0.0000 H   0  0  0  0  0  0  0  0  0  0  0  0
  -13.7697   -0.2269    0.0000 H   0  0  0  0  0  0  0  0  0  0  0  0
  -15.7766   -2.6059    0.0000 H   0  0  0  0  0  0  0  0  0  0  0  0
  -14.0816   -3.5255    0.0000 H   0  0  0  0  0  0  0  0  0  0  0  0
  -12.9683   -4.5162    0.0000 H   0  0  0  0  0  0  0  0  0  0  0  0
  -12.4672   -2.7557    0.0000 H   0  0  0  0  0  0  0  0  0  0  0  0
  -12.5165   -1.1156    0.0000 H   0  0  0  0  0  0  0  0  0  0  0  0
  -12.8424   -0.8186    0.0000 H   0  0  0  0  0  0  0  0  0  0  0  0
  -12.7072    0.3290    0.0000 H   0  0  0  0  0  0  0  0  0  0  0  0
  -12.5668    0.9522    0.0000 H   0  0  0  0  0  0  0  0  0  0  0  0
  -11.9237    2.2901    0.0000 H   0  0  0  0  0  0  0  0  0  0  0  0
  -11.4135    3.3199    0.0000 H   0  0  0  0  0  0  0  0  0  0  0  0
  -12.6141   -5.0283    0.0000 H   0  0  0  0  0  0  0  0  0  0  0  0
  -11.2208   -6.1432    0.0000 H   0  0  0  0  0  0  0  0  0  0  0  0
   -9.8178   -5.3059    0.0000 H   0  0  0  0  0  0  0  0  0  0  0  0
   -8.6650   -6.4414    0.0000 H   0  0  0  0  0  0  0  0  0  0  0  0
   -7.6668   -6.3895    0.0000 H   0  0  0  0  0  0  0  0  0  0  0  0
   -4.5564   -7.1633    0.0000 H   0  0  0  0  0  0  0  0  0  0  0  0
   -4.5866   -5.6865    0.0000 H   0  0  0  0  0  0  0  0  0  0  0  0
   -7.7057   -8.7241    0.0000 H   0  0  0  0  0  0  0  0  0  0  0  0
   -7.8389   -7.0957    0.0000 H   0  0  0  0  0  0  0  0  0  0  0  0
   -4.4413   -9.9084    0.0000 H   0  0  0  0  0  0  0  0  0  0  0  0
   -4.4778   -8.1243    0.0000 H   0  0  0  0  0  0  0  0  0  0  0  0
   -7.3735  -11.4514    0.0000 H   0  0  0  0  0  0  0  0  0  0  0  0
   -7.6272   -9.6851    0.0000 H   0  0  0  0  0  0  0  0  0  0  0  0
   -6.0951  -12.9863    0.0000 H   0  0  0  0  0  0  0  0  0  0  0  0
   -3.9584  -11.5083    0.0000 H   0  0  0  0  0  0  0  0  0  0  0  0
   -3.0055   -5.3424    0.0000 H   0  0  0  0  0  0  0  0  0  0  0  0
   -2.5029   -4.4784    0.0000 H   0  0  0  0  0  0  0  0  0  0  0  0
   -1.4068   -1.5152    0.0000 H   0  0  0  0  0  0  0  0  0  0  0  0
    0.7531   -4.8780    0.0000 H   0  0  0  0  0  0  0  0  0  0  0  0
   -0.3884   -5.7623    0.0000 H   0  0  0  0  0  0  0  0  0  0  0  0
   -2.0175   -4.9896    0.0000 H   0  0  0  0  0  0  0  0  0  0  0  0
    1.3821   -2.1133    0.0000 H   0  0  0  0  0  0  0  0  0  0  0  0
   -0.8605   -1.1849    0.0000 H   0  0  0  0  0  0  0  0  0  0  0  0
    2.6989   -3.5555    0.0000 H   0  0  0  0  0  0  0  0  0  0  0  0
    1.7608   -4.8149    0.0000 H   0  0  0  0  0  0  0  0  0  0  0  0
   -0.0254   -4.3913    0.0000 H   0  0  0  0  0  0  0  0  0  0  0  0
   -0.8348   -0.3690    0.0000 H   0  0  0  0  0  0  0  0  0  0  0  0
   -2.7252   -0.2228    0.0000 H   0  0  0  0  0  0  0  0  0  0  0  0
   -4.3140    0.5619    0.0000 H   0  0  0  0  0  0  0  0  0  0  0  0
   -5.4147    1.4736    0.0000 H   0  0  0  0  0  0  0  0  0  0  0  0
   -5.1615    0.9554    0.0000 H   0  0  0  0  0  0  0  0  0  0  0  0
   -7.6805    0.7673    0.0000 H   0  0  0  0  0  0  0  0  0  0  0  0
  -10.3538    4.6905    0.0000 H   0  0  0  0  0  0  0  0  0  0  0  0
   -9.2572    6.9661    0.0000 H   0  0  0  0  0  0  0  0  0  0  0  0
   -6.9544    8.0044    0.0000 H   0  0  0  0  0  0  0  0  0  0  0  0
   -4.6779    7.4174    0.0000 H   0  0  0  0  0  0  0  0  0  0  0  0
    0.9110    1.0162    0.0000 H   0  0  0  0  0  0  0  0  0  0  0  0
    0.8108    6.4743    0.0000 H   0  0  0  0  0  0  0  0  0  0  0  0
    1.7681    4.8491    0.0000 H   0  0  0  0  0  0  0  0  0  0  0  0
   -0.6978    7.6595    0.0000 H   0  0  0  0  0  0  0  0  0  0  0  0
    0.4321    7.0894    0.0000 H   0  0  0  0  0  0  0  0  0  0  0  0
   -3.1231    7.7043    0.0000 H   0  0  0  0  0  0  0  0  0  0  0  0
   -1.5440    7.8690    0.0000 H   0  0  0  0  0  0  0  0  0  0  0  0
   -4.3297    7.3593    0.0000 H   0  0  0  0  0  0  0  0  0  0  0  0
   -0.5955    4.6742    0.0000 H   0  0  0  0  0  0  0  0  0  0  0  0
    0.0016    6.3025    0.0000 H   0  0  0  0  0  0  0  0  0  0  0  0
    0.0432    7.0606    0.0000 H   0  0  0  0  0  0  0  0  0  0  0  0
    0.5003    7.6447    0.0000 H   0  0  0  0  0  0  0  0  0  0  0  0
    0.7756    8.0685    0.0000 H   0  0  0  0  0  0  0  0  0  0  0  0
    1.7270    9.1268    0.0000 H   0  0  0  0  0  0  0  0  0  0  0  0
    2.2967    9.9338    0.0000 H   0  0  0  0  0  0  0  0  0  0  0  0
   -0.4670   -0.1309    0.0000 H   0  0  0  0  0  0  0  0  0  0  0  0
   -0.1130   -0.6479    0.0000 H   0  0  0  0  0  0  0  0  0  0  0  0
   -0.3015   -3.2524    0.0000 H   0  0  0  0  0  0  0  0  0  0  0  0
   -0.5239   -1.0695    0.0000 H   0  0  0  0  0  0  0  0  0  0  0  0
    2.3281   -4.4895    0.0000 H   0  0  0  0  0  0  0  0  0  0  0  0
    2.6026   -2.5807    0.0000 H   0  0  0  0  0  0  0  0  0  0  0  0
    0.4977   -7.2523    0.0000 H   0  0  0  0  0  0  0  0  0  0  0  0
    2.7360   -6.4044    0.0000 H   0  0  0  0  0  0  0  0  0  0  0  0
    2.5313   -4.4646    0.0000 H   0  0  0  0  0  0  0  0  0  0  0  0
    3.2041   -4.8646    0.0000 H   0  0  0  0  0  0  0  0  0  0  0  0
    4.8512   -6.9576    0.0000 H   0  0  0  0  0  0  0  0  0  0  0  0
    5.9732   -5.5700    0.0000 H   0  0  0  0  0  0  0  0  0  0  0  0
    1.9582   -8.5746    0.0000 H   0  0  0  0  0  0  0  0  0  0  0  0
    4.5554   -8.5046    0.0000 H   0  0  0  0  0  0  0  0  0  0  0  0
    6.8518   -6.4422    0.0000 H   0  0  0  0  0  0  0  0  0  0  0  0
    7.8601   -6.2829    0.0000 H   0  0  0  0  0  0  0  0  0  0  0  0
   10.8119   -7.1905    0.0000 H   0  0  0  0  0  0  0  0  0  0  0  0
   10.8897   -5.5585    0.0000 H   0  0  0  0  0  0  0  0  0  0  0  0
    7.8690   -8.7130    0.0000 H   0  0  0  0  0  0  0  0  0  0  0  0
    7.5496   -7.1106    0.0000 H   0  0  0  0  0  0  0  0  0  0  0  0
   11.0054   -9.7814    0.0000 H   0  0  0  0  0  0  0  0  0  0  0  0
   10.9814   -7.9971    0.0000 H   0  0  0  0  0  0  0  0  0  0  0  0
    7.6407  -10.3685    0.0000 H   0  0  0  0  0  0  0  0  0  0  0  0
   10.1747  -14.0872    0.0000 H   0  0  0  0  0  0  0  0  0  0  0  0
   12.3217  -12.6242    0.0000 H   0  0  0  0  0  0  0  0  0  0  0  0
   12.1282  -10.0333    0.0000 H   0  0  0  0  0  0  0  0  0  0  0  0
   12.1004   -5.8172    0.0000 H   0  0  0  0  0  0  0  0  0  0  0  0
   12.8625   -5.1381    0.0000 H   0  0  0  0  0  0  0  0  0  0  0  0
   15.8364   -4.3058    0.0000 H   0  0  0  0  0  0  0  0  0  0  0  0
   15.0196   -2.8908    0.0000 H   0  0  0  0  0  0  0  0  0  0  0  0
   14.1838   -7.1776    0.0000 H   0  0  0  0  0  0  0  0  0  0  0  0
   13.0488   -6.0023    0.0000 H   0  0  0  0  0  0  0  0  0  0  0  0
   17.3999   -6.3807    0.0000 H   0  0  0  0  0  0  0  0  0  0  0  0
   16.4151   -4.8927    0.0000 H   0  0  0  0  0  0  0  0  0  0  0  0
   14.8868   -8.6937    0.0000 H   0  0  0  0  0  0  0  0  0  0  0  0
   19.0290  -10.4521    0.0000 H   0  0  0  0  0  0  0  0  0  0  0  0
   20.0442   -8.0606    0.0000 H   0  0  0  0  0  0  0  0  0  0  0  0
   18.4807   -5.9856    0.0000 H   0  0  0  0  0  0  0  0  0  0  0  0
   16.2869   -2.3066    0.0000 H   0  0  0  0  0  0  0  0  0  0  0  0
   16.6062   -1.3718    0.0000 H   0  0  0  0  0  0  0  0  0  0  0  0
   18.1598   -1.0599    0.0000 H   0  0  0  0  0  0  0  0  0  0  0  0
   18.5847    0.6732    0.0000 H   0  0  0  0  0  0  0  0  0  0  0  0
   17.0515    1.5863    0.0000 H   0  0  0  0  0  0  0  0  0  0  0  0
   17.7898    2.5801    0.0000 H   0  0  0  0  0  0  0  0  0  0  0  0
   17.4886    3.5554    0.0000 H   0  0  0  0  0  0  0  0  0  0  0  0
   17.9669    6.6063    0.0000 H   0  0  0  0  0  0  0  0  0  0  0  0
   16.3404    6.4511    0.0000 H   0  0  0  0  0  0  0  0  0  0  0  0
   19.7724    3.7719    0.0000 H   0  0  0  0  0  0  0  0  0  0  0  0
   18.3521    3.3659    0.0000 H   0  0  0  0  0  0  0  0  0  0  0  0
   20.5039    7.1666    0.0000 H   0  0  0  0  0  0  0  0  0  0  0  0
   18.7412    6.8889    0.0000 H   0  0  0  0  0  0  0  0  0  0  0  0
   22.4296    4.4703    0.0000 H   0  0  0  0  0  0  0  0  0  0  0  0
   20.7139    3.9798    0.0000 H   0  0  0  0  0  0  0  0  0  0  0  0
   23.7773    5.9446    0.0000 H   0  0  0  0  0  0  0  0  0  0  0  0
   22.0236    7.8616    0.0000 H   0  0  0  0  0  0  0  0  0  0  0  0
   16.4242    7.6863    0.0000 H   0  0  0  0  0  0  0  0  0  0  0  0
   13.1216   10.7094    0.0000 H   0  0  0  0  0  0  0  0  0  0  0  0
   14.2258   10.1042    0.0000 H   0  0  0  0  0  0  0  0  0  0  0  0
   11.7240   11.4691    0.0000 H   0  0  0  0  0  0  0  0  0  0  0  0
   12.7399   11.0726    0.0000 H   0  0  0  0  0  0  0  0  0  0  0  0
   10.0249   11.9394    0.0000 H   0  0  0  0  0  0  0  0  0  0  0  0
   11.2472   11.6367    0.0000 H   0  0  0  0  0  0  0  0  0  0  0  0
    8.2676   12.0797    0.0000 H   0  0  0  0  0  0  0  0  0  0  0  0
    9.5250   12.0137    0.0000 H   0  0  0  0  0  0  0  0  0  0  0  0
    6.5155   11.8848    0.0000 H   0  0  0  0  0  0  0  0  0  0  0  0
    7.7627   12.0580    0.0000 H   0  0  0  0  0  0  0  0  0  0  0  0
    4.7073   11.2276    0.0000 H   0  0  0  0  0  0  0  0  0  0  0  0
    6.0238   11.7680    0.0000 H   0  0  0  0  0  0  0  0  0  0  0  0
    3.7558   10.9623    0.0000 H   0  0  0  0  0  0  0  0  0  0  0  0
   16.2626    9.8797    0.0000 H   0  0  0  0  0  0  0  0  0  0  0  0
   17.1174    8.4873    0.0000 H   0  0  0  0  0  0  0  0  0  0  0  0
   16.0199    7.0803    0.0000 H   0  0  0  0  0  0  0  0  0  0  0  0
   13.8516   12.1827    0.0000 H   0  0  0  0  0  0  0  0  0  0  0  0
  1  2  1  0
  2  3  1  0
  3  4  2  0
  4  5  1  0
  5  6  2  0
  6  7  1  0
  7  8  2  0
  7  9  1  0
  9 10  1  0
 10 11  1  0
 11 12  2  0
  9 13  1  0
 13 14  1  0
 14 15  2  0
 15 16  1  0
 16 17  2  0
 17 18  1  0
 16 19  1  0
 14 20  1  0
 20 21  1  0
 21 22  2  0
 22 23  1  0
 23 24  2  0
 24 25  1  0
 25 26  2  0
 25 27  1  0
  1 28  2  0
  1 29  1  0
 29 30  1  0
 30 31  1  0
 31 32  1  0
 32 33  2  0
 32 34  1  0
 35 34  1  1
 35 36  1  0
 36 37  1  0
 37 38  1  0
 38 39  1  0
 35 40  1  0
 35 41  1  0
 41 42  2  0
 41 43  1  0
 43 44  1  0
 44 45  1  0
 45 46  1  0
 46 47  1  0
 47 48  1  0
 48 49  1  0
 44 50  1  0
 50 51  2  0
 50 52  1  0
 52 53  1  0
 53 54  1  0
 54 55  1  0
 54 56  1  0
 56 57  1  0
 53 58  1  0
 58 59  2  0
 58 60  1  0
 60 61  1  0
 61 62  1  0
 62 63  1  0
 63 64  2  0
 64 65  1  0
 65 66  1  0
 66 67  1  0
 67 68  2  0
 68 69  1  0
 69 70  2  0
 70 71  1  0
 61 72  1  0
 72 73  2  0
 72 74  1  0
 74 75  1  0
 75 76  1  0
 76 77  1  0
 77 78  1  0
 78 79  1  0
 75 80  1  0
 80 81  1  0
 81 82  1  0
 82 83  1  0
 75 84  1  0
 84 85  2  0
 84 86  1  0
 86 87  1  0
 87 88  1  0
 88 89  1  0
 89 90  1  0
 90 91  1  0
 90 92  2  0
 87 93  1  0
 93 94  2  0
 93 95  1  0
 95 96  1  0
 96 97  1  0
 97 98  1  0
 98 99  1  0
 98100  2  0
 96101  1  0
101102  2  0
101103  1  0
103104  1  0
104105  1  0
105106  1  0
106107  1  0
107108  1  0
108109  1  0
109110  2  3
109111  1  0
104112  1  0
112113  2  0
112114  1  0
114115  1  0
115116  1  0
116117  1  0
117118  1  0
118119  1  0
119120  1  0
120121  2  3
120122  1  0
115123  1  0
123124  2  0
123125  1  0
125126  1  0
126127  1  0
126128  1  0
128129  2  0
128130  1  0
130131  1  0
131132  1  0
132133  1  0
133134  1  0
134135  1  0
135136  1  0
131137  1  0
137138  2  0
137139  1  0
139140  1  0
140141  1  0
141142  1  0
142143  1  0
143144  1  0
144145  1  0
145146  1  0
146147  1  0
140148  1  0
140149  1  1
149150  2  0
149151  1  0
  8  3  1  0
 71 63  1  0
 11  6  1  0
 39 66  2  0
 79 71  2  0
 18 13  2  0
 83147  2  0
 22  9  1  0
 26 21  1  0
  2152  1  0
  4153  1  0
  5154  1  0
  8155  1  0
 15156  1  0
 17157  1  0
 18158  1  0
 19159  1  0
 23160  1  0
 24161  1  0
 26162  1  0
 27163  1  0
 29164  1  0
 30165  1  0
 30166  1  0
 31167  1  0
 31168  1  0
 34169  1  0
 36170  1  0
 36171  1  0
 37172  1  0
 37173  1  0
 38174  1  0
 38175  1  0
 39176  1  0
 40177  1  0
 40178  1  0
 40179  1  0
 43180  1  0
 44181  1  6
 45182  1  0
 45183  1  0
 46184  1  0
 46185  1  0
 47186  1  0
 47187  1  0
 48188  1  0
 48189  1  0
 49190  1  0
 49191  1  0
 52192  1  0
 53193  1  6
 54194  1  1
 55195  1  0
 55196  1  0
 55197  1  0
 56198  1  0
 56199  1  0
 57200  1  0
 57201  1  0
 57202  1  0
 60203  1  0
 61204  1  1
 62205  1  0
 62206  1  0
 64207  1  0
 65208  1  0
 67209  1  0
 68210  1  0
 69211  1  0
 70212  1  0
 74213  1  0
 76214  1  0
 76215  1  0
 77216  1  0
 77217  1  0
 78218  1  0
 78219  1  0
 79220  1  0
 80221  1  0
 80222  1  0
 81223  1  0
 81224  1  0
 82225  1  0
 82226  1  0
 83227  1  0
 86228  1  0
 87229  1  6
 88230  1  0
 88231  1  0
 89232  1  0
 89233  1  0
 91234  1  0
 91235  1  0
 95236  1  0
 96237  1  6
 97238  1  0
 97239  1  0
 99240  1  0
 99241  1  0
103242  1  0
104243  1  6
105244  1  0
105245  1  0
106246  1  0
106247  1  0
107248  1  0
107249  1  0
108250  1  0
110251  1  0
111252  1  0
111253  1  0
114254  1  0
115255  1  6
116256  1  0
116257  1  0
117258  1  0
117259  1  0
118260  1  0
118261  1  0
119262  1  0
121263  1  0
122264  1  0
122265  1  0
125266  1  0
126267  1  6
127268  1  0
127269  1  0
127270  1  0
130271  1  0
131272  1  6
132273  1  0
132274  1  0
133275  1  0
133276  1  0
134277  1  0
134278  1  0
135279  1  0
135280  1  0
136281  1  0
136282  1  0
139283  1  0
141284  1  0
141285  1  0
142286  1  0
142287  1  0
143288  1  0
143289  1  0
144290  1  0
144291  1  0
145292  1  0
145293  1  0
146294  1  0
146295  1  0
147296  1  0
148297  1  0
148298  1  0
148299  1  0
151300  1  0
M  END
