
     RDKit          2D

291297  0  0  0  0  0  0  0  0999 V2000
   25.7215   -0.8024    0.0000 C   0  0  0  0  0  0  0  0  0  0  0  0
   27.0293   -0.0678    0.0000 N   0  0  0  0  0  0  0  0  0  0  0  0
   28.3194   -0.8330    0.0000 C   0  0  0  0  0  0  0  0  0  0  0  0
   28.3017   -2.3329    0.0000 C   0  0  0  0  0  0  0  0  0  0  0  0
   29.5919   -3.0982    0.0000 C   0  0  0  0  0  0  0  0  0  0  0  0
   30.8996   -2.3635    0.0000 C   0  0  0  0  0  0  0  0  0  0  0  0
   30.9173   -0.8636    0.0000 C   0  0  0  0  0  0  0  0  0  0  0  0
   29.6272   -0.0984    0.0000 C   0  0  0  0  0  0  0  0  0  0  0  0
   32.3492   -0.4169    0.0000 C   0  0  0  0  0  0  0  0  0  0  0  0
   33.2166   -1.6407    0.0000 O   0  0  0  0  0  0  0  0  0  0  0  0
   32.3207   -2.8438    0.0000 C   0  0  0  0  0  0  0  0  0  0  0  0
   32.7674   -4.2757    0.0000 O   0  0  0  0  0  0  0  0  0  0  0  0
   33.8200   -0.1223    0.0000 C   0  0  0  0  0  0  0  0  0  0  0  0
   34.3003    1.2987    0.0000 C   0  0  0  0  0  0  0  0  0  0  0  0
   35.7711    1.5933    0.0000 C   0  0  0  0  0  0  0  0  0  0  0  0
   36.7616    0.4668    0.0000 C   0  0  0  0  0  0  0  0  0  0  0  0
   36.2813   -0.9542    0.0000 C   0  0  0  0  0  0  0  0  0  0  0  0
   34.8105   -1.2488    0.0000 C   0  0  0  0  0  0  0  0  0  0  0  0
   38.2324    0.7614    0.0000 O   0  0  0  0  0  0  0  0  0  0  0  0
   33.3098    2.4252    0.0000 O   0  0  0  0  0  0  0  0  0  0  0  0
   31.8390    2.1306    0.0000 C   0  0  0  0  0  0  0  0  0  0  0  0
   31.3587    0.7096    0.0000 C   0  0  0  0  0  0  0  0  0  0  0  0
   30.1121    1.0781    0.0000 C   0  0  0  0  0  0  0  0  0  0  0  0
   29.5838    1.6789    0.0000 C   0  0  0  0  0  0  0  0  0  0  0  0
   29.8399    2.4368    0.0000 C   0  0  0  0  0  0  0  0  0  0  0  0
   30.6244    2.5939    0.0000 C   0  0  0  0  0  0  0  0  0  0  0  0
   28.3872    4.0889    0.0000 O   0  0  0  0  0  0  0  0  0  0  0  0
   25.7038   -2.3023    0.0000 S   0  0  0  0  0  0  0  0  0  0  0  0
   24.4314   -0.0372    0.0000 N   0  0  0  0  0  0  0  0  0  0  0  0
   23.1236   -0.7719    0.0000 C   0  0  0  0  0  0  0  0  0  0  0  0
   21.8335   -0.0066    0.0000 C   0  0  0  0  0  0  0  0  0  0  0  0
   20.5257   -0.7413    0.0000 C   0  0  0  0  0  0  0  0  0  0  0  0
   20.5080   -2.2412    0.0000 O   0  0  0  0  0  0  0  0  0  0  0  0
   19.2356    0.0239    0.0000 N   0  0  0  0  0  0  0  0  0  0  0  0
   17.9278   -0.7107    0.0000 C   0  0  0  0  0  0  0  0  0  0  0  0
   16.9502   -1.8484    0.0000 C   0  0  0  0  0  0  0  0  0  0  0  0
   15.4761   -1.5705    0.0000 C   0  0  0  0  0  0  0  0  0  0  0  0
   14.9797   -0.1550    0.0000 C   0  0  0  0  0  0  0  0  0  0  0  0
   13.5057    0.1228    0.0000 C   0  0  0  0  0  0  0  0  0  0  0  0
   12.5280   -1.0148    0.0000 C   0  0  0  0  0  0  0  0  0  0  0  0
   11.0540   -0.7370    0.0000 O   0  0  0  0  0  0  0  0  0  0  0  0
   13.0244   -2.4303    0.0000 C   0  0  0  0  0  0  0  0  0  0  0  0
   14.4985   -2.7082    0.0000 C   0  0  0  0  0  0  0  0  0  0  0  0
   16.6377    0.0545    0.0000 C   0  0  0  0  0  0  0  0  0  0  0  0
   16.8380    1.5411    0.0000 O   0  0  0  0  0  0  0  0  0  0  0  0
   15.3299   -0.6801    0.0000 N   0  0  0  0  0  0  0  0  0  0  0  0
   14.0398    0.0851    0.0000 C   0  0  0  0  0  0  0  0  0  0  0  0
   12.7320   -0.6496    0.0000 C   0  0  0  0  0  0  0  0  0  0  0  0
   12.3519   -2.1006    0.0000 O   0  0  0  0  0  0  0  0  0  0  0  0
   11.4419    0.1157    0.0000 N   0  0  0  0  0  0  0  0  0  0  0  0
   10.1341   -0.6190    0.0000 C   0  0  0  0  0  0  0  0  0  0  0  0
    9.1565   -1.7566    0.0000 C   0  0  0  0  0  0  0  0  0  0  0  0
    7.6824   -1.4788    0.0000 C   0  0  0  0  0  0  0  0  0  0  0  0
    6.7048   -2.6164    0.0000 C   0  0  0  0  0  0  0  0  0  0  0  0
    5.2308   -2.3386    0.0000 N   0  0  0  0  0  0  0  0  0  0  0  0
    4.2531   -3.4762    0.0000 C   0  0  0  0  0  0  0  0  0  0  0  0
    2.8239   -3.0208    0.0000 N   0  0  0  0  0  0  0  0  0  0  0  0
    4.7495   -4.8917    0.0000 N   0  0  0  0  0  0  0  0  0  0  0  0
    8.8440    0.1462    0.0000 C   0  0  0  0  0  0  0  0  0  0  0  0
    8.8616    1.6461    0.0000 O   0  0  0  0  0  0  0  0  0  0  0  0
    7.5362   -0.5884    0.0000 N   0  0  0  0  0  0  0  0  0  0  0  0
    6.2461    0.1768    0.0000 C   0  0  0  0  0  0  0  0  0  0  0  0
    5.2955    1.3372    0.0000 C   0  0  0  0  0  0  0  0  0  0  0  0
    5.8251    2.7406    0.0000 C   0  0  0  0  0  0  0  0  0  0  0  0
    4.8745    3.9009    0.0000 C   0  0  0  0  0  0  0  0  0  0  0  0
    5.4041    5.3043    0.0000 C   0  0  0  0  0  0  0  0  0  0  0  0
    4.4535    6.4646    0.0000 N   0  0  0  0  0  0  0  0  0  0  0  0
    4.9383   -0.5578    0.0000 C   0  0  0  0  0  0  0  0  0  0  0  0
    4.5583   -2.0089    0.0000 O   0  0  0  0  0  0  0  0  0  0  0  0
    3.6482    0.2074    0.0000 N   0  0  0  0  0  0  0  0  0  0  0  0
    2.3404   -0.5273    0.0000 C   0  0  0  0  0  0  0  0  0  0  0  0
    1.3628   -1.6649    0.0000 C   0  0  0  0  0  0  0  0  0  0  0  0
   -0.1113   -1.3871    0.0000 C   0  0  0  0  0  0  0  0  0  0  0  0
   -1.0889   -2.5247    0.0000 C   0  0  0  0  0  0  0  0  0  0  0  0
   -2.5629   -2.2469    0.0000 C   0  0  0  0  0  0  0  0  0  0  0  0
   -3.5406   -3.3845    0.0000 N   0  0  0  0  0  0  0  0  0  0  0  0
    1.0503    0.2380    0.0000 C   0  0  0  0  0  0  0  0  0  0  0  0
    1.0680    1.7379    0.0000 O   0  0  0  0  0  0  0  0  0  0  0  0
   -0.2575   -0.4967    0.0000 N   0  0  0  0  0  0  0  0  0  0  0  0
   -1.5476    0.2686    0.0000 C   0  0  0  0  0  0  0  0  0  0  0  0
   -2.4982    1.4289    0.0000 C   0  0  0  0  0  0  0  0  0  0  0  0
   -1.9686    2.8323    0.0000 C   0  0  0  0  0  0  0  0  0  0  0  0
   -2.9192    3.9926    0.0000 C   0  0  0  0  0  0  0  0  0  0  0  0
   -2.3896    5.3960    0.0000 N   0  0  0  0  0  0  0  0  0  0  0  0
   -3.3402    6.5564    0.0000 C   0  0  0  0  0  0  0  0  0  0  0  0
   -2.8106    7.9598    0.0000 N   0  0  0  0  0  0  0  0  0  0  0  0
   -4.8204    6.3133    0.0000 N   0  0  0  0  0  0  0  0  0  0  0  0
   -2.8554   -0.4661    0.0000 C   0  0  0  0  0  0  0  0  0  0  0  0
   -3.2354   -1.9172    0.0000 O   0  0  0  0  0  0  0  0  0  0  0  0
   -4.1455    0.2991    0.0000 N   0  0  0  0  0  0  0  0  0  0  0  0
   -5.4533   -0.4355    0.0000 C   0  0  0  0  0  0  0  0  0  0  0  0
   -6.4309   -1.5732    0.0000 C   0  0  0  0  0  0  0  0  0  0  0  0
   -7.9049   -1.2953    0.0000 C   0  0  0  0  0  0  0  0  0  0  0  0
   -8.8826   -2.4330    0.0000 C   0  0  0  0  0  0  0  0  0  0  0  0
  -10.3566   -2.1551    0.0000 N   0  0  0  0  0  0  0  0  0  0  0  0
  -11.3343   -3.2928    0.0000 C   0  0  0  0  0  0  0  0  0  0  0  0
  -12.7634   -2.8373    0.0000 N   0  0  0  0  0  0  0  0  0  0  0  0
  -10.8379   -4.7083    0.0000 N   0  0  0  0  0  0  0  0  0  0  0  0
   -6.7434    0.3297    0.0000 C   0  0  0  0  0  0  0  0  0  0  0  0
   -6.7257    1.8296    0.0000 O   0  0  0  0  0  0  0  0  0  0  0  0
   -8.0512   -0.4050    0.0000 N   0  0  0  0  0  0  0  0  0  0  0  0
   -9.3413    0.3603    0.0000 C   0  0  0  0  0  0  0  0  0  0  0  0
  -10.2919    1.5206    0.0000 C   0  0  0  0  0  0  0  0  0  0  0  0
   -9.7623    2.9240    0.0000 C   0  0  0  0  0  0  0  0  0  0  0  0
  -10.7129    4.0844    0.0000 C   0  0  0  0  0  0  0  0  0  0  0  0
  -10.1833    5.4878    0.0000 N   0  0  0  0  0  0  0  0  0  0  0  0
  -12.1931    3.8413    0.0000 O   0  0  0  0  0  0  0  0  0  0  0  0
  -10.6491   -0.3744    0.0000 C   0  0  0  0  0  0  0  0  0  0  0  0
  -11.0291   -1.8254    0.0000 O   0  0  0  0  0  0  0  0  0  0  0  0
  -11.9392    0.3909    0.0000 N   0  0  0  0  0  0  0  0  0  0  0  0
  -13.2469   -0.3438    0.0000 C   0  0  0  0  0  0  0  0  0  0  0  0
  -14.2246   -1.4814    0.0000 C   0  0  0  0  0  0  0  0  0  0  0  0
  -15.6986   -1.2036    0.0000 C   0  0  0  0  0  0  0  0  0  0  0  0
  -16.6763   -2.3412    0.0000 C   0  0  0  0  0  0  0  0  0  0  0  0
  -18.1503   -2.0634    0.0000 N   0  0  0  0  0  0  0  0  0  0  0  0
  -19.1280   -3.2010    0.0000 C   0  0  0  0  0  0  0  0  0  0  0  0
  -20.5571   -2.7456    0.0000 N   0  0  0  0  0  0  0  0  0  0  0  0
  -18.6315   -4.6165    0.0000 N   0  0  0  0  0  0  0  0  0  0  0  0
  -14.5371    0.4214    0.0000 C   0  0  0  0  0  0  0  0  0  0  0  0
  -14.5194    1.9213    0.0000 O   0  0  0  0  0  0  0  0  0  0  0  0
  -15.8448   -0.3132    0.0000 N   0  0  0  0  0  0  0  0  0  0  0  0
  -17.1350    0.4520    0.0000 C   0  0  0  0  0  0  0  0  0  0  0  0
  -18.0856    1.6123    0.0000 C   0  0  0  0  0  0  0  0  0  0  0  0
  -17.5560    3.0157    0.0000 C   0  0  0  0  0  0  0  0  0  0  0  0
  -18.5066    4.1761    0.0000 C   0  0  0  0  0  0  0  0  0  0  0  0
  -17.9770    5.5795    0.0000 N   0  0  0  0  0  0  0  0  0  0  0  0
  -18.9276    6.7398    0.0000 C   0  0  0  0  0  0  0  0  0  0  0  0
  -18.3980    8.1432    0.0000 N   0  0  0  0  0  0  0  0  0  0  0  0
  -20.4077    6.4968    0.0000 N   0  0  0  0  0  0  0  0  0  0  0  0
  -18.4427   -0.2826    0.0000 C   0  0  0  0  0  0  0  0  0  0  0  0
  -18.8228   -1.7337    0.0000 O   0  0  0  0  0  0  0  0  0  0  0  0
  -19.7329    0.4826    0.0000 N   0  0  0  0  0  0  0  0  0  0  0  0
  -21.0406   -0.2521    0.0000 C   0  0  0  0  0  0  0  0  0  0  0  0
  -22.0183   -1.3897    0.0000 C   0  0  0  0  0  0  0  0  0  0  0  0
  -23.4923   -1.1119    0.0000 C   0  0  0  0  0  0  0  0  0  0  0  0
  -24.4700   -2.2495    0.0000 C   0  0  0  0  0  0  0  0  0  0  0  0
  -25.9440   -1.9717    0.0000 N   0  0  0  0  0  0  0  0  0  0  0  0
  -26.9216   -3.1093    0.0000 C   0  0  0  0  0  0  0  0  0  0  0  0
  -28.3957   -2.8315    0.0000 N   0  0  0  0  0  0  0  0  0  0  0  0
  -26.4252   -4.5248    0.0000 N   0  0  0  0  0  0  0  0  0  0  0  0
  -22.3308    0.5132    0.0000 C   0  0  0  0  0  0  0  0  0  0  0  0
  -22.3131    2.0131    0.0000 O   0  0  0  0  0  0  0  0  0  0  0  0
  -23.6385   -0.2215    0.0000 N   0  0  0  0  0  0  0  0  0  0  0  0
  -23.8129   -1.7113    0.0000 C   0  0  0  0  0  0  0  0  0  0  0  0
  -25.2837   -2.0059    0.0000 C   0  0  0  0  0  0  0  0  0  0  0  0
  -26.0183   -0.6981    0.0000 C   0  0  0  0  0  0  0  0  0  0  0  0
  -25.0016    0.4047    0.0000 C   0  0  0  0  0  0  0  0  0  0  0  0
  -26.2046    1.3006    0.0000 C   0  0  0  0  0  0  0  0  0  0  0  0
  -26.0303    2.7904    0.0000 O   0  0  0  0  0  0  0  0  0  0  0  0
  -27.6442    0.8790    0.0000 O   0  0  0  0  0  0  0  0  0  0  0  0
   26.8640    1.4231    0.0000 H   0  0  0  0  0  0  0  0  0  0  0  0
   26.9940   -3.0676    0.0000 H   0  0  0  0  0  0  0  0  0  0  0  0
   29.5742   -4.5981    0.0000 H   0  0  0  0  0  0  0  0  0  0  0  0
   29.2814    1.3612    0.0000 H   0  0  0  0  0  0  0  0  0  0  0  0
   36.2514    3.0143    0.0000 H   0  0  0  0  0  0  0  0  0  0  0  0
   37.2718   -2.0806    0.0000 H   0  0  0  0  0  0  0  0  0  0  0  0
   34.3302   -2.6698    0.0000 H   0  0  0  0  0  0  0  0  0  0  0  0
   39.2229   -0.3650    0.0000 H   0  0  0  0  0  0  0  0  0  0  0  0
   29.4076   -1.0061    0.0000 H   0  0  0  0  0  0  0  0  0  0  0  0
   27.4017    1.4283    0.0000 H   0  0  0  0  0  0  0  0  0  0  0  0
   31.3288    4.6781    0.0000 H   0  0  0  0  0  0  0  0  0  0  0  0
   28.8675    5.5099    0.0000 H   0  0  0  0  0  0  0  0  0  0  0  0
   24.4490    1.4627    0.0000 H   0  0  0  0  0  0  0  0  0  0  0  0
   22.1460   -1.9095    0.0000 H   0  0  0  0  0  0  0  0  0  0  0  0
   24.0742   -1.9322    0.0000 H   0  0  0  0  0  0  0  0  0  0  0  0
   20.8829    1.1537    0.0000 H   0  0  0  0  0  0  0  0  0  0  0  0
   22.8111    1.1310    0.0000 H   0  0  0  0  0  0  0  0  0  0  0  0
   19.2532    1.5238    0.0000 H   0  0  0  0  0  0  0  0  0  0  0  0
   18.8784   -1.8711    0.0000 H   0  0  0  0  0  0  0  0  0  0  0  0
   16.4206   -3.2518    0.0000 H   0  0  0  0  0  0  0  0  0  0  0  0
   18.2403   -2.6136    0.0000 H   0  0  0  0  0  0  0  0  0  0  0  0
   15.8114    1.0933    0.0000 H   0  0  0  0  0  0  0  0  0  0  0  0
   12.8404    1.4672    0.0000 H   0  0  0  0  0  0  0  0  0  0  0  0
   10.2223   -1.9853    0.0000 H   0  0  0  0  0  0  0  0  0  0  0  0
   12.0468   -3.5680    0.0000 H   0  0  0  0  0  0  0  0  0  0  0  0
   14.9949   -4.1236    0.0000 H   0  0  0  0  0  0  0  0  0  0  0  0
   14.9498   -2.1312    0.0000 H   0  0  0  0  0  0  0  0  0  0  0  0
   13.2377    1.3526    0.0000 H   0  0  0  0  0  0  0  0  0  0  0  0
   15.0174    1.2227    0.0000 H   0  0  0  0  0  0  0  0  0  0  0  0
   11.4595    1.6156    0.0000 H   0  0  0  0  0  0  0  0  0  0  0  0
   11.0847   -1.7793    0.0000 H   0  0  0  0  0  0  0  0  0  0  0  0
    8.8019   -3.2141    0.0000 H   0  0  0  0  0  0  0  0  0  0  0  0
   10.3437   -2.6734    0.0000 H   0  0  0  0  0  0  0  0  0  0  0  0
    6.3923   -0.7136    0.0000 H   0  0  0  0  0  0  0  0  0  0  0  0
    7.4910    0.0089    0.0000 H   0  0  0  0  0  0  0  0  0  0  0  0
    6.1752   -4.0198    0.0000 H   0  0  0  0  0  0  0  0  0  0  0  0
    7.8920   -3.5332    0.0000 H   0  0  0  0  0  0  0  0  0  0  0  0
    4.4066   -1.0853    0.0000 H   0  0  0  0  0  0  0  0  0  0  0  0
    1.8014   -4.3360    0.0000 H   0  0  0  0  0  0  0  0  0  0  0  0
    3.7719   -6.0293    0.0000 H   0  0  0  0  0  0  0  0  0  0  0  0
    6.2236   -5.1695    0.0000 H   0  0  0  0  0  0  0  0  0  0  0  0
    7.1562   -2.0395    0.0000 H   0  0  0  0  0  0  0  0  0  0  0  0
    7.3551    1.1868    0.0000 H   0  0  0  0  0  0  0  0  0  0  0  0
    4.0054    2.1024    0.0000 H   0  0  0  0  0  0  0  0  0  0  0  0
    4.0716    0.4699    0.0000 H   0  0  0  0  0  0  0  0  0  0  0  0
    6.9341    3.7505    0.0000 H   0  0  0  0  0  0  0  0  0  0  0  0
    7.1989    2.1383    0.0000 H   0  0  0  0  0  0  0  0  0  0  0  0
    3.5844    4.6661    0.0000 H   0  0  0  0  0  0  0  0  0  0  0  0
    3.7655    2.8909    0.0000 H   0  0  0  0  0  0  0  0  0  0  0  0
    6.3817    6.4419    0.0000 H   0  0  0  0  0  0  0  0  0  0  0  0
    6.7779    4.7020    0.0000 H   0  0  0  0  0  0  0  0  0  0  0  0
    4.9831    7.8680    0.0000 H   0  0  0  0  0  0  0  0  0  0  0  0
    2.9733    6.2216    0.0000 H   0  0  0  0  0  0  0  0  0  0  0  0
    3.4829    1.6983    0.0000 H   0  0  0  0  0  0  0  0  0  0  0  0
    3.2910   -1.6876    0.0000 H   0  0  0  0  0  0  0  0  0  0  0  0
    1.0082   -3.1224    0.0000 H   0  0  0  0  0  0  0  0  0  0  0  0
    2.7366   -2.2672    0.0000 H   0  0  0  0  0  0  0  0  0  0  0  0
   -1.2985   -0.4703    0.0000 H   0  0  0  0  0  0  0  0  0  0  0  0
   -0.3027    0.1007    0.0000 H   0  0  0  0  0  0  0  0  0  0  0  0
   -1.6185   -3.9281    0.0000 H   0  0  0  0  0  0  0  0  0  0  0  0
    0.0983   -3.4415    0.0000 H   0  0  0  0  0  0  0  0  0  0  0  0
   -3.9367   -1.6446    0.0000 H   0  0  0  0  0  0  0  0  0  0  0  0
   -2.2084   -0.7894    0.0000 H   0  0  0  0  0  0  0  0  0  0  0  0
   -4.9698   -2.9291    0.0000 H   0  0  0  0  0  0  0  0  0  0  0  0
   -3.0442   -4.8000    0.0000 H   0  0  0  0  0  0  0  0  0  0  0  0
   -0.6375   -1.9477    0.0000 H   0  0  0  0  0  0  0  0  0  0  0  0
   -0.4386    1.2785    0.0000 H   0  0  0  0  0  0  0  0  0  0  0  0
   -3.7883    2.1941    0.0000 H   0  0  0  0  0  0  0  0  0  0  0  0
   -3.7220    0.5616    0.0000 H   0  0  0  0  0  0  0  0  0  0  0  0
   -0.9910    3.9699    0.0000 H   0  0  0  0  0  0  0  0  0  0  0  0
   -0.5948    2.2300    0.0000 H   0  0  0  0  0  0  0  0  0  0  0  0
   -4.2093    4.7579    0.0000 H   0  0  0  0  0  0  0  0  0  0  0  0
   -4.0282    2.9826    0.0000 H   0  0  0  0  0  0  0  0  0  0  0  0
   -0.9094    5.6391    0.0000 H   0  0  0  0  0  0  0  0  0  0  0  0
   -3.7612    9.1201    0.0000 H   0  0  0  0  0  0  0  0  0  0  0  0
   -5.7710    7.4736    0.0000 H   0  0  0  0  0  0  0  0  0  0  0  0
   -5.3500    4.9099    0.0000 H   0  0  0  0  0  0  0  0  0  0  0  0
   -4.3108    1.7900    0.0000 H   0  0  0  0  0  0  0  0  0  0  0  0
   -4.6512   -1.7031    0.0000 H   0  0  0  0  0  0  0  0  0  0  0  0
   -6.7855   -3.0307    0.0000 H   0  0  0  0  0  0  0  0  0  0  0  0
   -5.0571   -2.1754    0.0000 H   0  0  0  0  0  0  0  0  0  0  0  0
   -9.1951   -0.5301    0.0000 H   0  0  0  0  0  0  0  0  0  0  0  0
   -8.0964    0.1924    0.0000 H   0  0  0  0  0  0  0  0  0  0  0  0
   -9.4122   -3.8364    0.0000 H   0  0  0  0  0  0  0  0  0  0  0  0
   -7.6954   -3.3498    0.0000 H   0  0  0  0  0  0  0  0  0  0  0  0
  -11.1808   -0.9018    0.0000 H   0  0  0  0  0  0  0  0  0  0  0  0
  -13.7859   -4.1526    0.0000 H   0  0  0  0  0  0  0  0  0  0  0  0
  -11.8155   -5.8459    0.0000 H   0  0  0  0  0  0  0  0  0  0  0  0
   -9.3638   -4.9861    0.0000 H   0  0  0  0  0  0  0  0  0  0  0  0
   -8.4312   -1.8560    0.0000 H   0  0  0  0  0  0  0  0  0  0  0  0
   -8.2323    1.3703    0.0000 H   0  0  0  0  0  0  0  0  0  0  0  0
  -11.4791    2.4374    0.0000 H   0  0  0  0  0  0  0  0  0  0  0  0
  -11.5157    0.6533    0.0000 H   0  0  0  0  0  0  0  0  0  0  0  0
   -8.7846    4.0617    0.0000 H   0  0  0  0  0  0  0  0  0  0  0  0
   -8.3885    2.3217    0.0000 H   0  0  0  0  0  0  0  0  0  0  0  0
  -11.1339    6.6481    0.0000 H   0  0  0  0  0  0  0  0  0  0  0  0
   -8.7031    5.7308    0.0000 H   0  0  0  0  0  0  0  0  0  0  0  0
  -12.1045    1.8817    0.0000 H   0  0  0  0  0  0  0  0  0  0  0  0
  -12.2964   -1.5041    0.0000 H   0  0  0  0  0  0  0  0  0  0  0  0
  -14.5792   -2.9389    0.0000 H   0  0  0  0  0  0  0  0  0  0  0  0
  -12.8508   -2.0837    0.0000 H   0  0  0  0  0  0  0  0  0  0  0  0
  -16.9888   -0.4384    0.0000 H   0  0  0  0  0  0  0  0  0  0  0  0
  -15.8901    0.2841    0.0000 H   0  0  0  0  0  0  0  0  0  0  0  0
  -17.2059   -3.7446    0.0000 H   0  0  0  0  0  0  0  0  0  0  0  0
  -15.4890   -3.2580    0.0000 H   0  0  0  0  0  0  0  0  0  0  0  0
  -18.9745   -0.8101    0.0000 H   0  0  0  0  0  0  0  0  0  0  0  0
  -21.5796   -4.0608    0.0000 H   0  0  0  0  0  0  0  0  0  0  0  0
  -19.6092   -5.7542    0.0000 H   0  0  0  0  0  0  0  0  0  0  0  0
  -17.1575   -4.8944    0.0000 H   0  0  0  0  0  0  0  0  0  0  0  0
  -16.2249   -1.7643    0.0000 H   0  0  0  0  0  0  0  0  0  0  0  0
  -16.0259    1.4620    0.0000 H   0  0  0  0  0  0  0  0  0  0  0  0
  -19.3757    2.3776    0.0000 H   0  0  0  0  0  0  0  0  0  0  0  0
  -19.3094    0.7451    0.0000 H   0  0  0  0  0  0  0  0  0  0  0  0
  -16.5783    4.1534    0.0000 H   0  0  0  0  0  0  0  0  0  0  0  0
  -16.1822    2.4135    0.0000 H   0  0  0  0  0  0  0  0  0  0  0  0
  -19.7967    4.9413    0.0000 H   0  0  0  0  0  0  0  0  0  0  0  0
  -19.6156    3.1661    0.0000 H   0  0  0  0  0  0  0  0  0  0  0  0
  -16.4968    5.8226    0.0000 H   0  0  0  0  0  0  0  0  0  0  0  0
  -19.3486    9.3036    0.0000 H   0  0  0  0  0  0  0  0  0  0  0  0
  -21.3583    7.6571    0.0000 H   0  0  0  0  0  0  0  0  0  0  0  0
  -20.9373    5.0933    0.0000 H   0  0  0  0  0  0  0  0  0  0  0  0
  -19.8982    1.9734    0.0000 H   0  0  0  0  0  0  0  0  0  0  0  0
  -20.0900   -1.4124    0.0000 H   0  0  0  0  0  0  0  0  0  0  0  0
  -22.3728   -2.8472    0.0000 H   0  0  0  0  0  0  0  0  0  0  0  0
  -20.6445   -1.9920    0.0000 H   0  0  0  0  0  0  0  0  0  0  0  0
  -24.9293   -0.6816    0.0000 H   0  0  0  0  0  0  0  0  0  0  0  0
  -23.6837    0.3759    0.0000 H   0  0  0  0  0  0  0  0  0  0  0  0
  -24.8245   -3.7070    0.0000 H   0  0  0  0  0  0  0  0  0  0  0  0
  -23.4033   -3.3042    0.0000 H   0  0  0  0  0  0  0  0  0  0  0  0
  -26.7682   -0.7184    0.0000 H   0  0  0  0  0  0  0  0  0  0  0  0
  -29.3733   -3.9691    0.0000 H   0  0  0  0  0  0  0  0  0  0  0  0
  -27.4029   -5.6624    0.0000 H   0  0  0  0  0  0  0  0  0  0  0  0
  -24.9512   -4.8026    0.0000 H   0  0  0  0  0  0  0  0  0  0  0  0
  -22.3618   -2.0914    0.0000 H   0  0  0  0  0  0  0  0  0  0  0  0
  -23.4926   -3.1767    0.0000 H   0  0  0  0  0  0  0  0  0  0  0  0
  -25.0148   -3.4816    0.0000 H   0  0  0  0  0  0  0  0  0  0  0  0
  -26.4764   -2.9155    0.0000 H   0  0  0  0  0  0  0  0  0  0  0  0
  -27.2421   -1.5655    0.0000 H   0  0  0  0  0  0  0  0  0  0  0  0
  -27.1388    0.2992    0.0000 H   0  0  0  0  0  0  0  0  0  0  0  0
  -24.2363    1.6948    0.0000 H   0  0  0  0  0  0  0  0  0  0  0  0
  -28.7851    1.6026    0.0000 H   0  0  0  0  0  0  0  0  0  0  0  0
  1  2  1  0
  2  3  1  0
  3  4  2  0
  4  5  1  0
  5  6  2  0
  6  7  1  0
  7  8  2  0
  7  9  1  0
  9 10  1  0
 10 11  1  0
 11 12  2  0
  9 13  1  0
 13 14  1  0
 14 15  2  0
 15 16  1  0
 16 17  2  0
 17 18  1  0
 16 19  1  0
 14 20  1  0
 20 21  1  0
 21 22  2  0
 22 23  1  0
 23 24  2  0
 24 25  1  0
 25 26  2  0
 25 27  1  0
  1 28  2  0
  1 29  1  0
 29 30  1  0
 30 31  1  0
 31 32  1  0
 32 33  2  0
 32 34  1  0
 34 35  1  0
 35 36  1  0
 36 37  1  0
 37 38  2  0
 38 39  1  0
 39 40  2  0
 40 41  1  0
 40 42  1  0
 42 43  2  0
 35 44  1  0
 44 45  2  0
 44 46  1  0
 46 47  1  0
 47 48  1  0
 48 49  2  0
 48 50  1  0
 50 51  1  0
 51 52  1  0
 52 53  1  0
 53 54  1  0
 54 55  1  0
 55 56  1  0
 56 57  2  3
 56 58  1  0
 51 59  1  0
 59 60  2  0
 59 61  1  0
 61 62  1  0
 62 63  1  0
 63 64  1  0
 64 65  1  0
 65 66  1  0
 66 67  1  0
 62 68  1  0
 68 69  2  0
 68 70  1  0
 70 71  1  0
 71 72  1  0
 72 73  1  0
 73 74  1  0
 74 75  1  0
 75 76  1  0
 71 77  1  0
 77 78  2  0
 77 79  1  0
 79 80  1  0
 80 81  1  0
 81 82  1  0
 82 83  1  0
 83 84  1  0
 84 85  1  0
 85 86  2  3
 85 87  1  0
 80 88  1  0
 88 89  2  0
 88 90  1  0
 90 91  1  0
 91 92  1  0
 92 93  1  0
 93 94  1  0
 94 95  1  0
 95 96  1  0
 96 97  2  3
 96 98  1  0
 91 99  1  0
 99100  2  0
 99101  1  0
101102  1  0
102103  1  0
103104  1  0
104105  1  0
105106  1  0
105107  2  0
102108  1  0
108109  2  0
108110  1  0
110111  1  0
111112  1  0
112113  1  0
113114  1  0
114115  1  0
115116  1  0
116117  2  3
116118  1  0
111119  1  0
119120  2  0
119121  1  0
121122  1  0
122123  1  0
123124  1  0
124125  1  0
125126  1  0
126127  1  0
127128  2  3
127129  1  0
122130  1  0
130131  2  0
130132  1  0
132133  1  0
133134  1  0
134135  1  0
135136  1  0
136137  1  0
137138  1  0
138139  2  3
138140  1  0
133141  1  0
141142  2  0
141143  1  0
143144  1  0
144145  1  0
145146  1  0
146147  1  0
147148  1  0
148149  2  0
148150  1  0
  8  3  1  0
 43 37  1  0
147143  1  0
 11  6  1  0
 18 13  2  0
 22  9  1  0
 26 21  1  0
  2151  1  0
  4152  1  0
  5153  1  0
  8154  1  0
 15155  1  0
 17156  1  0
 18157  1  0
 19158  1  0
 23159  1  0
 24160  1  0
 26161  1  0
 27162  1  0
 29163  1  0
 30164  1  0
 30165  1  0
 31166  1  0
 31167  1  0
 34168  1  0
 35169  1  1
 36170  1  0
 36171  1  0
 38172  1  0
 39173  1  0
 41174  1  0
 42175  1  0
 43176  1  0
 46177  1  0
 47178  1  0
 47179  1  0
 50180  1  0
 51181  1  1
 52182  1  0
 52183  1  0
 53184  1  0
 53185  1  0
 54186  1  0
 54187  1  0
 55188  1  0
 57189  1  0
 58190  1  0
 58191  1  0
 61192  1  0
 62193  1  6
 63194  1  0
 63195  1  0
 64196  1  0
 64197  1  0
 65198  1  0
 65199  1  0
 66200  1  0
 66201  1  0
 67202  1  0
 67203  1  0
 70204  1  0
 71205  1  1
 72206  1  0
 72207  1  0
 73208  1  0
 73209  1  0
 74210  1  0
 74211  1  0
 75212  1  0
 75213  1  0
 76214  1  0
 76215  1  0
 79216  1  0
 80217  1  6
 81218  1  0
 81219  1  0
 82220  1  0
 82221  1  0
 83222  1  0
 83223  1  0
 84224  1  0
 86225  1  0
 87226  1  0
 87227  1  0
 90228  1  0
 91229  1  1
 92230  1  0
 92231  1  0
 93232  1  0
 93233  1  0
 94234  1  0
 94235  1  0
 95236  1  0
 97237  1  0
 98238  1  0
 98239  1  0
101240  1  0
102241  1  6
103242  1  0
103243  1  0
104244  1  0
104245  1  0
106246  1  0
106247  1  0
110248  1  0
111249  1  1
112250  1  0
112251  1  0
113252  1  0
113253  1  0
114254  1  0
114255  1  0
115256  1  0
117257  1  0
118258  1  0
118259  1  0
121260  1  0
122261  1  6
123262  1  0
123263  1  0
124264  1  0
124265  1  0
125266  1  0
125267  1  0
126268  1  0
128269  1  0
129270  1  0
129271  1  0
132272  1  0
133273  1  1
134274  1  0
134275  1  0
135276  1  0
135277  1  0
136278  1  0
136279  1  0
137280  1  0
139281  1  0
140282  1  0
140283  1  0
144284  1  0
144285  1  0
145286  1  0
145287  1  0
146288  1  0
146289  1  0
147290  1  0
150291  1  0
M  END
