
     RDKit          2D

444452  0  0  0  0  0  0  0  0999 V2000
   45.1638   -0.6571    0.0000 C   0  0  0  0  0  0  0  0  0  0  0  0
   46.4643    0.0903    0.0000 N   0  0  0  0  0  0  0  0  0  0  0  0
   47.7619   -0.6622    0.0000 C   0  0  0  0  0  0  0  0  0  0  0  0
   47.7589   -2.1622    0.0000 C   0  0  0  0  0  0  0  0  0  0  0  0
   49.0565   -2.9148    0.0000 C   0  0  0  0  0  0  0  0  0  0  0  0
   50.3570   -2.1674    0.0000 C   0  0  0  0  0  0  0  0  0  0  0  0
   50.3600   -0.6674    0.0000 C   0  0  0  0  0  0  0  0  0  0  0  0
   49.0624    0.0852    0.0000 C   0  0  0  0  0  0  0  0  0  0  0  0
   51.7874   -0.2067    0.0000 C   0  0  0  0  0  0  0  0  0  0  0  0
   52.6667   -1.4219    0.0000 O   0  0  0  0  0  0  0  0  0  0  0  0
   51.7827   -2.6337    0.0000 C   0  0  0  0  0  0  0  0  0  0  0  0
   52.2434   -4.0612    0.0000 O   0  0  0  0  0  0  0  0  0  0  0  0
   53.2553    0.1023    0.0000 C   0  0  0  0  0  0  0  0  0  0  0  0
   53.7216    1.5280    0.0000 C   0  0  0  0  0  0  0  0  0  0  0  0
   55.1895    1.8370    0.0000 C   0  0  0  0  0  0  0  0  0  0  0  0
   56.1910    0.7203    0.0000 C   0  0  0  0  0  0  0  0  0  0  0  0
   55.7246   -0.7054    0.0000 C   0  0  0  0  0  0  0  0  0  0  0  0
   54.2568   -1.0144    0.0000 C   0  0  0  0  0  0  0  0  0  0  0  0
   57.6588    1.0292    0.0000 O   0  0  0  0  0  0  0  0  0  0  0  0
   52.7201    2.6447    0.0000 O   0  0  0  0  0  0  0  0  0  0  0  0
   51.2523    2.3357    0.0000 C   0  0  0  0  0  0  0  0  0  0  0  0
   50.7860    0.9100    0.0000 C   0  0  0  0  0  0  0  0  0  0  0  0
   49.5357    1.2664    0.0000 C   0  0  0  0  0  0  0  0  0  0  0  0
   49.0016    1.8620    0.0000 C   0  0  0  0  0  0  0  0  0  0  0  0
   49.2503    2.6223    0.0000 C   0  0  0  0  0  0  0  0  0  0  0  0
   50.0332    2.7871    0.0000 C   0  0  0  0  0  0  0  0  0  0  0  0
   47.7815    4.2601    0.0000 O   0  0  0  0  0  0  0  0  0  0  0  0
   45.1608   -2.1571    0.0000 S   0  0  0  0  0  0  0  0  0  0  0  0
   43.8663    0.0955    0.0000 N   0  0  0  0  0  0  0  0  0  0  0  0
   42.5657   -0.6520    0.0000 C   0  0  0  0  0  0  0  0  0  0  0  0
   41.2682    0.1006    0.0000 C   0  0  0  0  0  0  0  0  0  0  0  0
   39.9677   -0.6469    0.0000 C   0  0  0  0  0  0  0  0  0  0  0  0
   39.9647   -2.1469    0.0000 O   0  0  0  0  0  0  0  0  0  0  0  0
   38.6701    0.1057    0.0000 N   0  0  0  0  0  0  0  0  0  0  0  0
   37.3696   -0.6417    0.0000 C   0  0  0  0  0  0  0  0  0  0  0  0
   36.4031   -1.7889    0.0000 C   0  0  0  0  0  0  0  0  0  0  0  0
   34.9265   -1.5255    0.0000 C   0  0  0  0  0  0  0  0  0  0  0  0
   33.9600   -2.6727    0.0000 C   0  0  0  0  0  0  0  0  0  0  0  0
   32.4833   -2.4093    0.0000 C   0  0  0  0  0  0  0  0  0  0  0  0
   31.5169   -3.5564    0.0000 N   0  0  0  0  0  0  0  0  0  0  0  0
   36.0720    0.1108    0.0000 C   0  0  0  0  0  0  0  0  0  0  0  0
   36.0750    1.6108    0.0000 O   0  0  0  0  0  0  0  0  0  0  0  0
   34.7715   -0.6366    0.0000 N   0  0  0  0  0  0  0  0  0  0  0  0
   33.4740    0.1160    0.0000 C   0  0  0  0  0  0  0  0  0  0  0  0
   32.5121    1.2669    0.0000 C   0  0  0  0  0  0  0  0  0  0  0  0
   32.1735   -0.6315    0.0000 C   0  0  0  0  0  0  0  0  0  0  0  0
   31.8771   -1.8098    0.0000 O   0  0  0  0  0  0  0  0  0  0  0  0
   30.8759    0.1211    0.0000 N   0  0  0  0  0  0  0  0  0  0  0  0
   29.5754   -0.6263    0.0000 C   0  0  0  0  0  0  0  0  0  0  0  0
   28.6089   -1.7735    0.0000 C   0  0  0  0  0  0  0  0  0  0  0  0
   28.0931   -3.1820    0.0000 O   0  0  0  0  0  0  0  0  0  0  0  0
   27.1111   -1.6921    0.0000 C   0  0  0  0  0  0  0  0  0  0  0  0
   28.2778    0.1262    0.0000 C   0  0  0  0  0  0  0  0  0  0  0  0
   28.2808    1.6262    0.0000 O   0  0  0  0  0  0  0  0  0  0  0  0
   26.9773   -0.6212    0.0000 N   0  0  0  0  0  0  0  0  0  0  0  0
   25.6798    0.1313    0.0000 C   0  0  0  0  0  0  0  0  0  0  0  0
   24.7178    1.2823    0.0000 C   0  0  0  0  0  0  0  0  0  0  0  0
   25.2337    2.6908    0.0000 C   0  0  0  0  0  0  0  0  0  0  0  0
   24.2717    3.8418    0.0000 C   0  0  0  0  0  0  0  0  0  0  0  0
   24.7876    5.2503    0.0000 O   0  0  0  0  0  0  0  0  0  0  0  0
   22.7940    3.5842    0.0000 O   0  0  0  0  0  0  0  0  0  0  0  0
   24.3792   -0.6161    0.0000 C   0  0  0  0  0  0  0  0  0  0  0  0
   24.3763   -2.1161    0.0000 O   0  0  0  0  0  0  0  0  0  0  0  0
   23.0817    0.1365    0.0000 N   0  0  0  0  0  0  0  0  0  0  0  0
   21.7812   -0.6110    0.0000 C   0  0  0  0  0  0  0  0  0  0  0  0
   20.8147   -1.7581    0.0000 C   0  0  0  0  0  0  0  0  0  0  0  0
   19.3380   -1.4947    0.0000 C   0  0  0  0  0  0  0  0  0  0  0  0
   18.8278   -0.0842    0.0000 C   0  0  0  0  0  0  0  0  0  0  0  0
   17.3511    0.1792    0.0000 C   0  0  0  0  0  0  0  0  0  0  0  0
   16.3846   -0.9680    0.0000 C   0  0  0  0  0  0  0  0  0  0  0  0
   14.9079   -0.7046    0.0000 O   0  0  0  0  0  0  0  0  0  0  0  0
   16.8949   -2.3785    0.0000 C   0  0  0  0  0  0  0  0  0  0  0  0
   18.3716   -2.6419    0.0000 C   0  0  0  0  0  0  0  0  0  0  0  0
   20.4836    0.1416    0.0000 C   0  0  0  0  0  0  0  0  0  0  0  0
   20.6694    1.6301    0.0000 O   0  0  0  0  0  0  0  0  0  0  0  0
   19.1831   -0.6058    0.0000 N   0  0  0  0  0  0  0  0  0  0  0  0
   17.8855    0.1467    0.0000 C   0  0  0  0  0  0  0  0  0  0  0  0
   16.9236    1.2977    0.0000 C   0  0  0  0  0  0  0  0  0  0  0  0
   17.6073    2.6328    0.0000 C   0  0  0  0  0  0  0  0  0  0  0  0
   15.6261    2.0503    0.0000 C   0  0  0  0  0  0  0  0  0  0  0  0
   15.6290    3.5503    0.0000 C   0  0  0  0  0  0  0  0  0  0  0  0
   16.5850   -0.6007    0.0000 C   0  0  0  0  0  0  0  0  0  0  0  0
   16.2192   -2.0554    0.0000 O   0  0  0  0  0  0  0  0  0  0  0  0
   15.2875    0.1519    0.0000 N   0  0  0  0  0  0  0  0  0  0  0  0
   13.9870   -0.5956    0.0000 C   0  0  0  0  0  0  0  0  0  0  0  0
   13.0205   -1.7427    0.0000 C   0  0  0  0  0  0  0  0  0  0  0  0
   11.5438   -1.4794    0.0000 C   0  0  0  0  0  0  0  0  0  0  0  0
   10.5774   -2.6265    0.0000 C   0  0  0  0  0  0  0  0  0  0  0  0
    9.0796   -2.5451    0.0000 N   0  0  0  0  0  0  0  0  0  0  0  0
   11.0876   -4.0371    0.0000 O   0  0  0  0  0  0  0  0  0  0  0  0
   12.6894    0.1570    0.0000 C   0  0  0  0  0  0  0  0  0  0  0  0
   12.8752    1.6454    0.0000 O   0  0  0  0  0  0  0  0  0  0  0  0
   11.3889   -0.5904    0.0000 N   0  0  0  0  0  0  0  0  0  0  0  0
   10.0913    0.1621    0.0000 C   0  0  0  0  0  0  0  0  0  0  0  0
    9.1294    1.3131    0.0000 C   0  0  0  0  0  0  0  0  0  0  0  0
    9.6452    2.7216    0.0000 C   0  0  0  0  0  0  0  0  0  0  0  0
   11.1230    2.9792    0.0000 C   0  0  0  0  0  0  0  0  0  0  0  0
   11.6388    4.3877    0.0000 C   0  0  0  0  0  0  0  0  0  0  0  0
   10.6769    5.5387    0.0000 C   0  0  0  0  0  0  0  0  0  0  0  0
   11.1927    6.9472    0.0000 O   0  0  0  0  0  0  0  0  0  0  0  0
    9.1991    5.2811    0.0000 C   0  0  0  0  0  0  0  0  0  0  0  0
    8.6833    3.8726    0.0000 C   0  0  0  0  0  0  0  0  0  0  0  0
    8.7908   -0.5853    0.0000 C   0  0  0  0  0  0  0  0  0  0  0  0
    8.6050   -2.0738    0.0000 O   0  0  0  0  0  0  0  0  0  0  0  0
    7.4933    0.1672    0.0000 N   0  0  0  0  0  0  0  0  0  0  0  0
    6.1927   -0.5802    0.0000 C   0  0  0  0  0  0  0  0  0  0  0  0
    5.2263   -1.7274    0.0000 C   0  0  0  0  0  0  0  0  0  0  0  0
    3.7496   -1.4640    0.0000 C   0  0  0  0  0  0  0  0  0  0  0  0
    2.7832   -2.6111    0.0000 N   0  0  0  0  0  0  0  0  0  0  0  0
    2.9132   -0.2188    0.0000 O   0  0  0  0  0  0  0  0  0  0  0  0
    4.8952    0.1724    0.0000 C   0  0  0  0  0  0  0  0  0  0  0  0
    4.8981    1.6724    0.0000 O   0  0  0  0  0  0  0  0  0  0  0  0
    3.5947   -0.5751    0.0000 N   0  0  0  0  0  0  0  0  0  0  0  0
    2.2971    0.1775    0.0000 C   0  0  0  0  0  0  0  0  0  0  0  0
    1.3352    1.3285    0.0000 C   0  0  0  0  0  0  0  0  0  0  0  0
   -0.1425    1.0709    0.0000 C   0  0  0  0  0  0  0  0  0  0  0  0
   -1.1044    2.2219    0.0000 C   0  0  0  0  0  0  0  0  0  0  0  0
   -2.5822    1.9643    0.0000 N   0  0  0  0  0  0  0  0  0  0  0  0
   -3.5441    3.1153    0.0000 C   0  0  0  0  0  0  0  0  0  0  0  0
   -4.9794    2.6795    0.0000 N   0  0  0  0  0  0  0  0  0  0  0  0
   -3.0283    4.5238    0.0000 N   0  0  0  0  0  0  0  0  0  0  0  0
    0.9966   -0.5699    0.0000 C   0  0  0  0  0  0  0  0  0  0  0  0
    0.8108   -2.0584    0.0000 O   0  0  0  0  0  0  0  0  0  0  0  0
   -0.3010    0.1826    0.0000 N   0  0  0  0  0  0  0  0  0  0  0  0
   -1.6015   -0.5648    0.0000 C   0  0  0  0  0  0  0  0  0  0  0  0
   -2.5679   -1.7120    0.0000 C   0  0  0  0  0  0  0  0  0  0  0  0
   -4.0446   -1.4486    0.0000 C   0  0  0  0  0  0  0  0  0  0  0  0
   -5.0111   -2.5957    0.0000 C   0  0  0  0  0  0  0  0  0  0  0  0
   -6.4878   -2.3324    0.0000 N   0  0  0  0  0  0  0  0  0  0  0  0
   -7.4542   -3.4795    0.0000 C   0  0  0  0  0  0  0  0  0  0  0  0
   -8.8878   -3.0381    0.0000 N   0  0  0  0  0  0  0  0  0  0  0  0
   -6.9440   -4.8901    0.0000 N   0  0  0  0  0  0  0  0  0  0  0  0
   -2.8990    0.1878    0.0000 C   0  0  0  0  0  0  0  0  0  0  0  0
   -3.2591    1.6439    0.0000 O   0  0  0  0  0  0  0  0  0  0  0  0
   -4.1995   -0.5597    0.0000 N   0  0  0  0  0  0  0  0  0  0  0  0
   -5.4971    0.1929    0.0000 C   0  0  0  0  0  0  0  0  0  0  0  0
   -6.4590    1.3438    0.0000 C   0  0  0  0  0  0  0  0  0  0  0  0
   -7.9367    1.0863    0.0000 C   0  0  0  0  0  0  0  0  0  0  0  0
   -8.8986    2.2373    0.0000 C   0  0  0  0  0  0  0  0  0  0  0  0
  -10.3764    1.9797    0.0000 C   0  0  0  0  0  0  0  0  0  0  0  0
  -11.3383    3.1307    0.0000 N   0  0  0  0  0  0  0  0  0  0  0  0
   -6.7976   -0.5546    0.0000 C   0  0  0  0  0  0  0  0  0  0  0  0
   -7.1634   -2.0093    0.0000 O   0  0  0  0  0  0  0  0  0  0  0  0
   -8.0952    0.1980    0.0000 N   0  0  0  0  0  0  0  0  0  0  0  0
   -9.3957   -0.5494    0.0000 C   0  0  0  0  0  0  0  0  0  0  0  0
  -10.3621   -1.6966    0.0000 C   0  0  0  0  0  0  0  0  0  0  0  0
  -11.8388   -1.4332    0.0000 C   0  0  0  0  0  0  0  0  0  0  0  0
  -12.8053   -2.5804    0.0000 N   0  0  0  0  0  0  0  0  0  0  0  0
  -12.6752   -0.1880    0.0000 O   0  0  0  0  0  0  0  0  0  0  0  0
  -10.6932    0.2031    0.0000 C   0  0  0  0  0  0  0  0  0  0  0  0
  -11.0533    1.6593    0.0000 O   0  0  0  0  0  0  0  0  0  0  0  0
  -11.9938   -0.5443    0.0000 N   0  0  0  0  0  0  0  0  0  0  0  0
  -13.2913    0.2083    0.0000 C   0  0  0  0  0  0  0  0  0  0  0  0
  -14.2532    1.3592    0.0000 C   0  0  0  0  0  0  0  0  0  0  0  0
  -15.7309    1.1017    0.0000 C   0  0  0  0  0  0  0  0  0  0  0  0
  -16.3912   -0.2452    0.0000 C   0  0  0  0  0  0  0  0  0  0  0  0
  -17.8761   -0.0335    0.0000 N   0  0  0  0  0  0  0  0  0  0  0  0
  -18.1337    1.4442    0.0000 C   0  0  0  0  0  0  0  0  0  0  0  0
  -16.8079    2.1458    0.0000 N   0  0  0  0  0  0  0  0  0  0  0  0
  -14.5918   -0.5392    0.0000 C   0  0  0  0  0  0  0  0  0  0  0  0
  -14.7776   -2.0276    0.0000 O   0  0  0  0  0  0  0  0  0  0  0  0
  -15.8894    0.2134    0.0000 N   0  0  0  0  0  0  0  0  0  0  0  0
  -17.1899   -0.5340    0.0000 C   0  0  0  0  0  0  0  0  0  0  0  0
  -18.1563   -1.6812    0.0000 C   0  0  0  0  0  0  0  0  0  0  0  0
  -18.6722   -3.0897    0.0000 O   0  0  0  0  0  0  0  0  0  0  0  0
  -19.6529   -1.7830    0.0000 C   0  0  0  0  0  0  0  0  0  0  0  0
  -18.4875    0.2185    0.0000 C   0  0  0  0  0  0  0  0  0  0  0  0
  -18.8475    1.6747    0.0000 O   0  0  0  0  0  0  0  0  0  0  0  0
  -19.7880   -0.5289    0.0000 N   0  0  0  0  0  0  0  0  0  0  0  0
  -21.0855    0.2236    0.0000 C   0  0  0  0  0  0  0  0  0  0  0  0
  -22.0474    1.3746    0.0000 C   0  0  0  0  0  0  0  0  0  0  0  0
  -23.5252    1.1171    0.0000 C   0  0  0  0  0  0  0  0  0  0  0  0
  -24.1854   -0.2298    0.0000 C   0  0  0  0  0  0  0  0  0  0  0  0
  -25.6704   -0.0181    0.0000 N   0  0  0  0  0  0  0  0  0  0  0  0
  -25.9279    1.4596    0.0000 C   0  0  0  0  0  0  0  0  0  0  0  0
  -24.6021    2.1612    0.0000 N   0  0  0  0  0  0  0  0  0  0  0  0
  -22.3860   -0.5238    0.0000 C   0  0  0  0  0  0  0  0  0  0  0  0
  -22.3890   -2.0238    0.0000 O   0  0  0  0  0  0  0  0  0  0  0  0
  -23.6836    0.2288    0.0000 N   0  0  0  0  0  0  0  0  0  0  0  0
  -24.9841   -0.5187    0.0000 C   0  0  0  0  0  0  0  0  0  0  0  0
  -25.9506   -1.6658    0.0000 C   0  0  0  0  0  0  0  0  0  0  0  0
  -27.4273   -1.4024    0.0000 C   0  0  0  0  0  0  0  0  0  0  0  0
  -28.3937   -2.5496    0.0000 C   0  0  0  0  0  0  0  0  0  0  0  0
  -29.8915   -2.4682    0.0000 N   0  0  0  0  0  0  0  0  0  0  0  0
  -27.8835   -3.9601    0.0000 O   0  0  0  0  0  0  0  0  0  0  0  0
  -26.2817    0.2339    0.0000 C   0  0  0  0  0  0  0  0  0  0  0  0
  -26.6418    1.6900    0.0000 O   0  0  0  0  0  0  0  0  0  0  0  0
  -27.5822   -0.5135    0.0000 N   0  0  0  0  0  0  0  0  0  0  0  0
  -28.8797    0.2390    0.0000 C   0  0  0  0  0  0  0  0  0  0  0  0
  -29.8416    1.3900    0.0000 C   0  0  0  0  0  0  0  0  0  0  0  0
  -31.3194    1.1324    0.0000 C   0  0  0  0  0  0  0  0  0  0  0  0
  -32.2813    2.2834    0.0000 C   0  0  0  0  0  0  0  0  0  0  0  0
  -33.7794    2.2079    0.0000 N   0  0  0  0  0  0  0  0  0  0  0  0
  -31.7655    3.6919    0.0000 O   0  0  0  0  0  0  0  0  0  0  0  0
  -30.1803   -0.5084    0.0000 C   0  0  0  0  0  0  0  0  0  0  0  0
  -30.3660   -1.9969    0.0000 O   0  0  0  0  0  0  0  0  0  0  0  0
  -31.4778    0.2442    0.0000 N   0  0  0  0  0  0  0  0  0  0  0  0
  -32.7783   -0.5033    0.0000 C   0  0  0  0  0  0  0  0  0  0  0  0
  -33.7448   -1.6504    0.0000 C   0  0  0  0  0  0  0  0  0  0  0  0
  -35.2215   -1.3871    0.0000 C   0  0  0  0  0  0  0  0  0  0  0  0
  -36.1879   -2.5342    0.0000 O   0  0  0  0  0  0  0  0  0  0  0  0
  -36.0579   -0.1419    0.0000 O   0  0  0  0  0  0  0  0  0  0  0  0
  -34.0759    0.2493    0.0000 C   0  0  0  0  0  0  0  0  0  0  0  0
  -34.2558    1.7385    0.0000 O   0  0  0  0  0  0  0  0  0  0  0  0
  -35.3764   -0.4981    0.0000 N   0  0  0  0  0  0  0  0  0  0  0  0
  -36.6740    0.2544    0.0000 C   0  0  0  0  0  0  0  0  0  0  0  0
  -37.6359    1.4054    0.0000 C   0  0  0  0  0  0  0  0  0  0  0  0
  -39.1340    1.3299    0.0000 C   0  0  0  0  0  0  0  0  0  0  0  0
  -38.1461    2.8159    0.0000 C   0  0  0  0  0  0  0  0  0  0  0  0
  -37.1797    3.9631    0.0000 C   0  0  0  0  0  0  0  0  0  0  0  0
  -37.9745   -0.4930    0.0000 C   0  0  0  0  0  0  0  0  0  0  0  0
  -37.9774   -1.9930    0.0000 O   0  0  0  0  0  0  0  0  0  0  0  0
  -39.2720    0.2595    0.0000 N   0  0  0  0  0  0  0  0  0  0  0  0
  -40.5725   -0.4879    0.0000 C   0  0  0  0  0  0  0  0  0  0  0  0
  -41.5390   -1.6351    0.0000 C   0  0  0  0  0  0  0  0  0  0  0  0
  -43.0157   -1.3717    0.0000 C   0  0  0  0  0  0  0  0  0  0  0  0
  -43.9821   -2.5188    0.0000 O   0  0  0  0  0  0  0  0  0  0  0  0
  -43.8521   -0.1265    0.0000 O   0  0  0  0  0  0  0  0  0  0  0  0
  -41.8701    0.2647    0.0000 C   0  0  0  0  0  0  0  0  0  0  0  0
  -41.8671    1.7647    0.0000 O   0  0  0  0  0  0  0  0  0  0  0  0
  -43.1706   -0.4828    0.0000 N   0  0  0  0  0  0  0  0  0  0  0  0
  -44.4682    0.2698    0.0000 C   0  0  0  0  0  0  0  0  0  0  0  0
  -45.4301    1.4208    0.0000 C   0  0  0  0  0  0  0  0  0  0  0  0
  -46.9078    1.1632    0.0000 C   0  0  0  0  0  0  0  0  0  0  0  0
  -47.8697    2.3142    0.0000 O   0  0  0  0  0  0  0  0  0  0  0  0
  -47.7491   -0.0786    0.0000 O   0  0  0  0  0  0  0  0  0  0  0  0
  -45.7687   -0.4776    0.0000 C   0  0  0  0  0  0  0  0  0  0  0  0
  -45.7716   -1.9776    0.0000 O   0  0  0  0  0  0  0  0  0  0  0  0
  -47.0662    0.2749    0.0000 N   0  0  0  0  0  0  0  0  0  0  0  0
  -48.3668   -0.4725    0.0000 C   0  0  0  0  0  0  0  0  0  0  0  0
  -49.3332   -1.6197    0.0000 C   0  0  0  0  0  0  0  0  0  0  0  0
  -50.8099   -1.3563    0.0000 C   0  0  0  0  0  0  0  0  0  0  0  0
  -51.7763   -2.5034    0.0000 C   0  0  0  0  0  0  0  0  0  0  0  0
  -52.1074   -0.6037    0.0000 C   0  0  0  0  0  0  0  0  0  0  0  0
  -49.6643    0.2801    0.0000 C   0  0  0  0  0  0  0  0  0  0  0  0
  -51.0462   -0.3033    0.0000 O   0  0  0  0  0  0  0  0  0  0  0  0
  -49.6613    1.7800    0.0000 O   0  0  0  0  0  0  0  0  0  0  0  0
   46.2844    1.5795    0.0000 H   0  0  0  0  0  0  0  0  0  0  0  0
   46.4584   -2.9097    0.0000 H   0  0  0  0  0  0  0  0  0  0  0  0
   49.0535   -4.4148    0.0000 H   0  0  0  0  0  0  0  0  0  0  0  0
   48.7023    1.5413    0.0000 H   0  0  0  0  0  0  0  0  0  0  0  0
   55.6558    3.2626    0.0000 H   0  0  0  0  0  0  0  0  0  0  0  0
   56.7261   -1.8221    0.0000 H   0  0  0  0  0  0  0  0  0  0  0  0
   53.7904   -2.4400    0.0000 H   0  0  0  0  0  0  0  0  0  0  0  0
   58.6603   -0.0875    0.0000 H   0  0  0  0  0  0  0  0  0  0  0  0
   48.8518   -0.8246    0.0000 H   0  0  0  0  0  0  0  0  0  0  0  0
   46.8221    1.5900    0.0000 H   0  0  0  0  0  0  0  0  0  0  0  0
   50.7171    4.8781    0.0000 H   0  0  0  0  0  0  0  0  0  0  0  0
   48.2478    5.6858    0.0000 H   0  0  0  0  0  0  0  0  0  0  0  0
   43.8692    1.5954    0.0000 H   0  0  0  0  0  0  0  0  0  0  0  0
   41.5993   -1.7991    0.0000 H   0  0  0  0  0  0  0  0  0  0  0  0
   43.5276   -1.8029    0.0000 H   0  0  0  0  0  0  0  0  0  0  0  0
   40.3063    1.2515    0.0000 H   0  0  0  0  0  0  0  0  0  0  0  0
   42.2346    1.2477    0.0000 H   0  0  0  0  0  0  0  0  0  0  0  0
   38.6731    1.6057    0.0000 H   0  0  0  0  0  0  0  0  0  0  0  0
   38.3315   -1.7927    0.0000 H   0  0  0  0  0  0  0  0  0  0  0  0
   36.0629   -3.2498    0.0000 H   0  0  0  0  0  0  0  0  0  0  0  0
   37.7007   -2.5415    0.0000 H   0  0  0  0  0  0  0  0  0  0  0  0
   33.7303   -0.6204    0.0000 H   0  0  0  0  0  0  0  0  0  0  0  0
   34.7205   -0.0397    0.0000 H   0  0  0  0  0  0  0  0  0  0  0  0
   33.6197   -4.1336    0.0000 H   0  0  0  0  0  0  0  0  0  0  0  0
   35.1562   -3.5778    0.0000 H   0  0  0  0  0  0  0  0  0  0  0  0
   31.1037   -1.8205    0.0000 H   0  0  0  0  0  0  0  0  0  0  0  0
   32.8236   -0.9484    0.0000 H   0  0  0  0  0  0  0  0  0  0  0  0
   30.0833   -3.1150    0.0000 H   0  0  0  0  0  0  0  0  0  0  0  0
   31.0011   -4.9650    0.0000 H   0  0  0  0  0  0  0  0  0  0  0  0
   32.7130   -4.4616    0.0000 H   0  0  0  0  0  0  0  0  0  0  0  0
   34.4057   -2.0913    0.0000 H   0  0  0  0  0  0  0  0  0  0  0  0
   34.4404    1.2631    0.0000 H   0  0  0  0  0  0  0  0  0  0  0  0
   33.0279    2.6755    0.0000 H   0  0  0  0  0  0  0  0  0  0  0  0
   31.3159    2.1720    0.0000 H   0  0  0  0  0  0  0  0  0  0  0  0
   31.2967    0.3877    0.0000 H   0  0  0  0  0  0  0  0  0  0  0  0
   30.6960    1.6103    0.0000 H   0  0  0  0  0  0  0  0  0  0  0  0
   30.3898   -1.8860    0.0000 H   0  0  0  0  0  0  0  0  0  0  0  0
   29.9885   -2.3623    0.0000 H   0  0  0  0  0  0  0  0  0  0  0  0
   26.6578   -3.6178    0.0000 H   0  0  0  0  0  0  0  0  0  0  0  0
   26.0332   -2.5309    0.0000 H   0  0  0  0  0  0  0  0  0  0  0  0
   25.8347   -0.7576    0.0000 H   0  0  0  0  0  0  0  0  0  0  0  0
   26.9263   -0.0243    0.0000 H   0  0  0  0  0  0  0  0  0  0  0  0
   26.7915   -2.1097    0.0000 H   0  0  0  0  0  0  0  0  0  0  0  0
   26.7788    1.1521    0.0000 H   0  0  0  0  0  0  0  0  0  0  0  0
   23.5217    2.1874    0.0000 H   0  0  0  0  0  0  0  0  0  0  0  0
   23.5025    0.4031    0.0000 H   0  0  0  0  0  0  0  0  0  0  0  0
   26.2001    3.8380    0.0000 H   0  0  0  0  0  0  0  0  0  0  0  0
   26.6133    2.1021    0.0000 H   0  0  0  0  0  0  0  0  0  0  0  0
   22.9018    1.6256    0.0000 H   0  0  0  0  0  0  0  0  0  0  0  0
   22.7431   -1.7619    0.0000 H   0  0  0  0  0  0  0  0  0  0  0  0
   20.2989   -3.1666    0.0000 H   0  0  0  0  0  0  0  0  0  0  0  0
   22.1123   -2.5107    0.0000 H   0  0  0  0  0  0  0  0  0  0  0  0
   19.6472    1.1722    0.0000 H   0  0  0  0  0  0  0  0  0  0  0  0
   16.5147    1.4244    0.0000 H   0  0  0  0  0  0  0  0  0  0  0  0
   14.0885   -1.9610    0.0000 H   0  0  0  0  0  0  0  0  0  0  0  0
   15.9284   -3.5257    0.0000 H   0  0  0  0  0  0  0  0  0  0  0  0
   18.8818   -4.0524    0.0000 H   0  0  0  0  0  0  0  0  0  0  0  0
   18.8173   -2.0605    0.0000 H   0  0  0  0  0  0  0  0  0  0  0  0
   18.9846    1.1675    0.0000 H   0  0  0  0  0  0  0  0  0  0  0  0
   15.7083    0.4185    0.0000 H   0  0  0  0  0  0  0  0  0  0  0  0
   16.6352    3.9858    0.0000 H   0  0  0  0  0  0  0  0  0  0  0  0
   18.4059    3.8534    0.0000 H   0  0  0  0  0  0  0  0  0  0  0  0
   18.8191    2.1174    0.0000 H   0  0  0  0  0  0  0  0  0  0  0  0
   14.1494    2.3136    0.0000 H   0  0  0  0  0  0  0  0  0  0  0  0
   14.7848    0.8084    0.0000 H   0  0  0  0  0  0  0  0  0  0  0  0
   14.3315    4.3028    0.0000 H   0  0  0  0  0  0  0  0  0  0  0  0
   16.1448    4.9588    0.0000 H   0  0  0  0  0  0  0  0  0  0  0  0
   17.1256    3.6520    0.0000 H   0  0  0  0  0  0  0  0  0  0  0  0
   14.9274    1.6080    0.0000 H   0  0  0  0  0  0  0  0  0  0  0  0
   14.9489   -1.7465    0.0000 H   0  0  0  0  0  0  0  0  0  0  0  0
   12.5047   -3.1513    0.0000 H   0  0  0  0  0  0  0  0  0  0  0  0
   14.2167   -2.6479    0.0000 H   0  0  0  0  0  0  0  0  0  0  0  0
   10.2463   -0.7268    0.0000 H   0  0  0  0  0  0  0  0  0  0  0  0
   11.3378    0.0064    0.0000 H   0  0  0  0  0  0  0  0  0  0  0  0
    8.1342   -3.5103    0.0000 H   0  0  0  0  0  0  0  0  0  0  0  0
    8.2196   -1.1183    0.0000 H   0  0  0  0  0  0  0  0  0  0  0  0
   11.0231   -2.0452    0.0000 H   0  0  0  0  0  0  0  0  0  0  0  0
   11.0578    1.3093    0.0000 H   0  0  0  0  0  0  0  0  0  0  0  0
    7.9333    2.2182    0.0000 H   0  0  0  0  0  0  0  0  0  0  0  0
    7.9141    0.4339    0.0000 H   0  0  0  0  0  0  0  0  0  0  0  0
   12.2180    1.9540    0.0000 H   0  0  0  0  0  0  0  0  0  0  0  0
   13.1165    4.6452    0.0000 H   0  0  0  0  0  0  0  0  0  0  0  0
   10.2308    8.0981    0.0000 H   0  0  0  0  0  0  0  0  0  0  0  0
    8.2372    6.4321    0.0000 H   0  0  0  0  0  0  0  0  0  0  0  0
    7.2056    3.6150    0.0000 H   0  0  0  0  0  0  0  0  0  0  0  0
    7.3134    1.6564    0.0000 H   0  0  0  0  0  0  0  0  0  0  0  0
    7.1547   -1.7312    0.0000 H   0  0  0  0  0  0  0  0  0  0  0  0
    4.7105   -3.1359    0.0000 H   0  0  0  0  0  0  0  0  0  0  0  0
    6.5238   -2.4799    0.0000 H   0  0  0  0  0  0  0  0  0  0  0  0
    1.2854   -2.5297    0.0000 H   0  0  0  0  0  0  0  0  0  0  0  0
    3.2934   -4.0217    0.0000 H   0  0  0  0  0  0  0  0  0  0  0  0
    3.2288   -2.0298    0.0000 H   0  0  0  0  0  0  0  0  0  0  0  0
    3.2636    1.3247    0.0000 H   0  0  0  0  0  0  0  0  0  0  0  0
    1.0007    2.7907    0.0000 H   0  0  0  0  0  0  0  0  0  0  0  0
    2.6357    2.0759    0.0000 H   0  0  0  0  0  0  0  0  0  0  0  0
   -1.4430    0.3235    0.0000 H   0  0  0  0  0  0  0  0  0  0  0  0
   -0.3544   -0.4141    0.0000 H   0  0  0  0  0  0  0  0  0  0  0  0
   -1.6147    3.6324    0.0000 H   0  0  0  0  0  0  0  0  0  0  0  0
    0.0953    3.1223    0.0000 H   0  0  0  0  0  0  0  0  0  0  0  0
   -3.5686    0.8343    0.0000 H   0  0  0  0  0  0  0  0  0  0  0  0
   -5.9837    4.0087    0.0000 H   0  0  0  0  0  0  0  0  0  0  0  0
   -5.3835    1.3903    0.0000 H   0  0  0  0  0  0  0  0  0  0  0  0
   -3.9902    5.6748    0.0000 H   0  0  0  0  0  0  0  0  0  0  0  0
   -1.5505    4.7814    0.0000 H   0  0  0  0  0  0  0  0  0  0  0  0
   -0.6610    1.6388    0.0000 H   0  0  0  0  0  0  0  0  0  0  0  0
   -0.6396   -1.7158    0.0000 H   0  0  0  0  0  0  0  0  0  0  0  0
   -2.9082   -3.1729    0.0000 H   0  0  0  0  0  0  0  0  0  0  0  0
   -1.2704   -2.4645    0.0000 H   0  0  0  0  0  0  0  0  0  0  0  0
   -5.3422   -0.6960    0.0000 H   0  0  0  0  0  0  0  0  0  0  0  0
   -4.4302    0.0010    0.0000 H   0  0  0  0  0  0  0  0  0  0  0  0
   -5.5269   -4.0043    0.0000 H   0  0  0  0  0  0  0  0  0  0  0  0
   -3.8149   -3.5009    0.0000 H   0  0  0  0  0  0  0  0  0  0  0  0
   -7.4697   -1.1984    0.0000 H   0  0  0  0  0  0  0  0  0  0  0  0
   -9.8973   -4.3633    0.0000 H   0  0  0  0  0  0  0  0  0  0  0  0
   -9.2868   -1.7473    0.0000 H   0  0  0  0  0  0  0  0  0  0  0  0
   -7.9104   -6.0372    0.0000 H   0  0  0  0  0  0  0  0  0  0  0  0
   -5.4673   -5.1535    0.0000 H   0  0  0  0  0  0  0  0  0  0  0  0
   -4.5654   -2.0144    0.0000 H   0  0  0  0  0  0  0  0  0  0  0  0
   -4.5307    1.3400    0.0000 H   0  0  0  0  0  0  0  0  0  0  0  0
   -6.7935    2.8061    0.0000 H   0  0  0  0  0  0  0  0  0  0  0  0
   -5.0163    1.7544    0.0000 H   0  0  0  0  0  0  0  0  0  0  0  0
   -9.1364    0.1859    0.0000 H   0  0  0  0  0  0  0  0  0  0  0  0
   -8.3280   -0.3618    0.0000 H   0  0  0  0  0  0  0  0  0  0  0  0
   -9.2331    3.6995    0.0000 H   0  0  0  0  0  0  0  0  0  0  0  0
   -7.6989    3.1376    0.0000 H   0  0  0  0  0  0  0  0  0  0  0  0
  -11.7583    1.3964    0.0000 H   0  0  0  0  0  0  0  0  0  0  0  0
  -10.0419    0.5175    0.0000 H   0  0  0  0  0  0  0  0  0  0  0  0
  -12.7736    2.6949    0.0000 H   0  0  0  0  0  0  0  0  0  0  0  0
  -11.8485    4.5412    0.0000 H   0  0  0  0  0  0  0  0  0  0  0  0
  -10.1386    4.0311    0.0000 H   0  0  0  0  0  0  0  0  0  0  0  0
   -8.4553    1.6541    0.0000 H   0  0  0  0  0  0  0  0  0  0  0  0
   -8.4338   -1.7004    0.0000 H   0  0  0  0  0  0  0  0  0  0  0  0
  -10.8779   -3.1051    0.0000 H   0  0  0  0  0  0  0  0  0  0  0  0
   -8.9210   -2.1128    0.0000 H   0  0  0  0  0  0  0  0  0  0  0  0
  -14.3031   -2.4989    0.0000 H   0  0  0  0  0  0  0  0  0  0  0  0
  -12.2950   -3.9909    0.0000 H   0  0  0  0  0  0  0  0  0  0  0  0
  -12.3596   -1.9990    0.0000 H   0  0  0  0  0  0  0  0  0  0  0  0
  -12.4719    1.4647    0.0000 H   0  0  0  0  0  0  0  0  0  0  0  0
  -14.7635    2.7698    0.0000 H   0  0  0  0  0  0  0  0  0  0  0  0
  -12.8713    1.9426    0.0000 H   0  0  0  0  0  0  0  0  0  0  0  0
  -15.5332   -1.4756    0.0000 H   0  0  0  0  0  0  0  0  0  0  0  0
  -19.0438   -0.9752    0.0000 H   0  0  0  0  0  0  0  0  0  0  0  0
  -19.4806    2.1044    0.0000 H   0  0  0  0  0  0  0  0  0  0  0  0
  -16.2495    1.6695    0.0000 H   0  0  0  0  0  0  0  0  0  0  0  0
  -16.3755   -1.7937    0.0000 H   0  0  0  0  0  0  0  0  0  0  0  0
  -16.8588   -2.4338    0.0000 H   0  0  0  0  0  0  0  0  0  0  0  0
  -17.7102   -4.2407    0.0000 H   0  0  0  0  0  0  0  0  0  0  0  0
  -20.5995   -2.5650    0.0000 H   0  0  0  0  0  0  0  0  0  0  0  0
  -20.9306   -0.6653    0.0000 H   0  0  0  0  0  0  0  0  0  0  0  0
  -19.9269    0.0566    0.0000 H   0  0  0  0  0  0  0  0  0  0  0  0
  -19.9738   -2.0174    0.0000 H   0  0  0  0  0  0  0  0  0  0  0  0
  -20.1191    1.3708    0.0000 H   0  0  0  0  0  0  0  0  0  0  0  0
  -22.5577    2.7852    0.0000 H   0  0  0  0  0  0  0  0  0  0  0  0
  -20.7469    2.1220    0.0000 H   0  0  0  0  0  0  0  0  0  0  0  0
  -23.3274   -1.4602    0.0000 H   0  0  0  0  0  0  0  0  0  0  0  0
  -26.9440   -0.8104    0.0000 H   0  0  0  0  0  0  0  0  0  0  0  0
  -27.2748    2.1198    0.0000 H   0  0  0  0  0  0  0  0  0  0  0  0
  -24.0437    1.6849    0.0000 H   0  0  0  0  0  0  0  0  0  0  0  0
  -24.1697   -1.7783    0.0000 H   0  0  0  0  0  0  0  0  0  0  0  0
  -26.4664   -3.0743    0.0000 H   0  0  0  0  0  0  0  0  0  0  0  0
  -24.6530   -2.4184    0.0000 H   0  0  0  0  0  0  0  0  0  0  0  0
  -28.7248   -0.6499    0.0000 H   0  0  0  0  0  0  0  0  0  0  0  0
  -27.6332    0.0834    0.0000 H   0  0  0  0  0  0  0  0  0  0  0  0
  -30.8368   -3.4334    0.0000 H   0  0  0  0  0  0  0  0  0  0  0  0
  -30.9190   -1.1568    0.0000 H   0  0  0  0  0  0  0  0  0  0  0  0
  -27.9480   -1.9682    0.0000 H   0  0  0  0  0  0  0  0  0  0  0  0
  -27.9133    1.3862    0.0000 H   0  0  0  0  0  0  0  0  0  0  0  0
  -30.3519    2.8005    0.0000 H   0  0  0  0  0  0  0  0  0  0  0  0
  -28.5411    2.1374    0.0000 H   0  0  0  0  0  0  0  0  0  0  0  0
  -32.6199    0.3850    0.0000 H   0  0  0  0  0  0  0  0  0  0  0  0
  -31.7107   -0.3156    0.0000 H   0  0  0  0  0  0  0  0  0  0  0  0
  -34.7209    3.1768    0.0000 H   0  0  0  0  0  0  0  0  0  0  0  0
  -34.6450    0.7845    0.0000 H   0  0  0  0  0  0  0  0  0  0  0  0
  -31.8379    1.7003    0.0000 H   0  0  0  0  0  0  0  0  0  0  0  0
  -31.8164   -1.6542    0.0000 H   0  0  0  0  0  0  0  0  0  0  0  0
  -34.2606   -3.0590    0.0000 H   0  0  0  0  0  0  0  0  0  0  0  0
  -32.4472   -2.4030    0.0000 H   0  0  0  0  0  0  0  0  0  0  0  0
  -35.7422   -1.9529    0.0000 H   0  0  0  0  0  0  0  0  0  0  0  0
  -35.7075    1.4016    0.0000 H   0  0  0  0  0  0  0  0  0  0  0  0
  -36.2539    1.9887    0.0000 H   0  0  0  0  0  0  0  0  0  0  0  0
  -40.2086    2.1730    0.0000 H   0  0  0  0  0  0  0  0  0  0  0  0
  -40.4141    0.4004    0.0000 H   0  0  0  0  0  0  0  0  0  0  0  0
  -39.3254   -0.3371    0.0000 H   0  0  0  0  0  0  0  0  0  0  0  0
  -39.1080    3.9669    0.0000 H   0  0  0  0  0  0  0  0  0  0  0  0
  -39.5888    2.4054    0.0000 H   0  0  0  0  0  0  0  0  0  0  0  0
  -37.6899    5.3736    0.0000 H   0  0  0  0  0  0  0  0  0  0  0  0
  -35.8791    4.7105    0.0000 H   0  0  0  0  0  0  0  0  0  0  0  0
  -36.0846    2.9380    0.0000 H   0  0  0  0  0  0  0  0  0  0  0  0
  -39.6321    1.7157    0.0000 H   0  0  0  0  0  0  0  0  0  0  0  0
  -39.6106   -1.6389    0.0000 H   0  0  0  0  0  0  0  0  0  0  0  0
  -42.0548   -3.0436    0.0000 H   0  0  0  0  0  0  0  0  0  0  0  0
  -40.2414   -2.3876    0.0000 H   0  0  0  0  0  0  0  0  0  0  0  0
  -43.5364   -1.9375    0.0000 H   0  0  0  0  0  0  0  0  0  0  0  0
  -43.5017    1.4170    0.0000 H   0  0  0  0  0  0  0  0  0  0  0  0
  -45.9403    2.8313    0.0000 H   0  0  0  0  0  0  0  0  0  0  0  0
  -44.1296    2.1682    0.0000 H   0  0  0  0  0  0  0  0  0  0  0  0
  -47.4263    1.7311    0.0000 H   0  0  0  0  0  0  0  0  0  0  0  0
  -47.4048   -1.6235    0.0000 H   0  0  0  0  0  0  0  0  0  0  0  0
  -49.6735   -3.0806    0.0000 H   0  0  0  0  0  0  0  0  0  0  0  0
  -48.0356   -2.3722    0.0000 H   0  0  0  0  0  0  0  0  0  0  0  0
  -50.8332    0.1435    0.0000 H   0  0  0  0  0  0  0  0  0  0  0  0
  -53.2741   -2.4220    0.0000 H   0  0  0  0  0  0  0  0  0  0  0  0
  -52.2922   -3.9120    0.0000 H   0  0  0  0  0  0  0  0  0  0  0  0
  -50.5802   -3.4086    0.0000 H   0  0  0  0  0  0  0  0  0  0  0  0
  -53.4894   -1.1871    0.0000 H   0  0  0  0  0  0  0  0  0  0  0  0
  -53.0694    0.5472    0.0000 H   0  0  0  0  0  0  0  0  0  0  0  0
  -51.1410    0.5434    0.0000 H   0  0  0  0  0  0  0  0  0  0  0  0
  1  2  1  0
  2  3  1  0
  3  4  2  0
  4  5  1  0
  5  6  2  0
  6  7  1  0
  7  8  2  0
  7  9  1  0
  9 10  1  0
 10 11  1  0
 11 12  2  0
  9 13  1  0
 13 14  1  0
 14 15  2  0
 15 16  1  0
 16 17  2  0
 17 18  1  0
 16 19  1  0
 14 20  1  0
 20 21  1  0
 21 22  2  0
 22 23  1  0
 23 24  2  0
 24 25  1  0
 25 26  2  0
 25 27  1  0
  1 28  2  0
  1 29  1  0
 29 30  1  0
 30 31  1  0
 31 32  1  0
 32 33  2  0
 32 34  1  0
 34 35  1  0
 35 36  1  0
 36 37  1  0
 37 38  1  0
 38 39  1  0
 39 40  1  0
 35 41  1  0
 41 42  2  0
 41 43  1  0
 43 44  1  0
 44 45  1  0
 44 46  1  0
 46 47  2  0
 46 48  1  0
 48 49  1  0
 49 50  1  0
 50 51  1  0
 50 52  1  0
 49 53  1  0
 53 54  2  0
 53 55  1  0
 55 56  1  0
 56 57  1  0
 57 58  1  0
 58 59  1  0
 59 60  2  0
 59 61  1  0
 56 62  1  0
 62 63  2  0
 62 64  1  0
 64 65  1  0
 65 66  1  0
 66 67  1  0
 67 68  2  0
 68 69  1  0
 69 70  2  0
 70 71  1  0
 70 72  1  0
 72 73  2  0
 65 74  1  0
 74 75  2  0
 74 76  1  0
 76 77  1  0
 77 78  1  0
 78 79  1  0
 78 80  1  0
 80 81  1  0
 77 82  1  0
 82 83  2  0
 82 84  1  0
 84 85  1  0
 85 86  1  0
 86 87  1  0
 87 88  1  0
 88 89  1  0
 88 90  2  0
 85 91  1  0
 91 92  2  0
 91 93  1  0
 93 94  1  0
 94 95  1  0
 95 96  1  0
 96 97  2  0
 97 98  1  0
 98 99  2  0
 99100  1  0
 99101  1  0
101102  2  0
 94103  1  0
103104  2  0
103105  1  0
105106  1  0
106107  1  0
107108  1  0
108109  1  0
108110  2  0
106111  1  0
111112  2  0
111113  1  0
113114  1  0
114115  1  0
115116  1  0
116117  1  0
117118  1  0
118119  1  0
119120  2  3
119121  1  0
114122  1  0
122123  2  0
122124  1  0
124125  1  0
125126  1  0
126127  1  0
127128  1  0
128129  1  0
129130  1  0
130131  2  3
130132  1  0
125133  1  0
133134  2  0
133135  1  0
135136  1  0
136137  1  0
137138  1  0
138139  1  0
139140  1  0
140141  1  0
136142  1  0
142143  2  0
142144  1  0
144145  1  0
145146  1  0
146147  1  0
147148  1  0
147149  2  0
145150  1  0
150151  2  0
150152  1  0
152153  1  0
153154  1  0
154155  1  0
155156  2  0
156157  1  0
157158  1  0
158159  2  0
153160  1  0
160161  2  0
160162  1  0
162163  1  0
163164  1  0
164165  1  0
164166  1  0
163167  1  0
167168  2  0
167169  1  0
169170  1  0
170171  1  0
171172  1  0
172173  2  0
173174  1  0
174175  1  0
175176  2  0
170177  1  0
177178  2  0
177179  1  0
179180  1  0
180181  1  0
181182  1  0
182183  1  0
183184  1  0
183185  2  0
180186  1  0
186187  2  0
186188  1  0
188189  1  0
189190  1  0
190191  1  0
191192  1  0
192193  1  0
192194  2  0
189195  1  0
195196  2  0
195197  1  0
197198  1  0
198199  1  0
199200  1  0
200201  2  0
200202  1  0
198203  1  0
203204  2  0
203205  1  0
205206  1  0
206207  1  0
207208  1  0
207209  1  0
209210  1  0
206211  1  0
211212  2  0
211213  1  0
213214  1  0
214215  1  0
215216  1  0
216217  2  0
216218  1  0
214219  1  0
219220  2  0
219221  1  0
221222  1  0
222223  1  0
223224  1  0
224225  2  0
224226  1  0
222227  1  0
227228  2  0
227229  1  0
229230  1  0
230231  1  0
231232  1  0
232233  1  0
232234  1  0
230235  1  0
235236  2  0
235237  1  0
  8  3  1  0
 73 67  1  0
102 96  1  0
159155  1  0
176172  1  0
 11  6  1  0
 18 13  2  0
 22  9  1  0
 26 21  1  0
  2238  1  0
  4239  1  0
  5240  1  0
  8241  1  0
 15242  1  0
 17243  1  0
 18244  1  0
 19245  1  0
 23246  1  0
 24247  1  0
 26248  1  0
 27249  1  0
 29250  1  0
 30251  1  0
 30252  1  0
 31253  1  0
 31254  1  0
 34255  1  0
 35256  1  1
 36257  1  0
 36258  1  0
 37259  1  0
 37260  1  0
 38261  1  0
 38262  1  0
 39263  1  0
 39264  1  0
 40265  1  0
 40266  1  0
 40267  1  0
 43268  1  0
 44269  1  6
 45270  1  0
 45271  1  0
 45272  1  0
 48273  1  0
 49274  1  1
 50275  1  1
 51276  1  0
 52277  1  0
 52278  1  0
 52279  1  0
 55280  1  0
 56281  1  6
 57282  1  0
 57283  1  0
 58284  1  0
 58285  1  0
 64286  1  0
 65287  1  1
 66288  1  0
 66289  1  0
 68290  1  0
 69291  1  0
 71292  1  0
 72293  1  0
 73294  1  0
 76295  1  0
 77296  1  6
 78297  1  1
 79298  1  0
 79299  1  0
 79300  1  0
 80301  1  0
 80302  1  0
 81303  1  0
 81304  1  0
 81305  1  0
 84306  1  0
 85307  1  1
 86308  1  0
 86309  1  0
 87310  1  0
 87311  1  0
 89312  1  0
 89313  1  0
 93314  1  0
 94315  1  6
 95316  1  0
 95317  1  0
 97318  1  0
 98319  1  0
100320  1  0
101321  1  0
102322  1  0
105323  1  0
106324  1  6
107325  1  0
107326  1  0
109327  1  0
109328  1  0
113329  1  0
114330  1  6
115331  1  0
115332  1  0
116333  1  0
116334  1  0
117335  1  0
117336  1  0
118337  1  0
120338  1  0
120339  1  0
121340  1  0
121341  1  0
124342  1  0
125343  1  1
126344  1  0
126345  1  0
127346  1  0
127347  1  0
128348  1  0
128349  1  0
129350  1  0
131351  1  0
131352  1  0
132353  1  0
132354  1  0
135355  1  0
136356  1  6
137357  1  0
137358  1  0
138359  1  0
138360  1  0
139361  1  0
139362  1  0
140363  1  0
140364  1  0
141365  1  0
141366  1  0
141367  1  0
144368  1  0
145369  1  1
146370  1  0
146371  1  0
148372  1  0
148373  1  0
152374  1  0
153375  1  6
154376  1  0
154377  1  0
156378  1  0
157379  1  0
158380  1  0
162381  1  0
163382  1  1
164383  1  1
165384  1  0
166385  1  0
166386  1  0
166387  1  0
169388  1  0
170389  1  6
171390  1  0
171391  1  0
173392  1  0
174393  1  0
175394  1  0
179395  1  0
180396  1  1
181397  1  0
181398  1  0
182399  1  0
182400  1  0
184401  1  0
184402  1  0
188403  1  0
189404  1  6
190405  1  0
190406  1  0
191407  1  0
191408  1  0
193409  1  0
193410  1  0
197411  1  0
198412  1  1
199413  1  0
199414  1  0
205415  1  0
206416  1  6
207417  1  6
208418  1  0
208419  1  0
208420  1  0
209421  1  0
209422  1  0
210423  1  0
210424  1  0
210425  1  0
213426  1  0
214427  1  1
215428  1  0
215429  1  0
221430  1  0
222431  1  6
223432  1  0
223433  1  0
229434  1  0
230435  1  1
231436  1  0
231437  1  0
232438  1  0
233439  1  0
233440  1  0
233441  1  0
234442  1  0
234443  1  0
234444  1  0
M  CHG  8  40   1  61  -1 120   1 131   1 141   1 202  -1 218  -1 226  -1
M  CHG  1 237  -1
M  END
