
     RDKit          2D

332344  0  0  0  0  0  0  0  0999 V2000
  -27.6751   -4.4571    0.0000 C   0  0  0  0  0  0  0  0  0  0  0  0
  -28.4601   -5.7353    0.0000 N   0  0  0  0  0  0  0  0  0  0  0  0
  -29.9595   -5.6946    0.0000 C   0  0  0  0  0  0  0  0  0  0  0  0
  -30.6740   -4.3757    0.0000 C   0  0  0  0  0  0  0  0  0  0  0  0
  -32.1734   -4.3350    0.0000 C   0  0  0  0  0  0  0  0  0  0  0  0
  -32.9584   -5.6132    0.0000 C   0  0  0  0  0  0  0  0  0  0  0  0
  -32.2439   -6.9321    0.0000 C   0  0  0  0  0  0  0  0  0  0  0  0
  -30.7445   -6.9728    0.0000 C   0  0  0  0  0  0  0  0  0  0  0  0
  -33.2775   -8.0192    0.0000 C   0  0  0  0  0  0  0  0  0  0  0  0
  -34.6308   -7.3721    0.0000 O   0  0  0  0  0  0  0  0  0  0  0  0
  -34.4336   -5.8852    0.0000 C   0  0  0  0  0  0  0  0  0  0  0  0
  -35.5206   -4.8516    0.0000 O   0  0  0  0  0  0  0  0  0  0  0  0
  -34.4190   -8.9923    0.0000 C   0  0  0  0  0  0  0  0  0  0  0  0
  -34.1471  -10.4674    0.0000 C   0  0  0  0  0  0  0  0  0  0  0  0
  -35.2886  -11.4405    0.0000 C   0  0  0  0  0  0  0  0  0  0  0  0
  -36.7021  -10.9385    0.0000 C   0  0  0  0  0  0  0  0  0  0  0  0
  -36.9741   -9.4633    0.0000 C   0  0  0  0  0  0  0  0  0  0  0  0
  -35.8325   -8.4902    0.0000 C   0  0  0  0  0  0  0  0  0  0  0  0
  -37.8436  -11.9115    0.0000 O   0  0  0  0  0  0  0  0  0  0  0  0
  -32.7336  -10.9695    0.0000 O   0  0  0  0  0  0  0  0  0  0  0  0
  -31.5921   -9.9964    0.0000 C   0  0  0  0  0  0  0  0  0  0  0  0
  -31.8640   -8.5213    0.0000 C   0  0  0  0  0  0  0  0  0  0  0  0
  -30.5956   -8.2366    0.0000 C   0  0  0  0  0  0  0  0  0  0  0  0
  -29.8417   -8.5043    0.0000 C   0  0  0  0  0  0  0  0  0  0  0  0
  -29.6967   -9.2911    0.0000 C   0  0  0  0  0  0  0  0  0  0  0  0
  -30.3055   -9.8101    0.0000 C   0  0  0  0  0  0  0  0  0  0  0  0
  -27.6236  -10.0274    0.0000 O   0  0  0  0  0  0  0  0  0  0  0  0
  -28.3896   -3.1382    0.0000 S   0  0  0  0  0  0  0  0  0  0  0  0
  -26.1757   -4.4978    0.0000 N   0  0  0  0  0  0  0  0  0  0  0  0
  -25.3907   -3.2196    0.0000 C   0  0  0  0  0  0  0  0  0  0  0  0
  -23.8912   -3.2603    0.0000 C   0  0  0  0  0  0  0  0  0  0  0  0
  -23.1063   -1.9820    0.0000 C   0  0  0  0  0  0  0  0  0  0  0  0
  -23.8208   -0.6631    0.0000 O   0  0  0  0  0  0  0  0  0  0  0  0
  -21.6068   -2.0227    0.0000 N   0  0  0  0  0  0  0  0  0  0  0  0
  -20.8219   -0.7445    0.0000 C   0  0  0  0  0  0  0  0  0  0  0  0
  -20.5214    0.7251    0.0000 C   0  0  0  0  0  0  0  0  0  0  0  0
  -19.3224   -0.7852    0.0000 C   0  0  0  0  0  0  0  0  0  0  0  0
  -18.7740   -2.1814    0.0000 O   0  0  0  0  0  0  0  0  0  0  0  0
  -18.5375    0.4930    0.0000 N   0  0  0  0  0  0  0  0  0  0  0  0
  -17.0380    0.4523    0.0000 C   0  0  0  0  0  0  0  0  0  0  0  0
  -16.0764   -0.6989    0.0000 C   0  0  0  0  0  0  0  0  0  0  0  0
  -14.8181   -1.5155    0.0000 C   0  0  0  0  0  0  0  0  0  0  0  0
  -13.3751   -1.9249    0.0000 C   0  0  0  0  0  0  0  0  0  0  0  0
  -11.8755   -1.8908    0.0000 C   0  0  0  0  0  0  0  0  0  0  0  0
  -17.8515   -0.8079    0.0000 C   0  0  0  0  0  0  0  0  0  0  0  0
  -17.6176    1.8358    0.0000 C   0  0  0  0  0  0  0  0  0  0  0  0
  -19.1176    1.8317    0.0000 O   0  0  0  0  0  0  0  0  0  0  0  0
  -17.7637    3.3287    0.0000 N   0  0  0  0  0  0  0  0  0  0  0  0
  -17.4632    4.7983    0.0000 C   0  0  0  0  0  0  0  0  0  0  0  0
  -18.3663    5.9960    0.0000 C   0  0  0  0  0  0  0  0  0  0  0  0
  -19.8551    5.8127    0.0000 O   0  0  0  0  0  0  0  0  0  0  0  0
  -16.7430    6.1140    0.0000 C   0  0  0  0  0  0  0  0  0  0  0  0
  -17.9367    7.0224    0.0000 O   0  0  0  0  0  0  0  0  0  0  0  0
  -15.6669    7.1590    0.0000 N   0  0  0  0  0  0  0  0  0  0  0  0
  -14.3305    7.8404    0.0000 C   0  0  0  0  0  0  0  0  0  0  0  0
  -13.9572    9.2932    0.0000 C   0  0  0  0  0  0  0  0  0  0  0  0
  -15.0287   10.3429    0.0000 C   0  0  0  0  0  0  0  0  0  0  0  0
  -12.8528    8.0976    0.0000 C   0  0  0  0  0  0  0  0  0  0  0  0
  -12.8869    9.5972    0.0000 O   0  0  0  0  0  0  0  0  0  0  0  0
  -11.3648    7.9078    0.0000 N   0  0  0  0  0  0  0  0  0  0  0  0
   -9.9989    7.2879    0.0000 C   0  0  0  0  0  0  0  0  0  0  0  0
   -8.6303    7.9018    0.0000 C   0  0  0  0  0  0  0  0  0  0  0  0
   -8.4777    9.3940    0.0000 C   0  0  0  0  0  0  0  0  0  0  0  0
   -7.1091   10.0080    0.0000 C   0  0  0  0  0  0  0  0  0  0  0  0
   -6.9564   11.5002    0.0000 C   0  0  0  0  0  0  0  0  0  0  0  0
   -8.1724   12.3785    0.0000 C   0  0  0  0  0  0  0  0  0  0  0  0
   -9.5410   11.7645    0.0000 C   0  0  0  0  0  0  0  0  0  0  0  0
   -9.6937   10.2723    0.0000 C   0  0  0  0  0  0  0  0  0  0  0  0
   -8.8764    6.2929    0.0000 C   0  0  0  0  0  0  0  0  0  0  0  0
   -7.7253    7.2546    0.0000 O   0  0  0  0  0  0  0  0  0  0  0  0
   -8.0971    5.0112    0.0000 N   0  0  0  0  0  0  0  0  0  0  0  0
   -7.7302    3.5568    0.0000 C   0  0  0  0  0  0  0  0  0  0  0  0
   -7.8082    2.0589    0.0000 C   0  0  0  0  0  0  0  0  0  0  0  0
   -8.3244    0.6504    0.0000 C   0  0  0  0  0  0  0  0  0  0  0  0
   -9.2327   -0.5433    0.0000 C   0  0  0  0  0  0  0  0  0  0  0  0
  -10.4525   -1.4162    0.0000 C   0  0  0  0  0  0  0  0  0  0  0  0
   -6.5554    4.4895    0.0000 C   0  0  0  0  0  0  0  0  0  0  0  0
   -6.3969    2.8696    0.0000 C   0  0  0  0  0  0  0  0  0  0  0  0
   -5.9650    1.4331    0.0000 O   0  0  0  0  0  0  0  0  0  0  0  0
   -5.1350    3.6806    0.0000 N   0  0  0  0  0  0  0  0  0  0  0  0
   -3.8017    2.9934    0.0000 C   0  0  0  0  0  0  0  0  0  0  0  0
   -2.7839    1.8915    0.0000 C   0  0  0  0  0  0  0  0  0  0  0  0
   -3.2292    0.4592    0.0000 C   0  0  0  0  0  0  0  0  0  0  0  0
   -2.2113   -0.6427    0.0000 N   0  0  0  0  0  0  0  0  0  0  0  0
   -4.6923    0.1286    0.0000 O   0  0  0  0  0  0  0  0  0  0  0  0
   -2.5399    3.8044    0.0000 C   0  0  0  0  0  0  0  0  0  0  0  0
   -2.6114    5.3027    0.0000 O   0  0  0  0  0  0  0  0  0  0  0  0
   -1.2066    3.1172    0.0000 N   0  0  0  0  0  0  0  0  0  0  0  0
    0.0552    3.9282    0.0000 C   0  0  0  0  0  0  0  0  0  0  0  0
    0.9635    5.1219    0.0000 C   0  0  0  0  0  0  0  0  0  0  0  0
    2.4515    4.9321    0.0000 C   0  0  0  0  0  0  0  0  0  0  0  0
    3.0311    3.5486    0.0000 C   0  0  0  0  0  0  0  0  0  0  0  0
    4.5190    3.3588    0.0000 C   0  0  0  0  0  0  0  0  0  0  0  0
    5.4274    4.5526    0.0000 C   0  0  0  0  0  0  0  0  0  0  0  0
    6.9153    4.3628    0.0000 O   0  0  0  0  0  0  0  0  0  0  0  0
    4.8478    5.9360    0.0000 C   0  0  0  0  0  0  0  0  0  0  0  0
    3.3598    6.1258    0.0000 C   0  0  0  0  0  0  0  0  0  0  0  0
    1.3885    3.2410    0.0000 C   0  0  0  0  0  0  0  0  0  0  0  0
    1.0953    1.7699    0.0000 O   0  0  0  0  0  0  0  0  0  0  0  0
    2.6503    4.0520    0.0000 N   0  0  0  0  0  0  0  0  0  0  0  0
    3.9836    3.3648    0.0000 C   0  0  0  0  0  0  0  0  0  0  0  0
    5.0015    2.2629    0.0000 C   0  0  0  0  0  0  0  0  0  0  0  0
    4.5562    0.8306    0.0000 C   0  0  0  0  0  0  0  0  0  0  0  0
    3.0931    0.5000    0.0000 C   0  0  0  0  0  0  0  0  0  0  0  0
    2.6478   -0.9324    0.0000 C   0  0  0  0  0  0  0  0  0  0  0  0
    3.6656   -2.0342    0.0000 C   0  0  0  0  0  0  0  0  0  0  0  0
    5.1288   -1.7036    0.0000 C   0  0  0  0  0  0  0  0  0  0  0  0
    5.5740   -0.2713    0.0000 C   0  0  0  0  0  0  0  0  0  0  0  0
    5.2455    4.1758    0.0000 C   0  0  0  0  0  0  0  0  0  0  0  0
    5.5387    5.6469    0.0000 O   0  0  0  0  0  0  0  0  0  0  0  0
    6.5788    3.4886    0.0000 N   0  0  0  0  0  0  0  0  0  0  0  0
    7.8406    4.2996    0.0000 C   0  0  0  0  0  0  0  0  0  0  0  0
    8.7489    5.4933    0.0000 C   0  0  0  0  0  0  0  0  0  0  0  0
   10.2369    5.3035    0.0000 C   0  0  0  0  0  0  0  0  0  0  0  0
   11.2650    6.3957    0.0000 C   0  0  0  0  0  0  0  0  0  0  0  0
   12.6215    5.7554    0.0000 N   0  0  0  0  0  0  0  0  0  0  0  0
   12.4317    4.2675    0.0000 C   0  0  0  0  0  0  0  0  0  0  0  0
   10.9579    3.9882    0.0000 N   0  0  0  0  0  0  0  0  0  0  0  0
    9.1739    3.6124    0.0000 C   0  0  0  0  0  0  0  0  0  0  0  0
    9.2454    2.1141    0.0000 O   0  0  0  0  0  0  0  0  0  0  0  0
   10.4357    4.4234    0.0000 N   0  0  0  0  0  0  0  0  0  0  0  0
   11.7690    3.7362    0.0000 C   0  0  0  0  0  0  0  0  0  0  0  0
   12.7869    2.6343    0.0000 C   0  0  0  0  0  0  0  0  0  0  0  0
   12.3416    1.2020    0.0000 O   0  0  0  0  0  0  0  0  0  0  0  0
   13.0308    4.5472    0.0000 C   0  0  0  0  0  0  0  0  0  0  0  0
   13.3240    6.0183    0.0000 O   0  0  0  0  0  0  0  0  0  0  0  0
   14.3641    3.8600    0.0000 N   0  0  0  0  0  0  0  0  0  0  0  0
   15.6260    4.6710    0.0000 C   0  0  0  0  0  0  0  0  0  0  0  0
   16.5343    5.8647    0.0000 C   0  0  0  0  0  0  0  0  0  0  0  0
   18.0239    6.0406    0.0000 C   0  0  0  0  0  0  0  0  0  0  0  0
   16.9593    3.9838    0.0000 C   0  0  0  0  0  0  0  0  0  0  0  0
   17.0307    2.4855    0.0000 O   0  0  0  0  0  0  0  0  0  0  0  0
   18.2211    4.7948    0.0000 N   0  0  0  0  0  0  0  0  0  0  0  0
   18.3066    6.2924    0.0000 C   0  0  0  0  0  0  0  0  0  0  0  0
   19.7573    6.6738    0.0000 C   0  0  0  0  0  0  0  0  0  0  0  0
   20.5684    5.4120    0.0000 C   0  0  0  0  0  0  0  0  0  0  0  0
   19.6189    4.2507    0.0000 C   0  0  0  0  0  0  0  0  0  0  0  0
   20.8731    3.4278    0.0000 C   0  0  0  0  0  0  0  0  0  0  0  0
   22.2850    3.9342    0.0000 O   0  0  0  0  0  0  0  0  0  0  0  0
   20.7876    1.9303    0.0000 N   0  0  0  0  0  0  0  0  0  0  0  0
   22.0417    1.1074    0.0000 C   0  0  0  0  0  0  0  0  0  0  0  0
   23.5017    0.7631    0.0000 C   0  0  0  0  0  0  0  0  0  0  0  0
   23.9335   -0.6734    0.0000 C   0  0  0  0  0  0  0  0  0  0  0  0
   22.9054   -1.7656    0.0000 C   0  0  0  0  0  0  0  0  0  0  0  0
   23.3372   -3.2021    0.0000 C   0  0  0  0  0  0  0  0  0  0  0  0
   24.7971   -3.5464    0.0000 C   0  0  0  0  0  0  0  0  0  0  0  0
   25.2290   -4.9829    0.0000 O   0  0  0  0  0  0  0  0  0  0  0  0
   25.8253   -2.4541    0.0000 C   0  0  0  0  0  0  0  0  0  0  0  0
   25.3934   -1.0176    0.0000 C   0  0  0  0  0  0  0  0  0  0  0  0
   21.9562   -0.3901    0.0000 C   0  0  0  0  0  0  0  0  0  0  0  0
   20.4930   -0.7206    0.0000 O   0  0  0  0  0  0  0  0  0  0  0  0
   23.2103   -1.2130    0.0000 N   0  0  0  0  0  0  0  0  0  0  0  0
   23.1248   -2.7106    0.0000 C   0  0  0  0  0  0  0  0  0  0  0  0
   22.5322   -4.0885    0.0000 C   0  0  0  0  0  0  0  0  0  0  0  0
   21.0426   -4.2644    0.0000 C   0  0  0  0  0  0  0  0  0  0  0  0
   20.1455   -3.0622    0.0000 C   0  0  0  0  0  0  0  0  0  0  0  0
   18.6558   -3.2380    0.0000 C   0  0  0  0  0  0  0  0  0  0  0  0
   18.0633   -4.6160    0.0000 C   0  0  0  0  0  0  0  0  0  0  0  0
   18.9603   -5.8182    0.0000 C   0  0  0  0  0  0  0  0  0  0  0  0
   20.4500   -5.6424    0.0000 C   0  0  0  0  0  0  0  0  0  0  0  0
   24.3790   -3.5334    0.0000 C   0  0  0  0  0  0  0  0  0  0  0  0
   25.8421   -3.2029    0.0000 O   0  0  0  0  0  0  0  0  0  0  0  0
   24.2934   -5.0310    0.0000 N   0  0  0  0  0  0  0  0  0  0  0  0
   25.5476   -5.8538    0.0000 C   0  0  0  0  0  0  0  0  0  0  0  0
   27.0075   -6.1981    0.0000 C   0  0  0  0  0  0  0  0  0  0  0  0
   27.4394   -7.6346    0.0000 C   0  0  0  0  0  0  0  0  0  0  0  0
   28.8993   -7.9789    0.0000 C   0  0  0  0  0  0  0  0  0  0  0  0
   29.5030   -9.3520    0.0000 O   0  0  0  0  0  0  0  0  0  0  0  0
   29.9275   -6.8867    0.0000 O   0  0  0  0  0  0  0  0  0  0  0  0
   25.4621   -7.3514    0.0000 C   0  0  0  0  0  0  0  0  0  0  0  0
   24.1224   -8.0261    0.0000 O   0  0  0  0  0  0  0  0  0  0  0  0
   26.7162   -8.1742    0.0000 N   0  0  0  0  0  0  0  0  0  0  0  0
   26.6307   -9.6718    0.0000 C   0  0  0  0  0  0  0  0  0  0  0  0
   26.0381  -11.0498    0.0000 C   0  0  0  0  0  0  0  0  0  0  0  0
   24.5485  -11.2256    0.0000 C   0  0  0  0  0  0  0  0  0  0  0  0
   23.9559  -12.6036    0.0000 C   0  0  0  0  0  0  0  0  0  0  0  0
   23.0885  -10.8813    0.0000 C   0  0  0  0  0  0  0  0  0  0  0  0
   27.8848  -10.4946    0.0000 C   0  0  0  0  0  0  0  0  0  0  0  0
   27.9825  -11.9915    0.0000 O   0  0  0  0  0  0  0  0  0  0  0  0
   29.2968   -9.9883    0.0000 O   0  0  0  0  0  0  0  0  0  0  0  0
  -27.5901   -6.9573    0.0000 H   0  0  0  0  0  0  0  0  0  0  0  0
  -29.8890   -3.0975    0.0000 H   0  0  0  0  0  0  0  0  0  0  0  0
  -32.8879   -3.0161    0.0000 H   0  0  0  0  0  0  0  0  0  0  0  0
  -29.7321   -8.0796    0.0000 H   0  0  0  0  0  0  0  0  0  0  0  0
  -35.0167  -12.9157    0.0000 H   0  0  0  0  0  0  0  0  0  0  0  0
  -38.3875   -8.9613    0.0000 H   0  0  0  0  0  0  0  0  0  0  0  0
  -36.1045   -7.0151    0.0000 H   0  0  0  0  0  0  0  0  0  0  0  0
  -39.2571  -11.4095    0.0000 H   0  0  0  0  0  0  0  0  0  0  0  0
  -30.9944   -6.0730    0.0000 H   0  0  0  0  0  0  0  0  0  0  0  0
  -28.0574   -7.2235    0.0000 H   0  0  0  0  0  0  0  0  0  0  0  0
  -29.9066  -11.9736    0.0000 H   0  0  0  0  0  0  0  0  0  0  0  0
  -27.3516  -11.5026    0.0000 H   0  0  0  0  0  0  0  0  0  0  0  0
  -25.4612   -5.8167    0.0000 H   0  0  0  0  0  0  0  0  0  0  0  0
  -25.0902   -1.7500    0.0000 H   0  0  0  0  0  0  0  0  0  0  0  0
  -26.7858   -2.6685    0.0000 H   0  0  0  0  0  0  0  0  0  0  0  0
  -22.4961   -3.8113    0.0000 H   0  0  0  0  0  0  0  0  0  0  0  0
  -24.1917   -4.7299    0.0000 H   0  0  0  0  0  0  0  0  0  0  0  0
  -20.8923   -3.3416    0.0000 H   0  0  0  0  0  0  0  0  0  0  0  0
  -22.2170   -0.1934    0.0000 H   0  0  0  0  0  0  0  0  0  0  0  0
  -19.4880    1.8123    0.0000 H   0  0  0  0  0  0  0  0  0  0  0  0
  -20.7417    2.2088    0.0000 H   0  0  0  0  0  0  0  0  0  0  0  0
  -22.0209    0.7658    0.0000 H   0  0  0  0  0  0  0  0  0  0  0  0
  -19.2519    1.8119    0.0000 H   0  0  0  0  0  0  0  0  0  0  0  0
  -17.4613   -1.2751    0.0000 H   0  0  0  0  0  0  0  0  0  0  0  0
  -16.3032   -2.1816    0.0000 H   0  0  0  0  0  0  0  0  0  0  0  0
  -15.8462   -2.6077    0.0000 H   0  0  0  0  0  0  0  0  0  0  0  0
  -14.7803   -3.0150    0.0000 H   0  0  0  0  0  0  0  0  0  0  0  0
  -14.1948   -3.1811    0.0000 H   0  0  0  0  0  0  0  0  0  0  0  0
  -12.7272   -3.2778    0.0000 H   0  0  0  0  0  0  0  0  0  0  0  0
  -11.6182   -3.3686    0.0000 H   0  0  0  0  0  0  0  0  0  0  0  0
  -17.2014   -2.3418    0.0000 H   0  0  0  0  0  0  0  0  0  0  0  0
  -18.6227   -2.0459    0.0000 H   0  0  0  0  0  0  0  0  0  0  0  0
  -19.0672   -0.2984    0.0000 H   0  0  0  0  0  0  0  0  0  0  0  0
  -19.2617    3.4067    0.0000 H   0  0  0  0  0  0  0  0  0  0  0  0
  -18.9264    4.4677    0.0000 H   0  0  0  0  0  0  0  0  0  0  0  0
  -18.8053    7.4303    0.0000 H   0  0  0  0  0  0  0  0  0  0  0  0
  -17.2346    6.9804    0.0000 H   0  0  0  0  0  0  0  0  0  0  0  0
  -20.7582    7.0104    0.0000 H   0  0  0  0  0  0  0  0  0  0  0  0
  -16.5398    8.3788    0.0000 H   0  0  0  0  0  0  0  0  0  0  0  0
  -15.6068    8.6285    0.0000 H   0  0  0  0  0  0  0  0  0  0  0  0
  -13.1095   10.5307    0.0000 H   0  0  0  0  0  0  0  0  0  0  0  0
  -12.4819    9.0222    0.0000 H   0  0  0  0  0  0  0  0  0  0  0  0
  -14.6554   11.7957    0.0000 H   0  0  0  0  0  0  0  0  0  0  0  0
  -16.3946   10.9628    0.0000 H   0  0  0  0  0  0  0  0  0  0  0  0
  -16.0209    9.2180    0.0000 H   0  0  0  0  0  0  0  0  0  0  0  0
  -11.1343    9.3900    0.0000 H   0  0  0  0  0  0  0  0  0  0  0  0
   -9.9956    8.7879    0.0000 H   0  0  0  0  0  0  0  0  0  0  0  0
   -7.1343    8.0106    0.0000 H   0  0  0  0  0  0  0  0  0  0  0  0
   -7.9223    6.5794    0.0000 H   0  0  0  0  0  0  0  0  0  0  0  0
   -5.8931    9.1297    0.0000 H   0  0  0  0  0  0  0  0  0  0  0  0
   -5.5878   12.1141    0.0000 H   0  0  0  0  0  0  0  0  0  0  0  0
   -8.0198   13.8707    0.0000 H   0  0  0  0  0  0  0  0  0  0  0  0
  -10.7570   12.6428    0.0000 H   0  0  0  0  0  0  0  0  0  0  0  0
  -11.1269    9.8298    0.0000 H   0  0  0  0  0  0  0  0  0  0  0  0
   -6.7136    5.5909    0.0000 H   0  0  0  0  0  0  0  0  0  0  0  0
   -6.7367    1.0091    0.0000 H   0  0  0  0  0  0  0  0  0  0  0  0
   -6.3204    2.2494    0.0000 H   0  0  0  0  0  0  0  0  0  0  0  0
   -7.4544   -0.5715    0.0000 H   0  0  0  0  0  0  0  0  0  0  0  0
   -6.8464    0.3940    0.0000 H   0  0  0  0  0  0  0  0  0  0  0  0
   -8.9387   -2.0142    0.0000 H   0  0  0  0  0  0  0  0  0  0  0  0
   -7.8230   -1.0559    0.0000 H   0  0  0  0  0  0  0  0  0  0  0  0
   -9.7711   -2.7525    0.0000 H   0  0  0  0  0  0  0  0  0  0  0  0
   -5.0684    4.2923    0.0000 H   0  0  0  0  0  0  0  0  0  0  0  0
   -5.9321    5.8538    0.0000 H   0  0  0  0  0  0  0  0  0  0  0  0
   -7.4037    5.7265    0.0000 H   0  0  0  0  0  0  0  0  0  0  0  0
   -5.0233    5.1765    0.0000 H   0  0  0  0  0  0  0  0  0  0  0  0
   -4.7101    1.7997    0.0000 H   0  0  0  0  0  0  0  0  0  0  0  0
   -1.5443    1.0469    0.0000 H   0  0  0  0  0  0  0  0  0  0  0  0
   -1.6137    2.8300    0.0000 H   0  0  0  0  0  0  0  0  0  0  0  0
   -2.6566   -2.0750    0.0000 H   0  0  0  0  0  0  0  0  0  0  0  0
   -0.7482   -0.3121    0.0000 H   0  0  0  0  0  0  0  0  0  0  0  0
   -0.9530    1.6388    0.0000 H   0  0  0  0  0  0  0  0  0  0  0  0
   -0.9626    5.0300    0.0000 H   0  0  0  0  0  0  0  0  0  0  0  0
    1.4088    6.5543    0.0000 H   0  0  0  0  0  0  0  0  0  0  0  0
   -0.3698    5.8092    0.0000 H   0  0  0  0  0  0  0  0  0  0  0  0
    2.1228    2.3549    0.0000 H   0  0  0  0  0  0  0  0  0  0  0  0
    5.4162    2.1567    0.0000 H   0  0  0  0  0  0  0  0  0  0  0  0
    7.6714    5.6583    0.0000 H   0  0  0  0  0  0  0  0  0  0  0  0
    5.7561    7.1298    0.0000 H   0  0  0  0  0  0  0  0  0  0  0  0
    2.7802    7.5093    0.0000 H   0  0  0  0  0  0  0  0  0  0  0  0
    2.9435    5.5231    0.0000 H   0  0  0  0  0  0  0  0  0  0  0  0
    3.0753    2.1711    0.0000 H   0  0  0  0  0  0  0  0  0  0  0  0
    6.2411    1.4183    0.0000 H   0  0  0  0  0  0  0  0  0  0  0  0
    6.1717    3.2014    0.0000 H   0  0  0  0  0  0  0  0  0  0  0  0
    1.8389    1.3228    0.0000 H   0  0  0  0  0  0  0  0  0  0  0  0
    1.1847   -1.2630    0.0000 H   0  0  0  0  0  0  0  0  0  0  0  0
    3.2203   -3.4666    0.0000 H   0  0  0  0  0  0  0  0  0  0  0  0
    6.1466   -2.8055    0.0000 H   0  0  0  0  0  0  0  0  0  0  0  0
    7.0372    0.0593    0.0000 H   0  0  0  0  0  0  0  0  0  0  0  0
    6.8323    2.0101    0.0000 H   0  0  0  0  0  0  0  0  0  0  0  0
    6.8228    5.4014    0.0000 H   0  0  0  0  0  0  0  0  0  0  0  0
    9.1942    6.9257    0.0000 H   0  0  0  0  0  0  0  0  0  0  0  0
    7.5093    6.3380    0.0000 H   0  0  0  0  0  0  0  0  0  0  0  0
   10.9857    7.8695    0.0000 H   0  0  0  0  0  0  0  0  0  0  0  0
   13.9368    6.4765    0.0000 H   0  0  0  0  0  0  0  0  0  0  0  0
   13.6411    3.3802    0.0000 H   0  0  0  0  0  0  0  0  0  0  0  0
   10.7289    5.8945    0.0000 H   0  0  0  0  0  0  0  0  0  0  0  0
   10.8607    2.5425    0.0000 H   0  0  0  0  0  0  0  0  0  0  0  0
   14.0264    1.7897    0.0000 H   0  0  0  0  0  0  0  0  0  0  0  0
   14.0627    3.4231    0.0000 H   0  0  0  0  0  0  0  0  0  0  0  0
   13.3594    0.1001    0.0000 H   0  0  0  0  0  0  0  0  0  0  0  0
   14.6177    2.3815    0.0000 H   0  0  0  0  0  0  0  0  0  0  0  0
   14.6081    5.7728    0.0000 H   0  0  0  0  0  0  0  0  0  0  0  0
   16.9796    7.2971    0.0000 H   0  0  0  0  0  0  0  0  0  0  0  0
   15.2010    6.5520    0.0000 H   0  0  0  0  0  0  0  0  0  0  0  0
   18.9306    6.8686    0.0000 H   0  0  0  0  0  0  0  0  0  0  0  0
   19.5708    5.3412    0.0000 H   0  0  0  0  0  0  0  0  0  0  0  0
   18.4736    4.2432    0.0000 H   0  0  0  0  0  0  0  0  0  0  0  0
   16.8356    6.5856    0.0000 H   0  0  0  0  0  0  0  0  0  0  0  0
   18.0789    7.7750    0.0000 H   0  0  0  0  0  0  0  0  0  0  0  0
   19.2263    8.0767    0.0000 H   0  0  0  0  0  0  0  0  0  0  0  0
   21.0970    7.3485    0.0000 H   0  0  0  0  0  0  0  0  0  0  0  0
   21.7385    6.3505    0.0000 H   0  0  0  0  0  0  0  0  0  0  0  0
   21.7461    4.4830    0.0000 H   0  0  0  0  0  0  0  0  0  0  0  0
   18.9317    2.9174    0.0000 H   0  0  0  0  0  0  0  0  0  0  0  0
   19.4479    1.2556    0.0000 H   0  0  0  0  0  0  0  0  0  0  0  0
   22.6343    2.4854    0.0000 H   0  0  0  0  0  0  0  0  0  0  0  0
   24.9913    0.9390    0.0000 H   0  0  0  0  0  0  0  0  0  0  0  0
   23.5872    2.2607    0.0000 H   0  0  0  0  0  0  0  0  0  0  0  0
   21.4454   -1.4213    0.0000 H   0  0  0  0  0  0  0  0  0  0  0  0
   22.6039   -4.5106    0.0000 H   0  0  0  0  0  0  0  0  0  0  0  0
   26.7200   -5.1466    0.0000 H   0  0  0  0  0  0  0  0  0  0  0  0
   27.2852   -2.7984    0.0000 H   0  0  0  0  0  0  0  0  0  0  0  0
   26.4216    0.0746    0.0000 H   0  0  0  0  0  0  0  0  0  0  0  0
   24.6735   -0.8825    0.0000 H   0  0  0  0  0  0  0  0  0  0  0  0
   21.6648   -2.3663    0.0000 H   0  0  0  0  0  0  0  0  0  0  0  0
   22.2648   -5.5645    0.0000 H   0  0  0  0  0  0  0  0  0  0  0  0
   23.8655   -4.7759    0.0000 H   0  0  0  0  0  0  0  0  0  0  0  0
   20.3870   -1.5818    0.0000 H   0  0  0  0  0  0  0  0  0  0  0  0
   17.7587   -2.0358    0.0000 H   0  0  0  0  0  0  0  0  0  0  0  0
   16.5736   -4.7918    0.0000 H   0  0  0  0  0  0  0  0  0  0  0  0
   18.3678   -7.1962    0.0000 H   0  0  0  0  0  0  0  0  0  0  0  0
   21.3471   -6.8445    0.0000 H   0  0  0  0  0  0  0  0  0  0  0  0
   23.0460   -5.8639    0.0000 H   0  0  0  0  0  0  0  0  0  0  0  0
   26.1402   -4.4758    0.0000 H   0  0  0  0  0  0  0  0  0  0  0  0
   28.4972   -6.0223    0.0000 H   0  0  0  0  0  0  0  0  0  0  0  0
   27.2750   -4.7221    0.0000 H   0  0  0  0  0  0  0  0  0  0  0  0
   27.3538   -9.1322    0.0000 H   0  0  0  0  0  0  0  0  0  0  0  0
   26.2067   -8.4893    0.0000 H   0  0  0  0  0  0  0  0  0  0  0  0
   31.3874   -7.2309    0.0000 H   0  0  0  0  0  0  0  0  0  0  0  0
   28.1794   -7.8437    0.0000 H   0  0  0  0  0  0  0  0  0  0  0  0
   25.2236   -9.1521    0.0000 H   0  0  0  0  0  0  0  0  0  0  0  0
   26.1358  -12.5466    0.0000 H   0  0  0  0  0  0  0  0  0  0  0  0
   27.4452  -11.5695    0.0000 H   0  0  0  0  0  0  0  0  0  0  0  0
   24.4508   -9.7288    0.0000 H   0  0  0  0  0  0  0  0  0  0  0  0
   22.4988  -12.9597    0.0000 H   0  0  0  0  0  0  0  0  0  0  0  0
   23.8704  -14.1011    0.0000 H   0  0  0  0  0  0  0  0  0  0  0  0
   25.3630  -13.1233    0.0000 H   0  0  0  0  0  0  0  0  0  0  0  0
   21.9349  -11.8401    0.0000 H   0  0  0  0  0  0  0  0  0  0  0  0
   21.8343  -10.0585    0.0000 H   0  0  0  0  0  0  0  0  0  0  0  0
   23.6811   -9.5033    0.0000 H   0  0  0  0  0  0  0  0  0  0  0  0
   30.4787  -10.6428    0.0000 H   0  0  0  0  0  0  0  0  0  0  0  0
  1  2  1  0
  2  3  1  0
  3  4  2  0
  4  5  1  0
  5  6  2  0
  6  7  1  0
  7  8  2  0
  7  9  1  0
  9 10  1  0
 10 11  1  0
 11 12  2  0
  9 13  1  0
 13 14  1  0
 14 15  2  0
 15 16  1  0
 16 17  2  0
 17 18  1  0
 16 19  1  0
 14 20  1  0
 20 21  1  0
 21 22  2  0
 22 23  1  0
 23 24  2  0
 24 25  1  0
 25 26  2  0
 25 27  1  0
  1 28  2  0
  1 29  1  0
 29 30  1  0
 30 31  1  0
 31 32  1  0
 32 33  2  0
 32 34  1  0
 34 35  1  0
 35 36  1  0
 35 37  1  0
 37 38  2  0
 37 39  1  0
 40 39  1  6
 40 41  1  0
 41 42  1  0
 42 43  1  0
 43 44  1  0
 40 45  1  0
 40 46  1  0
 46 47  2  0
 46 48  1  0
 48 49  1  0
 49 50  1  0
 50 51  1  0
 49 52  1  0
 52 53  2  0
 52 54  1  0
 54 55  1  0
 55 56  1  0
 56 57  1  0
 55 58  1  0
 58 59  2  0
 58 60  1  0
 60 61  1  0
 61 62  1  0
 62 63  1  0
 63 64  2  0
 64 65  1  0
 65 66  2  0
 66 67  1  0
 67 68  2  0
 61 69  1  0
 69 70  2  0
 69 71  1  0
 71 72  1  0
 72 73  1  0
 73 74  1  0
 74 75  1  0
 75 76  1  0
 72 77  1  0
 72 78  1  6
 78 79  2  0
 78 80  1  0
 80 81  1  0
 81 82  1  0
 82 83  1  0
 83 84  1  0
 83 85  2  0
 81 86  1  0
 86 87  2  0
 86 88  1  0
 88 89  1  0
 89 90  1  0
 90 91  1  0
 91 92  2  0
 92 93  1  0
 93 94  2  0
 94 95  1  0
 94 96  1  0
 96 97  2  0
 89 98  1  0
 98 99  2  0
 98100  1  0
100101  1  0
101102  1  0
102103  1  0
103104  2  0
104105  1  0
105106  2  0
106107  1  0
107108  2  0
101109  1  0
109110  2  0
109111  1  0
111112  1  0
112113  1  0
113114  1  0
114115  2  0
115116  1  0
116117  1  0
117118  2  0
112119  1  0
119120  2  0
119121  1  0
121122  1  0
122123  1  0
123124  1  0
122125  1  0
125126  2  0
125127  1  0
127128  1  0
128129  1  0
129130  1  0
128131  1  0
131132  2  0
131133  1  0
133134  1  0
134135  1  0
135136  1  0
136137  1  0
137138  1  0
138139  2  0
138140  1  0
140141  1  0
141142  1  0
142143  1  0
143144  2  0
144145  1  0
145146  2  0
146147  1  0
146148  1  0
148149  2  0
141150  1  0
150151  2  0
150152  1  0
152153  1  0
153154  1  0
154155  1  0
155156  2  0
156157  1  0
157158  2  0
158159  1  0
159160  2  0
153161  1  0
161162  2  0
161163  1  0
163164  1  0
164165  1  0
165166  1  0
166167  1  0
167168  2  0
167169  1  0
164170  1  0
170171  2  0
170172  1  0
172173  1  0
173174  1  0
174175  1  0
175176  1  0
175177  1  0
173178  1  0
178179  2  0
178180  1  0
  8  3  1  0
 68 63  1  0
 97 91  1  0
108103  1  0
118114  1  0
137133  1  0
149143  1  0
160155  1  0
 11  6  1  0
 44 76  2  0
 18 13  2  0
 22  9  1  0
 26 21  1  0
  2181  1  0
  4182  1  0
  5183  1  0
  8184  1  0
 15185  1  0
 17186  1  0
 18187  1  0
 19188  1  0
 23189  1  0
 24190  1  0
 26191  1  0
 27192  1  0
 29193  1  0
 30194  1  0
 30195  1  0
 31196  1  0
 31197  1  0
 34198  1  0
 35199  1  1
 36200  1  0
 36201  1  0
 36202  1  0
 39203  1  0
 41204  1  0
 41205  1  0
 42206  1  0
 42207  1  0
 43208  1  0
 43209  1  0
 44210  1  0
 45211  1  0
 45212  1  0
 45213  1  0
 48214  1  0
 49215  1  1
 50216  1  0
 50217  1  0
 51218  1  0
 54219  1  0
 55220  1  1
 56221  1  0
 56222  1  0
 57223  1  0
 57224  1  0
 57225  1  0
 60226  1  0
 61227  1  1
 62228  1  0
 62229  1  0
 64230  1  0
 65231  1  0
 66232  1  0
 67233  1  0
 68234  1  0
 71235  1  0
 73236  1  0
 73237  1  0
 74238  1  0
 74239  1  0
 75240  1  0
 75241  1  0
 76242  1  0
 77243  1  0
 77244  1  0
 77245  1  0
 80246  1  0
 81247  1  6
 82248  1  0
 82249  1  0
 84250  1  0
 84251  1  0
 88252  1  0
 89253  1  1
 90254  1  0
 90255  1  0
 92256  1  0
 93257  1  0
 95258  1  0
 96259  1  0
 97260  1  0
100261  1  0
101262  1  6
102263  1  0
102264  1  0
104265  1  0
105266  1  0
106267  1  0
107268  1  0
108269  1  0
111270  1  0
112271  1  1
113272  1  0
113273  1  0
115274  1  0
116275  1  0
117276  1  0
121277  1  0
122278  1  6
123279  1  0
123280  1  0
124281  1  0
127282  1  0
128283  1  1
129284  1  0
129285  1  0
130286  1  0
130287  1  0
130288  1  0
134289  1  0
134290  1  0
135291  1  0
135292  1  0
136293  1  0
136294  1  0
137295  1  0
140296  1  0
141297  1  1
142298  1  0
142299  1  0
144300  1  0
145301  1  0
147302  1  0
148303  1  0
149304  1  0
152305  1  0
153306  1  6
154307  1  0
154308  1  0
156309  1  0
157310  1  0
158311  1  0
159312  1  0
160313  1  0
163314  1  0
164315  1  1
165316  1  0
165317  1  0
166318  1  0
166319  1  0
169320  1  0
172321  1  0
173322  1  6
174323  1  0
174324  1  0
175325  1  0
176326  1  0
176327  1  0
176328  1  0
177329  1  0
177330  1  0
177331  1  0
180332  1  0
M  END
