
     RDKit          2D

221223  0  0  0  0  0  0  0  0999 V2000
  -26.7027    0.6489    0.0000 N   0  0  0  0  0  0  0  0  0  0  0  0
  -25.4271   -0.1402    0.0000 C   0  0  0  0  0  0  0  0  0  0  0  0
  -24.1059    0.5700    0.0000 C   0  0  0  0  0  0  0  0  0  0  0  0
  -22.8302   -0.2191    0.0000 O   0  0  0  0  0  0  0  0  0  0  0  0
  -21.5090    0.4911    0.0000 C   0  0  0  0  0  0  0  0  0  0  0  0
  -20.2333   -0.2980    0.0000 O   0  0  0  0  0  0  0  0  0  0  0  0
  -18.9121    0.4122    0.0000 C   0  0  0  0  0  0  0  0  0  0  0  0
  -17.6364   -0.3769    0.0000 C   0  0  0  0  0  0  0  0  0  0  0  0
  -16.3152    0.3332    0.0000 O   0  0  0  0  0  0  0  0  0  0  0  0
  -15.0396   -0.4559    0.0000 C   0  0  0  0  0  0  0  0  0  0  0  0
  -13.7183    0.2543    0.0000 C   0  0  0  0  0  0  0  0  0  0  0  0
  -12.4427   -0.5348    0.0000 C   0  0  0  0  0  0  0  0  0  0  0  0
  -12.6274   -1.7357    0.0000 O   0  0  0  0  0  0  0  0  0  0  0  0
  -11.1215    0.1754    0.0000 N   0  0  0  0  0  0  0  0  0  0  0  0
   -9.8458   -0.6137    0.0000 C   0  0  0  0  0  0  0  0  0  0  0  0
  -10.8444   -1.7329    0.0000 C   0  0  0  0  0  0  0  0  0  0  0  0
  -10.3745   -3.1574    0.0000 C   0  0  0  0  0  0  0  0  0  0  0  0
  -11.3731   -4.2767    0.0000 C   0  0  0  0  0  0  0  0  0  0  0  0
  -10.9031   -5.7011    0.0000 N   0  0  0  0  0  0  0  0  0  0  0  0
  -11.9018   -6.8204    0.0000 C   0  0  0  0  0  0  0  0  0  0  0  0
  -11.4318   -8.2449    0.0000 N   0  0  0  0  0  0  0  0  0  0  0  0
  -13.3704   -6.5152    0.0000 N   0  0  0  0  0  0  0  0  0  0  0  0
   -8.3772   -0.9189    0.0000 C   0  0  0  0  0  0  0  0  0  0  0  0
   -7.9072   -2.3434    0.0000 O   0  0  0  0  0  0  0  0  0  0  0  0
   -7.3786    0.2003    0.0000 N   0  0  0  0  0  0  0  0  0  0  0  0
   -5.9099   -0.1049    0.0000 C   0  0  0  0  0  0  0  0  0  0  0  0
   -5.8644    1.3944    0.0000 C   0  0  0  0  0  0  0  0  0  0  0  0
   -7.1400    2.1835    0.0000 C   0  0  0  0  0  0  0  0  0  0  0  0
   -7.0945    3.6828    0.0000 C   0  0  0  0  0  0  0  0  0  0  0  0
   -8.3701    4.4719    0.0000 C   0  0  0  0  0  0  0  0  0  0  0  0
   -8.3246    5.9713    0.0000 N   0  0  0  0  0  0  0  0  0  0  0  0
   -4.6343   -0.8940    0.0000 C   0  0  0  0  0  0  0  0  0  0  0  0
   -3.3131   -0.1838    0.0000 O   0  0  0  0  0  0  0  0  0  0  0  0
   -4.6798   -2.3933    0.0000 N   0  0  0  0  0  0  0  0  0  0  0  0
   -3.4042   -3.1824    0.0000 C   0  0  0  0  0  0  0  0  0  0  0  0
   -4.4028   -4.3017    0.0000 C   0  0  0  0  0  0  0  0  0  0  0  0
   -1.9356   -3.4876    0.0000 C   0  0  0  0  0  0  0  0  0  0  0  0
   -1.6427   -4.9588    0.0000 O   0  0  0  0  0  0  0  0  0  0  0  0
   -0.9369   -2.3684    0.0000 N   0  0  0  0  0  0  0  0  0  0  0  0
    0.5317   -2.6736    0.0000 C   0  0  0  0  0  0  0  0  0  0  0  0
    1.2746   -3.9767    0.0000 C   0  0  0  0  0  0  0  0  0  0  0  0
    2.3686   -5.0030    0.0000 C   0  0  0  0  0  0  0  0  0  0  0  0
    3.7165   -5.6611    0.0000 C   0  0  0  0  0  0  0  0  0  0  0  0
    5.1985   -5.8928    0.0000 C   0  0  0  0  0  0  0  0  0  0  0  0
   -0.4918   -3.7702    0.0000 C   0  0  0  0  0  0  0  0  0  0  0  0
    0.2059   -1.2094    0.0000 C   0  0  0  0  0  0  0  0  0  0  0  0
   -1.2920   -1.1302    0.0000 O   0  0  0  0  0  0  0  0  0  0  0  0
    0.3261    0.2857    0.0000 N   0  0  0  0  0  0  0  0  0  0  0  0
    0.8817    1.6790    0.0000 C   0  0  0  0  0  0  0  0  0  0  0  0
   -0.6168    1.6124    0.0000 C   0  0  0  0  0  0  0  0  0  0  0  0
   -1.4237    2.8769    0.0000 C   0  0  0  0  0  0  0  0  0  0  0  0
   -2.9223    2.8103    0.0000 C   0  0  0  0  0  0  0  0  0  0  0  0
   -3.7292    4.0747    0.0000 N   0  0  0  0  0  0  0  0  0  0  0  0
   -5.2277    4.0081    0.0000 C   0  0  0  0  0  0  0  0  0  0  0  0
   -5.8745    5.3615    0.0000 N   0  0  0  0  0  0  0  0  0  0  0  0
   -5.5767    2.5493    0.0000 N   0  0  0  0  0  0  0  0  0  0  0  0
    1.8233    2.8467    0.0000 C   0  0  0  0  0  0  0  0  0  0  0  0
    0.8091    3.9518    0.0000 O   0  0  0  0  0  0  0  0  0  0  0  0
    3.0673    3.6849    0.0000 N   0  0  0  0  0  0  0  0  0  0  0  0
    4.5030    4.1192    0.0000 C   0  0  0  0  0  0  0  0  0  0  0  0
    3.5166    5.2493    0.0000 C   0  0  0  0  0  0  0  0  0  0  0  0
    4.0021    6.6685    0.0000 C   0  0  0  0  0  0  0  0  0  0  0  0
    3.0157    7.7986    0.0000 C   0  0  0  0  0  0  0  0  0  0  0  0
    4.9437    7.8362    0.0000 C   0  0  0  0  0  0  0  0  0  0  0  0
    6.0030    4.1110    0.0000 C   0  0  0  0  0  0  0  0  0  0  0  0
    6.2346    5.5931    0.0000 O   0  0  0  0  0  0  0  0  0  0  0  0
    7.4339    3.6611    0.0000 N   0  0  0  0  0  0  0  0  0  0  0  0
    8.6687    2.8094    0.0000 C   0  0  0  0  0  0  0  0  0  0  0  0
    8.9372    4.2852    0.0000 C   0  0  0  0  0  0  0  0  0  0  0  0
   10.3495    4.7905    0.0000 C   0  0  0  0  0  0  0  0  0  0  0  0
   11.4933    3.8201    0.0000 C   0  0  0  0  0  0  0  0  0  0  0  0
   12.9056    4.3254    0.0000 C   0  0  0  0  0  0  0  0  0  0  0  0
   13.1741    5.8012    0.0000 C   0  0  0  0  0  0  0  0  0  0  0  0
   12.0303    6.7716    0.0000 C   0  0  0  0  0  0  0  0  0  0  0  0
   10.6180    6.2663    0.0000 C   0  0  0  0  0  0  0  0  0  0  0  0
    9.5975    1.6316    0.0000 C   0  0  0  0  0  0  0  0  0  0  0  0
   10.9815    2.2101    0.0000 O   0  0  0  0  0  0  0  0  0  0  0  0
   10.1379    0.2323    0.0000 N   0  0  0  0  0  0  0  0  0  0  0  0
   10.2419   -1.2641    0.0000 C   0  0  0  0  0  0  0  0  0  0  0  0
    9.9001   -2.7246    0.0000 C   0  0  0  0  0  0  0  0  0  0  0  0
    9.1430   -4.0196    0.0000 C   0  0  0  0  0  0  0  0  0  0  0  0
    8.0379   -5.0338    0.0000 C   0  0  0  0  0  0  0  0  0  0  0  0
    6.6829   -5.6773    0.0000 C   0  0  0  0  0  0  0  0  0  0  0  0
   11.5349   -2.0244    0.0000 C   0  0  0  0  0  0  0  0  0  0  0  0
   11.5631   -0.5539    0.0000 C   0  0  0  0  0  0  0  0  0  0  0  0
   11.7911    0.9287    0.0000 O   0  0  0  0  0  0  0  0  0  0  0  0
   12.8387   -1.3430    0.0000 N   0  0  0  0  0  0  0  0  0  0  0  0
   14.1599   -0.6328    0.0000 C   0  0  0  0  0  0  0  0  0  0  0  0
   15.1586    0.4864    0.0000 C   0  0  0  0  0  0  0  0  0  0  0  0
   16.6535    0.3625    0.0000 O   0  0  0  0  0  0  0  0  0  0  0  0
   15.4356   -1.4219    0.0000 C   0  0  0  0  0  0  0  0  0  0  0  0
   16.7568   -0.7117    0.0000 O   0  0  0  0  0  0  0  0  0  0  0  0
   15.3900   -2.9212    0.0000 N   0  0  0  0  0  0  0  0  0  0  0  0
   16.6657   -3.7103    0.0000 C   0  0  0  0  0  0  0  0  0  0  0  0
   18.1343   -4.0156    0.0000 C   0  0  0  0  0  0  0  0  0  0  0  0
   19.1330   -2.8963    0.0000 C   0  0  0  0  0  0  0  0  0  0  0  0
   18.6630   -1.4719    0.0000 C   0  0  0  0  0  0  0  0  0  0  0  0
   19.6616   -0.3526    0.0000 C   0  0  0  0  0  0  0  0  0  0  0  0
   21.1302   -0.6578    0.0000 C   0  0  0  0  0  0  0  0  0  0  0  0
   22.1289    0.4614    0.0000 O   0  0  0  0  0  0  0  0  0  0  0  0
   21.6002   -2.0823    0.0000 C   0  0  0  0  0  0  0  0  0  0  0  0
   20.6016   -3.2015    0.0000 C   0  0  0  0  0  0  0  0  0  0  0  0
   16.6201   -5.2097    0.0000 C   0  0  0  0  0  0  0  0  0  0  0  0
   17.7901   -6.1484    0.0000 O   0  0  0  0  0  0  0  0  0  0  0  0
   15.2989   -5.9199    0.0000 O   0  0  0  0  0  0  0  0  0  0  0  0
  -28.0240   -0.0613    0.0000 H   0  0  0  0  0  0  0  0  0  0  0  0
  -26.6572    2.1482    0.0000 H   0  0  0  0  0  0  0  0  0  0  0  0
  -26.4257   -1.2594    0.0000 H   0  0  0  0  0  0  0  0  0  0  0  0
  -24.4982   -1.3180    0.0000 H   0  0  0  0  0  0  0  0  0  0  0  0
  -25.0347    1.7478    0.0000 H   0  0  0  0  0  0  0  0  0  0  0  0
  -23.2511    1.8026    0.0000 H   0  0  0  0  0  0  0  0  0  0  0  0
  -22.2873    1.7733    0.0000 H   0  0  0  0  0  0  0  0  0  0  0  0
  -20.6542    1.7237    0.0000 H   0  0  0  0  0  0  0  0  0  0  0  0
  -19.6904    1.6944    0.0000 H   0  0  0  0  0  0  0  0  0  0  0  0
  -17.9135    1.5314    0.0000 H   0  0  0  0  0  0  0  0  0  0  0  0
  -18.6351   -1.4962    0.0000 H   0  0  0  0  0  0  0  0  0  0  0  0
  -16.8581   -1.6592    0.0000 H   0  0  0  0  0  0  0  0  0  0  0  0
  -15.8943   -1.6885    0.0000 H   0  0  0  0  0  0  0  0  0  0  0  0
  -14.1107   -1.6337    0.0000 H   0  0  0  0  0  0  0  0  0  0  0  0
  -14.6472    1.4322    0.0000 H   0  0  0  0  0  0  0  0  0  0  0  0
  -12.7197    1.3736    0.0000 H   0  0  0  0  0  0  0  0  0  0  0  0
  -11.0759    1.6747    0.0000 H   0  0  0  0  0  0  0  0  0  0  0  0
   -9.2902    0.7796    0.0000 H   0  0  0  0  0  0  0  0  0  0  0  0
  -11.9146   -2.3082    0.0000 H   0  0  0  0  0  0  0  0  0  0  0  0
  -11.7092   -1.0637    0.0000 H   0  0  0  0  0  0  0  0  0  0  0  0
   -9.4456   -4.3352    0.0000 H   0  0  0  0  0  0  0  0  0  0  0  0
   -9.0533   -2.4472    0.0000 H   0  0  0  0  0  0  0  0  0  0  0  0
  -12.6943   -4.9869    0.0000 H   0  0  0  0  0  0  0  0  0  0  0  0
  -12.4386   -3.2208    0.0000 H   0  0  0  0  0  0  0  0  0  0  0  0
   -9.4345   -6.0064    0.0000 H   0  0  0  0  0  0  0  0  0  0  0  0
  -12.4304   -9.3641    0.0000 H   0  0  0  0  0  0  0  0  0  0  0  0
   -9.9632   -8.5501    0.0000 H   0  0  0  0  0  0  0  0  0  0  0  0
  -14.3690   -7.6344    0.0000 H   0  0  0  0  0  0  0  0  0  0  0  0
  -13.8404   -5.0907    0.0000 H   0  0  0  0  0  0  0  0  0  0  0  0
   -8.0187    1.5569    0.0000 H   0  0  0  0  0  0  0  0  0  0  0  0
   -6.4655   -1.4982    0.0000 H   0  0  0  0  0  0  0  0  0  0  0  0
   -5.3987    2.0414    0.0000 H   0  0  0  0  0  0  0  0  0  0  0  0
   -4.4439    0.9124    0.0000 H   0  0  0  0  0  0  0  0  0  0  0  0
   -8.6349    2.3075    0.0000 H   0  0  0  0  0  0  0  0  0  0  0  0
   -8.1581    1.0820    0.0000 H   0  0  0  0  0  0  0  0  0  0  0  0
   -6.5389    5.0761    0.0000 H   0  0  0  0  0  0  0  0  0  0  0  0
   -5.7433    3.0313    0.0000 H   0  0  0  0  0  0  0  0  0  0  0  0
   -9.8387    4.7772    0.0000 H   0  0  0  0  0  0  0  0  0  0  0  0
   -9.0914    3.1568    0.0000 H   0  0  0  0  0  0  0  0  0  0  0  0
   -9.6002    6.7604    0.0000 H   0  0  0  0  0  0  0  0  0  0  0  0
   -7.7690    7.3646    0.0000 H   0  0  0  0  0  0  0  0  0  0  0  0
   -6.8559    5.6660    0.0000 H   0  0  0  0  0  0  0  0  0  0  0  0
   -6.0778   -2.9372    0.0000 H   0  0  0  0  0  0  0  0  0  0  0  0
   -2.8486   -1.7891    0.0000 H   0  0  0  0  0  0  0  0  0  0  0  0
   -5.8977   -4.1777    0.0000 H   0  0  0  0  0  0  0  0  0  0  0  0
   -4.9584   -5.6950    0.0000 H   0  0  0  0  0  0  0  0  0  0  0  0
   -3.1272   -5.0908    0.0000 H   0  0  0  0  0  0  0  0  0  0  0  0
   -1.5770   -1.0118    0.0000 H   0  0  0  0  0  0  0  0  0  0  0  0
    0.7891   -5.3960    0.0000 H   0  0  0  0  0  0  0  0  0  0  0  0
   -0.1904   -4.2989    0.0000 H   0  0  0  0  0  0  0  0  0  0  0  0
    2.1406   -6.4855    0.0000 H   0  0  0  0  0  0  0  0  0  0  0  0
    1.0637   -5.7427    0.0000 H   0  0  0  0  0  0  0  0  0  0  0  0
    4.1149   -7.1073    0.0000 H   0  0  0  0  0  0  0  0  0  0  0  0
    2.6876   -6.7526    0.0000 H   0  0  0  0  0  0  0  0  0  0  0  0
    5.1903   -7.3928    0.0000 H   0  0  0  0  0  0  0  0  0  0  0  0
   -1.8120   -4.0572    0.0000 H   0  0  0  0  0  0  0  0  0  0  0  0
   -0.5727   -5.3501    0.0000 H   0  0  0  0  0  0  0  0  0  0  0  0
    0.6207   -5.0272    0.0000 H   0  0  0  0  0  0  0  0  0  0  0  0
   -1.1344    0.6275    0.0000 H   0  0  0  0  0  0  0  0  0  0  0  0
    0.3729    3.0901    0.0000 H   0  0  0  0  0  0  0  0  0  0  0  0
   -1.9217    0.8727    0.0000 H   0  0  0  0  0  0  0  0  0  0  0  0
   -0.6550    0.1129    0.0000 H   0  0  0  0  0  0  0  0  0  0  0  0
   -1.7495    4.3411    0.0000 H   0  0  0  0  0  0  0  0  0  0  0  0
   -0.1188    3.6166    0.0000 H   0  0  0  0  0  0  0  0  0  0  0  0
   -4.3076    2.2352    0.0000 H   0  0  0  0  0  0  0  0  0  0  0  0
   -2.7774    1.3173    0.0000 H   0  0  0  0  0  0  0  0  0  0  0  0
   -3.0376    5.4058    0.0000 H   0  0  0  0  0  0  0  0  0  0  0  0
   -7.5019    5.0049    0.0000 H   0  0  0  0  0  0  0  0  0  0  0  0
   -5.3431    6.6036    0.0000 H   0  0  0  0  0  0  0  0  0  0  0  0
   -7.3483    3.0542    0.0000 H   0  0  0  0  0  0  0  0  0  0  0  0
   -4.7358    1.6546    0.0000 H   0  0  0  0  0  0  0  0  0  0  0  0
    2.4238    5.0399    0.0000 H   0  0  0  0  0  0  0  0  0  0  0  0
    5.2890    5.3968    0.0000 H   0  0  0  0  0  0  0  0  0  0  0  0
    2.1247    5.8083    0.0000 H   0  0  0  0  0  0  0  0  0  0  0  0
    2.3205    4.3442    0.0000 H   0  0  0  0  0  0  0  0  0  0  0  0
    5.3940    6.1095    0.0000 H   0  0  0  0  0  0  0  0  0  0  0  0
    3.3246    9.2665    0.0000 H   0  0  0  0  0  0  0  0  0  0  0  0
    1.7023    8.5232    0.0000 H   0  0  0  0  0  0  0  0  0  0  0  0
    1.9388    6.7545    0.0000 H   0  0  0  0  0  0  0  0  0  0  0  0
    4.5779    9.2909    0.0000 H   0  0  0  0  0  0  0  0  0  0  0  0
    6.2279    8.6114    0.0000 H   0  0  0  0  0  0  0  0  0  0  0  0
    5.9301    6.7061    0.0000 H   0  0  0  0  0  0  0  0  0  0  0  0
    8.0921    5.0090    0.0000 H   0  0  0  0  0  0  0  0  0  0  0  0
   10.1243    3.1716    0.0000 H   0  0  0  0  0  0  0  0  0  0  0  0
    8.6848    5.7638    0.0000 H   0  0  0  0  0  0  0  0  0  0  0  0
    7.4838    4.6561    0.0000 H   0  0  0  0  0  0  0  0  0  0  0  0
   11.4067    2.3226    0.0000 H   0  0  0  0  0  0  0  0  0  0  0  0
   14.0494    3.3550    0.0000 H   0  0  0  0  0  0  0  0  0  0  0  0
   14.5864    6.3065    0.0000 H   0  0  0  0  0  0  0  0  0  0  0  0
   12.2988    8.2474    0.0000 H   0  0  0  0  0  0  0  0  0  0  0  0
    9.4742    7.2367    0.0000 H   0  0  0  0  0  0  0  0  0  0  0  0
   11.5515    0.7342    0.0000 H   0  0  0  0  0  0  0  0  0  0  0  0
   11.3962   -2.6170    0.0000 H   0  0  0  0  0  0  0  0  0  0  0  0
   10.7691   -3.9473    0.0000 H   0  0  0  0  0  0  0  0  0  0  0  0
   10.6044   -4.3577    0.0000 H   0  0  0  0  0  0  0  0  0  0  0  0
    9.7832   -5.3761    0.0000 H   0  0  0  0  0  0  0  0  0  0  0  0
    9.3347   -5.7877    0.0000 H   0  0  0  0  0  0  0  0  0  0  0  0
    8.0672   -6.5336    0.0000 H   0  0  0  0  0  0  0  0  0  0  0  0
    7.1173   -7.1130    0.0000 H   0  0  0  0  0  0  0  0  0  0  0  0
   12.8822   -1.9242    0.0000 H   0  0  0  0  0  0  0  0  0  0  0  0
   12.0616   -3.5161    0.0000 H   0  0  0  0  0  0  0  0  0  0  0  0
   10.8257   -3.5459    0.0000 H   0  0  0  0  0  0  0  0  0  0  0  0
   12.9763   -2.8367    0.0000 H   0  0  0  0  0  0  0  0  0  0  0  0
   13.2311    0.5450    0.0000 H   0  0  0  0  0  0  0  0  0  0  0  0
   15.7142    1.8797    0.0000 H   0  0  0  0  0  0  0  0  0  0  0  0
   13.8829    1.2755    0.0000 H   0  0  0  0  0  0  0  0  0  0  0  0
   17.6258    1.3005    0.0000 H   0  0  0  0  0  0  0  0  0  0  0  0
   14.0688   -3.6314    0.0000 H   0  0  0  0  0  0  0  0  0  0  0  0
   17.2213   -2.3170    0.0000 H   0  0  0  0  0  0  0  0  0  0  0  0
   19.4100   -4.8047    0.0000 H   0  0  0  0  0  0  0  0  0  0  0  0
   17.7527   -5.4662    0.0000 H   0  0  0  0  0  0  0  0  0  0  0  0
   17.2425   -0.9899    0.0000 H   0  0  0  0  0  0  0  0  0  0  0  0
   19.1916    1.0719    0.0000 H   0  0  0  0  0  0  0  0  0  0  0  0
   23.5975    0.1562    0.0000 H   0  0  0  0  0  0  0  0  0  0  0  0
   23.0688   -2.3875    0.0000 H   0  0  0  0  0  0  0  0  0  0  0  0
   21.0716   -4.6260    0.0000 H   0  0  0  0  0  0  0  0  0  0  0  0
  1  2  1  0
  2  3  1  0
  3  4  1  0
  4  5  1  0
  5  6  1  0
  6  7  1  0
  7  8  1  0
  8  9  1  0
  9 10  1  0
 10 11  1  0
 11 12  1  0
 12 13  2  0
 12 14  1  0
 14 15  1  0
 15 16  1  0
 16 17  1  0
 17 18  1  0
 18 19  1  0
 19 20  1  0
 20 21  2  3
 20 22  1  0
 15 23  1  0
 23 24  2  0
 23 25  1  0
 25 26  1  0
 26 27  1  0
 27 28  1  0
 28 29  1  0
 29 30  1  0
 30 31  1  0
 26 32  1  0
 32 33  2  0
 32 34  1  0
 34 35  1  0
 35 36  1  0
 35 37  1  0
 37 38  2  0
 37 39  1  0
 40 39  1  6
 40 41  1  0
 41 42  1  0
 42 43  1  0
 43 44  1  0
 40 45  1  0
 40 46  1  0
 46 47  2  0
 46 48  1  0
 48 49  1  0
 49 50  1  0
 50 51  1  0
 51 52  1  0
 52 53  1  0
 53 54  1  0
 54 55  2  3
 54 56  1  0
 49 57  1  0
 57 58  2  0
 57 59  1  0
 59 60  1  0
 60 61  1  0
 61 62  1  0
 62 63  1  0
 62 64  1  0
 60 65  1  0
 65 66  2  0
 65 67  1  0
 67 68  1  0
 68 69  1  0
 69 70  1  0
 70 71  2  0
 71 72  1  0
 72 73  2  0
 73 74  1  0
 74 75  2  0
 68 76  1  0
 76 77  2  0
 76 78  1  0
 78 79  1  0
 79 80  1  0
 80 81  1  0
 81 82  1  0
 82 83  1  0
 79 84  1  0
 79 85  1  6
 85 86  2  0
 85 87  1  0
 87 88  1  0
 88 89  1  0
 89 90  1  0
 88 91  1  0
 91 92  2  0
 91 93  1  0
 93 94  1  0
 94 95  1  0
 95 96  1  0
 96 97  2  0
 97 98  1  0
 98 99  2  0
 99100  1  0
 99101  1  0
101102  2  0
 94103  1  0
103104  2  0
103105  1  0
 75 70  1  0
102 96  1  0
 44 83  2  0
  1106  1  0
  1107  1  0
  2108  1  0
  2109  1  0
  3110  1  0
  3111  1  0
  5112  1  0
  5113  1  0
  7114  1  0
  7115  1  0
  8116  1  0
  8117  1  0
 10118  1  0
 10119  1  0
 11120  1  0
 11121  1  0
 14122  1  0
 15123  1  6
 16124  1  0
 16125  1  0
 17126  1  0
 17127  1  0
 18128  1  0
 18129  1  0
 19130  1  0
 21131  1  0
 21132  1  0
 22133  1  0
 22134  1  0
 25135  1  0
 26136  1  1
 27137  1  0
 27138  1  0
 28139  1  0
 28140  1  0
 29141  1  0
 29142  1  0
 30143  1  0
 30144  1  0
 31145  1  0
 31146  1  0
 31147  1  0
 34148  1  0
 35149  1  6
 36150  1  0
 36151  1  0
 36152  1  0
 39153  1  0
 41154  1  0
 41155  1  0
 42156  1  0
 42157  1  0
 43158  1  0
 43159  1  0
 44160  1  0
 45161  1  0
 45162  1  0
 45163  1  0
 48164  1  0
 49165  1  1
 50166  1  0
 50167  1  0
 51168  1  0
 51169  1  0
 52170  1  0
 52171  1  0
 53172  1  0
 55173  1  0
 55174  1  0
 56175  1  0
 56176  1  0
 59177  1  0
 60178  1  1
 61179  1  0
 61180  1  0
 62181  1  0
 63182  1  0
 63183  1  0
 63184  1  0
 64185  1  0
 64186  1  0
 64187  1  0
 67188  1  0
 68189  1  1
 69190  1  0
 69191  1  0
 71192  1  0
 72193  1  0
 73194  1  0
 74195  1  0
 75196  1  0
 78197  1  0
 80198  1  0
 80199  1  0
 81200  1  0
 81201  1  0
 82202  1  0
 82203  1  0
 83204  1  0
 84205  1  0
 84206  1  0
 84207  1  0
 87208  1  0
 88209  1  1
 89210  1  0
 89211  1  0
 90212  1  0
 93213  1  0
 94214  1  1
 95215  1  0
 95216  1  0
 97217  1  0
 98218  1  0
100219  1  0
101220  1  0
102221  1  0
M  CHG  4  21   1  31   1  55   1 105  -1
M  END
