
     RDKit          2D

283286  0  0  0  0  0  0  0  0999 V2000
   26.3566   -8.5843    0.0000 N   0  0  0  0  0  0  0  0  0  0  0  0
   25.1588   -7.6814    0.0000 C   0  0  0  0  0  0  0  0  0  0  0  0
   25.3418   -6.1926    0.0000 C   0  0  0  0  0  0  0  0  0  0  0  0
   24.1439   -5.2897    0.0000 C   0  0  0  0  0  0  0  0  0  0  0  0
   22.7631   -5.8757    0.0000 O   0  0  0  0  0  0  0  0  0  0  0  0
   24.3269   -3.8009    0.0000 N   0  0  0  0  0  0  0  0  0  0  0  0
   23.1290   -2.8981    0.0000 C   0  0  0  0  0  0  0  0  0  0  0  0
   24.2262   -1.8752    0.0000 C   0  0  0  0  0  0  0  0  0  0  0  0
   25.7034   -2.1358    0.0000 O   0  0  0  0  0  0  0  0  0  0  0  0
   21.6946   -2.4594    0.0000 C   0  0  0  0  0  0  0  0  0  0  0  0
   21.5537   -1.1167    0.0000 O   0  0  0  0  0  0  0  0  0  0  0  0
   20.5975   -3.4822    0.0000 N   0  0  0  0  0  0  0  0  0  0  0  0
   19.1631   -3.0435    0.0000 C   0  0  0  0  0  0  0  0  0  0  0  0
   19.8442   -1.7071    0.0000 C   0  0  0  0  0  0  0  0  0  0  0  0
   19.0274   -0.4490    0.0000 C   0  0  0  0  0  0  0  0  0  0  0  0
   19.7085    0.8874    0.0000 C   0  0  0  0  0  0  0  0  0  0  0  0
   18.8917    2.1455    0.0000 C   0  0  0  0  0  0  0  0  0  0  0  0
   17.3937    2.0672    0.0000 C   0  0  0  0  0  0  0  0  0  0  0  0
   16.5769    3.3253    0.0000 O   0  0  0  0  0  0  0  0  0  0  0  0
   16.7126    0.7308    0.0000 C   0  0  0  0  0  0  0  0  0  0  0  0
   17.5294   -0.5273    0.0000 C   0  0  0  0  0  0  0  0  0  0  0  0
   17.6651   -3.1219    0.0000 C   0  0  0  0  0  0  0  0  0  0  0  0
   17.0326   -2.3679    0.0000 O   0  0  0  0  0  0  0  0  0  0  0  0
   16.9840   -4.4583    0.0000 N   0  0  0  0  0  0  0  0  0  0  0  0
   15.4860   -4.5366    0.0000 C   0  0  0  0  0  0  0  0  0  0  0  0
   15.8233   -5.9982    0.0000 C   0  0  0  0  0  0  0  0  0  0  0  0
   17.2577   -6.4369    0.0000 C   0  0  0  0  0  0  0  0  0  0  0  0
   17.5950   -7.8985    0.0000 C   0  0  0  0  0  0  0  0  0  0  0  0
   19.0294   -8.3373    0.0000 N   0  0  0  0  0  0  0  0  0  0  0  0
   19.3666   -9.7988    0.0000 C   0  0  0  0  0  0  0  0  0  0  0  0
   20.8010  -10.2376    0.0000 N   0  0  0  0  0  0  0  0  0  0  0  0
   18.2695  -10.8217    0.0000 N   0  0  0  0  0  0  0  0  0  0  0  0
   14.0516   -4.0979    0.0000 C   0  0  0  0  0  0  0  0  0  0  0  0
   12.9545   -5.1208    0.0000 O   0  0  0  0  0  0  0  0  0  0  0  0
   13.7143   -2.6363    0.0000 N   0  0  0  0  0  0  0  0  0  0  0  0
   12.2799   -2.1976    0.0000 C   0  0  0  0  0  0  0  0  0  0  0  0
   11.9427   -0.7360    0.0000 C   0  0  0  0  0  0  0  0  0  0  0  0
   13.1563    0.1455    0.0000 O   0  0  0  0  0  0  0  0  0  0  0  0
   10.5083   -0.2973    0.0000 N   0  0  0  0  0  0  0  0  0  0  0  0
   10.1710    1.1643    0.0000 C   0  0  0  0  0  0  0  0  0  0  0  0
   11.6690    1.2426    0.0000 C   0  0  0  0  0  0  0  0  0  0  0  0
    9.3542    2.4224    0.0000 C   0  0  0  0  0  0  0  0  0  0  0  0
   10.1931    3.6658    0.0000 O   0  0  0  0  0  0  0  0  0  0  0  0
    7.8562    2.3440    0.0000 N   0  0  0  0  0  0  0  0  0  0  0  0
    7.0394    3.6021    0.0000 C   0  0  0  0  0  0  0  0  0  0  0  0
    8.4202    4.1881    0.0000 C   0  0  0  0  0  0  0  0  0  0  0  0
    8.6032    5.6769    0.0000 C   0  0  0  0  0  0  0  0  0  0  0  0
    9.9840    6.2628    0.0000 C   0  0  0  0  0  0  0  0  0  0  0  0
   10.1670    7.7516    0.0000 C   0  0  0  0  0  0  0  0  0  0  0  0
    8.9691    8.6545    0.0000 C   0  0  0  0  0  0  0  0  0  0  0  0
    7.5883    8.0685    0.0000 C   0  0  0  0  0  0  0  0  0  0  0  0
    7.4054    6.5797    0.0000 C   0  0  0  0  0  0  0  0  0  0  0  0
    5.8416    4.5050    0.0000 C   0  0  0  0  0  0  0  0  0  0  0  0
    6.0245    5.9938    0.0000 O   0  0  0  0  0  0  0  0  0  0  0  0
    4.4607    3.9191    0.0000 N   0  0  0  0  0  0  0  0  0  0  0  0
    3.2629    4.8219    0.0000 C   0  0  0  0  0  0  0  0  0  0  0  0
    4.3600    5.8448    0.0000 C   0  0  0  0  0  0  0  0  0  0  0  0
    4.0228    7.3064    0.0000 C   0  0  0  0  0  0  0  0  0  0  0  0
    5.1199    8.3293    0.0000 C   0  0  0  0  0  0  0  0  0  0  0  0
    4.7826    9.7908    0.0000 N   0  0  0  0  0  0  0  0  0  0  0  0
    6.5543    7.8905    0.0000 O   0  0  0  0  0  0  0  0  0  0  0  0
    1.8285    5.2606    0.0000 C   0  0  0  0  0  0  0  0  0  0  0  0
    1.6719    6.7524    0.0000 O   0  0  0  0  0  0  0  0  0  0  0  0
    0.7313    4.2378    0.0000 N   0  0  0  0  0  0  0  0  0  0  0  0
   -0.7031    4.6765    0.0000 C   0  0  0  0  0  0  0  0  0  0  0  0
   -0.5130    3.1886    0.0000 C   0  0  0  0  0  0  0  0  0  0  0  0
   -0.7700    1.7107    0.0000 C   0  0  0  0  0  0  0  0  0  0  0  0
   -1.4511    0.3743    0.0000 C   0  0  0  0  0  0  0  0  0  0  0  0
   -2.4959   -0.7020    0.0000 C   0  0  0  0  0  0  0  0  0  0  0  0
    0.2868    5.8035    0.0000 C   0  0  0  0  0  0  0  0  0  0  0  0
   -1.3233    6.0423    0.0000 C   0  0  0  0  0  0  0  0  0  0  0  0
   -0.0652    6.8591    0.0000 O   0  0  0  0  0  0  0  0  0  0  0  0
   -2.3185    7.1646    0.0000 N   0  0  0  0  0  0  0  0  0  0  0  0
   -3.6003    7.9437    0.0000 C   0  0  0  0  0  0  0  0  0  0  0  0
   -3.8643    9.4202    0.0000 C   0  0  0  0  0  0  0  0  0  0  0  0
   -2.7175   10.3872    0.0000 C   0  0  0  0  0  0  0  0  0  0  0  0
   -2.9815   11.8638    0.0000 C   0  0  0  0  0  0  0  0  0  0  0  0
   -1.3092   10.9036    0.0000 C   0  0  0  0  0  0  0  0  0  0  0  0
   -5.0548    8.3103    0.0000 C   0  0  0  0  0  0  0  0  0  0  0  0
   -4.9090    9.8032    0.0000 O   0  0  0  0  0  0  0  0  0  0  0  0
   -6.5527    8.2320    0.0000 N   0  0  0  0  0  0  0  0  0  0  0  0
   -7.9610    7.7156    0.0000 C   0  0  0  0  0  0  0  0  0  0  0  0
   -9.2801    8.4298    0.0000 C   0  0  0  0  0  0  0  0  0  0  0  0
   -9.3210    9.9293    0.0000 C   0  0  0  0  0  0  0  0  0  0  0  0
   -8.0430   10.7145    0.0000 C   0  0  0  0  0  0  0  0  0  0  0  0
   -8.0839   12.2139    0.0000 C   0  0  0  0  0  0  0  0  0  0  0  0
   -9.4030   12.9282    0.0000 C   0  0  0  0  0  0  0  0  0  0  0  0
  -10.6810   12.1430    0.0000 C   0  0  0  0  0  0  0  0  0  0  0  0
  -10.6401   10.6435    0.0000 C   0  0  0  0  0  0  0  0  0  0  0  0
   -9.1546    6.8071    0.0000 C   0  0  0  0  0  0  0  0  0  0  0  0
  -10.2309    7.8518    0.0000 O   0  0  0  0  0  0  0  0  0  0  0  0
  -10.0273    5.5871    0.0000 N   0  0  0  0  0  0  0  0  0  0  0  0
  -10.5016    4.1640    0.0000 C   0  0  0  0  0  0  0  0  0  0  0  0
  -11.8824    3.5781    0.0000 C   0  0  0  0  0  0  0  0  0  0  0  0
  -13.0803    4.4810    0.0000 C   0  0  0  0  0  0  0  0  0  0  0  0
  -14.4611    3.8950    0.0000 C   0  0  0  0  0  0  0  0  0  0  0  0
  -15.6590    4.7979    0.0000 N   0  0  0  0  0  0  0  0  0  0  0  0
  -14.6441    2.4062    0.0000 O   0  0  0  0  0  0  0  0  0  0  0  0
  -10.5354    2.6644    0.0000 C   0  0  0  0  0  0  0  0  0  0  0  0
  -12.0233    2.4744    0.0000 O   0  0  0  0  0  0  0  0  0  0  0  0
  -10.1257    1.2215    0.0000 N   0  0  0  0  0  0  0  0  0  0  0  0
   -9.3089   -0.0366    0.0000 C   0  0  0  0  0  0  0  0  0  0  0  0
   -8.1576   -0.9981    0.0000 C   0  0  0  0  0  0  0  0  0  0  0  0
   -6.7740   -1.5774    0.0000 C   0  0  0  0  0  0  0  0  0  0  0  0
   -5.2811   -1.7232    0.0000 C   0  0  0  0  0  0  0  0  0  0  0  0
   -3.8115   -1.4225    0.0000 C   0  0  0  0  0  0  0  0  0  0  0  0
  -10.7916   -0.2637    0.0000 C   0  0  0  0  0  0  0  0  0  0  0  0
   -9.7117   -1.4815    0.0000 C   0  0  0  0  0  0  0  0  0  0  0  0
   -8.9523   -2.7751    0.0000 O   0  0  0  0  0  0  0  0  0  0  0  0
  -11.1645   -1.8551    0.0000 N   0  0  0  0  0  0  0  0  0  0  0  0
  -11.5673   -3.3000    0.0000 C   0  0  0  0  0  0  0  0  0  0  0  0
  -11.4516   -4.7956    0.0000 C   0  0  0  0  0  0  0  0  0  0  0  0
  -12.5764   -5.7880    0.0000 C   0  0  0  0  0  0  0  0  0  0  0  0
  -13.0200   -3.6736    0.0000 C   0  0  0  0  0  0  0  0  0  0  0  0
  -14.0699   -2.6023    0.0000 O   0  0  0  0  0  0  0  0  0  0  0  0
  -13.4228   -5.1185    0.0000 N   0  0  0  0  0  0  0  0  0  0  0  0
  -14.8756   -5.4921    0.0000 C   0  0  0  0  0  0  0  0  0  0  0  0
  -16.3685   -5.3463    0.0000 C   0  0  0  0  0  0  0  0  0  0  0  0
  -16.9887   -3.9806    0.0000 C   0  0  0  0  0  0  0  0  0  0  0  0
  -18.4815   -3.8348    0.0000 C   0  0  0  0  0  0  0  0  0  0  0  0
  -19.1017   -2.4690    0.0000 N   0  0  0  0  0  0  0  0  0  0  0  0
  -20.5946   -2.3232    0.0000 C   0  0  0  0  0  0  0  0  0  0  0  0
  -21.2148   -0.9574    0.0000 N   0  0  0  0  0  0  0  0  0  0  0  0
  -21.4673   -3.5432    0.0000 N   0  0  0  0  0  0  0  0  0  0  0  0
  -15.2784   -6.9370    0.0000 C   0  0  0  0  0  0  0  0  0  0  0  0
  -14.2285   -8.0083    0.0000 O   0  0  0  0  0  0  0  0  0  0  0  0
  -16.7311   -7.3106    0.0000 N   0  0  0  0  0  0  0  0  0  0  0  0
  -17.1339   -8.7555    0.0000 C   0  0  0  0  0  0  0  0  0  0  0  0
  -17.0183  -10.2511    0.0000 C   0  0  0  0  0  0  0  0  0  0  0  0
  -18.2556  -11.0990    0.0000 C   0  0  0  0  0  0  0  0  0  0  0  0
  -18.1400  -12.5945    0.0000 C   0  0  0  0  0  0  0  0  0  0  0  0
  -19.3773  -13.4425    0.0000 O   0  0  0  0  0  0  0  0  0  0  0  0
  -16.7870  -13.2421    0.0000 O   0  0  0  0  0  0  0  0  0  0  0  0
  -18.5867   -9.1291    0.0000 C   0  0  0  0  0  0  0  0  0  0  0  0
  -19.1626  -10.5142    0.0000 O   0  0  0  0  0  0  0  0  0  0  0  0
  -19.6366   -8.0578    0.0000 N   0  0  0  0  0  0  0  0  0  0  0  0
  -21.0893   -8.4314    0.0000 C   0  0  0  0  0  0  0  0  0  0  0  0
  -22.3266   -9.2794    0.0000 C   0  0  0  0  0  0  0  0  0  0  0  0
  -22.2110  -10.7749    0.0000 C   0  0  0  0  0  0  0  0  0  0  0  0
  -22.1392   -7.3601    0.0000 C   0  0  0  0  0  0  0  0  0  0  0  0
  -23.6267   -7.5539    0.0000 O   0  0  0  0  0  0  0  0  0  0  0  0
  -21.7364   -5.9152    0.0000 O   0  0  0  0  0  0  0  0  0  0  0  0
   26.1737  -10.0730    0.0000 H   0  0  0  0  0  0  0  0  0  0  0  0
   27.7375   -7.9983    0.0000 H   0  0  0  0  0  0  0  0  0  0  0  0
   24.4777   -9.0178    0.0000 H   0  0  0  0  0  0  0  0  0  0  0  0
   23.7244   -7.2427    0.0000 H   0  0  0  0  0  0  0  0  0  0  0  0
   26.7762   -6.6313    0.0000 H   0  0  0  0  0  0  0  0  0  0  0  0
   26.0229   -4.8562    0.0000 H   0  0  0  0  0  0  0  0  0  0  0  0
   25.7688   -3.3877    0.0000 H   0  0  0  0  0  0  0  0  0  0  0  0
   22.4479   -4.2345    0.0000 H   0  0  0  0  0  0  0  0  0  0  0  0
   24.9073   -0.5388    0.0000 H   0  0  0  0  0  0  0  0  0  0  0  0
   23.0283   -0.9724    0.0000 H   0  0  0  0  0  0  0  0  0  0  0  0
   26.7577   -1.2911    0.0000 H   0  0  0  0  0  0  0  0  0  0  0  0
   20.9347   -4.9438    0.0000 H   0  0  0  0  0  0  0  0  0  0  0  0
   18.9801   -4.5323    0.0000 H   0  0  0  0  0  0  0  0  0  0  0  0
   20.7120   -0.6730    0.0000 H   0  0  0  0  0  0  0  0  0  0  0  0
   20.8507   -2.1344    0.0000 H   0  0  0  0  0  0  0  0  0  0  0  0
   21.2065    0.9658    0.0000 H   0  0  0  0  0  0  0  0  0  0  0  0
   19.5728    3.4820    0.0000 H   0  0  0  0  0  0  0  0  0  0  0  0
   15.0790    3.2470    0.0000 H   0  0  0  0  0  0  0  0  0  0  0  0
   15.2147    0.6524    0.0000 H   0  0  0  0  0  0  0  0  0  0  0  0
   16.9790   -1.3432    0.0000 H   0  0  0  0  0  0  0  0  0  0  0  0
   17.4963   -5.0690    0.0000 H   0  0  0  0  0  0  0  0  0  0  0  0
   15.6690   -3.0478    0.0000 H   0  0  0  0  0  0  0  0  0  0  0  0
   15.4602   -7.4536    0.0000 H   0  0  0  0  0  0  0  0  0  0  0  0
   14.3253   -6.0766    0.0000 H   0  0  0  0  0  0  0  0  0  0  0  0
   18.7556   -6.3586    0.0000 H   0  0  0  0  0  0  0  0  0  0  0  0
   17.6737   -5.6550    0.0000 H   0  0  0  0  0  0  0  0  0  0  0  0
   17.4120   -9.3873    0.0000 H   0  0  0  0  0  0  0  0  0  0  0  0
   16.1177   -8.1589    0.0000 H   0  0  0  0  0  0  0  0  0  0  0  0
   20.1265   -7.3144    0.0000 H   0  0  0  0  0  0  0  0  0  0  0  0
   21.1383  -11.6992    0.0000 H   0  0  0  0  0  0  0  0  0  0  0  0
   21.8982   -9.2147    0.0000 H   0  0  0  0  0  0  0  0  0  0  0  0
   18.6068  -12.2833    0.0000 H   0  0  0  0  0  0  0  0  0  0  0  0
   16.8351  -10.3830    0.0000 H   0  0  0  0  0  0  0  0  0  0  0  0
   14.8115   -1.6135    0.0000 H   0  0  0  0  0  0  0  0  0  0  0  0
   12.0970   -3.6864    0.0000 H   0  0  0  0  0  0  0  0  0  0  0  0
   10.7820   -2.2759    0.0000 H   0  0  0  0  0  0  0  0  0  0  0  0
    9.4111   -1.3202    0.0000 H   0  0  0  0  0  0  0  0  0  0  0  0
    8.7902    0.5783    0.0000 H   0  0  0  0  0  0  0  0  0  0  0  0
   12.6330    0.0935    0.0000 H   0  0  0  0  0  0  0  0  0  0  0  0
   13.0498    1.8286    0.0000 H   0  0  0  0  0  0  0  0  0  0  0  0
   11.3317    2.7042    0.0000 H   0  0  0  0  0  0  0  0  0  0  0  0
    7.1751    1.0076    0.0000 H   0  0  0  0  0  0  0  0  0  0  0  0
    5.9423    2.5793    0.0000 H   0  0  0  0  0  0  0  0  0  0  0  0
    9.8975    4.4484    0.0000 H   0  0  0  0  0  0  0  0  0  0  0  0
    9.1011    2.8515    0.0000 H   0  0  0  0  0  0  0  0  0  0  0  0
   11.1819    5.3600    0.0000 H   0  0  0  0  0  0  0  0  0  0  0  0
   11.5478    8.3376    0.0000 H   0  0  0  0  0  0  0  0  0  0  0  0
    9.1521   10.1433    0.0000 H   0  0  0  0  0  0  0  0  0  0  0  0
    6.3905    8.9714    0.0000 H   0  0  0  0  0  0  0  0  0  0  0  0
    5.9238    6.3453    0.0000 H   0  0  0  0  0  0  0  0  0  0  0  0
    4.2778    2.4303    0.0000 H   0  0  0  0  0  0  0  0  0  0  0  0
    2.5818    3.4855    0.0000 H   0  0  0  0  0  0  0  0  0  0  0  0
    5.5580    6.7474    0.0000 H   0  0  0  0  0  0  0  0  0  0  0  0
    5.4570    4.8217    0.0000 H   0  0  0  0  0  0  0  0  0  0  0  0
    3.2059    8.5645    0.0000 H   0  0  0  0  0  0  0  0  0  0  0  0
    2.6419    6.7204    0.0000 H   0  0  0  0  0  0  0  0  0  0  0  0
    5.8798   10.8137    0.0000 H   0  0  0  0  0  0  0  0  0  0  0  0
    3.3482   10.2296    0.0000 H   0  0  0  0  0  0  0  0  0  0  0  0
    1.4122    2.9012    0.0000 H   0  0  0  0  0  0  0  0  0  0  0  0
    0.9171    3.6412    0.0000 H   0  0  0  0  0  0  0  0  0  0  0  0
    0.7284    2.3465    0.0000 H   0  0  0  0  0  0  0  0  0  0  0  0
    0.7300    1.7217    0.0000 H   0  0  0  0  0  0  0  0  0  0  0  0
    0.3037    0.6633    0.0000 H   0  0  0  0  0  0  0  0  0  0  0  0
    0.0274    0.1210    0.0000 H   0  0  0  0  0  0  0  0  0  0  0  0
   -0.8998   -1.0207    0.0000 H   0  0  0  0  0  0  0  0  0  0  0  0
   -1.5873   -1.8955    0.0000 H   0  0  0  0  0  0  0  0  0  0  0  0
    1.7851    5.8745    0.0000 H   0  0  0  0  0  0  0  0  0  0  0  0
    0.6570    7.2571    0.0000 H   0  0  0  0  0  0  0  0  0  0  0  0
   -0.7684    6.8696    0.0000 H   0  0  0  0  0  0  0  0  0  0  0  0
   -1.3570    8.3159    0.0000 H   0  0  0  0  0  0  0  0  0  0  0  0
   -2.2688    8.6344    0.0000 H   0  0  0  0  0  0  0  0  0  0  0  0
   -4.7699   10.6160    0.0000 H   0  0  0  0  0  0  0  0  0  0  0  0
   -5.3557    9.2600    0.0000 H   0  0  0  0  0  0  0  0  0  0  0  0
   -1.8119    9.1914    0.0000 H   0  0  0  0  0  0  0  0  0  0  0  0
   -1.9611   12.9632    0.0000 H   0  0  0  0  0  0  0  0  0  0  0  0
   -3.7346   13.1610    0.0000 H   0  0  0  0  0  0  0  0  0  0  0  0
   -4.4422   11.5229    0.0000 H   0  0  0  0  0  0  0  0  0  0  0  0
   -0.8740   12.3390    0.0000 H   0  0  0  0  0  0  0  0  0  0  0  0
    0.1908   10.9071    0.0000 H   0  0  0  0  0  0  0  0  0  0  0  0
   -1.0452    9.4270    0.0000 H   0  0  0  0  0  0  0  0  0  0  0  0
   -6.6721    9.7272    0.0000 H   0  0  0  0  0  0  0  0  0  0  0  0
   -7.8525    9.2117    0.0000 H   0  0  0  0  0  0  0  0  0  0  0  0
  -10.7638    8.6499    0.0000 H   0  0  0  0  0  0  0  0  0  0  0  0
  -10.0846    7.1639    0.0000 H   0  0  0  0  0  0  0  0  0  0  0  0
   -6.6467   10.1664    0.0000 H   0  0  0  0  0  0  0  0  0  0  0  0
   -6.8059   12.9991    0.0000 H   0  0  0  0  0  0  0  0  0  0  0  0
   -9.4439   14.4276    0.0000 H   0  0  0  0  0  0  0  0  0  0  0  0
  -12.0001   12.8572    0.0000 H   0  0  0  0  0  0  0  0  0  0  0  0
  -11.9181    9.8583    0.0000 H   0  0  0  0  0  0  0  0  0  0  0  0
  -11.3637    6.2682    0.0000 H   0  0  0  0  0  0  0  0  0  0  0  0
  -11.4714    5.3084    0.0000 H   0  0  0  0  0  0  0  0  0  0  0  0
  -12.9796    2.5552    0.0000 H   0  0  0  0  0  0  0  0  0  0  0  0
  -11.3943    2.1597    0.0000 H   0  0  0  0  0  0  0  0  0  0  0  0
  -13.8971    5.7390    0.0000 H   0  0  0  0  0  0  0  0  0  0  0  0
  -12.1160    5.6299    0.0000 H   0  0  0  0  0  0  0  0  0  0  0  0
  -17.0398    4.2119    0.0000 H   0  0  0  0  0  0  0  0  0  0  0  0
  -15.4760    6.2867    0.0000 H   0  0  0  0  0  0  0  0  0  0  0  0
  -11.4915    0.6013    0.0000 H   0  0  0  0  0  0  0  0  0  0  0  0
   -8.1166   -2.4975    0.0000 H   0  0  0  0  0  0  0  0  0  0  0  0
   -9.3091   -1.9593    0.0000 H   0  0  0  0  0  0  0  0  0  0  0  0
   -6.4696   -3.0462    0.0000 H   0  0  0  0  0  0  0  0  0  0  0  0
   -7.5910   -2.8354    0.0000 H   0  0  0  0  0  0  0  0  0  0  0  0
   -4.4025   -2.9391    0.0000 H   0  0  0  0  0  0  0  0  0  0  0  0
   -5.8638   -3.1054    0.0000 H   0  0  0  0  0  0  0  0  0  0  0  0
   -3.2951   -2.8308    0.0000 H   0  0  0  0  0  0  0  0  0  0  0  0
  -11.6583   -1.4880    0.0000 H   0  0  0  0  0  0  0  0  0  0  0  0
  -12.2158    0.2071    0.0000 H   0  0  0  0  0  0  0  0  0  0  0  0
  -11.1217    1.1995    0.0000 H   0  0  0  0  0  0  0  0  0  0  0  0
  -12.3371   -0.9198    0.0000 H   0  0  0  0  0  0  0  0  0  0  0  0
  -10.0744   -3.4458    0.0000 H   0  0  0  0  0  0  0  0  0  0  0  0
  -10.8314   -6.1614    0.0000 H   0  0  0  0  0  0  0  0  0  0  0  0
   -9.9989   -4.4220    0.0000 H   0  0  0  0  0  0  0  0  0  0  0  0
  -12.5733   -7.1390    0.0000 H   0  0  0  0  0  0  0  0  0  0  0  0
  -14.1417   -6.0171    0.0000 H   0  0  0  0  0  0  0  0  0  0  0  0
  -13.8779   -4.7289    0.0000 H   0  0  0  0  0  0  0  0  0  0  0  0
  -12.5113   -6.3098    0.0000 H   0  0  0  0  0  0  0  0  0  0  0  0
  -14.8081   -3.9937    0.0000 H   0  0  0  0  0  0  0  0  0  0  0  0
  -17.8212   -5.7199    0.0000 H   0  0  0  0  0  0  0  0  0  0  0  0
  -16.6181   -6.8254    0.0000 H   0  0  0  0  0  0  0  0  0  0  0  0
  -17.1043   -2.4850    0.0000 H   0  0  0  0  0  0  0  0  0  0  0  0
  -15.5923   -3.4327    0.0000 H   0  0  0  0  0  0  0  0  0  0  0  0
  -19.9343   -4.2084    0.0000 H   0  0  0  0  0  0  0  0  0  0  0  0
  -18.5491   -5.3332    0.0000 H   0  0  0  0  0  0  0  0  0  0  0  0
  -18.2290   -1.2490    0.0000 H   0  0  0  0  0  0  0  0  0  0  0  0
  -22.7077   -0.8116    0.0000 H   0  0  0  0  0  0  0  0  0  0  0  0
  -20.3421    0.2626    0.0000 H   0  0  0  0  0  0  0  0  0  0  0  0
  -22.9602   -3.3974    0.0000 H   0  0  0  0  0  0  0  0  0  0  0  0
  -20.8472   -4.9090    0.0000 H   0  0  0  0  0  0  0  0  0  0  0  0
  -17.9038   -6.3753    0.0000 H   0  0  0  0  0  0  0  0  0  0  0  0
  -15.6410   -8.9013    0.0000 H   0  0  0  0  0  0  0  0  0  0  0  0
  -16.3981  -11.6169    0.0000 H   0  0  0  0  0  0  0  0  0  0  0  0
  -15.5655   -9.8775    0.0000 H   0  0  0  0  0  0  0  0  0  0  0  0
  -19.7083  -11.4726    0.0000 H   0  0  0  0  0  0  0  0  0  0  0  0
  -19.3242  -10.0463    0.0000 H   0  0  0  0  0  0  0  0  0  0  0  0
  -19.2338   -6.6129    0.0000 H   0  0  0  0  0  0  0  0  0  0  0  0
  -20.3073   -9.7114    0.0000 H   0  0  0  0  0  0  0  0  0  0  0  0
  -23.7794   -9.6530    0.0000 H   0  0  0  0  0  0  0  0  0  0  0  0
  -23.1087   -7.9994    0.0000 H   0  0  0  0  0  0  0  0  0  0  0  0
  -23.4483  -11.6228    0.0000 H   0  0  0  0  0  0  0  0  0  0  0  0
  -21.5908  -12.1407    0.0000 H   0  0  0  0  0  0  0  0  0  0  0  0
  -20.7236  -10.5812    0.0000 H   0  0  0  0  0  0  0  0  0  0  0  0
  1  2  1  0
  2  3  1  0
  3  4  1  0
  4  5  2  0
  4  6  1  0
  6  7  1  0
  7  8  1  0
  8  9  1  0
  7 10  1  0
 10 11  2  0
 10 12  1  0
 12 13  1  0
 13 14  1  0
 14 15  1  0
 15 16  2  0
 16 17  1  0
 17 18  2  0
 18 19  1  0
 18 20  1  0
 20 21  2  0
 13 22  1  0
 22 23  2  0
 22 24  1  0
 24 25  1  0
 25 26  1  0
 26 27  1  0
 27 28  1  0
 28 29  1  0
 29 30  1  0
 30 31  2  3
 30 32  1  0
 25 33  1  0
 33 34  2  0
 33 35  1  0
 35 36  1  0
 36 37  1  0
 37 38  2  0
 37 39  1  0
 39 40  1  0
 40 41  1  0
 40 42  1  0
 42 43  2  0
 42 44  1  0
 44 45  1  0
 45 46  1  0
 46 47  1  0
 47 48  2  0
 48 49  1  0
 49 50  2  0
 50 51  1  0
 51 52  2  0
 45 53  1  0
 53 54  2  0
 53 55  1  0
 55 56  1  0
 56 57  1  0
 57 58  1  0
 58 59  1  0
 59 60  1  0
 59 61  2  0
 56 62  1  0
 62 63  2  0
 62 64  1  0
 65 64  1  1
 65 66  1  0
 66 67  1  0
 67 68  1  0
 68 69  1  0
 65 70  1  0
 65 71  1  0
 71 72  2  0
 71 73  1  0
 73 74  1  0
 74 75  1  0
 75 76  1  0
 76 77  1  0
 76 78  1  0
 74 79  1  0
 79 80  2  0
 79 81  1  0
 81 82  1  0
 82 83  1  0
 83 84  1  0
 84 85  2  0
 85 86  1  0
 86 87  2  0
 87 88  1  0
 88 89  2  0
 82 90  1  0
 90 91  2  0
 90 92  1  0
 92 93  1  0
 93 94  1  0
 94 95  1  0
 95 96  1  0
 96 97  1  0
 96 98  2  0
 93 99  1  0
 99100  2  0
 99101  1  0
101102  1  0
102103  1  0
103104  1  0
104105  1  0
105106  1  0
102107  1  0
102108  1  1
108109  2  0
108110  1  0
110111  1  0
111112  1  0
112113  1  0
111114  1  0
114115  2  0
114116  1  0
116117  1  0
117118  1  0
118119  1  0
119120  1  0
120121  1  0
121122  1  0
122123  2  3
122124  1  0
117125  1  0
125126  2  0
125127  1  0
127128  1  0
128129  1  0
129130  1  0
130131  1  0
131132  2  0
131133  1  0
128134  1  0
134135  2  0
134136  1  0
136137  1  0
137138  1  0
138139  1  0
137140  1  0
140141  2  0
140142  1  0
 21 15  1  0
 52 47  1  0
 89 84  1  0
 69106  2  0
  1143  1  0
  1144  1  0
  2145  1  0
  2146  1  0
  3147  1  0
  3148  1  0
  6149  1  0
  7150  1  6
  8151  1  0
  8152  1  0
  9153  1  0
 12154  1  0
 13155  1  6
 14156  1  0
 14157  1  0
 16158  1  0
 17159  1  0
 19160  1  0
 20161  1  0
 21162  1  0
 24163  1  0
 25164  1  1
 26165  1  0
 26166  1  0
 27167  1  0
 27168  1  0
 28169  1  0
 28170  1  0
 29171  1  0
 31172  1  0
 31173  1  0
 32174  1  0
 32175  1  0
 35176  1  0
 36177  1  0
 36178  1  0
 39179  1  0
 40180  1  6
 41181  1  0
 41182  1  0
 41183  1  0
 44184  1  0
 45185  1  6
 46186  1  0
 46187  1  0
 48188  1  0
 49189  1  0
 50190  1  0
 51191  1  0
 52192  1  0
 55193  1  0
 56194  1  6
 57195  1  0
 57196  1  0
 58197  1  0
 58198  1  0
 60199  1  0
 60200  1  0
 64201  1  0
 66202  1  0
 66203  1  0
 67204  1  0
 67205  1  0
 68206  1  0
 68207  1  0
 69208  1  0
 70209  1  0
 70210  1  0
 70211  1  0
 73212  1  0
 74213  1  6
 75214  1  0
 75215  1  0
 76216  1  0
 77217  1  0
 77218  1  0
 77219  1  0
 78220  1  0
 78221  1  0
 78222  1  0
 81223  1  0
 82224  1  6
 83225  1  0
 83226  1  0
 85227  1  0
 86228  1  0
 87229  1  0
 88230  1  0
 89231  1  0
 92232  1  0
 93233  1  6
 94234  1  0
 94235  1  0
 95236  1  0
 95237  1  0
 97238  1  0
 97239  1  0
101240  1  0
103241  1  0
103242  1  0
104243  1  0
104244  1  0
105245  1  0
105246  1  0
106247  1  0
107248  1  0
107249  1  0
107250  1  0
110251  1  0
111252  1  1
112253  1  0
112254  1  0
113255  1  0
113256  1  0
113257  1  0
116258  1  0
117259  1  6
118260  1  0
118261  1  0
119262  1  0
119263  1  0
120264  1  0
120265  1  0
121266  1  0
123267  1  0
123268  1  0
124269  1  0
124270  1  0
127271  1  0
128272  1  1
129273  1  0
129274  1  0
130275  1  0
130276  1  0
136277  1  0
137278  1  1
138279  1  0
138280  1  0
139281  1  0
139282  1  0
139283  1  0
M  CHG  4  31   1 123   1 133  -1 142  -1
M  END
