
     RDKit          2D

280281  0  0  0  0  0  0  0  0999 V2000
  -25.6942    6.7563    0.0000 N   0  0  0  0  0  0  0  0  0  0  0  0
  -24.3353    6.1211    0.0000 C   0  0  0  0  0  0  0  0  0  0  0  0
  -24.2060    4.6267    0.0000 C   0  0  0  0  0  0  0  0  0  0  0  0
  -22.8471    3.9915    0.0000 C   0  0  0  0  0  0  0  0  0  0  0  0
  -21.7315    4.9942    0.0000 O   0  0  0  0  0  0  0  0  0  0  0  0
  -22.7178    2.4971    0.0000 N   0  0  0  0  0  0  0  0  0  0  0  0
  -21.3589    1.8619    0.0000 C   0  0  0  0  0  0  0  0  0  0  0  0
  -20.9693    3.3104    0.0000 C   0  0  0  0  0  0  0  0  0  0  0  0
  -19.5201    3.6973    0.0000 C   0  0  0  0  0  0  0  0  0  0  0  0
  -19.1305    5.1458    0.0000 C   0  0  0  0  0  0  0  0  0  0  0  0
  -17.6812    5.5327    0.0000 N   0  0  0  0  0  0  0  0  0  0  0  0
  -17.2916    6.9812    0.0000 C   0  0  0  0  0  0  0  0  0  0  0  0
  -15.8424    7.3681    0.0000 N   0  0  0  0  0  0  0  0  0  0  0  0
  -18.3513    8.0428    0.0000 N   0  0  0  0  0  0  0  0  0  0  0  0
  -20.2993    0.8002    0.0000 C   0  0  0  0  0  0  0  0  0  0  0  0
  -18.8500    1.1871    0.0000 O   0  0  0  0  0  0  0  0  0  0  0  0
  -20.6888   -0.6483    0.0000 N   0  0  0  0  0  0  0  0  0  0  0  0
  -19.6292   -1.7100    0.0000 C   0  0  0  0  0  0  0  0  0  0  0  0
  -20.8587   -2.5692    0.0000 C   0  0  0  0  0  0  0  0  0  0  0  0
  -22.2176   -1.9340    0.0000 C   0  0  0  0  0  0  0  0  0  0  0  0
  -23.4471   -2.7932    0.0000 C   0  0  0  0  0  0  0  0  0  0  0  0
  -24.8060   -2.1580    0.0000 N   0  0  0  0  0  0  0  0  0  0  0  0
  -26.0355   -3.0172    0.0000 C   0  0  0  0  0  0  0  0  0  0  0  0
  -27.3944   -2.3820    0.0000 N   0  0  0  0  0  0  0  0  0  0  0  0
  -25.9062   -4.5116    0.0000 N   0  0  0  0  0  0  0  0  0  0  0  0
  -18.2703   -2.3452    0.0000 C   0  0  0  0  0  0  0  0  0  0  0  0
  -18.1410   -3.8396    0.0000 O   0  0  0  0  0  0  0  0  0  0  0  0
  -17.0408   -1.4859    0.0000 N   0  0  0  0  0  0  0  0  0  0  0  0
  -15.6819   -2.1211    0.0000 C   0  0  0  0  0  0  0  0  0  0  0  0
  -14.4524   -1.2619    0.0000 C   0  0  0  0  0  0  0  0  0  0  0  0
  -14.6174   -0.4820    0.0000 O   0  0  0  0  0  0  0  0  0  0  0  0
  -13.0935   -1.8971    0.0000 N   0  0  0  0  0  0  0  0  0  0  0  0
  -11.8640   -1.0379    0.0000 C   0  0  0  0  0  0  0  0  0  0  0  0
  -12.9236    0.0237    0.0000 C   0  0  0  0  0  0  0  0  0  0  0  0
  -14.4092   -0.1836    0.0000 O   0  0  0  0  0  0  0  0  0  0  0  0
  -10.4147   -0.6511    0.0000 C   0  0  0  0  0  0  0  0  0  0  0  0
  -10.0251    0.7975    0.0000 O   0  0  0  0  0  0  0  0  0  0  0  0
   -9.3551   -1.7127    0.0000 N   0  0  0  0  0  0  0  0  0  0  0  0
   -7.9058   -1.3258    0.0000 C   0  0  0  0  0  0  0  0  0  0  0  0
   -7.7765   -2.8203    0.0000 C   0  0  0  0  0  0  0  0  0  0  0  0
   -9.0060   -3.6795    0.0000 C   0  0  0  0  0  0  0  0  0  0  0  0
   -8.8767   -5.1739    0.0000 C   0  0  0  0  0  0  0  0  0  0  0  0
  -10.1062   -6.0331    0.0000 N   0  0  0  0  0  0  0  0  0  0  0  0
   -9.9769   -7.5275    0.0000 C   0  0  0  0  0  0  0  0  0  0  0  0
  -11.2064   -8.3867    0.0000 N   0  0  0  0  0  0  0  0  0  0  0  0
   -8.6180   -8.1627    0.0000 N   0  0  0  0  0  0  0  0  0  0  0  0
   -6.6763   -0.4666    0.0000 C   0  0  0  0  0  0  0  0  0  0  0  0
   -5.5115   -1.4118    0.0000 O   0  0  0  0  0  0  0  0  0  0  0  0
   -6.8056    1.0278    0.0000 N   0  0  0  0  0  0  0  0  0  0  0  0
   -8.0906    1.8015    0.0000 C   0  0  0  0  0  0  0  0  0  0  0  0
   -7.7518    3.2628    0.0000 C   0  0  0  0  0  0  0  0  0  0  0  0
   -6.2574    3.3921    0.0000 C   0  0  0  0  0  0  0  0  0  0  0  0
   -5.6726    2.0108    0.0000 C   0  0  0  0  0  0  0  0  0  0  0  0
   -4.8134    0.7813    0.0000 C   0  0  0  0  0  0  0  0  0  0  0  0
   -3.3190    0.9106    0.0000 O   0  0  0  0  0  0  0  0  0  0  0  0
   -5.4486   -0.5776    0.0000 N   0  0  0  0  0  0  0  0  0  0  0  0
   -4.5894   -1.8071    0.0000 C   0  0  0  0  0  0  0  0  0  0  0  0
   -5.9494   -2.4398    0.0000 C   0  0  0  0  0  0  0  0  0  0  0  0
   -7.4046   -2.0756    0.0000 O   0  0  0  0  0  0  0  0  0  0  0  0
   -3.3615   -2.6686    0.0000 C   0  0  0  0  0  0  0  0  0  0  0  0
   -3.4936   -4.1628    0.0000 O   0  0  0  0  0  0  0  0  0  0  0  0
   -2.0014   -2.0360    0.0000 N   0  0  0  0  0  0  0  0  0  0  0  0
   -0.7735   -2.8975    0.0000 C   0  0  0  0  0  0  0  0  0  0  0  0
    0.5866   -2.2649    0.0000 C   0  0  0  0  0  0  0  0  0  0  0  0
    0.5356   -0.7657    0.0000 O   0  0  0  0  0  0  0  0  0  0  0  0
    1.8145   -3.1264    0.0000 N   0  0  0  0  0  0  0  0  0  0  0  0
    3.1745   -2.4937    0.0000 C   0  0  0  0  0  0  0  0  0  0  0  0
    2.3153   -1.2642    0.0000 C   0  0  0  0  0  0  0  0  0  0  0  0
    4.6690   -2.3644    0.0000 C   0  0  0  0  0  0  0  0  0  0  0  0
    4.7749   -0.8681    0.0000 O   0  0  0  0  0  0  0  0  0  0  0  0
    5.5282   -3.5939    0.0000 N   0  0  0  0  0  0  0  0  0  0  0  0
    7.0226   -3.4646    0.0000 C   0  0  0  0  0  0  0  0  0  0  0  0
    6.2901   -2.1556    0.0000 C   0  0  0  0  0  0  0  0  0  0  0  0
    5.9759   -0.6889    0.0000 C   0  0  0  0  0  0  0  0  0  0  0  0
    6.1080    0.8053    0.0000 C   0  0  0  0  0  0  0  0  0  0  0  0
    6.6747    2.1941    0.0000 C   0  0  0  0  0  0  0  0  0  0  0  0
    6.5258   -4.8800    0.0000 C   0  0  0  0  0  0  0  0  0  0  0  0
    8.1084   -4.4995    0.0000 C   0  0  0  0  0  0  0  0  0  0  0  0
    7.2469   -5.7274    0.0000 O   0  0  0  0  0  0  0  0  0  0  0  0
    9.4510   -5.1684    0.0000 N   0  0  0  0  0  0  0  0  0  0  0  0
   10.9311   -5.4118    0.0000 C   0  0  0  0  0  0  0  0  0  0  0  0
   11.7280   -6.6826    0.0000 C   0  0  0  0  0  0  0  0  0  0  0  0
   11.0258   -8.0082    0.0000 C   0  0  0  0  0  0  0  0  0  0  0  0
   11.8227   -9.2790    0.0000 C   0  0  0  0  0  0  0  0  0  0  0  0
   11.1205  -10.6045    0.0000 N   0  0  0  0  0  0  0  0  0  0  0  0
   11.9174  -11.8753    0.0000 C   0  0  0  0  0  0  0  0  0  0  0  0
   11.2152  -13.2009    0.0000 N   0  0  0  0  0  0  0  0  0  0  0  0
   13.4164  -11.8207    0.0000 N   0  0  0  0  0  0  0  0  0  0  0  0
   12.4172   -5.2081    0.0000 C   0  0  0  0  0  0  0  0  0  0  0  0
   12.8401   -6.6473    0.0000 O   0  0  0  0  0  0  0  0  0  0  0  0
   13.7773   -4.5755    0.0000 N   0  0  0  0  0  0  0  0  0  0  0  0
   14.8904   -3.5701    0.0000 C   0  0  0  0  0  0  0  0  0  0  0  0
   16.3808   -3.7394    0.0000 C   0  0  0  0  0  0  0  0  0  0  0  0
   16.9794   -5.1148    0.0000 C   0  0  0  0  0  0  0  0  0  0  0  0
   18.4698   -5.2842    0.0000 C   0  0  0  0  0  0  0  0  0  0  0  0
   19.0683   -6.6596    0.0000 N   0  0  0  0  0  0  0  0  0  0  0  0
   20.5588   -6.8289    0.0000 C   0  0  0  0  0  0  0  0  0  0  0  0
   21.1573   -8.2043    0.0000 N   0  0  0  0  0  0  0  0  0  0  0  0
   21.4506   -5.6228    0.0000 N   0  0  0  0  0  0  0  0  0  0  0  0
   15.6578   -2.2812    0.0000 C   0  0  0  0  0  0  0  0  0  0  0  0
   17.0466   -2.8479    0.0000 O   0  0  0  0  0  0  0  0  0  0  0  0
   16.0111   -0.8234    0.0000 N   0  0  0  0  0  0  0  0  0  0  0  0
   15.9191    0.6738    0.0000 C   0  0  0  0  0  0  0  0  0  0  0  0
   16.9807    1.7334    0.0000 C   0  0  0  0  0  0  0  0  0  0  0  0
   18.4293    1.3438    0.0000 C   0  0  0  0  0  0  0  0  0  0  0  0
   19.4909    2.4035    0.0000 C   0  0  0  0  0  0  0  0  0  0  0  0
   20.9394    2.0139    0.0000 N   0  0  0  0  0  0  0  0  0  0  0  0
   22.0011    3.0736    0.0000 C   0  0  0  0  0  0  0  0  0  0  0  0
   23.4496    2.6840    0.0000 N   0  0  0  0  0  0  0  0  0  0  0  0
   21.6142    4.5228    0.0000 N   0  0  0  0  0  0  0  0  0  0  0  0
   15.3898    2.0773    0.0000 C   0  0  0  0  0  0  0  0  0  0  0  0
   16.6988    2.8098    0.0000 O   0  0  0  0  0  0  0  0  0  0  0  0
   14.4704    3.2625    0.0000 N   0  0  0  0  0  0  0  0  0  0  0  0
   13.2425    4.1240    0.0000 C   0  0  0  0  0  0  0  0  0  0  0  0
   11.8152    4.5853    0.0000 C   0  0  0  0  0  0  0  0  0  0  0  0
   10.3153    4.6054    0.0000 C   0  0  0  0  0  0  0  0  0  0  0  0
    8.8762    4.1825    0.0000 C   0  0  0  0  0  0  0  0  0  0  0  0
    7.6256    3.3542    0.0000 C   0  0  0  0  0  0  0  0  0  0  0  0
   14.5328    4.8889    0.0000 C   0  0  0  0  0  0  0  0  0  0  0  0
   13.0759    5.6147    0.0000 C   0  0  0  0  0  0  0  0  0  0  0  0
   11.8880    6.5305    0.0000 O   0  0  0  0  0  0  0  0  0  0  0  0
   14.2837    6.5043    0.0000 N   0  0  0  0  0  0  0  0  0  0  0  0
   14.1171    7.9950    0.0000 C   0  0  0  0  0  0  0  0  0  0  0  0
   13.4508    9.3389    0.0000 C   0  0  0  0  0  0  0  0  0  0  0  0
   14.2814   10.5879    0.0000 C   0  0  0  0  0  0  0  0  0  0  0  0
   13.6150   11.9318    0.0000 C   0  0  0  0  0  0  0  0  0  0  0  0
   14.4457   13.1808    0.0000 N   0  0  0  0  0  0  0  0  0  0  0  0
   13.7793   14.5247    0.0000 C   0  0  0  0  0  0  0  0  0  0  0  0
   14.6099   15.7737    0.0000 N   0  0  0  0  0  0  0  0  0  0  0  0
   12.2823   14.6195    0.0000 N   0  0  0  0  0  0  0  0  0  0  0  0
   15.3249    8.8846    0.0000 C   0  0  0  0  0  0  0  0  0  0  0  0
   15.3413   10.3845    0.0000 O   0  0  0  0  0  0  0  0  0  0  0  0
   16.6991    8.2835    0.0000 O   0  0  0  0  0  0  0  0  0  0  0  0
  -25.8235    8.2507    0.0000 H   0  0  0  0  0  0  0  0  0  0  0  0
  -26.9237    5.8971    0.0000 H   0  0  0  0  0  0  0  0  0  0  0  0
  -23.9457    7.5696    0.0000 H   0  0  0  0  0  0  0  0  0  0  0  0
  -22.8411    5.9890    0.0000 H   0  0  0  0  0  0  0  0  0  0  0  0
  -25.7002    4.7588    0.0000 H   0  0  0  0  0  0  0  0  0  0  0  0
  -24.5956    3.1782    0.0000 H   0  0  0  0  0  0  0  0  0  0  0  0
  -23.9473    1.6379    0.0000 H   0  0  0  0  0  0  0  0  0  0  0  0
  -22.2204    0.6340    0.0000 H   0  0  0  0  0  0  0  0  0  0  0  0
  -21.0987    4.8048    0.0000 H   0  0  0  0  0  0  0  0  0  0  0  0
  -22.3871    3.8002    0.0000 H   0  0  0  0  0  0  0  0  0  0  0  0
  -18.0259    3.5651    0.0000 H   0  0  0  0  0  0  0  0  0  0  0  0
  -19.3907    2.2029    0.0000 H   0  0  0  0  0  0  0  0  0  0  0  0
  -19.2598    6.6402    0.0000 H   0  0  0  0  0  0  0  0  0  0  0  0
  -20.5974    5.4591    0.0000 H   0  0  0  0  0  0  0  0  0  0  0  0
  -16.6216    4.4710    0.0000 H   0  0  0  0  0  0  0  0  0  0  0  0
  -15.4528    8.8166    0.0000 H   0  0  0  0  0  0  0  0  0  0  0  0
  -14.7827    6.3064    0.0000 H   0  0  0  0  0  0  0  0  0  0  0  0
  -17.9617    9.4914    0.0000 H   0  0  0  0  0  0  0  0  0  0  0  0
  -19.8006    7.6560    0.0000 H   0  0  0  0  0  0  0  0  0  0  0  0
  -22.1744   -0.8556    0.0000 H   0  0  0  0  0  0  0  0  0  0  0  0
  -18.7677   -0.4820    0.0000 H   0  0  0  0  0  0  0  0  0  0  0  0
  -21.5641   -3.8929    0.0000 H   0  0  0  0  0  0  0  0  0  0  0  0
  -19.7990   -3.6308    0.0000 H   0  0  0  0  0  0  0  0  0  0  0  0
  -23.2772   -0.8723    0.0000 H   0  0  0  0  0  0  0  0  0  0  0  0
  -21.8534   -0.4788    0.0000 H   0  0  0  0  0  0  0  0  0  0  0  0
  -24.3086   -4.0211    0.0000 H   0  0  0  0  0  0  0  0  0  0  0  0
  -22.5248   -3.9761    0.0000 H   0  0  0  0  0  0  0  0  0  0  0  0
  -24.9353   -0.6636    0.0000 H   0  0  0  0  0  0  0  0  0  0  0  0
  -28.6239   -3.2412    0.0000 H   0  0  0  0  0  0  0  0  0  0  0  0
  -27.5237   -0.8876    0.0000 H   0  0  0  0  0  0  0  0  0  0  0  0
  -27.1357   -5.3708    0.0000 H   0  0  0  0  0  0  0  0  0  0  0  0
  -24.5473   -5.1468    0.0000 H   0  0  0  0  0  0  0  0  0  0  0  0
  -17.1701    0.0085    0.0000 H   0  0  0  0  0  0  0  0  0  0  0  0
  -16.5434   -3.3491    0.0000 H   0  0  0  0  0  0  0  0  0  0  0  0
  -14.6222   -3.1828    0.0000 H   0  0  0  0  0  0  0  0  0  0  0  0
  -12.9642   -3.3916    0.0000 H   0  0  0  0  0  0  0  0  0  0  0  0
  -11.2313   -2.3980    0.0000 H   0  0  0  0  0  0  0  0  0  0  0  0
  -13.5563    1.3838    0.0000 H   0  0  0  0  0  0  0  0  0  0  0  0
  -11.6941    0.8829    0.0000 H   0  0  0  0  0  0  0  0  0  0  0  0
  -15.4326    0.6985    0.0000 H   0  0  0  0  0  0  0  0  0  0  0  0
   -9.9183   -3.1029    0.0000 H   0  0  0  0  0  0  0  0  0  0  0  0
   -8.6995   -0.0530    0.0000 H   0  0  0  0  0  0  0  0  0  0  0  0
   -7.1438   -4.1803    0.0000 H   0  0  0  0  0  0  0  0  0  0  0  0
   -6.2767   -2.7956    0.0000 H   0  0  0  0  0  0  0  0  0  0  0  0
  -10.4553   -4.0663    0.0000 H   0  0  0  0  0  0  0  0  0  0  0  0
  -10.0841   -2.6366    0.0000 H   0  0  0  0  0  0  0  0  0  0  0  0
   -8.2440   -6.5339    0.0000 H   0  0  0  0  0  0  0  0  0  0  0  0
   -7.3911   -4.9666    0.0000 H   0  0  0  0  0  0  0  0  0  0  0  0
  -11.4651   -5.3979    0.0000 H   0  0  0  0  0  0  0  0  0  0  0  0
  -11.0771   -9.8811    0.0000 H   0  0  0  0  0  0  0  0  0  0  0  0
  -12.5653   -7.7515    0.0000 H   0  0  0  0  0  0  0  0  0  0  0  0
   -8.4887   -9.6571    0.0000 H   0  0  0  0  0  0  0  0  0  0  0  0
   -7.3885   -7.3035    0.0000 H   0  0  0  0  0  0  0  0  0  0  0  0
   -9.5084    2.2912    0.0000 H   0  0  0  0  0  0  0  0  0  0  0  0
   -8.8867    0.5302    0.0000 H   0  0  0  0  0  0  0  0  0  0  0  0
   -7.7242    4.7625    0.0000 H   0  0  0  0  0  0  0  0  0  0  0  0
   -9.2405    3.4470    0.0000 H   0  0  0  0  0  0  0  0  0  0  0  0
   -4.8225    3.8293    0.0000 H   0  0  0  0  0  0  0  0  0  0  0  0
   -6.5422    4.8648    0.0000 H   0  0  0  0  0  0  0  0  0  0  0  0
   -4.3600    2.7368    0.0000 H   0  0  0  0  0  0  0  0  0  0  0  0
   -6.9161   -0.8881    0.0000 H   0  0  0  0  0  0  0  0  0  0  0  0
   -3.5277   -0.7475    0.0000 H   0  0  0  0  0  0  0  0  0  0  0  0
   -6.8740   -3.6210    0.0000 H   0  0  0  0  0  0  0  0  0  0  0  0
   -5.0902   -3.6693    0.0000 H   0  0  0  0  0  0  0  0  0  0  0  0
   -8.5374   -2.2109    0.0000 H   0  0  0  0  0  0  0  0  0  0  0  0
   -1.8693   -0.5418    0.0000 H   0  0  0  0  0  0  0  0  0  0  0  0
   -1.8352   -3.9572    0.0000 H   0  0  0  0  0  0  0  0  0  0  0  0
    0.0857   -4.1270    0.0000 H   0  0  0  0  0  0  0  0  0  0  0  0
    1.6823   -4.6205    0.0000 H   0  0  0  0  0  0  0  0  0  0  0  0
    3.5614   -3.9430    0.0000 H   0  0  0  0  0  0  0  0  0  0  0  0
    0.8163   -1.2104    0.0000 H   0  0  0  0  0  0  0  0  0  0  0  0
    1.9285    0.1851    0.0000 H   0  0  0  0  0  0  0  0  0  0  0  0
    3.6754   -0.6315    0.0000 H   0  0  0  0  0  0  0  0  0  0  0  0
    4.7321   -4.8652    0.0000 H   0  0  0  0  0  0  0  0  0  0  0  0
    5.1329   -3.1100    0.0000 H   0  0  0  0  0  0  0  0  0  0  0  0
    4.8735   -1.6624    0.0000 H   0  0  0  0  0  0  0  0  0  0  0  0
    4.4919   -0.9072    0.0000 H   0  0  0  0  0  0  0  0  0  0  0  0
    4.5885   -0.1188    0.0000 H   0  0  0  0  0  0  0  0  0  0  0  0
    4.6421    0.4875    0.0000 H   0  0  0  0  0  0  0  0  0  0  0  0
    5.0752    1.8930    0.0000 H   0  0  0  0  0  0  0  0  0  0  0  0
    5.3859    2.9615    0.0000 H   0  0  0  0  0  0  0  0  0  0  0  0
    5.0965   -5.3351    0.0000 H   0  0  0  0  0  0  0  0  0  0  0  0
    6.5431   -6.3799    0.0000 H   0  0  0  0  0  0  0  0  0  0  0  0
    7.9031   -5.4743    0.0000 H   0  0  0  0  0  0  0  0  0  0  0  0
    8.9897   -6.5957    0.0000 H   0  0  0  0  0  0  0  0  0  0  0  0
    9.9544   -6.5503    0.0000 H   0  0  0  0  0  0  0  0  0  0  0  0
   13.0149   -7.4532    0.0000 H   0  0  0  0  0  0  0  0  0  0  0  0
   13.0513   -5.9764    0.0000 H   0  0  0  0  0  0  0  0  0  0  0  0
    9.9127   -9.0136    0.0000 H   0  0  0  0  0  0  0  0  0  0  0  0
    9.7388   -7.2376    0.0000 H   0  0  0  0  0  0  0  0  0  0  0  0
   13.0061  -10.2006    0.0000 H   0  0  0  0  0  0  0  0  0  0  0  0
   13.0501   -8.4167    0.0000 H   0  0  0  0  0  0  0  0  0  0  0  0
    9.6215  -10.6592    0.0000 H   0  0  0  0  0  0  0  0  0  0  0  0
   12.0121  -14.4717    0.0000 H   0  0  0  0  0  0  0  0  0  0  0  0
    9.7162  -13.2555    0.0000 H   0  0  0  0  0  0  0  0  0  0  0  0
   14.2132  -13.0915    0.0000 H   0  0  0  0  0  0  0  0  0  0  0  0
   14.1185  -10.4951    0.0000 H   0  0  0  0  0  0  0  0  0  0  0  0
   14.6056   -5.8261    0.0000 H   0  0  0  0  0  0  0  0  0  0  0  0
   15.1715   -5.0435    0.0000 H   0  0  0  0  0  0  0  0  0  0  0  0
   17.7857   -3.2136    0.0000 H   0  0  0  0  0  0  0  0  0  0  0  0
   16.6538   -2.2645    0.0000 H   0  0  0  0  0  0  0  0  0  0  0  0
   17.0714   -6.6120    0.0000 H   0  0  0  0  0  0  0  0  0  0  0  0
   15.5746   -5.6406    0.0000 H   0  0  0  0  0  0  0  0  0  0  0  0
   19.9282   -4.9335    0.0000 H   0  0  0  0  0  0  0  0  0  0  0  0
   18.5609   -3.7869    0.0000 H   0  0  0  0  0  0  0  0  0  0  0  0
   18.1765   -7.8656    0.0000 H   0  0  0  0  0  0  0  0  0  0  0  0
   22.6477   -8.3737    0.0000 H   0  0  0  0  0  0  0  0  0  0  0  0
   20.2654   -9.4104    0.0000 H   0  0  0  0  0  0  0  0  0  0  0  0
   22.9410   -5.7922    0.0000 H   0  0  0  0  0  0  0  0  0  0  0  0
   20.8521   -4.2474    0.0000 H   0  0  0  0  0  0  0  0  0  0  0  0
   17.5053   -0.9555    0.0000 H   0  0  0  0  0  0  0  0  0  0  0  0
   17.2463   -0.0251    0.0000 H   0  0  0  0  0  0  0  0  0  0  0  0
   17.4456    3.1596    0.0000 H   0  0  0  0  0  0  0  0  0  0  0  0
   15.9978    2.8665    0.0000 H   0  0  0  0  0  0  0  0  0  0  0  0
   19.6572    0.4823    0.0000 H   0  0  0  0  0  0  0  0  0  0  0  0
   17.9644   -0.0823    0.0000 H   0  0  0  0  0  0  0  0  0  0  0  0
   20.1261    3.7624    0.0000 H   0  0  0  0  0  0  0  0  0  0  0  0
   18.3772    3.4083    0.0000 H   0  0  0  0  0  0  0  0  0  0  0  0
   21.3263    0.5647    0.0000 H   0  0  0  0  0  0  0  0  0  0  0  0
   24.5113    3.7437    0.0000 H   0  0  0  0  0  0  0  0  0  0  0  0
   23.8365    1.2347    0.0000 H   0  0  0  0  0  0  0  0  0  0  0  0
   22.6759    5.5825    0.0000 H   0  0  0  0  0  0  0  0  0  0  0  0
   20.1657    4.9124    0.0000 H   0  0  0  0  0  0  0  0  0  0  0  0
   15.5053    4.3483    0.0000 H   0  0  0  0  0  0  0  0  0  0  0  0
   11.2166    5.9607    0.0000 H   0  0  0  0  0  0  0  0  0  0  0  0
   12.5239    5.9073    0.0000 H   0  0  0  0  0  0  0  0  0  0  0  0
    9.4839    5.8539    0.0000 H   0  0  0  0  0  0  0  0  0  0  0  0
   10.6028    6.0776    0.0000 H   0  0  0  0  0  0  0  0  0  0  0  0
    7.6068    4.9818    0.0000 H   0  0  0  0  0  0  0  0  0  0  0  0
    8.9000    5.6823    0.0000 H   0  0  0  0  0  0  0  0  0  0  0  0
    6.6202    4.4674    0.0000 H   0  0  0  0  0  0  0  0  0  0  0  0
   14.8790    6.3484    0.0000 H   0  0  0  0  0  0  0  0  0  0  0  0
   16.0297    4.9846    0.0000 H   0  0  0  0  0  0  0  0  0  0  0  0
   15.3859    3.6552    0.0000 H   0  0  0  0  0  0  0  0  0  0  0  0
   15.7210    6.0752    0.0000 H   0  0  0  0  0  0  0  0  0  0  0  0
   12.6780    7.5722    0.0000 H   0  0  0  0  0  0  0  0  0  0  0  0
   12.2469   10.2337    0.0000 H   0  0  0  0  0  0  0  0  0  0  0  0
   12.2430    8.4493    0.0000 H   0  0  0  0  0  0  0  0  0  0  0  0
   15.4891   11.4775    0.0000 H   0  0  0  0  0  0  0  0  0  0  0  0
   15.6660   10.0110    0.0000 H   0  0  0  0  0  0  0  0  0  0  0  0
   12.5292   12.9667    0.0000 H   0  0  0  0  0  0  0  0  0  0  0  0
   12.3079   11.1960    0.0000 H   0  0  0  0  0  0  0  0  0  0  0  0
   15.9427   13.0859    0.0000 H   0  0  0  0  0  0  0  0  0  0  0  0
   13.9436   17.1175    0.0000 H   0  0  0  0  0  0  0  0  0  0  0  0
   16.1069   15.6788    0.0000 H   0  0  0  0  0  0  0  0  0  0  0  0
   11.6160   15.9634    0.0000 H   0  0  0  0  0  0  0  0  0  0  0  0
   11.4517   13.3705    0.0000 H   0  0  0  0  0  0  0  0  0  0  0  0
  1  2  1  0
  2  3  1  0
  3  4  1  0
  4  5  2  0
  4  6  1  0
  6  7  1  0
  7  8  1  0
  8  9  1  0
  9 10  1  0
 10 11  1  0
 11 12  1  0
 12 13  2  3
 12 14  1  0
  7 15  1  0
 15 16  2  0
 15 17  1  0
 17 18  1  0
 18 19  1  0
 19 20  1  0
 20 21  1  0
 21 22  1  0
 22 23  1  0
 23 24  2  3
 23 25  1  0
 18 26  1  0
 26 27  2  0
 26 28  1  0
 28 29  1  0
 29 30  1  0
 30 31  2  0
 30 32  1  0
 32 33  1  0
 33 34  1  0
 34 35  1  0
 33 36  1  0
 36 37  2  0
 36 38  1  0
 38 39  1  0
 39 40  1  0
 40 41  1  0
 41 42  1  0
 42 43  1  0
 43 44  1  0
 44 45  2  3
 44 46  1  0
 39 47  1  0
 47 48  2  0
 47 49  1  0
 49 50  1  0
 50 51  1  0
 51 52  1  0
 52 53  1  0
 53 54  1  0
 54 55  2  0
 54 56  1  0
 56 57  1  0
 57 58  1  0
 58 59  1  0
 57 60  1  0
 60 61  2  0
 60 62  1  0
 62 63  1  0
 63 64  1  0
 64 65  2  0
 64 66  1  0
 66 67  1  0
 67 68  1  0
 67 69  1  0
 69 70  2  0
 69 71  1  0
 72 71  1  1
 72 73  1  0
 73 74  1  0
 74 75  1  0
 75 76  1  0
 72 77  1  0
 72 78  1  0
 78 79  2  0
 78 80  1  0
 80 81  1  0
 81 82  1  0
 82 83  1  0
 83 84  1  0
 84 85  1  0
 85 86  1  0
 86 87  2  3
 86 88  1  0
 81 89  1  0
 89 90  2  0
 89 91  1  0
 91 92  1  0
 92 93  1  0
 93 94  1  0
 94 95  1  0
 95 96  1  0
 96 97  1  0
 97 98  2  3
 97 99  1  0
 92100  1  0
100101  2  0
100102  1  0
102103  1  0
103104  1  0
104105  1  0
105106  1  0
106107  1  0
107108  1  0
108109  2  3
108110  1  0
103111  1  0
111112  2  0
111113  1  0
113114  1  0
114115  1  0
115116  1  0
116117  1  0
117118  1  0
114119  1  0
114120  1  1
120121  2  0
120122  1  0
122123  1  0
123124  1  0
124125  1  0
125126  1  0
126127  1  0
127128  1  0
128129  2  3
128130  1  0
123131  1  0
131132  2  0
131133  1  0
 53 49  1  0
 76118  2  0
  1134  1  0
  1135  1  0
  2136  1  0
  2137  1  0
  3138  1  0
  3139  1  0
  6140  1  0
  7141  1  1
  8142  1  0
  8143  1  0
  9144  1  0
  9145  1  0
 10146  1  0
 10147  1  0
 11148  1  0
 13149  1  0
 13150  1  0
 14151  1  0
 14152  1  0
 17153  1  0
 18154  1  6
 19155  1  0
 19156  1  0
 20157  1  0
 20158  1  0
 21159  1  0
 21160  1  0
 22161  1  0
 24162  1  0
 24163  1  0
 25164  1  0
 25165  1  0
 28166  1  0
 29167  1  0
 29168  1  0
 32169  1  0
 33170  1  1
 34171  1  0
 34172  1  0
 35173  1  0
 38174  1  0
 39175  1  6
 40176  1  0
 40177  1  0
 41178  1  0
 41179  1  0
 42180  1  0
 42181  1  0
 43182  1  0
 45183  1  0
 45184  1  0
 46185  1  0
 46186  1  0
 50187  1  0
 50188  1  0
 51189  1  0
 51190  1  0
 52191  1  0
 52192  1  0
 53193  1  0
 56194  1  0
 57195  1  6
 58196  1  0
 58197  1  0
 59198  1  0
 62199  1  0
 63200  1  0
 63201  1  0
 66202  1  0
 67203  1  1
 68204  1  0
 68205  1  0
 68206  1  0
 71207  1  0
 73208  1  0
 73209  1  0
 74210  1  0
 74211  1  0
 75212  1  0
 75213  1  0
 76214  1  0
 77215  1  0
 77216  1  0
 77217  1  0
 80218  1  0
 81219  1  6
 82220  1  0
 82221  1  0
 83222  1  0
 83223  1  0
 84224  1  0
 84225  1  0
 85226  1  0
 87227  1  0
 87228  1  0
 88229  1  0
 88230  1  0
 91231  1  0
 92232  1  6
 93233  1  0
 93234  1  0
 94235  1  0
 94236  1  0
 95237  1  0
 95238  1  0
 96239  1  0
 98240  1  0
 98241  1  0
 99242  1  0
 99243  1  0
102244  1  0
103245  1  6
104246  1  0
104247  1  0
105248  1  0
105249  1  0
106250  1  0
106251  1  0
107252  1  0
109253  1  0
109254  1  0
110255  1  0
110256  1  0
113257  1  0
115258  1  0
115259  1  0
116260  1  0
116261  1  0
117262  1  0
117263  1  0
118264  1  0
119265  1  0
119266  1  0
119267  1  0
122268  1  0
123269  1  1
124270  1  0
124271  1  0
125272  1  0
125273  1  0
126274  1  0
126275  1  0
127276  1  0
129277  1  0
129278  1  0
130279  1  0
130280  1  0
M  CHG  8  13   1  24   1  45   1  87   1  98   1 109   1 129   1 133  -1
M  END
