
     RDKit          2D

410418  0  0  0  0  0  0  0  0999 V2000
   25.3489   -3.9832    0.0000 C   0  0  0  0  0  0  0  0  0  0  0  0
   26.7318   -3.4022    0.0000 N   0  0  0  0  0  0  0  0  0  0  0  0
   27.9264   -4.3094    0.0000 C   0  0  0  0  0  0  0  0  0  0  0  0
   27.7381   -5.7975    0.0000 C   0  0  0  0  0  0  0  0  0  0  0  0
   28.9327   -6.7047    0.0000 C   0  0  0  0  0  0  0  0  0  0  0  0
   30.3156   -6.1237    0.0000 C   0  0  0  0  0  0  0  0  0  0  0  0
   30.5040   -4.6356    0.0000 C   0  0  0  0  0  0  0  0  0  0  0  0
   29.3094   -3.7284    0.0000 C   0  0  0  0  0  0  0  0  0  0  0  0
   31.9775   -4.3548    0.0000 C   0  0  0  0  0  0  0  0  0  0  0  0
   32.6998   -5.6694    0.0000 O   0  0  0  0  0  0  0  0  0  0  0  0
   31.6727   -6.7627    0.0000 C   0  0  0  0  0  0  0  0  0  0  0  0
   31.9535   -8.2362    0.0000 O   0  0  0  0  0  0  0  0  0  0  0  0
   33.4722   -4.2296    0.0000 C   0  0  0  0  0  0  0  0  0  0  0  0
   34.1112   -2.8725    0.0000 C   0  0  0  0  0  0  0  0  0  0  0  0
   35.6060   -2.7473    0.0000 C   0  0  0  0  0  0  0  0  0  0  0  0
   36.4618   -3.9792    0.0000 C   0  0  0  0  0  0  0  0  0  0  0  0
   35.8228   -5.3363    0.0000 C   0  0  0  0  0  0  0  0  0  0  0  0
   34.3280   -5.4615    0.0000 C   0  0  0  0  0  0  0  0  0  0  0  0
   37.9565   -3.8541    0.0000 O   0  0  0  0  0  0  0  0  0  0  0  0
   33.2554   -1.6406    0.0000 O   0  0  0  0  0  0  0  0  0  0  0  0
   31.7606   -1.7658    0.0000 C   0  0  0  0  0  0  0  0  0  0  0  0
   31.1217   -3.1229    0.0000 C   0  0  0  0  0  0  0  0  0  0  0  0
   29.9251   -2.6148    0.0000 C   0  0  0  0  0  0  0  0  0  0  0  0
   29.4686   -1.9578    0.0000 C   0  0  0  0  0  0  0  0  0  0  0  0
   29.8094   -1.2340    0.0000 C   0  0  0  0  0  0  0  0  0  0  0  0
   30.6066   -1.1672    0.0000 C   0  0  0  0  0  0  0  0  0  0  0  0
   28.5543    0.5728    0.0000 O   0  0  0  0  0  0  0  0  0  0  0  0
   25.1606   -5.4713    0.0000 S   0  0  0  0  0  0  0  0  0  0  0  0
   24.1543   -3.0760    0.0000 N   0  0  0  0  0  0  0  0  0  0  0  0
   22.7714   -3.6570    0.0000 C   0  0  0  0  0  0  0  0  0  0  0  0
   21.5768   -2.7498    0.0000 C   0  0  0  0  0  0  0  0  0  0  0  0
   20.1939   -3.3308    0.0000 C   0  0  0  0  0  0  0  0  0  0  0  0
   20.1910   -4.1280    0.0000 O   0  0  0  0  0  0  0  0  0  0  0  0
   18.9993   -2.4237    0.0000 N   0  0  0  0  0  0  0  0  0  0  0  0
   17.6164   -3.0046    0.0000 C   0  0  0  0  0  0  0  0  0  0  0  0
   18.4287   -4.2657    0.0000 C   0  0  0  0  0  0  0  0  0  0  0  0
   18.7607   -5.7284    0.0000 O   0  0  0  0  0  0  0  0  0  0  0  0
   19.9246   -4.3759    0.0000 C   0  0  0  0  0  0  0  0  0  0  0  0
   16.1181   -3.0776    0.0000 C   0  0  0  0  0  0  0  0  0  0  0  0
   15.7754   -4.5379    0.0000 O   0  0  0  0  0  0  0  0  0  0  0  0
   15.3059   -1.8165    0.0000 N   0  0  0  0  0  0  0  0  0  0  0  0
   13.8076   -1.8895    0.0000 C   0  0  0  0  0  0  0  0  0  0  0  0
   14.1396   -3.3523    0.0000 C   0  0  0  0  0  0  0  0  0  0  0  0
   15.5725   -3.7962    0.0000 C   0  0  0  0  0  0  0  0  0  0  0  0
   15.9045   -5.2590    0.0000 C   0  0  0  0  0  0  0  0  0  0  0  0
   17.3373   -5.7028    0.0000 N   0  0  0  0  0  0  0  0  0  0  0  0
   17.6693   -7.1656    0.0000 C   0  0  0  0  0  0  0  0  0  0  0  0
   19.1021   -7.6095    0.0000 N   0  0  0  0  0  0  0  0  0  0  0  0
   16.5685   -8.1846    0.0000 N   0  0  0  0  0  0  0  0  0  0  0  0
   12.3748   -1.4456    0.0000 C   0  0  0  0  0  0  0  0  0  0  0  0
   11.5533   -2.7006    0.0000 O   0  0  0  0  0  0  0  0  0  0  0  0
   12.0428    0.0172    0.0000 N   0  0  0  0  0  0  0  0  0  0  0  0
   10.6100    0.4611    0.0000 C   0  0  0  0  0  0  0  0  0  0  0  0
   10.4217   -1.0271    0.0000 C   0  0  0  0  0  0  0  0  0  0  0  0
   11.6163   -1.9342    0.0000 C   0  0  0  0  0  0  0  0  0  0  0  0
   11.4279   -3.4224    0.0000 C   0  0  0  0  0  0  0  0  0  0  0  0
   12.5030   -4.4684    0.0000 N   0  0  0  0  0  0  0  0  0  0  0  0
   10.0450   -4.0033    0.0000 O   0  0  0  0  0  0  0  0  0  0  0  0
    9.4154    1.3682    0.0000 C   0  0  0  0  0  0  0  0  0  0  0  0
    8.3326    0.3301    0.0000 O   0  0  0  0  0  0  0  0  0  0  0  0
    9.6037    2.8563    0.0000 N   0  0  0  0  0  0  0  0  0  0  0  0
    8.4091    3.7635    0.0000 C   0  0  0  0  0  0  0  0  0  0  0  0
    8.0736    2.3015    0.0000 C   0  0  0  0  0  0  0  0  0  0  0  0
    7.3220    1.0034    0.0000 C   0  0  0  0  0  0  0  0  0  0  0  0
    6.2212   -0.0155    0.0000 C   0  0  0  0  0  0  0  0  0  0  0  0
    4.8689   -0.6647    0.0000 C   0  0  0  0  0  0  0  0  0  0  0  0
    9.7273    4.4793    0.0000 C   0  0  0  0  0  0  0  0  0  0  0  0
    8.2988    5.2594    0.0000 C   0  0  0  0  0  0  0  0  0  0  0  0
    9.7616    5.5914    0.0000 O   0  0  0  0  0  0  0  0  0  0  0  0
    7.7525    6.6564    0.0000 N   0  0  0  0  0  0  0  0  0  0  0  0
    6.8187    7.8303    0.0000 C   0  0  0  0  0  0  0  0  0  0  0  0
    7.0810    9.3072    0.0000 C   0  0  0  0  0  0  0  0  0  0  0  0
    8.4912    9.8185    0.0000 C   0  0  0  0  0  0  0  0  0  0  0  0
    8.7534   11.2954    0.0000 C   0  0  0  0  0  0  0  0  0  0  0  0
   10.1636   11.8067    0.0000 N   0  0  0  0  0  0  0  0  0  0  0  0
   10.4258   13.2836    0.0000 C   0  0  0  0  0  0  0  0  0  0  0  0
   11.8360   13.7949    0.0000 N   0  0  0  0  0  0  0  0  0  0  0  0
    9.2780   14.2492    0.0000 N   0  0  0  0  0  0  0  0  0  0  0  0
    5.5804    8.6768    0.0000 C   0  0  0  0  0  0  0  0  0  0  0  0
    6.2329   10.0275    0.0000 O   0  0  0  0  0  0  0  0  0  0  0  0
    4.1476    9.1207    0.0000 N   0  0  0  0  0  0  0  0  0  0  0  0
    2.6476    9.1225    0.0000 C   0  0  0  0  0  0  0  0  0  0  0  0
    1.6564   10.2484    0.0000 C   0  0  0  0  0  0  0  0  0  0  0  0
    2.1359   11.6697    0.0000 C   0  0  0  0  0  0  0  0  0  0  0  0
    1.1447   12.7956    0.0000 C   0  0  0  0  0  0  0  0  0  0  0  0
    1.6242   14.2169    0.0000 N   0  0  0  0  0  0  0  0  0  0  0  0
    0.6330   15.3427    0.0000 C   0  0  0  0  0  0  0  0  0  0  0  0
    1.1125   16.7640    0.0000 N   0  0  0  0  0  0  0  0  0  0  0  0
   -0.8376   15.0473    0.0000 N   0  0  0  0  0  0  0  0  0  0  0  0
    1.2137    8.6821    0.0000 C   0  0  0  0  0  0  0  0  0  0  0  0
    0.5645   10.0343    0.0000 O   0  0  0  0  0  0  0  0  0  0  0  0
   -0.0267    7.8386    0.0000 N   0  0  0  0  0  0  0  0  0  0  0  0
   -0.9634    6.6670    0.0000 C   0  0  0  0  0  0  0  0  0  0  0  0
   -2.4616    6.5941    0.0000 C   0  0  0  0  0  0  0  0  0  0  0  0
   -1.5131    5.2714    0.0000 C   0  0  0  0  0  0  0  0  0  0  0  0
   -2.7576    6.1087    0.0000 O   0  0  0  0  0  0  0  0  0  0  0  0
   -1.6270    3.7757    0.0000 N   0  0  0  0  0  0  0  0  0  0  0  0
   -1.2950    2.3129    0.0000 C   0  0  0  0  0  0  0  0  0  0  0  0
   -0.5466    1.0130    0.0000 C   0  0  0  0  0  0  0  0  0  0  0  0
    0.5518   -0.0086    0.0000 C   0  0  0  0  0  0  0  0  0  0  0  0
    1.9024   -0.6611    0.0000 C   0  0  0  0  0  0  0  0  0  0  0  0
    3.3854   -0.8865    0.0000 C   0  0  0  0  0  0  0  0  0  0  0  0
   -0.8839    0.8703    0.0000 C   0  0  0  0  0  0  0  0  0  0  0  0
   -0.7533   -0.6240    0.0000 C   0  0  0  0  0  0  0  0  0  0  0  0
   -0.9079   -2.1160    0.0000 C   0  0  0  0  0  0  0  0  0  0  0  0
   -1.3420   -3.5518    0.0000 C   0  0  0  0  0  0  0  0  0  0  0  0
   -1.9716    3.6516    0.0000 C   0  0  0  0  0  0  0  0  0  0  0  0
   -0.7033    4.4524    0.0000 O   0  0  0  0  0  0  0  0  0  0  0  0
   -2.8894    4.8381    0.0000 N   0  0  0  0  0  0  0  0  0  0  0  0
   -4.0151    5.8294    0.0000 C   0  0  0  0  0  0  0  0  0  0  0  0
   -3.9080    7.3256    0.0000 C   0  0  0  0  0  0  0  0  0  0  0  0
   -5.1501    8.1665    0.0000 C   0  0  0  0  0  0  0  0  0  0  0  0
   -5.0430    9.6626    0.0000 C   0  0  0  0  0  0  0  0  0  0  0  0
   -6.2851   10.5035    0.0000 N   0  0  0  0  0  0  0  0  0  0  0  0
   -6.1780   11.9997    0.0000 C   0  0  0  0  0  0  0  0  0  0  0  0
   -7.1798   13.1161    0.0000 N   0  0  0  0  0  0  0  0  0  0  0  0
   -4.8287   12.6550    0.0000 N   0  0  0  0  0  0  0  0  0  0  0  0
   -5.3081    6.5898    0.0000 C   0  0  0  0  0  0  0  0  0  0  0  0
   -5.0218    8.0623    0.0000 O   0  0  0  0  0  0  0  0  0  0  0  0
   -6.7216    7.0918    0.0000 N   0  0  0  0  0  0  0  0  0  0  0  0
   -8.2046    7.3171    0.0000 C   0  0  0  0  0  0  0  0  0  0  0  0
   -8.9233    8.6337    0.0000 C   0  0  0  0  0  0  0  0  0  0  0  0
   -8.1425    9.9145    0.0000 C   0  0  0  0  0  0  0  0  0  0  0  0
   -8.8613   11.2311    0.0000 C   0  0  0  0  0  0  0  0  0  0  0  0
   -8.0805   12.5118    0.0000 N   0  0  0  0  0  0  0  0  0  0  0  0
   -8.7993   13.8284    0.0000 C   0  0  0  0  0  0  0  0  0  0  0  0
   -8.0184   15.1092    0.0000 N   0  0  0  0  0  0  0  0  0  0  0  0
  -10.2988   13.8642    0.0000 N   0  0  0  0  0  0  0  0  0  0  0  0
   -9.7034    7.2578    0.0000 C   0  0  0  0  0  0  0  0  0  0  0  0
  -10.0846    8.7085    0.0000 O   0  0  0  0  0  0  0  0  0  0  0  0
  -11.1639    6.9158    0.0000 N   0  0  0  0  0  0  0  0  0  0  0  0
  -12.5333    6.3037    0.0000 C   0  0  0  0  0  0  0  0  0  0  0  0
  -13.8498    7.0227    0.0000 C   0  0  0  0  0  0  0  0  0  0  0  0
  -13.8853    8.5222    0.0000 C   0  0  0  0  0  0  0  0  0  0  0  0
  -15.2018    9.2412    0.0000 C   0  0  0  0  0  0  0  0  0  0  0  0
  -15.2374   10.7408    0.0000 N   0  0  0  0  0  0  0  0  0  0  0  0
  -16.5538   11.4598    0.0000 C   0  0  0  0  0  0  0  0  0  0  0  0
  -16.5894   12.9594    0.0000 N   0  0  0  0  0  0  0  0  0  0  0  0
  -17.8347   10.6792    0.0000 N   0  0  0  0  0  0  0  0  0  0  0  0
  -13.7621    5.4434    0.0000 C   0  0  0  0  0  0  0  0  0  0  0  0
  -14.8672    6.4577    0.0000 O   0  0  0  0  0  0  0  0  0  0  0  0
  -14.8059    4.3661    0.0000 N   0  0  0  0  0  0  0  0  0  0  0  0
  -15.6269    3.1108    0.0000 C   0  0  0  0  0  0  0  0  0  0  0  0
  -17.1231    3.0039    0.0000 C   0  0  0  0  0  0  0  0  0  0  0  0
  -17.9638    4.2462    0.0000 C   0  0  0  0  0  0  0  0  0  0  0  0
  -17.4529    5.6565    0.0000 C   0  0  0  0  0  0  0  0  0  0  0  0
  -18.6363    6.5782    0.0000 N   0  0  0  0  0  0  0  0  0  0  0  0
  -19.8786    5.7376    0.0000 C   0  0  0  0  0  0  0  0  0  0  0  0
  -21.3346    6.0983    0.0000 C   0  0  0  0  0  0  0  0  0  0  0  0
  -22.3749    5.0177    0.0000 C   0  0  0  0  0  0  0  0  0  0  0  0
  -21.9593    3.5764    0.0000 C   0  0  0  0  0  0  0  0  0  0  0  0
  -20.5033    3.2157    0.0000 C   0  0  0  0  0  0  0  0  0  0  0  0
  -19.4629    4.2963    0.0000 C   0  0  0  0  0  0  0  0  0  0  0  0
  -16.1956    1.7228    0.0000 C   0  0  0  0  0  0  0  0  0  0  0  0
  -17.6736    1.9786    0.0000 O   0  0  0  0  0  0  0  0  0  0  0  0
  -16.4912    0.2522    0.0000 N   0  0  0  0  0  0  0  0  0  0  0  0
  -16.5033   -1.2478    0.0000 C   0  0  0  0  0  0  0  0  0  0  0  0
  -17.7042   -2.1466    0.0000 C   0  0  0  0  0  0  0  0  0  0  0  0
  -19.0830   -1.5560    0.0000 C   0  0  0  0  0  0  0  0  0  0  0  0
  -20.2839   -2.4548    0.0000 C   0  0  0  0  0  0  0  0  0  0  0  0
  -21.6627   -1.8642    0.0000 N   0  0  0  0  0  0  0  0  0  0  0  0
  -22.8636   -2.7630    0.0000 C   0  0  0  0  0  0  0  0  0  0  0  0
  -24.2425   -2.1724    0.0000 N   0  0  0  0  0  0  0  0  0  0  0  0
  -22.6857   -4.2524    0.0000 N   0  0  0  0  0  0  0  0  0  0  0  0
  -16.2312   -2.7229    0.0000 C   0  0  0  0  0  0  0  0  0  0  0  0
  -17.6129   -3.3067    0.0000 O   0  0  0  0  0  0  0  0  0  0  0  0
  -15.6849   -4.1199    0.0000 N   0  0  0  0  0  0  0  0  0  0  0  0
  -14.8841   -5.3882    0.0000 C   0  0  0  0  0  0  0  0  0  0  0  0
  -15.4084   -6.7936    0.0000 C   0  0  0  0  0  0  0  0  0  0  0  0
  -16.8876   -7.0422    0.0000 C   0  0  0  0  0  0  0  0  0  0  0  0
  -17.4119   -8.4476    0.0000 C   0  0  0  0  0  0  0  0  0  0  0  0
  -18.8912   -8.6962    0.0000 O   0  0  0  0  0  0  0  0  0  0  0  0
  -16.4570   -9.6043    0.0000 O   0  0  0  0  0  0  0  0  0  0  0  0
  -13.8577   -6.4821    0.0000 C   0  0  0  0  0  0  0  0  0  0  0  0
  -14.7044   -7.7202    0.0000 O   0  0  0  0  0  0  0  0  0  0  0  0
  -12.6428   -7.3619    0.0000 N   0  0  0  0  0  0  0  0  0  0  0  0
  -11.2834   -7.9959    0.0000 C   0  0  0  0  0  0  0  0  0  0  0  0
   -9.8286   -8.3613    0.0000 C   0  0  0  0  0  0  0  0  0  0  0  0
   -8.3309   -8.4446    0.0000 C   0  0  0  0  0  0  0  0  0  0  0  0
   -6.8445   -8.2431    0.0000 C   0  0  0  0  0  0  0  0  0  0  0  0
   -5.4231   -7.7638    0.0000 C   0  0  0  0  0  0  0  0  0  0  0  0
   -4.1181   -7.0243    0.0000 C   0  0  0  0  0  0  0  0  0  0  0  0
   -2.9767   -6.0511    0.0000 C   0  0  0  0  0  0  0  0  0  0  0  0
   -2.0400   -4.8795    0.0000 C   0  0  0  0  0  0  0  0  0  0  0  0
  -12.4552   -8.9324    0.0000 C   0  0  0  0  0  0  0  0  0  0  0  0
  -10.9647   -9.4617    0.0000 C   0  0  0  0  0  0  0  0  0  0  0  0
   -9.6890  -10.2507    0.0000 O   0  0  0  0  0  0  0  0  0  0  0  0
  -12.0747  -10.4706    0.0000 N   0  0  0  0  0  0  0  0  0  0  0  0
  -11.7560  -11.9363    0.0000 C   0  0  0  0  0  0  0  0  0  0  0  0
  -10.9552  -13.2047    0.0000 C   0  0  0  0  0  0  0  0  0  0  0  0
  -11.6532  -14.5324    0.0000 C   0  0  0  0  0  0  0  0  0  0  0  0
  -10.8523  -15.8007    0.0000 C   0  0  0  0  0  0  0  0  0  0  0  0
  -11.3833  -17.2036    0.0000 N   0  0  0  0  0  0  0  0  0  0  0  0
   -9.3535  -15.7414    0.0000 O   0  0  0  0  0  0  0  0  0  0  0  0
  -12.8660  -12.9452    0.0000 C   0  0  0  0  0  0  0  0  0  0  0  0
  -14.2947  -12.4884    0.0000 O   0  0  0  0  0  0  0  0  0  0  0  0
  -12.5473  -14.4110    0.0000 N   0  0  0  0  0  0  0  0  0  0  0  0
  -13.6573  -15.4199    0.0000 C   0  0  0  0  0  0  0  0  0  0  0  0
  -15.0454  -15.9883    0.0000 C   0  0  0  0  0  0  0  0  0  0  0  0
  -16.2317  -15.0703    0.0000 C   0  0  0  0  0  0  0  0  0  0  0  0
  -17.6199  -15.6387    0.0000 C   0  0  0  0  0  0  0  0  0  0  0  0
  -18.8062  -14.7208    0.0000 N   0  0  0  0  0  0  0  0  0  0  0  0
  -20.1943  -15.2892    0.0000 C   0  0  0  0  0  0  0  0  0  0  0  0
  -21.3806  -14.3713    0.0000 N   0  0  0  0  0  0  0  0  0  0  0  0
  -20.3961  -16.7756    0.0000 N   0  0  0  0  0  0  0  0  0  0  0  0
  -13.3385  -16.8856    0.0000 C   0  0  0  0  0  0  0  0  0  0  0  0
  -14.3173  -18.0223    0.0000 O   0  0  0  0  0  0  0  0  0  0  0  0
  -11.9762  -17.5132    0.0000 O   0  0  0  0  0  0  0  0  0  0  0  0
   26.7374   -1.9022    0.0000 H   0  0  0  0  0  0  0  0  0  0  0  0
   26.3552   -6.3785    0.0000 H   0  0  0  0  0  0  0  0  0  0  0  0
   28.7444   -8.1928    0.0000 H   0  0  0  0  0  0  0  0  0  0  0  0
   29.1320   -2.2389    0.0000 H   0  0  0  0  0  0  0  0  0  0  0  0
   36.2449   -1.3902    0.0000 H   0  0  0  0  0  0  0  0  0  0  0  0
   36.6786   -6.5683    0.0000 H   0  0  0  0  0  0  0  0  0  0  0  0
   33.6891   -6.8186    0.0000 H   0  0  0  0  0  0  0  0  0  0  0  0
   38.8123   -5.0860    0.0000 H   0  0  0  0  0  0  0  0  0  0  0  0
   28.9879   -4.6052    0.0000 H   0  0  0  0  0  0  0  0  0  0  0  0
   27.2722   -1.9582    0.0000 H   0  0  0  0  0  0  0  0  0  0  0  0
   31.5438    0.8232    0.0000 H   0  0  0  0  0  0  0  0  0  0  0  0
   29.1932    1.9299    0.0000 H   0  0  0  0  0  0  0  0  0  0  0  0
   24.3427   -1.5879    0.0000 H   0  0  0  0  0  0  0  0  0  0  0  0
   23.5837   -4.9180    0.0000 H   0  0  0  0  0  0  0  0  0  0  0  0
   21.6706   -4.6759    0.0000 H   0  0  0  0  0  0  0  0  0  0  0  0
   22.6776   -1.7309    0.0000 H   0  0  0  0  0  0  0  0  0  0  0  0
   20.7645   -1.4888    0.0000 H   0  0  0  0  0  0  0  0  0  0  0  0
   19.1876   -0.9355    0.0000 H   0  0  0  0  0  0  0  0  0  0  0  0
   17.2844   -1.5418    0.0000 H   0  0  0  0  0  0  0  0  0  0  0  0
   17.2274   -5.1640    0.0000 H   0  0  0  0  0  0  0  0  0  0  0  0
   20.1287   -6.3437    0.0000 H   0  0  0  0  0  0  0  0  0  0  0  0
   20.8645   -5.3464    0.0000 H   0  0  0  0  0  0  0  0  0  0  0  0
   21.3098   -3.6117    0.0000 H   0  0  0  0  0  0  0  0  0  0  0  0
   20.0030   -2.6990    0.0000 H   0  0  0  0  0  0  0  0  0  0  0  0
   15.9918   -0.4826    0.0000 H   0  0  0  0  0  0  0  0  0  0  0  0
   13.9960   -0.4014    0.0000 H   0  0  0  0  0  0  0  0  0  0  0  0
   13.7713   -4.8064    0.0000 H   0  0  0  0  0  0  0  0  0  0  0  0
   12.6615   -3.6073    0.0000 H   0  0  0  0  0  0  0  0  0  0  0  0
   17.0707   -3.7232    0.0000 H   0  0  0  0  0  0  0  0  0  0  0  0
   16.1153   -2.3978    0.0000 H   0  0  0  0  0  0  0  0  0  0  0  0
   15.7161   -6.7471    0.0000 H   0  0  0  0  0  0  0  0  0  0  0  0
   14.4263   -5.5140    0.0000 H   0  0  0  0  0  0  0  0  0  0  0  0
   18.6519   -4.9806    0.0000 H   0  0  0  0  0  0  0  0  0  0  0  0
   19.4341   -9.0723    0.0000 H   0  0  0  0  0  0  0  0  0  0  0  0
   16.9005   -9.6473    0.0000 H   0  0  0  0  0  0  0  0  0  0  0  0
   15.1356   -7.7407    0.0000 H   0  0  0  0  0  0  0  0  0  0  0  0
   13.1436    1.0361    0.0000 H   0  0  0  0  0  0  0  0  0  0  0  0
   11.2959    1.7950    0.0000 H   0  0  0  0  0  0  0  0  0  0  0  0
    9.7357   -2.3611    0.0000 H   0  0  0  0  0  0  0  0  0  0  0  0
    8.9888   -0.5832    0.0000 H   0  0  0  0  0  0  0  0  0  0  0  0
   13.0491   -2.3781    0.0000 H   0  0  0  0  0  0  0  0  0  0  0  0
   12.6046   -0.8059    0.0000 H   0  0  0  0  0  0  0  0  0  0  0  0
   12.4342   -5.8177    0.0000 H   0  0  0  0  0  0  0  0  0  0  0  0
   14.1350   -4.1335    0.0000 H   0  0  0  0  0  0  0  0  0  0  0  0
   11.0471    3.2644    0.0000 H   0  0  0  0  0  0  0  0  0  0  0  0
    9.5720    2.2323    0.0000 H   0  0  0  0  0  0  0  0  0  0  0  0
    8.7926    0.9851    0.0000 H   0  0  0  0  0  0  0  0  0  0  0  0
    8.5686    0.1692    0.0000 H   0  0  0  0  0  0  0  0  0  0  0  0
    7.9678   -0.3504    0.0000 H   0  0  0  0  0  0  0  0  0  0  0  0
    7.5211   -0.7639    0.0000 H   0  0  0  0  0  0  0  0  0  0  0  0
    6.2567   -1.5151    0.0000 H   0  0  0  0  0  0  0  0  0  0  0  0
    5.3093   -2.0986    0.0000 H   0  0  0  0  0  0  0  0  0  0  0  0
   11.0923    3.8573    0.0000 H   0  0  0  0  0  0  0  0  0  0  0  0
   10.7212    5.6027    0.0000 H   0  0  0  0  0  0  0  0  0  0  0  0
    9.1053    5.8442    0.0000 H   0  0  0  0  0  0  0  0  0  0  0  0
    9.0525    7.4048    0.0000 H   0  0  0  0  0  0  0  0  0  0  0  0
    8.3068    8.0187    0.0000 H   0  0  0  0  0  0  0  0  0  0  0  0
    6.6441   10.7422    0.0000 H   0  0  0  0  0  0  0  0  0  0  0  0
    5.6260    9.6719    0.0000 H   0  0  0  0  0  0  0  0  0  0  0  0
    9.9912    9.8167    0.0000 H   0  0  0  0  0  0  0  0  0  0  0  0
    8.9280    8.3835    0.0000 H   0  0  0  0  0  0  0  0  0  0  0  0
    8.4947   12.7729    0.0000 H   0  0  0  0  0  0  0  0  0  0  0  0
    7.2648   11.4801    0.0000 H   0  0  0  0  0  0  0  0  0  0  0  0
   11.3115   10.8411    0.0000 H   0  0  0  0  0  0  0  0  0  0  0  0
   12.0983   15.2718    0.0000 H   0  0  0  0  0  0  0  0  0  0  0  0
    9.5402   15.7261    0.0000 H   0  0  0  0  0  0  0  0  0  0  0  0
    7.8678   13.7379    0.0000 H   0  0  0  0  0  0  0  0  0  0  0  0
    4.3729   10.6036    0.0000 H   0  0  0  0  0  0  0  0  0  0  0  0
    3.4281   10.4034    0.0000 H   0  0  0  0  0  0  0  0  0  0  0  0
    0.2621   10.8015    0.0000 H   0  0  0  0  0  0  0  0  0  0  0  0
    0.4641    9.3382    0.0000 H   0  0  0  0  0  0  0  0  0  0  0  0
    3.0725   12.8413    0.0000 H   0  0  0  0  0  0  0  0  0  0  0  0
    3.5302   11.1165    0.0000 H   0  0  0  0  0  0  0  0  0  0  0  0
   -0.1718   13.5145    0.0000 H   0  0  0  0  0  0  0  0  0  0  0  0
    0.0722   11.7469    0.0000 H   0  0  0  0  0  0  0  0  0  0  0  0
    3.0948   14.5123    0.0000 H   0  0  0  0  0  0  0  0  0  0  0  0
    0.1213   17.8899    0.0000 H   0  0  0  0  0  0  0  0  0  0  0  0
   -1.8288   16.1732    0.0000 H   0  0  0  0  0  0  0  0  0  0  0  0
   -1.3171   13.6260    0.0000 H   0  0  0  0  0  0  0  0  0  0  0  0
   -1.0456    8.9394    0.0000 H   0  0  0  0  0  0  0  0  0  0  0  0
   -1.6461    8.0027    0.0000 H   0  0  0  0  0  0  0  0  0  0  0  0
   -3.1364    7.9463    0.0000 H   0  0  0  0  0  0  0  0  0  0  0  0
   -3.9440    6.3650    0.0000 H   0  0  0  0  0  0  0  0  0  0  0  0
   -2.6760    5.1095    0.0000 H   0  0  0  0  0  0  0  0  0  0  0  0
   -3.1229    3.6654    0.0000 H   0  0  0  0  0  0  0  0  0  0  0  0
   -0.8492   -0.4562    0.0000 H   0  0  0  0  0  0  0  0  0  0  0  0
   -2.0393    0.8654    0.0000 H   0  0  0  0  0  0  0  0  0  0  0  0
    0.6956   -1.5017    0.0000 H   0  0  0  0  0  0  0  0  0  0  0  0
   -0.5310   -1.0467    0.0000 H   0  0  0  0  0  0  0  0  0  0  0  0
    2.3069   -2.1055    0.0000 H   0  0  0  0  0  0  0  0  0  0  0  0
    1.1737   -1.9722    0.0000 H   0  0  0  0  0  0  0  0  0  0  0  0
    3.3836   -2.3865    0.0000 H   0  0  0  0  0  0  0  0  0  0  0  0
    0.2261    1.8792    0.0000 H   0  0  0  0  0  0  0  0  0  0  0  0
    0.4359    0.1576    0.0000 H   0  0  0  0  0  0  0  0  0  0  0  0
    0.7222   -0.3544    0.0000 H   0  0  0  0  0  0  0  0  0  0  0  0
    0.4078   -1.5736    0.0000 H   0  0  0  0  0  0  0  0  0  0  0  0
    0.5921   -2.1305    0.0000 H   0  0  0  0  0  0  0  0  0  0  0  0
    0.1858   -3.1426    0.0000 H   0  0  0  0  0  0  0  0  0  0  0  0
    0.0460   -4.1204    0.0000 H   0  0  0  0  0  0  0  0  0  0  0  0
   -1.9288    5.9902    0.0000 H   0  0  0  0  0  0  0  0  0  0  0  0
   -2.7066    6.5628    0.0000 H   0  0  0  0  0  0  0  0  0  0  0  0
   -3.2956    8.6949    0.0000 H   0  0  0  0  0  0  0  0  0  0  0  0
   -2.4531    6.9603    0.0000 H   0  0  0  0  0  0  0  0  0  0  0  0
   -6.5496    8.7064    0.0000 H   0  0  0  0  0  0  0  0  0  0  0  0
   -6.0756    6.9861    0.0000 H   0  0  0  0  0  0  0  0  0  0  0  0
   -4.4306   11.0319    0.0000 H   0  0  0  0  0  0  0  0  0  0  0  0
   -3.5545    9.4774    0.0000 H   0  0  0  0  0  0  0  0  0  0  0  0
   -7.7529   10.1942    0.0000 H   0  0  0  0  0  0  0  0  0  0  0  0
   -7.3130   14.3367    0.0000 H   0  0  0  0  0  0  0  0  0  0  0  0
   -4.7216   14.1512    0.0000 H   0  0  0  0  0  0  0  0  0  0  0  0
   -3.5866   11.8141    0.0000 H   0  0  0  0  0  0  0  0  0  0  0  0
   -6.3563    8.5466    0.0000 H   0  0  0  0  0  0  0  0  0  0  0  0
   -7.3441    8.5458    0.0000 H   0  0  0  0  0  0  0  0  0  0  0  0
  -10.0490    9.6251    0.0000 H   0  0  0  0  0  0  0  0  0  0  0  0
  -10.2869    8.0086    0.0000 H   0  0  0  0  0  0  0  0  0  0  0  0
   -7.2322   11.1067    0.0000 H   0  0  0  0  0  0  0  0  0  0  0  0
   -6.9044    9.0678    0.0000 H   0  0  0  0  0  0  0  0  0  0  0  0
   -9.9870   12.2224    0.0000 H   0  0  0  0  0  0  0  0  0  0  0  0
  -10.1385   10.4444    0.0000 H   0  0  0  0  0  0  0  0  0  0  0  0
   -6.6168   12.8399    0.0000 H   0  0  0  0  0  0  0  0  0  0  0  0
   -8.7372   16.4257    0.0000 H   0  0  0  0  0  0  0  0  0  0  0  0
  -11.0176   15.1808    0.0000 H   0  0  0  0  0  0  0  0  0  0  0  0
  -11.0796   12.5835    0.0000 H   0  0  0  0  0  0  0  0  0  0  0  0
  -11.4663    8.3850    0.0000 H   0  0  0  0  0  0  0  0  0  0  0  0
  -12.2914    7.7841    0.0000 H   0  0  0  0  0  0  0  0  0  0  0  0
  -15.3327    7.2480    0.0000 H   0  0  0  0  0  0  0  0  0  0  0  0
  -14.6589    5.7596    0.0000 H   0  0  0  0  0  0  0  0  0  0  0  0
  -13.4059    9.9435    0.0000 H   0  0  0  0  0  0  0  0  0  0  0  0
  -12.3919    8.6624    0.0000 H   0  0  0  0  0  0  0  0  0  0  0  0
  -16.6848    9.4666    0.0000 H   0  0  0  0  0  0  0  0  0  0  0  0
  -15.8509    7.8890    0.0000 H   0  0  0  0  0  0  0  0  0  0  0  0
  -13.9565   11.5214    0.0000 H   0  0  0  0  0  0  0  0  0  0  0  0
  -17.9059   13.6783    0.0000 H   0  0  0  0  0  0  0  0  0  0  0  0
  -19.1512   11.3982    0.0000 H   0  0  0  0  0  0  0  0  0  0  0  0
  -17.7991    9.1796    0.0000 H   0  0  0  0  0  0  0  0  0  0  0  0
  -15.8546    5.4386    0.0000 H   0  0  0  0  0  0  0  0  0  0  0  0
  -16.3871    4.4039    0.0000 H   0  0  0  0  0  0  0  0  0  0  0  0
  -18.5569    2.5632    0.0000 H   0  0  0  0  0  0  0  0  0  0  0  0
  -17.1209    1.5039    0.0000 H   0  0  0  0  0  0  0  0  0  0  0  0
  -16.0730    6.2447    0.0000 H   0  0  0  0  0  0  0  0  0  0  0  0
  -18.5862    8.0774    0.0000 H   0  0  0  0  0  0  0  0  0  0  0  0
  -21.7502    7.5395    0.0000 H   0  0  0  0  0  0  0  0  0  0  0  0
  -23.8309    5.3784    0.0000 H   0  0  0  0  0  0  0  0  0  0  0  0
  -22.9997    2.4958    0.0000 H   0  0  0  0  0  0  0  0  0  0  0  0
  -20.0877    1.7745    0.0000 H   0  0  0  0  0  0  0  0  0  0  0  0
  -17.9533    0.5875    0.0000 H   0  0  0  0  0  0  0  0  0  0  0  0
  -17.7494   -0.4128    0.0000 H   0  0  0  0  0  0  0  0  0  0  0  0
  -18.5252   -3.4019    0.0000 H   0  0  0  0  0  0  0  0  0  0  0  0
  -16.8914   -3.4073    0.0000 H   0  0  0  0  0  0  0  0  0  0  0  0
  -20.1767   -0.5294    0.0000 H   0  0  0  0  0  0  0  0  0  0  0  0
  -18.5901   -0.1393    0.0000 H   0  0  0  0  0  0  0  0  0  0  0  0
  -21.1049   -3.7101    0.0000 H   0  0  0  0  0  0  0  0  0  0  0  0
  -19.3235   -3.6070    0.0000 H   0  0  0  0  0  0  0  0  0  0  0  0
  -21.8407   -0.3748    0.0000 H   0  0  0  0  0  0  0  0  0  0  0  0
  -25.4433   -3.0713    0.0000 H   0  0  0  0  0  0  0  0  0  0  0  0
  -23.8865   -5.1513    0.0000 H   0  0  0  0  0  0  0  0  0  0  0  0
  -21.3068   -4.8430    0.0000 H   0  0  0  0  0  0  0  0  0  0  0  0
  -17.0961   -4.6283    0.0000 H   0  0  0  0  0  0  0  0  0  0  0  0
  -16.3838   -5.3595    0.0000 H   0  0  0  0  0  0  0  0  0  0  0  0
  -15.6032   -8.2809    0.0000 H   0  0  0  0  0  0  0  0  0  0  0  0
  -14.0430   -7.4147    0.0000 H   0  0  0  0  0  0  0  0  0  0  0  0
  -18.3627   -6.7699    0.0000 H   0  0  0  0  0  0  0  0  0  0  0  0
  -17.2389   -5.5839    0.0000 H   0  0  0  0  0  0  0  0  0  0  0  0
  -16.9813  -11.0097    0.0000 H   0  0  0  0  0  0  0  0  0  0  0  0
  -13.5552   -8.5526    0.0000 H   0  0  0  0  0  0  0  0  0  0  0  0
   -9.2382   -9.7402    0.0000 H   0  0  0  0  0  0  0  0  0  0  0  0
  -10.4969   -9.7042    0.0000 H   0  0  0  0  0  0  0  0  0  0  0  0
   -7.6480   -9.7801    0.0000 H   0  0  0  0  0  0  0  0  0  0  0  0
   -8.7330   -9.8898    0.0000 H   0  0  0  0  0  0  0  0  0  0  0  0
   -5.9212   -9.4252    0.0000 H   0  0  0  0  0  0  0  0  0  0  0  0
   -7.1471   -9.7122    0.0000 H   0  0  0  0  0  0  0  0  0  0  0  0
   -4.2927   -8.7499    0.0000 H   0  0  0  0  0  0  0  0  0  0  0  0
   -5.4423   -9.2637    0.0000 H   0  0  0  0  0  0  0  0  0  0  0  0
   -2.8216   -7.7785    0.0000 H   0  0  0  0  0  0  0  0  0  0  0  0
   -3.8530   -8.5007    0.0000 H   0  0  0  0  0  0  0  0  0  0  0  0
   -1.5110   -6.3701    0.0000 H   0  0  0  0  0  0  0  0  0  0  0  0
   -2.4370   -7.4507    0.0000 H   0  0  0  0  0  0  0  0  0  0  0  0
   -0.7847   -5.7006    0.0000 H   0  0  0  0  0  0  0  0  0  0  0  0
  -12.5956  -10.4258    0.0000 H   0  0  0  0  0  0  0  0  0  0  0  0
  -13.8766   -9.4116    0.0000 H   0  0  0  0  0  0  0  0  0  0  0  0
  -13.4712   -7.8289    0.0000 H   0  0  0  0  0  0  0  0  0  0  0  0
  -13.5485  -10.1913    0.0000 H   0  0  0  0  0  0  0  0  0  0  0  0
  -10.3679  -11.3679    0.0000 H   0  0  0  0  0  0  0  0  0  0  0  0
   -9.7688  -14.1226    0.0000 H   0  0  0  0  0  0  0  0  0  0  0  0
   -9.8452  -12.1958    0.0000 H   0  0  0  0  0  0  0  0  0  0  0  0
  -12.7632  -15.5413    0.0000 H   0  0  0  0  0  0  0  0  0  0  0  0
  -13.1316  -14.2790    0.0000 H   0  0  0  0  0  0  0  0  0  0  0  0
  -10.7495  -18.3968    0.0000 H   0  0  0  0  0  0  0  0  0  0  0  0
  -13.0035  -17.5913    0.0000 H   0  0  0  0  0  0  0  0  0  0  0  0
  -11.2715  -15.2000    0.0000 H   0  0  0  0  0  0  0  0  0  0  0  0
  -14.2975  -14.0634    0.0000 H   0  0  0  0  0  0  0  0  0  0  0  0
  -16.0242  -17.1250    0.0000 H   0  0  0  0  0  0  0  0  0  0  0  0
  -14.4052  -17.3448    0.0000 H   0  0  0  0  0  0  0  0  0  0  0  0
  -17.0326  -13.8020    0.0000 H   0  0  0  0  0  0  0  0  0  0  0  0
  -15.2530  -13.9337    0.0000 H   0  0  0  0  0  0  0  0  0  0  0  0
  -18.7299  -16.6476    0.0000 H   0  0  0  0  0  0  0  0  0  0  0  0
  -16.9796  -16.9952    0.0000 H   0  0  0  0  0  0  0  0  0  0  0  0
  -18.6044  -13.2344    0.0000 H   0  0  0  0  0  0  0  0  0  0  0  0
  -22.7688  -14.9397    0.0000 H   0  0  0  0  0  0  0  0  0  0  0  0
  -21.7843  -17.3440    0.0000 H   0  0  0  0  0  0  0  0  0  0  0  0
  -19.2098  -17.6935    0.0000 H   0  0  0  0  0  0  0  0  0  0  0  0
  -11.5911  -18.8082    0.0000 H   0  0  0  0  0  0  0  0  0  0  0  0
  1  2  1  0
  2  3  1  0
  3  4  2  0
  4  5  1  0
  5  6  2  0
  6  7  1  0
  7  8  2  0
  7  9  1  0
  9 10  1  0
 10 11  1  0
 11 12  2  0
  9 13  1  0
 13 14  1  0
 14 15  2  0
 15 16  1  0
 16 17  2  0
 17 18  1  0
 16 19  1  0
 14 20  1  0
 20 21  1  0
 21 22  2  0
 22 23  1  0
 23 24  2  0
 24 25  1  0
 25 26  2  0
 25 27  1  0
  1 28  2  0
  1 29  1  0
 29 30  1  0
 30 31  1  0
 31 32  1  0
 32 33  2  0
 32 34  1  0
 34 35  1  0
 35 36  1  0
 36 37  1  0
 36 38  1  0
 35 39  1  0
 39 40  2  0
 39 41  1  0
 41 42  1  0
 42 43  1  0
 43 44  1  0
 44 45  1  0
 45 46  1  0
 46 47  1  0
 47 48  2  3
 47 49  1  0
 42 50  1  0
 50 51  2  0
 50 52  1  0
 52 53  1  0
 53 54  1  0
 54 55  1  0
 55 56  1  0
 56 57  1  0
 56 58  2  0
 53 59  1  0
 59 60  2  0
 59 61  1  0
 62 61  1  1
 62 63  1  0
 63 64  1  0
 64 65  1  0
 65 66  1  0
 62 67  1  0
 62 68  1  0
 68 69  2  0
 68 70  1  0
 70 71  1  0
 71 72  1  0
 72 73  1  0
 73 74  1  0
 74 75  1  0
 75 76  1  0
 76 77  2  3
 76 78  1  0
 71 79  1  0
 79 80  2  0
 79 81  1  0
 81 82  1  0
 82 83  1  0
 83 84  1  0
 84 85  1  0
 85 86  1  0
 86 87  1  0
 87 88  2  3
 87 89  1  0
 82 90  1  0
 90 91  2  0
 90 92  1  0
 92 93  1  0
 93 94  1  0
 93 95  1  0
 95 96  2  0
 95 97  1  0
 97 98  1  0
 98 99  1  0
 99100  1  0
100101  1  0
101102  1  0
 98103  1  0
103104  1  0
104105  1  0
105106  1  0
 98107  1  0
107108  2  0
107109  1  0
109110  1  0
110111  1  0
111112  1  0
112113  1  0
113114  1  0
114115  1  0
115116  2  3
115117  1  0
110118  1  0
118119  2  0
118120  1  0
120121  1  0
121122  1  0
122123  1  0
123124  1  0
124125  1  0
125126  1  0
126127  2  3
126128  1  0
121129  1  0
129130  2  0
129131  1  0
131132  1  0
132133  1  0
133134  1  0
134135  1  0
135136  1  0
136137  1  0
137138  2  3
137139  1  0
132140  1  0
140141  2  0
140142  1  0
142143  1  0
143144  1  0
144145  1  0
145146  2  0
146147  1  0
147148  1  0
148149  2  0
149150  1  0
150151  2  0
151152  1  0
152153  2  0
143154  1  0
154155  2  0
154156  1  0
156157  1  0
157158  1  0
158159  1  0
159160  1  0
160161  1  0
161162  1  0
162163  2  3
162164  1  0
157165  1  0
165166  2  0
165167  1  0
167168  1  0
168169  1  0
169170  1  0
170171  1  0
171172  2  0
171173  1  0
168174  1  0
174175  2  0
174176  1  0
176177  1  0
177178  1  0
178179  1  0
179180  1  0
180181  1  0
181182  1  0
182183  1  0
183184  1  0
177185  1  0
177186  1  1
186187  2  0
186188  1  0
188189  1  0
189190  1  0
190191  1  0
191192  1  0
192193  1  0
192194  2  0
189195  1  0
195196  2  0
195197  1  0
197198  1  0
198199  1  0
199200  1  0
200201  1  0
201202  1  0
202203  1  0
203204  2  3
203205  1  0
198206  1  0
206207  2  0
206208  1  0
  8  3  1  0
153145  1  0
 11  6  1  0
 66102  2  0
153148  1  0
 18 13  2  0
106184  2  0
 22  9  1  0
 26 21  1  0
  2209  1  0
  4210  1  0
  5211  1  0
  8212  1  0
 15213  1  0
 17214  1  0
 18215  1  0
 19216  1  0
 23217  1  0
 24218  1  0
 26219  1  0
 27220  1  0
 29221  1  0
 30222  1  0
 30223  1  0
 31224  1  0
 31225  1  0
 34226  1  0
 35227  1  1
 36228  1  6
 37229  1  0
 38230  1  0
 38231  1  0
 38232  1  0
 41233  1  0
 42234  1  1
 43235  1  0
 43236  1  0
 44237  1  0
 44238  1  0
 45239  1  0
 45240  1  0
 46241  1  0
 48242  1  0
 49243  1  0
 49244  1  0
 52245  1  0
 53246  1  1
 54247  1  0
 54248  1  0
 55249  1  0
 55250  1  0
 57251  1  0
 57252  1  0
 61253  1  0
 63254  1  0
 63255  1  0
 64256  1  0
 64257  1  0
 65258  1  0
 65259  1  0
 66260  1  0
 67261  1  0
 67262  1  0
 67263  1  0
 70264  1  0
 71265  1  6
 72266  1  0
 72267  1  0
 73268  1  0
 73269  1  0
 74270  1  0
 74271  1  0
 75272  1  0
 77273  1  0
 78274  1  0
 78275  1  0
 81276  1  0
 82277  1  6
 83278  1  0
 83279  1  0
 84280  1  0
 84281  1  0
 85282  1  0
 85283  1  0
 86284  1  0
 88285  1  0
 89286  1  0
 89287  1  0
 92288  1  0
 93289  1  6
 94290  1  0
 94291  1  0
 94292  1  0
 97293  1  0
 99294  1  0
 99295  1  0
100296  1  0
100297  1  0
101298  1  0
101299  1  0
102300  1  0
103301  1  0
103302  1  0
104303  1  0
104304  1  0
105305  1  0
105306  1  0
106307  1  0
109308  1  0
110309  1  6
111310  1  0
111311  1  0
112312  1  0
112313  1  0
113314  1  0
113315  1  0
114316  1  0
116317  1  0
117318  1  0
117319  1  0
120320  1  0
121321  1  6
122322  1  0
122323  1  0
123324  1  0
123325  1  0
124326  1  0
124327  1  0
125328  1  0
127329  1  0
128330  1  0
128331  1  0
131332  1  0
132333  1  6
133334  1  0
133335  1  0
134336  1  0
134337  1  0
135338  1  0
135339  1  0
136340  1  0
138341  1  0
139342  1  0
139343  1  0
142344  1  0
143345  1  6
144346  1  0
144347  1  0
146348  1  0
147349  1  0
149350  1  0
150351  1  0
151352  1  0
152353  1  0
156354  1  0
157355  1  6
158356  1  0
158357  1  0
159358  1  0
159359  1  0
160360  1  0
160361  1  0
161362  1  0
163363  1  0
164364  1  0
164365  1  0
167366  1  0
168367  1  6
169368  1  0
169369  1  0
170370  1  0
170371  1  0
173372  1  0
176373  1  0
178374  1  0
178375  1  0
179376  1  0
179377  1  0
180378  1  0
180379  1  0
181380  1  0
181381  1  0
182382  1  0
182383  1  0
183384  1  0
183385  1  0
184386  1  0
185387  1  0
185388  1  0
185389  1  0
188390  1  0
189391  1  1
190392  1  0
190393  1  0
191394  1  0
191395  1  0
193396  1  0
193397  1  0
197398  1  0
198399  1  6
199400  1  0
199401  1  0
200402  1  0
200403  1  0
201404  1  0
201405  1  0
202406  1  0
204407  1  0
205408  1  0
205409  1  0
208410  1  0
M  END
