
     RDKit          2D

423427  0  0  0  0  0  0  0  0999 V2000
  -30.0395  -13.2575    0.0000 N   0  0  0  0  0  0  0  0  0  0  0  0
  -28.6231  -12.7640    0.0000 C   0  0  0  0  0  0  0  0  0  0  0  0
  -28.3422  -11.2905    0.0000 C   0  0  0  0  0  0  0  0  0  0  0  0
  -26.9257  -10.7970    0.0000 C   0  0  0  0  0  0  0  0  0  0  0  0
  -25.7901  -11.7769    0.0000 O   0  0  0  0  0  0  0  0  0  0  0  0
  -26.6449   -9.3235    0.0000 N   0  0  0  0  0  0  0  0  0  0  0  0
  -25.2284   -8.8300    0.0000 C   0  0  0  0  0  0  0  0  0  0  0  0
  -25.9604   -7.5207    0.0000 C   0  0  0  0  0  0  0  0  0  0  0  0
  -25.1926   -6.2321    0.0000 C   0  0  0  0  0  0  0  0  0  0  0  0
  -25.9246   -4.9229    0.0000 N   0  0  0  0  0  0  0  0  0  0  0  0
  -23.6927   -6.2529    0.0000 O   0  0  0  0  0  0  0  0  0  0  0  0
  -23.7286   -8.8507    0.0000 C   0  0  0  0  0  0  0  0  0  0  0  0
  -22.9607   -7.5621    0.0000 O   0  0  0  0  0  0  0  0  0  0  0  0
  -22.9966  -10.1599    0.0000 N   0  0  0  0  0  0  0  0  0  0  0  0
  -21.4967  -10.1806    0.0000 C   0  0  0  0  0  0  0  0  0  0  0  0
  -21.7775  -11.6541    0.0000 C   0  0  0  0  0  0  0  0  0  0  0  0
  -23.1940  -12.1477    0.0000 C   0  0  0  0  0  0  0  0  0  0  0  0
  -23.4749  -13.6211    0.0000 C   0  0  0  0  0  0  0  0  0  0  0  0
  -24.8913  -14.1147    0.0000 O   0  0  0  0  0  0  0  0  0  0  0  0
  -22.3392  -14.6011    0.0000 O   0  0  0  0  0  0  0  0  0  0  0  0
  -20.0802   -9.6871    0.0000 C   0  0  0  0  0  0  0  0  0  0  0  0
  -19.0725  -10.7982    0.0000 O   0  0  0  0  0  0  0  0  0  0  0  0
  -19.7994   -8.2136    0.0000 N   0  0  0  0  0  0  0  0  0  0  0  0
  -18.3829   -7.7201    0.0000 C   0  0  0  0  0  0  0  0  0  0  0  0
  -18.1428   -9.2008    0.0000 C   0  0  0  0  0  0  0  0  0  0  0  0
  -16.7405   -9.7332    0.0000 C   0  0  0  0  0  0  0  0  0  0  0  0
  -16.5005  -11.2139    0.0000 C   0  0  0  0  0  0  0  0  0  0  0  0
  -15.2407   -9.7539    0.0000 C   0  0  0  0  0  0  0  0  0  0  0  0
  -17.2206   -6.7719    0.0000 C   0  0  0  0  0  0  0  0  0  0  0  0
  -15.8183   -7.3043    0.0000 O   0  0  0  0  0  0  0  0  0  0  0  0
  -17.4607   -5.2912    0.0000 N   0  0  0  0  0  0  0  0  0  0  0  0
  -16.2984   -4.3430    0.0000 C   0  0  0  0  0  0  0  0  0  0  0  0
  -17.4341   -3.3630    0.0000 C   0  0  0  0  0  0  0  0  0  0  0  0
  -18.8506   -3.8566    0.0000 C   0  0  0  0  0  0  0  0  0  0  0  0
  -19.9862   -2.8766    0.0000 C   0  0  0  0  0  0  0  0  0  0  0  0
  -21.4027   -3.3701    0.0000 C   0  0  0  0  0  0  0  0  0  0  0  0
  -22.5383   -2.3902    0.0000 N   0  0  0  0  0  0  0  0  0  0  0  0
  -14.8819   -3.8495    0.0000 C   0  0  0  0  0  0  0  0  0  0  0  0
  -13.8742   -4.9605    0.0000 O   0  0  0  0  0  0  0  0  0  0  0  0
  -14.6011   -2.3760    0.0000 N   0  0  0  0  0  0  0  0  0  0  0  0
  -13.1846   -1.8825    0.0000 C   0  0  0  0  0  0  0  0  0  0  0  0
  -11.9341   -2.7108    0.0000 C   0  0  0  0  0  0  0  0  0  0  0  0
  -10.5493   -3.2874    0.0000 C   0  0  0  0  0  0  0  0  0  0  0  0
   -9.0805   -3.5916    0.0000 C   0  0  0  0  0  0  0  0  0  0  0  0
   -7.5806   -3.6123    0.0000 C   0  0  0  0  0  0  0  0  0  0  0  0
   -6.1040   -3.3488    0.0000 C   0  0  0  0  0  0  0  0  0  0  0  0
   -4.7039   -2.8106    0.0000 C   0  0  0  0  0  0  0  0  0  0  0  0
   -3.4309   -2.0171    0.0000 C   0  0  0  0  0  0  0  0  0  0  0  0
  -13.5515   -3.3369    0.0000 C   0  0  0  0  0  0  0  0  0  0  0  0
  -14.2558   -0.8325    0.0000 C   0  0  0  0  0  0  0  0  0  0  0  0
  -15.5122   -1.6520    0.0000 O   0  0  0  0  0  0  0  0  0  0  0  0
  -15.1090    0.4013    0.0000 N   0  0  0  0  0  0  0  0  0  0  0  0
  -15.7132    1.7742    0.0000 C   0  0  0  0  0  0  0  0  0  0  0  0
  -16.6750    0.6232    0.0000 C   0  0  0  0  0  0  0  0  0  0  0  0
  -18.1528    0.8806    0.0000 O   0  0  0  0  0  0  0  0  0  0  0  0
  -16.0467    3.2367    0.0000 C   0  0  0  0  0  0  0  0  0  0  0  0
  -17.5342    3.0437    0.0000 O   0  0  0  0  0  0  0  0  0  0  0  0
  -16.0974    4.7358    0.0000 N   0  0  0  0  0  0  0  0  0  0  0  0
  -15.8634    6.2175    0.0000 C   0  0  0  0  0  0  0  0  0  0  0  0
  -17.2949    5.7691    0.0000 C   0  0  0  0  0  0  0  0  0  0  0  0
  -18.3989    6.7846    0.0000 C   0  0  0  0  0  0  0  0  0  0  0  0
  -18.0714    8.2484    0.0000 C   0  0  0  0  0  0  0  0  0  0  0  0
  -19.1754    9.2639    0.0000 C   0  0  0  0  0  0  0  0  0  0  0  0
  -20.6068    8.8156    0.0000 C   0  0  0  0  0  0  0  0  0  0  0  0
  -20.9343    7.3518    0.0000 C   0  0  0  0  0  0  0  0  0  0  0  0
  -19.8303    6.3363    0.0000 C   0  0  0  0  0  0  0  0  0  0  0  0
  -15.3533    7.6281    0.0000 C   0  0  0  0  0  0  0  0  0  0  0  0
  -16.6207    8.4304    0.0000 O   0  0  0  0  0  0  0  0  0  0  0  0
  -14.5855    8.9166    0.0000 N   0  0  0  0  0  0  0  0  0  0  0  0
  -13.5876   10.0366    0.0000 C   0  0  0  0  0  0  0  0  0  0  0  0
  -15.0342   10.4333    0.0000 C   0  0  0  0  0  0  0  0  0  0  0  0
  -15.4139   11.8844    0.0000 C   0  0  0  0  0  0  0  0  0  0  0  0
  -14.3471   12.9389    0.0000 C   0  0  0  0  0  0  0  0  0  0  0  0
  -14.7268   14.3900    0.0000 C   0  0  0  0  0  0  0  0  0  0  0  0
  -16.1734   14.7867    0.0000 C   0  0  0  0  0  0  0  0  0  0  0  0
  -17.2402   13.7323    0.0000 C   0  0  0  0  0  0  0  0  0  0  0  0
  -16.8605   12.2812    0.0000 C   0  0  0  0  0  0  0  0  0  0  0  0
  -12.3958   10.9475    0.0000 C   0  0  0  0  0  0  0  0  0  0  0  0
  -13.0282   12.3076    0.0000 O   0  0  0  0  0  0  0  0  0  0  0  0
  -11.0532   11.6163    0.0000 N   0  0  0  0  0  0  0  0  0  0  0  0
   -9.6083   12.0190    0.0000 C   0  0  0  0  0  0  0  0  0  0  0  0
  -10.6108   13.1349    0.0000 C   0  0  0  0  0  0  0  0  0  0  0  0
   -8.1133   12.1410    0.0000 C   0  0  0  0  0  0  0  0  0  0  0  0
   -8.0926   13.6408    0.0000 O   0  0  0  0  0  0  0  0  0  0  0  0
   -6.6222   11.9778    0.0000 N   0  0  0  0  0  0  0  0  0  0  0  0
   -5.1889   11.5354    0.0000 C   0  0  0  0  0  0  0  0  0  0  0  0
   -5.4290   13.0161    0.0000 C   0  0  0  0  0  0  0  0  0  0  0  0
   -4.2667   13.9643    0.0000 C   0  0  0  0  0  0  0  0  0  0  0  0
   -4.5068   15.4450    0.0000 C   0  0  0  0  0  0  0  0  0  0  0  0
   -2.8502   14.4578    0.0000 C   0  0  0  0  0  0  0  0  0  0  0  0
   -3.8653   10.8297    0.0000 C   0  0  0  0  0  0  0  0  0  0  0  0
   -2.8907   11.9700    0.0000 O   0  0  0  0  0  0  0  0  0  0  0  0
   -2.6991    9.8863    0.0000 N   0  0  0  0  0  0  0  0  0  0  0  0
   -1.7325    8.7392    0.0000 C   0  0  0  0  0  0  0  0  0  0  0  0
   -1.1340   10.1146    0.0000 C   0  0  0  0  0  0  0  0  0  0  0  0
    0.3564   10.2840    0.0000 C   0  0  0  0  0  0  0  0  0  0  0  0
    0.9550   11.6594    0.0000 C   0  0  0  0  0  0  0  0  0  0  0  0
    2.4454   11.8287    0.0000 N   0  0  0  0  0  0  0  0  0  0  0  0
    3.0440   13.2041    0.0000 C   0  0  0  0  0  0  0  0  0  0  0  0
    4.5344   13.3734    0.0000 N   0  0  0  0  0  0  0  0  0  0  0  0
    2.1521   14.4102    0.0000 N   0  0  0  0  0  0  0  0  0  0  0  0
   -1.0005    7.4299    0.0000 C   0  0  0  0  0  0  0  0  0  0  0  0
    0.4358    7.8623    0.0000 O   0  0  0  0  0  0  0  0  0  0  0  0
   -0.5295    6.0058    0.0000 N   0  0  0  0  0  0  0  0  0  0  0  0
   -0.3366    4.5183    0.0000 C   0  0  0  0  0  0  0  0  0  0  0  0
   -0.4286    3.0211    0.0000 C   0  0  0  0  0  0  0  0  0  0  0  0
   -0.8024    1.5684    0.0000 C   0  0  0  0  0  0  0  0  0  0  0  0
   -1.4443    0.2127    0.0000 C   0  0  0  0  0  0  0  0  0  0  0  0
   -2.3311   -0.9971    0.0000 C   0  0  0  0  0  0  0  0  0  0  0  0
    1.0454    3.9351    0.0000 C   0  0  0  0  0  0  0  0  0  0  0  0
    0.9105    5.3517    0.0000 C   0  0  0  0  0  0  0  0  0  0  0  0
    0.9955    6.8493    0.0000 O   0  0  0  0  0  0  0  0  0  0  0  0
    2.2559    4.6884    0.0000 N   0  0  0  0  0  0  0  0  0  0  0  0
    3.5030    5.5219    0.0000 C   0  0  0  0  0  0  0  0  0  0  0  0
    4.3899    6.7316    0.0000 C   0  0  0  0  0  0  0  0  0  0  0  0
    5.8810    6.5684    0.0000 C   0  0  0  0  0  0  0  0  0  0  0  0
    6.7679    7.7782    0.0000 C   0  0  0  0  0  0  0  0  0  0  0  0
    8.2590    7.6150    0.0000 N   0  0  0  0  0  0  0  0  0  0  0  0
    6.1636    9.1511    0.0000 O   0  0  0  0  0  0  0  0  0  0  0  0
    4.8484    4.8585    0.0000 C   0  0  0  0  0  0  0  0  0  0  0  0
    6.1878    5.5338    0.0000 O   0  0  0  0  0  0  0  0  0  0  0  0
    4.9466    3.3618    0.0000 N   0  0  0  0  0  0  0  0  0  0  0  0
    6.2920    2.6984    0.0000 C   0  0  0  0  0  0  0  0  0  0  0  0
    7.7831    2.5353    0.0000 C   0  0  0  0  0  0  0  0  0  0  0  0
    8.5159    3.8441    0.0000 C   0  0  0  0  0  0  0  0  0  0  0  0
    9.1285    1.8719    0.0000 C   0  0  0  0  0  0  0  0  0  0  0  0
   10.3756    2.7054    0.0000 C   0  0  0  0  0  0  0  0  0  0  0  0
    6.3902    1.2017    0.0000 C   0  0  0  0  0  0  0  0  0  0  0  0
    7.5351    0.2325    0.0000 O   0  0  0  0  0  0  0  0  0  0  0  0
    5.1431    0.3682    0.0000 N   0  0  0  0  0  0  0  0  0  0  0  0
    3.7358    0.8873    0.0000 C   0  0  0  0  0  0  0  0  0  0  0  0
    2.8072   -0.2908    0.0000 C   0  0  0  0  0  0  0  0  0  0  0  0
    3.6407   -1.5379    0.0000 C   0  0  0  0  0  0  0  0  0  0  0  0
    5.0843   -1.1306    0.0000 C   0  0  0  0  0  0  0  0  0  0  0  0
    5.3385   -2.6090    0.0000 C   0  0  0  0  0  0  0  0  0  0  0  0
    4.3108   -3.7016    0.0000 O   0  0  0  0  0  0  0  0  0  0  0  0
    6.7458   -3.1280    0.0000 N   0  0  0  0  0  0  0  0  0  0  0  0
    6.9999   -4.6063    0.0000 C   0  0  0  0  0  0  0  0  0  0  0  0
    6.7331   -6.0824    0.0000 C   0  0  0  0  0  0  0  0  0  0  0  0
    7.8781   -7.0515    0.0000 C   0  0  0  0  0  0  0  0  0  0  0  0
    7.6113   -8.5276    0.0000 C   0  0  0  0  0  0  0  0  0  0  0  0
    8.7562   -9.4967    0.0000 O   0  0  0  0  0  0  0  0  0  0  0  0
    6.1996   -9.0346    0.0000 O   0  0  0  0  0  0  0  0  0  0  0  0
    8.4073   -5.1254    0.0000 C   0  0  0  0  0  0  0  0  0  0  0  0
    8.8397   -6.5617    0.0000 O   0  0  0  0  0  0  0  0  0  0  0  0
    9.5605   -4.1661    0.0000 N   0  0  0  0  0  0  0  0  0  0  0  0
   10.9678   -4.6852    0.0000 C   0  0  0  0  0  0  0  0  0  0  0  0
   12.1127   -5.6543    0.0000 C   0  0  0  0  0  0  0  0  0  0  0  0
   11.8459   -7.1304    0.0000 C   0  0  0  0  0  0  0  0  0  0  0  0
   12.9908   -8.0995    0.0000 C   0  0  0  0  0  0  0  0  0  0  0  0
   11.0904   -8.4262    0.0000 C   0  0  0  0  0  0  0  0  0  0  0  0
   12.1210   -3.7260    0.0000 C   0  0  0  0  0  0  0  0  0  0  0  0
   11.8668   -2.2476    0.0000 O   0  0  0  0  0  0  0  0  0  0  0  0
   13.5283   -4.2450    0.0000 N   0  0  0  0  0  0  0  0  0  0  0  0
   14.6815   -3.2858    0.0000 C   0  0  0  0  0  0  0  0  0  0  0  0
   15.4370   -1.9899    0.0000 C   0  0  0  0  0  0  0  0  0  0  0  0
   16.9370   -1.9964    0.0000 C   0  0  0  0  0  0  0  0  0  0  0  0
   17.6926   -0.7006    0.0000 C   0  0  0  0  0  0  0  0  0  0  0  0
   19.1926   -0.7070    0.0000 O   0  0  0  0  0  0  0  0  0  0  0  0
   16.9481    0.6017    0.0000 O   0  0  0  0  0  0  0  0  0  0  0  0
   16.0888   -3.8048    0.0000 C   0  0  0  0  0  0  0  0  0  0  0  0
   16.3430   -5.2831    0.0000 O   0  0  0  0  0  0  0  0  0  0  0  0
   17.2420   -2.8456    0.0000 N   0  0  0  0  0  0  0  0  0  0  0  0
   18.6493   -3.3646    0.0000 C   0  0  0  0  0  0  0  0  0  0  0  0
   20.1493   -3.3711    0.0000 C   0  0  0  0  0  0  0  0  0  0  0  0
   20.9049   -2.0752    0.0000 C   0  0  0  0  0  0  0  0  0  0  0  0
   22.4049   -2.0817    0.0000 N   0  0  0  0  0  0  0  0  0  0  0  0
   20.1604   -0.7730    0.0000 O   0  0  0  0  0  0  0  0  0  0  0  0
   18.9035   -4.8429    0.0000 C   0  0  0  0  0  0  0  0  0  0  0  0
   17.7503   -5.8022    0.0000 O   0  0  0  0  0  0  0  0  0  0  0  0
   20.3108   -5.3620    0.0000 N   0  0  0  0  0  0  0  0  0  0  0  0
   20.5649   -6.8403    0.0000 C   0  0  0  0  0  0  0  0  0  0  0  0
   20.2981   -8.3164    0.0000 C   0  0  0  0  0  0  0  0  0  0  0  0
   18.8864   -8.8234    0.0000 C   0  0  0  0  0  0  0  0  0  0  0  0
   18.6196  -10.2995    0.0000 N   0  0  0  0  0  0  0  0  0  0  0  0
   17.7415   -7.8543    0.0000 O   0  0  0  0  0  0  0  0  0  0  0  0
   21.9723   -7.3594    0.0000 C   0  0  0  0  0  0  0  0  0  0  0  0
   22.4047   -8.7957    0.0000 O   0  0  0  0  0  0  0  0  0  0  0  0
   23.1255   -6.4001    0.0000 N   0  0  0  0  0  0  0  0  0  0  0  0
   24.5328   -6.9192    0.0000 C   0  0  0  0  0  0  0  0  0  0  0  0
   25.6777   -7.8883    0.0000 C   0  0  0  0  0  0  0  0  0  0  0  0
   27.0894   -7.3813    0.0000 C   0  0  0  0  0  0  0  0  0  0  0  0
   28.2344   -8.3504    0.0000 C   0  0  0  0  0  0  0  0  0  0  0  0
   29.6461   -7.8434    0.0000 O   0  0  0  0  0  0  0  0  0  0  0  0
   27.9676   -9.8265    0.0000 O   0  0  0  0  0  0  0  0  0  0  0  0
   25.6860   -5.9599    0.0000 C   0  0  0  0  0  0  0  0  0  0  0  0
   27.1461   -6.3036    0.0000 O   0  0  0  0  0  0  0  0  0  0  0  0
   25.4318   -4.4816    0.0000 N   0  0  0  0  0  0  0  0  0  0  0  0
   26.5850   -3.5224    0.0000 C   0  0  0  0  0  0  0  0  0  0  0  0
   27.9967   -3.0154    0.0000 C   0  0  0  0  0  0  0  0  0  0  0  0
   28.2635   -1.5393    0.0000 C   0  0  0  0  0  0  0  0  0  0  0  0
   29.6753   -1.0323    0.0000 C   0  0  0  0  0  0  0  0  0  0  0  0
   29.9420    0.4438    0.0000 C   0  0  0  0  0  0  0  0  0  0  0  0
   31.3538    0.9508    0.0000 N   0  0  0  0  0  0  0  0  0  0  0  0
   26.3309   -2.0441    0.0000 C   0  0  0  0  0  0  0  0  0  0  0  0
   27.3585   -0.9514    0.0000 O   0  0  0  0  0  0  0  0  0  0  0  0
   24.9235   -1.5250    0.0000 N   0  0  0  0  0  0  0  0  0  0  0  0
   24.6694   -0.0467    0.0000 C   0  0  0  0  0  0  0  0  0  0  0  0
   25.1141    1.3859    0.0000 C   0  0  0  0  0  0  0  0  0  0  0  0
   23.2621    0.4724    0.0000 C   0  0  0  0  0  0  0  0  0  0  0  0
   22.1089   -0.4869    0.0000 O   0  0  0  0  0  0  0  0  0  0  0  0
   23.0079    1.9507    0.0000 N   0  0  0  0  0  0  0  0  0  0  0  0
   21.6626    2.6140    0.0000 C   0  0  0  0  0  0  0  0  0  0  0  0
   21.8777    4.0985    0.0000 C   0  0  0  0  0  0  0  0  0  0  0  0
   23.3560    4.3527    0.0000 C   0  0  0  0  0  0  0  0  0  0  0  0
   24.0545    3.0252    0.0000 C   0  0  0  0  0  0  0  0  0  0  0  0
   25.3017    3.8587    0.0000 C   0  0  0  0  0  0  0  0  0  0  0  0
   26.6470    3.1954    0.0000 O   0  0  0  0  0  0  0  0  0  0  0  0
   25.3866    5.3563    0.0000 O   0  0  0  0  0  0  0  0  0  0  0  0
  -30.3204  -14.7310    0.0000 H   0  0  0  0  0  0  0  0  0  0  0  0
  -31.1752  -12.2776    0.0000 H   0  0  0  0  0  0  0  0  0  0  0  0
  -28.3830  -14.2447    0.0000 H   0  0  0  0  0  0  0  0  0  0  0  0
  -27.1232  -12.7847    0.0000 H   0  0  0  0  0  0  0  0  0  0  0  0
  -29.8421  -11.2698    0.0000 H   0  0  0  0  0  0  0  0  0  0  0  0
  -28.5823   -9.8098    0.0000 H   0  0  0  0  0  0  0  0  0  0  0  0
  -27.4628   -8.7762    0.0000 H   0  0  0  0  0  0  0  0  0  0  0  0
  -24.9884  -10.3106    0.0000 H   0  0  0  0  0  0  0  0  0  0  0  0
  -27.0961   -6.5408    0.0000 H   0  0  0  0  0  0  0  0  0  0  0  0
  -26.7931   -8.0453    0.0000 H   0  0  0  0  0  0  0  0  0  0  0  0
  -25.1567   -3.6343    0.0000 H   0  0  0  0  0  0  0  0  0  0  0  0
  -27.4244   -4.9022    0.0000 H   0  0  0  0  0  0  0  0  0  0  0  0
  -23.4851  -10.7899    0.0000 H   0  0  0  0  0  0  0  0  0  0  0  0
  -21.7368   -8.7000    0.0000 H   0  0  0  0  0  0  0  0  0  0  0  0
  -21.5375  -13.1348    0.0000 H   0  0  0  0  0  0  0  0  0  0  0  0
  -20.2777  -11.6748    0.0000 H   0  0  0  0  0  0  0  0  0  0  0  0
  -24.6939  -12.1269    0.0000 H   0  0  0  0  0  0  0  0  0  0  0  0
  -23.6398  -11.3822    0.0000 H   0  0  0  0  0  0  0  0  0  0  0  0
  -20.9350   -7.2337    0.0000 H   0  0  0  0  0  0  0  0  0  0  0  0
  -19.1149   -6.4109    0.0000 H   0  0  0  0  0  0  0  0  0  0  0  0
  -18.4237  -10.6743    0.0000 H   0  0  0  0  0  0  0  0  0  0  0  0
  -19.6031   -9.5436    0.0000 H   0  0  0  0  0  0  0  0  0  0  0  0
  -16.4597   -8.2597    0.0000 H   0  0  0  0  0  0  0  0  0  0  0  0
  -15.1735  -11.9133    0.0000 H   0  0  0  0  0  0  0  0  0  0  0  0
  -16.7813  -12.6874    0.0000 H   0  0  0  0  0  0  0  0  0  0  0  0
  -17.9917  -11.3762    0.0000 H   0  0  0  0  0  0  0  0  0  0  0  0
  -14.3545  -10.9642    0.0000 H   0  0  0  0  0  0  0  0  0  0  0  0
  -13.8242   -9.2604    0.0000 H   0  0  0  0  0  0  0  0  0  0  0  0
  -15.4807   -8.2733    0.0000 H   0  0  0  0  0  0  0  0  0  0  0  0
  -18.9175   -4.9337    0.0000 H   0  0  0  0  0  0  0  0  0  0  0  0
  -15.5664   -5.6523    0.0000 H   0  0  0  0  0  0  0  0  0  0  0  0
  -18.0010   -1.9743    0.0000 H   0  0  0  0  0  0  0  0  0  0  0  0
  -16.2718   -2.4148    0.0000 H   0  0  0  0  0  0  0  0  0  0  0  0
  -19.8886   -4.9394    0.0000 H   0  0  0  0  0  0  0  0  0  0  0  0
  -18.6365   -5.3412    0.0000 H   0  0  0  0  0  0  0  0  0  0  0  0
  -20.5532   -1.4879    0.0000 H   0  0  0  0  0  0  0  0  0  0  0  0
  -18.9482   -1.7938    0.0000 H   0  0  0  0  0  0  0  0  0  0  0  0
  -22.5650   -4.3184    0.0000 H   0  0  0  0  0  0  0  0  0  0  0  0
  -20.8358   -4.7589    0.0000 H   0  0  0  0  0  0  0  0  0  0  0  0
  -23.9548   -2.8837    0.0000 H   0  0  0  0  0  0  0  0  0  0  0  0
  -23.2703   -1.0809    0.0000 H   0  0  0  0  0  0  0  0  0  0  0  0
  -21.5003   -1.3074    0.0000 H   0  0  0  0  0  0  0  0  0  0  0  0
  -15.8477   -1.5418    0.0000 H   0  0  0  0  0  0  0  0  0  0  0  0
  -12.0190   -4.2084    0.0000 H   0  0  0  0  0  0  0  0  0  0  0  0
  -13.1301   -3.6160    0.0000 H   0  0  0  0  0  0  0  0  0  0  0  0
  -10.3493   -4.7740    0.0000 H   0  0  0  0  0  0  0  0  0  0  0  0
  -11.5525   -4.4026    0.0000 H   0  0  0  0  0  0  0  0  0  0  0  0
   -8.6028   -5.0135    0.0000 H   0  0  0  0  0  0  0  0  0  0  0  0
   -9.8544   -4.8765    0.0000 H   0  0  0  0  0  0  0  0  0  0  0  0
   -6.8424   -4.9181    0.0000 H   0  0  0  0  0  0  0  0  0  0  0  0
   -8.0974   -5.0205    0.0000 H   0  0  0  0  0  0  0  0  0  0  0  0
   -5.1320   -4.4913    0.0000 H   0  0  0  0  0  0  0  0  0  0  0  0
   -6.3449   -4.8293    0.0000 H   0  0  0  0  0  0  0  0  0  0  0  0
   -3.4276   -3.5988    0.0000 H   0  0  0  0  0  0  0  0  0  0  0  0
   -4.6603   -4.3099    0.0000 H   0  0  0  0  0  0  0  0  0  0  0  0
   -2.5200   -3.2089    0.0000 H   0  0  0  0  0  0  0  0  0  0  0  0
  -14.5689   -4.2258    0.0000 H   0  0  0  0  0  0  0  0  0  0  0  0
  -12.8594   -4.7595    0.0000 H   0  0  0  0  0  0  0  0  0  0  0  0
  -11.9133   -3.7036    0.0000 H   0  0  0  0  0  0  0  0  0  0  0  0
  -16.3192   -0.4848    0.0000 H   0  0  0  0  0  0  0  0  0  0  0  0
  -17.1716    2.1248    0.0000 H   0  0  0  0  0  0  0  0  0  0  0  0
  -17.3533   -0.7147    0.0000 H   0  0  0  0  0  0  0  0  0  0  0  0
  -15.5939   -0.4167    0.0000 H   0  0  0  0  0  0  0  0  0  0  0  0
  -19.1146   -0.2705    0.0000 H   0  0  0  0  0  0  0  0  0  0  0  0
  -17.5946    4.6447    0.0000 H   0  0  0  0  0  0  0  0  0  0  0  0
  -16.9008    7.3009    0.0000 H   0  0  0  0  0  0  0  0  0  0  0  0
  -18.5888    5.0103    0.0000 H   0  0  0  0  0  0  0  0  0  0  0  0
  -16.9475    4.3099    0.0000 H   0  0  0  0  0  0  0  0  0  0  0  0
  -16.7053    8.8679    0.0000 H   0  0  0  0  0  0  0  0  0  0  0  0
  -18.8479   10.7278    0.0000 H   0  0  0  0  0  0  0  0  0  0  0  0
  -21.7108    9.8311    0.0000 H   0  0  0  0  0  0  0  0  0  0  0  0
  -22.3657    6.9034    0.0000 H   0  0  0  0  0  0  0  0  0  0  0  0
  -20.1577    4.8725    0.0000 H   0  0  0  0  0  0  0  0  0  0  0  0
  -15.8943    9.6494    0.0000 H   0  0  0  0  0  0  0  0  0  0  0  0
  -13.8745   11.5089    0.0000 H   0  0  0  0  0  0  0  0  0  0  0  0
  -16.5330   10.4945    0.0000 H   0  0  0  0  0  0  0  0  0  0  0  0
  -15.5309    9.0179    0.0000 H   0  0  0  0  0  0  0  0  0  0  0  0
  -12.8629   12.7214    0.0000 H   0  0  0  0  0  0  0  0  0  0  0  0
  -13.6599   15.4444    0.0000 H   0  0  0  0  0  0  0  0  0  0  0  0
  -16.5531   16.2379    0.0000 H   0  0  0  0  0  0  0  0  0  0  0  0
  -18.6868   14.1290    0.0000 H   0  0  0  0  0  0  0  0  0  0  0  0
  -17.9274   11.2268    0.0000 H   0  0  0  0  0  0  0  0  0  0  0  0
  -11.7581   12.9404    0.0000 H   0  0  0  0  0  0  0  0  0  0  0  0
   -9.0537   13.4127    0.0000 H   0  0  0  0  0  0  0  0  0  0  0  0
  -10.1457   14.5609    0.0000 H   0  0  0  0  0  0  0  0  0  0  0  0
  -11.8385   13.9966    0.0000 H   0  0  0  0  0  0  0  0  0  0  0  0
  -11.7938   12.2127    0.0000 H   0  0  0  0  0  0  0  0  0  0  0  0
   -6.4993   13.4728    0.0000 H   0  0  0  0  0  0  0  0  0  0  0  0
   -3.8716   12.2528    0.0000 H   0  0  0  0  0  0  0  0  0  0  0  0
   -6.1610   14.3253    0.0000 H   0  0  0  0  0  0  0  0  0  0  0  0
   -6.9228   12.8799    0.0000 H   0  0  0  0  0  0  0  0  0  0  0  0
   -3.2396   12.8711    0.0000 H   0  0  0  0  0  0  0  0  0  0  0  0
   -3.4687   16.5278    0.0000 H   0  0  0  0  0  0  0  0  0  0  0  0
   -5.2388   16.7542    0.0000 H   0  0  0  0  0  0  0  0  0  0  0  0
   -5.9728   15.1278    0.0000 H   0  0  0  0  0  0  0  0  0  0  0  0
   -2.3919   15.8861    0.0000 H   0  0  0  0  0  0  0  0  0  0  0  0
   -1.3504   14.4371    0.0000 H   0  0  0  0  0  0  0  0  0  0  0  0
   -2.6102   12.9771    0.0000 H   0  0  0  0  0  0  0  0  0  0  0  0
   -1.7875   11.0775    0.0000 H   0  0  0  0  0  0  0  0  0  0  0  0
   -0.2365    8.6305    0.0000 H   0  0  0  0  0  0  0  0  0  0  0  0
   -1.0419   11.6118    0.0000 H   0  0  0  0  0  0  0  0  0  0  0  0
   -2.4642   10.8077    0.0000 H   0  0  0  0  0  0  0  0  0  0  0  0
    1.8149    9.9333    0.0000 H   0  0  0  0  0  0  0  0  0  0  0  0
    0.6294    8.8090    0.0000 H   0  0  0  0  0  0  0  0  0  0  0  0
    1.0470   13.1565    0.0000 H   0  0  0  0  0  0  0  0  0  0  0  0
   -0.4498   12.1851    0.0000 H   0  0  0  0  0  0  0  0  0  0  0  0
    3.3373   10.6226    0.0000 H   0  0  0  0  0  0  0  0  0  0  0  0
    5.1329   14.7488    0.0000 H   0  0  0  0  0  0  0  0  0  0  0  0
    5.4262   12.1674    0.0000 H   0  0  0  0  0  0  0  0  0  0  0  0
    2.7507   15.7856    0.0000 H   0  0  0  0  0  0  0  0  0  0  0  0
    0.6617   14.2408    0.0000 H   0  0  0  0  0  0  0  0  0  0  0  0
    0.8814    6.5151    0.0000 H   0  0  0  0  0  0  0  0  0  0  0  0
    1.0144    3.4306    0.0000 H   0  0  0  0  0  0  0  0  0  0  0  0
    0.7070    2.0412    0.0000 H   0  0  0  0  0  0  0  0  0  0  0  0
    0.6967    1.5143    0.0000 H   0  0  0  0  0  0  0  0  0  0  0  0
    0.2639    0.5133    0.0000 H   0  0  0  0  0  0  0  0  0  0  0  0
    0.0476    0.0566    0.0000 H   0  0  0  0  0  0  0  0  0  0  0  0
   -0.7542   -1.1191    0.0000 H   0  0  0  0  0  0  0  0  0  0  0  0
   -1.2112   -1.9949    0.0000 H   0  0  0  0  0  0  0  0  0  0  0  0
    1.3721    2.3015    0.0000 H   0  0  0  0  0  0  0  0  0  0  0  0
    2.3799    3.3465    0.0000 H   0  0  0  0  0  0  0  0  0  0  0  0
    1.7630    5.0408    0.0000 H   0  0  0  0  0  0  0  0  0  0  0  0
    2.5359    3.2148    0.0000 H   0  0  0  0  0  0  0  0  0  0  0  0
    2.4657    6.6053    0.0000 H   0  0  0  0  0  0  0  0  0  0  0  0
    4.8095    8.1717    0.0000 H   0  0  0  0  0  0  0  0  0  0  0  0
    3.0446    7.3949    0.0000 H   0  0  0  0  0  0  0  0  0  0  0  0
    7.2264    5.9051    0.0000 H   0  0  0  0  0  0  0  0  0  0  0  0
    6.0055    5.0736    0.0000 H   0  0  0  0  0  0  0  0  0  0  0  0
    9.1458    8.8247    0.0000 H   0  0  0  0  0  0  0  0  0  0  0  0
    8.8632    6.2421    0.0000 H   0  0  0  0  0  0  0  0  0  0  0  0
    3.8104    2.3825    0.0000 H   0  0  0  0  0  0  0  0  0  0  0  0
    6.5330    4.1790    0.0000 H   0  0  0  0  0  0  0  0  0  0  0  0
    7.5421    1.0547    0.0000 H   0  0  0  0  0  0  0  0  0  0  0  0
   10.1808    3.7843    0.0000 H   0  0  0  0  0  0  0  0  0  0  0  0
    9.0896    5.1851    0.0000 H   0  0  0  0  0  0  0  0  0  0  0  0
    7.4155    4.5674    0.0000 H   0  0  0  0  0  0  0  0  0  0  0  0
   10.1658    0.7885    0.0000 H   0  0  0  0  0  0  0  0  0  0  0  0
    8.3957    0.5631    0.0000 H   0  0  0  0  0  0  0  0  0  0  0  0
   11.7210    2.0421    0.0000 H   0  0  0  0  0  0  0  0  0  0  0  0
   11.2625    3.9151    0.0000 H   0  0  0  0  0  0  0  0  0  0  0  0
    9.6312    4.0077    0.0000 H   0  0  0  0  0  0  0  0  0  0  0  0
    4.5581    2.1417    0.0000 H   0  0  0  0  0  0  0  0  0  0  0  0
    2.4671    1.6876    0.0000 H   0  0  0  0  0  0  0  0  0  0  0  0
    1.7327    0.7558    0.0000 H   0  0  0  0  0  0  0  0  0  0  0  0
    1.6540   -1.2500    0.0000 H   0  0  0  0  0  0  0  0  0  0  0  0
    2.3132   -2.2365    0.0000 H   0  0  0  0  0  0  0  0  0  0  0  0
    4.0227   -2.9885    0.0000 H   0  0  0  0  0  0  0  0  0  0  0  0
    6.5811   -1.0324    0.0000 H   0  0  0  0  0  0  0  0  0  0  0  0
    7.8990   -2.1688    0.0000 H   0  0  0  0  0  0  0  0  0  0  0  0
    5.5000   -4.5999    0.0000 H   0  0  0  0  0  0  0  0  0  0  0  0
    5.9776   -7.3782    0.0000 H   0  0  0  0  0  0  0  0  0  0  0  0
    5.3258   -5.5634    0.0000 H   0  0  0  0  0  0  0  0  0  0  0  0
    9.2116   -7.7383    0.0000 H   0  0  0  0  0  0  0  0  0  0  0  0
    9.0479   -6.1126    0.0000 H   0  0  0  0  0  0  0  0  0  0  0  0
    9.3063   -2.6878    0.0000 H   0  0  0  0  0  0  0  0  0  0  0  0
   10.0599   -5.8793    0.0000 H   0  0  0  0  0  0  0  0  0  0  0  0
   13.5200   -6.1734    0.0000 H   0  0  0  0  0  0  0  0  0  0  0  0
   13.1594   -4.5798    0.0000 H   0  0  0  0  0  0  0  0  0  0  0  0
   10.3858   -6.7867    0.0000 H   0  0  0  0  0  0  0  0  0  0  0  0
   12.9060   -9.5971    0.0000 H   0  0  0  0  0  0  0  0  0  0  0  0
   14.3982   -8.6185    0.0000 H   0  0  0  0  0  0  0  0  0  0  0  0
   13.8987   -6.9054    0.0000 H   0  0  0  0  0  0  0  0  0  0  0  0
    9.6008   -8.6027    0.0000 H   0  0  0  0  0  0  0  0  0  0  0  0
   10.8236   -9.9023    0.0000 H   0  0  0  0  0  0  0  0  0  0  0  0
   12.4239   -9.1129    0.0000 H   0  0  0  0  0  0  0  0  0  0  0  0
   13.9607   -5.6813    0.0000 H   0  0  0  0  0  0  0  0  0  0  0  0
   13.5366   -2.3167    0.0000 H   0  0  0  0  0  0  0  0  0  0  0  0
   15.7038   -0.5139    0.0000 H   0  0  0  0  0  0  0  0  0  0  0  0
   14.0297   -1.4709    0.0000 H   0  0  0  0  0  0  0  0  0  0  0  0
   18.3971   -2.3400    0.0000 H   0  0  0  0  0  0  0  0  0  0  0  0
   17.3946   -3.4249    0.0000 H   0  0  0  0  0  0  0  0  0  0  0  0
   17.3531   -1.3497    0.0000 H   0  0  0  0  0  0  0  0  0  0  0  0
   19.0941   -1.9321    0.0000 H   0  0  0  0  0  0  0  0  0  0  0  0
   21.6094   -3.7147    0.0000 H   0  0  0  0  0  0  0  0  0  0  0  0
   20.2476   -4.8678    0.0000 H   0  0  0  0  0  0  0  0  0  0  0  0
   23.1604   -0.7859    0.0000 H   0  0  0  0  0  0  0  0  0  0  0  0
   23.1493   -3.3839    0.0000 H   0  0  0  0  0  0  0  0  0  0  0  0
   21.5723   -4.5505    0.0000 H   0  0  0  0  0  0  0  0  0  0  0  0
   19.0650   -6.8339    0.0000 H   0  0  0  0  0  0  0  0  0  0  0  0
   20.5523   -9.7947    0.0000 H   0  0  0  0  0  0  0  0  0  0  0  0
   21.7862   -8.5056    0.0000 H   0  0  0  0  0  0  0  0  0  0  0  0
   17.2079  -10.8065    0.0000 H   0  0  0  0  0  0  0  0  0  0  0  0
   19.7646  -11.2686    0.0000 H   0  0  0  0  0  0  0  0  0  0  0  0
   22.8713   -4.9218    0.0000 H   0  0  0  0  0  0  0  0  0  0  0  0
   23.7772   -8.2150    0.0000 H   0  0  0  0  0  0  0  0  0  0  0  0
   26.4221   -9.1905    0.0000 H   0  0  0  0  0  0  0  0  0  0  0  0
   24.5245   -8.8475    0.0000 H   0  0  0  0  0  0  0  0  0  0  0  0
   28.2426   -6.4220    0.0000 H   0  0  0  0  0  0  0  0  0  0  0  0
   26.8613   -5.8988    0.0000 H   0  0  0  0  0  0  0  0  0  0  0  0
   24.0245   -3.9626    0.0000 H   0  0  0  0  0  0  0  0  0  0  0  0
   27.3294   -4.8246    0.0000 H   0  0  0  0  0  0  0  0  0  0  0  0
   29.4848   -3.2046    0.0000 H   0  0  0  0  0  0  0  0  0  0  0  0
   28.2509   -4.4937    0.0000 H   0  0  0  0  0  0  0  0  0  0  0  0
   27.8311   -0.1030    0.0000 H   0  0  0  0  0  0  0  0  0  0  0  0
   26.8655   -0.9956    0.0000 H   0  0  0  0  0  0  0  0  0  0  0  0
   31.1633   -1.2215    0.0000 H   0  0  0  0  0  0  0  0  0  0  0  0
   30.1077   -2.4686    0.0000 H   0  0  0  0  0  0  0  0  0  0  0  0
   29.6879    1.9221    0.0000 H   0  0  0  0  0  0  0  0  0  0  0  0
   28.4540    0.6330    0.0000 H   0  0  0  0  0  0  0  0  0  0  0  0
   31.6206    2.4268    0.0000 H   0  0  0  0  0  0  0  0  0  0  0  0
   32.8538    0.9443    0.0000 H   0  0  0  0  0  0  0  0  0  0  0  0
   31.7862   -0.4856    0.0000 H   0  0  0  0  0  0  0  0  0  0  0  0
   23.7704   -2.4843    0.0000 H   0  0  0  0  0  0  0  0  0  0  0  0
   26.1694   -0.0531    0.0000 H   0  0  0  0  0  0  0  0  0  0  0  0
   26.3479    1.9364    0.0000 H   0  0  0  0  0  0  0  0  0  0  0  0
   25.0473    2.9253    0.0000 H   0  0  0  0  0  0  0  0  0  0  0  0
   23.4823    1.7986    0.0000 H   0  0  0  0  0  0  0  0  0  0  0  0
   21.1435    1.2067    0.0000 H   0  0  0  0  0  0  0  0  0  0  0  0
   20.2087    2.9831    0.0000 H   0  0  0  0  0  0  0  0  0  0  0  0
   20.3788    4.1573    0.0000 H   0  0  0  0  0  0  0  0  0  0  0  0
   21.7794    5.5953    0.0000 H   0  0  0  0  0  0  0  0  0  0  0  0
   22.9487    5.7963    0.0000 H   0  0  0  0  0  0  0  0  0  0  0  0
   24.6710    5.0743    0.0000 H   0  0  0  0  0  0  0  0  0  0  0  0
   25.1472    1.9976    0.0000 H   0  0  0  0  0  0  0  0  0  0  0  0
  1  2  1  0
  2  3  1  0
  3  4  1  0
  4  5  2  0
  4  6  1  0
  6  7  1  0
  7  8  1  0
  8  9  1  0
  9 10  1  0
  9 11  2  0
  7 12  1  0
 12 13  2  0
 12 14  1  0
 14 15  1  0
 15 16  1  0
 16 17  1  0
 17 18  1  0
 18 19  2  0
 18 20  1  0
 15 21  1  0
 21 22  2  0
 21 23  1  0
 23 24  1  0
 24 25  1  0
 25 26  1  0
 26 27  1  0
 26 28  1  0
 24 29  1  0
 29 30  2  0
 29 31  1  0
 31 32  1  0
 32 33  1  0
 33 34  1  0
 34 35  1  0
 35 36  1  0
 36 37  1  0
 32 38  1  0
 38 39  2  0
 38 40  1  0
 41 40  1  1
 41 42  1  0
 42 43  1  0
 43 44  1  0
 44 45  1  0
 45 46  1  0
 46 47  1  0
 47 48  1  0
 41 49  1  0
 41 50  1  0
 50 51  2  0
 50 52  1  0
 52 53  1  0
 53 54  1  0
 54 55  1  0
 53 56  1  0
 56 57  2  0
 56 58  1  0
 58 59  1  0
 59 60  1  0
 60 61  1  0
 61 62  2  0
 62 63  1  0
 63 64  2  0
 64 65  1  0
 65 66  2  0
 59 67  1  0
 67 68  2  0
 67 69  1  0
 69 70  1  0
 70 71  1  0
 71 72  1  0
 72 73  2  0
 73 74  1  0
 74 75  2  0
 75 76  1  0
 76 77  2  0
 70 78  1  0
 78 79  2  0
 78 80  1  0
 80 81  1  0
 81 82  1  0
 81 83  1  0
 83 84  2  0
 83 85  1  0
 85 86  1  0
 86 87  1  0
 87 88  1  0
 88 89  1  0
 88 90  1  0
 86 91  1  0
 91 92  2  0
 91 93  1  0
 93 94  1  0
 94 95  1  0
 95 96  1  0
 96 97  1  0
 97 98  1  0
 98 99  1  0
 99100  2  3
 99101  1  0
 94102  1  0
102103  2  0
102104  1  0
104105  1  0
105106  1  0
106107  1  0
107108  1  0
108109  1  0
105110  1  0
105111  1  6
111112  2  0
111113  1  0
113114  1  0
114115  1  0
115116  1  0
116117  1  0
117118  1  0
117119  2  0
114120  1  0
120121  2  0
120122  1  0
122123  1  0
123124  1  0
124125  1  0
124126  1  0
126127  1  0
123128  1  0
128129  2  0
128130  1  0
130131  1  0
131132  1  0
132133  1  0
133134  1  0
134135  1  0
135136  2  0
135137  1  0
137138  1  0
138139  1  0
139140  1  0
140141  1  0
141142  2  0
141143  1  0
138144  1  0
144145  2  0
144146  1  0
146147  1  0
147148  1  0
148149  1  0
149150  1  0
149151  1  0
147152  1  0
152153  2  0
152154  1  0
154155  1  0
155156  1  0
156157  1  0
157158  1  0
158159  2  0
158160  1  0
155161  1  0
161162  2  0
161163  1  0
163164  1  0
164165  1  0
165166  1  0
166167  1  0
166168  2  0
164169  1  0
169170  2  0
169171  1  0
171172  1  0
172173  1  0
173174  1  0
174175  1  0
174176  2  0
172177  1  0
177178  2  0
177179  1  0
179180  1  0
180181  1  0
181182  1  0
182183  1  0
183184  2  0
183185  1  0
180186  1  0
186187  2  0
186188  1  0
188189  1  0
189190  1  0
190191  1  0
191192  1  0
192193  1  0
193194  1  0
189195  1  0
195196  2  0
195197  1  0
197198  1  0
198199  1  0
198200  1  0
200201  2  0
200202  1  0
202203  1  0
203204  1  0
204205  1  0
205206  1  0
206207  1  0
207208  2  0
207209  1  0
 66 61  1  0
 77 72  1  0
134130  1  0
206202  1  0
 48109  2  0
  1210  1  0
  1211  1  0
  2212  1  0
  2213  1  0
  3214  1  0
  3215  1  0
  6216  1  0
  7217  1  1
  8218  1  0
  8219  1  0
 10220  1  0
 10221  1  0
 14222  1  0
 15223  1  6
 16224  1  0
 16225  1  0
 17226  1  0
 17227  1  0
 23228  1  0
 24229  1  6
 25230  1  0
 25231  1  0
 26232  1  0
 27233  1  0
 27234  1  0
 27235  1  0
 28236  1  0
 28237  1  0
 28238  1  0
 31239  1  0
 32240  1  1
 33241  1  0
 33242  1  0
 34243  1  0
 34244  1  0
 35245  1  0
 35246  1  0
 36247  1  0
 36248  1  0
 37249  1  0
 37250  1  0
 37251  1  0
 40252  1  0
 42253  1  0
 42254  1  0
 43255  1  0
 43256  1  0
 44257  1  0
 44258  1  0
 45259  1  0
 45260  1  0
 46261  1  0
 46262  1  0
 47263  1  0
 47264  1  0
 48265  1  0
 49266  1  0
 49267  1  0
 49268  1  0
 52269  1  0
 53270  1  1
 54271  1  0
 54272  1  0
 55273  1  0
 58274  1  0
 59275  1  1
 60276  1  0
 60277  1  0
 62278  1  0
 63279  1  0
 64280  1  0
 65281  1  0
 66282  1  0
 69283  1  0
 70284  1  1
 71285  1  0
 71286  1  0
 73287  1  0
 74288  1  0
 75289  1  0
 76290  1  0
 77291  1  0
 80292  1  0
 81293  1  1
 82294  1  0
 82295  1  0
 82296  1  0
 85297  1  0
 86298  1  1
 87299  1  0
 87300  1  0
 88301  1  0
 89302  1  0
 89303  1  0
 89304  1  0
 90305  1  0
 90306  1  0
 90307  1  0
 93308  1  0
 94309  1  1
 95310  1  0
 95311  1  0
 96312  1  0
 96313  1  0
 97314  1  0
 97315  1  0
 98316  1  0
100317  1  0
100318  1  0
101319  1  0
101320  1  0
104321  1  0
106322  1  0
106323  1  0
107324  1  0
107325  1  0
108326  1  0
108327  1  0
109328  1  0
110329  1  0
110330  1  0
110331  1  0
113332  1  0
114333  1  1
115334  1  0
115335  1  0
116336  1  0
116337  1  0
118338  1  0
118339  1  0
122340  1  0
123341  1  1
124342  1  6
125343  1  0
125344  1  0
125345  1  0
126346  1  0
126347  1  0
127348  1  0
127349  1  0
127350  1  0
131351  1  0
131352  1  0
132353  1  0
132354  1  0
133355  1  0
133356  1  0
134357  1  0
137358  1  0
138359  1  6
139360  1  0
139361  1  0
140362  1  0
140363  1  0
146364  1  0
147365  1  6
148366  1  0
148367  1  0
149368  1  0
150369  1  0
150370  1  0
150371  1  0
151372  1  0
151373  1  0
151374  1  0
154375  1  0
155376  1  1
156377  1  0
156378  1  0
157379  1  0
157380  1  0
163381  1  0
164382  1  1
165383  1  0
165384  1  0
167385  1  0
167386  1  0
171387  1  0
172388  1  6
173389  1  0
173390  1  0
175391  1  0
175392  1  0
179393  1  0
180394  1  6
181395  1  0
181396  1  0
182397  1  0
182398  1  0
188399  1  0
189400  1  6
190401  1  0
190402  1  0
191403  1  0
191404  1  0
192405  1  0
192406  1  0
193407  1  0
193408  1  0
194409  1  0
194410  1  0
194411  1  0
197412  1  0
198413  1  6
199414  1  0
199415  1  0
199416  1  0
203417  1  0
203418  1  0
204419  1  0
204420  1  0
205421  1  0
205422  1  0
206423  1  0
M  CHG  8  20  -1  37   1 100   1 143  -1 160  -1 185  -1 194   1 209  -1
M  END
