
     RDKit          2D

277287  0  0  0  0  0  0  0  0999 V2000
   10.9165    1.7178    0.0000 C   0  0  0  0  0  0  0  0  0  0  0  0
    9.7168    0.8174    0.0000 N   0  0  0  0  0  0  0  0  0  0  0  0
    8.3372    1.4061    0.0000 C   0  0  0  0  0  0  0  0  0  0  0  0
    8.1572    2.8953    0.0000 C   0  0  0  0  0  0  0  0  0  0  0  0
    6.7776    3.4841    0.0000 C   0  0  0  0  0  0  0  0  0  0  0  0
    5.5779    2.5837    0.0000 C   0  0  0  0  0  0  0  0  0  0  0  0
    5.7578    1.0945    0.0000 C   0  0  0  0  0  0  0  0  0  0  0  0
    7.1375    0.5057    0.0000 C   0  0  0  0  0  0  0  0  0  0  0  0
    4.3972    0.4632    0.0000 C   0  0  0  0  0  0  0  0  0  0  0  0
    3.3763    1.5622    0.0000 O   0  0  0  0  0  0  0  0  0  0  0  0
    4.1060    2.8727    0.0000 C   0  0  0  0  0  0  0  0  0  0  0  0
    3.4747    4.2334    0.0000 O   0  0  0  0  0  0  0  0  0  0  0  0
    2.9779   -0.0224    0.0000 C   0  0  0  0  0  0  0  0  0  0  0  0
    2.6889   -1.4943    0.0000 C   0  0  0  0  0  0  0  0  0  0  0  0
    1.2697   -1.9799    0.0000 C   0  0  0  0  0  0  0  0  0  0  0  0
    0.1395   -0.9937    0.0000 C   0  0  0  0  0  0  0  0  0  0  0  0
    0.4286    0.4782    0.0000 C   0  0  0  0  0  0  0  0  0  0  0  0
    1.8478    0.9638    0.0000 C   0  0  0  0  0  0  0  0  0  0  0  0
   -1.1200   -1.8083    0.0000 O   0  0  0  0  0  0  0  0  0  0  0  0
    3.8191   -2.4806    0.0000 O   0  0  0  0  0  0  0  0  0  0  0  0
    5.2383   -1.9950    0.0000 C   0  0  0  0  0  0  0  0  0  0  0  0
    5.5273   -0.5231    0.0000 C   0  0  0  0  0  0  0  0  0  0  0  0
    6.8117   -0.7244    0.0000 C   0  0  0  0  0  0  0  0  0  0  0  0
    7.4144   -1.2504    0.0000 C   0  0  0  0  0  0  0  0  0  0  0  0
    7.2602   -2.0354    0.0000 C   0  0  0  0  0  0  0  0  0  0  0  0
    6.5033   -2.2944    0.0000 C   0  0  0  0  0  0  0  0  0  0  0  0
    8.9178   -3.4819    0.0000 O   0  0  0  0  0  0  0  0  0  0  0  0
   10.3816    3.1192    0.0000 S   0  0  0  0  0  0  0  0  0  0  0  0
   12.2961    1.1290    0.0000 N   0  0  0  0  0  0  0  0  0  0  0  0
   13.4958    2.0294    0.0000 C   0  0  0  0  0  0  0  0  0  0  0  0
   14.8754    1.4407    0.0000 C   0  0  0  0  0  0  0  0  0  0  0  0
   16.0751    2.3411    0.0000 C   0  0  0  0  0  0  0  0  0  0  0  0
   15.8952    3.8302    0.0000 O   0  0  0  0  0  0  0  0  0  0  0  0
   17.4547    1.7523    0.0000 N   0  0  0  0  0  0  0  0  0  0  0  0
   18.7420    2.5224    0.0000 C   0  0  0  0  0  0  0  0  0  0  0  0
   19.8721    1.5361    0.0000 C   0  0  0  0  0  0  0  0  0  0  0  0
   19.2834    0.1565    0.0000 C   0  0  0  0  0  0  0  0  0  0  0  0
   17.7893    0.2901    0.0000 C   0  0  0  0  0  0  0  0  0  0  0  0
   17.8126   -1.2097    0.0000 C   0  0  0  0  0  0  0  0  0  0  0  0
   19.0244   -2.0938    0.0000 O   0  0  0  0  0  0  0  0  0  0  0  0
   16.5254   -1.9798    0.0000 N   0  0  0  0  0  0  0  0  0  0  0  0
   16.3918   -3.4738    0.0000 C   0  0  0  0  0  0  0  0  0  0  0  0
   14.9296   -3.8084    0.0000 C   0  0  0  0  0  0  0  0  0  0  0  0
   14.1595   -2.5212    0.0000 C   0  0  0  0  0  0  0  0  0  0  0  0
   15.1458   -1.3910    0.0000 C   0  0  0  0  0  0  0  0  0  0  0  0
   13.9187   -0.5283    0.0000 C   0  0  0  0  0  0  0  0  0  0  0  0
   13.8692    0.9709    0.0000 O   0  0  0  0  0  0  0  0  0  0  0  0
   12.5580   -1.1596    0.0000 N   0  0  0  0  0  0  0  0  0  0  0  0
   11.3309   -0.2969    0.0000 C   0  0  0  0  0  0  0  0  0  0  0  0
   10.4730    0.9335    0.0000 C   0  0  0  0  0  0  0  0  0  0  0  0
   11.1095    2.2918    0.0000 C   0  0  0  0  0  0  0  0  0  0  0  0
   10.2515    3.5222    0.0000 C   0  0  0  0  0  0  0  0  0  0  0  0
   10.8881    4.8804    0.0000 C   0  0  0  0  0  0  0  0  0  0  0  0
   10.0301    6.1108    0.0000 N   0  0  0  0  0  0  0  0  0  0  0  0
    9.9703   -0.9282    0.0000 C   0  0  0  0  0  0  0  0  0  0  0  0
    9.8366   -2.4222    0.0000 O   0  0  0  0  0  0  0  0  0  0  0  0
    8.7432   -0.0654    0.0000 N   0  0  0  0  0  0  0  0  0  0  0  0
    7.3825   -0.6967    0.0000 C   0  0  0  0  0  0  0  0  0  0  0  0
    6.3198   -1.7553    0.0000 C   0  0  0  0  0  0  0  0  0  0  0  0
    6.7052   -3.2050    0.0000 C   0  0  0  0  0  0  0  0  0  0  0  0
    5.6425   -4.2636    0.0000 C   0  0  0  0  0  0  0  0  0  0  0  0
    6.0280   -5.7132    0.0000 C   0  0  0  0  0  0  0  0  0  0  0  0
    4.9653   -6.7718    0.0000 N   0  0  0  0  0  0  0  0  0  0  0  0
    6.1555    0.1660    0.0000 C   0  0  0  0  0  0  0  0  0  0  0  0
    5.7447    1.6087    0.0000 O   0  0  0  0  0  0  0  0  0  0  0  0
    4.7948   -0.4653    0.0000 N   0  0  0  0  0  0  0  0  0  0  0  0
    3.5677    0.3974    0.0000 C   0  0  0  0  0  0  0  0  0  0  0  0
    2.7097    1.6278    0.0000 C   0  0  0  0  0  0  0  0  0  0  0  0
    3.3463    2.9861    0.0000 C   0  0  0  0  0  0  0  0  0  0  0  0
    4.8408    3.1139    0.0000 C   0  0  0  0  0  0  0  0  0  0  0  0
    5.4774    4.4722    0.0000 C   0  0  0  0  0  0  0  0  0  0  0  0
    4.6194    5.7025    0.0000 C   0  0  0  0  0  0  0  0  0  0  0  0
    3.1248    5.5747    0.0000 C   0  0  0  0  0  0  0  0  0  0  0  0
    2.4883    4.2165    0.0000 C   0  0  0  0  0  0  0  0  0  0  0  0
    2.2070   -0.2339    0.0000 C   0  0  0  0  0  0  0  0  0  0  0  0
    1.7159   -1.6512    0.0000 O   0  0  0  0  0  0  0  0  0  0  0  0
    0.9800    0.6289    0.0000 N   0  0  0  0  0  0  0  0  0  0  0  0
   -0.3807   -0.0024    0.0000 C   0  0  0  0  0  0  0  0  0  0  0  0
   -1.4434   -1.0610    0.0000 C   0  0  0  0  0  0  0  0  0  0  0  0
   -2.8916   -0.6700    0.0000 C   0  0  0  0  0  0  0  0  0  0  0  0
   -3.9543   -1.7286    0.0000 C   0  0  0  0  0  0  0  0  0  0  0  0
   -5.4024   -1.3376    0.0000 N   0  0  0  0  0  0  0  0  0  0  0  0
   -6.4651   -2.3962    0.0000 C   0  0  0  0  0  0  0  0  0  0  0  0
   -7.9133   -2.0052    0.0000 N   0  0  0  0  0  0  0  0  0  0  0  0
   -6.4419   -3.8960    0.0000 N   0  0  0  0  0  0  0  0  0  0  0  0
   -1.6078    0.8603    0.0000 C   0  0  0  0  0  0  0  0  0  0  0  0
   -1.2931    2.3269    0.0000 O   0  0  0  0  0  0  0  0  0  0  0  0
   -2.9685    0.2290    0.0000 N   0  0  0  0  0  0  0  0  0  0  0  0
   -4.1955    1.0917    0.0000 C   0  0  0  0  0  0  0  0  0  0  0  0
   -4.3606    2.5826    0.0000 C   0  0  0  0  0  0  0  0  0  0  0  0
   -4.9578    3.9586    0.0000 C   0  0  0  0  0  0  0  0  0  0  0  0
   -5.9340    5.0975    0.0000 C   0  0  0  0  0  0  0  0  0  0  0  0
   -7.2026    5.8980    0.0000 C   0  0  0  0  0  0  0  0  0  0  0  0
   -2.8210    1.6923    0.0000 C   0  0  0  0  0  0  0  0  0  0  0  0
   -4.4772   -0.3816    0.0000 C   0  0  0  0  0  0  0  0  0  0  0  0
   -3.2250   -1.2073    0.0000 O   0  0  0  0  0  0  0  0  0  0  0  0
   -5.1807   -1.7064    0.0000 N   0  0  0  0  0  0  0  0  0  0  0  0
   -6.2434   -2.7650    0.0000 C   0  0  0  0  0  0  0  0  0  0  0  0
   -6.1529   -4.2623    0.0000 C   0  0  0  0  0  0  0  0  0  0  0  0
   -4.8109   -4.9325    0.0000 C   0  0  0  0  0  0  0  0  0  0  0  0
   -4.7204   -6.4297    0.0000 C   0  0  0  0  0  0  0  0  0  0  0  0
   -3.3207   -5.1033    0.0000 C   0  0  0  0  0  0  0  0  0  0  0  0
   -7.5709   -3.4633    0.0000 C   0  0  0  0  0  0  0  0  0  0  0  0
   -7.2546   -4.9296    0.0000 O   0  0  0  0  0  0  0  0  0  0  0  0
   -9.0453   -3.7394    0.0000 N   0  0  0  0  0  0  0  0  0  0  0  0
  -10.5356   -3.5685    0.0000 C   0  0  0  0  0  0  0  0  0  0  0  0
  -11.6497   -4.5729    0.0000 C   0  0  0  0  0  0  0  0  0  0  0  0
  -11.3370   -6.0399    0.0000 C   0  0  0  0  0  0  0  0  0  0  0  0
  -12.4512   -7.0442    0.0000 C   0  0  0  0  0  0  0  0  0  0  0  0
  -12.1385   -8.5113    0.0000 C   0  0  0  0  0  0  0  0  0  0  0  0
  -10.7116   -8.9740    0.0000 C   0  0  0  0  0  0  0  0  0  0  0  0
   -9.5975   -7.9697    0.0000 C   0  0  0  0  0  0  0  0  0  0  0  0
   -9.9102   -6.5026    0.0000 C   0  0  0  0  0  0  0  0  0  0  0  0
  -11.9092   -2.9660    0.0000 C   0  0  0  0  0  0  0  0  0  0  0  0
  -12.7097   -4.2346    0.0000 O   0  0  0  0  0  0  0  0  0  0  0  0
  -13.0443   -1.9854    0.0000 N   0  0  0  0  0  0  0  0  0  0  0  0
  -13.8399   -0.7138    0.0000 C   0  0  0  0  0  0  0  0  0  0  0  0
  -15.3198   -0.4689    0.0000 C   0  0  0  0  0  0  0  0  0  0  0  0
  -16.2718   -1.6281    0.0000 C   0  0  0  0  0  0  0  0  0  0  0  0
  -17.7517   -1.3832    0.0000 C   0  0  0  0  0  0  0  0  0  0  0  0
  -18.7037   -2.5423    0.0000 C   0  0  0  0  0  0  0  0  0  0  0  0
  -18.1758   -3.9464    0.0000 C   0  0  0  0  0  0  0  0  0  0  0  0
  -16.6960   -4.1913    0.0000 C   0  0  0  0  0  0  0  0  0  0  0  0
  -15.7440   -3.0321    0.0000 C   0  0  0  0  0  0  0  0  0  0  0  0
  -14.2253    0.7358    0.0000 C   0  0  0  0  0  0  0  0  0  0  0  0
  -15.7162    0.5708    0.0000 O   0  0  0  0  0  0  0  0  0  0  0  0
  -14.1664    2.2347    0.0000 N   0  0  0  0  0  0  0  0  0  0  0  0
  -13.6682    3.6496    0.0000 C   0  0  0  0  0  0  0  0  0  0  0  0
  -12.7752    4.8547    0.0000 C   0  0  0  0  0  0  0  0  0  0  0  0
  -11.5665    5.7431    0.0000 C   0  0  0  0  0  0  0  0  0  0  0  0
  -10.1498    6.2358    0.0000 C   0  0  0  0  0  0  0  0  0  0  0  0
   -8.6507    6.2890    0.0000 C   0  0  0  0  0  0  0  0  0  0  0  0
  -15.1628    3.5217    0.0000 C   0  0  0  0  0  0  0  0  0  0  0  0
  -14.3994    4.9593    0.0000 C   0  0  0  0  0  0  0  0  0  0  0  0
  -13.9653    6.3951    0.0000 O   0  0  0  0  0  0  0  0  0  0  0  0
  -15.8993    4.9808    0.0000 N   0  0  0  0  0  0  0  0  0  0  0  0
  -16.6305    6.2905    0.0000 C   0  0  0  0  0  0  0  0  0  0  0  0
  -16.8697    7.7714    0.0000 C   0  0  0  0  0  0  0  0  0  0  0  0
  -15.7068    8.7189    0.0000 O   0  0  0  0  0  0  0  0  0  0  0  0
  -18.1303    6.3121    0.0000 C   0  0  0  0  0  0  0  0  0  0  0  0
  -19.0158    7.5229    0.0000 O   0  0  0  0  0  0  0  0  0  0  0  0
  -18.8990    5.0240    0.0000 O   0  0  0  0  0  0  0  0  0  0  0  0
    9.5310   -0.6711    0.0000 H   0  0  0  0  0  0  0  0  0  0  0  0
    9.2382    3.9352    0.0000 H   0  0  0  0  0  0  0  0  0  0  0  0
    6.7805    4.9841    0.0000 H   0  0  0  0  0  0  0  0  0  0  0  0
    7.3174   -0.9834    0.0000 H   0  0  0  0  0  0  0  0  0  0  0  0
    0.9806   -3.4518    0.0000 H   0  0  0  0  0  0  0  0  0  0  0  0
   -0.7016    1.4645    0.0000 H   0  0  0  0  0  0  0  0  0  0  0  0
    1.9553    2.4600    0.0000 H   0  0  0  0  0  0  0  0  0  0  0  0
   -2.5606   -0.6600    0.0000 H   0  0  0  0  0  0  0  0  0  0  0  0
    7.2356    1.4344    0.0000 H   0  0  0  0  0  0  0  0  0  0  0  0
    9.1017    0.0714    0.0000 H   0  0  0  0  0  0  0  0  0  0  0  0
    5.7318   -4.3394    0.0000 H   0  0  0  0  0  0  0  0  0  0  0  0
    8.6288   -4.9538    0.0000 H   0  0  0  0  0  0  0  0  0  0  0  0
   12.1103   -0.3594    0.0000 H   0  0  0  0  0  0  0  0  0  0  0  0
   14.3152    3.2859    0.0000 H   0  0  0  0  0  0  0  0  0  0  0  0
   12.5339    3.1804    0.0000 H   0  0  0  0  0  0  0  0  0  0  0  0
   15.9705    0.4156    0.0000 H   0  0  0  0  0  0  0  0  0  0  0  0
   13.6601    0.5614    0.0000 H   0  0  0  0  0  0  0  0  0  0  0  0
   17.8416    3.7221    0.0000 H   0  0  0  0  0  0  0  0  0  0  0  0
   19.8410    3.5433    0.0000 H   0  0  0  0  0  0  0  0  0  0  0  0
   20.7349    2.7632    0.0000 H   0  0  0  0  0  0  0  0  0  0  0  0
   21.1827    0.8064    0.0000 H   0  0  0  0  0  0  0  0  0  0  0  0
   20.7170   -0.2848    0.0000 H   0  0  0  0  0  0  0  0  0  0  0  0
   19.1759   -1.3397    0.0000 H   0  0  0  0  0  0  0  0  0  0  0  0
   16.3002    0.1102    0.0000 H   0  0  0  0  0  0  0  0  0  0  0  0
   17.8916   -3.4505    0.0000 H   0  0  0  0  0  0  0  0  0  0  0  0
   16.5717   -4.9630    0.0000 H   0  0  0  0  0  0  0  0  0  0  0  0
   15.4152   -5.2276    0.0000 H   0  0  0  0  0  0  0  0  0  0  0  0
   13.5689   -4.4397    0.0000 H   0  0  0  0  0  0  0  0  0  0  0  0
   12.9598   -3.4216    0.0000 H   0  0  0  0  0  0  0  0  0  0  0  0
   12.9030   -1.7019    0.0000 H   0  0  0  0  0  0  0  0  0  0  0  0
   15.8755   -0.0805    0.0000 H   0  0  0  0  0  0  0  0  0  0  0  0
   12.4244   -2.6536    0.0000 H   0  0  0  0  0  0  0  0  0  0  0  0
   12.7025    0.3105    0.0000 H   0  0  0  0  0  0  0  0  0  0  0  0
    9.2459    1.7963    0.0000 H   0  0  0  0  0  0  0  0  0  0  0  0
    9.1857    0.1635    0.0000 H   0  0  0  0  0  0  0  0  0  0  0  0
   12.1722    3.3504    0.0000 H   0  0  0  0  0  0  0  0  0  0  0  0
   12.2223    1.2859    0.0000 H   0  0  0  0  0  0  0  0  0  0  0  0
    9.0245    4.3849    0.0000 H   0  0  0  0  0  0  0  0  0  0  0  0
    9.0677    2.6010    0.0000 H   0  0  0  0  0  0  0  0  0  0  0  0
   11.9508    5.9390    0.0000 H   0  0  0  0  0  0  0  0  0  0  0  0
   12.2111    4.1737    0.0000 H   0  0  0  0  0  0  0  0  0  0  0  0
   10.6666    7.4690    0.0000 H   0  0  0  0  0  0  0  0  0  0  0  0
    8.8030    6.9735    0.0000 H   0  0  0  0  0  0  0  0  0  0  0  0
    8.8463    5.1896    0.0000 H   0  0  0  0  0  0  0  0  0  0  0  0
    8.3324    1.3772    0.0000 H   0  0  0  0  0  0  0  0  0  0  0  0
    8.0841   -2.0225    0.0000 H   0  0  0  0  0  0  0  0  0  0  0  0
    5.1523   -2.6971    0.0000 H   0  0  0  0  0  0  0  0  0  0  0  0
    5.4618   -0.5249    0.0000 H   0  0  0  0  0  0  0  0  0  0  0  0
    7.7068   -4.3216    0.0000 H   0  0  0  0  0  0  0  0  0  0  0  0
    8.2018   -3.1033    0.0000 H   0  0  0  0  0  0  0  0  0  0  0  0
    4.2150   -4.7243    0.0000 H   0  0  0  0  0  0  0  0  0  0  0  0
    4.6410   -3.1470    0.0000 H   0  0  0  0  0  0  0  0  0  0  0  0
    6.8860   -6.9436    0.0000 H   0  0  0  0  0  0  0  0  0  0  0  0
    7.4555   -5.2525    0.0000 H   0  0  0  0  0  0  0  0  0  0  0  0
    5.3507   -8.2215    0.0000 H   0  0  0  0  0  0  0  0  0  0  0  0
    3.6046   -7.4031    0.0000 H   0  0  0  0  0  0  0  0  0  0  0  0
    3.9637   -5.6552    0.0000 H   0  0  0  0  0  0  0  0  0  0  0  0
    4.1345   -1.8122    0.0000 H   0  0  0  0  0  0  0  0  0  0  0  0
    4.6304    1.4561    0.0000 H   0  0  0  0  0  0  0  0  0  0  0  0
    1.7279    2.7618    0.0000 H   0  0  0  0  0  0  0  0  0  0  0  0
    1.2744    1.1922    0.0000 H   0  0  0  0  0  0  0  0  0  0  0  0
    4.8377    1.6139    0.0000 H   0  0  0  0  0  0  0  0  0  0  0  0
    6.9452    4.7812    0.0000 H   0  0  0  0  0  0  0  0  0  0  0  0
    5.2559    7.0608    0.0000 H   0  0  0  0  0  0  0  0  0  0  0  0
    2.2668    6.8051    0.0000 H   0  0  0  0  0  0  0  0  0  0  0  0
    0.9937    4.0886    0.0000 H   0  0  0  0  0  0  0  0  0  0  0  0
    0.9305    2.1281    0.0000 H   0  0  0  0  0  0  0  0  0  0  0  0
    0.1540   -1.4039    0.0000 H   0  0  0  0  0  0  0  0  0  0  0  0
   -1.9097   -2.4867    0.0000 H   0  0  0  0  0  0  0  0  0  0  0  0
   -0.2164   -1.9238    0.0000 H   0  0  0  0  0  0  0  0  0  0  0  0
   -4.2909   -0.1298    0.0000 H   0  0  0  0  0  0  0  0  0  0  0  0
   -2.7842    0.8261    0.0000 H   0  0  0  0  0  0  0  0  0  0  0  0
   -4.0617   -3.2248    0.0000 H   0  0  0  0  0  0  0  0  0  0  0  0
   -2.8415   -2.7345    0.0000 H   0  0  0  0  0  0  0  0  0  0  0  0
   -5.7878    0.1120    0.0000 H   0  0  0  0  0  0  0  0  0  0  0  0
   -9.2005   -2.7752    0.0000 H   0  0  0  0  0  0  0  0  0  0  0  0
   -8.2987   -0.5555    0.0000 H   0  0  0  0  0  0  0  0  0  0  0  0
   -7.0142   -4.9823    0.0000 H   0  0  0  0  0  0  0  0  0  0  0  0
   -4.6297   -3.5653    0.0000 H   0  0  0  0  0  0  0  0  0  0  0  0
   -3.2832   -1.2376    0.0000 H   0  0  0  0  0  0  0  0  0  0  0  0
   -2.8880    2.2973    0.0000 H   0  0  0  0  0  0  0  0  0  0  0  0
   -3.3520    3.6929    0.0000 H   0  0  0  0  0  0  0  0  0  0  0  0
   -3.4973    4.3006    0.0000 H   0  0  0  0  0  0  0  0  0  0  0  0
   -4.1604    5.2291    0.0000 H   0  0  0  0  0  0  0  0  0  0  0  0
   -4.5566    5.6913    0.0000 H   0  0  0  0  0  0  0  0  0  0  0  0
   -5.7261    6.5830    0.0000 H   0  0  0  0  0  0  0  0  0  0  0  0
   -6.6001    7.2717    0.0000 H   0  0  0  0  0  0  0  0  0  0  0  0
   -2.5149    3.3299    0.0000 H   0  0  0  0  0  0  0  0  0  0  0  0
   -1.4940    2.2977    0.0000 H   0  0  0  0  0  0  0  0  0  0  0  0
   -1.9613    0.6931    0.0000 H   0  0  0  0  0  0  0  0  0  0  0  0
   -4.0934   -2.7397    0.0000 H   0  0  0  0  0  0  0  0  0  0  0  0
   -4.8414   -3.2983    0.0000 H   0  0  0  0  0  0  0  0  0  0  0  0
   -6.7520   -5.6374    0.0000 H   0  0  0  0  0  0  0  0  0  0  0  0
   -7.6402   -4.4571    0.0000 H   0  0  0  0  0  0  0  0  0  0  0  0
   -3.8969   -3.7431    0.0000 H   0  0  0  0  0  0  0  0  0  0  0  0
   -3.4701   -7.2585    0.0000 H   0  0  0  0  0  0  0  0  0  0  0  0
   -5.1474   -7.8677    0.0000 H   0  0  0  0  0  0  0  0  0  0  0  0
   -6.2203   -6.4418    0.0000 H   0  0  0  0  0  0  0  0  0  0  0  0
   -2.5602   -6.3962    0.0000 H   0  0  0  0  0  0  0  0  0  0  0  0
   -1.8619   -4.7541    0.0000 H   0  0  0  0  0  0  0  0  0  0  0  0
   -3.4112   -3.6060    0.0000 H   0  0  0  0  0  0  0  0  0  0  0  0
   -8.8098   -5.2207    0.0000 H   0  0  0  0  0  0  0  0  0  0  0  0
  -10.0784   -4.9972    0.0000 H   0  0  0  0  0  0  0  0  0  0  0  0
  -13.0402   -5.1355    0.0000 H   0  0  0  0  0  0  0  0  0  0  0  0
  -12.7294   -3.5315    0.0000 H   0  0  0  0  0  0  0  0  0  0  0  0
  -13.8780   -6.5815    0.0000 H   0  0  0  0  0  0  0  0  0  0  0  0
  -13.2526   -9.5156    0.0000 H   0  0  0  0  0  0  0  0  0  0  0  0
  -10.3989  -10.4410    0.0000 H   0  0  0  0  0  0  0  0  0  0  0  0
   -8.1706   -8.4324    0.0000 H   0  0  0  0  0  0  0  0  0  0  0  0
   -8.6819   -5.6416    0.0000 H   0  0  0  0  0  0  0  0  0  0  0  0
  -14.0557   -3.0932    0.0000 H   0  0  0  0  0  0  0  0  0  0  0  0
  -14.6718   -1.9620    0.0000 H   0  0  0  0  0  0  0  0  0  0  0  0
  -16.6267    0.2674    0.0000 H   0  0  0  0  0  0  0  0  0  0  0  0
  -15.1788    1.0245    0.0000 H   0  0  0  0  0  0  0  0  0  0  0  0
  -18.2795    0.0209    0.0000 H   0  0  0  0  0  0  0  0  0  0  0  0
  -20.1836   -2.2974    0.0000 H   0  0  0  0  0  0  0  0  0  0  0  0
  -19.1279   -5.1055    0.0000 H   0  0  0  0  0  0  0  0  0  0  0  0
  -16.1681   -5.5953    0.0000 H   0  0  0  0  0  0  0  0  0  0  0  0
  -14.3050   -3.4556    0.0000 H   0  0  0  0  0  0  0  0  0  0  0  0
  -15.6397    2.5164    0.0000 H   0  0  0  0  0  0  0  0  0  0  0  0
  -13.0878    6.3218    0.0000 H   0  0  0  0  0  0  0  0  0  0  0  0
  -14.1204    5.5183    0.0000 H   0  0  0  0  0  0  0  0  0  0  0  0
  -11.6160    7.2423    0.0000 H   0  0  0  0  0  0  0  0  0  0  0  0
  -12.6564    6.7737    0.0000 H   0  0  0  0  0  0  0  0  0  0  0  0
   -9.5817    7.6241    0.0000 H   0  0  0  0  0  0  0  0  0  0  0  0
  -11.0411    7.4422    0.0000 H   0  0  0  0  0  0  0  0  0  0  0  0
   -8.4799    7.7792    0.0000 H   0  0  0  0  0  0  0  0  0  0  0  0
  -16.2930    4.5079    0.0000 H   0  0  0  0  0  0  0  0  0  0  0  0
  -16.4363    2.7292    0.0000 H   0  0  0  0  0  0  0  0  0  0  0  0
  -15.1395    2.0219    0.0000 H   0  0  0  0  0  0  0  0  0  0  0  0
  -16.8192    3.7960    0.0000 H   0  0  0  0  0  0  0  0  0  0  0  0
  -15.2137    6.7832    0.0000 H   0  0  0  0  0  0  0  0  0  0  0  0
  -17.6009    9.0811    0.0000 H   0  0  0  0  0  0  0  0  0  0  0  0
  -18.3359    7.4550    0.0000 H   0  0  0  0  0  0  0  0  0  0  0  0
  -15.9460   10.1997    0.0000 H   0  0  0  0  0  0  0  0  0  0  0  0
  1  2  1  0
  2  3  1  0
  3  4  2  0
  4  5  1  0
  5  6  2  0
  6  7  1  0
  7  8  2  0
  7  9  1  0
  9 10  1  0
 10 11  1  0
 11 12  2  0
  9 13  1  0
 13 14  1  0
 14 15  2  0
 15 16  1  0
 16 17  2  0
 17 18  1  0
 16 19  1  0
 14 20  1  0
 20 21  1  0
 21 22  2  0
 22 23  1  0
 23 24  2  0
 24 25  1  0
 25 26  2  0
 25 27  1  0
  1 28  2  0
  1 29  1  0
 29 30  1  0
 30 31  1  0
 31 32  1  0
 32 33  2  0
 32 34  1  0
 34 35  1  0
 35 36  1  0
 36 37  1  0
 37 38  1  0
 38 39  1  0
 39 40  2  0
 39 41  1  0
 41 42  1  0
 42 43  1  0
 43 44  1  0
 44 45  1  0
 45 46  1  0
 46 47  2  0
 46 48  1  0
 48 49  1  0
 49 50  1  0
 50 51  1  0
 51 52  1  0
 52 53  1  0
 53 54  1  0
 49 55  1  0
 55 56  2  0
 55 57  1  0
 57 58  1  0
 58 59  1  0
 59 60  1  0
 60 61  1  0
 61 62  1  0
 62 63  1  0
 58 64  1  0
 64 65  2  0
 64 66  1  0
 66 67  1  0
 67 68  1  0
 68 69  1  0
 69 70  2  0
 70 71  1  0
 71 72  2  0
 72 73  1  0
 73 74  2  0
 67 75  1  0
 75 76  2  0
 75 77  1  0
 77 78  1  0
 78 79  1  0
 79 80  1  0
 80 81  1  0
 81 82  1  0
 82 83  1  0
 83 84  2  3
 83 85  1  0
 78 86  1  0
 86 87  2  0
 86 88  1  0
 89 88  1  6
 89 90  1  0
 90 91  1  0
 91 92  1  0
 92 93  1  0
 89 94  1  0
 89 95  1  0
 95 96  2  0
 95 97  1  0
 97 98  1  0
 98 99  1  0
 99100  1  0
100101  1  0
100102  1  0
 98103  1  0
103104  2  0
103105  1  0
105106  1  0
106107  1  0
107108  1  0
108109  2  0
109110  1  0
110111  2  0
111112  1  0
112113  2  0
106114  1  0
114115  2  0
114116  1  0
116117  1  0
117118  1  0
118119  1  0
119120  2  0
120121  1  0
121122  2  0
122123  1  0
123124  2  0
117125  1  0
125126  2  0
125127  1  0
127128  1  0
128129  1  0
129130  1  0
130131  1  0
131132  1  0
128133  1  0
128134  1  6
134135  2  0
134136  1  0
136137  1  0
137138  1  0
138139  1  0
137140  1  0
140141  2  0
140142  1  0
  8  3  1  0
 38 34  1  0
 45 41  1  0
 74 69  1  0
113108  1  0
124119  1  0
 11  6  1  0
 18 13  2  0
 93132  2  0
 22  9  1  0
 26 21  1  0
  2143  1  0
  4144  1  0
  5145  1  0
  8146  1  0
 15147  1  0
 17148  1  0
 18149  1  0
 19150  1  0
 23151  1  0
 24152  1  0
 26153  1  0
 27154  1  0
 29155  1  0
 30156  1  0
 30157  1  0
 31158  1  0
 31159  1  0
 35160  1  0
 35161  1  0
 36162  1  0
 36163  1  0
 37164  1  0
 37165  1  0
 38166  1  0
 42167  1  0
 42168  1  0
 43169  1  0
 43170  1  0
 44171  1  0
 44172  1  0
 45173  1  0
 48174  1  0
 49175  1  6
 50176  1  0
 50177  1  0
 51178  1  0
 51179  1  0
 52180  1  0
 52181  1  0
 53182  1  0
 53183  1  0
 54184  1  0
 54185  1  0
 54186  1  0
 57187  1  0
 58188  1  1
 59189  1  0
 59190  1  0
 60191  1  0
 60192  1  0
 61193  1  0
 61194  1  0
 62195  1  0
 62196  1  0
 63197  1  0
 63198  1  0
 63199  1  0
 66200  1  0
 67201  1  6
 68202  1  0
 68203  1  0
 70204  1  0
 71205  1  0
 72206  1  0
 73207  1  0
 74208  1  0
 77209  1  0
 78210  1  1
 79211  1  0
 79212  1  0
 80213  1  0
 80214  1  0
 81215  1  0
 81216  1  0
 82217  1  0
 84218  1  0
 84219  1  0
 85220  1  0
 85221  1  0
 88222  1  0
 90223  1  0
 90224  1  0
 91225  1  0
 91226  1  0
 92227  1  0
 92228  1  0
 93229  1  0
 94230  1  0
 94231  1  0
 94232  1  0
 97233  1  0
 98234  1  1
 99235  1  0
 99236  1  0
100237  1  0
101238  1  0
101239  1  0
101240  1  0
102241  1  0
102242  1  0
102243  1  0
105244  1  0
106245  1  1
107246  1  0
107247  1  0
109248  1  0
110249  1  0
111250  1  0
112251  1  0
113252  1  0
116253  1  0
117254  1  1
118255  1  0
118256  1  0
120257  1  0
121258  1  0
122259  1  0
123260  1  0
124261  1  0
127262  1  0
129263  1  0
129264  1  0
130265  1  0
130266  1  0
131267  1  0
131268  1  0
132269  1  0
133270  1  0
133271  1  0
133272  1  0
136273  1  0
137274  1  6
138275  1  0
138276  1  0
139277  1  0
M  CHG  4  54   1  63   1  84   1 142  -1
M  END
