
     RDKit          2D

282289  0  0  0  0  0  0  0  0999 V2000
  -26.2783    0.3107    0.0000 C   0  0  0  0  0  0  0  0  0  0  0  0
  -27.5759   -0.4417    0.0000 N   0  0  0  0  0  0  0  0  0  0  0  0
  -28.8764    0.3058    0.0000 C   0  0  0  0  0  0  0  0  0  0  0  0
  -28.8792    1.8058    0.0000 C   0  0  0  0  0  0  0  0  0  0  0  0
  -30.1797    2.5533    0.0000 C   0  0  0  0  0  0  0  0  0  0  0  0
  -31.4773    1.8009    0.0000 C   0  0  0  0  0  0  0  0  0  0  0  0
  -31.4744    0.3009    0.0000 C   0  0  0  0  0  0  0  0  0  0  0  0
  -30.1740   -0.4467    0.0000 C   0  0  0  0  0  0  0  0  0  0  0  0
  -32.9001   -0.1654    0.0000 C   0  0  0  0  0  0  0  0  0  0  0  0
  -33.7841    1.0465    0.0000 O   0  0  0  0  0  0  0  0  0  0  0  0
  -32.9047    2.2617    0.0000 C   0  0  0  0  0  0  0  0  0  0  0  0
  -33.3710    3.6874    0.0000 O   0  0  0  0  0  0  0  0  0  0  0  0
  -34.3668   -0.4800    0.0000 C   0  0  0  0  0  0  0  0  0  0  0  0
  -34.8276   -1.9075    0.0000 C   0  0  0  0  0  0  0  0  0  0  0  0
  -36.2942   -2.2221    0.0000 C   0  0  0  0  0  0  0  0  0  0  0  0
  -37.3000   -1.1093    0.0000 C   0  0  0  0  0  0  0  0  0  0  0  0
  -36.8392    0.3181    0.0000 C   0  0  0  0  0  0  0  0  0  0  0  0
  -35.3726    0.6328    0.0000 C   0  0  0  0  0  0  0  0  0  0  0  0
  -38.7666   -1.4240    0.0000 O   0  0  0  0  0  0  0  0  0  0  0  0
  -33.8218   -3.0203    0.0000 O   0  0  0  0  0  0  0  0  0  0  0  0
  -32.3551   -2.7056    0.0000 C   0  0  0  0  0  0  0  0  0  0  0  0
  -31.8943   -1.2782    0.0000 C   0  0  0  0  0  0  0  0  0  0  0  0
  -30.6427   -1.6297    0.0000 C   0  0  0  0  0  0  0  0  0  0  0  0
  -30.1063   -2.2232    0.0000 C   0  0  0  0  0  0  0  0  0  0  0  0
  -30.3521   -2.9845    0.0000 C   0  0  0  0  0  0  0  0  0  0  0  0
  -31.1343   -3.1523    0.0000 C   0  0  0  0  0  0  0  0  0  0  0  0
  -28.8769   -4.6166    0.0000 O   0  0  0  0  0  0  0  0  0  0  0  0
  -26.2811    1.8107    0.0000 S   0  0  0  0  0  0  0  0  0  0  0  0
  -24.9778   -0.4368    0.0000 N   0  0  0  0  0  0  0  0  0  0  0  0
  -23.6802    0.3157    0.0000 C   0  0  0  0  0  0  0  0  0  0  0  0
  -22.3798   -0.4319    0.0000 C   0  0  0  0  0  0  0  0  0  0  0  0
  -21.0821    0.3206    0.0000 C   0  0  0  0  0  0  0  0  0  0  0  0
  -21.0850    1.8206    0.0000 O   0  0  0  0  0  0  0  0  0  0  0  0
  -19.7817   -0.4269    0.0000 N   0  0  0  0  0  0  0  0  0  0  0  0
  -18.4841    0.3255    0.0000 C   0  0  0  0  0  0  0  0  0  0  0  0
  -17.5221    1.4764    0.0000 C   0  0  0  0  0  0  0  0  0  0  0  0
  -16.0444    1.2187    0.0000 C   0  0  0  0  0  0  0  0  0  0  0  0
  -15.0824    2.3696    0.0000 O   0  0  0  0  0  0  0  0  0  0  0  0
  -15.5973    0.5587    0.0000 O   0  0  0  0  0  0  0  0  0  0  0  0
  -17.1836   -0.4220    0.0000 C   0  0  0  0  0  0  0  0  0  0  0  0
  -17.1808   -1.9220    0.0000 O   0  0  0  0  0  0  0  0  0  0  0  0
  -15.8860    0.3305    0.0000 N   0  0  0  0  0  0  0  0  0  0  0  0
  -14.5855   -0.4171    0.0000 C   0  0  0  0  0  0  0  0  0  0  0  0
  -13.6192   -1.5643    0.0000 C   0  0  0  0  0  0  0  0  0  0  0  0
  -12.1425   -1.3010    0.0000 C   0  0  0  0  0  0  0  0  0  0  0  0
  -11.4875    0.0484    0.0000 C   0  0  0  0  0  0  0  0  0  0  0  0
  -10.0017   -0.1575    0.0000 N   0  0  0  0  0  0  0  0  0  0  0  0
   -9.7384   -1.6343    0.0000 C   0  0  0  0  0  0  0  0  0  0  0  0
  -11.0615   -2.3410    0.0000 N   0  0  0  0  0  0  0  0  0  0  0  0
  -13.2879    0.3354    0.0000 C   0  0  0  0  0  0  0  0  0  0  0  0
  -13.2908    1.8354    0.0000 O   0  0  0  0  0  0  0  0  0  0  0  0
  -11.9875   -0.4121    0.0000 N   0  0  0  0  0  0  0  0  0  0  0  0
  -10.6899    0.3403    0.0000 C   0  0  0  0  0  0  0  0  0  0  0  0
   -9.7279    1.4912    0.0000 C   0  0  0  0  0  0  0  0  0  0  0  0
   -8.2317    1.5988    0.0000 C   0  0  0  0  0  0  0  0  0  0  0  0
   -9.2175    2.9017    0.0000 C   0  0  0  0  0  0  0  0  0  0  0  0
  -10.1839    4.0490    0.0000 C   0  0  0  0  0  0  0  0  0  0  0  0
   -9.3894   -0.4072    0.0000 C   0  0  0  0  0  0  0  0  0  0  0  0
   -9.0237   -1.8619    0.0000 O   0  0  0  0  0  0  0  0  0  0  0  0
   -8.0918    0.3452    0.0000 N   0  0  0  0  0  0  0  0  0  0  0  0
   -6.7913   -0.4023    0.0000 C   0  0  0  0  0  0  0  0  0  0  0  0
   -5.8250   -1.5495    0.0000 C   0  0  0  0  0  0  0  0  0  0  0  0
   -4.3483   -1.2862    0.0000 C   0  0  0  0  0  0  0  0  0  0  0  0
   -3.3819   -2.4335    0.0000 C   0  0  0  0  0  0  0  0  0  0  0  0
   -1.9052   -2.1702    0.0000 C   0  0  0  0  0  0  0  0  0  0  0  0
   -0.9388   -3.3174    0.0000 N   0  0  0  0  0  0  0  0  0  0  0  0
   -5.4937    0.3502    0.0000 C   0  0  0  0  0  0  0  0  0  0  0  0
   -5.4966    1.8502    0.0000 O   0  0  0  0  0  0  0  0  0  0  0  0
   -4.1933   -0.3974    0.0000 N   0  0  0  0  0  0  0  0  0  0  0  0
   -2.8956    0.3551    0.0000 C   0  0  0  0  0  0  0  0  0  0  0  0
   -1.9336    1.5060    0.0000 C   0  0  0  0  0  0  0  0  0  0  0  0
   -0.4559    1.2483    0.0000 C   0  0  0  0  0  0  0  0  0  0  0  0
    0.5061    2.3992    0.0000 O   0  0  0  0  0  0  0  0  0  0  0  0
    0.3853    0.0064    0.0000 O   0  0  0  0  0  0  0  0  0  0  0  0
   -1.5952   -0.3924    0.0000 C   0  0  0  0  0  0  0  0  0  0  0  0
   -1.2295   -1.8472    0.0000 O   0  0  0  0  0  0  0  0  0  0  0  0
   -0.2976    0.3600    0.0000 N   0  0  0  0  0  0  0  0  0  0  0  0
    1.0029   -0.3875    0.0000 C   0  0  0  0  0  0  0  0  0  0  0  0
    1.9692   -1.5347    0.0000 C   0  0  0  0  0  0  0  0  0  0  0  0
    3.4422   -1.8183    0.0000 O   0  0  0  0  0  0  0  0  0  0  0  0
    2.3005    0.3650    0.0000 C   0  0  0  0  0  0  0  0  0  0  0  0
    2.2977    1.8650    0.0000 O   0  0  0  0  0  0  0  0  0  0  0  0
    3.6010   -0.3826    0.0000 N   0  0  0  0  0  0  0  0  0  0  0  0
    4.8986    0.3699    0.0000 C   0  0  0  0  0  0  0  0  0  0  0  0
    5.8606    1.5208    0.0000 C   0  0  0  0  0  0  0  0  0  0  0  0
    7.3383    1.2631    0.0000 C   0  0  0  0  0  0  0  0  0  0  0  0
    7.8540   -0.1454    0.0000 C   0  0  0  0  0  0  0  0  0  0  0  0
    9.3317   -0.4031    0.0000 C   0  0  0  0  0  0  0  0  0  0  0  0
   10.2937    0.7478    0.0000 C   0  0  0  0  0  0  0  0  0  0  0  0
    9.7780    2.1564    0.0000 C   0  0  0  0  0  0  0  0  0  0  0  0
    8.3003    2.4140    0.0000 C   0  0  0  0  0  0  0  0  0  0  0  0
    6.1990   -0.3776    0.0000 C   0  0  0  0  0  0  0  0  0  0  0  0
    5.8388   -1.8337    0.0000 O   0  0  0  0  0  0  0  0  0  0  0  0
    7.4966    0.3748    0.0000 N   0  0  0  0  0  0  0  0  0  0  0  0
    8.7971   -0.3727    0.0000 C   0  0  0  0  0  0  0  0  0  0  0  0
    9.0971   -1.8424    0.0000 C   0  0  0  0  0  0  0  0  0  0  0  0
    9.8170   -3.1584    0.0000 C   0  0  0  0  0  0  0  0  0  0  0  0
   10.8928   -4.2037    0.0000 C   0  0  0  0  0  0  0  0  0  0  0  0
   12.2289   -4.8855    0.0000 C   0  0  0  0  0  0  0  0  0  0  0  0
    7.5809   -1.2506    0.0000 C   0  0  0  0  0  0  0  0  0  0  0  0
    8.9436    1.1201    0.0000 C   0  0  0  0  0  0  0  0  0  0  0  0
    7.7176    1.9844    0.0000 O   0  0  0  0  0  0  0  0  0  0  0  0
    9.5236    2.5034    0.0000 N   0  0  0  0  0  0  0  0  0  0  0  0
   10.4856    3.6543    0.0000 C   0  0  0  0  0  0  0  0  0  0  0  0
   10.2593    5.1372    0.0000 C   0  0  0  0  0  0  0  0  0  0  0  0
    8.8619    5.6825    0.0000 O   0  0  0  0  0  0  0  0  0  0  0  0
   11.7441    4.4706    0.0000 C   0  0  0  0  0  0  0  0  0  0  0  0
   11.1246    5.8366    0.0000 O   0  0  0  0  0  0  0  0  0  0  0  0
   13.1873    4.8796    0.0000 N   0  0  0  0  0  0  0  0  0  0  0  0
   14.6869    4.8450    0.0000 C   0  0  0  0  0  0  0  0  0  0  0  0
   15.7051    5.9465    0.0000 C   0  0  0  0  0  0  0  0  0  0  0  0
   15.2602    7.3790    0.0000 C   0  0  0  0  0  0  0  0  0  0  0  0
   16.2784    8.4805    0.0000 C   0  0  0  0  0  0  0  0  0  0  0  0
   14.3522    8.5730    0.0000 C   0  0  0  0  0  0  0  0  0  0  0  0
   16.1097    4.3700    0.0000 C   0  0  0  0  0  0  0  0  0  0  0  0
   16.7915    5.7061    0.0000 O   0  0  0  0  0  0  0  0  0  0  0  0
   17.3293    3.4967    0.0000 N   0  0  0  0  0  0  0  0  0  0  0  0
   18.2372    2.3027    0.0000 C   0  0  0  0  0  0  0  0  0  0  0  0
   19.7333    2.1934    0.0000 C   0  0  0  0  0  0  0  0  0  0  0  0
   20.5759    3.4344    0.0000 C   0  0  0  0  0  0  0  0  0  0  0  0
   22.0719    3.3251    0.0000 C   0  0  0  0  0  0  0  0  0  0  0  0
   22.9145    4.5661    0.0000 N   0  0  0  0  0  0  0  0  0  0  0  0
   24.4105    4.4568    0.0000 C   0  0  0  0  0  0  0  0  0  0  0  0
   25.2532    5.6978    0.0000 N   0  0  0  0  0  0  0  0  0  0  0  0
   25.0639    3.1066    0.0000 N   0  0  0  0  0  0  0  0  0  0  0  0
   18.7529    0.8941    0.0000 C   0  0  0  0  0  0  0  0  0  0  0  0
   20.2226    1.1941    0.0000 O   0  0  0  0  0  0  0  0  0  0  0  0
   18.8306   -0.6039    0.0000 N   0  0  0  0  0  0  0  0  0  0  0  0
   18.4632   -2.0582    0.0000 C   0  0  0  0  0  0  0  0  0  0  0  0
   17.6835   -3.3396    0.0000 C   0  0  0  0  0  0  0  0  0  0  0  0
   16.5607   -4.3343    0.0000 C   0  0  0  0  0  0  0  0  0  0  0  0
   15.1946   -4.9538    0.0000 C   0  0  0  0  0  0  0  0  0  0  0  0
   13.7066   -5.1431    0.0000 C   0  0  0  0  0  0  0  0  0  0  0  0
   19.9399   -1.7949    0.0000 C   0  0  0  0  0  0  0  0  0  0  0  0
   19.3105   -3.2959    0.0000 C   0  0  0  0  0  0  0  0  0  0  0  0
   19.0088   -4.7653    0.0000 O   0  0  0  0  0  0  0  0  0  0  0  0
   20.8061   -3.1810    0.0000 N   0  0  0  0  0  0  0  0  0  0  0  0
   21.6534   -4.4187    0.0000 C   0  0  0  0  0  0  0  0  0  0  0  0
   22.0263   -5.8717    0.0000 C   0  0  0  0  0  0  0  0  0  0  0  0
   20.9545   -6.9210    0.0000 O   0  0  0  0  0  0  0  0  0  0  0  0
   23.1490   -4.3038    0.0000 C   0  0  0  0  0  0  0  0  0  0  0  0
   23.7973   -2.9511    0.0000 O   0  0  0  0  0  0  0  0  0  0  0  0
   23.9964   -5.5416    0.0000 N   0  0  0  0  0  0  0  0  0  0  0  0
   25.4919   -5.4266    0.0000 C   0  0  0  0  0  0  0  0  0  0  0  0
   26.8580   -4.8071    0.0000 C   0  0  0  0  0  0  0  0  0  0  0  0
   28.0776   -5.6804    0.0000 C   0  0  0  0  0  0  0  0  0  0  0  0
   26.3393   -6.6644    0.0000 C   0  0  0  0  0  0  0  0  0  0  0  0
   27.8377   -6.7326    0.0000 O   0  0  0  0  0  0  0  0  0  0  0  0
   25.6910   -8.0171    0.0000 O   0  0  0  0  0  0  0  0  0  0  0  0
  -27.3902   -1.9302    0.0000 H   0  0  0  0  0  0  0  0  0  0  0  0
  -27.5816    2.5583    0.0000 H   0  0  0  0  0  0  0  0  0  0  0  0
  -30.1825    4.0533    0.0000 H   0  0  0  0  0  0  0  0  0  0  0  0
  -29.8082   -1.9014    0.0000 H   0  0  0  0  0  0  0  0  0  0  0  0
  -36.7550   -3.6496    0.0000 H   0  0  0  0  0  0  0  0  0  0  0  0
  -37.8450    1.4309    0.0000 H   0  0  0  0  0  0  0  0  0  0  0  0
  -34.9118    2.0603    0.0000 H   0  0  0  0  0  0  0  0  0  0  0  0
  -39.7724   -0.3112    0.0000 H   0  0  0  0  0  0  0  0  0  0  0  0
  -29.9669    0.4639    0.0000 H   0  0  0  0  0  0  0  0  0  0  0  0
  -27.9278   -1.9428    0.0000 H   0  0  0  0  0  0  0  0  0  0  0  0
  -31.8101   -5.2459    0.0000 H   0  0  0  0  0  0  0  0  0  0  0  0
  -29.3377   -6.0441    0.0000 H   0  0  0  0  0  0  0  0  0  0  0  0
  -24.9750   -1.9368    0.0000 H   0  0  0  0  0  0  0  0  0  0  0  0
  -22.7182    1.4666    0.0000 H   0  0  0  0  0  0  0  0  0  0  0  0
  -24.6466    1.4629    0.0000 H   0  0  0  0  0  0  0  0  0  0  0  0
  -21.4134   -1.5791    0.0000 H   0  0  0  0  0  0  0  0  0  0  0  0
  -23.3418   -1.5828    0.0000 H   0  0  0  0  0  0  0  0  0  0  0  0
  -19.7788   -1.9269    0.0000 H   0  0  0  0  0  0  0  0  0  0  0  0
  -19.4504    1.4728    0.0000 H   0  0  0  0  0  0  0  0  0  0  0  0
  -17.0117    2.8869    0.0000 H   0  0  0  0  0  0  0  0  0  0  0  0
  -18.8225    2.2239    0.0000 H   0  0  0  0  0  0  0  0  0  0  0  0
  -15.5258    1.7866    0.0000 H   0  0  0  0  0  0  0  0  0  0  0  0
  -15.5475   -1.5680    0.0000 H   0  0  0  0  0  0  0  0  0  0  0  0
  -13.1035   -2.9729    0.0000 H   0  0  0  0  0  0  0  0  0  0  0  0
  -14.9168   -2.3168    0.0000 H   0  0  0  0  0  0  0  0  0  0  0  0
  -12.3502    1.2755    0.0000 H   0  0  0  0  0  0  0  0  0  0  0  0
   -8.8377    0.7886    0.0000 H   0  0  0  0  0  0  0  0  0  0  0  0
   -8.3890   -2.2893    0.0000 H   0  0  0  0  0  0  0  0  0  0  0  0
  -11.6217   -1.8669    0.0000 H   0  0  0  0  0  0  0  0  0  0  0  0
  -11.5092    1.5968    0.0000 H   0  0  0  0  0  0  0  0  0  0  0  0
  -11.1097    2.0746    0.0000 H   0  0  0  0  0  0  0  0  0  0  0  0
   -7.1771    2.2624    0.0000 H   0  0  0  0  0  0  0  0  0  0  0  0
   -6.9497    0.4860    0.0000 H   0  0  0  0  0  0  0  0  0  0  0  0
   -7.9505   -0.2397    0.0000 H   0  0  0  0  0  0  0  0  0  0  0  0
   -8.2555    4.0526    0.0000 H   0  0  0  0  0  0  0  0  0  0  0  0
   -7.7748    2.4911    0.0000 H   0  0  0  0  0  0  0  0  0  0  0  0
   -9.6735    5.4595    0.0000 H   0  0  0  0  0  0  0  0  0  0  0  0
  -11.4843    4.7965    0.0000 H   0  0  0  0  0  0  0  0  0  0  0  0
  -11.2790    3.0239    0.0000 H   0  0  0  0  0  0  0  0  0  0  0  0
   -7.7316    1.8014    0.0000 H   0  0  0  0  0  0  0  0  0  0  0  0
   -7.7533   -1.5532    0.0000 H   0  0  0  0  0  0  0  0  0  0  0  0
   -5.4848   -3.0104    0.0000 H   0  0  0  0  0  0  0  0  0  0  0  0
   -7.1226   -2.3020    0.0000 H   0  0  0  0  0  0  0  0  0  0  0  0
   -3.1520   -0.3812    0.0000 H   0  0  0  0  0  0  0  0  0  0  0  0
   -4.1422    0.1995    0.0000 H   0  0  0  0  0  0  0  0  0  0  0  0
   -3.0417   -3.8944    0.0000 H   0  0  0  0  0  0  0  0  0  0  0  0
   -4.5781   -3.3385    0.0000 H   0  0  0  0  0  0  0  0  0  0  0  0
   -0.5255   -1.5815    0.0000 H   0  0  0  0  0  0  0  0  0  0  0  0
   -2.2453   -0.7093    0.0000 H   0  0  0  0  0  0  0  0  0  0  0  0
    0.4948   -2.8761    0.0000 H   0  0  0  0  0  0  0  0  0  0  0  0
   -0.4231   -4.7260    0.0000 H   0  0  0  0  0  0  0  0  0  0  0  0
   -2.1350   -4.2225    0.0000 H   0  0  0  0  0  0  0  0  0  0  0  0
   -3.8275   -1.8521    0.0000 H   0  0  0  0  0  0  0  0  0  0  0  0
   -3.8620    1.5023    0.0000 H   0  0  0  0  0  0  0  0  0  0  0  0
   -1.4233    2.9165    0.0000 H   0  0  0  0  0  0  0  0  0  0  0  0
   -3.2341    2.2535    0.0000 H   0  0  0  0  0  0  0  0  0  0  0  0
    0.0626    1.8162    0.0000 H   0  0  0  0  0  0  0  0  0  0  0  0
    0.1884   -1.6471    0.0000 H   0  0  0  0  0  0  0  0  0  0  0  0
    2.4850   -2.9433    0.0000 H   0  0  0  0  0  0  0  0  0  0  0  0
    0.5896   -2.1234    0.0000 H   0  0  0  0  0  0  0  0  0  0  0  0
    4.4123   -2.4187    0.0000 H   0  0  0  0  0  0  0  0  0  0  0  0
    3.7866   -1.8710    0.0000 H   0  0  0  0  0  0  0  0  0  0  0  0
    3.9322    1.5171    0.0000 H   0  0  0  0  0  0  0  0  0  0  0  0
    6.3709    2.9313    0.0000 H   0  0  0  0  0  0  0  0  0  0  0  0
    4.5601    2.2683    0.0000 H   0  0  0  0  0  0  0  0  0  0  0  0
    6.6421   -1.0293    0.0000 H   0  0  0  0  0  0  0  0  0  0  0  0
   10.1729   -1.6450    0.0000 H   0  0  0  0  0  0  0  0  0  0  0  0
   11.7714    0.4901    0.0000 H   0  0  0  0  0  0  0  0  0  0  0  0
   10.9899    3.0403    0.0000 H   0  0  0  0  0  0  0  0  0  0  0  0
    7.6167    3.7492    0.0000 H   0  0  0  0  0  0  0  0  0  0  0  0
    7.6767    1.8640    0.0000 H   0  0  0  0  0  0  0  0  0  0  0  0
    7.5975   -1.8752    0.0000 H   0  0  0  0  0  0  0  0  0  0  0  0
    8.1937   -3.0398    0.0000 H   0  0  0  0  0  0  0  0  0  0  0  0
    8.3937   -3.6318    0.0000 H   0  0  0  0  0  0  0  0  0  0  0  0
    9.1385   -4.4961    0.0000 H   0  0  0  0  0  0  0  0  0  0  0  0
    9.5750   -4.9203    0.0000 H   0  0  0  0  0  0  0  0  0  0  0  0
   10.8209   -5.7019    0.0000 H   0  0  0  0  0  0  0  0  0  0  0  0
   11.7539   -6.3082    0.0000 H   0  0  0  0  0  0  0  0  0  0  0  0
    7.3674   -2.7354    0.0000 H   0  0  0  0  0  0  0  0  0  0  0  0
    6.2796   -1.9967    0.0000 H   0  0  0  0  0  0  0  0  0  0  0  0
    6.6202   -0.0986    0.0000 H   0  0  0  0  0  0  0  0  0  0  0  0
    8.3468    3.4336    0.0000 H   0  0  0  0  0  0  0  0  0  0  0  0
    9.0409    4.0579    0.0000 H   0  0  0  0  0  0  0  0  0  0  0  0
   10.5537    6.6080    0.0000 H   0  0  0  0  0  0  0  0  0  0  0  0
   11.7227    5.4665    0.0000 H   0  0  0  0  0  0  0  0  0  0  0  0
    8.6355    7.1653    0.0000 H   0  0  0  0  0  0  0  0  0  0  0  0
   12.9980    6.3676    0.0000 H   0  0  0  0  0  0  0  0  0  0  0  0
   13.9376    6.1445    0.0000 H   0  0  0  0  0  0  0  0  0  0  0  0
   17.1124    6.4657    0.0000 H   0  0  0  0  0  0  0  0  0  0  0  0
   16.8750    5.0077    0.0000 H   0  0  0  0  0  0  0  0  0  0  0  0
   13.8529    6.8599    0.0000 H   0  0  0  0  0  0  0  0  0  0  0  0
   16.0115    9.9566    0.0000 H   0  0  0  0  0  0  0  0  0  0  0  0
   17.6119    9.1674    0.0000 H   0  0  0  0  0  0  0  0  0  0  0  0
   17.3251    7.4062    0.0000 H   0  0  0  0  0  0  0  0  0  0  0  0
   14.7593   10.0167    0.0000 H   0  0  0  0  0  0  0  0  0  0  0  0
   13.0907    9.3844    0.0000 H   0  0  0  0  0  0  0  0  0  0  0  0
   13.3341    7.4715    0.0000 H   0  0  0  0  0  0  0  0  0  0  0  0
   18.3746    4.5725    0.0000 H   0  0  0  0  0  0  0  0  0  0  0  0
   18.7860    3.6987    0.0000 H   0  0  0  0  0  0  0  0  0  0  0  0
   21.0166    1.4169    0.0000 H   0  0  0  0  0  0  0  0  0  0  0  0
   19.7287    0.6934    0.0000 H   0  0  0  0  0  0  0  0  0  0  0  0
   20.9433    4.8887    0.0000 H   0  0  0  0  0  0  0  0  0  0  0  0
   19.2925    4.2110    0.0000 H   0  0  0  0  0  0  0  0  0  0  0  0
   23.4403    2.7108    0.0000 H   0  0  0  0  0  0  0  0  0  0  0  0
   21.8845    1.8369    0.0000 H   0  0  0  0  0  0  0  0  0  0  0  0
   22.2611    5.9163    0.0000 H   0  0  0  0  0  0  0  0  0  0  0  0
   26.7492    5.5886    0.0000 H   0  0  0  0  0  0  0  0  0  0  0  0
   24.5998    7.0480    0.0000 H   0  0  0  0  0  0  0  0  0  0  0  0
   26.5599    2.9974    0.0000 H   0  0  0  0  0  0  0  0  0  0  0  0
   24.2213    1.8657    0.0000 H   0  0  0  0  0  0  0  0  0  0  0  0
   20.3234   -0.7504    0.0000 H   0  0  0  0  0  0  0  0  0  0  0  0
   18.1283   -4.7721    0.0000 H   0  0  0  0  0  0  0  0  0  0  0  0
   19.0835   -3.8781    0.0000 H   0  0  0  0  0  0  0  0  0  0  0  0
   16.7463   -5.8227    0.0000 H   0  0  0  0  0  0  0  0  0  0  0  0
   17.7398   -5.2615    0.0000 H   0  0  0  0  0  0  0  0  0  0  0  0
   14.7552   -6.3880    0.0000 H   0  0  0  0  0  0  0  0  0  0  0  0
   16.1920   -6.0741    0.0000 H   0  0  0  0  0  0  0  0  0  0  0  0
   13.6720   -6.6427    0.0000 H   0  0  0  0  0  0  0  0  0  0  0  0
   21.1551   -2.6742    0.0000 H   0  0  0  0  0  0  0  0  0  0  0  0
   21.1361   -0.8899    0.0000 H   0  0  0  0  0  0  0  0  0  0  0  0
   19.7804   -0.3034    0.0000 H   0  0  0  0  0  0  0  0  0  0  0  0
   21.6144   -1.9174    0.0000 H   0  0  0  0  0  0  0  0  0  0  0  0
   20.2873   -5.0383    0.0000 H   0  0  0  0  0  0  0  0  0  0  0  0
   22.7165   -7.2035    0.0000 H   0  0  0  0  0  0  0  0  0  0  0  0
   23.5017   -5.6011    0.0000 H   0  0  0  0  0  0  0  0  0  0  0  0
   21.3274   -8.3740    0.0000 H   0  0  0  0  0  0  0  0  0  0  0  0
   23.5178   -6.9632    0.0000 H   0  0  0  0  0  0  0  0  0  0  0  0
   25.1191   -3.9737    0.0000 H   0  0  0  0  0  0  0  0  0  0  0  0
   27.9298   -3.7577    0.0000 H   0  0  0  0  0  0  0  0  0  0  0  0
   26.0107   -3.5694    0.0000 H   0  0  0  0  0  0  0  0  0  0  0  0
   29.4437   -5.0609    0.0000 H   0  0  0  0  0  0  0  0  0  0  0  0
   28.9249   -6.9182    0.0000 H   0  0  0  0  0  0  0  0  0  0  0  0
   27.4532   -7.0443    0.0000 H   0  0  0  0  0  0  0  0  0  0  0  0
  1  2  1  0
  2  3  1  0
  3  4  2  0
  4  5  1  0
  5  6  2  0
  6  7  1  0
  7  8  2  0
  7  9  1  0
  9 10  1  0
 10 11  1  0
 11 12  2  0
  9 13  1  0
 13 14  1  0
 14 15  2  0
 15 16  1  0
 16 17  2  0
 17 18  1  0
 16 19  1  0
 14 20  1  0
 20 21  1  0
 21 22  2  0
 22 23  1  0
 23 24  2  0
 24 25  1  0
 25 26  2  0
 25 27  1  0
  1 28  2  0
  1 29  1  0
 29 30  1  0
 30 31  1  0
 31 32  1  0
 32 33  2  0
 32 34  1  0
 34 35  1  0
 35 36  1  0
 36 37  1  0
 37 38  2  0
 37 39  1  0
 35 40  1  0
 40 41  2  0
 40 42  1  0
 42 43  1  0
 43 44  1  0
 44 45  1  0
 45 46  2  0
 46 47  1  0
 47 48  1  0
 48 49  2  0
 43 50  1  0
 50 51  2  0
 50 52  1  0
 52 53  1  0
 53 54  1  0
 54 55  1  0
 54 56  1  0
 56 57  1  0
 53 58  1  0
 58 59  2  0
 58 60  1  0
 60 61  1  0
 61 62  1  0
 62 63  1  0
 63 64  1  0
 64 65  1  0
 65 66  1  0
 61 67  1  0
 67 68  2  0
 67 69  1  0
 69 70  1  0
 70 71  1  0
 71 72  1  0
 72 73  2  0
 72 74  1  0
 70 75  1  0
 75 76  2  0
 75 77  1  0
 77 78  1  0
 78 79  1  0
 79 80  1  0
 78 81  1  0
 81 82  2  0
 81 83  1  0
 83 84  1  0
 84 85  1  0
 85 86  1  0
 86 87  2  0
 87 88  1  0
 88 89  2  0
 89 90  1  0
 90 91  2  0
 84 92  1  0
 92 93  2  0
 92 94  1  0
 95 94  1  6
 95 96  1  0
 96 97  1  0
 97 98  1  0
 98 99  1  0
 95100  1  0
 95101  1  0
101102  2  0
101103  1  0
103104  1  0
104105  1  0
105106  1  0
104107  1  0
107108  2  0
107109  1  0
109110  1  0
110111  1  0
111112  1  0
112113  1  0
112114  1  0
110115  1  0
115116  2  0
115117  1  0
117118  1  0
118119  1  0
119120  1  0
120121  1  0
121122  1  0
122123  1  0
123124  2  3
123125  1  0
118126  1  0
126127  2  0
126128  1  0
128129  1  0
129130  1  0
130131  1  0
131132  1  0
132133  1  0
129134  1  0
129135  1  6
135136  2  0
135137  1  0
137138  1  0
138139  1  0
139140  1  0
138141  1  0
141142  2  0
141143  1  0
143144  1  0
144145  1  0
145146  1  0
144147  1  0
147148  2  0
147149  1  0
  8  3  1  0
 49 45  1  0
 91 86  1  0
 11  6  1  0
 99133  2  0
 18 13  2  0
 22  9  1  0
 26 21  1  0
  2150  1  0
  4151  1  0
  5152  1  0
  8153  1  0
 15154  1  0
 17155  1  0
 18156  1  0
 19157  1  0
 23158  1  0
 24159  1  0
 26160  1  0
 27161  1  0
 29162  1  0
 30163  1  0
 30164  1  0
 31165  1  0
 31166  1  0
 34167  1  0
 35168  1  1
 36169  1  0
 36170  1  0
 42171  1  0
 43172  1  6
 44173  1  0
 44174  1  0
 46175  1  0
 47176  1  0
 48177  1  0
 52178  1  0
 53179  1  1
 54180  1  1
 55181  1  0
 55182  1  0
 55183  1  0
 56184  1  0
 56185  1  0
 57186  1  0
 57187  1  0
 57188  1  0
 60189  1  0
 61190  1  6
 62191  1  0
 62192  1  0
 63193  1  0
 63194  1  0
 64195  1  0
 64196  1  0
 65197  1  0
 65198  1  0
 66199  1  0
 66200  1  0
 66201  1  0
 69202  1  0
 70203  1  1
 71204  1  0
 71205  1  0
 77206  1  0
 78207  1  6
 79208  1  0
 79209  1  0
 80210  1  0
 83211  1  0
 84212  1  1
 85213  1  0
 85214  1  0
 87215  1  0
 88216  1  0
 89217  1  0
 90218  1  0
 91219  1  0
 94220  1  0
 96221  1  0
 96222  1  0
 97223  1  0
 97224  1  0
 98225  1  0
 98226  1  0
 99227  1  0
100228  1  0
100229  1  0
100230  1  0
103231  1  0
104232  1  1
105233  1  0
105234  1  0
106235  1  0
109236  1  0
110237  1  1
111238  1  0
111239  1  0
112240  1  0
113241  1  0
113242  1  0
113243  1  0
114244  1  0
114245  1  0
114246  1  0
117247  1  0
118248  1  1
119249  1  0
119250  1  0
120251  1  0
120252  1  0
121253  1  0
121254  1  0
122255  1  0
124256  1  0
124257  1  0
125258  1  0
125259  1  0
128260  1  0
130261  1  0
130262  1  0
131263  1  0
131264  1  0
132265  1  0
132266  1  0
133267  1  0
134268  1  0
134269  1  0
134270  1  0
137271  1  0
138272  1  6
139273  1  0
139274  1  0
140275  1  0
143276  1  0
144277  1  1
145278  1  0
145279  1  0
146280  1  0
146281  1  0
146282  1  0
M  CHG  5  39  -1  66   1  74  -1 124   1 149  -1
M  END
