
     RDKit          2D

272273  0  0  0  0  0  0  0  0999 V2000
   20.9655   -6.5782    0.0000 N   0  0  0  0  0  0  0  0  0  0  0  0
   19.5822   -5.9981    0.0000 C   0  0  0  0  0  0  0  0  0  0  0  0
   18.3881   -6.9060    0.0000 C   0  0  0  0  0  0  0  0  0  0  0  0
   17.0049   -6.3259    0.0000 C   0  0  0  0  0  0  0  0  0  0  0  0
   16.8156   -4.8379    0.0000 O   0  0  0  0  0  0  0  0  0  0  0  0
   15.8108   -7.2338    0.0000 N   0  0  0  0  0  0  0  0  0  0  0  0
   14.4275   -6.6536    0.0000 C   0  0  0  0  0  0  0  0  0  0  0  0
   14.0964   -8.1166    0.0000 C   0  0  0  0  0  0  0  0  0  0  0  0
   12.6639   -8.5614    0.0000 C   0  0  0  0  0  0  0  0  0  0  0  0
   12.3328  -10.0244    0.0000 C   0  0  0  0  0  0  0  0  0  0  0  0
   10.9002  -10.4692    0.0000 C   0  0  0  0  0  0  0  0  0  0  0  0
    9.7988   -9.4509    0.0000 C   0  0  0  0  0  0  0  0  0  0  0  0
   10.1299   -7.9879    0.0000 C   0  0  0  0  0  0  0  0  0  0  0  0
   11.5624   -7.5432    0.0000 C   0  0  0  0  0  0  0  0  0  0  0  0
   13.3261   -5.6354    0.0000 C   0  0  0  0  0  0  0  0  0  0  0  0
   12.5648   -5.8718    0.0000 O   0  0  0  0  0  0  0  0  0  0  0  0
   13.6572   -4.1724    0.0000 N   0  0  0  0  0  0  0  0  0  0  0  0
   12.5558   -3.1542    0.0000 C   0  0  0  0  0  0  0  0  0  0  0  0
   11.7443   -4.4157    0.0000 C   0  0  0  0  0  0  0  0  0  0  0  0
   10.2460   -4.3437    0.0000 C   0  0  0  0  0  0  0  0  0  0  0  0
    9.4345   -5.6052    0.0000 N   0  0  0  0  0  0  0  0  0  0  0  0
    9.5592   -3.0101    0.0000 O   0  0  0  0  0  0  0  0  0  0  0  0
   11.8690   -1.8206    0.0000 C   0  0  0  0  0  0  0  0  0  0  0  0
   10.3707   -1.7486    0.0000 O   0  0  0  0  0  0  0  0  0  0  0  0
   12.6805   -0.5591    0.0000 N   0  0  0  0  0  0  0  0  0  0  0  0
   11.9938    0.7745    0.0000 C   0  0  0  0  0  0  0  0  0  0  0  0
   13.4263    1.2192    0.0000 C   0  0  0  0  0  0  0  0  0  0  0  0
   14.3954    0.0743    0.0000 C   0  0  0  0  0  0  0  0  0  0  0  0
   14.6204    2.1271    0.0000 C   0  0  0  0  0  0  0  0  0  0  0  0
   16.0036    1.5470    0.0000 C   0  0  0  0  0  0  0  0  0  0  0  0
   10.8923    1.7927    0.0000 C   0  0  0  0  0  0  0  0  0  0  0  0
   11.3993    3.2045    0.0000 O   0  0  0  0  0  0  0  0  0  0  0  0
    9.4598    1.3480    0.0000 N   0  0  0  0  0  0  0  0  0  0  0  0
    8.3583    2.3662    0.0000 C   0  0  0  0  0  0  0  0  0  0  0  0
    9.5524    3.2741    0.0000 C   0  0  0  0  0  0  0  0  0  0  0  0
    9.3631    4.7621    0.0000 C   0  0  0  0  0  0  0  0  0  0  0  0
   10.5572    5.6700    0.0000 N   0  0  0  0  0  0  0  0  0  0  0  0
    7.9799    5.3422    0.0000 O   0  0  0  0  0  0  0  0  0  0  0  0
    6.9751    2.9463    0.0000 C   0  0  0  0  0  0  0  0  0  0  0  0
    6.9686    4.4463    0.0000 O   0  0  0  0  0  0  0  0  0  0  0  0
    5.7810    2.0384    0.0000 N   0  0  0  0  0  0  0  0  0  0  0  0
    4.3977    2.6186    0.0000 C   0  0  0  0  0  0  0  0  0  0  0  0
    4.4922    1.1215    0.0000 C   0  0  0  0  0  0  0  0  0  0  0  0
    4.3017   -0.3663    0.0000 C   0  0  0  0  0  0  0  0  0  0  0  0
    3.8330   -1.7912    0.0000 C   0  0  0  0  0  0  0  0  0  0  0  0
    3.1031   -3.1017    0.0000 C   0  0  0  0  0  0  0  0  0  0  0  0
    2.1385   -4.2503    0.0000 C   0  0  0  0  0  0  0  0  0  0  0  0
    0.9738   -5.1956    0.0000 C   0  0  0  0  0  0  0  0  0  0  0  0
   -0.3487   -5.9035    0.0000 C   0  0  0  0  0  0  0  0  0  0  0  0
    5.5318    3.6004    0.0000 C   0  0  0  0  0  0  0  0  0  0  0  0
    4.0216    4.0707    0.0000 C   0  0  0  0  0  0  0  0  0  0  0  0
    5.3584    4.7511    0.0000 O   0  0  0  0  0  0  0  0  0  0  0  0
    3.3775    5.4253    0.0000 N   0  0  0  0  0  0  0  0  0  0  0  0
    2.4887    6.6336    0.0000 C   0  0  0  0  0  0  0  0  0  0  0  0
    2.9119    8.0727    0.0000 C   0  0  0  0  0  0  0  0  0  0  0  0
    4.3698    8.4257    0.0000 C   0  0  0  0  0  0  0  0  0  0  0  0
    4.7930    9.8647    0.0000 C   0  0  0  0  0  0  0  0  0  0  0  0
    6.2509   10.2177    0.0000 N   0  0  0  0  0  0  0  0  0  0  0  0
    6.6741   11.6568    0.0000 C   0  0  0  0  0  0  0  0  0  0  0  0
    8.1320   12.0098    0.0000 N   0  0  0  0  0  0  0  0  0  0  0  0
    5.6395   12.7428    0.0000 N   0  0  0  0  0  0  0  0  0  0  0  0
    1.3873    7.6519    0.0000 C   0  0  0  0  0  0  0  0  0  0  0  0
    2.1440    8.9470    0.0000 O   0  0  0  0  0  0  0  0  0  0  0  0
    0.1130    8.4433    0.0000 N   0  0  0  0  0  0  0  0  0  0  0  0
   -1.2880    8.9792    0.0000 C   0  0  0  0  0  0  0  0  0  0  0  0
   -1.7099   10.4186    0.0000 C   0  0  0  0  0  0  0  0  0  0  0  0
   -0.5498   11.3694    0.0000 C   0  0  0  0  0  0  0  0  0  0  0  0
   -2.5988   11.6269    0.0000 C   0  0  0  0  0  0  0  0  0  0  0  0
   -1.9968   13.0008    0.0000 C   0  0  0  0  0  0  0  0  0  0  0  0
   -2.7651    9.2403    0.0000 C   0  0  0  0  0  0  0  0  0  0  0  0
   -2.6455   10.7356    0.0000 O   0  0  0  0  0  0  0  0  0  0  0  0
   -4.2649    9.2172    0.0000 N   0  0  0  0  0  0  0  0  0  0  0  0
   -5.7332    8.9106    0.0000 C   0  0  0  0  0  0  0  0  0  0  0  0
   -6.8664    9.8934    0.0000 C   0  0  0  0  0  0  0  0  0  0  0  0
   -6.5819   11.3662    0.0000 C   0  0  0  0  0  0  0  0  0  0  0  0
   -7.7151   12.3490    0.0000 C   0  0  0  0  0  0  0  0  0  0  0  0
   -7.4306   13.8217    0.0000 C   0  0  0  0  0  0  0  0  0  0  0  0
   -8.5638   14.8045    0.0000 N   0  0  0  0  0  0  0  0  0  0  0  0
   -7.1170    8.3317    0.0000 C   0  0  0  0  0  0  0  0  0  0  0  0
   -7.9808    9.5580    0.0000 O   0  0  0  0  0  0  0  0  0  0  0  0
   -8.3662    7.5014    0.0000 N   0  0  0  0  0  0  0  0  0  0  0  0
   -9.4357    6.4496    0.0000 C   0  0  0  0  0  0  0  0  0  0  0  0
  -10.9204    6.6637    0.0000 C   0  0  0  0  0  0  0  0  0  0  0  0
  -11.4772    8.0565    0.0000 C   0  0  0  0  0  0  0  0  0  0  0  0
  -12.9619    8.2707    0.0000 C   0  0  0  0  0  0  0  0  0  0  0  0
  -13.5188    9.6635    0.0000 O   0  0  0  0  0  0  0  0  0  0  0  0
  -13.8896    7.0920    0.0000 O   0  0  0  0  0  0  0  0  0  0  0  0
  -10.2869    5.2145    0.0000 C   0  0  0  0  0  0  0  0  0  0  0  0
  -11.6765    5.7792    0.0000 O   0  0  0  0  0  0  0  0  0  0  0  0
  -10.8888    3.8406    0.0000 N   0  0  0  0  0  0  0  0  0  0  0  0
  -11.2200    2.3776    0.0000 C   0  0  0  0  0  0  0  0  0  0  0  0
  -12.5847    1.7550    0.0000 C   0  0  0  0  0  0  0  0  0  0  0  0
  -13.8062    2.6257    0.0000 C   0  0  0  0  0  0  0  0  0  0  0  0
  -15.1709    2.0031    0.0000 C   0  0  0  0  0  0  0  0  0  0  0  0
  -14.6562    3.8616    0.0000 C   0  0  0  0  0  0  0  0  0  0  0  0
  -11.2682    0.8784    0.0000 C   0  0  0  0  0  0  0  0  0  0  0  0
  -12.7425    0.6021    0.0000 O   0  0  0  0  0  0  0  0  0  0  0  0
  -11.0318   -0.6029    0.0000 N   0  0  0  0  0  0  0  0  0  0  0  0
  -10.5194   -2.0127    0.0000 C   0  0  0  0  0  0  0  0  0  0  0  0
   -9.7495   -3.3000    0.0000 C   0  0  0  0  0  0  0  0  0  0  0  0
  -10.9578   -4.1888    0.0000 O   0  0  0  0  0  0  0  0  0  0  0  0
   -8.7498   -4.4183    0.0000 N   0  0  0  0  0  0  0  0  0  0  0  0
   -7.5566   -5.3273    0.0000 C   0  0  0  0  0  0  0  0  0  0  0  0
   -6.2129   -5.9939    0.0000 C   0  0  0  0  0  0  0  0  0  0  0  0
   -4.7673   -6.3943    0.0000 C   0  0  0  0  0  0  0  0  0  0  0  0
   -3.2720   -6.5138    0.0000 C   0  0  0  0  0  0  0  0  0  0  0  0
   -1.7812   -6.3482    0.0000 C   0  0  0  0  0  0  0  0  0  0  0  0
   -8.9008   -5.9928    0.0000 C   0  0  0  0  0  0  0  0  0  0  0  0
   -7.5572   -6.8273    0.0000 C   0  0  0  0  0  0  0  0  0  0  0  0
   -6.4787   -7.8698    0.0000 O   0  0  0  0  0  0  0  0  0  0  0  0
   -8.8566   -7.5767    0.0000 N   0  0  0  0  0  0  0  0  0  0  0  0
   -8.8572   -9.0767    0.0000 C   0  0  0  0  0  0  0  0  0  0  0  0
   -8.3448  -10.4865    0.0000 C   0  0  0  0  0  0  0  0  0  0  0  0
   -9.3095  -11.6351    0.0000 C   0  0  0  0  0  0  0  0  0  0  0  0
   -8.7971  -13.0449    0.0000 C   0  0  0  0  0  0  0  0  0  0  0  0
  -10.6089  -12.3845    0.0000 C   0  0  0  0  0  0  0  0  0  0  0  0
  -10.1566   -9.8261    0.0000 C   0  0  0  0  0  0  0  0  0  0  0  0
  -11.4553   -9.0756    0.0000 O   0  0  0  0  0  0  0  0  0  0  0  0
  -10.1573  -11.3261    0.0000 N   0  0  0  0  0  0  0  0  0  0  0  0
  -11.4566  -12.0756    0.0000 C   0  0  0  0  0  0  0  0  0  0  0  0
  -12.9340  -12.3354    0.0000 C   0  0  0  0  0  0  0  0  0  0  0  0
  -13.7503  -11.0770    0.0000 C   0  0  0  0  0  0  0  0  0  0  0  0
  -14.2333  -13.0848    0.0000 C   0  0  0  0  0  0  0  0  0  0  0  0
  -15.5320  -12.3342    0.0000 C   0  0  0  0  0  0  0  0  0  0  0  0
  -11.4573  -13.5756    0.0000 C   0  0  0  0  0  0  0  0  0  0  0  0
  -12.5367  -14.6171    0.0000 O   0  0  0  0  0  0  0  0  0  0  0  0
  -10.2598  -14.4788    0.0000 O   0  0  0  0  0  0  0  0  0  0  0  0
   22.1595   -5.6703    0.0000 H   0  0  0  0  0  0  0  0  0  0  0  0
   21.1547   -8.0662    0.0000 H   0  0  0  0  0  0  0  0  0  0  0  0
   20.3937   -4.7366    0.0000 H   0  0  0  0  0  0  0  0  0  0  0  0
   18.4807   -4.9799    0.0000 H   0  0  0  0  0  0  0  0  0  0  0  0
   19.4896   -7.9242    0.0000 H   0  0  0  0  0  0  0  0  0  0  0  0
   17.5766   -8.1675    0.0000 H   0  0  0  0  0  0  0  0  0  0  0  0
   16.0531   -8.1876    0.0000 H   0  0  0  0  0  0  0  0  0  0  0  0
   15.2391   -5.3921    0.0000 H   0  0  0  0  0  0  0  0  0  0  0  0
   14.2857   -9.6047    0.0000 H   0  0  0  0  0  0  0  0  0  0  0  0
   15.0664   -8.2834    0.0000 H   0  0  0  0  0  0  0  0  0  0  0  0
   13.4342  -11.0426    0.0000 H   0  0  0  0  0  0  0  0  0  0  0  0
   10.5691  -11.9322    0.0000 H   0  0  0  0  0  0  0  0  0  0  0  0
    8.3662   -9.8957    0.0000 H   0  0  0  0  0  0  0  0  0  0  0  0
    9.0285   -6.9697    0.0000 H   0  0  0  0  0  0  0  0  0  0  0  0
   11.5410   -6.5592    0.0000 H   0  0  0  0  0  0  0  0  0  0  0  0
   15.0898   -3.7276    0.0000 H   0  0  0  0  0  0  0  0  0  0  0  0
   13.7498   -2.2463    0.0000 H   0  0  0  0  0  0  0  0  0  0  0  0
   11.0690   -5.7551    0.0000 H   0  0  0  0  0  0  0  0  0  0  0  0
   12.4539   -4.9457    0.0000 H   0  0  0  0  0  0  0  0  0  0  0  0
    7.9362   -5.5332    0.0000 H   0  0  0  0  0  0  0  0  0  0  0  0
   10.1212   -6.9387    0.0000 H   0  0  0  0  0  0  0  0  0  0  0  0
   14.1588   -0.8132    0.0000 H   0  0  0  0  0  0  0  0  0  0  0  0
   10.7997   -0.1334    0.0000 H   0  0  0  0  0  0  0  0  0  0  0  0
   12.7396    2.5528    0.0000 H   0  0  0  0  0  0  0  0  0  0  0  0
   16.0183    0.4507    0.0000 H   0  0  0  0  0  0  0  0  0  0  0  0
   15.2145   -1.1326    0.0000 H   0  0  0  0  0  0  0  0  0  0  0  0
   13.7385   -1.0746    0.0000 H   0  0  0  0  0  0  0  0  0  0  0  0
   15.4319    3.3886    0.0000 H   0  0  0  0  0  0  0  0  0  0  0  0
   13.5189    3.1454    0.0000 H   0  0  0  0  0  0  0  0  0  0  0  0
   17.1977    2.4549    0.0000 H   0  0  0  0  0  0  0  0  0  0  0  0
   17.1051    0.5288    0.0000 H   0  0  0  0  0  0  0  0  0  0  0  0
   15.5215    0.1266    0.0000 H   0  0  0  0  0  0  0  0  0  0  0  0
    9.1287   -0.1150    0.0000 H   0  0  0  0  0  0  0  0  0  0  0  0
    7.5468    1.1047    0.0000 H   0  0  0  0  0  0  0  0  0  0  0  0
   10.9200    3.8902    0.0000 H   0  0  0  0  0  0  0  0  0  0  0  0
   10.5414    2.1464    0.0000 H   0  0  0  0  0  0  0  0  0  0  0  0
   10.3679    7.1580    0.0000 H   0  0  0  0  0  0  0  0  0  0  0  0
   11.9404    5.0899    0.0000 H   0  0  0  0  0  0  0  0  0  0  0  0
    6.3247    0.6404    0.0000 H   0  0  0  0  0  0  0  0  0  0  0  0
    5.9343    1.5343    0.0000 H   0  0  0  0  0  0  0  0  0  0  0  0
    5.7407    0.2901    0.0000 H   0  0  0  0  0  0  0  0  0  0  0  0
    5.7958   -0.2339    0.0000 H   0  0  0  0  0  0  0  0  0  0  0  0
    5.4906   -1.2809    0.0000 H   0  0  0  0  0  0  0  0  0  0  0  0
    5.3327   -1.7610    0.0000 H   0  0  0  0  0  0  0  0  0  0  0  0
    4.8274   -2.9143    0.0000 H   0  0  0  0  0  0  0  0  0  0  0  0
    4.5815   -3.3558    0.0000 H   0  0  0  0  0  0  0  0  0  0  0  0
    3.8670   -4.3926    0.0000 H   0  0  0  0  0  0  0  0  0  0  0  0
    3.5420   -4.7796    0.0000 H   0  0  0  0  0  0  0  0  0  0  0  0
    2.6442   -5.6625    0.0000 H   0  0  0  0  0  0  0  0  0  0  0  0
    2.2518   -5.9810    0.0000 H   0  0  0  0  0  0  0  0  0  0  0  0
    1.0208   -6.6949    0.0000 H   0  0  0  0  0  0  0  0  0  0  0  0
    0.2302   -7.2872    0.0000 H   0  0  0  0  0  0  0  0  0  0  0  0
    7.0258    3.4667    0.0000 H   0  0  0  0  0  0  0  0  0  0  0  0
    6.2617    4.9108    0.0000 H   0  0  0  0  0  0  0  0  0  0  0  0
    4.6316    4.8002    0.0000 H   0  0  0  0  0  0  0  0  0  0  0  0
    4.7491    6.0326    0.0000 H   0  0  0  0  0  0  0  0  0  0  0  0
    3.9867    6.7114    0.0000 H   0  0  0  0  0  0  0  0  0  0  0  0
    2.8175    9.5697    0.0000 H   0  0  0  0  0  0  0  0  0  0  0  0
    1.5059    8.5953    0.0000 H   0  0  0  0  0  0  0  0  0  0  0  0
    5.8605    8.2588    0.0000 H   0  0  0  0  0  0  0  0  0  0  0  0
    4.8237    6.9960    0.0000 H   0  0  0  0  0  0  0  0  0  0  0  0
    4.6986   11.3618    0.0000 H   0  0  0  0  0  0  0  0  0  0  0  0
    3.3338   10.2121    0.0000 H   0  0  0  0  0  0  0  0  0  0  0  0
    7.2856    9.1317    0.0000 H   0  0  0  0  0  0  0  0  0  0  0  0
    8.5552   13.4488    0.0000 H   0  0  0  0  0  0  0  0  0  0  0  0
    9.1667   10.9237    0.0000 H   0  0  0  0  0  0  0  0  0  0  0  0
    6.0627   14.1819    0.0000 H   0  0  0  0  0  0  0  0  0  0  0  0
    4.1816   12.3898    0.0000 H   0  0  0  0  0  0  0  0  0  0  0  0
    0.9385    9.6957    0.0000 H   0  0  0  0  0  0  0  0  0  0  0  0
   -0.0698    9.8545    0.0000 H   0  0  0  0  0  0  0  0  0  0  0  0
   -3.1753   10.0982    0.0000 H   0  0  0  0  0  0  0  0  0  0  0  0
   -0.9004   12.9981    0.0000 H   0  0  0  0  0  0  0  0  0  0  0  0
    0.6699   12.1693    0.0000 H   0  0  0  0  0  0  0  0  0  0  0  0
    0.4805   10.5465    0.0000 H   0  0  0  0  0  0  0  0  0  0  0  0
   -3.8473   12.4583    0.0000 H   0  0  0  0  0  0  0  0  0  0  0  0
   -3.7589   10.6761    0.0000 H   0  0  0  0  0  0  0  0  0  0  0  0
   -2.8856   14.2091    0.0000 H   0  0  0  0  0  0  0  0  0  0  0  0
   -0.9612   14.0860    0.0000 H   0  0  0  0  0  0  0  0  0  0  0  0
   -0.5842   12.4962    0.0000 H   0  0  0  0  0  0  0  0  0  0  0  0
   -4.4305   10.7080    0.0000 H   0  0  0  0  0  0  0  0  0  0  0  0
   -5.1817   10.3055    0.0000 H   0  0  0  0  0  0  0  0  0  0  0  0
   -8.2674   10.4293    0.0000 H   0  0  0  0  0  0  0  0  0  0  0  0
   -7.9259    8.8316    0.0000 H   0  0  0  0  0  0  0  0  0  0  0  0
   -5.6597   12.5492    0.0000 H   0  0  0  0  0  0  0  0  0  0  0  0
   -5.0929   11.1852    0.0000 H   0  0  0  0  0  0  0  0  0  0  0  0
   -9.1710   12.7101    0.0000 H   0  0  0  0  0  0  0  0  0  0  0  0
   -8.6373   11.1659    0.0000 H   0  0  0  0  0  0  0  0  0  0  0  0
   -6.6595   15.1084    0.0000 H   0  0  0  0  0  0  0  0  0  0  0  0
   -5.9747   13.4605    0.0000 H   0  0  0  0  0  0  0  0  0  0  0  0
   -8.2792   16.2773    0.0000 H   0  0  0  0  0  0  0  0  0  0  0  0
   -9.9647   15.3404    0.0000 H   0  0  0  0  0  0  0  0  0  0  0  0
   -9.4859   13.6215    0.0000 H   0  0  0  0  0  0  0  0  0  0  0  0
   -9.1625    8.7725    0.0000 H   0  0  0  0  0  0  0  0  0  0  0  0
   -9.7259    7.9213    0.0000 H   0  0  0  0  0  0  0  0  0  0  0  0
  -12.4151    6.5384    0.0000 H   0  0  0  0  0  0  0  0  0  0  0  0
  -11.2376    5.1977    0.0000 H   0  0  0  0  0  0  0  0  0  0  0  0
  -11.5242    9.5558    0.0000 H   0  0  0  0  0  0  0  0  0  0  0  0
  -10.1267    8.7093    0.0000 H   0  0  0  0  0  0  0  0  0  0  0  0
  -12.2460    4.4794    0.0000 H   0  0  0  0  0  0  0  0  0  0  0  0
  -12.2597    3.4587    0.0000 H   0  0  0  0  0  0  0  0  0  0  0  0
  -13.6542    0.7033    0.0000 H   0  0  0  0  0  0  0  0  0  0  0  0
  -12.0589    0.3502    0.0000 H   0  0  0  0  0  0  0  0  0  0  0  0
  -13.0229    3.9049    0.0000 H   0  0  0  0  0  0  0  0  0  0  0  0
  -16.4894    2.7184    0.0000 H   0  0  0  0  0  0  0  0  0  0  0  0
  -16.2404    0.9514    0.0000 H   0  0  0  0  0  0  0  0  0  0  0  0
  -14.4778    0.6729    0.0000 H   0  0  0  0  0  0  0  0  0  0  0  0
  -16.1548    3.9265    0.0000 H   0  0  0  0  0  0  0  0  0  0  0  0
  -15.0323    5.3136    0.0000 H   0  0  0  0  0  0  0  0  0  0  0  0
  -13.2915    4.4841    0.0000 H   0  0  0  0  0  0  0  0  0  0  0  0
  -12.4839   -0.9790    0.0000 H   0  0  0  0  0  0  0  0  0  0  0  0
  -11.3309   -3.2742    0.0000 H   0  0  0  0  0  0  0  0  0  0  0  0
  -12.0101   -1.8458    0.0000 H   0  0  0  0  0  0  0  0  0  0  0  0
   -9.8947   -5.3874    0.0000 H   0  0  0  0  0  0  0  0  0  0  0  0
   -5.9296   -7.4670    0.0000 H   0  0  0  0  0  0  0  0  0  0  0  0
   -7.1517   -7.1638    0.0000 H   0  0  0  0  0  0  0  0  0  0  0  0
   -4.3843   -7.8446    0.0000 H   0  0  0  0  0  0  0  0  0  0  0  0
   -5.4678   -7.7207    0.0000 H   0  0  0  0  0  0  0  0  0  0  0  0
   -2.4616   -7.7760    0.0000 H   0  0  0  0  0  0  0  0  0  0  0  0
   -3.8805   -7.8848    0.0000 H   0  0  0  0  0  0  0  0  0  0  0  0
   -1.4747   -7.8165    0.0000 H   0  0  0  0  0  0  0  0  0  0  0  0
   -9.3560   -7.4220    0.0000 H   0  0  0  0  0  0  0  0  0  0  0  0
  -10.3917   -6.1584    0.0000 H   0  0  0  0  0  0  0  0  0  0  0  0
   -9.6586   -4.6982    0.0000 H   0  0  0  0  0  0  0  0  0  0  0  0
  -10.2371   -6.9900    0.0000 H   0  0  0  0  0  0  0  0  0  0  0  0
   -7.3799   -8.8169    0.0000 H   0  0  0  0  0  0  0  0  0  0  0  0
   -7.2482  -11.5099    0.0000 H   0  0  0  0  0  0  0  0  0  0  0  0
   -7.0455   -9.7370    0.0000 H   0  0  0  0  0  0  0  0  0  0  0  0
  -10.7001  -11.0727    0.0000 H   0  0  0  0  0  0  0  0  0  0  0  0
   -9.4552  -14.3928    0.0000 H   0  0  0  0  0  0  0  0  0  0  0  0
   -7.8334  -14.1943    0.0000 H   0  0  0  0  0  0  0  0  0  0  0  0
   -7.4161  -12.4594    0.0000 H   0  0  0  0  0  0  0  0  0  0  0  0
  -12.0506  -11.9705    0.0000 H   0  0  0  0  0  0  0  0  0  0  0  0
  -11.0977  -13.8026    0.0000 H   0  0  0  0  0  0  0  0  0  0  0  0
   -9.7925  -13.6429    0.0000 H   0  0  0  0  0  0  0  0  0  0  0  0
   -9.0788  -12.3686    0.0000 H   0  0  0  0  0  0  0  0  0  0  0  0
  -11.7934  -10.6138    0.0000 H   0  0  0  0  0  0  0  0  0  0  0  0
  -12.7779  -13.8272    0.0000 H   0  0  0  0  0  0  0  0  0  0  0  0
  -15.4078  -11.2449    0.0000 H   0  0  0  0  0  0  0  0  0  0  0  0
  -14.4101   -9.7761    0.0000 H   0  0  0  0  0  0  0  0  0  0  0  0
  -12.6993  -10.2837    0.0000 H   0  0  0  0  0  0  0  0  0  0  0  0
  -15.1980  -14.2335    0.0000 H   0  0  0  0  0  0  0  0  0  0  0  0
  -13.4169  -14.3432    0.0000 H   0  0  0  0  0  0  0  0  0  0  0  0
  -16.8314  -13.0837    0.0000 H   0  0  0  0  0  0  0  0  0  0  0  0
  -16.4957  -11.1848    0.0000 H   0  0  0  0  0  0  0  0  0  0  0  0
  -14.8740  -10.9863    0.0000 H   0  0  0  0  0  0  0  0  0  0  0  0
  1  2  1  0
  2  3  1  0
  3  4  1  0
  4  5  2  0
  4  6  1  0
  6  7  1  0
  7  8  1  0
  8  9  1  0
  9 10  2  0
 10 11  1  0
 11 12  2  0
 12 13  1  0
 13 14  2  0
  7 15  1  0
 15 16  2  0
 15 17  1  0
 17 18  1  0
 18 19  1  0
 19 20  1  0
 20 21  1  0
 20 22  2  0
 18 23  1  0
 23 24  2  0
 23 25  1  0
 25 26  1  0
 26 27  1  0
 27 28  1  0
 27 29  1  0
 29 30  1  0
 26 31  1  0
 31 32  2  0
 31 33  1  0
 33 34  1  0
 34 35  1  0
 35 36  1  0
 36 37  1  0
 36 38  2  0
 34 39  1  0
 39 40  2  0
 39 41  1  0
 42 41  1  6
 42 43  1  0
 43 44  1  0
 44 45  1  0
 45 46  1  0
 46 47  1  0
 47 48  1  0
 48 49  1  0
 42 50  1  0
 42 51  1  0
 51 52  2  0
 51 53  1  0
 53 54  1  0
 54 55  1  0
 55 56  1  0
 56 57  1  0
 57 58  1  0
 58 59  1  0
 59 60  2  3
 59 61  1  0
 54 62  1  0
 62 63  2  0
 62 64  1  0
 64 65  1  0
 65 66  1  0
 66 67  1  0
 66 68  1  0
 68 69  1  0
 65 70  1  0
 70 71  2  0
 70 72  1  0
 72 73  1  0
 73 74  1  0
 74 75  1  0
 75 76  1  0
 76 77  1  0
 77 78  1  0
 73 79  1  0
 79 80  2  0
 79 81  1  0
 81 82  1  0
 82 83  1  0
 83 84  1  0
 84 85  1  0
 85 86  2  0
 85 87  1  0
 82 88  1  0
 88 89  2  0
 88 90  1  0
 90 91  1  0
 91 92  1  0
 92 93  1  0
 93 94  1  0
 93 95  1  0
 91 96  1  0
 96 97  2  0
 96 98  1  0
 98 99  1  0
 99100  1  0
100101  2  0
100102  1  0
102103  1  0
103104  1  0
104105  1  0
105106  1  0
106107  1  0
103108  1  0
103109  1  1
109110  2  0
109111  1  0
111112  1  0
112113  1  0
113114  1  0
114115  1  0
114116  1  0
112117  1  0
117118  2  0
117119  1  0
119120  1  0
120121  1  0
121122  1  0
121123  1  0
123124  1  0
120125  1  0
125126  2  0
125127  1  0
 14  9  1  0
 49107  2  0
  1128  1  0
  1129  1  0
  2130  1  0
  2131  1  0
  3132  1  0
  3133  1  0
  6134  1  0
  7135  1  1
  8136  1  0
  8137  1  0
 10138  1  0
 11139  1  0
 12140  1  0
 13141  1  0
 14142  1  0
 17143  1  0
 18144  1  1
 19145  1  0
 19146  1  0
 21147  1  0
 21148  1  0
 25149  1  0
 26150  1  6
 27151  1  1
 28152  1  0
 28153  1  0
 28154  1  0
 29155  1  0
 29156  1  0
 30157  1  0
 30158  1  0
 30159  1  0
 33160  1  0
 34161  1  6
 35162  1  0
 35163  1  0
 37164  1  0
 37165  1  0
 41166  1  0
 43167  1  0
 43168  1  0
 44169  1  0
 44170  1  0
 45171  1  0
 45172  1  0
 46173  1  0
 46174  1  0
 47175  1  0
 47176  1  0
 48177  1  0
 48178  1  0
 49179  1  0
 50180  1  0
 50181  1  0
 50182  1  0
 53183  1  0
 54184  1  6
 55185  1  0
 55186  1  0
 56187  1  0
 56188  1  0
 57189  1  0
 57190  1  0
 58191  1  0
 60192  1  0
 60193  1  0
 61194  1  0
 61195  1  0
 64196  1  0
 65197  1  6
 66198  1  1
 67199  1  0
 67200  1  0
 67201  1  0
 68202  1  0
 68203  1  0
 69204  1  0
 69205  1  0
 69206  1  0
 72207  1  0
 73208  1  6
 74209  1  0
 74210  1  0
 75211  1  0
 75212  1  0
 76213  1  0
 76214  1  0
 77215  1  0
 77216  1  0
 78217  1  0
 78218  1  0
 78219  1  0
 81220  1  0
 82221  1  6
 83222  1  0
 83223  1  0
 84224  1  0
 84225  1  0
 90226  1  0
 91227  1  6
 92228  1  0
 92229  1  0
 93230  1  0
 94231  1  0
 94232  1  0
 94233  1  0
 95234  1  0
 95235  1  0
 95236  1  0
 98237  1  0
 99238  1  0
 99239  1  0
102240  1  0
104241  1  0
104242  1  0
105243  1  0
105244  1  0
106245  1  0
106246  1  0
107247  1  0
108248  1  0
108249  1  0
108250  1  0
111251  1  0
112252  1  1
113253  1  0
113254  1  0
114255  1  0
115256  1  0
115257  1  0
115258  1  0
116259  1  0
116260  1  0
116261  1  0
119262  1  0
120263  1  6
121264  1  1
122265  1  0
122266  1  0
122267  1  0
123268  1  0
123269  1  0
124270  1  0
124271  1  0
124272  1  0
M  CHG  4  60   1  78   1  87  -1 127  -1
M  END
