
     RDKit          2D

252260  0  0  0  0  0  0  0  0999 V2000
  -17.6623   -0.4788    0.0000 C   0  0  0  0  0  0  0  0  0  0  0  0
  -18.9293   -1.2818    0.0000 N   0  0  0  0  0  0  0  0  0  0  0  0
  -20.2582   -0.5860    0.0000 C   0  0  0  0  0  0  0  0  0  0  0  0
  -20.3201    0.9127    0.0000 C   0  0  0  0  0  0  0  0  0  0  0  0
  -21.6490    1.6084    0.0000 C   0  0  0  0  0  0  0  0  0  0  0  0
  -22.9160    0.8055    0.0000 C   0  0  0  0  0  0  0  0  0  0  0  0
  -22.8541   -0.6933    0.0000 C   0  0  0  0  0  0  0  0  0  0  0  0
  -21.5252   -1.3890    0.0000 C   0  0  0  0  0  0  0  0  0  0  0  0
  -24.2603   -1.2153    0.0000 C   0  0  0  0  0  0  0  0  0  0  0  0
  -25.1913   -0.0392    0.0000 O   0  0  0  0  0  0  0  0  0  0  0  0
  -24.3605    1.2097    0.0000 C   0  0  0  0  0  0  0  0  0  0  0  0
  -24.8825    2.6160    0.0000 O   0  0  0  0  0  0  0  0  0  0  0  0
  -25.7134   -1.5874    0.0000 C   0  0  0  0  0  0  0  0  0  0  0  0
  -26.1176   -3.0319    0.0000 C   0  0  0  0  0  0  0  0  0  0  0  0
  -27.5707   -3.4041    0.0000 C   0  0  0  0  0  0  0  0  0  0  0  0
  -28.6196   -2.3317    0.0000 C   0  0  0  0  0  0  0  0  0  0  0  0
  -28.2153   -0.8872    0.0000 C   0  0  0  0  0  0  0  0  0  0  0  0
  -26.7622   -0.5151    0.0000 C   0  0  0  0  0  0  0  0  0  0  0  0
  -30.0727   -2.7039    0.0000 O   0  0  0  0  0  0  0  0  0  0  0  0
  -25.0688   -4.1043    0.0000 O   0  0  0  0  0  0  0  0  0  0  0  0
  -23.6157   -3.7321    0.0000 C   0  0  0  0  0  0  0  0  0  0  0  0
  -23.2114   -2.2876    0.0000 C   0  0  0  0  0  0  0  0  0  0  0  0
  -21.9470   -2.5896    0.0000 C   0  0  0  0  0  0  0  0  0  0  0  0
  -21.3876   -3.1615    0.0000 C   0  0  0  0  0  0  0  0  0  0  0  0
  -21.6032   -3.9319    0.0000 C   0  0  0  0  0  0  0  0  0  0  0  0
  -22.3782   -4.1304    0.0000 C   0  0  0  0  0  0  0  0  0  0  0  0
  -20.0649   -5.5046    0.0000 O   0  0  0  0  0  0  0  0  0  0  0  0
  -17.7242    1.0199    0.0000 S   0  0  0  0  0  0  0  0  0  0  0  0
  -16.3334   -1.1745    0.0000 N   0  0  0  0  0  0  0  0  0  0  0  0
  -15.0665   -0.3716    0.0000 C   0  0  0  0  0  0  0  0  0  0  0  0
  -13.7376   -1.0673    0.0000 C   0  0  0  0  0  0  0  0  0  0  0  0
  -12.4706   -0.2643    0.0000 C   0  0  0  0  0  0  0  0  0  0  0  0
  -12.5325    1.2344    0.0000 O   0  0  0  0  0  0  0  0  0  0  0  0
  -11.1417   -0.9601    0.0000 N   0  0  0  0  0  0  0  0  0  0  0  0
   -9.8747   -0.1571    0.0000 C   0  0  0  0  0  0  0  0  0  0  0  0
   -8.9588    1.0308    0.0000 C   0  0  0  0  0  0  0  0  0  0  0  0
   -7.4721    0.8315    0.0000 C   0  0  0  0  0  0  0  0  0  0  0  0
   -6.5562    2.0194    0.0000 C   0  0  0  0  0  0  0  0  0  0  0  0
   -5.0695    1.8201    0.0000 N   0  0  0  0  0  0  0  0  0  0  0  0
   -4.1535    3.0080    0.0000 C   0  0  0  0  0  0  0  0  0  0  0  0
   -2.7022    2.6290    0.0000 N   0  0  0  0  0  0  0  0  0  0  0  0
   -4.7243    4.3952    0.0000 N   0  0  0  0  0  0  0  0  0  0  0  0
   -8.5459   -0.8528    0.0000 C   0  0  0  0  0  0  0  0  0  0  0  0
   -8.4839   -2.3516    0.0000 O   0  0  0  0  0  0  0  0  0  0  0  0
   -7.2789   -0.0499    0.0000 N   0  0  0  0  0  0  0  0  0  0  0  0
   -5.9500   -0.7456    0.0000 C   0  0  0  0  0  0  0  0  0  0  0  0
   -4.9392   -1.8539    0.0000 C   0  0  0  0  0  0  0  0  0  0  0  0
   -5.3936   -3.2834    0.0000 C   0  0  0  0  0  0  0  0  0  0  0  0
   -4.3828   -4.3917    0.0000 C   0  0  0  0  0  0  0  0  0  0  0  0
   -4.8373   -5.8212    0.0000 C   0  0  0  0  0  0  0  0  0  0  0  0
   -3.8265   -6.9295    0.0000 N   0  0  0  0  0  0  0  0  0  0  0  0
   -4.6830    0.0574    0.0000 C   0  0  0  0  0  0  0  0  0  0  0  0
   -4.4624    1.1284    0.0000 O   0  0  0  0  0  0  0  0  0  0  0  0
   -3.3541   -0.6384    0.0000 N   0  0  0  0  0  0  0  0  0  0  0  0
   -2.0872    0.1646    0.0000 C   0  0  0  0  0  0  0  0  0  0  0  0
   -1.1712    1.3525    0.0000 C   0  0  0  0  0  0  0  0  0  0  0  0
    0.3155    1.1532    0.0000 C   0  0  0  0  0  0  0  0  0  0  0  0
    0.8862   -0.2340    0.0000 C   0  0  0  0  0  0  0  0  0  0  0  0
   -0.0664   -0.9880    0.0000 F   0  0  0  0  0  0  0  0  0  0  0  0
    2.3730   -0.4332    0.0000 C   0  0  0  0  0  0  0  0  0  0  0  0
    3.2624   -1.6411    0.0000 F   0  0  0  0  0  0  0  0  0  0  0  0
    3.2889    0.7546    0.0000 C   0  0  0  0  0  0  0  0  0  0  0  0
    4.7756    0.5554    0.0000 F   0  0  0  0  0  0  0  0  0  0  0  0
    2.7181    2.1418    0.0000 C   0  0  0  0  0  0  0  0  0  0  0  0
    3.8943    3.0728    0.0000 F   0  0  0  0  0  0  0  0  0  0  0  0
    1.2314    2.3411    0.0000 C   0  0  0  0  0  0  0  0  0  0  0  0
    0.3419    3.5489    0.0000 F   0  0  0  0  0  0  0  0  0  0  0  0
   -0.7583   -0.5311    0.0000 C   0  0  0  0  0  0  0  0  0  0  0  0
   -1.0609   -2.0003    0.0000 O   0  0  0  0  0  0  0  0  0  0  0  0
    0.5087    0.2718    0.0000 N   0  0  0  0  0  0  0  0  0  0  0  0
    1.8376   -0.4239    0.0000 C   0  0  0  0  0  0  0  0  0  0  0  0
    2.1952   -1.8806    0.0000 C   0  0  0  0  0  0  0  0  0  0  0  0
    2.9664   -3.1672    0.0000 C   0  0  0  0  0  0  0  0  0  0  0  0
    4.0825   -4.1694    0.0000 C   0  0  0  0  0  0  0  0  0  0  0  0
    5.4444   -4.7980    0.0000 C   0  0  0  0  0  0  0  0  0  0  0  0
    0.6569   -1.3490    0.0000 C   0  0  0  0  0  0  0  0  0  0  0  0
    1.9252    1.0735    0.0000 C   0  0  0  0  0  0  0  0  0  0  0  0
    0.6661    1.8888    0.0000 O   0  0  0  0  0  0  0  0  0  0  0  0
    2.4503    2.4786    0.0000 N   0  0  0  0  0  0  0  0  0  0  0  0
    3.3663    3.6665    0.0000 C   0  0  0  0  0  0  0  0  0  0  0  0
    3.0817    5.1393    0.0000 C   0  0  0  0  0  0  0  0  0  0  0  0
    1.6639    5.6292    0.0000 C   0  0  0  0  0  0  0  0  0  0  0  0
    1.3793    7.1019    0.0000 C   0  0  0  0  0  0  0  0  0  0  0  0
   -0.0384    7.5918    0.0000 N   0  0  0  0  0  0  0  0  0  0  0  0
   -0.3230    9.0646    0.0000 C   0  0  0  0  0  0  0  0  0  0  0  0
   -1.7407    9.5545    0.0000 N   0  0  0  0  0  0  0  0  0  0  0  0
    0.8101   10.0474    0.0000 N   0  0  0  0  0  0  0  0  0  0  0  0
    4.5916    4.5316    0.0000 C   0  0  0  0  0  0  0  0  0  0  0  0
    3.9188    5.8723    0.0000 O   0  0  0  0  0  0  0  0  0  0  0  0
    6.0176    4.9971    0.0000 N   0  0  0  0  0  0  0  0  0  0  0  0
    7.5174    5.0217    0.0000 C   0  0  0  0  0  0  0  0  0  0  0  0
    8.4914    6.1624    0.0000 C   0  0  0  0  0  0  0  0  0  0  0  0
    7.9905    7.5763    0.0000 C   0  0  0  0  0  0  0  0  0  0  0  0
    8.9645    8.7171    0.0000 C   0  0  0  0  0  0  0  0  0  0  0  0
    7.0362    8.7336    0.0000 C   0  0  0  0  0  0  0  0  0  0  0  0
    8.9578    4.6030    0.0000 C   0  0  0  0  0  0  0  0  0  0  0  0
    9.5864    5.9650    0.0000 O   0  0  0  0  0  0  0  0  0  0  0  0
   10.2108    3.7784    0.0000 N   0  0  0  0  0  0  0  0  0  0  0  0
   11.1651    2.6211    0.0000 C   0  0  0  0  0  0  0  0  0  0  0  0
   12.6642    2.5709    0.0000 C   0  0  0  0  0  0  0  0  0  0  0  0
   13.4573    3.8441    0.0000 C   0  0  0  0  0  0  0  0  0  0  0  0
   14.9565    3.7938    0.0000 C   0  0  0  0  0  0  0  0  0  0  0  0
   15.7496    5.0670    0.0000 C   0  0  0  0  0  0  0  0  0  0  0  0
   15.0435    6.3904    0.0000 C   0  0  0  0  0  0  0  0  0  0  0  0
   13.5444    6.4407    0.0000 C   0  0  0  0  0  0  0  0  0  0  0  0
   12.7513    5.1675    0.0000 C   0  0  0  0  0  0  0  0  0  0  0  0
   11.7358    1.2340    0.0000 C   0  0  0  0  0  0  0  0  0  0  0  0
   13.1926    1.5916    0.0000 O   0  0  0  0  0  0  0  0  0  0  0  0
   11.8724   -0.2598    0.0000 N   0  0  0  0  0  0  0  0  0  0  0  0
   11.5625   -1.7275    0.0000 C   0  0  0  0  0  0  0  0  0  0  0  0
   10.8339   -3.0386    0.0000 C   0  0  0  0  0  0  0  0  0  0  0  0
    9.7511   -4.0767    0.0000 C   0  0  0  0  0  0  0  0  0  0  0  0
    8.4105   -4.7495    0.0000 C   0  0  0  0  0  0  0  0  0  0  0  0
    6.9311   -4.9973    0.0000 C   0  0  0  0  0  0  0  0  0  0  0  0
   13.0277   -1.4062    0.0000 C   0  0  0  0  0  0  0  0  0  0  0  0
   12.4580   -2.9309    0.0000 C   0  0  0  0  0  0  0  0  0  0  0  0
   12.2144   -4.4110    0.0000 O   0  0  0  0  0  0  0  0  0  0  0  0
   13.9479   -2.7571    0.0000 N   0  0  0  0  0  0  0  0  0  0  0  0
   14.8433   -3.9606    0.0000 C   0  0  0  0  0  0  0  0  0  0  0  0
   15.2731   -5.3977    0.0000 C   0  0  0  0  0  0  0  0  0  0  0  0
   14.2434   -6.4885    0.0000 O   0  0  0  0  0  0  0  0  0  0  0  0
   16.3332   -3.7868    0.0000 C   0  0  0  0  0  0  0  0  0  0  0  0
   16.9277   -2.4097    0.0000 O   0  0  0  0  0  0  0  0  0  0  0  0
   17.2286   -4.9903    0.0000 N   0  0  0  0  0  0  0  0  0  0  0  0
   18.7185   -4.8165    0.0000 C   0  0  0  0  0  0  0  0  0  0  0  0
   20.0591   -4.1437    0.0000 C   0  0  0  0  0  0  0  0  0  0  0  0
   21.3121   -4.9683    0.0000 C   0  0  0  0  0  0  0  0  0  0  0  0
   21.2245   -6.4657    0.0000 C   0  0  0  0  0  0  0  0  0  0  0  0
   22.4775   -7.2903    0.0000 C   0  0  0  0  0  0  0  0  0  0  0  0
   23.8182   -6.6175    0.0000 C   0  0  0  0  0  0  0  0  0  0  0  0
   25.0712   -7.4421    0.0000 O   0  0  0  0  0  0  0  0  0  0  0  0
   23.9058   -5.1200    0.0000 C   0  0  0  0  0  0  0  0  0  0  0  0
   22.6528   -4.2954    0.0000 C   0  0  0  0  0  0  0  0  0  0  0  0
   19.6139   -6.0199    0.0000 C   0  0  0  0  0  0  0  0  0  0  0  0
   21.1016   -6.2119    0.0000 O   0  0  0  0  0  0  0  0  0  0  0  0
   18.8560   -7.3144    0.0000 O   0  0  0  0  0  0  0  0  0  0  0  0
  -18.6852   -2.7618    0.0000 H   0  0  0  0  0  0  0  0  0  0  0  0
  -19.0531    1.7157    0.0000 H   0  0  0  0  0  0  0  0  0  0  0  0
  -21.7109    3.1072    0.0000 H   0  0  0  0  0  0  0  0  0  0  0  0
  -21.1024   -2.8282    0.0000 H   0  0  0  0  0  0  0  0  0  0  0  0
  -27.9750   -4.8486    0.0000 H   0  0  0  0  0  0  0  0  0  0  0  0
  -29.2642    0.1851    0.0000 H   0  0  0  0  0  0  0  0  0  0  0  0
  -26.3580    0.9294    0.0000 H   0  0  0  0  0  0  0  0  0  0  0  0
  -31.1215   -1.6316    0.0000 H   0  0  0  0  0  0  0  0  0  0  0  0
  -21.3541   -0.4710    0.0000 H   0  0  0  0  0  0  0  0  0  0  0  0
  -19.2219   -2.7955    0.0000 H   0  0  0  0  0  0  0  0  0  0  0  0
  -22.9711   -6.2490    0.0000 H   0  0  0  0  0  0  0  0  0  0  0  0
  -20.4691   -6.9491    0.0000 H   0  0  0  0  0  0  0  0  0  0  0  0
  -16.2715   -2.6733    0.0000 H   0  0  0  0  0  0  0  0  0  0  0  0
  -14.1505    0.8163    0.0000 H   0  0  0  0  0  0  0  0  0  0  0  0
  -16.0773    0.7367    0.0000 H   0  0  0  0  0  0  0  0  0  0  0  0
  -12.7268   -2.1756    0.0000 H   0  0  0  0  0  0  0  0  0  0  0  0
  -14.6535   -2.2552    0.0000 H   0  0  0  0  0  0  0  0  0  0  0  0
  -11.0798   -2.4588    0.0000 H   0  0  0  0  0  0  0  0  0  0  0  0
  -10.8855    0.9512    0.0000 H   0  0  0  0  0  0  0  0  0  0  0  0
   -8.6820    2.5050    0.0000 H   0  0  0  0  0  0  0  0  0  0  0  0
  -10.2877    1.7265    0.0000 H   0  0  0  0  0  0  0  0  0  0  0  0
   -6.1432    0.1358    0.0000 H   0  0  0  0  0  0  0  0  0  0  0  0
   -7.2021   -0.6440    0.0000 H   0  0  0  0  0  0  0  0  0  0  0  0
   -6.1018    3.4489    0.0000 H   0  0  0  0  0  0  0  0  0  0  0  0
   -7.7903    2.8719    0.0000 H   0  0  0  0  0  0  0  0  0  0  0  0
   -4.1800    0.6123    0.0000 H   0  0  0  0  0  0  0  0  0  0  0  0
   -1.7509    3.9966    0.0000 H   0  0  0  0  0  0  0  0  0  0  0  0
   -2.2478    1.3567    0.0000 H   0  0  0  0  0  0  0  0  0  0  0  0
   -3.8084    5.5830    0.0000 H   0  0  0  0  0  0  0  0  0  0  0  0
   -6.2110    4.5944    0.0000 H   0  0  0  0  0  0  0  0  0  0  0  0
   -6.9763    1.4193    0.0000 H   0  0  0  0  0  0  0  0  0  0  0  0
   -7.0039   -1.8130    0.0000 H   0  0  0  0  0  0  0  0  0  0  0  0
   -3.6103   -2.5496    0.0000 H   0  0  0  0  0  0  0  0  0  0  0  0
   -3.7631   -0.9229    0.0000 H   0  0  0  0  0  0  0  0  0  0  0  0
   -6.4475   -4.3508    0.0000 H   0  0  0  0  0  0  0  0  0  0  0  0
   -6.7974   -2.7548    0.0000 H   0  0  0  0  0  0  0  0  0  0  0  0
   -2.9791   -4.9203    0.0000 H   0  0  0  0  0  0  0  0  0  0  0  0
   -3.3289   -3.3243    0.0000 H   0  0  0  0  0  0  0  0  0  0  0  0
   -5.7532   -7.0091    0.0000 H   0  0  0  0  0  0  0  0  0  0  0  0
   -6.2410   -5.2926    0.0000 H   0  0  0  0  0  0  0  0  0  0  0  0
   -4.2809   -8.3590    0.0000 H   0  0  0  0  0  0  0  0  0  0  0  0
   -2.4976   -7.6253    0.0000 H   0  0  0  0  0  0  0  0  0  0  0  0
   -2.7726   -5.8621    0.0000 H   0  0  0  0  0  0  0  0  0  0  0  0
   -3.1100   -2.1184    0.0000 H   0  0  0  0  0  0  0  0  0  0  0  0
   -3.0979    1.2729    0.0000 H   0  0  0  0  0  0  0  0  0  0  0  0
   -0.7168    2.7820    0.0000 H   0  0  0  0  0  0  0  0  0  0  0  0
   -2.6290    1.7060    0.0000 H   0  0  0  0  0  0  0  0  0  0  0  0
    0.6299    1.7669    0.0000 H   0  0  0  0  0  0  0  0  0  0  0  0
    0.6981   -1.9725    0.0000 H   0  0  0  0  0  0  0  0  0  0  0  0
    1.3397   -3.1127    0.0000 H   0  0  0  0  0  0  0  0  0  0  0  0
    1.5628   -3.6963    0.0000 H   0  0  0  0  0  0  0  0  0  0  0  0
    2.3411   -4.5307    0.0000 H   0  0  0  0  0  0  0  0  0  0  0  0
    2.7940   -4.9374    0.0000 H   0  0  0  0  0  0  0  0  0  0  0  0
    4.0696   -5.6693    0.0000 H   0  0  0  0  0  0  0  0  0  0  0  0
    5.0258   -6.2384    0.0000 H   0  0  0  0  0  0  0  0  0  0  0  0
    0.5021   -2.8410    0.0000 H   0  0  0  0  0  0  0  0  0  0  0  0
   -0.6141   -2.1458    0.0000 H   0  0  0  0  0  0  0  0  0  0  0  0
   -0.3484   -0.2358    0.0000 H   0  0  0  0  0  0  0  0  0  0  0  0
    1.2378    3.3617    0.0000 H   0  0  0  0  0  0  0  0  0  0  0  0
    1.8754    3.8323    0.0000 H   0  0  0  0  0  0  0  0  0  0  0  0
    3.4967    6.5807    0.0000 H   0  0  0  0  0  0  0  0  0  0  0  0
    4.5310    5.5260    0.0000 H   0  0  0  0  0  0  0  0  0  0  0  0
    0.1641    5.6046    0.0000 H   0  0  0  0  0  0  0  0  0  0  0  0
    1.0762    4.2491    0.0000 H   0  0  0  0  0  0  0  0  0  0  0  0
    1.6156    8.5832    0.0000 H   0  0  0  0  0  0  0  0  0  0  0  0
    2.8650    7.3091    0.0000 H   0  0  0  0  0  0  0  0  0  0  0  0
   -1.1716    6.6090    0.0000 H   0  0  0  0  0  0  0  0  0  0  0  0
   -2.0253   11.0273    0.0000 H   0  0  0  0  0  0  0  0  0  0  0  0
   -2.8739    8.5717    0.0000 H   0  0  0  0  0  0  0  0  0  0  0  0
    0.5256   11.5202    0.0000 H   0  0  0  0  0  0  0  0  0  0  0  0
    2.2279    9.5575    0.0000 H   0  0  0  0  0  0  0  0  0  0  0  0
    5.7698    6.4765    0.0000 H   0  0  0  0  0  0  0  0  0  0  0  0
    6.7175    6.2906    0.0000 H   0  0  0  0  0  0  0  0  0  0  0  0
    9.8771    6.7366    0.0000 H   0  0  0  0  0  0  0  0  0  0  0  0
    9.6973    5.2704    0.0000 H   0  0  0  0  0  0  0  0  0  0  0  0
    6.6047    7.0021    0.0000 H   0  0  0  0  0  0  0  0  0  0  0  0
    8.6396   10.1815    0.0000 H   0  0  0  0  0  0  0  0  0  0  0  0
   10.2699    9.4559    0.0000 H   0  0  0  0  0  0  0  0  0  0  0  0
   10.0527    7.6847    0.0000 H   0  0  0  0  0  0  0  0  0  0  0  0
    7.3861   10.1922    0.0000 H   0  0  0  0  0  0  0  0  0  0  0  0
    5.7436    9.4947    0.0000 H   0  0  0  0  0  0  0  0  0  0  0  0
    6.0622    7.5929    0.0000 H   0  0  0  0  0  0  0  0  0  0  0  0
   11.0694    5.0084    0.0000 H   0  0  0  0  0  0  0  0  0  0  0  0
   11.8275    3.9670    0.0000 H   0  0  0  0  0  0  0  0  0  0  0  0
   14.0558    2.0109    0.0000 H   0  0  0  0  0  0  0  0  0  0  0  0
   12.7187    1.0719    0.0000 H   0  0  0  0  0  0  0  0  0  0  0  0
   15.6625    2.4704    0.0000 H   0  0  0  0  0  0  0  0  0  0  0  0
   17.2487    5.0167    0.0000 H   0  0  0  0  0  0  0  0  0  0  0  0
   15.8366    7.6636    0.0000 H   0  0  0  0  0  0  0  0  0  0  0  0
   12.8383    7.7641    0.0000 H   0  0  0  0  0  0  0  0  0  0  0  0
   11.2694    5.4001    0.0000 H   0  0  0  0  0  0  0  0  0  0  0  0
   13.3698   -0.3474    0.0000 H   0  0  0  0  0  0  0  0  0  0  0  0
   11.3348   -4.4525    0.0000 H   0  0  0  0  0  0  0  0  0  0  0  0
   12.2540   -3.5215    0.0000 H   0  0  0  0  0  0  0  0  0  0  0  0
    9.9953   -5.5567    0.0000 H   0  0  0  0  0  0  0  0  0  0  0  0
   10.9658   -4.9567    0.0000 H   0  0  0  0  0  0  0  0  0  0  0  0
    8.0279   -6.1999    0.0000 H   0  0  0  0  0  0  0  0  0  0  0  0
    9.4513   -5.8297    0.0000 H   0  0  0  0  0  0  0  0  0  0  0  0
    6.9556   -6.4971    0.0000 H   0  0  0  0  0  0  0  0  0  0  0  0
   14.2767   -2.2370    0.0000 H   0  0  0  0  0  0  0  0  0  0  0  0
   14.1874   -0.4548    0.0000 H   0  0  0  0  0  0  0  0  0  0  0  0
   12.8096    0.0778    0.0000 H   0  0  0  0  0  0  0  0  0  0  0  0
   14.7058   -1.4627    0.0000 H   0  0  0  0  0  0  0  0  0  0  0  0
   13.5026   -4.6334    0.0000 H   0  0  0  0  0  0  0  0  0  0  0  0
   16.0151   -6.7013    0.0000 H   0  0  0  0  0  0  0  0  0  0  0  0
   16.7367   -5.0692    0.0000 H   0  0  0  0  0  0  0  0  0  0  0  0
   14.6733   -7.9256    0.0000 H   0  0  0  0  0  0  0  0  0  0  0  0
   16.8064   -6.4296    0.0000 H   0  0  0  0  0  0  0  0  0  0  0  0
   18.2887   -3.3794    0.0000 H   0  0  0  0  0  0  0  0  0  0  0  0
   21.0888   -3.0529    0.0000 H   0  0  0  0  0  0  0  0  0  0  0  0
   19.1637   -2.9403    0.0000 H   0  0  0  0  0  0  0  0  0  0  0  0
   19.9759   -7.2970    0.0000 H   0  0  0  0  0  0  0  0  0  0  0  0
   22.3899   -8.7878    0.0000 H   0  0  0  0  0  0  0  0  0  0  0  0
   26.4118   -6.7693    0.0000 H   0  0  0  0  0  0  0  0  0  0  0  0
   25.2464   -4.4472    0.0000 H   0  0  0  0  0  0  0  0  0  0  0  0
   22.7404   -2.7980    0.0000 H   0  0  0  0  0  0  0  0  0  0  0  0
  1  2  1  0
  2  3  1  0
  3  4  2  0
  4  5  1  0
  5  6  2  0
  6  7  1  0
  7  8  2  0
  7  9  1  0
  9 10  1  0
 10 11  1  0
 11 12  2  0
  9 13  1  0
 13 14  1  0
 14 15  2  0
 15 16  1  0
 16 17  2  0
 17 18  1  0
 16 19  1  0
 14 20  1  0
 20 21  1  0
 21 22  2  0
 22 23  1  0
 23 24  2  0
 24 25  1  0
 25 26  2  0
 25 27  1  0
  1 28  2  0
  1 29  1  0
 29 30  1  0
 30 31  1  0
 31 32  1  0
 32 33  2  0
 32 34  1  0
 34 35  1  0
 35 36  1  0
 36 37  1  0
 37 38  1  0
 38 39  1  0
 39 40  1  0
 40 41  2  3
 40 42  1  0
 35 43  1  0
 43 44  2  0
 43 45  1  0
 45 46  1  0
 46 47  1  0
 47 48  1  0
 48 49  1  0
 49 50  1  0
 50 51  1  0
 46 52  1  0
 52 53  2  0
 52 54  1  0
 54 55  1  0
 55 56  1  0
 56 57  1  0
 57 58  2  0
 58 59  1  0
 58 60  1  0
 60 61  1  0
 60 62  2  0
 62 63  1  0
 62 64  1  0
 64 65  1  0
 64 66  2  0
 66 67  1  0
 55 68  1  0
 68 69  2  0
 68 70  1  0
 71 70  1  6
 71 72  1  0
 72 73  1  0
 73 74  1  0
 74 75  1  0
 71 76  1  0
 71 77  1  0
 77 78  2  0
 77 79  1  0
 79 80  1  0
 80 81  1  0
 81 82  1  0
 82 83  1  0
 83 84  1  0
 84 85  1  0
 85 86  2  3
 85 87  1  0
 80 88  1  0
 88 89  2  0
 88 90  1  0
 90 91  1  0
 91 92  1  0
 92 93  1  0
 93 94  1  0
 93 95  1  0
 91 96  1  0
 96 97  2  0
 96 98  1  0
 98 99  1  0
 99100  1  0
100101  1  0
101102  2  0
102103  1  0
103104  2  0
104105  1  0
105106  2  0
 99107  1  0
107108  2  0
107109  1  0
109110  1  0
110111  1  0
111112  1  0
112113  1  0
113114  1  0
110115  1  0
110116  1  6
116117  2  0
116118  1  0
118119  1  0
119120  1  0
120121  1  0
119122  1  0
122123  2  0
122124  1  0
124125  1  0
125126  1  0
126127  1  0
127128  2  0
128129  1  0
129130  2  0
130131  1  0
130132  1  0
132133  2  0
125134  1  0
134135  2  0
134136  1  0
  8  3  1  0
 66 57  1  0
106101  1  0
133127  1  0
 11  6  1  0
 18 13  2  0
 75114  2  0
 22  9  1  0
 26 21  1  0
  2137  1  0
  4138  1  0
  5139  1  0
  8140  1  0
 15141  1  0
 17142  1  0
 18143  1  0
 19144  1  0
 23145  1  0
 24146  1  0
 26147  1  0
 27148  1  0
 29149  1  0
 30150  1  0
 30151  1  0
 31152  1  0
 31153  1  0
 34154  1  0
 35155  1  1
 36156  1  0
 36157  1  0
 37158  1  0
 37159  1  0
 38160  1  0
 38161  1  0
 39162  1  0
 41163  1  0
 41164  1  0
 42165  1  0
 42166  1  0
 45167  1  0
 46168  1  6
 47169  1  0
 47170  1  0
 48171  1  0
 48172  1  0
 49173  1  0
 49174  1  0
 50175  1  0
 50176  1  0
 51177  1  0
 51178  1  0
 51179  1  0
 54180  1  0
 55181  1  6
 56182  1  0
 56183  1  0
 70184  1  0
 72185  1  0
 72186  1  0
 73187  1  0
 73188  1  0
 74189  1  0
 74190  1  0
 75191  1  0
 76192  1  0
 76193  1  0
 76194  1  0
 79195  1  0
 80196  1  1
 81197  1  0
 81198  1  0
 82199  1  0
 82200  1  0
 83201  1  0
 83202  1  0
 84203  1  0
 86204  1  0
 86205  1  0
 87206  1  0
 87207  1  0
 90208  1  0
 91209  1  1
 92210  1  0
 92211  1  0
 93212  1  0
 94213  1  0
 94214  1  0
 94215  1  0
 95216  1  0
 95217  1  0
 95218  1  0
 98219  1  0
 99220  1  1
100221  1  0
100222  1  0
102223  1  0
103224  1  0
104225  1  0
105226  1  0
106227  1  0
109228  1  0
111229  1  0
111230  1  0
112231  1  0
112232  1  0
113233  1  0
113234  1  0
114235  1  0
115236  1  0
115237  1  0
115238  1  0
118239  1  0
119240  1  6
120241  1  0
120242  1  0
121243  1  0
124244  1  0
125245  1  1
126246  1  0
126247  1  0
128248  1  0
129249  1  0
131250  1  0
132251  1  0
133252  1  0
M  CHG  4  41   1  51   1  86   1 136  -1
M  END
