
     RDKit          2D

296302  0  0  0  0  0  0  0  0999 V2000
  -29.2489   -0.6126    0.0000 C   0  0  0  0  0  0  0  0  0  0  0  0
  -30.4787   -1.4715    0.0000 N   0  0  0  0  0  0  0  0  0  0  0  0
  -31.8373   -0.8358    0.0000 C   0  0  0  0  0  0  0  0  0  0  0  0
  -31.9662    0.6586    0.0000 C   0  0  0  0  0  0  0  0  0  0  0  0
  -33.3249    1.2942    0.0000 C   0  0  0  0  0  0  0  0  0  0  0  0
  -34.5547    0.4354    0.0000 C   0  0  0  0  0  0  0  0  0  0  0  0
  -34.4258   -1.0591    0.0000 C   0  0  0  0  0  0  0  0  0  0  0  0
  -33.0672   -1.6947    0.0000 C   0  0  0  0  0  0  0  0  0  0  0  0
  -35.8073   -1.6434    0.0000 C   0  0  0  0  0  0  0  0  0  0  0  0
  -36.7900   -0.5101    0.0000 O   0  0  0  0  0  0  0  0  0  0  0  0
  -36.0158    0.7747    0.0000 C   0  0  0  0  0  0  0  0  0  0  0  0
  -36.6002    2.1561    0.0000 O   0  0  0  0  0  0  0  0  0  0  0  0
  -37.2423   -2.0802    0.0000 C   0  0  0  0  0  0  0  0  0  0  0  0
  -37.5816   -3.5413    0.0000 C   0  0  0  0  0  0  0  0  0  0  0  0
  -39.0166   -3.9781    0.0000 C   0  0  0  0  0  0  0  0  0  0  0  0
  -40.1123   -2.9537    0.0000 C   0  0  0  0  0  0  0  0  0  0  0  0
  -39.7731   -1.4926    0.0000 C   0  0  0  0  0  0  0  0  0  0  0  0
  -38.3381   -1.0558    0.0000 C   0  0  0  0  0  0  0  0  0  0  0  0
  -41.5473   -3.3905    0.0000 O   0  0  0  0  0  0  0  0  0  0  0  0
  -36.4858   -4.5657    0.0000 O   0  0  0  0  0  0  0  0  0  0  0  0
  -35.0508   -4.1289    0.0000 C   0  0  0  0  0  0  0  0  0  0  0  0
  -34.7116   -2.6678    0.0000 C   0  0  0  0  0  0  0  0  0  0  0  0
  -33.4349   -2.9129    0.0000 C   0  0  0  0  0  0  0  0  0  0  0  0
  -32.8505   -3.4592    0.0000 C   0  0  0  0  0  0  0  0  0  0  0  0
  -33.0314   -4.2385    0.0000 C   0  0  0  0  0  0  0  0  0  0  0  0
  -33.7967   -4.4714    0.0000 C   0  0  0  0  0  0  0  0  0  0  0  0
  -31.4243   -5.7409    0.0000 O   0  0  0  0  0  0  0  0  0  0  0  0
  -29.3777    0.8818    0.0000 S   0  0  0  0  0  0  0  0  0  0  0  0
  -27.8902   -1.2483    0.0000 N   0  0  0  0  0  0  0  0  0  0  0  0
  -26.6604   -0.3894    0.0000 C   0  0  0  0  0  0  0  0  0  0  0  0
  -25.3017   -1.0251    0.0000 C   0  0  0  0  0  0  0  0  0  0  0  0
  -24.0719   -0.1662    0.0000 C   0  0  0  0  0  0  0  0  0  0  0  0
  -24.2008    1.3282    0.0000 O   0  0  0  0  0  0  0  0  0  0  0  0
  -22.7133   -0.8019    0.0000 N   0  0  0  0  0  0  0  0  0  0  0  0
  -21.4835    0.0570    0.0000 C   0  0  0  0  0  0  0  0  0  0  0  0
  -20.6216    1.2846    0.0000 C   0  0  0  0  0  0  0  0  0  0  0  0
  -20.2315    2.7330    0.0000 O   0  0  0  0  0  0  0  0  0  0  0  0
  -19.1224    1.3351    0.0000 C   0  0  0  0  0  0  0  0  0  0  0  0
  -20.1248   -0.5787    0.0000 C   0  0  0  0  0  0  0  0  0  0  0  0
  -20.1791   -2.0777    0.0000 O   0  0  0  0  0  0  0  0  0  0  0  0
  -18.8950    0.2802    0.0000 N   0  0  0  0  0  0  0  0  0  0  0  0
  -17.5363   -0.3555    0.0000 C   0  0  0  0  0  0  0  0  0  0  0  0
  -16.4770   -1.4174    0.0000 C   0  0  0  0  0  0  0  0  0  0  0  0
  -16.8670   -2.8658    0.0000 C   0  0  0  0  0  0  0  0  0  0  0  0
  -18.3164   -3.2523    0.0000 C   0  0  0  0  0  0  0  0  0  0  0  0
  -18.7064   -4.7007    0.0000 C   0  0  0  0  0  0  0  0  0  0  0  0
  -17.6471   -5.7626    0.0000 C   0  0  0  0  0  0  0  0  0  0  0  0
  -18.0371   -7.2110    0.0000 O   0  0  0  0  0  0  0  0  0  0  0  0
  -16.1977   -5.3762    0.0000 C   0  0  0  0  0  0  0  0  0  0  0  0
  -15.8077   -3.9278    0.0000 C   0  0  0  0  0  0  0  0  0  0  0  0
  -16.3065    0.5034    0.0000 C   0  0  0  0  0  0  0  0  0  0  0  0
  -16.4354    1.9978    0.0000 O   0  0  0  0  0  0  0  0  0  0  0  0
  -14.9479   -0.1322    0.0000 N   0  0  0  0  0  0  0  0  0  0  0  0
  -13.7181    0.7266    0.0000 C   0  0  0  0  0  0  0  0  0  0  0  0
  -12.8562    1.9542    0.0000 C   0  0  0  0  0  0  0  0  0  0  0  0
  -11.3620    1.8216    0.0000 C   0  0  0  0  0  0  0  0  0  0  0  0
  -10.5001    3.0493    0.0000 C   0  0  0  0  0  0  0  0  0  0  0  0
   -9.0060    2.9167    0.0000 N   0  0  0  0  0  0  0  0  0  0  0  0
   -8.1441    4.1443    0.0000 C   0  0  0  0  0  0  0  0  0  0  0  0
   -6.6773    3.8306    0.0000 N   0  0  0  0  0  0  0  0  0  0  0  0
   -8.7763    5.5046    0.0000 N   0  0  0  0  0  0  0  0  0  0  0  0
  -12.3594    0.0910    0.0000 C   0  0  0  0  0  0  0  0  0  0  0  0
  -12.2305   -1.4035    0.0000 O   0  0  0  0  0  0  0  0  0  0  0  0
  -11.1296    0.9498    0.0000 N   0  0  0  0  0  0  0  0  0  0  0  0
   -9.7709    0.3142    0.0000 C   0  0  0  0  0  0  0  0  0  0  0  0
   -8.5411    1.1730    0.0000 C   0  0  0  0  0  0  0  0  0  0  0  0
   -8.3686    2.2528    0.0000 O   0  0  0  0  0  0  0  0  0  0  0  0
   -7.1824    0.5374    0.0000 N   0  0  0  0  0  0  0  0  0  0  0  0
   -5.9526    1.3962    0.0000 C   0  0  0  0  0  0  0  0  0  0  0  0
   -5.0907    2.6238    0.0000 C   0  0  0  0  0  0  0  0  0  0  0  0
   -4.5940    0.7606    0.0000 C   0  0  0  0  0  0  0  0  0  0  0  0
   -4.4651   -0.7339    0.0000 O   0  0  0  0  0  0  0  0  0  0  0  0
   -3.3642    1.6194    0.0000 N   0  0  0  0  0  0  0  0  0  0  0  0
   -2.0055    0.9838    0.0000 C   0  0  0  0  0  0  0  0  0  0  0  0
   -0.9462   -0.0782    0.0000 C   0  0  0  0  0  0  0  0  0  0  0  0
   -0.7757    1.8426    0.0000 C   0  0  0  0  0  0  0  0  0  0  0  0
   -0.9046    3.3371    0.0000 O   0  0  0  0  0  0  0  0  0  0  0  0
    0.5830    1.2070    0.0000 N   0  0  0  0  0  0  0  0  0  0  0  0
    1.8128    2.0658    0.0000 C   0  0  0  0  0  0  0  0  0  0  0  0
    2.6747    3.2935    0.0000 C   0  0  0  0  0  0  0  0  0  0  0  0
    4.1688    3.1609    0.0000 C   0  0  0  0  0  0  0  0  0  0  0  0
    5.0307    4.3885    0.0000 C   0  0  0  0  0  0  0  0  0  0  0  0
    6.5125    4.6214    0.0000 N   0  0  0  0  0  0  0  0  0  0  0  0
    4.2374    5.6616    0.0000 O   0  0  0  0  0  0  0  0  0  0  0  0
    3.1714    1.4302    0.0000 C   0  0  0  0  0  0  0  0  0  0  0  0
    3.1172   -0.0688    0.0000 O   0  0  0  0  0  0  0  0  0  0  0  0
    4.4012    2.2890    0.0000 N   0  0  0  0  0  0  0  0  0  0  0  0
    5.7599    1.6534    0.0000 C   0  0  0  0  0  0  0  0  0  0  0  0
    6.1823    0.2141    0.0000 C   0  0  0  0  0  0  0  0  0  0  0  0
    7.0102   -1.0367    0.0000 C   0  0  0  0  0  0  0  0  0  0  0  0
    8.1701   -1.9880    0.0000 C   0  0  0  0  0  0  0  0  0  0  0  0
    9.5587   -2.5551    0.0000 C   0  0  0  0  0  0  0  0  0  0  0  0
    4.5111    0.8224    0.0000 C   0  0  0  0  0  0  0  0  0  0  0  0
    5.7805    3.1532    0.0000 C   0  0  0  0  0  0  0  0  0  0  0  0
    5.0927    3.5562    0.0000 O   0  0  0  0  0  0  0  0  0  0  0  0
    6.2422    4.5804    0.0000 N   0  0  0  0  0  0  0  0  0  0  0  0
    7.1041    5.8081    0.0000 C   0  0  0  0  0  0  0  0  0  0  0  0
    6.7540    7.2666    0.0000 C   0  0  0  0  0  0  0  0  0  0  0  0
    8.2896    6.7271    0.0000 C   0  0  0  0  0  0  0  0  0  0  0  0
    7.5575    8.0363    0.0000 O   0  0  0  0  0  0  0  0  0  0  0  0
    9.6933    7.2559    0.0000 N   0  0  0  0  0  0  0  0  0  0  0  0
   11.1905    7.3475    0.0000 C   0  0  0  0  0  0  0  0  0  0  0  0
   12.1125    8.5307    0.0000 C   0  0  0  0  0  0  0  0  0  0  0  0
   12.6482    6.9937    0.0000 C   0  0  0  0  0  0  0  0  0  0  0  0
   13.2153    8.3824    0.0000 O   0  0  0  0  0  0  0  0  0  0  0  0
   13.9368    6.2259    0.0000 N   0  0  0  0  0  0  0  0  0  0  0  0
   14.9419    5.1125    0.0000 C   0  0  0  0  0  0  0  0  0  0  0  0
   16.4418    5.1293    0.0000 C   0  0  0  0  0  0  0  0  0  0  0  0
   17.1772    6.4367    0.0000 C   0  0  0  0  0  0  0  0  0  0  0  0
   18.6771    6.4535    0.0000 C   0  0  0  0  0  0  0  0  0  0  0  0
   19.4125    7.7609    0.0000 N   0  0  0  0  0  0  0  0  0  0  0  0
   19.4416    5.1630    0.0000 O   0  0  0  0  0  0  0  0  0  0  0  0
   15.5741    3.7522    0.0000 C   0  0  0  0  0  0  0  0  0  0  0  0
   17.0134    4.1747    0.0000 O   0  0  0  0  0  0  0  0  0  0  0  0
   15.7773    2.2661    0.0000 N   0  0  0  0  0  0  0  0  0  0  0  0
   15.5334    0.7860    0.0000 C   0  0  0  0  0  0  0  0  0  0  0  0
   14.8641   -0.5564    0.0000 C   0  0  0  0  0  0  0  0  0  0  0  0
   13.8289   -1.6419    0.0000 C   0  0  0  0  0  0  0  0  0  0  0  0
   12.5197   -2.3740    0.0000 C   0  0  0  0  0  0  0  0  0  0  0  0
   11.0528   -2.6877    0.0000 C   0  0  0  0  0  0  0  0  0  0  0  0
   16.9828    1.1724    0.0000 C   0  0  0  0  0  0  0  0  0  0  0  0
   16.4818   -0.3762    0.0000 C   0  0  0  0  0  0  0  0  0  0  0  0
   16.3046   -1.8657    0.0000 O   0  0  0  0  0  0  0  0  0  0  0  0
   17.9624   -0.1360    0.0000 N   0  0  0  0  0  0  0  0  0  0  0  0
   18.9107   -1.2982    0.0000 C   0  0  0  0  0  0  0  0  0  0  0  0
   19.4044   -2.7146    0.0000 C   0  0  0  0  0  0  0  0  0  0  0  0
   18.4245   -3.8503    0.0000 C   0  0  0  0  0  0  0  0  0  0  0  0
   20.3914   -1.0580    0.0000 C   0  0  0  0  0  0  0  0  0  0  0  0
   20.9237    0.3444    0.0000 O   0  0  0  0  0  0  0  0  0  0  0  0
   21.3397   -2.2202    0.0000 N   0  0  0  0  0  0  0  0  0  0  0  0
   22.8204   -1.9800    0.0000 C   0  0  0  0  0  0  0  0  0  0  0  0
   24.1296   -1.2479    0.0000 C   0  0  0  0  0  0  0  0  0  0  0  0
   25.4182   -2.0156    0.0000 C   0  0  0  0  0  0  0  0  0  0  0  0
   26.7274   -1.2835    0.0000 C   0  0  0  0  0  0  0  0  0  0  0  0
   28.0160   -2.0512    0.0000 N   0  0  0  0  0  0  0  0  0  0  0  0
   29.3252   -1.3191    0.0000 C   0  0  0  0  0  0  0  0  0  0  0  0
   30.5107   -2.2382    0.0000 N   0  0  0  0  0  0  0  0  0  0  0  0
   29.3458    0.1807    0.0000 N   0  0  0  0  0  0  0  0  0  0  0  0
   23.7687   -3.1422    0.0000 C   0  0  0  0  0  0  0  0  0  0  0  0
   23.2364   -4.5445    0.0000 O   0  0  0  0  0  0  0  0  0  0  0  0
   25.2493   -2.9020    0.0000 N   0  0  0  0  0  0  0  0  0  0  0  0
   26.1977   -4.0642    0.0000 C   0  0  0  0  0  0  0  0  0  0  0  0
   26.6913   -5.4806    0.0000 C   0  0  0  0  0  0  0  0  0  0  0  0
   25.7115   -6.6163    0.0000 C   0  0  0  0  0  0  0  0  0  0  0  0
   26.2051   -8.0328    0.0000 C   0  0  0  0  0  0  0  0  0  0  0  0
   25.2253   -9.1685    0.0000 O   0  0  0  0  0  0  0  0  0  0  0  0
   27.6786   -8.3135    0.0000 O   0  0  0  0  0  0  0  0  0  0  0  0
   27.6783   -3.8240    0.0000 C   0  0  0  0  0  0  0  0  0  0  0  0
   28.5341   -2.5921    0.0000 O   0  0  0  0  0  0  0  0  0  0  0  0
   28.6266   -4.9861    0.0000 N   0  0  0  0  0  0  0  0  0  0  0  0
   30.1073   -4.7460    0.0000 C   0  0  0  0  0  0  0  0  0  0  0  0
   31.4165   -4.0138    0.0000 C   0  0  0  0  0  0  0  0  0  0  0  0
   32.7051   -4.7816    0.0000 C   0  0  0  0  0  0  0  0  0  0  0  0
   31.0556   -5.9081    0.0000 C   0  0  0  0  0  0  0  0  0  0  0  0
   32.5545   -5.8502    0.0000 O   0  0  0  0  0  0  0  0  0  0  0  0
   30.5233   -7.3105    0.0000 O   0  0  0  0  0  0  0  0  0  0  0  0
  -30.1686   -2.9391    0.0000 H   0  0  0  0  0  0  0  0  0  0  0  0
  -30.7364    1.5174    0.0000 H   0  0  0  0  0  0  0  0  0  0  0  0
  -33.4538    2.7887    0.0000 H   0  0  0  0  0  0  0  0  0  0  0  0
  -32.5805   -3.1135    0.0000 H   0  0  0  0  0  0  0  0  0  0  0  0
  -39.3558   -5.4392    0.0000 H   0  0  0  0  0  0  0  0  0  0  0  0
  -40.8688   -0.4682    0.0000 H   0  0  0  0  0  0  0  0  0  0  0  0
  -37.9988    0.4053    0.0000 H   0  0  0  0  0  0  0  0  0  0  0  0
  -42.6431   -2.3661    0.0000 H   0  0  0  0  0  0  0  0  0  0  0  0
  -32.9373   -0.7699    0.0000 H   0  0  0  0  0  0  0  0  0  0  0  0
  -30.7033   -2.9968    0.0000 H   0  0  0  0  0  0  0  0  0  0  0  0
  -34.2943   -6.6144    0.0000 H   0  0  0  0  0  0  0  0  0  0  0  0
  -31.7636   -7.2020    0.0000 H   0  0  0  0  0  0  0  0  0  0  0  0
  -27.7613   -2.7427    0.0000 H   0  0  0  0  0  0  0  0  0  0  0  0
  -25.7985    0.8382    0.0000 H   0  0  0  0  0  0  0  0  0  0  0  0
  -27.7197    0.6725    0.0000 H   0  0  0  0  0  0  0  0  0  0  0  0
  -24.2424   -2.0870    0.0000 H   0  0  0  0  0  0  0  0  0  0  0  0
  -26.1636   -2.2527    0.0000 H   0  0  0  0  0  0  0  0  0  0  0  0
  -22.5844   -2.2963    0.0000 H   0  0  0  0  0  0  0  0  0  0  0  0
  -22.5428    1.1190    0.0000 H   0  0  0  0  0  0  0  0  0  0  0  0
  -21.9802    1.9202    0.0000 H   0  0  0  0  0  0  0  0  0  0  0  0
  -21.2909    3.7950    0.0000 H   0  0  0  0  0  0  0  0  0  0  0  0
  -18.2655    2.3797    0.0000 H   0  0  0  0  0  0  0  0  0  0  0  0
  -17.7688    0.5164    0.0000 H   0  0  0  0  0  0  0  0  0  0  0  0
  -18.7917   -0.3099    0.0000 H   0  0  0  0  0  0  0  0  0  0  0  0
  -18.8407    1.7792    0.0000 H   0  0  0  0  0  0  0  0  0  0  0  0
  -18.3982   -1.5831    0.0000 H   0  0  0  0  0  0  0  0  0  0  0  0
  -15.2059   -2.2139    0.0000 H   0  0  0  0  0  0  0  0  0  0  0  0
  -15.3436   -0.4348    0.0000 H   0  0  0  0  0  0  0  0  0  0  0  0
  -19.4973   -2.3273    0.0000 H   0  0  0  0  0  0  0  0  0  0  0  0
  -20.1558   -5.0871    0.0000 H   0  0  0  0  0  0  0  0  0  0  0  0
  -16.9778   -8.2730    0.0000 H   0  0  0  0  0  0  0  0  0  0  0  0
  -15.1384   -6.4382    0.0000 H   0  0  0  0  0  0  0  0  0  0  0  0
  -14.3583   -3.5414    0.0000 H   0  0  0  0  0  0  0  0  0  0  0  0
  -14.6378   -1.5999    0.0000 H   0  0  0  0  0  0  0  0  0  0  0  0
  -14.7774    1.7886    0.0000 H   0  0  0  0  0  0  0  0  0  0  0  0
  -12.6456    3.4394    0.0000 H   0  0  0  0  0  0  0  0  0  0  0  0
  -14.2148    2.5899    0.0000 H   0  0  0  0  0  0  0  0  0  0  0  0
  -10.0034    1.1860    0.0000 H   0  0  0  0  0  0  0  0  0  0  0  0
  -11.0263    0.3597    0.0000 H   0  0  0  0  0  0  0  0  0  0  0  0
  -10.1101    4.4977    0.0000 H   0  0  0  0  0  0  0  0  0  0  0  0
  -11.7712    3.8458    0.0000 H   0  0  0  0  0  0  0  0  0  0  0  0
   -8.0634    1.7498    0.0000 H   0  0  0  0  0  0  0  0  0  0  0  0
   -5.7881    5.2394    0.0000 H   0  0  0  0  0  0  0  0  0  0  0  0
   -7.9144    6.7322    0.0000 H   0  0  0  0  0  0  0  0  0  0  0  0
  -10.2705    5.6372    0.0000 H   0  0  0  0  0  0  0  0  0  0  0  0
  -10.8930    2.4310    0.0000 H   0  0  0  0  0  0  0  0  0  0  0  0
   -8.7116   -0.7478    0.0000 H   0  0  0  0  0  0  0  0  0  0  0  0
  -10.6328   -0.9135    0.0000 H   0  0  0  0  0  0  0  0  0  0  0  0
   -7.0536   -0.9571    0.0000 H   0  0  0  0  0  0  0  0  0  0  0  0
   -7.0120    2.4582    0.0000 H   0  0  0  0  0  0  0  0  0  0  0  0
   -3.6484    3.0356    0.0000 H   0  0  0  0  0  0  0  0  0  0  0  0
   -4.7007    4.0722    0.0000 H   0  0  0  0  0  0  0  0  0  0  0  0
   -6.5168    3.0891    0.0000 H   0  0  0  0  0  0  0  0  0  0  0  0
   -3.3099    3.1184    0.0000 H   0  0  0  0  0  0  0  0  0  0  0  0
   -2.8674   -0.2439    0.0000 H   0  0  0  0  0  0  0  0  0  0  0  0
   -1.3362   -1.5266    0.0000 H   0  0  0  0  0  0  0  0  0  0  0  0
    0.3249   -0.8747    0.0000 H   0  0  0  0  0  0  0  0  0  0  0  0
    0.1872    0.9044    0.0000 H   0  0  0  0  0  0  0  0  0  0  0  0
    0.8930   -0.2606    0.0000 H   0  0  0  0  0  0  0  0  0  0  0  0
    0.7534    3.1278    0.0000 H   0  0  0  0  0  0  0  0  0  0  0  0
    3.0647    4.7419    0.0000 H   0  0  0  0  0  0  0  0  0  0  0  0
    1.3160    3.9291    0.0000 H   0  0  0  0  0  0  0  0  0  0  0  0
    5.6409    2.8729    0.0000 H   0  0  0  0  0  0  0  0  0  0  0  0
    4.3238    1.6689    0.0000 H   0  0  0  0  0  0  0  0  0  0  0  0
    7.5694    5.2464    0.0000 H   0  0  0  0  0  0  0  0  0  0  0  0
    7.1571    2.8957    0.0000 H   0  0  0  0  0  0  0  0  0  0  0  0
    4.4555    3.7880    0.0000 H   0  0  0  0  0  0  0  0  0  0  0  0
    4.6825    0.2384    0.0000 H   0  0  0  0  0  0  0  0  0  0  0  0
    5.3827   -1.0550    0.0000 H   0  0  0  0  0  0  0  0  0  0  0  0
    5.6317   -1.6281    0.0000 H   0  0  0  0  0  0  0  0  0  0  0  0
    6.4466   -2.4268    0.0000 H   0  0  0  0  0  0  0  0  0  0  0  0
    6.9172   -2.8128    0.0000 H   0  0  0  0  0  0  0  0  0  0  0  0
    8.2243   -3.4870    0.0000 H   0  0  0  0  0  0  0  0  0  0  0  0
    9.2049   -4.0128    0.0000 H   0  0  0  0  0  0  0  0  0  0  0  0
    4.4952   -0.8435    0.0000 H   0  0  0  0  0  0  0  0  0  0  0  0
    3.3099   -0.0050    0.0000 H   0  0  0  0  0  0  0  0  0  0  0  0
    3.4904    1.6565    0.0000 H   0  0  0  0  0  0  0  0  0  0  0  0
    4.9914    5.4083    0.0000 H   0  0  0  0  0  0  0  0  0  0  0  0
    5.6306    6.0888    0.0000 H   0  0  0  0  0  0  0  0  0  0  0  0
    5.3157    7.6926    0.0000 H   0  0  0  0  0  0  0  0  0  0  0  0
    6.9238    8.7570    0.0000 H   0  0  0  0  0  0  0  0  0  0  0  0
    8.1845    7.7177    0.0000 H   0  0  0  0  0  0  0  0  0  0  0  0
    9.3796    8.7228    0.0000 H   0  0  0  0  0  0  0  0  0  0  0  0
   10.4912    8.6745    0.0000 H   0  0  0  0  0  0  0  0  0  0  0  0
   11.5489    9.9207    0.0000 H   0  0  0  0  0  0  0  0  0  0  0  0
   13.3836    9.3271    0.0000 H   0  0  0  0  0  0  0  0  0  0  0  0
   13.3572    7.6935    0.0000 H   0  0  0  0  0  0  0  0  0  0  0  0
   14.8880    7.3858    0.0000 H   0  0  0  0  0  0  0  0  0  0  0  0
   15.3715    6.5496    0.0000 H   0  0  0  0  0  0  0  0  0  0  0  0
   17.8570    4.6321    0.0000 H   0  0  0  0  0  0  0  0  0  0  0  0
   16.5633    3.6342    0.0000 H   0  0  0  0  0  0  0  0  0  0  0  0
   17.4211    7.9167    0.0000 H   0  0  0  0  0  0  0  0  0  0  0  0
   15.8331    7.1027    0.0000 H   0  0  0  0  0  0  0  0  0  0  0  0
   20.9124    7.7777    0.0000 H   0  0  0  0  0  0  0  0  0  0  0  0
   18.6479    9.0514    0.0000 H   0  0  0  0  0  0  0  0  0  0  0  0
   17.2772    2.2455    0.0000 H   0  0  0  0  0  0  0  0  0  0  0  0
   15.4278   -1.9465    0.0000 H   0  0  0  0  0  0  0  0  0  0  0  0
   16.3044   -0.9753    0.0000 H   0  0  0  0  0  0  0  0  0  0  0  0
   14.1390   -3.1095    0.0000 H   0  0  0  0  0  0  0  0  0  0  0  0
   15.0817   -2.4667    0.0000 H   0  0  0  0  0  0  0  0  0  0  0  0
   12.2023   -3.8400    0.0000 H   0  0  0  0  0  0  0  0  0  0  0  0
   13.6077   -3.4065    0.0000 H   0  0  0  0  0  0  0  0  0  0  0  0
   11.1444   -4.1849    0.0000 H   0  0  0  0  0  0  0  0  0  0  0  0
   18.2676    0.3983    0.0000 H   0  0  0  0  0  0  0  0  0  0  0  0
   18.0987    2.1748    0.0000 H   0  0  0  0  0  0  0  0  0  0  0  0
   16.6985    2.6452    0.0000 H   0  0  0  0  0  0  0  0  0  0  0  0
   18.6617    1.1910    0.0000 H   0  0  0  0  0  0  0  0  0  0  0  0
   17.5220   -1.8652    0.0000 H   0  0  0  0  0  0  0  0  0  0  0  0
   20.2040   -3.9837    0.0000 H   0  0  0  0  0  0  0  0  0  0  0  0
   20.8518   -2.3210    0.0000 H   0  0  0  0  0  0  0  0  0  0  0  0
   18.9182   -5.2668    0.0000 H   0  0  0  0  0  0  0  0  0  0  0  0
   17.1153   -4.5825    0.0000 H   0  0  0  0  0  0  0  0  0  0  0  0
   17.3416   -2.8124    0.0000 H   0  0  0  0  0  0  0  0  0  0  0  0
   20.9823   -3.6770    0.0000 H   0  0  0  0  0  0  0  0  0  0  0  0
   22.3267   -0.5635    0.0000 H   0  0  0  0  0  0  0  0  0  0  0  0
   24.9637   -0.0012    0.0000 H   0  0  0  0  0  0  0  0  0  0  0  0
   23.1812   -0.0857    0.0000 H   0  0  0  0  0  0  0  0  0  0  0  0
   26.3665   -3.1778    0.0000 H   0  0  0  0  0  0  0  0  0  0  0  0
   25.0864   -3.4785    0.0000 H   0  0  0  0  0  0  0  0  0  0  0  0
   27.7072   -0.1478    0.0000 H   0  0  0  0  0  0  0  0  0  0  0  0
   25.9278   -0.0144    0.0000 H   0  0  0  0  0  0  0  0  0  0  0  0
   28.3590   -3.5115    0.0000 H   0  0  0  0  0  0  0  0  0  0  0  0
   31.9230   -1.3548    0.0000 H   0  0  0  0  0  0  0  0  0  0  0  0
   30.6550    0.9128    0.0000 H   0  0  0  0  0  0  0  0  0  0  0  0
   28.0572    0.9485    0.0000 H   0  0  0  0  0  0  0  0  0  0  0  0
   26.1052   -1.6701    0.0000 H   0  0  0  0  0  0  0  0  0  0  0  0
   24.8090   -4.6312    0.0000 H   0  0  0  0  0  0  0  0  0  0  0  0
   27.4909   -6.7497    0.0000 H   0  0  0  0  0  0  0  0  0  0  0  0
   28.1388   -5.0870    0.0000 H   0  0  0  0  0  0  0  0  0  0  0  0
   24.4023   -7.3484    0.0000 H   0  0  0  0  0  0  0  0  0  0  0  0
   24.6285   -5.5784    0.0000 H   0  0  0  0  0  0  0  0  0  0  0  0
   28.1723   -9.7299    0.0000 H   0  0  0  0  0  0  0  0  0  0  0  0
   28.2692   -6.4429    0.0000 H   0  0  0  0  0  0  0  0  0  0  0  0
   29.6136   -3.3295    0.0000 H   0  0  0  0  0  0  0  0  0  0  0  0
   32.3963   -2.8781    0.0000 H   0  0  0  0  0  0  0  0  0  0  0  0
   30.3336   -2.9759    0.0000 H   0  0  0  0  0  0  0  0  0  0  0  0
   34.0143   -4.0495    0.0000 H   0  0  0  0  0  0  0  0  0  0  0  0
   33.6534   -5.9438    0.0000 H   0  0  0  0  0  0  0  0  0  0  0  0
   32.1975   -6.1931    0.0000 H   0  0  0  0  0  0  0  0  0  0  0  0
   31.4716   -8.4727    0.0000 H   0  0  0  0  0  0  0  0  0  0  0  0
  1  2  1  0
  2  3  1  0
  3  4  2  0
  4  5  1  0
  5  6  2  0
  6  7  1  0
  7  8  2  0
  7  9  1  0
  9 10  1  0
 10 11  1  0
 11 12  2  0
  9 13  1  0
 13 14  1  0
 14 15  2  0
 15 16  1  0
 16 17  2  0
 17 18  1  0
 16 19  1  0
 14 20  1  0
 20 21  1  0
 21 22  2  0
 22 23  1  0
 23 24  2  0
 24 25  1  0
 25 26  2  0
 25 27  1  0
  1 28  2  0
  1 29  1  0
 29 30  1  0
 30 31  1  0
 31 32  1  0
 32 33  2  0
 32 34  1  0
 34 35  1  0
 35 36  1  0
 36 37  1  0
 36 38  1  0
 35 39  1  0
 39 40  2  0
 39 41  1  0
 41 42  1  0
 42 43  1  0
 43 44  1  0
 44 45  2  0
 45 46  1  0
 46 47  2  0
 47 48  1  0
 47 49  1  0
 49 50  2  0
 42 51  1  0
 51 52  2  0
 51 53  1  0
 53 54  1  0
 54 55  1  0
 55 56  1  0
 56 57  1  0
 57 58  1  0
 58 59  1  0
 59 60  2  3
 59 61  1  0
 54 62  1  0
 62 63  2  0
 62 64  1  0
 64 65  1  0
 65 66  1  0
 66 67  2  0
 66 68  1  0
 68 69  1  0
 69 70  1  0
 69 71  1  0
 71 72  2  0
 71 73  1  0
 73 74  1  0
 74 75  1  0
 74 76  1  0
 76 77  2  0
 76 78  1  0
 78 79  1  0
 79 80  1  0
 80 81  1  0
 81 82  1  0
 82 83  1  0
 82 84  2  0
 79 85  1  0
 85 86  2  0
 85 87  1  0
 88 87  1  6
 88 89  1  0
 89 90  1  0
 90 91  1  0
 91 92  1  0
 88 93  1  0
 88 94  1  0
 94 95  2  0
 94 96  1  0
 96 97  1  0
 97 98  1  0
 97 99  1  0
 99100  2  0
 99101  1  0
101102  1  0
102103  1  0
102104  1  0
104105  2  0
104106  1  0
106107  1  0
107108  1  0
108109  1  0
109110  1  0
110111  1  0
110112  2  0
107113  1  0
113114  2  0
113115  1  0
115116  1  0
116117  1  0
117118  1  0
118119  1  0
119120  1  0
116121  1  0
116122  1  6
122123  2  0
122124  1  0
124125  1  0
125126  1  0
126127  1  0
125128  1  0
128129  2  0
128130  1  0
130131  1  0
131132  1  0
132133  1  0
133134  1  0
134135  1  0
135136  1  0
136137  2  3
136138  1  0
131139  1  0
139140  2  0
139141  1  0
141142  1  0
142143  1  0
143144  1  0
144145  1  0
145146  2  0
145147  1  0
142148  1  0
148149  2  0
148150  1  0
150151  1  0
151152  1  0
152153  1  0
151154  1  0
154155  2  0
154156  1  0
  8  3  1  0
 50 44  1  0
 11  6  1  0
 92120  2  0
 18 13  2  0
 22  9  1  0
 26 21  1  0
  2157  1  0
  4158  1  0
  5159  1  0
  8160  1  0
 15161  1  0
 17162  1  0
 18163  1  0
 19164  1  0
 23165  1  0
 24166  1  0
 26167  1  0
 27168  1  0
 29169  1  0
 30170  1  0
 30171  1  0
 31172  1  0
 31173  1  0
 34174  1  0
 35175  1  1
 36176  1  1
 37177  1  0
 38178  1  0
 38179  1  0
 38180  1  0
 41181  1  0
 42182  1  6
 43183  1  0
 43184  1  0
 45185  1  0
 46186  1  0
 48187  1  0
 49188  1  0
 50189  1  0
 53190  1  0
 54191  1  1
 55192  1  0
 55193  1  0
 56194  1  0
 56195  1  0
 57196  1  0
 57197  1  0
 58198  1  0
 60199  1  0
 61200  1  0
 61201  1  0
 64202  1  0
 65203  1  0
 65204  1  0
 68205  1  0
 69206  1  1
 70207  1  0
 70208  1  0
 70209  1  0
 73210  1  0
 74211  1  6
 75212  1  0
 75213  1  0
 75214  1  0
 78215  1  0
 79216  1  1
 80217  1  0
 80218  1  0
 81219  1  0
 81220  1  0
 83221  1  0
 83222  1  0
 87223  1  0
 89224  1  0
 89225  1  0
 90226  1  0
 90227  1  0
 91228  1  0
 91229  1  0
 92230  1  0
 93231  1  0
 93232  1  0
 93233  1  0
 96234  1  0
 97235  1  1
 98236  1  0
 98237  1  0
 98238  1  0
101239  1  0
102240  1  1
103241  1  0
103242  1  0
103243  1  0
106244  1  0
107245  1  1
108246  1  0
108247  1  0
109248  1  0
109249  1  0
111250  1  0
111251  1  0
115252  1  0
117253  1  0
117254  1  0
118255  1  0
118256  1  0
119257  1  0
119258  1  0
120259  1  0
121260  1  0
121261  1  0
121262  1  0
124263  1  0
125264  1  6
126265  1  0
126266  1  0
127267  1  0
127268  1  0
127269  1  0
130270  1  0
131271  1  1
132272  1  0
132273  1  0
133274  1  0
133275  1  0
134276  1  0
134277  1  0
135278  1  0
137279  1  0
138280  1  0
138281  1  0
141282  1  0
142283  1  6
143284  1  0
143285  1  0
144286  1  0
144287  1  0
147288  1  0
150289  1  0
151290  1  1
152291  1  0
152292  1  0
153293  1  0
153294  1  0
153295  1  0
156296  1  0
M  END
