
     RDKit          2D

397404  0  0  0  0  0  0  0  0999 V2000
  -15.9440  -10.6158    0.0000 C   0  0  0  0  0  0  0  0  0  0  0  0
  -15.0081  -11.7880    0.0000 N   0  0  0  0  0  0  0  0  0  0  0  0
  -15.5553  -13.1847    0.0000 C   0  0  0  0  0  0  0  0  0  0  0  0
  -17.0384  -13.4091    0.0000 C   0  0  0  0  0  0  0  0  0  0  0  0
  -17.5856  -14.8057    0.0000 C   0  0  0  0  0  0  0  0  0  0  0  0
  -16.6497  -15.9779    0.0000 C   0  0  0  0  0  0  0  0  0  0  0  0
  -15.1665  -15.7535    0.0000 C   0  0  0  0  0  0  0  0  0  0  0  0
  -14.6194  -14.3569    0.0000 C   0  0  0  0  0  0  0  0  0  0  0  0
  -14.4948  -17.0947    0.0000 C   0  0  0  0  0  0  0  0  0  0  0  0
  -15.5627  -18.1480    0.0000 O   0  0  0  0  0  0  0  0  0  0  0  0
  -16.8945  -17.4578    0.0000 C   0  0  0  0  0  0  0  0  0  0  0  0
  -18.2357  -18.1296    0.0000 O   0  0  0  0  0  0  0  0  0  0  0  0
  -13.9669  -18.4987    0.0000 C   0  0  0  0  0  0  0  0  0  0  0  0
  -12.4870  -18.7436    0.0000 C   0  0  0  0  0  0  0  0  0  0  0  0
  -11.9591  -20.1476    0.0000 C   0  0  0  0  0  0  0  0  0  0  0  0
  -12.9111  -21.3068    0.0000 C   0  0  0  0  0  0  0  0  0  0  0  0
  -14.3910  -21.0619    0.0000 C   0  0  0  0  0  0  0  0  0  0  0  0
  -14.9189  -19.6579    0.0000 C   0  0  0  0  0  0  0  0  0  0  0  0
  -12.3832  -22.7108    0.0000 O   0  0  0  0  0  0  0  0  0  0  0  0
  -11.5350  -17.5844    0.0000 O   0  0  0  0  0  0  0  0  0  0  0  0
  -12.0629  -16.1803    0.0000 C   0  0  0  0  0  0  0  0  0  0  0  0
  -13.5428  -15.9355    0.0000 C   0  0  0  0  0  0  0  0  0  0  0  0
  -13.3801  -14.6457    0.0000 C   0  0  0  0  0  0  0  0  0  0  0  0
  -12.8723  -14.0275    0.0000 C   0  0  0  0  0  0  0  0  0  0  0  0
  -12.0831  -14.1580    0.0000 C   0  0  0  0  0  0  0  0  0  0  0  0
  -11.8015  -14.9069    0.0000 C   0  0  0  0  0  0  0  0  0  0  0  0
  -10.6868  -12.4579    0.0000 O   0  0  0  0  0  0  0  0  0  0  0  0
  -17.4271  -10.8403    0.0000 S   0  0  0  0  0  0  0  0  0  0  0  0
  -15.3968   -9.2192    0.0000 N   0  0  0  0  0  0  0  0  0  0  0  0
  -16.3328   -8.0470    0.0000 C   0  0  0  0  0  0  0  0  0  0  0  0
  -15.7856   -6.6504    0.0000 C   0  0  0  0  0  0  0  0  0  0  0  0
  -16.7215   -5.4782    0.0000 C   0  0  0  0  0  0  0  0  0  0  0  0
  -17.4893   -5.6926    0.0000 O   0  0  0  0  0  0  0  0  0  0  0  0
  -16.1743   -4.0815    0.0000 N   0  0  0  0  0  0  0  0  0  0  0  0
  -17.1103   -2.9093    0.0000 C   0  0  0  0  0  0  0  0  0  0  0  0
  -18.1021   -4.0346    0.0000 C   0  0  0  0  0  0  0  0  0  0  0  0
  -19.4190   -4.7528    0.0000 O   0  0  0  0  0  0  0  0  0  0  0  0
  -17.8004   -5.5039    0.0000 C   0  0  0  0  0  0  0  0  0  0  0  0
  -17.5888   -1.4877    0.0000 C   0  0  0  0  0  0  0  0  0  0  0  0
  -19.0873   -1.5560    0.0000 O   0  0  0  0  0  0  0  0  0  0  0  0
  -16.5970   -0.3625    0.0000 N   0  0  0  0  0  0  0  0  0  0  0  0
  -17.0755    1.0591    0.0000 C   0  0  0  0  0  0  0  0  0  0  0  0
  -18.3924    0.3410    0.0000 C   0  0  0  0  0  0  0  0  0  0  0  0
  -18.4290   -1.1586    0.0000 C   0  0  0  0  0  0  0  0  0  0  0  0
  -19.7459   -1.8767    0.0000 C   0  0  0  0  0  0  0  0  0  0  0  0
  -19.7824   -3.3763    0.0000 N   0  0  0  0  0  0  0  0  0  0  0  0
  -21.0993   -4.0945    0.0000 C   0  0  0  0  0  0  0  0  0  0  0  0
  -21.1358   -5.5940    0.0000 N   0  0  0  0  0  0  0  0  0  0  0  0
  -22.3797   -3.3131    0.0000 N   0  0  0  0  0  0  0  0  0  0  0  0
  -17.0390    2.5587    0.0000 C   0  0  0  0  0  0  0  0  0  0  0  0
  -18.4705    3.0070    0.0000 O   0  0  0  0  0  0  0  0  0  0  0  0
  -15.7221    3.2768    0.0000 N   0  0  0  0  0  0  0  0  0  0  0  0
  -15.6856    4.7764    0.0000 C   0  0  0  0  0  0  0  0  0  0  0  0
  -17.1687    4.5520    0.0000 C   0  0  0  0  0  0  0  0  0  0  0  0
  -17.7159    3.1553    0.0000 C   0  0  0  0  0  0  0  0  0  0  0  0
  -19.1990    2.9309    0.0000 C   0  0  0  0  0  0  0  0  0  0  0  0
  -19.9124    1.6114    0.0000 N   0  0  0  0  0  0  0  0  0  0  0  0
  -20.1349    4.1031    0.0000 O   0  0  0  0  0  0  0  0  0  0  0  0
  -15.1384    6.1730    0.0000 C   0  0  0  0  0  0  0  0  0  0  0  0
  -16.2103    7.2224    0.0000 O   0  0  0  0  0  0  0  0  0  0  0  0
  -13.6553    6.3975    0.0000 N   0  0  0  0  0  0  0  0  0  0  0  0
  -13.1081    7.7941    0.0000 C   0  0  0  0  0  0  0  0  0  0  0  0
  -14.6037    7.9090    0.0000 C   0  0  0  0  0  0  0  0  0  0  0  0
  -12.1163    8.9194    0.0000 C   0  0  0  0  0  0  0  0  0  0  0  0
  -12.9246   10.1829    0.0000 O   0  0  0  0  0  0  0  0  0  0  0  0
  -10.6458    8.6230    0.0000 N   0  0  0  0  0  0  0  0  0  0  0  0
   -9.6540    9.7483    0.0000 C   0  0  0  0  0  0  0  0  0  0  0  0
  -10.9344   10.5297    0.0000 C   0  0  0  0  0  0  0  0  0  0  0  0
  -12.2513    9.8115    0.0000 C   0  0  0  0  0  0  0  0  0  0  0  0
  -13.5317   10.5929    0.0000 C   0  0  0  0  0  0  0  0  0  0  0  0
  -14.8486    9.8747    0.0000 N   0  0  0  0  0  0  0  0  0  0  0  0
  -16.1290   10.6561    0.0000 C   0  0  0  0  0  0  0  0  0  0  0  0
  -17.4459    9.9380    0.0000 N   0  0  0  0  0  0  0  0  0  0  0  0
  -16.0925   12.1557    0.0000 N   0  0  0  0  0  0  0  0  0  0  0  0
   -8.3371   10.4664    0.0000 C   0  0  0  0  0  0  0  0  0  0  0  0
   -8.6645   11.9303    0.0000 O   0  0  0  0  0  0  0  0  0  0  0  0
   -7.0567    9.6850    0.0000 N   0  0  0  0  0  0  0  0  0  0  0  0
   -5.7397   10.4032    0.0000 C   0  0  0  0  0  0  0  0  0  0  0  0
   -6.6757   11.5754    0.0000 C   0  0  0  0  0  0  0  0  0  0  0  0
   -8.1588   11.3510    0.0000 C   0  0  0  0  0  0  0  0  0  0  0  0
   -9.0947   12.5231    0.0000 C   0  0  0  0  0  0  0  0  0  0  0  0
  -10.5778   12.2987    0.0000 N   0  0  0  0  0  0  0  0  0  0  0  0
  -11.5138   13.4709    0.0000 C   0  0  0  0  0  0  0  0  0  0  0  0
  -12.9969   13.2465    0.0000 N   0  0  0  0  0  0  0  0  0  0  0  0
  -10.9666   14.8675    0.0000 N   0  0  0  0  0  0  0  0  0  0  0  0
   -4.2566   10.6276    0.0000 C   0  0  0  0  0  0  0  0  0  0  0  0
   -4.0637   12.1152    0.0000 O   0  0  0  0  0  0  0  0  0  0  0  0
   -3.3207    9.4554    0.0000 N   0  0  0  0  0  0  0  0  0  0  0  0
   -1.8376    9.6799    0.0000 C   0  0  0  0  0  0  0  0  0  0  0  0
   -2.3162   11.1015    0.0000 C   0  0  0  0  0  0  0  0  0  0  0  0
   -3.7866   11.3978    0.0000 C   0  0  0  0  0  0  0  0  0  0  0  0
   -4.2652   12.8195    0.0000 N   0  0  0  0  0  0  0  0  0  0  0  0
   -5.0213   10.5460    0.0000 O   0  0  0  0  0  0  0  0  0  0  0  0
   -0.3672    9.3835    0.0000 C   0  0  0  0  0  0  0  0  0  0  0  0
    0.4801   10.6213    0.0000 O   0  0  0  0  0  0  0  0  0  0  0  0
    0.1114    7.9619    0.0000 N   0  0  0  0  0  0  0  0  0  0  0  0
    1.5818    7.6656    0.0000 C   0  0  0  0  0  0  0  0  0  0  0  0
    2.7687    8.5828    0.0000 C   0  0  0  0  0  0  0  0  0  0  0  0
    4.1660    9.1285    0.0000 C   0  0  0  0  0  0  0  0  0  0  0  0
    5.6603    9.2584    0.0000 C   0  0  0  0  0  0  0  0  0  0  0  0
    7.1308    8.9620    0.0000 C   0  0  0  0  0  0  0  0  0  0  0  0
    1.0651    9.0738    0.0000 C   0  0  0  0  0  0  0  0  0  0  0  0
    0.7014    6.4511    0.0000 C   0  0  0  0  0  0  0  0  0  0  0  0
   -0.7012    6.9827    0.0000 O   0  0  0  0  0  0  0  0  0  0  0  0
    0.1988    5.0378    0.0000 N   0  0  0  0  0  0  0  0  0  0  0  0
    0.1148    3.5402    0.0000 C   0  0  0  0  0  0  0  0  0  0  0  0
   -1.2126    4.2388    0.0000 C   0  0  0  0  0  0  0  0  0  0  0  0
   -2.4813    3.4386    0.0000 C   0  0  0  0  0  0  0  0  0  0  0  0
   -3.8087    4.1372    0.0000 C   0  0  0  0  0  0  0  0  0  0  0  0
   -5.0774    3.3370    0.0000 N   0  0  0  0  0  0  0  0  0  0  0  0
   -6.4048    4.0356    0.0000 C   0  0  0  0  0  0  0  0  0  0  0  0
   -7.6735    3.2353    0.0000 N   0  0  0  0  0  0  0  0  0  0  0  0
   -6.4635    5.5344    0.0000 N   0  0  0  0  0  0  0  0  0  0  0  0
    0.4560    2.0795    0.0000 C   0  0  0  0  0  0  0  0  0  0  0  0
   -0.9412    1.5339    0.0000 O   0  0  0  0  0  0  0  0  0  0  0  0
    1.1950    0.7742    0.0000 N   0  0  0  0  0  0  0  0  0  0  0  0
    2.2718   -0.2701    0.0000 C   0  0  0  0  0  0  0  0  0  0  0  0
    0.8746   -0.8158    0.0000 C   0  0  0  0  0  0  0  0  0  0  0  0
    0.6485   -2.2986    0.0000 C   0  0  0  0  0  0  0  0  0  0  0  0
   -0.7487   -2.8443    0.0000 C   0  0  0  0  0  0  0  0  0  0  0  0
   -0.9748   -4.3272    0.0000 N   0  0  0  0  0  0  0  0  0  0  0  0
   -2.3720   -4.8728    0.0000 C   0  0  0  0  0  0  0  0  0  0  0  0
   -2.5980   -6.3557    0.0000 N   0  0  0  0  0  0  0  0  0  0  0  0
   -3.5432   -3.9356    0.0000 N   0  0  0  0  0  0  0  0  0  0  0  0
    3.5992   -0.9687    0.0000 C   0  0  0  0  0  0  0  0  0  0  0  0
    3.0966   -2.3820    0.0000 O   0  0  0  0  0  0  0  0  0  0  0  0
    5.0696   -1.2651    0.0000 N   0  0  0  0  0  0  0  0  0  0  0  0
    6.5640   -1.1351    0.0000 C   0  0  0  0  0  0  0  0  0  0  0  0
    6.0614   -2.5484    0.0000 C   0  0  0  0  0  0  0  0  0  0  0  0
    7.0340   -3.6903    0.0000 C   0  0  0  0  0  0  0  0  0  0  0  0
    6.5314   -5.1036    0.0000 C   0  0  0  0  0  0  0  0  0  0  0  0
    7.5041   -6.2455    0.0000 N   0  0  0  0  0  0  0  0  0  0  0  0
    7.0015   -7.6588    0.0000 C   0  0  0  0  0  0  0  0  0  0  0  0
    7.9741   -8.8007    0.0000 N   0  0  0  0  0  0  0  0  0  0  0  0
    5.5262   -7.9302    0.0000 N   0  0  0  0  0  0  0  0  0  0  0  0
    7.9612   -0.5895    0.0000 C   0  0  0  0  0  0  0  0  0  0  0  0
    8.7002   -1.8948    0.0000 O   0  0  0  0  0  0  0  0  0  0  0  0
    9.1481    0.3278    0.0000 N   0  0  0  0  0  0  0  0  0  0  0  0
    9.6998    2.9489    0.0000 C   0  0  0  0  0  0  0  0  0  0  0  0
   10.2023    4.3622    0.0000 C   0  0  0  0  0  0  0  0  0  0  0  0
   11.1169    5.5511    0.0000 C   0  0  0  0  0  0  0  0  0  0  0  0
    9.6240    5.6967    0.0000 C   0  0  0  0  0  0  0  0  0  0  0  0
    8.5740    6.7679    0.0000 N   0  0  0  0  0  0  0  0  0  0  0  0
    8.4581    8.2634    0.0000 C   0  0  0  0  0  0  0  0  0  0  0  0
    9.3307    9.4835    0.0000 C   0  0  0  0  0  0  0  0  0  0  0  0
   10.7834    9.8573    0.0000 C   0  0  0  0  0  0  0  0  0  0  0  0
   12.1365    9.2098    0.0000 C   0  0  0  0  0  0  0  0  0  0  0  0
   12.7568    7.8441    0.0000 C   0  0  0  0  0  0  0  0  0  0  0  0
   12.3542    6.3992    0.0000 C   0  0  0  0  0  0  0  0  0  0  0  0
    9.6587    1.4494    0.0000 C   0  0  0  0  0  0  0  0  0  0  0  0
    8.1713    1.2555    0.0000 O   0  0  0  0  0  0  0  0  0  0  0  0
   10.0830    0.0107    0.0000 N   0  0  0  0  0  0  0  0  0  0  0  0
   10.9310   -1.2266    0.0000 C   0  0  0  0  0  0  0  0  0  0  0  0
    9.4558   -1.4981    0.0000 C   0  0  0  0  0  0  0  0  0  0  0  0
    8.9534   -2.9114    0.0000 C   0  0  0  0  0  0  0  0  0  0  0  0
    7.4781   -3.1830    0.0000 C   0  0  0  0  0  0  0  0  0  0  0  0
    6.9757   -4.5963    0.0000 N   0  0  0  0  0  0  0  0  0  0  0  0
    5.5004   -4.8678    0.0000 C   0  0  0  0  0  0  0  0  0  0  0  0
    4.6709   -6.1176    0.0000 N   0  0  0  0  0  0  0  0  0  0  0  0
    4.3958   -3.8531    0.0000 N   0  0  0  0  0  0  0  0  0  0  0  0
   12.1199   -2.1412    0.0000 C   0  0  0  0  0  0  0  0  0  0  0  0
   11.4026   -3.4585    0.0000 O   0  0  0  0  0  0  0  0  0  0  0  0
   13.5333   -2.6437    0.0000 N   0  0  0  0  0  0  0  0  0  0  0  0
   15.0327   -2.6848    0.0000 C   0  0  0  0  0  0  0  0  0  0  0  0
   14.3853   -4.0379    0.0000 C   0  0  0  0  0  0  0  0  0  0  0  0
   15.2333   -5.2751    0.0000 C   0  0  0  0  0  0  0  0  0  0  0  0
   14.5859   -6.6282    0.0000 C   0  0  0  0  0  0  0  0  0  0  0  0
   15.4340   -7.8654    0.0000 O   0  0  0  0  0  0  0  0  0  0  0  0
   13.0904   -6.7440    0.0000 O   0  0  0  0  0  0  0  0  0  0  0  0
   16.4715   -2.2605    0.0000 C   0  0  0  0  0  0  0  0  0  0  0  0
   17.1156   -3.6152    0.0000 O   0  0  0  0  0  0  0  0  0  0  0  0
   17.7087   -1.4125    0.0000 N   0  0  0  0  0  0  0  0  0  0  0  0
   18.6233   -0.2236    0.0000 C   0  0  0  0  0  0  0  0  0  0  0  0
   19.1258    1.1898    0.0000 C   0  0  0  0  0  0  0  0  0  0  0  0
   19.1669    2.6892    0.0000 C   0  0  0  0  0  0  0  0  0  0  0  0
   18.7427    4.1280    0.0000 C   0  0  0  0  0  0  0  0  0  0  0  0
   17.8946    5.3652    0.0000 C   0  0  0  0  0  0  0  0  0  0  0  0
   16.7057    6.2798    0.0000 C   0  0  0  0  0  0  0  0  0  0  0  0
   15.2924    6.7823    0.0000 C   0  0  0  0  0  0  0  0  0  0  0  0
   13.7929    6.8234    0.0000 C   0  0  0  0  0  0  0  0  0  0  0  0
   20.1218   -0.2909    0.0000 C   0  0  0  0  0  0  0  0  0  0  0  0
   19.3374   -1.5427    0.0000 C   0  0  0  0  0  0  0  0  0  0  0  0
   18.7137   -2.9069    0.0000 O   0  0  0  0  0  0  0  0  0  0  0  0
   20.8369   -1.5838    0.0000 N   0  0  0  0  0  0  0  0  0  0  0  0
   21.5510   -2.9029    0.0000 C   0  0  0  0  0  0  0  0  0  0  0  0
   21.7708   -4.3867    0.0000 C   0  0  0  0  0  0  0  0  0  0  0  0
   20.5958   -5.3190    0.0000 C   0  0  0  0  0  0  0  0  0  0  0  0
   20.8156   -6.8028    0.0000 C   0  0  0  0  0  0  0  0  0  0  0  0
   19.6406   -7.7351    0.0000 N   0  0  0  0  0  0  0  0  0  0  0  0
   22.2106   -7.3543    0.0000 O   0  0  0  0  0  0  0  0  0  0  0  0
   23.0504   -2.9440    0.0000 C   0  0  0  0  0  0  0  0  0  0  0  0
   23.8357   -1.6661    0.0000 O   0  0  0  0  0  0  0  0  0  0  0  0
   23.7645   -4.2632    0.0000 N   0  0  0  0  0  0  0  0  0  0  0  0
   25.2639   -4.3043    0.0000 C   0  0  0  0  0  0  0  0  0  0  0  0
   26.6870   -3.8301    0.0000 C   0  0  0  0  0  0  0  0  0  0  0  0
   27.8092   -4.8254    0.0000 C   0  0  0  0  0  0  0  0  0  0  0  0
   29.2323   -4.3512    0.0000 C   0  0  0  0  0  0  0  0  0  0  0  0
   30.3545   -5.3465    0.0000 N   0  0  0  0  0  0  0  0  0  0  0  0
   31.7776   -4.8724    0.0000 C   0  0  0  0  0  0  0  0  0  0  0  0
   32.8998   -5.8677    0.0000 N   0  0  0  0  0  0  0  0  0  0  0  0
   32.0784   -3.4028    0.0000 N   0  0  0  0  0  0  0  0  0  0  0  0
   25.9780   -5.6234    0.0000 C   0  0  0  0  0  0  0  0  0  0  0  0
   27.4613   -5.8470    0.0000 O   0  0  0  0  0  0  0  0  0  0  0  0
   25.1927   -6.9014    0.0000 O   0  0  0  0  0  0  0  0  0  0  0  0
  -13.5634  -11.3845    0.0000 H   0  0  0  0  0  0  0  0  0  0  0  0
  -17.9743  -12.2369    0.0000 H   0  0  0  0  0  0  0  0  0  0  0  0
  -19.0687  -15.0302    0.0000 H   0  0  0  0  0  0  0  0  0  0  0  0
  -13.2346  -13.7802    0.0000 H   0  0  0  0  0  0  0  0  0  0  0  0
  -10.4792  -20.3924    0.0000 H   0  0  0  0  0  0  0  0  0  0  0  0
  -15.3430  -22.2211    0.0000 H   0  0  0  0  0  0  0  0  0  0  0  0
  -16.3988  -19.4130    0.0000 H   0  0  0  0  0  0  0  0  0  0  0  0
  -13.3352  -23.8700    0.0000 H   0  0  0  0  0  0  0  0  0  0  0  0
  -15.5506  -14.2866    0.0000 H   0  0  0  0  0  0  0  0  0  0  0  0
  -13.4715  -11.9143    0.0000 H   0  0  0  0  0  0  0  0  0  0  0  0
   -9.6310  -15.2660    0.0000 H   0  0  0  0  0  0  0  0  0  0  0  0
   -9.2069  -12.7028    0.0000 H   0  0  0  0  0  0  0  0  0  0  0  0
  -13.9137   -8.9948    0.0000 H   0  0  0  0  0  0  0  0  0  0  0  0
  -17.3246   -9.1723    0.0000 H   0  0  0  0  0  0  0  0  0  0  0  0
  -17.6132   -7.2656    0.0000 H   0  0  0  0  0  0  0  0  0  0  0  0
  -14.5052   -7.4318    0.0000 H   0  0  0  0  0  0  0  0  0  0  0  0
  -14.7937   -5.5251    0.0000 H   0  0  0  0  0  0  0  0  0  0  0  0
  -14.6912   -3.8571    0.0000 H   0  0  0  0  0  0  0  0  0  0  0  0
  -15.7933   -2.1912    0.0000 H   0  0  0  0  0  0  0  0  0  0  0  0
  -19.2939   -3.1237    0.0000 H   0  0  0  0  0  0  0  0  0  0  0  0
  -19.6381   -6.2367    0.0000 H   0  0  0  0  0  0  0  0  0  0  0  0
  -18.4780   -6.6728    0.0000 H   0  0  0  0  0  0  0  0  0  0  0  0
  -16.6876   -6.6284    0.0000 H   0  0  0  0  0  0  0  0  0  0  0  0
  -16.1657   -5.1223    0.0000 H   0  0  0  0  0  0  0  0  0  0  0  0
  -15.1265   -0.6588    0.0000 H   0  0  0  0  0  0  0  0  0  0  0  0
  -15.5924    1.2836    0.0000 H   0  0  0  0  0  0  0  0  0  0  0  0
  -19.8919    0.2990    0.0000 H   0  0  0  0  0  0  0  0  0  0  0  0
  -19.0407    1.6936    0.0000 H   0  0  0  0  0  0  0  0  0  0  0  0
  -17.9504   -2.5802    0.0000 H   0  0  0  0  0  0  0  0  0  0  0  0
  -16.9356   -1.2997    0.0000 H   0  0  0  0  0  0  0  0  0  0  0  0
  -21.2290   -2.1012    0.0000 H   0  0  0  0  0  0  0  0  0  0  0  0
  -20.3941   -0.5241    0.0000 H   0  0  0  0  0  0  0  0  0  0  0  0
  -18.7291   -4.4443    0.0000 H   0  0  0  0  0  0  0  0  0  0  0  0
  -22.4527   -6.3122    0.0000 H   0  0  0  0  0  0  0  0  0  0  0  0
  -23.6966   -4.0312    0.0000 H   0  0  0  0  0  0  0  0  0  0  0  0
  -22.3432   -1.8135    0.0000 H   0  0  0  0  0  0  0  0  0  0  0  0
  -14.4417    2.4954    0.0000 H   0  0  0  0  0  0  0  0  0  0  0  0
  -14.2152    4.4800    0.0000 H   0  0  0  0  0  0  0  0  0  0  0  0
  -18.6392    4.8483    0.0000 H   0  0  0  0  0  0  0  0  0  0  0  0
  -17.1322    6.0515    0.0000 H   0  0  0  0  0  0  0  0  0  0  0  0
  -17.7524    1.6558    0.0000 H   0  0  0  0  0  0  0  0  0  0  0  0
  -16.3609    2.5120    0.0000 H   0  0  0  0  0  0  0  0  0  0  0  0
  -21.2293    1.3098    0.0000 H   0  0  0  0  0  0  0  0  0  0  0  0
  -19.1453    0.1325    0.0000 H   0  0  0  0  0  0  0  0  0  0  0  0
  -12.7194    5.2253    0.0000 H   0  0  0  0  0  0  0  0  0  0  0  0
  -11.8277    7.0127    0.0000 H   0  0  0  0  0  0  0  0  0  0  0  0
  -15.7002    7.0945    0.0000 H   0  0  0  0  0  0  0  0  0  0  0  0
  -15.8590    8.8719    0.0000 H   0  0  0  0  0  0  0  0  0  0  0  0
  -14.3856    9.5780    0.0000 H   0  0  0  0  0  0  0  0  0  0  0  0
  -10.1673    7.2014    0.0000 H   0  0  0  0  0  0  0  0  0  0  0  0
   -8.7180    8.5761    0.0000 H   0  0  0  0  0  0  0  0  0  0  0  0
  -11.7204   11.8072    0.0000 H   0  0  0  0  0  0  0  0  0  0  0  0
  -10.2443   11.8615    0.0000 H   0  0  0  0  0  0  0  0  0  0  0  0
  -13.2431    8.6863    0.0000 H   0  0  0  0  0  0  0  0  0  0  0  0
  -11.6268    8.4477    0.0000 H   0  0  0  0  0  0  0  0  0  0  0  0
  -14.4676   11.7651    0.0000 H   0  0  0  0  0  0  0  0  0  0  0  0
  -12.6844   11.8307    0.0000 H   0  0  0  0  0  0  0  0  0  0  0  0
  -15.0676    8.3908    0.0000 H   0  0  0  0  0  0  0  0  0  0  0  0
  -18.7263   10.7194    0.0000 H   0  0  0  0  0  0  0  0  0  0  0  0
  -17.3729   12.9371    0.0000 H   0  0  0  0  0  0  0  0  0  0  0  0
  -14.7756   12.8739    0.0000 H   0  0  0  0  0  0  0  0  0  0  0  0
   -7.0932    8.1855    0.0000 H   0  0  0  0  0  0  0  0  0  0  0  0
   -5.2612    8.9816    0.0000 H   0  0  0  0  0  0  0  0  0  0  0  0
   -6.9774   13.0447    0.0000 H   0  0  0  0  0  0  0  0  0  0  0  0
   -5.4561   12.4487    0.0000 H   0  0  0  0  0  0  0  0  0  0  0  0
   -9.4757   10.6328    0.0000 H   0  0  0  0  0  0  0  0  0  0  0  0
   -8.0384    9.8558    0.0000 H   0  0  0  0  0  0  0  0  0  0  0  0
   -9.5733   13.9448    0.0000 H   0  0  0  0  0  0  0  0  0  0  0  0
   -7.8752   13.3965    0.0000 H   0  0  0  0  0  0  0  0  0  0  0  0
  -11.4467   11.0760    0.0000 H   0  0  0  0  0  0  0  0  0  0  0  0
  -13.9328   14.4187    0.0000 H   0  0  0  0  0  0  0  0  0  0  0  0
  -11.9025   16.0397    0.0000 H   0  0  0  0  0  0  0  0  0  0  0  0
   -9.4835   15.0920    0.0000 H   0  0  0  0  0  0  0  0  0  0  0  0
   -3.8679    8.0588    0.0000 H   0  0  0  0  0  0  0  0  0  0  0  0
   -1.8741    8.1803    0.0000 H   0  0  0  0  0  0  0  0  0  0  0  0
   -2.2797   12.6011    0.0000 H   0  0  0  0  0  0  0  0  0  0  0  0
   -0.8330   11.3259    0.0000 H   0  0  0  0  0  0  0  0  0  0  0  0
   -5.6885   13.2928    0.0000 H   0  0  0  0  0  0  0  0  0  0  0  0
   -3.2733   13.9447    0.0000 H   0  0  0  0  0  0  0  0  0  0  0  0
   -1.0102    6.9660    0.0000 H   0  0  0  0  0  0  0  0  0  0  0  0
    2.8528   10.0804    0.0000 H   0  0  0  0  0  0  0  0  0  0  0  0
    1.5364    9.4380    0.0000 H   0  0  0  0  0  0  0  0  0  0  0  0
    4.4925   10.5925    0.0000 H   0  0  0  0  0  0  0  0  0  0  0  0
    3.2245   10.2962    0.0000 H   0  0  0  0  0  0  0  0  0  0  0  0
    6.5407   10.4728    0.0000 H   0  0  0  0  0  0  0  0  0  0  0  0
    5.0860   10.6441    0.0000 H   0  0  0  0  0  0  0  0  0  0  0  0
    7.6334   10.3753    0.0000 H   0  0  0  0  0  0  0  0  0  0  0  0
   -0.0397    9.8515    0.0000 H   0  0  0  0  0  0  0  0  0  0  0  0
    1.6048   10.5608    0.0000 H   0  0  0  0  0  0  0  0  0  0  0  0
    2.5788    9.7995    0.0000 H   0  0  0  0  0  0  0  0  0  0  0  0
   -1.2716    5.3342    0.0000 H   0  0  0  0  0  0  0  0  0  0  0  0
   -0.9515    2.4851    0.0000 H   0  0  0  0  0  0  0  0  0  0  0  0
   -2.0781    5.4639    0.0000 H   0  0  0  0  0  0  0  0  0  0  0  0
   -0.6084    5.6117    0.0000 H   0  0  0  0  0  0  0  0  0  0  0  0
   -3.3998    2.2527    0.0000 H   0  0  0  0  0  0  0  0  0  0  0  0
   -1.6158    2.2135    0.0000 H   0  0  0  0  0  0  0  0  0  0  0  0
   -4.8171    5.2477    0.0000 H   0  0  0  0  0  0  0  0  0  0  0  0
   -3.0416    5.4262    0.0000 H   0  0  0  0  0  0  0  0  0  0  0  0
   -5.0187    1.8381    0.0000 H   0  0  0  0  0  0  0  0  0  0  0  0
   -9.0009    3.9339    0.0000 H   0  0  0  0  0  0  0  0  0  0  0  0
   -7.7908    6.2330    0.0000 H   0  0  0  0  0  0  0  0  0  0  0  0
   -5.1947    6.3347    0.0000 H   0  0  0  0  0  0  0  0  0  0  0  0
    0.0081   -0.1430    0.0000 H   0  0  0  0  0  0  0  0  0  0  0  0
    2.3709   -1.7668    0.0000 H   0  0  0  0  0  0  0  0  0  0  0  0
   -0.6181   -0.6676    0.0000 H   0  0  0  0  0  0  0  0  0  0  0  0
    0.2327    0.5400    0.0000 H   0  0  0  0  0  0  0  0  0  0  0  0
    0.9433   -3.7694    0.0000 H   0  0  0  0  0  0  0  0  0  0  0  0
    2.1412   -2.4468    0.0000 H   0  0  0  0  0  0  0  0  0  0  0  0
   -2.2483   -2.8792    0.0000 H   0  0  0  0  0  0  0  0  0  0  0  0
   -1.2205   -1.4204    0.0000 H   0  0  0  0  0  0  0  0  0  0  0  0
    0.1964   -5.2644    0.0000 H   0  0  0  0  0  0  0  0  0  0  0  0
   -3.9953   -6.9014    0.0000 H   0  0  0  0  0  0  0  0  0  0  0  0
   -4.9404   -4.4813    0.0000 H   0  0  0  0  0  0  0  0  0  0  0  0
   -3.3171   -2.4528    0.0000 H   0  0  0  0  0  0  0  0  0  0  0  0
    5.1687   -2.7618    0.0000 H   0  0  0  0  0  0  0  0  0  0  0  0
    7.8615   -1.8878    0.0000 H   0  0  0  0  0  0  0  0  0  0  0  0
    4.8544   -3.4390    0.0000 H   0  0  0  0  0  0  0  0  0  0  0  0
    4.6763   -1.9726    0.0000 H   0  0  0  0  0  0  0  0  0  0  0  0
    8.2386   -4.5842    0.0000 H   0  0  0  0  0  0  0  0  0  0  0  0
    8.1235   -2.6593    0.0000 H   0  0  0  0  0  0  0  0  0  0  0  0
    5.7238   -6.3677    0.0000 H   0  0  0  0  0  0  0  0  0  0  0  0
    5.0482   -4.8801    0.0000 H   0  0  0  0  0  0  0  0  0  0  0  0
    8.9793   -5.9742    0.0000 H   0  0  0  0  0  0  0  0  0  0  0  0
    7.4715  -10.2140    0.0000 H   0  0  0  0  0  0  0  0  0  0  0  0
    5.0236   -9.3435    0.0000 H   0  0  0  0  0  0  0  0  0  0  0  0
    4.4216   -6.9154    0.0000 H   0  0  0  0  0  0  0  0  0  0  0  0
    9.9402   -0.9461    0.0000 H   0  0  0  0  0  0  0  0  0  0  0  0
    8.2253    3.2240    0.0000 H   0  0  0  0  0  0  0  0  0  0  0  0
    9.1902    5.4693    0.0000 H   0  0  0  0  0  0  0  0  0  0  0  0
    8.7321    4.0649    0.0000 H   0  0  0  0  0  0  0  0  0  0  0  0
    8.8165    4.4327    0.0000 H   0  0  0  0  0  0  0  0  0  0  0  0
    7.2083    6.1476    0.0000 H   0  0  0  0  0  0  0  0  0  0  0  0
    8.4826   10.7208    0.0000 H   0  0  0  0  0  0  0  0  0  0  0  0
   10.9290   11.3502    0.0000 H   0  0  0  0  0  0  0  0  0  0  0  0
   13.2077   10.2599    0.0000 H   0  0  0  0  0  0  0  0  0  0  0  0
   14.1799    8.3184    0.0000 H   0  0  0  0  0  0  0  0  0  0  0  0
    8.9244   -0.9421    0.0000 H   0  0  0  0  0  0  0  0  0  0  0  0
   10.7594   -2.7167    0.0000 H   0  0  0  0  0  0  0  0  0  0  0  0
    7.9573   -1.4308    0.0000 H   0  0  0  0  0  0  0  0  0  0  0  0
    8.7416   -0.1791    0.0000 H   0  0  0  0  0  0  0  0  0  0  0  0
    9.1473   -4.3988    0.0000 H   0  0  0  0  0  0  0  0  0  0  0  0
   10.3910   -3.3393    0.0000 H   0  0  0  0  0  0  0  0  0  0  0  0
    5.9826   -3.2989    0.0000 H   0  0  0  0  0  0  0  0  0  0  0  0
    7.4669   -1.6830    0.0000 H   0  0  0  0  0  0  0  0  0  0  0  0
    8.1958   -5.4688    0.0000 H   0  0  0  0  0  0  0  0  0  0  0  0
    3.5228   -6.5527    0.0000 H   0  0  0  0  0  0  0  0  0  0  0  0
    3.0525   -3.9975    0.0000 H   0  0  0  0  0  0  0  0  0  0  0  0
    5.0302   -2.3127    0.0000 H   0  0  0  0  0  0  0  0  0  0  0  0
   13.2581   -4.1182    0.0000 H   0  0  0  0  0  0  0  0  0  0  0  0
   16.1374   -3.6995    0.0000 H   0  0  0  0  0  0  0  0  0  0  0  0
   13.3141   -5.0879    0.0000 H   0  0  0  0  0  0  0  0  0  0  0  0
   12.9903   -3.4864    0.0000 H   0  0  0  0  0  0  0  0  0  0  0  0
   16.4534   -6.1477    0.0000 H   0  0  0  0  0  0  0  0  0  0  0  0
   16.4245   -4.3635    0.0000 H   0  0  0  0  0  0  0  0  0  0  0  0
   12.4429   -8.0971    0.0000 H   0  0  0  0  0  0  0  0  0  0  0  0
   18.5994   -2.6194    0.0000 H   0  0  0  0  0  0  0  0  0  0  0  0
   20.3305    0.2961    0.0000 H   0  0  0  0  0  0  0  0  0  0  0  0
   20.5123    1.7621    0.0000 H   0  0  0  0  0  0  0  0  0  0  0  0
   20.5888    2.2115    0.0000 H   0  0  0  0  0  0  0  0  0  0  0  0
   20.4188    3.5155    0.0000 H   0  0  0  0  0  0  0  0  0  0  0  0
   20.2426    4.1131    0.0000 H   0  0  0  0  0  0  0  0  0  0  0  0
   19.6779    5.3007    0.0000 H   0  0  0  0  0  0  0  0  0  0  0  0
   19.3257    5.8145    0.0000 H   0  0  0  0  0  0  0  0  0  0  0  0
   18.4217    6.7695    0.0000 H   0  0  0  0  0  0  0  0  0  0  0  0
   17.9279    7.1494    0.0000 H   0  0  0  0  0  0  0  0  0  0  0  0
   16.7730    7.7783    0.0000 H   0  0  0  0  0  0  0  0  0  0  0  0
   16.1861    7.9870    0.0000 H   0  0  0  0  0  0  0  0  0  0  0  0
   14.8933    8.2282    0.0000 H   0  0  0  0  0  0  0  0  0  0  0  0
   13.7817    8.3234    0.0000 H   0  0  0  0  0  0  0  0  0  0  0  0
   21.1969   -1.1092    0.0000 H   0  0  0  0  0  0  0  0  0  0  0  0
   21.3765    0.6727    0.0000 H   0  0  0  0  0  0  0  0  0  0  0  0
   20.3565    1.3713    0.0000 H   0  0  0  0  0  0  0  0  0  0  0  0
   21.7721   -0.4111    0.0000 H   0  0  0  0  0  0  0  0  0  0  0  0
   20.0807   -3.2001    0.0000 H   0  0  0  0  0  0  0  0  0  0  0  0
   22.3188   -5.7830    0.0000 H   0  0  0  0  0  0  0  0  0  0  0  0
   23.2664   -4.2710    0.0000 H   0  0  0  0  0  0  0  0  0  0  0  0
   19.1727   -5.7932    0.0000 H   0  0  0  0  0  0  0  0  0  0  0  0
   19.7262   -4.0968    0.0000 H   0  0  0  0  0  0  0  0  0  0  0  0
   19.8604   -9.2189    0.0000 H   0  0  0  0  0  0  0  0  0  0  0  0
   18.2456   -7.1837    0.0000 H   0  0  0  0  0  0  0  0  0  0  0  0
   23.1408   -5.6273    0.0000 H   0  0  0  0  0  0  0  0  0  0  0  0
   25.0441   -2.8205    0.0000 H   0  0  0  0  0  0  0  0  0  0  0  0
   27.7397   -2.7615    0.0000 H   0  0  0  0  0  0  0  0  0  0  0  0
   25.9729   -2.5110    0.0000 H   0  0  0  0  0  0  0  0  0  0  0  0
   28.5233   -6.1445    0.0000 H   0  0  0  0  0  0  0  0  0  0  0  0
   27.0464   -6.1170    0.0000 H   0  0  0  0  0  0  0  0  0  0  0  0
   30.4074   -3.4189    0.0000 H   0  0  0  0  0  0  0  0  0  0  0  0
   28.6843   -2.9549    0.0000 H   0  0  0  0  0  0  0  0  0  0  0  0
   30.0536   -6.8161    0.0000 H   0  0  0  0  0  0  0  0  0  0  0  0
   34.3228   -5.3935    0.0000 H   0  0  0  0  0  0  0  0  0  0  0  0
   33.5015   -2.9286    0.0000 H   0  0  0  0  0  0  0  0  0  0  0  0
   30.9562   -2.4075    0.0000 H   0  0  0  0  0  0  0  0  0  0  0  0
   25.9068   -8.2205    0.0000 H   0  0  0  0  0  0  0  0  0  0  0  0
  1  2  1  0
  2  3  1  0
  3  4  2  0
  4  5  1  0
  5  6  2  0
  6  7  1  0
  7  8  2  0
  7  9  1  0
  9 10  1  0
 10 11  1  0
 11 12  2  0
  9 13  1  0
 13 14  1  0
 14 15  2  0
 15 16  1  0
 16 17  2  0
 17 18  1  0
 16 19  1  0
 14 20  1  0
 20 21  1  0
 21 22  2  0
 22 23  1  0
 23 24  2  0
 24 25  1  0
 25 26  2  0
 25 27  1  0
  1 28  2  0
  1 29  1  0
 29 30  1  0
 30 31  1  0
 31 32  1  0
 32 33  2  0
 32 34  1  0
 34 35  1  0
 35 36  1  0
 36 37  1  0
 36 38  1  0
 35 39  1  0
 39 40  2  0
 39 41  1  0
 41 42  1  0
 42 43  1  0
 43 44  1  0
 44 45  1  0
 45 46  1  0
 46 47  1  0
 47 48  2  3
 47 49  1  0
 42 50  1  0
 50 51  2  0
 50 52  1  0
 52 53  1  0
 53 54  1  0
 54 55  1  0
 55 56  1  0
 56 57  1  0
 56 58  2  0
 53 59  1  0
 59 60  2  0
 59 61  1  0
 61 62  1  0
 62 63  1  0
 62 64  1  0
 64 65  2  0
 64 66  1  0
 66 67  1  0
 67 68  1  0
 68 69  1  0
 69 70  1  0
 70 71  1  0
 71 72  1  0
 72 73  2  3
 72 74  1  0
 67 75  1  0
 75 76  2  0
 75 77  1  0
 77 78  1  0
 78 79  1  0
 79 80  1  0
 80 81  1  0
 81 82  1  0
 82 83  1  0
 83 84  2  3
 83 85  1  0
 78 86  1  0
 86 87  2  0
 86 88  1  0
 88 89  1  0
 89 90  1  0
 90 91  1  0
 91 92  1  0
 91 93  2  0
 89 94  1  0
 94 95  2  0
 94 96  1  0
 97 96  1  6
 97 98  1  0
 98 99  1  0
 99100  1  0
100101  1  0
 97102  1  0
 97103  1  0
103104  2  0
103105  1  0
105106  1  0
106107  1  0
107108  1  0
108109  1  0
109110  1  0
110111  1  0
111112  2  3
111113  1  0
106114  1  0
114115  2  0
114116  1  0
116117  1  0
117118  1  0
118119  1  0
119120  1  0
120121  1  0
121122  1  0
122123  2  3
122124  1  0
117125  1  0
125126  2  0
125127  1  0
127128  1  0
128129  1  0
129130  1  0
130131  1  0
131132  1  0
132133  1  0
133134  2  3
133135  1  0
128136  1  0
136137  2  0
136138  1  0
138139  1  0
139140  1  0
140141  1  0
141142  2  0
142143  1  0
143144  1  0
144145  1  0
145146  2  0
146147  1  0
147148  2  0
148149  1  0
139150  1  0
150151  2  0
150152  1  0
152153  1  0
153154  1  0
154155  1  0
155156  1  0
156157  1  0
157158  1  0
158159  2  3
158160  1  0
153161  1  0
161162  2  0
161163  1  0
163164  1  0
164165  1  0
165166  1  0
166167  1  0
167168  2  0
167169  1  0
164170  1  0
170171  2  0
170172  1  0
172173  1  0
173174  1  0
174175  1  0
175176  1  0
176177  1  0
177178  1  0
178179  1  0
179180  1  0
173181  1  0
173182  1  1
182183  2  0
182184  1  0
184185  1  0
185186  1  0
186187  1  0
187188  1  0
188189  1  0
188190  2  0
185191  1  0
191192  2  0
191193  1  0
193194  1  0
194195  1  0
195196  1  0
196197  1  0
197198  1  0
198199  1  0
199200  2  3
199201  1  0
194202  1  0
202203  2  0
202204  1  0
  8  3  1  0
149141  1  0
 11  6  1  0
101144  2  0
180149  2  0
 18 13  2  0
 22  9  1  0
 26 21  1  0
  2205  1  0
  4206  1  0
  5207  1  0
  8208  1  0
 15209  1  0
 17210  1  0
 18211  1  0
 19212  1  0
 23213  1  0
 24214  1  0
 26215  1  0
 27216  1  0
 29217  1  0
 30218  1  0
 30219  1  0
 31220  1  0
 31221  1  0
 34222  1  0
 35223  1  1
 36224  1  6
 37225  1  0
 38226  1  0
 38227  1  0
 38228  1  0
 41229  1  0
 42230  1  1
 43231  1  0
 43232  1  0
 44233  1  0
 44234  1  0
 45235  1  0
 45236  1  0
 46237  1  0
 48238  1  0
 49239  1  0
 49240  1  0
 52241  1  0
 53242  1  1
 54243  1  0
 54244  1  0
 55245  1  0
 55246  1  0
 57247  1  0
 57248  1  0
 61249  1  0
 62250  1  1
 63251  1  0
 63252  1  0
 63253  1  0
 66254  1  0
 67255  1  1
 68256  1  0
 68257  1  0
 69258  1  0
 69259  1  0
 70260  1  0
 70261  1  0
 71262  1  0
 73263  1  0
 74264  1  0
 74265  1  0
 77266  1  0
 78267  1  1
 79268  1  0
 79269  1  0
 80270  1  0
 80271  1  0
 81272  1  0
 81273  1  0
 82274  1  0
 84275  1  0
 85276  1  0
 85277  1  0
 88278  1  0
 89279  1  1
 90280  1  0
 90281  1  0
 92282  1  0
 92283  1  0
 96284  1  0
 98285  1  0
 98286  1  0
 99287  1  0
 99288  1  0
100289  1  0
100290  1  0
101291  1  0
102292  1  0
102293  1  0
102294  1  0
105295  1  0
106296  1  6
107297  1  0
107298  1  0
108299  1  0
108300  1  0
109301  1  0
109302  1  0
110303  1  0
112304  1  0
113305  1  0
113306  1  0
116307  1  0
117308  1  6
118309  1  0
118310  1  0
119311  1  0
119312  1  0
120313  1  0
120314  1  0
121315  1  0
123316  1  0
124317  1  0
124318  1  0
127319  1  0
128320  1  6
129321  1  0
129322  1  0
130323  1  0
130324  1  0
131325  1  0
131326  1  0
132327  1  0
134328  1  0
135329  1  0
135330  1  0
138331  1  0
139332  1  1
140333  1  0
140334  1  0
142335  1  0
143336  1  0
145337  1  0
146338  1  0
147339  1  0
148340  1  0
152341  1  0
153342  1  6
154343  1  0
154344  1  0
155345  1  0
155346  1  0
156347  1  0
156348  1  0
157349  1  0
159350  1  0
160351  1  0
160352  1  0
163353  1  0
164354  1  6
165355  1  0
165356  1  0
166357  1  0
166358  1  0
169359  1  0
172360  1  0
174361  1  0
174362  1  0
175363  1  0
175364  1  0
176365  1  0
176366  1  0
177367  1  0
177368  1  0
178369  1  0
178370  1  0
179371  1  0
179372  1  0
180373  1  0
181374  1  0
181375  1  0
181376  1  0
184377  1  0
185378  1  6
186379  1  0
186380  1  0
187381  1  0
187382  1  0
189383  1  0
189384  1  0
193385  1  0
194386  1  1
195387  1  0
195388  1  0
196389  1  0
196390  1  0
197391  1  0
197392  1  0
198393  1  0
200394  1  0
201395  1  0
201396  1  0
204397  1  0
M  END
