
     RDKit          2D

330342  0  0  0  0  0  0  0  0999 V2000
  -27.5095   -4.3757    0.0000 C   0  0  0  0  0  0  0  0  0  0  0  0
  -28.3008   -5.6501    0.0000 N   0  0  0  0  0  0  0  0  0  0  0  0
  -29.8000   -5.6020    0.0000 C   0  0  0  0  0  0  0  0  0  0  0  0
  -30.5080   -4.2796    0.0000 C   0  0  0  0  0  0  0  0  0  0  0  0
  -32.0072   -4.2315    0.0000 C   0  0  0  0  0  0  0  0  0  0  0  0
  -32.7985   -5.5058    0.0000 C   0  0  0  0  0  0  0  0  0  0  0  0
  -32.0905   -6.8282    0.0000 C   0  0  0  0  0  0  0  0  0  0  0  0
  -30.5913   -6.8763    0.0000 C   0  0  0  0  0  0  0  0  0  0  0  0
  -33.1294   -7.9102    0.0000 C   0  0  0  0  0  0  0  0  0  0  0  0
  -34.4795   -7.2565    0.0000 O   0  0  0  0  0  0  0  0  0  0  0  0
  -34.2749   -5.7705    0.0000 C   0  0  0  0  0  0  0  0  0  0  0  0
  -35.3569   -4.7316    0.0000 O   0  0  0  0  0  0  0  0  0  0  0  0
  -34.2757   -8.8777    0.0000 C   0  0  0  0  0  0  0  0  0  0  0  0
  -34.0110  -10.3541    0.0000 C   0  0  0  0  0  0  0  0  0  0  0  0
  -35.1574  -11.3216    0.0000 C   0  0  0  0  0  0  0  0  0  0  0  0
  -36.5684  -10.8126    0.0000 C   0  0  0  0  0  0  0  0  0  0  0  0
  -36.8330   -9.3361    0.0000 C   0  0  0  0  0  0  0  0  0  0  0  0
  -35.6867   -8.3687    0.0000 C   0  0  0  0  0  0  0  0  0  0  0  0
  -37.7147  -11.7800    0.0000 O   0  0  0  0  0  0  0  0  0  0  0  0
  -32.6000  -10.8631    0.0000 O   0  0  0  0  0  0  0  0  0  0  0  0
  -31.4537   -9.8957    0.0000 C   0  0  0  0  0  0  0  0  0  0  0  0
  -31.7184   -8.4192    0.0000 C   0  0  0  0  0  0  0  0  0  0  0  0
  -30.4486   -8.1408    0.0000 C   0  0  0  0  0  0  0  0  0  0  0  0
  -29.6960   -8.4123    0.0000 C   0  0  0  0  0  0  0  0  0  0  0  0
  -29.5549   -9.1997    0.0000 C   0  0  0  0  0  0  0  0  0  0  0  0
  -30.1663   -9.7157    0.0000 C   0  0  0  0  0  0  0  0  0  0  0  0
  -27.4854   -9.9463    0.0000 O   0  0  0  0  0  0  0  0  0  0  0  0
  -28.2175   -3.0533    0.0000 S   0  0  0  0  0  0  0  0  0  0  0  0
  -26.0103   -4.4238    0.0000 N   0  0  0  0  0  0  0  0  0  0  0  0
  -25.2190   -3.1495    0.0000 C   0  0  0  0  0  0  0  0  0  0  0  0
  -23.7198   -3.1976    0.0000 C   0  0  0  0  0  0  0  0  0  0  0  0
  -22.9286   -1.9232    0.0000 C   0  0  0  0  0  0  0  0  0  0  0  0
  -23.6365   -0.6008    0.0000 O   0  0  0  0  0  0  0  0  0  0  0  0
  -21.4293   -1.9713    0.0000 N   0  0  0  0  0  0  0  0  0  0  0  0
  -20.6381   -0.6970    0.0000 C   0  0  0  0  0  0  0  0  0  0  0  0
  -20.3304    0.7711    0.0000 C   0  0  0  0  0  0  0  0  0  0  0  0
  -19.1388   -0.7451    0.0000 C   0  0  0  0  0  0  0  0  0  0  0  0
  -18.5973   -2.1439    0.0000 O   0  0  0  0  0  0  0  0  0  0  0  0
  -18.3476    0.5293    0.0000 N   0  0  0  0  0  0  0  0  0  0  0  0
  -16.8484    0.4812    0.0000 C   0  0  0  0  0  0  0  0  0  0  0  0
  -15.8924   -0.6747    0.0000 C   0  0  0  0  0  0  0  0  0  0  0  0
  -14.6382   -1.4975    0.0000 C   0  0  0  0  0  0  0  0  0  0  0  0
  -13.1972   -1.9141    0.0000 C   0  0  0  0  0  0  0  0  0  0  0  0
  -11.6974   -1.8873    0.0000 C   0  0  0  0  0  0  0  0  0  0  0  0
  -17.6680   -0.7751    0.0000 C   0  0  0  0  0  0  0  0  0  0  0  0
  -17.4212    1.8675    0.0000 C   0  0  0  0  0  0  0  0  0  0  0  0
  -18.9211    1.8708    0.0000 O   0  0  0  0  0  0  0  0  0  0  0  0
  -17.5599    3.3611    0.0000 N   0  0  0  0  0  0  0  0  0  0  0  0
  -17.2522    4.8292    0.0000 C   0  0  0  0  0  0  0  0  0  0  0  0
  -18.1493    6.0313    0.0000 C   0  0  0  0  0  0  0  0  0  0  0  0
  -19.6390    5.8554    0.0000 O   0  0  0  0  0  0  0  0  0  0  0  0
  -16.5254    6.1414    0.0000 C   0  0  0  0  0  0  0  0  0  0  0  0
  -17.7146    7.0556    0.0000 O   0  0  0  0  0  0  0  0  0  0  0  0
  -15.4442    7.1810    0.0000 N   0  0  0  0  0  0  0  0  0  0  0  0
  -14.1045    7.8558    0.0000 C   0  0  0  0  0  0  0  0  0  0  0  0
  -13.7241    9.3068    0.0000 C   0  0  0  0  0  0  0  0  0  0  0  0
  -14.7904   10.3617    0.0000 C   0  0  0  0  0  0  0  0  0  0  0  0
  -12.6255    8.1058    0.0000 C   0  0  0  0  0  0  0  0  0  0  0  0
  -12.6522    9.6055    0.0000 O   0  0  0  0  0  0  0  0  0  0  0  0
  -11.1385    7.9086    0.0000 N   0  0  0  0  0  0  0  0  0  0  0  0
   -9.7757    7.2820    0.0000 C   0  0  0  0  0  0  0  0  0  0  0  0
   -8.4041    7.8892    0.0000 C   0  0  0  0  0  0  0  0  0  0  0  0
   -8.2441    9.3806    0.0000 C   0  0  0  0  0  0  0  0  0  0  0  0
   -6.8725    9.9878    0.0000 C   0  0  0  0  0  0  0  0  0  0  0  0
   -6.7125   11.4792    0.0000 C   0  0  0  0  0  0  0  0  0  0  0  0
   -7.9241   12.3635    0.0000 C   0  0  0  0  0  0  0  0  0  0  0  0
   -9.2957   11.7563    0.0000 C   0  0  0  0  0  0  0  0  0  0  0  0
   -9.4557   10.2649    0.0000 C   0  0  0  0  0  0  0  0  0  0  0  0
   -8.6581    6.2815    0.0000 C   0  0  0  0  0  0  0  0  0  0  0  0
   -7.5022    7.2374    0.0000 O   0  0  0  0  0  0  0  0  0  0  0  0
   -7.8851    4.9960    0.0000 N   0  0  0  0  0  0  0  0  0  0  0  0
   -7.5253    3.5398    0.0000 C   0  0  0  0  0  0  0  0  0  0  0  0
   -7.6108    2.0422    0.0000 C   0  0  0  0  0  0  0  0  0  0  0  0
   -8.1338    0.6364    0.0000 C   0  0  0  0  0  0  0  0  0  0  0  0
   -9.0480   -0.5528    0.0000 C   0  0  0  0  0  0  0  0  0  0  0  0
  -10.2722   -1.4198    0.0000 C   0  0  0  0  0  0  0  0  0  0  0  0
   -6.3460    4.4666    0.0000 C   0  0  0  0  0  0  0  0  0  0  0  0
   -6.1954    2.8460    0.0000 C   0  0  0  0  0  0  0  0  0  0  0  0
   -5.7706    1.4074    0.0000 O   0  0  0  0  0  0  0  0  0  0  0  0
   -4.9296    3.6508    0.0000 N   0  0  0  0  0  0  0  0  0  0  0  0
   -3.5997    2.9570    0.0000 C   0  0  0  0  0  0  0  0  0  0  0  0
   -2.5873    1.8502    0.0000 C   0  0  0  0  0  0  0  0  0  0  0  0
   -3.0397    0.4200    0.0000 C   0  0  0  0  0  0  0  0  0  0  0  0
   -2.0273   -0.6868    0.0000 N   0  0  0  0  0  0  0  0  0  0  0  0
   -4.5044    0.0966    0.0000 O   0  0  0  0  0  0  0  0  0  0  0  0
   -2.3339    3.7618    0.0000 C   0  0  0  0  0  0  0  0  0  0  0  0
   -2.3980    5.2604    0.0000 O   0  0  0  0  0  0  0  0  0  0  0  0
   -1.0040    3.0680    0.0000 N   0  0  0  0  0  0  0  0  0  0  0  0
    0.2618    3.8728    0.0000 C   0  0  0  0  0  0  0  0  0  0  0  0
    1.1760    5.0620    0.0000 C   0  0  0  0  0  0  0  0  0  0  0  0
    2.6630    4.8649    0.0000 C   0  0  0  0  0  0  0  0  0  0  0  0
    3.2358    3.4786    0.0000 C   0  0  0  0  0  0  0  0  0  0  0  0
    4.7227    3.2815    0.0000 C   0  0  0  0  0  0  0  0  0  0  0  0
    5.6370    4.4707    0.0000 C   0  0  0  0  0  0  0  0  0  0  0  0
    7.1239    4.2736    0.0000 O   0  0  0  0  0  0  0  0  0  0  0  0
    5.0642    5.8570    0.0000 C   0  0  0  0  0  0  0  0  0  0  0  0
    3.5772    6.0541    0.0000 C   0  0  0  0  0  0  0  0  0  0  0  0
    1.5917    3.1790    0.0000 C   0  0  0  0  0  0  0  0  0  0  0  0
    1.2912    1.7094    0.0000 O   0  0  0  0  0  0  0  0  0  0  0  0
    2.8575    3.9838    0.0000 N   0  0  0  0  0  0  0  0  0  0  0  0
    4.1874    3.2900    0.0000 C   0  0  0  0  0  0  0  0  0  0  0  0
    5.1998    2.1832    0.0000 C   0  0  0  0  0  0  0  0  0  0  0  0
    4.7474    0.7530    0.0000 C   0  0  0  0  0  0  0  0  0  0  0  0
    3.2827    0.4297    0.0000 C   0  0  0  0  0  0  0  0  0  0  0  0
    2.8304   -1.0005    0.0000 C   0  0  0  0  0  0  0  0  0  0  0  0
    3.8428   -2.1073    0.0000 C   0  0  0  0  0  0  0  0  0  0  0  0
    5.3075   -1.7840    0.0000 C   0  0  0  0  0  0  0  0  0  0  0  0
    5.7598   -0.3538    0.0000 C   0  0  0  0  0  0  0  0  0  0  0  0
    5.4532    4.0948    0.0000 C   0  0  0  0  0  0  0  0  0  0  0  0
    5.7536    5.5644    0.0000 O   0  0  0  0  0  0  0  0  0  0  0  0
    6.7831    3.4010    0.0000 N   0  0  0  0  0  0  0  0  0  0  0  0
    8.0489    4.2058    0.0000 C   0  0  0  0  0  0  0  0  0  0  0  0
    8.9631    5.3950    0.0000 C   0  0  0  0  0  0  0  0  0  0  0  0
   10.4501    5.1979    0.0000 C   0  0  0  0  0  0  0  0  0  0  0  0
   11.4836    6.2851    0.0000 C   0  0  0  0  0  0  0  0  0  0  0  0
   12.8369    5.6381    0.0000 N   0  0  0  0  0  0  0  0  0  0  0  0
   12.6398    4.1511    0.0000 C   0  0  0  0  0  0  0  0  0  0  0  0
   11.1646    3.8791    0.0000 N   0  0  0  0  0  0  0  0  0  0  0  0
    9.3788    3.5120    0.0000 C   0  0  0  0  0  0  0  0  0  0  0  0
    9.4429    2.0134    0.0000 O   0  0  0  0  0  0  0  0  0  0  0  0
   10.6446    4.3168    0.0000 N   0  0  0  0  0  0  0  0  0  0  0  0
   11.9745    3.6230    0.0000 C   0  0  0  0  0  0  0  0  0  0  0  0
   12.9869    2.5162    0.0000 C   0  0  0  0  0  0  0  0  0  0  0  0
   12.5345    1.0860    0.0000 O   0  0  0  0  0  0  0  0  0  0  0  0
   13.2403    4.4279    0.0000 C   0  0  0  0  0  0  0  0  0  0  0  0
   13.5407    5.8975    0.0000 O   0  0  0  0  0  0  0  0  0  0  0  0
   14.5702    3.7340    0.0000 N   0  0  0  0  0  0  0  0  0  0  0  0
   15.8360    4.5389    0.0000 C   0  0  0  0  0  0  0  0  0  0  0  0
   16.7502    5.7281    0.0000 C   0  0  0  0  0  0  0  0  0  0  0  0
   18.2407    5.8966    0.0000 C   0  0  0  0  0  0  0  0  0  0  0  0
   17.1659    3.8451    0.0000 C   0  0  0  0  0  0  0  0  0  0  0  0
   17.2300    2.3464    0.0000 O   0  0  0  0  0  0  0  0  0  0  0  0
   18.4317    4.6499    0.0000 N   0  0  0  0  0  0  0  0  0  0  0  0
   18.5246    6.1470    0.0000 C   0  0  0  0  0  0  0  0  0  0  0  0
   19.9772    6.5213    0.0000 C   0  0  0  0  0  0  0  0  0  0  0  0
   20.7820    5.2555    0.0000 C   0  0  0  0  0  0  0  0  0  0  0  0
   19.8268    4.0989    0.0000 C   0  0  0  0  0  0  0  0  0  0  0  0
   21.0769    3.2699    0.0000 C   0  0  0  0  0  0  0  0  0  0  0  0
   22.4913    3.7693    0.0000 O   0  0  0  0  0  0  0  0  0  0  0  0
   20.9840    1.7727    0.0000 N   0  0  0  0  0  0  0  0  0  0  0  0
   22.2341    0.9437    0.0000 C   0  0  0  0  0  0  0  0  0  0  0  0
   23.6923    0.5922    0.0000 C   0  0  0  0  0  0  0  0  0  0  0  0
   24.1171   -0.8464    0.0000 C   0  0  0  0  0  0  0  0  0  0  0  0
   23.0836   -1.9335    0.0000 C   0  0  0  0  0  0  0  0  0  0  0  0
   23.5083   -3.3721    0.0000 C   0  0  0  0  0  0  0  0  0  0  0  0
   24.9666   -3.7236    0.0000 C   0  0  0  0  0  0  0  0  0  0  0  0
   25.3913   -5.1622    0.0000 O   0  0  0  0  0  0  0  0  0  0  0  0
   26.0001   -2.6364    0.0000 C   0  0  0  0  0  0  0  0  0  0  0  0
   25.5753   -1.1978    0.0000 C   0  0  0  0  0  0  0  0  0  0  0  0
   22.1412   -0.5534    0.0000 C   0  0  0  0  0  0  0  0  0  0  0  0
   20.6764   -0.8767    0.0000 O   0  0  0  0  0  0  0  0  0  0  0  0
   23.3913   -1.3824    0.0000 N   0  0  0  0  0  0  0  0  0  0  0  0
   23.2984   -2.8796    0.0000 C   0  0  0  0  0  0  0  0  0  0  0  0
   22.6990   -4.2546    0.0000 C   0  0  0  0  0  0  0  0  0  0  0  0
   21.2085   -4.4231    0.0000 C   0  0  0  0  0  0  0  0  0  0  0  0
   20.3174   -3.2165    0.0000 C   0  0  0  0  0  0  0  0  0  0  0  0
   18.8268   -3.3850    0.0000 C   0  0  0  0  0  0  0  0  0  0  0  0
   18.2275   -4.7600    0.0000 C   0  0  0  0  0  0  0  0  0  0  0  0
   19.1187   -5.9666    0.0000 C   0  0  0  0  0  0  0  0  0  0  0  0
   20.6092   -5.7981    0.0000 C   0  0  0  0  0  0  0  0  0  0  0  0
   24.5485   -3.7086    0.0000 C   0  0  0  0  0  0  0  0  0  0  0  0
   26.0132   -3.3853    0.0000 O   0  0  0  0  0  0  0  0  0  0  0  0
   24.4556   -5.2057    0.0000 N   0  0  0  0  0  0  0  0  0  0  0  0
   25.7056   -6.0347    0.0000 C   0  0  0  0  0  0  0  0  0  0  0  0
   27.1639   -6.3862    0.0000 C   0  0  0  0  0  0  0  0  0  0  0  0
   27.5886   -7.8248    0.0000 C   0  0  0  0  0  0  0  0  0  0  0  0
   29.0469   -8.1763    0.0000 C   0  0  0  0  0  0  0  0  0  0  0  0
   29.6438   -9.5524    0.0000 O   0  0  0  0  0  0  0  0  0  0  0  0
   30.0804   -7.0891    0.0000 O   0  0  0  0  0  0  0  0  0  0  0  0
   25.6127   -7.5318    0.0000 C   0  0  0  0  0  0  0  0  0  0  0  0
   24.2697   -8.1999    0.0000 O   0  0  0  0  0  0  0  0  0  0  0  0
   26.8628   -8.3609    0.0000 N   0  0  0  0  0  0  0  0  0  0  0  0
   26.7699   -9.8580    0.0000 C   0  0  0  0  0  0  0  0  0  0  0  0
   26.1706  -11.2330    0.0000 C   0  0  0  0  0  0  0  0  0  0  0  0
   24.6801  -11.4015    0.0000 C   0  0  0  0  0  0  0  0  0  0  0  0
   24.0807  -12.7766    0.0000 C   0  0  0  0  0  0  0  0  0  0  0  0
   23.2218  -11.0500    0.0000 C   0  0  0  0  0  0  0  0  0  0  0  0
   28.0200  -10.6870    0.0000 C   0  0  0  0  0  0  0  0  0  0  0  0
   28.1103  -12.1843    0.0000 O   0  0  0  0  0  0  0  0  0  0  0  0
   29.4344  -10.1876    0.0000 O   0  0  0  0  0  0  0  0  0  0  0  0
  -27.4369   -6.8763    0.0000 H   0  0  0  0  0  0  0  0  0  0  0  0
  -29.7167   -3.0053    0.0000 H   0  0  0  0  0  0  0  0  0  0  0  0
  -32.7152   -2.9091    0.0000 H   0  0  0  0  0  0  0  0  0  0  0  0
  -29.5843   -7.9881    0.0000 H   0  0  0  0  0  0  0  0  0  0  0  0
  -34.8927  -12.7980    0.0000 H   0  0  0  0  0  0  0  0  0  0  0  0
  -38.2440   -8.8271    0.0000 H   0  0  0  0  0  0  0  0  0  0  0  0
  -35.9514   -6.8922    0.0000 H   0  0  0  0  0  0  0  0  0  0  0  0
  -39.1257  -11.2710    0.0000 H   0  0  0  0  0  0  0  0  0  0  0  0
  -30.8368   -5.9753    0.0000 H   0  0  0  0  0  0  0  0  0  0  0  0
  -27.9054   -7.1403    0.0000 H   0  0  0  0  0  0  0  0  0  0  0  0
  -29.7781  -11.8812    0.0000 H   0  0  0  0  0  0  0  0  0  0  0  0
  -27.2207  -11.4227    0.0000 H   0  0  0  0  0  0  0  0  0  0  0  0
  -25.3023   -5.7462    0.0000 H   0  0  0  0  0  0  0  0  0  0  0  0
  -24.9114   -1.6814    0.0000 H   0  0  0  0  0  0  0  0  0  0  0  0
  -26.6114   -2.5916    0.0000 H   0  0  0  0  0  0  0  0  0  0  0  0
  -22.3274   -3.7555    0.0000 H   0  0  0  0  0  0  0  0  0  0  0  0
  -24.0275   -4.6657    0.0000 H   0  0  0  0  0  0  0  0  0  0  0  0
  -20.7214   -3.2937    0.0000 H   0  0  0  0  0  0  0  0  0  0  0  0
  -22.0304   -0.1391    0.0000 H   0  0  0  0  0  0  0  0  0  0  0  0
  -19.2916    1.8532    0.0000 H   0  0  0  0  0  0  0  0  0  0  0  0
  -20.5434    2.2559    0.0000 H   0  0  0  0  0  0  0  0  0  0  0  0
  -21.8296    0.8192    0.0000 H   0  0  0  0  0  0  0  0  0  0  0  0
  -19.0556    1.8517    0.0000 H   0  0  0  0  0  0  0  0  0  0  0  0
  -17.2801   -1.2441    0.0000 H   0  0  0  0  0  0  0  0  0  0  0  0
  -16.1265   -2.1564    0.0000 H   0  0  0  0  0  0  0  0  0  0  0  0
  -15.6716   -2.5847    0.0000 H   0  0  0  0  0  0  0  0  0  0  0  0
  -14.6078   -2.9972    0.0000 H   0  0  0  0  0  0  0  0  0  0  0  0
  -14.0231   -3.1662    0.0000 H   0  0  0  0  0  0  0  0  0  0  0  0
  -12.5560   -3.2701    0.0000 H   0  0  0  0  0  0  0  0  0  0  0  0
  -11.4475   -3.3664    0.0000 H   0  0  0  0  0  0  0  0  0  0  0  0
  -17.0255   -2.3121    0.0000 H   0  0  0  0  0  0  0  0  0  0  0  0
  -18.4454   -2.0092    0.0000 H   0  0  0  0  0  0  0  0  0  0  0  0
  -18.8812   -0.2596    0.0000 H   0  0  0  0  0  0  0  0  0  0  0  0
  -19.0574    3.4465    0.0000 H   0  0  0  0  0  0  0  0  0  0  0  0
  -18.7169    4.5058    0.0000 H   0  0  0  0  0  0  0  0  0  0  0  0
  -18.5812    7.4678    0.0000 H   0  0  0  0  0  0  0  0  0  0  0  0
  -17.0128    7.0102    0.0000 H   0  0  0  0  0  0  0  0  0  0  0  0
  -20.5362    7.0575    0.0000 H   0  0  0  0  0  0  0  0  0  0  0  0
  -16.3111    8.4052    0.0000 H   0  0  0  0  0  0  0  0  0  0  0  0
  -15.3769    8.6502    0.0000 H   0  0  0  0  0  0  0  0  0  0  0  0
  -12.8703   10.5401    0.0000 H   0  0  0  0  0  0  0  0  0  0  0  0
  -12.2501    9.0285    0.0000 H   0  0  0  0  0  0  0  0  0  0  0  0
  -14.4099   11.8127    0.0000 H   0  0  0  0  0  0  0  0  0  0  0  0
  -16.1532   10.9884    0.0000 H   0  0  0  0  0  0  0  0  0  0  0  0
  -15.7881    9.2417    0.0000 H   0  0  0  0  0  0  0  0  0  0  0  0
  -10.9007    9.3897    0.0000 H   0  0  0  0  0  0  0  0  0  0  0  0
   -9.7650    8.7820    0.0000 H   0  0  0  0  0  0  0  0  0  0  0  0
   -6.9075    7.9906    0.0000 H   0  0  0  0  0  0  0  0  0  0  0  0
   -7.7026    6.5633    0.0000 H   0  0  0  0  0  0  0  0  0  0  0  0
   -5.6608    9.1035    0.0000 H   0  0  0  0  0  0  0  0  0  0  0  0
   -5.3409   12.0864    0.0000 H   0  0  0  0  0  0  0  0  0  0  0  0
   -7.7641   13.8549    0.0000 H   0  0  0  0  0  0  0  0  0  0  0  0
  -10.5074   12.6406    0.0000 H   0  0  0  0  0  0  0  0  0  0  0  0
  -10.8911    9.8294    0.0000 H   0  0  0  0  0  0  0  0  0  0  0  0
   -6.4988    5.5688    0.0000 H   0  0  0  0  0  0  0  0  0  0  0  0
   -6.5445    0.9872    0.0000 H   0  0  0  0  0  0  0  0  0  0  0  0
   -6.1220    2.2255    0.0000 H   0  0  0  0  0  0  0  0  0  0  0  0
   -7.2699   -0.5899    0.0000 H   0  0  0  0  0  0  0  0  0  0  0  0
   -6.6572    0.3727    0.0000 H   0  0  0  0  0  0  0  0  0  0  0  0
   -8.7613   -2.0252    0.0000 H   0  0  0  0  0  0  0  0  0  0  0  0
   -7.6409   -1.0724    0.0000 H   0  0  0  0  0  0  0  0  0  0  0  0
   -9.5974   -2.7594    0.0000 H   0  0  0  0  0  0  0  0  0  0  0  0
   -4.8600    4.2622    0.0000 H   0  0  0  0  0  0  0  0  0  0  0  0
   -5.7159    5.8279    0.0000 H   0  0  0  0  0  0  0  0  0  0  0  0
   -7.1882    5.7078    0.0000 H   0  0  0  0  0  0  0  0  0  0  0  0
   -4.8106    5.1461    0.0000 H   0  0  0  0  0  0  0  0  0  0  0  0
   -4.5139    1.7678    0.0000 H   0  0  0  0  0  0  0  0  0  0  0  0
   -1.3519    0.9994    0.0000 H   0  0  0  0  0  0  0  0  0  0  0  0
   -1.4125    2.7828    0.0000 H   0  0  0  0  0  0  0  0  0  0  0  0
   -2.4796   -2.1170    0.0000 H   0  0  0  0  0  0  0  0  0  0  0  0
   -0.5625   -0.3635    0.0000 H   0  0  0  0  0  0  0  0  0  0  0  0
   -0.7577    1.5883    0.0000 H   0  0  0  0  0  0  0  0  0  0  0  0
   -0.7506    4.9796    0.0000 H   0  0  0  0  0  0  0  0  0  0  0  0
    1.6283    6.4922    0.0000 H   0  0  0  0  0  0  0  0  0  0  0  0
   -0.1539    5.7558    0.0000 H   0  0  0  0  0  0  0  0  0  0  0  0
    2.3216    2.2894    0.0000 H   0  0  0  0  0  0  0  0  0  0  0  0
    5.6140    2.0749    0.0000 H   0  0  0  0  0  0  0  0  0  0  0  0
    7.8864    5.5653    0.0000 H   0  0  0  0  0  0  0  0  0  0  0  0
    5.9784    7.0462    0.0000 H   0  0  0  0  0  0  0  0  0  0  0  0
    3.0044    7.4404    0.0000 H   0  0  0  0  0  0  0  0  0  0  0  0
    3.1579    5.4534    0.0000 H   0  0  0  0  0  0  0  0  0  0  0  0
    3.2732    2.1008    0.0000 H   0  0  0  0  0  0  0  0  0  0  0  0
    6.4352    1.3324    0.0000 H   0  0  0  0  0  0  0  0  0  0  0  0
    6.3746    3.1158    0.0000 H   0  0  0  0  0  0  0  0  0  0  0  0
    2.0326    1.2586    0.0000 H   0  0  0  0  0  0  0  0  0  0  0  0
    1.3656   -1.3239    0.0000 H   0  0  0  0  0  0  0  0  0  0  0  0
    3.3904   -3.5375    0.0000 H   0  0  0  0  0  0  0  0  0  0  0  0
    6.3199   -2.8908    0.0000 H   0  0  0  0  0  0  0  0  0  0  0  0
    7.2246   -0.0305    0.0000 H   0  0  0  0  0  0  0  0  0  0  0  0
    7.0294    1.9214    0.0000 H   0  0  0  0  0  0  0  0  0  0  0  0
    7.0365    5.3127    0.0000 H   0  0  0  0  0  0  0  0  0  0  0  0
    9.4154    6.8252    0.0000 H   0  0  0  0  0  0  0  0  0  0  0  0
    7.7277    6.2458    0.0000 H   0  0  0  0  0  0  0  0  0  0  0  0
   11.2115    7.7602    0.0000 H   0  0  0  0  0  0  0  0  0  0  0  0
   14.1557    6.3527    0.0000 H   0  0  0  0  0  0  0  0  0  0  0  0
   13.8448    3.2578    0.0000 H   0  0  0  0  0  0  0  0  0  0  0  0
   10.9450    5.7864    0.0000 H   0  0  0  0  0  0  0  0  0  0  0  0
   11.0603    2.4338    0.0000 H   0  0  0  0  0  0  0  0  0  0  0  0
   14.2223    1.6655    0.0000 H   0  0  0  0  0  0  0  0  0  0  0  0
   14.2666    3.2987    0.0000 H   0  0  0  0  0  0  0  0  0  0  0  0
   13.5469   -0.0208    0.0000 H   0  0  0  0  0  0  0  0  0  0  0  0
   14.8165    2.2544    0.0000 H   0  0  0  0  0  0  0  0  0  0  0  0
   14.8236    5.6457    0.0000 H   0  0  0  0  0  0  0  0  0  0  0  0
   17.2025    7.1582    0.0000 H   0  0  0  0  0  0  0  0  0  0  0  0
   15.4203    6.4219    0.0000 H   0  0  0  0  0  0  0  0  0  0  0  0
   19.1514    6.7202    0.0000 H   0  0  0  0  0  0  0  0  0  0  0  0
   19.7840    5.1896    0.0000 H   0  0  0  0  0  0  0  0  0  0  0  0
   18.6815    4.0970    0.0000 H   0  0  0  0  0  0  0  0  0  0  0  0
   17.0550    6.4474    0.0000 H   0  0  0  0  0  0  0  0  0  0  0  0
   18.3042    7.6307    0.0000 H   0  0  0  0  0  0  0  0  0  0  0  0
   19.4531    7.9267    0.0000 H   0  0  0  0  0  0  0  0  0  0  0  0
   21.3202    7.1894    0.0000 H   0  0  0  0  0  0  0  0  0  0  0  0
   21.9567    6.1882    0.0000 H   0  0  0  0  0  0  0  0  0  0  0  0
   21.9551    4.3207    0.0000 H   0  0  0  0  0  0  0  0  0  0  0  0
   19.1330    2.7690    0.0000 H   0  0  0  0  0  0  0  0  0  0  0  0
   19.6410    1.1046    0.0000 H   0  0  0  0  0  0  0  0  0  0  0  0
   22.8335    2.3188    0.0000 H   0  0  0  0  0  0  0  0  0  0  0  0
   25.1829    0.7607    0.0000 H   0  0  0  0  0  0  0  0  0  0  0  0
   23.7853    2.0894    0.0000 H   0  0  0  0  0  0  0  0  0  0  0  0
   21.6253   -1.5820    0.0000 H   0  0  0  0  0  0  0  0  0  0  0  0
   22.7686   -4.6770    0.0000 H   0  0  0  0  0  0  0  0  0  0  0  0
   26.8815   -5.3333    0.0000 H   0  0  0  0  0  0  0  0  0  0  0  0
   27.4583   -2.9879    0.0000 H   0  0  0  0  0  0  0  0  0  0  0  0
   26.6088   -0.1107    0.0000 H   0  0  0  0  0  0  0  0  0  0  0  0
   24.8560   -1.0592    0.0000 H   0  0  0  0  0  0  0  0  0  0  0  0
   21.8401   -2.5281    0.0000 H   0  0  0  0  0  0  0  0  0  0  0  0
   22.4243   -5.7292    0.0000 H   0  0  0  0  0  0  0  0  0  0  0  0
   24.0289   -4.9485    0.0000 H   0  0  0  0  0  0  0  0  0  0  0  0
   20.5662   -1.7373    0.0000 H   0  0  0  0  0  0  0  0  0  0  0  0
   17.9357   -2.1784    0.0000 H   0  0  0  0  0  0  0  0  0  0  0  0
   16.7370   -4.9285    0.0000 H   0  0  0  0  0  0  0  0  0  0  0  0
   18.5193   -7.3417    0.0000 H   0  0  0  0  0  0  0  0  0  0  0  0
   21.5003   -7.0047    0.0000 H   0  0  0  0  0  0  0  0  0  0  0  0
   23.2040   -6.0325    0.0000 H   0  0  0  0  0  0  0  0  0  0  0  0
   26.3050   -4.6597    0.0000 H   0  0  0  0  0  0  0  0  0  0  0  0
   28.6544   -6.2177    0.0000 H   0  0  0  0  0  0  0  0  0  0  0  0
   27.4386   -4.9116    0.0000 H   0  0  0  0  0  0  0  0  0  0  0  0
   27.4957   -9.3219    0.0000 H   0  0  0  0  0  0  0  0  0  0  0  0
   26.3518   -8.6734    0.0000 H   0  0  0  0  0  0  0  0  0  0  0  0
   28.3276   -8.0376    0.0000 H   0  0  0  0  0  0  0  0  0  0  0  0
   25.3654   -9.3314    0.0000 H   0  0  0  0  0  0  0  0  0  0  0  0
   26.2608  -12.7303    0.0000 H   0  0  0  0  0  0  0  0  0  0  0  0
   27.5751  -11.7596    0.0000 H   0  0  0  0  0  0  0  0  0  0  0  0
   24.5898   -9.9042    0.0000 H   0  0  0  0  0  0  0  0  0  0  0  0
   22.6218  -13.1255    0.0000 H   0  0  0  0  0  0  0  0  0  0  0  0
   23.9878  -14.2737    0.0000 H   0  0  0  0  0  0  0  0  0  0  0  0
   25.4852  -13.3032    0.0000 H   0  0  0  0  0  0  0  0  0  0  0  0
   22.0635  -12.0031    0.0000 H   0  0  0  0  0  0  0  0  0  0  0  0
   21.9717  -10.2210    0.0000 H   0  0  0  0  0  0  0  0  0  0  0  0
   23.8212   -9.6750    0.0000 H   0  0  0  0  0  0  0  0  0  0  0  0
  1  2  1  0
  2  3  1  0
  3  4  2  0
  4  5  1  0
  5  6  2  0
  6  7  1  0
  7  8  2  0
  7  9  1  0
  9 10  1  0
 10 11  1  0
 11 12  2  0
  9 13  1  0
 13 14  1  0
 14 15  2  0
 15 16  1  0
 16 17  2  0
 17 18  1  0
 16 19  1  0
 14 20  1  0
 20 21  1  0
 21 22  2  0
 22 23  1  0
 23 24  2  0
 24 25  1  0
 25 26  2  0
 25 27  1  0
  1 28  2  0
  1 29  1  0
 29 30  1  0
 30 31  1  0
 31 32  1  0
 32 33  2  0
 32 34  1  0
 34 35  1  0
 35 36  1  0
 35 37  1  0
 37 38  2  0
 37 39  1  0
 40 39  1  6
 40 41  1  0
 41 42  1  0
 42 43  1  0
 43 44  1  0
 40 45  1  0
 40 46  1  0
 46 47  2  0
 46 48  1  0
 48 49  1  0
 49 50  1  0
 50 51  1  0
 49 52  1  0
 52 53  2  0
 52 54  1  0
 54 55  1  0
 55 56  1  0
 56 57  1  0
 55 58  1  0
 58 59  2  0
 58 60  1  0
 60 61  1  0
 61 62  1  0
 62 63  1  0
 63 64  2  0
 64 65  1  0
 65 66  2  0
 66 67  1  0
 67 68  2  0
 61 69  1  0
 69 70  2  0
 69 71  1  0
 71 72  1  0
 72 73  1  0
 73 74  1  0
 74 75  1  0
 75 76  1  0
 72 77  1  0
 72 78  1  6
 78 79  2  0
 78 80  1  0
 80 81  1  0
 81 82  1  0
 82 83  1  0
 83 84  1  0
 83 85  2  0
 81 86  1  0
 86 87  2  0
 86 88  1  0
 88 89  1  0
 89 90  1  0
 90 91  1  0
 91 92  2  0
 92 93  1  0
 93 94  2  0
 94 95  1  0
 94 96  1  0
 96 97  2  0
 89 98  1  0
 98 99  2  0
 98100  1  0
100101  1  0
101102  1  0
102103  1  0
103104  2  0
104105  1  0
105106  2  0
106107  1  0
107108  2  0
101109  1  0
109110  2  0
109111  1  0
111112  1  0
112113  1  0
113114  1  0
114115  2  0
115116  1  0
116117  1  0
117118  2  0
112119  1  0
119120  2  0
119121  1  0
121122  1  0
122123  1  0
123124  1  0
122125  1  0
125126  2  0
125127  1  0
127128  1  0
128129  1  0
129130  1  0
128131  1  0
131132  2  0
131133  1  0
133134  1  0
134135  1  0
135136  1  0
136137  1  0
137138  1  0
138139  2  0
138140  1  0
140141  1  0
141142  1  0
142143  1  0
143144  2  0
144145  1  0
145146  2  0
146147  1  0
146148  1  0
148149  2  0
141150  1  0
150151  2  0
150152  1  0
152153  1  0
153154  1  0
154155  1  0
155156  2  0
156157  1  0
157158  2  0
158159  1  0
159160  2  0
153161  1  0
161162  2  0
161163  1  0
163164  1  0
164165  1  0
165166  1  0
166167  1  0
167168  2  0
167169  1  0
164170  1  0
170171  2  0
170172  1  0
172173  1  0
173174  1  0
174175  1  0
175176  1  0
175177  1  0
173178  1  0
178179  2  0
178180  1  0
  8  3  1  0
 68 63  1  0
 97 91  1  0
108103  1  0
118114  1  0
137133  1  0
149143  1  0
160155  1  0
 11  6  1  0
 44 76  2  0
 18 13  2  0
 22  9  1  0
 26 21  1  0
  2181  1  0
  4182  1  0
  5183  1  0
  8184  1  0
 15185  1  0
 17186  1  0
 18187  1  0
 19188  1  0
 23189  1  0
 24190  1  0
 26191  1  0
 27192  1  0
 29193  1  0
 30194  1  0
 30195  1  0
 31196  1  0
 31197  1  0
 34198  1  0
 35199  1  1
 36200  1  0
 36201  1  0
 36202  1  0
 39203  1  0
 41204  1  0
 41205  1  0
 42206  1  0
 42207  1  0
 43208  1  0
 43209  1  0
 44210  1  0
 45211  1  0
 45212  1  0
 45213  1  0
 48214  1  0
 49215  1  1
 50216  1  0
 50217  1  0
 51218  1  0
 54219  1  0
 55220  1  1
 56221  1  0
 56222  1  0
 57223  1  0
 57224  1  0
 57225  1  0
 60226  1  0
 61227  1  1
 62228  1  0
 62229  1  0
 64230  1  0
 65231  1  0
 66232  1  0
 67233  1  0
 68234  1  0
 71235  1  0
 73236  1  0
 73237  1  0
 74238  1  0
 74239  1  0
 75240  1  0
 75241  1  0
 76242  1  0
 77243  1  0
 77244  1  0
 77245  1  0
 80246  1  0
 81247  1  6
 82248  1  0
 82249  1  0
 84250  1  0
 84251  1  0
 88252  1  0
 89253  1  1
 90254  1  0
 90255  1  0
 92256  1  0
 93257  1  0
 95258  1  0
 96259  1  0
 97260  1  0
100261  1  0
101262  1  6
102263  1  0
102264  1  0
104265  1  0
105266  1  0
106267  1  0
107268  1  0
108269  1  0
111270  1  0
112271  1  1
113272  1  0
113273  1  0
115274  1  0
116275  1  0
117276  1  0
121277  1  0
122278  1  6
123279  1  0
123280  1  0
124281  1  0
127282  1  0
128283  1  1
129284  1  0
129285  1  0
130286  1  0
130287  1  0
130288  1  0
134289  1  0
134290  1  0
135291  1  0
135292  1  0
136293  1  0
136294  1  0
137295  1  0
140296  1  0
141297  1  1
142298  1  0
142299  1  0
144300  1  0
145301  1  0
147302  1  0
148303  1  0
149304  1  0
152305  1  0
153306  1  6
154307  1  0
154308  1  0
156309  1  0
157310  1  0
158311  1  0
159312  1  0
160313  1  0
163314  1  0
164315  1  1
165316  1  0
165317  1  0
166318  1  0
166319  1  0
172320  1  0
173321  1  6
174322  1  0
174323  1  0
175324  1  0
176325  1  0
176326  1  0
176327  1  0
177328  1  0
177329  1  0
177330  1  0
M  CHG  2 169  -1 180  -1
M  END
