
     RDKit          2D

314316  0  0  0  0  0  0  0  0999 V2000
  -25.7480   -3.2250    0.0000 N   0  0  0  0  0  0  0  0  0  0  0  0
  -24.2666   -2.9896    0.0000 C   0  0  0  0  0  0  0  0  0  0  0  0
  -23.3220   -4.1548    0.0000 C   0  0  0  0  0  0  0  0  0  0  0  0
  -21.8406   -3.9194    0.0000 C   0  0  0  0  0  0  0  0  0  0  0  0
  -21.3037   -2.5188    0.0000 O   0  0  0  0  0  0  0  0  0  0  0  0
  -20.8960   -5.0847    0.0000 N   0  0  0  0  0  0  0  0  0  0  0  0
  -19.4146   -4.8493    0.0000 C   0  0  0  0  0  0  0  0  0  0  0  0
  -19.4400   -6.3490    0.0000 C   0  0  0  0  0  0  0  0  0  0  0  0
  -20.7516   -7.0769    0.0000 C   0  0  0  0  0  0  0  0  0  0  0  0
  -20.7770   -8.5767    0.0000 C   0  0  0  0  0  0  0  0  0  0  0  0
  -22.0886   -9.3046    0.0000 O   0  0  0  0  0  0  0  0  0  0  0  0
  -19.4909   -9.3486    0.0000 O   0  0  0  0  0  0  0  0  0  0  0  0
  -18.1030   -4.1214    0.0000 C   0  0  0  0  0  0  0  0  0  0  0  0
  -16.9206   -5.0443    0.0000 O   0  0  0  0  0  0  0  0  0  0  0  0
  -18.0776   -2.6216    0.0000 N   0  0  0  0  0  0  0  0  0  0  0  0
  -16.7661   -1.8937    0.0000 C   0  0  0  0  0  0  0  0  0  0  0  0
  -16.2770   -3.3117    0.0000 C   0  0  0  0  0  0  0  0  0  0  0  0
  -14.8044   -3.5972    0.0000 C   0  0  0  0  0  0  0  0  0  0  0  0
  -14.3153   -5.0153    0.0000 C   0  0  0  0  0  0  0  0  0  0  0  0
  -12.8428   -5.3007    0.0000 N   0  0  0  0  0  0  0  0  0  0  0  0
  -12.3537   -6.7188    0.0000 C   0  0  0  0  0  0  0  0  0  0  0  0
  -10.8811   -7.0042    0.0000 N   0  0  0  0  0  0  0  0  0  0  0  0
  -13.3372   -7.8513    0.0000 N   0  0  0  0  0  0  0  0  0  0  0  0
  -15.7825   -0.7612    0.0000 C   0  0  0  0  0  0  0  0  0  0  0  0
  -14.3100   -1.0466    0.0000 O   0  0  0  0  0  0  0  0  0  0  0  0
  -16.2716    0.6569    0.0000 N   0  0  0  0  0  0  0  0  0  0  0  0
  -15.2881    1.7894    0.0000 C   0  0  0  0  0  0  0  0  0  0  0  0
  -16.5742    2.5613    0.0000 C   0  0  0  0  0  0  0  0  0  0  0  0
  -17.8858    1.8335    0.0000 C   0  0  0  0  0  0  0  0  0  0  0  0
  -19.1719    2.6054    0.0000 C   0  0  0  0  0  0  0  0  0  0  0  0
  -18.8693    0.7009    0.0000 C   0  0  0  0  0  0  0  0  0  0  0  0
  -13.9765    2.5173    0.0000 C   0  0  0  0  0  0  0  0  0  0  0  0
  -14.1563    3.2939    0.0000 O   0  0  0  0  0  0  0  0  0  0  0  0
  -12.6904    1.7454    0.0000 N   0  0  0  0  0  0  0  0  0  0  0  0
  -11.3788    2.4733    0.0000 C   0  0  0  0  0  0  0  0  0  0  0  0
  -12.3234    3.6385    0.0000 C   0  0  0  0  0  0  0  0  0  0  0  0
  -13.8048    3.4031    0.0000 C   0  0  0  0  0  0  0  0  0  0  0  0
  -14.7494    4.5684    0.0000 C   0  0  0  0  0  0  0  0  0  0  0  0
  -16.2308    4.3330    0.0000 N   0  0  0  0  0  0  0  0  0  0  0  0
  -17.1754    5.4982    0.0000 C   0  0  0  0  0  0  0  0  0  0  0  0
  -18.6568    5.2628    0.0000 N   0  0  0  0  0  0  0  0  0  0  0  0
  -16.6385    6.8989    0.0000 N   0  0  0  0  0  0  0  0  0  0  0  0
   -9.8974    2.7087    0.0000 C   0  0  0  0  0  0  0  0  0  0  0  0
   -9.7154    4.1976    0.0000 O   0  0  0  0  0  0  0  0  0  0  0  0
   -8.9528    1.5434    0.0000 N   0  0  0  0  0  0  0  0  0  0  0  0
   -7.4714    1.7788    0.0000 C   0  0  0  0  0  0  0  0  0  0  0  0
   -7.9605    3.1969    0.0000 C   0  0  0  0  0  0  0  0  0  0  0  0
   -9.4331    3.4823    0.0000 C   0  0  0  0  0  0  0  0  0  0  0  0
   -9.9221    4.9004    0.0000 C   0  0  0  0  0  0  0  0  0  0  0  0
  -11.3947    5.1858    0.0000 N   0  0  0  0  0  0  0  0  0  0  0  0
  -11.8838    6.6039    0.0000 C   0  0  0  0  0  0  0  0  0  0  0  0
  -13.3564    6.8893    0.0000 N   0  0  0  0  0  0  0  0  0  0  0  0
  -10.9003    7.7364    0.0000 N   0  0  0  0  0  0  0  0  0  0  0  0
   -5.9988    1.4934    0.0000 C   0  0  0  0  0  0  0  0  0  0  0  0
   -5.3186    2.8303    0.0000 O   0  0  0  0  0  0  0  0  0  0  0  0
   -5.5098    0.0753    0.0000 N   0  0  0  0  0  0  0  0  0  0  0  0
   -4.0372   -0.2101    0.0000 C   0  0  0  0  0  0  0  0  0  0  0  0
   -4.0118    1.2896    0.0000 C   0  0  0  0  0  0  0  0  0  0  0  0
   -5.2979    2.0616    0.0000 C   0  0  0  0  0  0  0  0  0  0  0  0
   -5.2725    3.5613    0.0000 C   0  0  0  0  0  0  0  0  0  0  0  0
   -6.5586    4.3332    0.0000 N   0  0  0  0  0  0  0  0  0  0  0  0
   -6.5332    5.8330    0.0000 C   0  0  0  0  0  0  0  0  0  0  0  0
   -7.8193    6.6049    0.0000 N   0  0  0  0  0  0  0  0  0  0  0  0
   -5.2216    6.5609    0.0000 N   0  0  0  0  0  0  0  0  0  0  0  0
   -2.7510   -0.9820    0.0000 C   0  0  0  0  0  0  0  0  0  0  0  0
   -1.4395   -0.2542    0.0000 O   0  0  0  0  0  0  0  0  0  0  0  0
   -2.7765   -2.4818    0.0000 N   0  0  0  0  0  0  0  0  0  0  0  0
   -1.4903   -3.2537    0.0000 C   0  0  0  0  0  0  0  0  0  0  0  0
   -2.4738   -4.3863    0.0000 C   0  0  0  0  0  0  0  0  0  0  0  0
   -3.9464   -4.1008    0.0000 C   0  0  0  0  0  0  0  0  0  0  0  0
   -4.9300   -5.2334    0.0000 C   0  0  0  0  0  0  0  0  0  0  0  0
   -6.4025   -4.9479    0.0000 C   0  0  0  0  0  0  0  0  0  0  0  0
   -0.0177   -3.5392    0.0000 C   0  0  0  0  0  0  0  0  0  0  0  0
    0.2948   -5.0063    0.0000 O   0  0  0  0  0  0  0  0  0  0  0  0
    0.9658   -2.4066    0.0000 N   0  0  0  0  0  0  0  0  0  0  0  0
    2.4384   -2.6921    0.0000 C   0  0  0  0  0  0  0  0  0  0  0  0
    3.1987   -3.9851    0.0000 C   0  0  0  0  0  0  0  0  0  0  0  0
    4.3064   -4.9966    0.0000 C   0  0  0  0  0  0  0  0  0  0  0  0
    5.6630   -5.6366    0.0000 C   0  0  0  0  0  0  0  0  0  0  0  0
    7.1480   -5.8483    0.0000 C   0  0  0  0  0  0  0  0  0  0  0  0
    1.4296   -3.8023    0.0000 C   0  0  0  0  0  0  0  0  0  0  0  0
    2.0929   -1.2324    0.0000 C   0  0  0  0  0  0  0  0  0  0  0  0
    0.5941   -1.1733    0.0000 O   0  0  0  0  0  0  0  0  0  0  0  0
    2.1931    0.2642    0.0000 N   0  0  0  0  0  0  0  0  0  0  0  0
    2.7299    1.6649    0.0000 C   0  0  0  0  0  0  0  0  0  0  0  0
    1.2324    1.5781    0.0000 C   0  0  0  0  0  0  0  0  0  0  0  0
    0.4086    2.8316    0.0000 C   0  0  0  0  0  0  0  0  0  0  0  0
   -1.0889    2.7449    0.0000 C   0  0  0  0  0  0  0  0  0  0  0  0
    0.0631    4.2913    0.0000 C   0  0  0  0  0  0  0  0  0  0  0  0
    3.6557    2.8450    0.0000 C   0  0  0  0  0  0  0  0  0  0  0  0
    2.6267    3.9364    0.0000 O   0  0  0  0  0  0  0  0  0  0  0  0
    4.8883    3.6999    0.0000 N   0  0  0  0  0  0  0  0  0  0  0  0
    6.3181    4.1534    0.0000 C   0  0  0  0  0  0  0  0  0  0  0  0
    5.3166    5.2702    0.0000 C   0  0  0  0  0  0  0  0  0  0  0  0
    5.7830    6.6958    0.0000 S   0  0  0  0  0  0  0  0  0  0  0  0
    7.8181    4.1654    0.0000 C   0  0  0  0  0  0  0  0  0  0  0  0
    8.0298    5.6504    0.0000 O   0  0  0  0  0  0  0  0  0  0  0  0
    9.2549    3.7347    0.0000 N   0  0  0  0  0  0  0  0  0  0  0  0
   10.5010    2.8997    0.0000 C   0  0  0  0  0  0  0  0  0  0  0  0
   10.7496    4.3789    0.0000 C   0  0  0  0  0  0  0  0  0  0  0  0
   12.1550    4.9032    0.0000 C   0  0  0  0  0  0  0  0  0  0  0  0
   12.4037    6.3824    0.0000 C   0  0  0  0  0  0  0  0  0  0  0  0
   13.8091    6.9067    0.0000 N   0  0  0  0  0  0  0  0  0  0  0  0
   14.0578    8.3860    0.0000 C   0  0  0  0  0  0  0  0  0  0  0  0
   15.4632    8.9102    0.0000 N   0  0  0  0  0  0  0  0  0  0  0  0
   12.9010    9.3409    0.0000 N   0  0  0  0  0  0  0  0  0  0  0  0
   11.4455    1.7344    0.0000 C   0  0  0  0  0  0  0  0  0  0  0  0
   12.7385    2.4948    0.0000 O   0  0  0  0  0  0  0  0  0  0  0  0
   12.0047    0.3426    0.0000 N   0  0  0  0  0  0  0  0  0  0  0  0
   12.1287   -1.1523    0.0000 C   0  0  0  0  0  0  0  0  0  0  0  0
   11.8066   -2.6173    0.0000 C   0  0  0  0  0  0  0  0  0  0  0  0
   11.0670   -3.9223    0.0000 C   0  0  0  0  0  0  0  0  0  0  0  0
    9.9756   -4.9513    0.0000 C   0  0  0  0  0  0  0  0  0  0  0  0
    8.6294   -5.6129    0.0000 C   0  0  0  0  0  0  0  0  0  0  0  0
   13.4319   -1.8951    0.0000 C   0  0  0  0  0  0  0  0  0  0  0  0
   13.4403   -0.4244    0.0000 C   0  0  0  0  0  0  0  0  0  0  0  0
   13.6483    1.0611    0.0000 O   0  0  0  0  0  0  0  0  0  0  0  0
   14.7264   -1.1963    0.0000 N   0  0  0  0  0  0  0  0  0  0  0  0
   16.0380   -0.4685    0.0000 C   0  0  0  0  0  0  0  0  0  0  0  0
   17.0215    0.6641    0.0000 C   0  0  0  0  0  0  0  0  0  0  0  0
   18.4941    0.3786    0.0000 C   0  0  0  0  0  0  0  0  0  0  0  0
   19.5906    1.4022    0.0000 C   0  0  0  0  0  0  0  0  0  0  0  0
   20.9029    0.6756    0.0000 N   0  0  0  0  0  0  0  0  0  0  0  0
   20.6174   -0.7970    0.0000 C   0  0  0  0  0  0  0  0  0  0  0  0
   19.1287   -0.9805    0.0000 N   0  0  0  0  0  0  0  0  0  0  0  0
   17.3241   -1.2404    0.0000 C   0  0  0  0  0  0  0  0  0  0  0  0
   17.2987   -2.7402    0.0000 O   0  0  0  0  0  0  0  0  0  0  0  0
   18.6357   -0.5125    0.0000 N   0  0  0  0  0  0  0  0  0  0  0  0
   19.9218   -1.2844    0.0000 C   0  0  0  0  0  0  0  0  0  0  0  0
   20.8664   -2.4496    0.0000 C   0  0  0  0  0  0  0  0  0  0  0  0
   20.3295   -3.8503    0.0000 C   0  0  0  0  0  0  0  0  0  0  0  0
   21.1471   -5.1079    0.0000 C   0  0  0  0  0  0  0  0  0  0  0  0
   20.2037   -6.2741    0.0000 N   0  0  0  0  0  0  0  0  0  0  0  0
   18.8031   -5.7372    0.0000 C   0  0  0  0  0  0  0  0  0  0  0  0
   18.8808   -4.2392    0.0000 N   0  0  0  0  0  0  0  0  0  0  0  0
   21.2334   -0.5565    0.0000 C   0  0  0  0  0  0  0  0  0  0  0  0
   21.6210    0.8925    0.0000 O   0  0  0  0  0  0  0  0  0  0  0  0
   22.5195   -1.3284    0.0000 N   0  0  0  0  0  0  0  0  0  0  0  0
   23.8311   -0.6006    0.0000 C   0  0  0  0  0  0  0  0  0  0  0  0
   24.8146    0.5320    0.0000 C   0  0  0  0  0  0  0  0  0  0  0  0
   26.2917    0.7933    0.0000 O   0  0  0  0  0  0  0  0  0  0  0  0
   25.1172   -1.3725    0.0000 C   0  0  0  0  0  0  0  0  0  0  0  0
   25.0918   -2.8723    0.0000 O   0  0  0  0  0  0  0  0  0  0  0  0
   26.4288   -0.6446    0.0000 N   0  0  0  0  0  0  0  0  0  0  0  0
   27.7149   -1.4165    0.0000 C   0  0  0  0  0  0  0  0  0  0  0  0
   28.6595   -2.5817    0.0000 C   0  0  0  0  0  0  0  0  0  0  0  0
   29.9456   -3.3537    0.0000 O   0  0  0  0  0  0  0  0  0  0  0  0
   28.1226   -3.9824    0.0000 C   0  0  0  0  0  0  0  0  0  0  0  0
   29.0265   -0.6886    0.0000 C   0  0  0  0  0  0  0  0  0  0  0  0
   30.3971   -1.2980    0.0000 O   0  0  0  0  0  0  0  0  0  0  0  0
   29.0519    0.8112    0.0000 O   0  0  0  0  0  0  0  0  0  0  0  0
  -26.6926   -2.0597    0.0000 H   0  0  0  0  0  0  0  0  0  0  0  0
  -26.2848   -4.6256    0.0000 H   0  0  0  0  0  0  0  0  0  0  0  0
  -24.7556   -1.5715    0.0000 H   0  0  0  0  0  0  0  0  0  0  0  0
  -22.9550   -2.2617    0.0000 H   0  0  0  0  0  0  0  0  0  0  0  0
  -24.6336   -4.8827    0.0000 H   0  0  0  0  0  0  0  0  0  0  0  0
  -22.8329   -5.5728    0.0000 H   0  0  0  0  0  0  0  0  0  0  0  0
  -21.5996   -6.4094    0.0000 H   0  0  0  0  0  0  0  0  0  0  0  0
  -19.9037   -3.4312    0.0000 H   0  0  0  0  0  0  0  0  0  0  0  0
  -18.9510   -7.7671    0.0000 H   0  0  0  0  0  0  0  0  0  0  0  0
  -17.9586   -6.1136    0.0000 H   0  0  0  0  0  0  0  0  0  0  0  0
  -22.2330   -7.3123    0.0000 H   0  0  0  0  0  0  0  0  0  0  0  0
  -21.7164   -5.9284    0.0000 H   0  0  0  0  0  0  0  0  0  0  0  0
  -19.3638   -1.8497    0.0000 H   0  0  0  0  0  0  0  0  0  0  0  0
  -17.5615   -0.6220    0.0000 H   0  0  0  0  0  0  0  0  0  0  0  0
  -16.3024   -4.8115    0.0000 H   0  0  0  0  0  0  0  0  0  0  0  0
  -17.6574   -3.8986    0.0000 H   0  0  0  0  0  0  0  0  0  0  0  0
  -13.3230   -3.3618    0.0000 H   0  0  0  0  0  0  0  0  0  0  0  0
  -14.7790   -2.0974    0.0000 H   0  0  0  0  0  0  0  0  0  0  0  0
  -14.3408   -6.5150    0.0000 H   0  0  0  0  0  0  0  0  0  0  0  0
  -15.7570   -5.4295    0.0000 H   0  0  0  0  0  0  0  0  0  0  0  0
  -11.8592   -4.1682    0.0000 H   0  0  0  0  0  0  0  0  0  0  0  0
  -10.3920   -8.4223    0.0000 H   0  0  0  0  0  0  0  0  0  0  0  0
   -9.8976   -5.8717    0.0000 H   0  0  0  0  0  0  0  0  0  0  0  0
  -12.8481   -9.2693    0.0000 H   0  0  0  0  0  0  0  0  0  0  0  0
  -14.8098   -7.5658    0.0000 H   0  0  0  0  0  0  0  0  0  0  0  0
  -17.7680    0.7607    0.0000 H   0  0  0  0  0  0  0  0  0  0  0  0
  -14.3435    0.6242    0.0000 H   0  0  0  0  0  0  0  0  0  0  0  0
  -17.3697    3.8330    0.0000 H   0  0  0  0  0  0  0  0  0  0  0  0
  -15.8940    3.8982    0.0000 H   0  0  0  0  0  0  0  0  0  0  0  0
  -17.4217    0.4071    0.0000 H   0  0  0  0  0  0  0  0  0  0  0  0
  -20.5624    2.0428    0.0000 H   0  0  0  0  0  0  0  0  0  0  0  0
  -20.1165    3.7706    0.0000 H   0  0  0  0  0  0  0  0  0  0  0  0
  -18.3338    3.8494    0.0000 H   0  0  0  0  0  0  0  0  0  0  0  0
  -20.3657    0.8047    0.0000 H   0  0  0  0  0  0  0  0  0  0  0  0
  -19.4062   -0.6997    0.0000 H   0  0  0  0  0  0  0  0  0  0  0  0
  -17.4987    0.0915    0.0000 H   0  0  0  0  0  0  0  0  0  0  0  0
  -12.7158    0.2456    0.0000 H   0  0  0  0  0  0  0  0  0  0  0  0
  -10.8898    1.0552    0.0000 H   0  0  0  0  0  0  0  0  0  0  0  0
  -12.6360    5.1056    0.0000 H   0  0  0  0  0  0  0  0  0  0  0  0
  -11.2269    4.6621    0.0000 H   0  0  0  0  0  0  0  0  0  0  0  0
  -15.1164    2.6752    0.0000 H   0  0  0  0  0  0  0  0  0  0  0  0
  -13.6734    1.9089    0.0000 H   0  0  0  0  0  0  0  0  0  0  0  0
  -15.2384    5.9864    0.0000 H   0  0  0  0  0  0  0  0  0  0  0  0
  -13.5363    5.4507    0.0000 H   0  0  0  0  0  0  0  0  0  0  0  0
  -17.0906    3.1039    0.0000 H   0  0  0  0  0  0  0  0  0  0  0  0
  -19.6013    6.4281    0.0000 H   0  0  0  0  0  0  0  0  0  0  0  0
  -19.1936    3.8622    0.0000 H   0  0  0  0  0  0  0  0  0  0  0  0
  -17.5831    8.0641    0.0000 H   0  0  0  0  0  0  0  0  0  0  0  0
  -15.1571    7.1343    0.0000 H   0  0  0  0  0  0  0  0  0  0  0  0
   -9.4897    0.1428    0.0000 H   0  0  0  0  0  0  0  0  0  0  0  0
   -7.4968    0.2791    0.0000 H   0  0  0  0  0  0  0  0  0  0  0  0
   -7.7524    4.6824    0.0000 H   0  0  0  0  0  0  0  0  0  0  0  0
   -6.5801    3.7837    0.0000 H   0  0  0  0  0  0  0  0  0  0  0  0
  -10.9145    3.2469    0.0000 H   0  0  0  0  0  0  0  0  0  0  0  0
   -9.8207    2.0333    0.0000 H   0  0  0  0  0  0  0  0  0  0  0  0
   -9.8967    6.4002    0.0000 H   0  0  0  0  0  0  0  0  0  0  0  0
   -8.4805    5.3146    0.0000 H   0  0  0  0  0  0  0  0  0  0  0  0
  -12.6231    4.3249    0.0000 H   0  0  0  0  0  0  0  0  0  0  0  0
  -13.8455    8.3074    0.0000 H   0  0  0  0  0  0  0  0  0  0  0  0
  -14.3399    5.7568    0.0000 H   0  0  0  0  0  0  0  0  0  0  0  0
  -11.3893    9.1545    0.0000 H   0  0  0  0  0  0  0  0  0  0  0  0
   -9.4277    7.4510    0.0000 H   0  0  0  0  0  0  0  0  0  0  0  0
   -6.4933   -1.0572    0.0000 H   0  0  0  0  0  0  0  0  0  0  0  0
   -4.5740   -1.6108    0.0000 H   0  0  0  0  0  0  0  0  0  0  0  0
   -3.3082    2.6144    0.0000 H   0  0  0  0  0  0  0  0  0  0  0  0
   -2.5392    1.0042    0.0000 H   0  0  0  0  0  0  0  0  0  0  0  0
   -6.7705    2.3470    0.0000 H   0  0  0  0  0  0  0  0  0  0  0  0
   -6.1577    0.8324    0.0000 H   0  0  0  0  0  0  0  0  0  0  0  0
   -4.7356    4.9620    0.0000 H   0  0  0  0  0  0  0  0  0  0  0  0
   -3.7761    3.4575    0.0000 H   0  0  0  0  0  0  0  0  0  0  0  0
   -8.0073    3.9444    0.0000 H   0  0  0  0  0  0  0  0  0  0  0  0
   -7.7939    8.1047    0.0000 H   0  0  0  0  0  0  0  0  0  0  0  0
   -9.1309    5.8771    0.0000 H   0  0  0  0  0  0  0  0  0  0  0  0
   -5.1962    8.0607    0.0000 H   0  0  0  0  0  0  0  0  0  0  0  0
   -3.9355    5.7890    0.0000 H   0  0  0  0  0  0  0  0  0  0  0  0
   -4.1670   -3.0444    0.0000 H   0  0  0  0  0  0  0  0  0  0  0  0
   -0.9535   -1.8531    0.0000 H   0  0  0  0  0  0  0  0  0  0  0  0
   -2.8360   -5.8419    0.0000 H   0  0  0  0  0  0  0  0  0  0  0  0
   -1.1877   -5.1582    0.0000 H   0  0  0  0  0  0  0  0  0  0  0  0
   -5.1289   -3.1779    0.0000 H   0  0  0  0  0  0  0  0  0  0  0  0
   -3.9473   -2.6008    0.0000 H   0  0  0  0  0  0  0  0  0  0  0  0
   -5.4668   -6.6340    0.0000 H   0  0  0  0  0  0  0  0  0  0  0  0
   -3.7475   -6.1563    0.0000 H   0  0  0  0  0  0  0  0  0  0  0  0
   -7.3861   -6.0805    0.0000 H   0  0  0  0  0  0  0  0  0  0  0  0
   -7.6887   -4.1760    0.0000 H   0  0  0  0  0  0  0  0  0  0  0  0
   -6.0404   -3.4923    0.0000 H   0  0  0  0  0  0  0  0  0  0  0  0
    0.3075   -1.0588    0.0000 H   0  0  0  0  0  0  0  0  0  0  0  0
    2.7323   -5.4108    0.0000 H   0  0  0  0  0  0  0  0  0  0  0  0
    1.7382   -4.3270    0.0000 H   0  0  0  0  0  0  0  0  0  0  0  0
    4.0983   -6.4821    0.0000 H   0  0  0  0  0  0  0  0  0  0  0  0
    3.0115   -5.7537    0.0000 H   0  0  0  0  0  0  0  0  0  0  0  0
    6.0808   -7.0772    0.0000 H   0  0  0  0  0  0  0  0  0  0  0  0
    4.6488   -6.7418    0.0000 H   0  0  0  0  0  0  0  0  0  0  0  0
    7.1600   -7.3483    0.0000 H   0  0  0  0  0  0  0  0  0  0  0  0
    0.1134   -4.1071    0.0000 H   0  0  0  0  0  0  0  0  0  0  0  0
    1.3700   -5.3832    0.0000 H   0  0  0  0  0  0  0  0  0  0  0  0
    2.5589   -5.0443    0.0000 H   0  0  0  0  0  0  0  0  0  0  0  0
    0.7280    0.5863    0.0000 H   0  0  0  0  0  0  0  0  0  0  0  0
    2.2022    3.0690    0.0000 H   0  0  0  0  0  0  0  0  0  0  0  0
   -0.0625    0.8210    0.0000 H   0  0  0  0  0  0  0  0  0  0  0  0
    1.2144    0.0782    0.0000 H   0  0  0  0  0  0  0  0  0  0  0  0
    1.7034    3.5888    0.0000 H   0  0  0  0  0  0  0  0  0  0  0  0
   -2.0594    3.8886    0.0000 H   0  0  0  0  0  0  0  0  0  0  0  0
   -2.4664    2.1512    0.0000 H   0  0  0  0  0  0  0  0  0  0  0  0
   -0.9240    1.2540    0.0000 H   0  0  0  0  0  0  0  0  0  0  0  0
   -1.3105    4.8939    0.0000 H   0  0  0  0  0  0  0  0  0  0  0  0
    0.2377    5.7811    0.0000 H   0  0  0  0  0  0  0  0  0  0  0  0
    1.5606    4.3780    0.0000 H   0  0  0  0  0  0  0  0  0  0  0  0
    4.2267    5.0461    0.0000 H   0  0  0  0  0  0  0  0  0  0  0  0
    6.9241    5.5256    0.0000 H   0  0  0  0  0  0  0  0  0  0  0  0
    3.9936    5.9770    0.0000 H   0  0  0  0  0  0  0  0  0  0  0  0
    4.1327    4.3491    0.0000 H   0  0  0  0  0  0  0  0  0  0  0  0
    4.7815    7.8125    0.0000 H   0  0  0  0  0  0  0  0  0  0  0  0
    9.8949    5.0914    0.0000 H   0  0  0  0  0  0  0  0  0  0  0  0
   11.9873    3.1017    0.0000 H   0  0  0  0  0  0  0  0  0  0  0  0
   10.2996    5.8098    0.0000 H   0  0  0  0  0  0  0  0  0  0  0  0
    9.2914    4.7303    0.0000 H   0  0  0  0  0  0  0  0  0  0  0  0
   13.6550    4.9152    0.0000 H   0  0  0  0  0  0  0  0  0  0  0  0
   12.6051    3.4723    0.0000 H   0  0  0  0  0  0  0  0  0  0  0  0
   12.1314    7.8575    0.0000 H   0  0  0  0  0  0  0  0  0  0  0  0
   10.9135    6.5534    0.0000 H   0  0  0  0  0  0  0  0  0  0  0  0
   14.9658    5.9517    0.0000 H   0  0  0  0  0  0  0  0  0  0  0  0
   15.7118   10.3895    0.0000 H   0  0  0  0  0  0  0  0  0  0  0  0
   16.6199    7.9552    0.0000 H   0  0  0  0  0  0  0  0  0  0  0  0
   13.1497   10.8202    0.0000 H   0  0  0  0  0  0  0  0  0  0  0  0
   11.4956    8.8167    0.0000 H   0  0  0  0  0  0  0  0  0  0  0  0
   13.4114    0.8634    0.0000 H   0  0  0  0  0  0  0  0  0  0  0  0
   13.3012   -2.4896    0.0000 H   0  0  0  0  0  0  0  0  0  0  0  0
   12.6919   -3.8282    0.0000 H   0  0  0  0  0  0  0  0  0  0  0  0
   12.5328   -4.2408    0.0000 H   0  0  0  0  0  0  0  0  0  0  0  0
   11.7253   -5.2701    0.0000 H   0  0  0  0  0  0  0  0  0  0  0  0
   11.2824   -5.6877    0.0000 H   0  0  0  0  0  0  0  0  0  0  0  0
   10.0250   -6.4505    0.0000 H   0  0  0  0  0  0  0  0  0  0  0  0
    9.0830   -7.0427    0.0000 H   0  0  0  0  0  0  0  0  0  0  0  0
   14.7777   -1.7769    0.0000 H   0  0  0  0  0  0  0  0  0  0  0  0
   13.9786   -3.3797    0.0000 H   0  0  0  0  0  0  0  0  0  0  0  0
   12.7432   -3.4260    0.0000 H   0  0  0  0  0  0  0  0  0  0  0  0
   14.8840   -2.6880    0.0000 H   0  0  0  0  0  0  0  0  0  0  0  0
   15.0934    0.6968    0.0000 H   0  0  0  0  0  0  0  0  0  0  0  0
   17.5583    2.0647    0.0000 H   0  0  0  0  0  0  0  0  0  0  0  0
   15.7354    1.4360    0.0000 H   0  0  0  0  0  0  0  0  0  0  0  0
   19.4070    2.8909    0.0000 H   0  0  0  0  0  0  0  0  0  0  0  0
   22.2620    1.3102    0.0000 H   0  0  0  0  0  0  0  0  0  0  0  0
   21.7670   -1.7605    0.0000 H   0  0  0  0  0  0  0  0  0  0  0  0
   19.0233    0.9366    0.0000 H   0  0  0  0  0  0  0  0  0  0  0  0
   18.9383   -2.4170    0.0000 H   0  0  0  0  0  0  0  0  0  0  0  0
   22.0488   -3.3726    0.0000 H   0  0  0  0  0  0  0  0  0  0  0  0
   22.1905   -1.7449    0.0000 H   0  0  0  0  0  0  0  0  0  0  0  0
   22.6451   -5.1856    0.0000 H   0  0  0  0  0  0  0  0  0  0  0  0
   20.5927   -7.7228    0.0000 H   0  0  0  0  0  0  0  0  0  0  0  0
   17.5455   -6.5548    0.0000 H   0  0  0  0  0  0  0  0  0  0  0  0
   22.6771   -2.8201    0.0000 H   0  0  0  0  0  0  0  0  0  0  0  0
   22.8865    0.5647    0.0000 H   0  0  0  0  0  0  0  0  0  0  0  0
   25.3514    1.9326    0.0000 H   0  0  0  0  0  0  0  0  0  0  0  0
   23.5285    1.3039    0.0000 H   0  0  0  0  0  0  0  0  0  0  0  0
   27.2707    1.3791    0.0000 H   0  0  0  0  0  0  0  0  0  0  0  0
   26.6368    0.8409    0.0000 H   0  0  0  0  0  0  0  0  0  0  0  0
   26.6007   -2.4207    0.0000 H   0  0  0  0  0  0  0  0  0  0  0  0
   29.7737   -1.5775    0.0000 H   0  0  0  0  0  0  0  0  0  0  0  0
   30.1032   -4.8454    0.0000 H   0  0  0  0  0  0  0  0  0  0  0  0
   28.9181   -5.2541    0.0000 H   0  0  0  0  0  0  0  0  0  0  0  0
   27.1391   -5.1149    0.0000 H   0  0  0  0  0  0  0  0  0  0  0  0
   26.7520   -3.3730    0.0000 H   0  0  0  0  0  0  0  0  0  0  0  0
  1  2  1  0
  2  3  1  0
  3  4  1  0
  4  5  2  0
  4  6  1  0
  6  7  1  0
  7  8  1  0
  8  9  1  0
  9 10  1  0
 10 11  2  0
 10 12  1  0
  7 13  1  0
 13 14  2  0
 13 15  1  0
 15 16  1  0
 16 17  1  0
 17 18  1  0
 18 19  1  0
 19 20  1  0
 20 21  1  0
 21 22  2  3
 21 23  1  0
 16 24  1  0
 24 25  2  0
 24 26  1  0
 26 27  1  0
 27 28  1  0
 28 29  1  0
 29 30  1  0
 29 31  1  0
 27 32  1  0
 32 33  2  0
 32 34  1  0
 34 35  1  0
 35 36  1  0
 36 37  1  0
 37 38  1  0
 38 39  1  0
 39 40  1  0
 40 41  2  3
 40 42  1  0
 35 43  1  0
 43 44  2  0
 43 45  1  0
 45 46  1  0
 46 47  1  0
 47 48  1  0
 48 49  1  0
 49 50  1  0
 50 51  1  0
 51 52  2  3
 51 53  1  0
 46 54  1  0
 54 55  2  0
 54 56  1  0
 56 57  1  0
 57 58  1  0
 58 59  1  0
 59 60  1  0
 60 61  1  0
 61 62  1  0
 62 63  2  3
 62 64  1  0
 57 65  1  0
 65 66  2  0
 65 67  1  0
 67 68  1  0
 68 69  1  0
 69 70  1  0
 70 71  1  0
 71 72  1  0
 68 73  1  0
 73 74  2  0
 73 75  1  0
 76 75  1  6
 76 77  1  0
 77 78  1  0
 78 79  1  0
 79 80  1  0
 76 81  1  0
 76 82  1  0
 82 83  2  0
 82 84  1  0
 84 85  1  0
 85 86  1  0
 86 87  1  0
 87 88  1  0
 87 89  1  0
 85 90  1  0
 90 91  2  0
 90 92  1  0
 92 93  1  0
 93 94  1  0
 94 95  1  0
 93 96  1  0
 96 97  2  0
 96 98  1  0
 98 99  1  0
 99100  1  0
100101  1  0
101102  1  0
102103  1  0
103104  1  0
104105  2  3
104106  1  0
 99107  1  0
107108  2  0
107109  1  0
109110  1  0
110111  1  0
111112  1  0
112113  1  0
113114  1  0
110115  1  0
110116  1  6
116117  2  0
116118  1  0
118119  1  0
119120  1  0
120121  1  0
121122  2  0
122123  1  0
123124  1  0
124125  2  0
119126  1  0
126127  2  0
126128  1  0
128129  1  0
129130  1  0
130131  1  0
131132  2  0
132133  1  0
133134  1  0
134135  2  0
129136  1  0
136137  2  0
136138  1  0
138139  1  0
139140  1  0
140141  1  0
139142  1  0
142143  2  0
142144  1  0
144145  1  0
145146  1  0
146147  1  0
146148  1  0
145149  1  0
149150  2  0
149151  1  0
125121  1  0
135131  1  0
 80114  2  0
  1152  1  0
  1153  1  0
  2154  1  0
  2155  1  0
  3156  1  0
  3157  1  0
  6158  1  0
  7159  1  6
  8160  1  0
  8161  1  0
  9162  1  0
  9163  1  0
 15164  1  0
 16165  1  6
 17166  1  0
 17167  1  0
 18168  1  0
 18169  1  0
 19170  1  0
 19171  1  0
 20172  1  0
 22173  1  0
 22174  1  0
 23175  1  0
 23176  1  0
 26177  1  0
 27178  1  1
 28179  1  0
 28180  1  0
 29181  1  0
 30182  1  0
 30183  1  0
 30184  1  0
 31185  1  0
 31186  1  0
 31187  1  0
 34188  1  0
 35189  1  1
 36190  1  0
 36191  1  0
 37192  1  0
 37193  1  0
 38194  1  0
 38195  1  0
 39196  1  0
 41197  1  0
 41198  1  0
 42199  1  0
 42200  1  0
 45201  1  0
 46202  1  1
 47203  1  0
 47204  1  0
 48205  1  0
 48206  1  0
 49207  1  0
 49208  1  0
 50209  1  0
 52210  1  0
 52211  1  0
 53212  1  0
 53213  1  0
 56214  1  0
 57215  1  1
 58216  1  0
 58217  1  0
 59218  1  0
 59219  1  0
 60220  1  0
 60221  1  0
 61222  1  0
 63223  1  0
 63224  1  0
 64225  1  0
 64226  1  0
 67227  1  0
 68228  1  1
 69229  1  0
 69230  1  0
 70231  1  0
 70232  1  0
 71233  1  0
 71234  1  0
 72235  1  0
 72236  1  0
 72237  1  0
 75238  1  0
 77239  1  0
 77240  1  0
 78241  1  0
 78242  1  0
 79243  1  0
 79244  1  0
 80245  1  0
 81246  1  0
 81247  1  0
 81248  1  0
 84249  1  0
 85250  1  1
 86251  1  0
 86252  1  0
 87253  1  0
 88254  1  0
 88255  1  0
 88256  1  0
 89257  1  0
 89258  1  0
 89259  1  0
 92260  1  0
 93261  1  1
 94262  1  0
 94263  1  0
 95264  1  0
 98265  1  0
 99266  1  1
100267  1  0
100268  1  0
101269  1  0
101270  1  0
102271  1  0
102272  1  0
103273  1  0
105274  1  0
105275  1  0
106276  1  0
106277  1  0
109278  1  0
111279  1  0
111280  1  0
112281  1  0
112282  1  0
113283  1  0
113284  1  0
114285  1  0
115286  1  0
115287  1  0
115288  1  0
118289  1  0
119290  1  1
120291  1  0
120292  1  0
122293  1  0
123294  1  0
124295  1  0
128296  1  0
129297  1  6
130298  1  0
130299  1  0
132300  1  0
133301  1  0
134302  1  0
138303  1  0
139304  1  1
140305  1  0
140306  1  0
141307  1  0
144308  1  0
145309  1  6
146310  1  1
147311  1  0
148312  1  0
148313  1  0
148314  1  0
M  CHG  7  12  -1  22   1  41   1  52   1  63   1 105   1 151  -1
M  END
