
     RDKit          2D

328336  0  0  0  0  0  0  0  0999 V2000
   32.3869   -0.7929    0.0000 C   0  0  0  0  0  0  0  0  0  0  0  0
   33.6957   -0.0601    0.0000 N   0  0  0  0  0  0  0  0  0  0  0  0
   34.9848   -0.8271    0.0000 C   0  0  0  0  0  0  0  0  0  0  0  0
   34.9651   -2.3269    0.0000 C   0  0  0  0  0  0  0  0  0  0  0  0
   36.2541   -3.0940    0.0000 C   0  0  0  0  0  0  0  0  0  0  0  0
   37.5629   -2.3611    0.0000 C   0  0  0  0  0  0  0  0  0  0  0  0
   37.5826   -0.8612    0.0000 C   0  0  0  0  0  0  0  0  0  0  0  0
   36.2936   -0.0942    0.0000 C   0  0  0  0  0  0  0  0  0  0  0  0
   39.0152   -0.4165    0.0000 C   0  0  0  0  0  0  0  0  0  0  0  0
   39.8808   -1.6415    0.0000 O   0  0  0  0  0  0  0  0  0  0  0  0
   38.9833   -2.8433    0.0000 C   0  0  0  0  0  0  0  0  0  0  0  0
   39.4280   -4.2759    0.0000 O   0  0  0  0  0  0  0  0  0  0  0  0
   40.4864   -0.1239    0.0000 C   0  0  0  0  0  0  0  0  0  0  0  0
   40.9686    1.2964    0.0000 C   0  0  0  0  0  0  0  0  0  0  0  0
   42.4398    1.5890    0.0000 C   0  0  0  0  0  0  0  0  0  0  0  0
   43.4288    0.4612    0.0000 C   0  0  0  0  0  0  0  0  0  0  0  0
   42.9465   -0.9592    0.0000 C   0  0  0  0  0  0  0  0  0  0  0  0
   41.4753   -1.2518    0.0000 C   0  0  0  0  0  0  0  0  0  0  0  0
   44.9000    0.7537    0.0000 O   0  0  0  0  0  0  0  0  0  0  0  0
   39.9797    2.4242    0.0000 O   0  0  0  0  0  0  0  0  0  0  0  0
   38.5085    2.1317    0.0000 C   0  0  0  0  0  0  0  0  0  0  0  0
   38.0262    0.7113    0.0000 C   0  0  0  0  0  0  0  0  0  0  0  0
   36.7801    1.0816    0.0000 C   0  0  0  0  0  0  0  0  0  0  0  0
   36.2526    1.6831    0.0000 C   0  0  0  0  0  0  0  0  0  0  0  0
   36.5098    2.4406    0.0000 C   0  0  0  0  0  0  0  0  0  0  0  0
   37.2945    2.5967    0.0000 C   0  0  0  0  0  0  0  0  0  0  0  0
   35.0594    4.0948    0.0000 O   0  0  0  0  0  0  0  0  0  0  0  0
   32.3672   -2.2928    0.0000 S   0  0  0  0  0  0  0  0  0  0  0  0
   31.0979   -0.0259    0.0000 N   0  0  0  0  0  0  0  0  0  0  0  0
   29.7891   -0.7588    0.0000 C   0  0  0  0  0  0  0  0  0  0  0  0
   28.5000    0.0082    0.0000 C   0  0  0  0  0  0  0  0  0  0  0  0
   27.1912   -0.7246    0.0000 O   0  0  0  0  0  0  0  0  0  0  0  0
   25.9022    0.0424    0.0000 C   0  0  0  0  0  0  0  0  0  0  0  0
   24.5934   -0.6905    0.0000 O   0  0  0  0  0  0  0  0  0  0  0  0
   23.3043    0.0766    0.0000 C   0  0  0  0  0  0  0  0  0  0  0  0
   21.9955   -0.6563    0.0000 C   0  0  0  0  0  0  0  0  0  0  0  0
   20.7065    0.1107    0.0000 O   0  0  0  0  0  0  0  0  0  0  0  0
   19.3977   -0.6222    0.0000 C   0  0  0  0  0  0  0  0  0  0  0  0
   18.1086    0.1449    0.0000 C   0  0  0  0  0  0  0  0  0  0  0  0
   16.7998   -0.5880    0.0000 C   0  0  0  0  0  0  0  0  0  0  0  0
   16.7801   -2.0879    0.0000 O   0  0  0  0  0  0  0  0  0  0  0  0
   15.5108    0.1790    0.0000 N   0  0  0  0  0  0  0  0  0  0  0  0
   14.2020   -0.5538    0.0000 C   0  0  0  0  0  0  0  0  0  0  0  0
   13.2228   -1.6901    0.0000 C   0  0  0  0  0  0  0  0  0  0  0  0
   11.7491   -1.4103    0.0000 C   0  0  0  0  0  0  0  0  0  0  0  0
   10.7699   -2.5466    0.0000 C   0  0  0  0  0  0  0  0  0  0  0  0
    9.2962   -2.2667    0.0000 C   0  0  0  0  0  0  0  0  0  0  0  0
    8.3170   -3.4030    0.0000 N   0  0  0  0  0  0  0  0  0  0  0  0
   12.9129    0.2132    0.0000 C   0  0  0  0  0  0  0  0  0  0  0  0
   12.9326    1.7130    0.0000 O   0  0  0  0  0  0  0  0  0  0  0  0
   11.6041   -0.5197    0.0000 N   0  0  0  0  0  0  0  0  0  0  0  0
   10.3150    0.2473    0.0000 C   0  0  0  0  0  0  0  0  0  0  0  0
    9.3661    1.4090    0.0000 C   0  0  0  0  0  0  0  0  0  0  0  0
    9.8976    2.8116    0.0000 C   0  0  0  0  0  0  0  0  0  0  0  0
    8.9486    3.9733    0.0000 C   0  0  0  0  0  0  0  0  0  0  0  0
    9.4801    5.3760    0.0000 N   0  0  0  0  0  0  0  0  0  0  0  0
    7.4681    3.7322    0.0000 O   0  0  0  0  0  0  0  0  0  0  0  0
    9.0063   -0.4855    0.0000 C   0  0  0  0  0  0  0  0  0  0  0  0
    8.6968   -1.6605    0.0000 O   0  0  0  0  0  0  0  0  0  0  0  0
    7.7172    0.2815    0.0000 N   0  0  0  0  0  0  0  0  0  0  0  0
    6.4084   -0.4514    0.0000 C   0  0  0  0  0  0  0  0  0  0  0  0
    5.4292   -1.5877    0.0000 C   0  0  0  0  0  0  0  0  0  0  0  0
    3.9555   -1.3078    0.0000 C   0  0  0  0  0  0  0  0  0  0  0  0
    2.9763   -2.4441    0.0000 C   0  0  0  0  0  0  0  0  0  0  0  0
    1.5027   -2.1642    0.0000 C   0  0  0  0  0  0  0  0  0  0  0  0
    0.5235   -3.3005    0.0000 N   0  0  0  0  0  0  0  0  0  0  0  0
    5.1193    0.3156    0.0000 C   0  0  0  0  0  0  0  0  0  0  0  0
    5.1391    1.8155    0.0000 O   0  0  0  0  0  0  0  0  0  0  0  0
    3.8106   -0.4172    0.0000 N   0  0  0  0  0  0  0  0  0  0  0  0
    2.5215    0.3498    0.0000 C   0  0  0  0  0  0  0  0  0  0  0  0
    1.5725    1.5114    0.0000 C   0  0  0  0  0  0  0  0  0  0  0  0
    2.1040    2.9141    0.0000 C   0  0  0  0  0  0  0  0  0  0  0  0
    1.1550    4.0757    0.0000 C   0  0  0  0  0  0  0  0  0  0  0  0
    1.6865    5.4784    0.0000 N   0  0  0  0  0  0  0  0  0  0  0  0
    0.7375    6.6401    0.0000 C   0  0  0  0  0  0  0  0  0  0  0  0
    1.2691    8.0427    0.0000 N   0  0  0  0  0  0  0  0  0  0  0  0
   -0.7430    6.3990    0.0000 N   0  0  0  0  0  0  0  0  0  0  0  0
    1.2127   -0.3831    0.0000 C   0  0  0  0  0  0  0  0  0  0  0  0
    0.9032   -1.5580    0.0000 O   0  0  0  0  0  0  0  0  0  0  0  0
   -0.0764    0.3839    0.0000 N   0  0  0  0  0  0  0  0  0  0  0  0
   -1.3851   -0.3489    0.0000 C   0  0  0  0  0  0  0  0  0  0  0  0
   -2.3643   -1.4852    0.0000 C   0  0  0  0  0  0  0  0  0  0  0  0
   -3.8380   -1.2053    0.0000 C   0  0  0  0  0  0  0  0  0  0  0  0
   -4.8172   -2.3416    0.0000 C   0  0  0  0  0  0  0  0  0  0  0  0
   -6.2909   -2.0618    0.0000 C   0  0  0  0  0  0  0  0  0  0  0  0
   -7.2701   -3.1981    0.0000 N   0  0  0  0  0  0  0  0  0  0  0  0
   -2.6742    0.4181    0.0000 C   0  0  0  0  0  0  0  0  0  0  0  0
   -2.4920    1.7557    0.0000 O   0  0  0  0  0  0  0  0  0  0  0  0
   -3.9830   -0.3148    0.0000 N   0  0  0  0  0  0  0  0  0  0  0  0
   -5.2721    0.4522    0.0000 C   0  0  0  0  0  0  0  0  0  0  0  0
   -6.2211    1.6139    0.0000 C   0  0  0  0  0  0  0  0  0  0  0  0
   -5.6895    3.0166    0.0000 C   0  0  0  0  0  0  0  0  0  0  0  0
   -4.2090    3.2576    0.0000 C   0  0  0  0  0  0  0  0  0  0  0  0
   -3.2339    2.3240    0.0000 F   0  0  0  0  0  0  0  0  0  0  0  0
   -3.6775    4.6603    0.0000 C   0  0  0  0  0  0  0  0  0  0  0  0
   -2.1970    4.9013    0.0000 F   0  0  0  0  0  0  0  0  0  0  0  0
   -4.6265    5.8219    0.0000 C   0  0  0  0  0  0  0  0  0  0  0  0
   -4.0950    7.2246    0.0000 F   0  0  0  0  0  0  0  0  0  0  0  0
   -6.1070    5.5809    0.0000 C   0  0  0  0  0  0  0  0  0  0  0  0
   -7.0560    6.7425    0.0000 F   0  0  0  0  0  0  0  0  0  0  0  0
   -6.6385    4.1782    0.0000 C   0  0  0  0  0  0  0  0  0  0  0  0
   -8.1190    3.9372    0.0000 F   0  0  0  0  0  0  0  0  0  0  0  0
   -6.5808   -0.2806    0.0000 C   0  0  0  0  0  0  0  0  0  0  0  0
   -6.8903   -1.4555    0.0000 O   0  0  0  0  0  0  0  0  0  0  0  0
   -7.8699    0.4864    0.0000 N   0  0  0  0  0  0  0  0  0  0  0  0
   -9.1787   -0.2465    0.0000 C   0  0  0  0  0  0  0  0  0  0  0  0
  -10.1579   -1.3827    0.0000 C   0  0  0  0  0  0  0  0  0  0  0  0
  -11.5904   -1.8276    0.0000 O   0  0  0  0  0  0  0  0  0  0  0  0
  -10.4678    0.5206    0.0000 C   0  0  0  0  0  0  0  0  0  0  0  0
  -10.2654    2.0068    0.0000 O   0  0  0  0  0  0  0  0  0  0  0  0
  -11.7766   -0.2123    0.0000 N   0  0  0  0  0  0  0  0  0  0  0  0
  -13.0656    0.5547    0.0000 C   0  0  0  0  0  0  0  0  0  0  0  0
  -13.3435    2.0287    0.0000 C   0  0  0  0  0  0  0  0  0  0  0  0
  -14.0435    3.3554    0.0000 C   0  0  0  0  0  0  0  0  0  0  0  0
  -15.1034    4.4168    0.0000 C   0  0  0  0  0  0  0  0  0  0  0  0
  -16.4291    5.1186    0.0000 C   0  0  0  0  0  0  0  0  0  0  0  0
  -11.7407    1.2580    0.0000 C   0  0  0  0  0  0  0  0  0  0  0  0
  -13.2346   -0.9357    0.0000 C   0  0  0  0  0  0  0  0  0  0  0  0
  -12.4602   -1.3657    0.0000 O   0  0  0  0  0  0  0  0  0  0  0  0
  -13.8353   -2.3102    0.0000 N   0  0  0  0  0  0  0  0  0  0  0  0
  -14.8146   -3.4465    0.0000 C   0  0  0  0  0  0  0  0  0  0  0  0
  -14.6105   -4.9325    0.0000 C   0  0  0  0  0  0  0  0  0  0  0  0
  -13.2215   -5.4988    0.0000 C   0  0  0  0  0  0  0  0  0  0  0  0
  -13.0175   -6.9849    0.0000 C   0  0  0  0  0  0  0  0  0  0  0  0
  -11.6285   -7.5512    0.0000 C   0  0  0  0  0  0  0  0  0  0  0  0
  -10.4435   -6.6315    0.0000 C   0  0  0  0  0  0  0  0  0  0  0  0
  -10.6476   -5.1454    0.0000 C   0  0  0  0  0  0  0  0  0  0  0  0
  -12.0366   -4.5791    0.0000 C   0  0  0  0  0  0  0  0  0  0  0  0
  -16.0852   -4.2437    0.0000 C   0  0  0  0  0  0  0  0  0  0  0  0
  -15.4863   -5.6189    0.0000 O   0  0  0  0  0  0  0  0  0  0  0  0
  -17.5343   -4.6309    0.0000 N   0  0  0  0  0  0  0  0  0  0  0  0
  -19.0332   -4.5738    0.0000 C   0  0  0  0  0  0  0  0  0  0  0  0
  -20.0679   -5.6599    0.0000 C   0  0  0  0  0  0  0  0  0  0  0  0
  -19.6446   -7.0989    0.0000 C   0  0  0  0  0  0  0  0  0  0  0  0
  -20.6792   -8.1850    0.0000 C   0  0  0  0  0  0  0  0  0  0  0  0
  -20.2560   -9.6240    0.0000 C   0  0  0  0  0  0  0  0  0  0  0  0
  -18.7981   -9.9770    0.0000 C   0  0  0  0  0  0  0  0  0  0  0  0
  -17.7635   -8.8909    0.0000 C   0  0  0  0  0  0  0  0  0  0  0  0
  -18.1867   -7.4519    0.0000 C   0  0  0  0  0  0  0  0  0  0  0  0
  -20.4487   -4.0774    0.0000 C   0  0  0  0  0  0  0  0  0  0  0  0
  -21.1505   -5.4031    0.0000 O   0  0  0  0  0  0  0  0  0  0  0  0
  -21.6550   -3.1859    0.0000 N   0  0  0  0  0  0  0  0  0  0  0  0
  -22.5449   -1.9784    0.0000 C   0  0  0  0  0  0  0  0  0  0  0  0
  -24.0391   -1.8466    0.0000 C   0  0  0  0  0  0  0  0  0  0  0  0
  -24.9003   -3.0748    0.0000 C   0  0  0  0  0  0  0  0  0  0  0  0
  -26.3945   -2.9430    0.0000 C   0  0  0  0  0  0  0  0  0  0  0  0
  -27.2557   -4.1711    0.0000 C   0  0  0  0  0  0  0  0  0  0  0  0
  -28.7499   -4.0394    0.0000 N   0  0  0  0  0  0  0  0  0  0  0  0
  -23.0394   -0.5622    0.0000 C   0  0  0  0  0  0  0  0  0  0  0  0
  -24.5134   -0.8401    0.0000 O   0  0  0  0  0  0  0  0  0  0  0  0
  -23.0945    0.9368    0.0000 N   0  0  0  0  0  0  0  0  0  0  0  0
  -22.7052    2.3854    0.0000 C   0  0  0  0  0  0  0  0  0  0  0  0
  -21.9063    3.6550    0.0000 C   0  0  0  0  0  0  0  0  0  0  0  0
  -20.7687    4.6326    0.0000 C   0  0  0  0  0  0  0  0  0  0  0  0
  -19.3935    5.2315    0.0000 C   0  0  0  0  0  0  0  0  0  0  0  0
  -17.9028    5.3985    0.0000 C   0  0  0  0  0  0  0  0  0  0  0  0
  -24.1858    2.1444    0.0000 C   0  0  0  0  0  0  0  0  0  0  0  0
  -23.5339    3.6358    0.0000 C   0  0  0  0  0  0  0  0  0  0  0  0
  -23.2101    5.1004    0.0000 O   0  0  0  0  0  0  0  0  0  0  0  0
  -25.0310    3.5434    0.0000 N   0  0  0  0  0  0  0  0  0  0  0  0
  -25.8596    4.7937    0.0000 C   0  0  0  0  0  0  0  0  0  0  0  0
  -26.2106    6.2521    0.0000 C   0  0  0  0  0  0  0  0  0  0  0  0
  -25.1231    7.2852    0.0000 C   0  0  0  0  0  0  0  0  0  0  0  0
  -25.4741    8.7436    0.0000 C   0  0  0  0  0  0  0  0  0  0  0  0
  -23.7479    7.8841    0.0000 C   0  0  0  0  0  0  0  0  0  0  0  0
  -27.3568    4.7013    0.0000 C   0  0  0  0  0  0  0  0  0  0  0  0
  -28.3316    5.8413    0.0000 O   0  0  0  0  0  0  0  0  0  0  0  0
  -28.0253    3.3585    0.0000 O   0  0  0  0  0  0  0  0  0  0  0  0
   33.5325    1.4310    0.0000 H   0  0  0  0  0  0  0  0  0  0  0  0
   33.6563   -3.0598    0.0000 H   0  0  0  0  0  0  0  0  0  0  0  0
   36.2344   -4.5938    0.0000 H   0  0  0  0  0  0  0  0  0  0  0  0
   36.0151    1.0884    0.0000 H   0  0  0  0  0  0  0  0  0  0  0  0
   42.9221    3.0093    0.0000 H   0  0  0  0  0  0  0  0  0  0  0  0
   43.9355   -2.0870    0.0000 H   0  0  0  0  0  0  0  0  0  0  0  0
   40.9931   -2.6721    0.0000 H   0  0  0  0  0  0  0  0  0  0  0  0
   45.8889   -0.3741    0.0000 H   0  0  0  0  0  0  0  0  0  0  0  0
   36.0728   -1.0016    0.0000 H   0  0  0  0  0  0  0  0  0  0  0  0
   34.0702    1.4355    0.0000 H   0  0  0  0  0  0  0  0  0  0  0  0
   38.0018    4.6799    0.0000 H   0  0  0  0  0  0  0  0  0  0  0  0
   35.5416    5.5151    0.0000 H   0  0  0  0  0  0  0  0  0  0  0  0
   31.1176    1.4740    0.0000 H   0  0  0  0  0  0  0  0  0  0  0  0
   28.8099   -1.8951    0.0000 H   0  0  0  0  0  0  0  0  0  0  0  0
   30.7381   -1.9204    0.0000 H   0  0  0  0  0  0  0  0  0  0  0  0
   27.6997    1.2769    0.0000 H   0  0  0  0  0  0  0  0  0  0  0  0
   29.4792    1.1445    0.0000 H   0  0  0  0  0  0  0  0  0  0  0  0
   25.1018    1.3111    0.0000 H   0  0  0  0  0  0  0  0  0  0  0  0
   26.7356    1.2896    0.0000 H   0  0  0  0  0  0  0  0  0  0  0  0
   22.3553    1.2382    0.0000 H   0  0  0  0  0  0  0  0  0  0  0  0
   24.1377    1.3237    0.0000 H   0  0  0  0  0  0  0  0  0  0  0  0
   21.1621   -1.9035    0.0000 H   0  0  0  0  0  0  0  0  0  0  0  0
   22.9445   -1.8179    0.0000 H   0  0  0  0  0  0  0  0  0  0  0  0
   18.4185   -1.7584    0.0000 H   0  0  0  0  0  0  0  0  0  0  0  0
   20.1980   -1.8908    0.0000 H   0  0  0  0  0  0  0  0  0  0  0  0
   17.1596    1.3065    0.0000 H   0  0  0  0  0  0  0  0  0  0  0  0
   19.0878    1.2812    0.0000 H   0  0  0  0  0  0  0  0  0  0  0  0
   15.5305    1.6789    0.0000 H   0  0  0  0  0  0  0  0  0  0  0  0
   15.1510   -1.7155    0.0000 H   0  0  0  0  0  0  0  0  0  0  0  0
   12.8662   -3.1471    0.0000 H   0  0  0  0  0  0  0  0  0  0  0  0
   14.5118   -2.4571    0.0000 H   0  0  0  0  0  0  0  0  0  0  0  0
   10.5631   -0.4918    0.0000 H   0  0  0  0  0  0  0  0  0  0  0  0
   11.5597    0.0777    0.0000 H   0  0  0  0  0  0  0  0  0  0  0  0
   10.4133   -4.0036    0.0000 H   0  0  0  0  0  0  0  0  0  0  0  0
   11.9559   -3.4650    0.0000 H   0  0  0  0  0  0  0  0  0  0  0  0
    7.9233   -1.6625    0.0000 H   0  0  0  0  0  0  0  0  0  0  0  0
    9.6528   -0.8097    0.0000 H   0  0  0  0  0  0  0  0  0  0  0  0
    6.8885   -2.9456    0.0000 H   0  0  0  0  0  0  0  0  0  0  0  0
    7.7855   -4.8057    0.0000 H   0  0  0  0  0  0  0  0  0  0  0  0
    9.5030   -4.3214    0.0000 H   0  0  0  0  0  0  0  0  0  0  0  0
   11.2221   -1.9702    0.0000 H   0  0  0  0  0  0  0  0  0  0  0  0
   11.4255    1.2558    0.0000 H   0  0  0  0  0  0  0  0  0  0  0  0
    8.1801    2.3274    0.0000 H   0  0  0  0  0  0  0  0  0  0  0  0
    8.1410    0.5434    0.0000 H   0  0  0  0  0  0  0  0  0  0  0  0
   10.8768    3.9479    0.0000 H   0  0  0  0  0  0  0  0  0  0  0  0
   11.2705    2.2075    0.0000 H   0  0  0  0  0  0  0  0  0  0  0  0
    8.5311    6.5376    0.0000 H   0  0  0  0  0  0  0  0  0  0  0  0
   10.9606    5.6170    0.0000 H   0  0  0  0  0  0  0  0  0  0  0  0
    7.5539    1.7726    0.0000 H   0  0  0  0  0  0  0  0  0  0  0  0
    7.2087   -1.7200    0.0000 H   0  0  0  0  0  0  0  0  0  0  0  0
    5.0726   -3.0447    0.0000 H   0  0  0  0  0  0  0  0  0  0  0  0
    6.8022   -2.1918    0.0000 H   0  0  0  0  0  0  0  0  0  0  0  0
    2.7696   -0.3894    0.0000 H   0  0  0  0  0  0  0  0  0  0  0  0
    3.7662    0.1802    0.0000 H   0  0  0  0  0  0  0  0  0  0  0  0
    2.6198   -3.9011    0.0000 H   0  0  0  0  0  0  0  0  0  0  0  0
    4.1623   -3.3625    0.0000 H   0  0  0  0  0  0  0  0  0  0  0  0
    0.1297   -1.5601    0.0000 H   0  0  0  0  0  0  0  0  0  0  0  0
    1.8593   -0.7072    0.0000 H   0  0  0  0  0  0  0  0  0  0  0  0
   -0.9051   -2.8431    0.0000 H   0  0  0  0  0  0  0  0  0  0  0  0
   -0.0080   -4.7032    0.0000 H   0  0  0  0  0  0  0  0  0  0  0  0
    1.7094   -4.2189    0.0000 H   0  0  0  0  0  0  0  0  0  0  0  0
    3.4285   -1.8678    0.0000 H   0  0  0  0  0  0  0  0  0  0  0  0
    3.6319    1.3582    0.0000 H   0  0  0  0  0  0  0  0  0  0  0  0
    0.2834    2.2784    0.0000 H   0  0  0  0  0  0  0  0  0  0  0  0
    0.3474    0.6458    0.0000 H   0  0  0  0  0  0  0  0  0  0  0  0
    3.0832    4.0504    0.0000 H   0  0  0  0  0  0  0  0  0  0  0  0
    3.4770    2.3099    0.0000 H   0  0  0  0  0  0  0  0  0  0  0  0
   -0.1340    4.8428    0.0000 H   0  0  0  0  0  0  0  0  0  0  0  0
    0.0446    3.0673    0.0000 H   0  0  0  0  0  0  0  0  0  0  0  0
    3.1670    5.7194    0.0000 H   0  0  0  0  0  0  0  0  0  0  0  0
    0.3201    9.2044    0.0000 H   0  0  0  0  0  0  0  0  0  0  0  0
    2.7496    8.2838    0.0000 H   0  0  0  0  0  0  0  0  0  0  0  0
   -1.6920    7.5607    0.0000 H   0  0  0  0  0  0  0  0  0  0  0  0
   -1.2745    4.9964    0.0000 H   0  0  0  0  0  0  0  0  0  0  0  0
   -0.2396    1.8750    0.0000 H   0  0  0  0  0  0  0  0  0  0  0  0
   -0.5848   -1.6176    0.0000 H   0  0  0  0  0  0  0  0  0  0  0  0
   -2.7209   -2.9422    0.0000 H   0  0  0  0  0  0  0  0  0  0  0  0
   -0.9914   -2.0894    0.0000 H   0  0  0  0  0  0  0  0  0  0  0  0
   -5.0240   -0.2869    0.0000 H   0  0  0  0  0  0  0  0  0  0  0  0
   -4.0274    0.2827    0.0000 H   0  0  0  0  0  0  0  0  0  0  0  0
   -5.1738   -3.7986    0.0000 H   0  0  0  0  0  0  0  0  0  0  0  0
   -3.6313   -3.2601    0.0000 H   0  0  0  0  0  0  0  0  0  0  0  0
   -7.6638   -1.4576    0.0000 H   0  0  0  0  0  0  0  0  0  0  0  0
   -5.9343   -0.6048    0.0000 H   0  0  0  0  0  0  0  0  0  0  0  0
   -8.6986   -2.7406    0.0000 H   0  0  0  0  0  0  0  0  0  0  0  0
   -7.8016   -4.6007    0.0000 H   0  0  0  0  0  0  0  0  0  0  0  0
   -6.0841   -4.1165    0.0000 H   0  0  0  0  0  0  0  0  0  0  0  0
   -4.3651   -1.7653    0.0000 H   0  0  0  0  0  0  0  0  0  0  0  0
   -4.2929    1.5885    0.0000 H   0  0  0  0  0  0  0  0  0  0  0  0
   -7.4070    2.5323    0.0000 H   0  0  0  0  0  0  0  0  0  0  0  0
   -7.4461    0.7483    0.0000 H   0  0  0  0  0  0  0  0  0  0  0  0
   -8.0332    1.9775    0.0000 H   0  0  0  0  0  0  0  0  0  0  0  0
   -8.3784   -1.5151    0.0000 H   0  0  0  0  0  0  0  0  0  0  0  0
  -10.6894   -2.7854    0.0000 H   0  0  0  0  0  0  0  0  0  0  0  0
   -8.7850   -1.9869    0.0000 H   0  0  0  0  0  0  0  0  0  0  0  0
  -12.5530   -2.3605    0.0000 H   0  0  0  0  0  0  0  0  0  0  0  0
  -11.7963   -1.7122    0.0000 H   0  0  0  0  0  0  0  0  0  0  0  0
  -11.8534    1.8561    0.0000 H   0  0  0  0  0  0  0  0  0  0  0  0
  -12.4221    3.2124    0.0000 H   0  0  0  0  0  0  0  0  0  0  0  0
  -12.6132    3.8073    0.0000 H   0  0  0  0  0  0  0  0  0  0  0  0
  -13.3450    4.6828    0.0000 H   0  0  0  0  0  0  0  0  0  0  0  0
  -13.7751    5.1135    0.0000 H   0  0  0  0  0  0  0  0  0  0  0  0
  -15.0090    5.9138    0.0000 H   0  0  0  0  0  0  0  0  0  0  0  0
  -15.9327    6.5341    0.0000 H   0  0  0  0  0  0  0  0  0  0  0  0
  -11.5599    2.9141    0.0000 H   0  0  0  0  0  0  0  0  0  0  0  0
  -10.4635    1.9624    0.0000 H   0  0  0  0  0  0  0  0  0  0  0  0
  -10.9280    0.2202    0.0000 H   0  0  0  0  0  0  0  0  0  0  0  0
  -12.5658   -3.1091    0.0000 H   0  0  0  0  0  0  0  0  0  0  0  0
  -13.3761   -3.8717    0.0000 H   0  0  0  0  0  0  0  0  0  0  0  0
  -14.9270   -6.3988    0.0000 H   0  0  0  0  0  0  0  0  0  0  0  0
  -16.0787   -5.2398    0.0000 H   0  0  0  0  0  0  0  0  0  0  0  0
  -14.2024   -7.9046    0.0000 H   0  0  0  0  0  0  0  0  0  0  0  0
  -11.4244   -9.0373    0.0000 H   0  0  0  0  0  0  0  0  0  0  0  0
   -9.0546   -7.1978    0.0000 H   0  0  0  0  0  0  0  0  0  0  0  0
   -9.4627   -4.2257    0.0000 H   0  0  0  0  0  0  0  0  0  0  0  0
  -12.0580   -3.0793    0.0000 H   0  0  0  0  0  0  0  0  0  0  0  0
  -17.1869   -6.0901    0.0000 H   0  0  0  0  0  0  0  0  0  0  0  0
  -18.4688   -5.9635    0.0000 H   0  0  0  0  0  0  0  0  0  0  0  0
  -21.4116   -6.3266    0.0000 H   0  0  0  0  0  0  0  0  0  0  0  0
  -21.2235   -4.7036    0.0000 H   0  0  0  0  0  0  0  0  0  0  0  0
  -22.1371   -7.8320    0.0000 H   0  0  0  0  0  0  0  0  0  0  0  0
  -21.2906  -10.7101    0.0000 H   0  0  0  0  0  0  0  0  0  0  0  0
  -18.3749  -11.4161    0.0000 H   0  0  0  0  0  0  0  0  0  0  0  0
  -16.3056   -9.2439    0.0000 H   0  0  0  0  0  0  0  0  0  0  0  0
  -17.0274   -6.5000    0.0000 H   0  0  0  0  0  0  0  0  0  0  0  0
  -22.7164   -4.2458    0.0000 H   0  0  0  0  0  0  0  0  0  0  0  0
  -23.1147   -3.3659    0.0000 H   0  0  0  0  0  0  0  0  0  0  0  0
  -25.3106   -1.0508    0.0000 H   0  0  0  0  0  0  0  0  0  0  0  0
  -24.0120   -0.3469    0.0000 H   0  0  0  0  0  0  0  0  0  0  0  0
  -25.1101   -4.5600    0.0000 H   0  0  0  0  0  0  0  0  0  0  0  0
  -23.6288   -3.8705    0.0000 H   0  0  0  0  0  0  0  0  0  0  0  0
  -27.6660   -2.1472    0.0000 H   0  0  0  0  0  0  0  0  0  0  0  0
  -26.1848   -1.4577    0.0000 H   0  0  0  0  0  0  0  0  0  0  0  0
  -27.6450   -5.6198    0.0000 H   0  0  0  0  0  0  0  0  0  0  0  0
  -25.9842   -4.9669    0.0000 H   0  0  0  0  0  0  0  0  0  0  0  0
  -29.6111   -5.2675    0.0000 H   0  0  0  0  0  0  0  0  0  0  0  0
  -30.1090   -3.4045    0.0000 H   0  0  0  0  0  0  0  0  0  0  0  0
  -28.5402   -2.5541    0.0000 H   0  0  0  0  0  0  0  0  0  0  0  0
  -24.5849    1.1057    0.0000 H   0  0  0  0  0  0  0  0  0  0  0  0
  -22.3296    5.0940    0.0000 H   0  0  0  0  0  0  0  0  0  0  0  0
  -23.2981    4.2144    0.0000 H   0  0  0  0  0  0  0  0  0  0  0  0
  -20.9320    6.1237    0.0000 H   0  0  0  0  0  0  0  0  0  0  0  0
  -21.9337    5.5775    0.0000 H   0  0  0  0  0  0  0  0  0  0  0  0
  -18.9325    6.6589    0.0000 H   0  0  0  0  0  0  0  0  0  0  0  0
  -20.3739    6.3667    0.0000 H   0  0  0  0  0  0  0  0  0  0  0  0
  -17.8457    6.8974    0.0000 H   0  0  0  0  0  0  0  0  0  0  0  0
  -25.3876    3.0419    0.0000 H   0  0  0  0  0  0  0  0  0  0  0  0
  -25.3954    1.2575    0.0000 H   0  0  0  0  0  0  0  0  0  0  0  0
  -24.0487    0.6507    0.0000 H   0  0  0  0  0  0  0  0  0  0  0  0
  -25.8582    2.2921    0.0000 H   0  0  0  0  0  0  0  0  0  0  0  0
  -24.4216    5.2205    0.0000 H   0  0  0  0  0  0  0  0  0  0  0  0
  -27.1855    7.3921    0.0000 H   0  0  0  0  0  0  0  0  0  0  0  0
  -27.6486    5.8253    0.0000 H   0  0  0  0  0  0  0  0  0  0  0  0
  -24.1483    6.1452    0.0000 H   0  0  0  0  0  0  0  0  0  0  0  0
  -24.5207    9.9016    0.0000 H   0  0  0  0  0  0  0  0  0  0  0  0
  -26.3028    9.9939    0.0000 H   0  0  0  0  0  0  0  0  0  0  0  0
  -26.9121    8.3168    0.0000 H   0  0  0  0  0  0  0  0  0  0  0  0
  -23.3985    9.3429    0.0000 H   0  0  0  0  0  0  0  0  0  0  0  0
  -22.2507    7.9765    0.0000 H   0  0  0  0  0  0  0  0  0  0  0  0
  -23.3969    6.4258    0.0000 H   0  0  0  0  0  0  0  0  0  0  0  0
  1  2  1  0
  2  3  1  0
  3  4  2  0
  4  5  1  0
  5  6  2  0
  6  7  1  0
  7  8  2  0
  7  9  1  0
  9 10  1  0
 10 11  1  0
 11 12  2  0
  9 13  1  0
 13 14  1  0
 14 15  2  0
 15 16  1  0
 16 17  2  0
 17 18  1  0
 16 19  1  0
 14 20  1  0
 20 21  1  0
 21 22  2  0
 22 23  1  0
 23 24  2  0
 24 25  1  0
 25 26  2  0
 25 27  1  0
  1 28  2  0
  1 29  1  0
 29 30  1  0
 30 31  1  0
 31 32  1  0
 32 33  1  0
 33 34  1  0
 34 35  1  0
 35 36  1  0
 36 37  1  0
 37 38  1  0
 38 39  1  0
 39 40  1  0
 40 41  2  0
 40 42  1  0
 42 43  1  0
 43 44  1  0
 44 45  1  0
 45 46  1  0
 46 47  1  0
 47 48  1  0
 43 49  1  0
 49 50  2  0
 49 51  1  0
 51 52  1  0
 52 53  1  0
 53 54  1  0
 54 55  1  0
 55 56  1  0
 55 57  2  0
 52 58  1  0
 58 59  2  0
 58 60  1  0
 60 61  1  0
 61 62  1  0
 62 63  1  0
 63 64  1  0
 64 65  1  0
 65 66  1  0
 61 67  1  0
 67 68  2  0
 67 69  1  0
 69 70  1  0
 70 71  1  0
 71 72  1  0
 72 73  1  0
 73 74  1  0
 74 75  1  0
 75 76  2  3
 75 77  1  0
 70 78  1  0
 78 79  2  0
 78 80  1  0
 80 81  1  0
 81 82  1  0
 82 83  1  0
 83 84  1  0
 84 85  1  0
 85 86  1  0
 81 87  1  0
 87 88  2  0
 87 89  1  0
 89 90  1  0
 90 91  1  0
 91 92  1  0
 92 93  2  0
 93 94  1  0
 93 95  1  0
 95 96  1  0
 95 97  2  0
 97 98  1  0
 97 99  1  0
 99100  1  0
 99101  2  0
101102  1  0
 90103  1  0
103104  2  0
103105  1  0
105106  1  0
106107  1  0
107108  1  0
106109  1  0
109110  2  0
109111  1  0
112111  1  6
112113  1  0
113114  1  0
114115  1  0
115116  1  0
112117  1  0
112118  1  0
118119  2  0
118120  1  0
120121  1  0
121122  1  0
122123  1  0
123124  2  0
124125  1  0
125126  2  0
126127  1  0
127128  2  0
121129  1  0
129130  2  0
129131  1  0
131132  1  0
132133  1  0
133134  1  0
134135  2  0
135136  1  0
136137  2  0
137138  1  0
138139  2  0
132140  1  0
140141  2  0
140142  1  0
142143  1  0
143144  1  0
144145  1  0
145146  1  0
146147  1  0
147148  1  0
143149  1  0
149150  2  0
149151  1  0
151152  1  0
152153  1  0
153154  1  0
154155  1  0
155156  1  0
152157  1  0
152158  1  6
158159  2  0
158160  1  0
160161  1  0
161162  1  0
162163  1  0
163164  1  0
163165  1  0
161166  1  0
166167  2  0
166168  1  0
  8  3  1  0
101 92  1  0
128123  1  0
139134  1  0
 11  6  1  0
116156  2  0
 18 13  2  0
 22  9  1  0
 26 21  1  0
  2169  1  0
  4170  1  0
  5171  1  0
  8172  1  0
 15173  1  0
 17174  1  0
 18175  1  0
 19176  1  0
 23177  1  0
 24178  1  0
 26179  1  0
 27180  1  0
 29181  1  0
 30182  1  0
 30183  1  0
 31184  1  0
 31185  1  0
 33186  1  0
 33187  1  0
 35188  1  0
 35189  1  0
 36190  1  0
 36191  1  0
 38192  1  0
 38193  1  0
 39194  1  0
 39195  1  0
 42196  1  0
 43197  1  1
 44198  1  0
 44199  1  0
 45200  1  0
 45201  1  0
 46202  1  0
 46203  1  0
 47204  1  0
 47205  1  0
 48206  1  0
 48207  1  0
 48208  1  0
 51209  1  0
 52210  1  6
 53211  1  0
 53212  1  0
 54213  1  0
 54214  1  0
 56215  1  0
 56216  1  0
 60217  1  0
 61218  1  1
 62219  1  0
 62220  1  0
 63221  1  0
 63222  1  0
 64223  1  0
 64224  1  0
 65225  1  0
 65226  1  0
 66227  1  0
 66228  1  0
 66229  1  0
 69230  1  0
 70231  1  6
 71232  1  0
 71233  1  0
 72234  1  0
 72235  1  0
 73236  1  0
 73237  1  0
 74238  1  0
 76239  1  0
 76240  1  0
 77241  1  0
 77242  1  0
 80243  1  0
 81244  1  1
 82245  1  0
 82246  1  0
 83247  1  0
 83248  1  0
 84249  1  0
 84250  1  0
 85251  1  0
 85252  1  0
 86253  1  0
 86254  1  0
 86255  1  0
 89256  1  0
 90257  1  1
 91258  1  0
 91259  1  0
105260  1  0
106261  1  1
107262  1  0
107263  1  0
108264  1  0
111265  1  0
113266  1  0
113267  1  0
114268  1  0
114269  1  0
115270  1  0
115271  1  0
116272  1  0
117273  1  0
117274  1  0
117275  1  0
120276  1  0
121277  1  1
122278  1  0
122279  1  0
124280  1  0
125281  1  0
126282  1  0
127283  1  0
128284  1  0
131285  1  0
132286  1  1
133287  1  0
133288  1  0
135289  1  0
136290  1  0
137291  1  0
138292  1  0
139293  1  0
142294  1  0
143295  1  1
144296  1  0
144297  1  0
145298  1  0
145299  1  0
146300  1  0
146301  1  0
147302  1  0
147303  1  0
148304  1  0
148305  1  0
148306  1  0
151307  1  0
153308  1  0
153309  1  0
154310  1  0
154311  1  0
155312  1  0
155313  1  0
156314  1  0
157315  1  0
157316  1  0
157317  1  0
160318  1  0
161319  1  6
162320  1  0
162321  1  0
163322  1  0
164323  1  0
164324  1  0
164325  1  0
165326  1  0
165327  1  0
165328  1  0
M  CHG  6  48   1  66   1  76   1  86   1 148   1 168  -1
M  END
