
     RDKit          2D

331340  0  0  0  0  0  0  0  0999 V2000
   23.5702   -3.5922    0.0000 C   0  0  0  0  0  0  0  0  0  0  0  0
   24.9657   -3.0420    0.0000 N   0  0  0  0  0  0  0  0  0  0  0  0
   26.1399   -3.9754    0.0000 C   0  0  0  0  0  0  0  0  0  0  0  0
   25.9187   -5.4589    0.0000 C   0  0  0  0  0  0  0  0  0  0  0  0
   27.0929   -6.3923    0.0000 C   0  0  0  0  0  0  0  0  0  0  0  0
   28.4883   -5.8421    0.0000 C   0  0  0  0  0  0  0  0  0  0  0  0
   28.7096   -4.3585    0.0000 C   0  0  0  0  0  0  0  0  0  0  0  0
   27.5353   -3.4251    0.0000 C   0  0  0  0  0  0  0  0  0  0  0  0
   30.1889   -4.1105    0.0000 C   0  0  0  0  0  0  0  0  0  0  0  0
   30.8820   -5.4407    0.0000 O   0  0  0  0  0  0  0  0  0  0  0  0
   29.8310   -6.5110    0.0000 C   0  0  0  0  0  0  0  0  0  0  0  0
   30.0790   -7.9903    0.0000 O   0  0  0  0  0  0  0  0  0  0  0  0
   31.6861   -4.0184    0.0000 C   0  0  0  0  0  0  0  0  0  0  0  0
   32.3549   -2.6758    0.0000 C   0  0  0  0  0  0  0  0  0  0  0  0
   33.8521   -2.5837    0.0000 C   0  0  0  0  0  0  0  0  0  0  0  0
   34.6804   -3.8342    0.0000 C   0  0  0  0  0  0  0  0  0  0  0  0
   34.0116   -5.1769    0.0000 C   0  0  0  0  0  0  0  0  0  0  0  0
   32.5144   -5.2689    0.0000 C   0  0  0  0  0  0  0  0  0  0  0  0
   36.1776   -3.7422    0.0000 O   0  0  0  0  0  0  0  0  0  0  0  0
   31.5266   -1.4252    0.0000 O   0  0  0  0  0  0  0  0  0  0  0  0
   30.0294   -1.5173    0.0000 C   0  0  0  0  0  0  0  0  0  0  0  0
   29.3606   -2.8599    0.0000 C   0  0  0  0  0  0  0  0  0  0  0  0
   28.1755   -2.3254    0.0000 C   0  0  0  0  0  0  0  0  0  0  0  0
   27.7338   -1.6585    0.0000 C   0  0  0  0  0  0  0  0  0  0  0  0
   28.0905   -0.9424    0.0000 C   0  0  0  0  0  0  0  0  0  0  0  0
   28.8890   -0.8933    0.0000 C   0  0  0  0  0  0  0  0  0  0  0  0
   26.8756    0.8918    0.0000 O   0  0  0  0  0  0  0  0  0  0  0  0
   23.3490   -5.0758    0.0000 S   0  0  0  0  0  0  0  0  0  0  0  0
   22.3960   -2.6588    0.0000 N   0  0  0  0  0  0  0  0  0  0  0  0
   21.0006   -3.2090    0.0000 C   0  0  0  0  0  0  0  0  0  0  0  0
   19.8263   -2.2756    0.0000 C   0  0  0  0  0  0  0  0  0  0  0  0
   18.4309   -2.8259    0.0000 C   0  0  0  0  0  0  0  0  0  0  0  0
   18.5076   -3.6193    0.0000 O   0  0  0  0  0  0  0  0  0  0  0  0
   17.2567   -1.8925    0.0000 N   0  0  0  0  0  0  0  0  0  0  0  0
   15.8612   -2.4427    0.0000 C   0  0  0  0  0  0  0  0  0  0  0  0
   16.6454   -3.7214    0.0000 C   0  0  0  0  0  0  0  0  0  0  0  0
   18.1449   -3.6816    0.0000 C   0  0  0  0  0  0  0  0  0  0  0  0
   18.9290   -4.9603    0.0000 N   0  0  0  0  0  0  0  0  0  0  0  0
   19.1580   -2.5754    0.0000 O   0  0  0  0  0  0  0  0  0  0  0  0
   14.3618   -2.4825    0.0000 C   0  0  0  0  0  0  0  0  0  0  0  0
   13.9867   -3.9348    0.0000 O   0  0  0  0  0  0  0  0  0  0  0  0
   13.5776   -1.2038    0.0000 N   0  0  0  0  0  0  0  0  0  0  0  0
   12.0781   -1.2435    0.0000 C   0  0  0  0  0  0  0  0  0  0  0  0
   12.3777   -2.7133    0.0000 C   0  0  0  0  0  0  0  0  0  0  0  0
   13.7317   -3.3587    0.0000 C   0  0  0  0  0  0  0  0  0  0  0  0
   12.1564   -4.1969    0.0000 C   0  0  0  0  0  0  0  0  0  0  0  0
   10.7610   -4.7471    0.0000 C   0  0  0  0  0  0  0  0  0  0  0  0
   10.6555   -0.7680    0.0000 C   0  0  0  0  0  0  0  0  0  0  0  0
    9.6619   -1.8918    0.0000 O   0  0  0  0  0  0  0  0  0  0  0  0
   10.3559    0.7018    0.0000 N   0  0  0  0  0  0  0  0  0  0  0  0
    8.9333    1.1772    0.0000 C   0  0  0  0  0  0  0  0  0  0  0  0
    8.7121   -0.3064    0.0000 C   0  0  0  0  0  0  0  0  0  0  0  0
    7.7591    2.1106    0.0000 C   0  0  0  0  0  0  0  0  0  0  0  0
    6.6536    1.0968    0.0000 O   0  0  0  0  0  0  0  0  0  0  0  0
    7.9803    3.5942    0.0000 N   0  0  0  0  0  0  0  0  0  0  0  0
    6.8061    4.5276    0.0000 C   0  0  0  0  0  0  0  0  0  0  0  0
    6.4382    3.0734    0.0000 C   0  0  0  0  0  0  0  0  0  0  0  0
    5.6581    1.7922    0.0000 C   0  0  0  0  0  0  0  0  0  0  0  0
    4.5350    0.7979    0.0000 C   0  0  0  0  0  0  0  0  0  0  0  0
    3.1687    0.1788    0.0000 C   0  0  0  0  0  0  0  0  0  0  0  0
    8.1398    5.2140    0.0000 C   0  0  0  0  0  0  0  0  0  0  0  0
    6.7289    6.0256    0.0000 C   0  0  0  0  0  0  0  0  0  0  0  0
    8.1987    6.3252    0.0000 O   0  0  0  0  0  0  0  0  0  0  0  0
    6.2137    7.4343    0.0000 N   0  0  0  0  0  0  0  0  0  0  0  0
    5.3061    8.6286    0.0000 C   0  0  0  0  0  0  0  0  0  0  0  0
    5.6010   10.0993    0.0000 C   0  0  0  0  0  0  0  0  0  0  0  0
    7.0221   10.5793    0.0000 C   0  0  0  0  0  0  0  0  0  0  0  0
    7.4691   12.0112    0.0000 C   0  0  0  0  0  0  0  0  0  0  0  0
    8.9690   12.0285    0.0000 N   0  0  0  0  0  0  0  0  0  0  0  0
    9.4490   10.6073    0.0000 C   0  0  0  0  0  0  0  0  0  0  0  0
    8.2457    9.7117    0.0000 N   0  0  0  0  0  0  0  0  0  0  0  0
    4.0868    9.5023    0.0000 C   0  0  0  0  0  0  0  0  0  0  0  0
    4.7690   10.8382    0.0000 O   0  0  0  0  0  0  0  0  0  0  0  0
    2.6641    9.9778    0.0000 N   0  0  0  0  0  0  0  0  0  0  0  0
    1.1646   10.0128    0.0000 C   0  0  0  0  0  0  0  0  0  0  0  0
    0.1986   11.1604    0.0000 C   0  0  0  0  0  0  0  0  0  0  0  0
    0.7094   12.5707    0.0000 C   0  0  0  0  0  0  0  0  0  0  0  0
   -0.2566   13.7182    0.0000 C   0  0  0  0  0  0  0  0  0  0  0  0
    1.6717   13.7213    0.0000 C   0  0  0  0  0  0  0  0  0  0  0  0
   -0.2787    9.6043    0.0000 C   0  0  0  0  0  0  0  0  0  0  0  0
   -0.8978   10.9706    0.0000 O   0  0  0  0  0  0  0  0  0  0  0  0
   -1.5375    8.7885    0.0000 N   0  0  0  0  0  0  0  0  0  0  0  0
   -2.4999    7.6379    0.0000 C   0  0  0  0  0  0  0  0  0  0  0  0
   -3.9993    7.5981    0.0000 C   0  0  0  0  0  0  0  0  0  0  0  0
   -3.0803    6.2547    0.0000 C   0  0  0  0  0  0  0  0  0  0  0  0
   -4.3060    7.1194    0.0000 O   0  0  0  0  0  0  0  0  0  0  0  0
   -3.2273    4.7620    0.0000 N   0  0  0  0  0  0  0  0  0  0  0  0
   -2.9278    3.2922    0.0000 C   0  0  0  0  0  0  0  0  0  0  0  0
   -2.2083    1.9760    0.0000 C   0  0  0  0  0  0  0  0  0  0  0  0
   -1.1329    0.9303    0.0000 C   0  0  0  0  0  0  0  0  0  0  0  0
    0.2030    0.2481    0.0000 C   0  0  0  0  0  0  0  0  0  0  0  0
    1.6806   -0.0100    0.0000 C   0  0  0  0  0  0  0  0  0  0  0  0
   -2.5488    1.8408    0.0000 C   0  0  0  0  0  0  0  0  0  0  0  0
   -2.4513    0.3440    0.0000 C   0  0  0  0  0  0  0  0  0  0  0  0
   -2.6388   -1.1442    0.0000 C   0  0  0  0  0  0  0  0  0  0  0  0
   -3.1046   -2.5701    0.0000 C   0  0  0  0  0  0  0  0  0  0  0  0
   -3.5746    4.6455    0.0000 C   0  0  0  0  0  0  0  0  0  0  0  0
   -2.2889    5.4181    0.0000 O   0  0  0  0  0  0  0  0  0  0  0  0
   -4.4659    5.8520    0.0000 N   0  0  0  0  0  0  0  0  0  0  0  0
   -5.5694    6.8681    0.0000 C   0  0  0  0  0  0  0  0  0  0  0  0
   -5.4291    8.3615    0.0000 C   0  0  0  0  0  0  0  0  0  0  0  0
   -6.5374    9.3723    0.0000 C   0  0  0  0  0  0  0  0  0  0  0  0
   -6.8452    7.6569    0.0000 C   0  0  0  0  0  0  0  0  0  0  0  0
   -6.3501    9.0728    0.0000 O   0  0  0  0  0  0  0  0  0  0  0  0
   -8.2473    8.1900    0.0000 N   0  0  0  0  0  0  0  0  0  0  0  0
   -9.7249    8.4481    0.0000 C   0  0  0  0  0  0  0  0  0  0  0  0
  -11.2247    8.4220    0.0000 C   0  0  0  0  0  0  0  0  0  0  0  0
  -11.3933    9.9125    0.0000 O   0  0  0  0  0  0  0  0  0  0  0  0
  -12.6924    8.1125    0.0000 N   0  0  0  0  0  0  0  0  0  0  0  0
  -14.0750    7.5307    0.0000 C   0  0  0  0  0  0  0  0  0  0  0  0
  -15.3752    8.2787    0.0000 C   0  0  0  0  0  0  0  0  0  0  0  0
  -15.3776    9.7787    0.0000 C   0  0  0  0  0  0  0  0  0  0  0  0
  -16.6778   10.5266    0.0000 O   0  0  0  0  0  0  0  0  0  0  0  0
  -14.0797   10.5307    0.0000 O   0  0  0  0  0  0  0  0  0  0  0  0
  -15.3225    6.6979    0.0000 C   0  0  0  0  0  0  0  0  0  0  0  0
  -16.4049    7.7364    0.0000 O   0  0  0  0  0  0  0  0  0  0  0  0
  -16.3899    5.6440    0.0000 N   0  0  0  0  0  0  0  0  0  0  0  0
  -17.2386    4.4071    0.0000 C   0  0  0  0  0  0  0  0  0  0  0  0
  -18.7367    4.3334    0.0000 C   0  0  0  0  0  0  0  0  0  0  0  0
  -19.5497    5.5940    0.0000 C   0  0  0  0  0  0  0  0  0  0  0  0
  -19.0077    6.9927    0.0000 C   0  0  0  0  0  0  0  0  0  0  0  0
  -20.1704    7.9403    0.0000 N   0  0  0  0  0  0  0  0  0  0  0  0
  -21.4310    7.1274    0.0000 C   0  0  0  0  0  0  0  0  0  0  0  0
  -22.8786    7.5202    0.0000 C   0  0  0  0  0  0  0  0  0  0  0  0
  -23.9427    6.4629    0.0000 C   0  0  0  0  0  0  0  0  0  0  0  0
  -23.5591    5.0128    0.0000 C   0  0  0  0  0  0  0  0  0  0  0  0
  -22.1114    4.6200    0.0000 C   0  0  0  0  0  0  0  0  0  0  0  0
  -21.0474    5.6773    0.0000 C   0  0  0  0  0  0  0  0  0  0  0  0
  -17.8378    3.0320    0.0000 C   0  0  0  0  0  0  0  0  0  0  0  0
  -19.3098    3.3206    0.0000 O   0  0  0  0  0  0  0  0  0  0  0  0
  -18.1659    1.5684    0.0000 N   0  0  0  0  0  0  0  0  0  0  0  0
  -18.2112    0.0690    0.0000 C   0  0  0  0  0  0  0  0  0  0  0  0
  -19.4316   -0.8030    0.0000 C   0  0  0  0  0  0  0  0  0  0  0  0
  -20.7971   -0.1820    0.0000 C   0  0  0  0  0  0  0  0  0  0  0  0
  -22.0176   -1.0540    0.0000 N   0  0  0  0  0  0  0  0  0  0  0  0
  -20.9420    1.3110    0.0000 O   0  0  0  0  0  0  0  0  0  0  0  0
  -17.9718   -1.4117    0.0000 C   0  0  0  0  0  0  0  0  0  0  0  0
  -19.3661   -1.9648    0.0000 O   0  0  0  0  0  0  0  0  0  0  0  0
  -17.4566   -2.8205    0.0000 N   0  0  0  0  0  0  0  0  0  0  0  0
  -16.6840   -4.1062    0.0000 C   0  0  0  0  0  0  0  0  0  0  0  0
  -17.2393   -5.4996    0.0000 C   0  0  0  0  0  0  0  0  0  0  0  0
  -18.7237   -5.7155    0.0000 C   0  0  0  0  0  0  0  0  0  0  0  0
  -19.2790   -7.1089    0.0000 O   0  0  0  0  0  0  0  0  0  0  0  0
  -19.6528   -4.5379    0.0000 O   0  0  0  0  0  0  0  0  0  0  0  0
  -15.6821   -5.2225    0.0000 C   0  0  0  0  0  0  0  0  0  0  0  0
  -16.5560   -6.4416    0.0000 O   0  0  0  0  0  0  0  0  0  0  0  0
  -14.4870   -6.1291    0.0000 N   0  0  0  0  0  0  0  0  0  0  0  0
  -13.1420   -6.7930    0.0000 C   0  0  0  0  0  0  0  0  0  0  0  0
  -11.6956   -7.1905    0.0000 C   0  0  0  0  0  0  0  0  0  0  0  0
  -10.2001   -7.3070    0.0000 C   0  0  0  0  0  0  0  0  0  0  0  0
   -8.7096   -7.1384    0.0000 C   0  0  0  0  0  0  0  0  0  0  0  0
   -7.2780   -6.6907    0.0000 C   0  0  0  0  0  0  0  0  0  0  0  0
   -5.9569   -5.9802    0.0000 C   0  0  0  0  0  0  0  0  0  0  0  0
   -4.7942   -5.0326    0.0000 C   0  0  0  0  0  0  0  0  0  0  0  0
   -3.8318   -3.8820    0.0000 C   0  0  0  0  0  0  0  0  0  0  0  0
  -14.3342   -7.7033    0.0000 C   0  0  0  0  0  0  0  0  0  0  0  0
  -12.8558   -8.2655    0.0000 C   0  0  0  0  0  0  0  0  0  0  0  0
  -11.5978   -9.0825    0.0000 O   0  0  0  0  0  0  0  0  0  0  0  0
  -13.9879   -9.2496    0.0000 N   0  0  0  0  0  0  0  0  0  0  0  0
  -13.7016  -10.7220    0.0000 C   0  0  0  0  0  0  0  0  0  0  0  0
  -12.9291  -12.0078    0.0000 C   0  0  0  0  0  0  0  0  0  0  0  0
  -13.1378  -13.4932    0.0000 O   0  0  0  0  0  0  0  0  0  0  0  0
  -14.8337  -11.7061    0.0000 C   0  0  0  0  0  0  0  0  0  0  0  0
  -16.2520  -11.2177    0.0000 O   0  0  0  0  0  0  0  0  0  0  0  0
  -14.5475  -13.1785    0.0000 N   0  0  0  0  0  0  0  0  0  0  0  0
  -15.6796  -14.1626    0.0000 C   0  0  0  0  0  0  0  0  0  0  0  0
  -17.0800  -14.7001    0.0000 C   0  0  0  0  0  0  0  0  0  0  0  0
  -18.1219  -13.6211    0.0000 C   0  0  0  0  0  0  0  0  0  0  0  0
  -18.2120  -15.6842    0.0000 C   0  0  0  0  0  0  0  0  0  0  0  0
  -19.6303  -15.1959    0.0000 C   0  0  0  0  0  0  0  0  0  0  0  0
  -15.3934  -15.6351    0.0000 C   0  0  0  0  0  0  0  0  0  0  0  0
  -16.2537  -16.8638    0.0000 O   0  0  0  0  0  0  0  0  0  0  0  0
  -13.9751  -16.1234    0.0000 O   0  0  0  0  0  0  0  0  0  0  0  0
   25.0044   -1.5425    0.0000 H   0  0  0  0  0  0  0  0  0  0  0  0
   24.5232   -6.0092    0.0000 H   0  0  0  0  0  0  0  0  0  0  0  0
   26.8717   -7.8759    0.0000 H   0  0  0  0  0  0  0  0  0  0  0  0
   27.3910   -1.9321    0.0000 H   0  0  0  0  0  0  0  0  0  0  0  0
   34.5209   -1.2411    0.0000 H   0  0  0  0  0  0  0  0  0  0  0  0
   34.8399   -6.4274    0.0000 H   0  0  0  0  0  0  0  0  0  0  0  0
   31.8455   -6.6116    0.0000 H   0  0  0  0  0  0  0  0  0  0  0  0
   37.0059   -4.9927    0.0000 H   0  0  0  0  0  0  0  0  0  0  0  0
   27.1946   -4.2946    0.0000 H   0  0  0  0  0  0  0  0  0  0  0  0
   25.5379   -1.6103    0.0000 H   0  0  0  0  0  0  0  0  0  0  0  0
   29.8700    1.0759    0.0000 H   0  0  0  0  0  0  0  0  0  0  0  0
   27.5445    2.2344    0.0000 H   0  0  0  0  0  0  0  0  0  0  0  0
   22.6172   -1.1752    0.0000 H   0  0  0  0  0  0  0  0  0  0  0  0
   21.7847   -4.4877    0.0000 H   0  0  0  0  0  0  0  0  0  0  0  0
   20.0070   -4.3328    0.0000 H   0  0  0  0  0  0  0  0  0  0  0  0
   20.9494   -1.2813    0.0000 H   0  0  0  0  0  0  0  0  0  0  0  0
   19.0422   -0.9969    0.0000 H   0  0  0  0  0  0  0  0  0  0  0  0
   17.4779   -0.4089    0.0000 H   0  0  0  0  0  0  0  0  0  0  0  0
   15.5617   -0.9729    0.0000 H   0  0  0  0  0  0  0  0  0  0  0  0
   16.9449   -5.1912    0.0000 H   0  0  0  0  0  0  0  0  0  0  0  0
   15.2500   -4.2716    0.0000 H   0  0  0  0  0  0  0  0  0  0  0  0
   20.4222   -5.1036    0.0000 H   0  0  0  0  0  0  0  0  0  0  0  0
   18.2137   -6.2788    0.0000 H   0  0  0  0  0  0  0  0  0  0  0  0
   14.2929    0.1147    0.0000 H   0  0  0  0  0  0  0  0  0  0  0  0
   12.2993    0.2401    0.0000 H   0  0  0  0  0  0  0  0  0  0  0  0
   10.8845   -2.5700    0.0000 H   0  0  0  0  0  0  0  0  0  0  0  0
   14.2555   -4.6040    0.0000 H   0  0  0  0  0  0  0  0  0  0  0  0
   15.2998   -3.1490    0.0000 H   0  0  0  0  0  0  0  0  0  0  0  0
   14.4130   -1.8244    0.0000 H   0  0  0  0  0  0  0  0  0  0  0  0
   12.4560   -5.6667    0.0000 H   0  0  0  0  0  0  0  0  0  0  0  0
   13.6210   -4.5212    0.0000 H   0  0  0  0  0  0  0  0  0  0  0  0
   10.5398   -6.2307    0.0000 H   0  0  0  0  0  0  0  0  0  0  0  0
    9.2615   -4.7869    0.0000 H   0  0  0  0  0  0  0  0  0  0  0  0
   10.2845   -3.3248    0.0000 H   0  0  0  0  0  0  0  0  0  0  0  0
   11.4790    1.6961    0.0000 H   0  0  0  0  0  0  0  0  0  0  0  0
    9.6486    2.4957    0.0000 H   0  0  0  0  0  0  0  0  0  0  0  0
    9.7638   -1.3759    0.0000 H   0  0  0  0  0  0  0  0  0  0  0  0
    7.9968   -1.6248    0.0000 H   0  0  0  0  0  0  0  0  0  0  0  0
    7.2894    0.1691    0.0000 H   0  0  0  0  0  0  0  0  0  0  0  0
    9.4324    3.9702    0.0000 H   0  0  0  0  0  0  0  0  0  0  0  0
    7.9347    2.9710    0.0000 H   0  0  0  0  0  0  0  0  0  0  0  0
    7.1279    1.7414    0.0000 H   0  0  0  0  0  0  0  0  0  0  0  0
    6.8859    0.9306    0.0000 H   0  0  0  0  0  0  0  0  0  0  0  0
    6.2738    0.4244    0.0000 H   0  0  0  0  0  0  0  0  0  0  0  0
    5.8181    0.0210    0.0000 H   0  0  0  0  0  0  0  0  0  0  0  0
    4.5374   -0.7021    0.0000 H   0  0  0  0  0  0  0  0  0  0  0  0
    3.5772   -1.2645    0.0000 H   0  0  0  0  0  0  0  0  0  0  0  0
    9.4907    4.5620    0.0000 H   0  0  0  0  0  0  0  0  0  0  0  0
    9.1583    6.3152    0.0000 H   0  0  0  0  0  0  0  0  0  0  0  0
    7.5481    6.5924    0.0000 H   0  0  0  0  0  0  0  0  0  0  0  0
    7.5299    8.1538    0.0000 H   0  0  0  0  0  0  0  0  0  0  0  0
    6.7679    8.9647    0.0000 H   0  0  0  0  0  0  0  0  0  0  0  0
    5.3751   11.5822    0.0000 H   0  0  0  0  0  0  0  0  0  0  0  0
    4.1544   10.4962    0.0000 H   0  0  0  0  0  0  0  0  0  0  0  0
    6.5735   13.2144    0.0000 H   0  0  0  0  0  0  0  0  0  0  0  0
    9.8366   13.2521    0.0000 H   0  0  0  0  0  0  0  0  0  0  0  0
   10.8808   10.1603    0.0000 H   0  0  0  0  0  0  0  0  0  0  0  0
    2.9223   11.4554    0.0000 H   0  0  0  0  0  0  0  0  0  0  0  0
    1.9733   11.2761    0.0000 H   0  0  0  0  0  0  0  0  0  0  0  0
   -1.1831   11.7442    0.0000 H   0  0  0  0  0  0  0  0  0  0  0  0
   -1.0136   10.2768    0.0000 H   0  0  0  0  0  0  0  0  0  0  0  0
    2.0911   11.9868    0.0000 H   0  0  0  0  0  0  0  0  0  0  0  0
    0.0784   15.1803    0.0000 H   0  0  0  0  0  0  0  0  0  0  0  0
   -1.5569   14.4662    0.0000 H   0  0  0  0  0  0  0  0  0  0  0  0
   -1.3521   12.6935    0.0000 H   0  0  0  0  0  0  0  0  0  0  0  0
    1.3320   15.1823    0.0000 H   0  0  0  0  0  0  0  0  0  0  0  0
    2.9696   14.4733    0.0000 H   0  0  0  0  0  0  0  0  0  0  0  0
    2.6377   12.5737    0.0000 H   0  0  0  0  0  0  0  0  0  0  0  0
   -2.5318    9.9116    0.0000 H   0  0  0  0  0  0  0  0  0  0  0  0
   -3.1528    8.9883    0.0000 H   0  0  0  0  0  0  0  0  0  0  0  0
   -4.6441    8.9650    0.0000 H   0  0  0  0  0  0  0  0  0  0  0  0
   -5.4864    7.4019    0.0000 H   0  0  0  0  0  0  0  0  0  0  0  0
   -4.2465    6.1186    0.0000 H   0  0  0  0  0  0  0  0  0  0  0  0
   -4.7253    4.6848    0.0000 H   0  0  0  0  0  0  0  0  0  0  0  0
   -2.5434    0.5139    0.0000 H   0  0  0  0  0  0  0  0  0  0  0  0
   -3.7039    1.8615    0.0000 H   0  0  0  0  0  0  0  0  0  0  0  0
   -1.0221   -0.5656    0.0000 H   0  0  0  0  0  0  0  0  0  0  0  0
   -2.2384   -0.0835    0.0000 H   0  0  0  0  0  0  0  0  0  0  0  0
    0.5754   -1.2049    0.0000 H   0  0  0  0  0  0  0  0  0  0  0  0
   -0.5545   -1.0465    0.0000 H   0  0  0  0  0  0  0  0  0  0  0  0
    1.6456   -1.5096    0.0000 H   0  0  0  0  0  0  0  0  0  0  0  0
   -1.4167    2.8249    0.0000 H   0  0  0  0  0  0  0  0  0  0  0  0
   -1.2450    1.0991    0.0000 H   0  0  0  0  0  0  0  0  0  0  0  0
   -0.9701    0.5809    0.0000 H   0  0  0  0  0  0  0  0  0  0  0  0
   -1.3115   -0.6311    0.0000 H   0  0  0  0  0  0  0  0  0  0  0  0
   -1.1396   -1.1919    0.0000 H   0  0  0  0  0  0  0  0  0  0  0  0
   -1.5681   -2.1947    0.0000 H   0  0  0  0  0  0  0  0  0  0  0  0
   -1.7295   -3.1693    0.0000 H   0  0  0  0  0  0  0  0  0  0  0  0
   -3.4800    6.9826    0.0000 H   0  0  0  0  0  0  0  0  0  0  0  0
   -4.2450    7.5723    0.0000 H   0  0  0  0  0  0  0  0  0  0  0  0
   -4.9566    9.7851    0.0000 H   0  0  0  0  0  0  0  0  0  0  0  0
   -3.9828    7.9641    0.0000 H   0  0  0  0  0  0  0  0  0  0  0  0
   -6.5122   10.7231    0.0000 H   0  0  0  0  0  0  0  0  0  0  0  0
   -7.9907    9.9973    0.0000 H   0  0  0  0  0  0  0  0  0  0  0  0
   -7.6349    8.1021    0.0000 H   0  0  0  0  0  0  0  0  0  0  0  0
   -8.0291    9.6741    0.0000 H   0  0  0  0  0  0  0  0  0  0  0  0
  -10.4143    9.7803    0.0000 H   0  0  0  0  0  0  0  0  0  0  0  0
   -8.9915    9.7566    0.0000 H   0  0  0  0  0  0  0  0  0  0  0  0
  -13.1400    9.5441    0.0000 H   0  0  0  0  0  0  0  0  0  0  0  0
  -13.9822    9.0279    0.0000 H   0  0  0  0  0  0  0  0  0  0  0  0
  -16.8104    8.7150    0.0000 H   0  0  0  0  0  0  0  0  0  0  0  0
  -16.2121    7.0339    0.0000 H   0  0  0  0  0  0  0  0  0  0  0  0
  -14.0821   12.0307    0.0000 H   0  0  0  0  0  0  0  0  0  0  0  0
  -17.4146    6.7394    0.0000 H   0  0  0  0  0  0  0  0  0  0  0  0
  -17.9699    5.7168    0.0000 H   0  0  0  0  0  0  0  0  0  0  0  0
  -20.1800    3.9246    0.0000 H   0  0  0  0  0  0  0  0  0  0  0  0
  -18.7678    2.8337    0.0000 H   0  0  0  0  0  0  0  0  0  0  0  0
  -17.6152    7.5502    0.0000 H   0  0  0  0  0  0  0  0  0  0  0  0
  -20.0871    9.4380    0.0000 H   0  0  0  0  0  0  0  0  0  0  0  0
  -23.2623    8.9703    0.0000 H   0  0  0  0  0  0  0  0  0  0  0  0
  -25.3903    6.8558    0.0000 H   0  0  0  0  0  0  0  0  0  0  0  0
  -24.6231    3.9555    0.0000 H   0  0  0  0  0  0  0  0  0  0  0  0
  -21.7278    3.1699    0.0000 H   0  0  0  0  0  0  0  0  0  0  0  0
  -19.6542    1.7559    0.0000 H   0  0  0  0  0  0  0  0  0  0  0  0
  -19.5345    0.7754    0.0000 H   0  0  0  0  0  0  0  0  0  0  0  0
  -20.4247   -1.9272    0.0000 H   0  0  0  0  0  0  0  0  0  0  0  0
  -18.6470   -2.0814    0.0000 H   0  0  0  0  0  0  0  0  0  0  0  0
  -23.3830   -0.4330    0.0000 H   0  0  0  0  0  0  0  0  0  0  0  0
  -21.8726   -2.5470    0.0000 H   0  0  0  0  0  0  0  0  0  0  0  0
  -18.8099   -3.4673    0.0000 H   0  0  0  0  0  0  0  0  0  0  0  0
  -18.1791   -4.2275    0.0000 H   0  0  0  0  0  0  0  0  0  0  0  0
  -17.4670   -6.9823    0.0000 H   0  0  0  0  0  0  0  0  0  0  0  0
  -15.8880   -6.1509    0.0000 H   0  0  0  0  0  0  0  0  0  0  0  0
  -21.1372   -4.7537    0.0000 H   0  0  0  0  0  0  0  0  0  0  0  0
  -15.4255   -7.2992    0.0000 H   0  0  0  0  0  0  0  0  0  0  0  0
  -11.1359   -8.5821    0.0000 H   0  0  0  0  0  0  0  0  0  0  0  0
  -12.3934   -8.5183    0.0000 H   0  0  0  0  0  0  0  0  0  0  0  0
   -9.5469   -8.6573    0.0000 H   0  0  0  0  0  0  0  0  0  0  0  0
  -10.6341   -8.7428    0.0000 H   0  0  0  0  0  0  0  0  0  0  0  0
   -7.8127   -8.3406    0.0000 H   0  0  0  0  0  0  0  0  0  0  0  0
   -9.0447   -8.6005    0.0000 H   0  0  0  0  0  0  0  0  0  0  0  0
   -6.1697   -7.7015    0.0000 H   0  0  0  0  0  0  0  0  0  0  0  0
   -7.3303   -8.1898    0.0000 H   0  0  0  0  0  0  0  0  0  0  0  0
   -4.6774   -6.7630    0.0000 H   0  0  0  0  0  0  0  0  0  0  0  0
   -5.7246   -7.4621    0.0000 H   0  0  0  0  0  0  0  0  0  0  0  0
   -3.3359   -5.3839    0.0000 H   0  0  0  0  0  0  0  0  0  0  0  0
   -4.2856   -6.4437    0.0000 H   0  0  0  0  0  0  0  0  0  0  0  0
   -2.5950   -4.7306    0.0000 H   0  0  0  0  0  0  0  0  0  0  0  0
  -14.5076   -9.1933    0.0000 H   0  0  0  0  0  0  0  0  0  0  0  0
  -15.7658   -8.1510    0.0000 H   0  0  0  0  0  0  0  0  0  0  0  0
  -15.3255   -6.5776    0.0000 H   0  0  0  0  0  0  0  0  0  0  0  0
  -15.4551   -8.9377    0.0000 H   0  0  0  0  0  0  0  0  0  0  0  0
  -12.3013  -10.1845    0.0000 H   0  0  0  0  0  0  0  0  0  0  0  0
  -11.7634  -12.9518    0.0000 H   0  0  0  0  0  0  0  0  0  0  0  0
  -11.7970  -11.0237    0.0000 H   0  0  0  0  0  0  0  0  0  0  0  0
  -12.8838  -14.6054    0.0000 H   0  0  0  0  0  0  0  0  0  0  0  0
  -13.1994  -13.8361    0.0000 H   0  0  0  0  0  0  0  0  0  0  0  0
  -16.2896  -12.7923    0.0000 H   0  0  0  0  0  0  0  0  0  0  0  0
  -16.4699  -16.0705    0.0000 H   0  0  0  0  0  0  0  0  0  0  0  0
  -19.7167  -14.1029    0.0000 H   0  0  0  0  0  0  0  0  0  0  0  0
  -19.0182  -12.4704    0.0000 H   0  0  0  0  0  0  0  0  0  0  0  0
  -17.2420  -12.6414    0.0000 H   0  0  0  0  0  0  0  0  0  0  0  0
  -18.9393  -16.9962    0.0000 H   0  0  0  0  0  0  0  0  0  0  0  0
  -17.1701  -16.7633    0.0000 H   0  0  0  0  0  0  0  0  0  0  0  0
  -20.7624  -16.1799    0.0000 H   0  0  0  0  0  0  0  0  0  0  0  0
  -20.7960  -14.2519    0.0000 H   0  0  0  0  0  0  0  0  0  0  0  0
  -19.2421  -13.7470    0.0000 H   0  0  0  0  0  0  0  0  0  0  0  0
  -13.6889  -17.5959    0.0000 H   0  0  0  0  0  0  0  0  0  0  0  0
  1  2  1  0
  2  3  1  0
  3  4  2  0
  4  5  1  0
  5  6  2  0
  6  7  1  0
  7  8  2  0
  7  9  1  0
  9 10  1  0
 10 11  1  0
 11 12  2  0
  9 13  1  0
 13 14  1  0
 14 15  2  0
 15 16  1  0
 16 17  2  0
 17 18  1  0
 16 19  1  0
 14 20  1  0
 20 21  1  0
 21 22  2  0
 22 23  1  0
 23 24  2  0
 24 25  1  0
 25 26  2  0
 25 27  1  0
  1 28  2  0
  1 29  1  0
 29 30  1  0
 30 31  1  0
 31 32  1  0
 32 33  2  0
 32 34  1  0
 34 35  1  0
 35 36  1  0
 36 37  1  0
 37 38  1  0
 37 39  2  0
 35 40  1  0
 40 41  2  0
 40 42  1  0
 42 43  1  0
 43 44  1  0
 44 45  1  0
 44 46  1  0
 46 47  1  0
 43 48  1  0
 48 49  2  0
 48 50  1  0
 50 51  1  0
 51 52  1  0
 51 53  1  0
 53 54  2  0
 53 55  1  0
 56 55  1  1
 56 57  1  0
 57 58  1  0
 58 59  1  0
 59 60  1  0
 56 61  1  0
 56 62  1  0
 62 63  2  0
 62 64  1  0
 64 65  1  0
 65 66  1  0
 66 67  1  0
 67 68  2  0
 68 69  1  0
 69 70  1  0
 70 71  2  0
 65 72  1  0
 72 73  2  0
 72 74  1  0
 74 75  1  0
 75 76  1  0
 76 77  1  0
 77 78  1  0
 77 79  1  0
 75 80  1  0
 80 81  2  0
 80 82  1  0
 82 83  1  0
 83 84  1  0
 83 85  1  0
 85 86  2  0
 85 87  1  0
 87 88  1  0
 88 89  1  0
 89 90  1  0
 90 91  1  0
 91 92  1  0
 88 93  1  0
 93 94  1  0
 94 95  1  0
 95 96  1  0
 88 97  1  0
 97 98  2  0
 97 99  1  0
 99100  1  0
100101  1  0
101102  1  0
100103  1  0
103104  2  0
103105  1  0
105106  1  0
106107  1  0
107108  2  0
107109  1  0
109110  1  0
110111  1  0
111112  1  0
112113  2  0
112114  1  0
110115  1  0
115116  2  0
115117  1  0
117118  1  0
118119  1  0
119120  1  0
120121  2  0
121122  1  0
122123  1  0
123124  2  0
124125  1  0
125126  2  0
126127  1  0
127128  2  0
118129  1  0
129130  2  0
129131  1  0
131132  1  0
132133  1  0
133134  1  0
134135  1  0
134136  2  0
132137  1  0
137138  2  0
137139  1  0
139140  1  0
140141  1  0
141142  1  0
142143  2  0
142144  1  0
140145  1  0
145146  2  0
145147  1  0
147148  1  0
148149  1  0
149150  1  0
150151  1  0
151152  1  0
152153  1  0
153154  1  0
154155  1  0
148156  1  0
148157  1  1
157158  2  0
157159  1  0
159160  1  0
160161  1  0
161162  1  0
160163  1  0
163164  2  0
163165  1  0
165166  1  0
166167  1  0
167168  1  0
167169  1  0
169170  1  0
166171  1  0
171172  2  0
171173  1  0
  8  3  1  0
 71 67  1  0
128120  1  0
 11  6  1  0
 60 92  2  0
128123  1  0
 18 13  2  0
 96155  2  0
 22  9  1  0
 26 21  1  0
  2174  1  0
  4175  1  0
  5176  1  0
  8177  1  0
 15178  1  0
 17179  1  0
 18180  1  0
 19181  1  0
 23182  1  0
 24183  1  0
 26184  1  0
 27185  1  0
 29186  1  0
 30187  1  0
 30188  1  0
 31189  1  0
 31190  1  0
 34191  1  0
 35192  1  1
 36193  1  0
 36194  1  0
 38195  1  0
 38196  1  0
 42197  1  0
 43198  1  1
 44199  1  6
 45200  1  0
 45201  1  0
 45202  1  0
 46203  1  0
 46204  1  0
 47205  1  0
 47206  1  0
 47207  1  0
 50208  1  0
 51209  1  1
 52210  1  0
 52211  1  0
 52212  1  0
 55213  1  0
 57214  1  0
 57215  1  0
 58216  1  0
 58217  1  0
 59218  1  0
 59219  1  0
 60220  1  0
 61221  1  0
 61222  1  0
 61223  1  0
 64224  1  0
 65225  1  6
 66226  1  0
 66227  1  0
 68228  1  0
 69229  1  0
 70230  1  0
 74231  1  0
 75232  1  6
 76233  1  0
 76234  1  0
 77235  1  0
 78236  1  0
 78237  1  0
 78238  1  0
 79239  1  0
 79240  1  0
 79241  1  0
 82242  1  0
 83243  1  6
 84244  1  0
 84245  1  0
 84246  1  0
 87247  1  0
 89248  1  0
 89249  1  0
 90250  1  0
 90251  1  0
 91252  1  0
 91253  1  0
 92254  1  0
 93255  1  0
 93256  1  0
 94257  1  0
 94258  1  0
 95259  1  0
 95260  1  0
 96261  1  0
 99262  1  0
100263  1  6
101264  1  0
101265  1  0
102266  1  0
102267  1  0
102268  1  0
105269  1  0
106270  1  0
106271  1  0
109272  1  0
110273  1  6
111274  1  0
111275  1  0
114276  1  0
117277  1  0
118278  1  6
119279  1  0
119280  1  0
121281  1  0
122282  1  0
124283  1  0
125284  1  0
126285  1  0
127286  1  0
131287  1  0
132288  1  1
133289  1  0
133290  1  0
135291  1  0
135292  1  0
139293  1  0
140294  1  6
141295  1  0
141296  1  0
144297  1  0
147298  1  0
149299  1  0
149300  1  0
150301  1  0
150302  1  0
151303  1  0
151304  1  0
152305  1  0
152306  1  0
153307  1  0
153308  1  0
154309  1  0
154310  1  0
155311  1  0
156312  1  0
156313  1  0
156314  1  0
159315  1  0
160316  1  1
161317  1  0
161318  1  0
162319  1  0
165320  1  0
166321  1  6
167322  1  1
168323  1  0
168324  1  0
168325  1  0
169326  1  0
169327  1  0
170328  1  0
170329  1  0
170330  1  0
173331  1  0
M  END
