
     RDKit          2D

171172  0  0  0  0  0  0  0  0999 V2000
  -12.3078    5.5350    0.0000 N   0  0  0  0  0  0  0  0  0  0  0  0
  -11.1222    4.6161    0.0000 C   0  0  0  0  0  0  0  0  0  0  0  0
  -11.3253    3.1299    0.0000 C   0  0  0  0  0  0  0  0  0  0  0  0
  -10.1397    2.2110    0.0000 C   0  0  0  0  0  0  0  0  0  0  0  0
   -8.7511    2.7782    0.0000 O   0  0  0  0  0  0  0  0  0  0  0  0
  -10.3427    0.7248    0.0000 N   0  0  0  0  0  0  0  0  0  0  0  0
   -9.1571   -0.1942    0.0000 C   0  0  0  0  0  0  0  0  0  0  0  0
  -10.2680   -1.2022    0.0000 C   0  0  0  0  0  0  0  0  0  0  0  0
   -9.9505   -2.6682    0.0000 C   0  0  0  0  0  0  0  0  0  0  0  0
  -11.0613   -3.6762    0.0000 C   0  0  0  0  0  0  0  0  0  0  0  0
  -10.7438   -5.1422    0.0000 N   0  0  0  0  0  0  0  0  0  0  0  0
  -11.8546   -6.1501    0.0000 C   0  0  0  0  0  0  0  0  0  0  0  0
  -11.5371   -7.6162    0.0000 N   0  0  0  0  0  0  0  0  0  0  0  0
  -13.2830   -5.6921    0.0000 N   0  0  0  0  0  0  0  0  0  0  0  0
   -7.7288   -0.6522    0.0000 C   0  0  0  0  0  0  0  0  0  0  0  0
   -7.4113   -2.1182    0.0000 O   0  0  0  0  0  0  0  0  0  0  0  0
   -6.6179    0.3558    0.0000 N   0  0  0  0  0  0  0  0  0  0  0  0
   -5.1896   -0.1022    0.0000 C   0  0  0  0  0  0  0  0  0  0  0  0
   -4.9866    1.3840    0.0000 C   0  0  0  0  0  0  0  0  0  0  0  0
   -6.1721    2.3029    0.0000 C   0  0  0  0  0  0  0  0  0  0  0  0
   -5.9691    3.7891    0.0000 C   0  0  0  0  0  0  0  0  0  0  0  0
   -7.1547    4.7080    0.0000 C   0  0  0  0  0  0  0  0  0  0  0  0
   -6.9516    6.1942    0.0000 N   0  0  0  0  0  0  0  0  0  0  0  0
   -4.0040   -1.0212    0.0000 C   0  0  0  0  0  0  0  0  0  0  0  0
   -2.6154   -0.4539    0.0000 O   0  0  0  0  0  0  0  0  0  0  0  0
   -4.2070   -2.5073    0.0000 N   0  0  0  0  0  0  0  0  0  0  0  0
   -3.0215   -3.4263    0.0000 C   0  0  0  0  0  0  0  0  0  0  0  0
   -4.1323   -4.4343    0.0000 C   0  0  0  0  0  0  0  0  0  0  0  0
   -1.5931   -3.8843    0.0000 C   0  0  0  0  0  0  0  0  0  0  0  0
   -1.4567   -5.3781    0.0000 O   0  0  0  0  0  0  0  0  0  0  0  0
   -0.4823   -2.8763    0.0000 N   0  0  0  0  0  0  0  0  0  0  0  0
    0.9461   -3.3343    0.0000 C   0  0  0  0  0  0  0  0  0  0  0  0
    1.5478   -4.7084    0.0000 C   0  0  0  0  0  0  0  0  0  0  0  0
    2.5278   -5.8440    0.0000 C   0  0  0  0  0  0  0  0  0  0  0  0
    3.7989   -6.6403    0.0000 C   0  0  0  0  0  0  0  0  0  0  0  0
    5.2484   -7.0266    0.0000 C   0  0  0  0  0  0  0  0  0  0  0  0
   -0.1871   -4.3171    0.0000 C   0  0  0  0  0  0  0  0  0  0  0  0
    0.7761   -1.8440    0.0000 C   0  0  0  0  0  0  0  0  0  0  0  0
   -0.7052   -1.6076    0.0000 O   0  0  0  0  0  0  0  0  0  0  0  0
    1.0530   -0.3698    0.0000 N   0  0  0  0  0  0  0  0  0  0  0  0
    1.7521    0.9574    0.0000 C   0  0  0  0  0  0  0  0  0  0  0  0
    0.2548    1.0488    0.0000 C   0  0  0  0  0  0  0  0  0  0  0  0
   -0.4146    2.3911    0.0000 C   0  0  0  0  0  0  0  0  0  0  0  0
   -1.9118    2.4825    0.0000 C   0  0  0  0  0  0  0  0  0  0  0  0
   -2.5813    3.8248    0.0000 N   0  0  0  0  0  0  0  0  0  0  0  0
   -4.0785    3.9162    0.0000 C   0  0  0  0  0  0  0  0  0  0  0  0
   -4.5793    5.3301    0.0000 N   0  0  0  0  0  0  0  0  0  0  0  0
   -4.5790    2.5022    0.0000 N   0  0  0  0  0  0  0  0  0  0  0  0
    2.8113    2.0195    0.0000 C   0  0  0  0  0  0  0  0  0  0  0  0
    1.9189    3.2251    0.0000 O   0  0  0  0  0  0  0  0  0  0  0  0
    4.1365    2.7222    0.0000 N   0  0  0  0  0  0  0  0  0  0  0  0
    5.6100    3.0030    0.0000 C   0  0  0  0  0  0  0  0  0  0  0  0
    4.7479    4.2306    0.0000 C   0  0  0  0  0  0  0  0  0  0  0  0
    5.3800    5.5909    0.0000 C   0  0  0  0  0  0  0  0  0  0  0  0
    4.5180    6.8185    0.0000 C   0  0  0  0  0  0  0  0  0  0  0  0
    6.4392    6.6530    0.0000 C   0  0  0  0  0  0  0  0  0  0  0  0
    7.1008    2.8371    0.0000 C   0  0  0  0  0  0  0  0  0  0  0  0
    7.4870    4.2866    0.0000 O   0  0  0  0  0  0  0  0  0  0  0  0
    8.4764    2.2392    0.0000 N   0  0  0  0  0  0  0  0  0  0  0  0
    9.6147    1.2623    0.0000 C   0  0  0  0  0  0  0  0  0  0  0  0
   10.0370    2.7016    0.0000 C   0  0  0  0  0  0  0  0  0  0  0  0
   11.4946    3.0556    0.0000 C   0  0  0  0  0  0  0  0  0  0  0  0
   12.5300    1.9702    0.0000 C   0  0  0  0  0  0  0  0  0  0  0  0
   13.9876    2.3242    0.0000 C   0  0  0  0  0  0  0  0  0  0  0  0
   14.4099    3.7635    0.0000 C   0  0  0  0  0  0  0  0  0  0  0  0
   13.3745    4.8489    0.0000 C   0  0  0  0  0  0  0  0  0  0  0  0
   11.9169    4.4949    0.0000 C   0  0  0  0  0  0  0  0  0  0  0  0
   10.4145   -0.0067    0.0000 C   0  0  0  0  0  0  0  0  0  0  0  0
   11.8516    0.4230    0.0000 O   0  0  0  0  0  0  0  0  0  0  0  0
   10.8047   -1.4551    0.0000 N   0  0  0  0  0  0  0  0  0  0  0  0
   10.7506   -2.9541    0.0000 C   0  0  0  0  0  0  0  0  0  0  0  0
   10.2572   -4.3706    0.0000 C   0  0  0  0  0  0  0  0  0  0  0  0
    9.3681   -5.5787    0.0000 C   0  0  0  0  0  0  0  0  0  0  0  0
    8.1624   -6.4711    0.0000 C   0  0  0  0  0  0  0  0  0  0  0  0
    6.7472   -6.9684    0.0000 C   0  0  0  0  0  0  0  0  0  0  0  0
   11.9566   -3.8462    0.0000 C   0  0  0  0  0  0  0  0  0  0  0  0
   12.1392   -2.3868    0.0000 C   0  0  0  0  0  0  0  0  0  0  0  0
   13.4280   -3.1544    0.0000 O   0  0  0  0  0  0  0  0  0  0  0  0
   12.5219   -0.9365    0.0000 O   0  0  0  0  0  0  0  0  0  0  0  0
  -12.1048    7.0212    0.0000 H   0  0  0  0  0  0  0  0  0  0  0  0
  -13.6964    4.9677    0.0000 H   0  0  0  0  0  0  0  0  0  0  0  0
  -10.4231    5.9432    0.0000 H   0  0  0  0  0  0  0  0  0  0  0  0
   -9.6939    4.1581    0.0000 H   0  0  0  0  0  0  0  0  0  0  0  0
  -12.7536    3.5879    0.0000 H   0  0  0  0  0  0  0  0  0  0  0  0
  -12.0243    1.8028    0.0000 H   0  0  0  0  0  0  0  0  0  0  0  0
  -11.2923    0.4664    0.0000 H   0  0  0  0  0  0  0  0  0  0  0  0
   -8.4581    1.1330    0.0000 H   0  0  0  0  0  0  0  0  0  0  0  0
  -11.7154   -1.5959    0.0000 H   0  0  0  0  0  0  0  0  0  0  0  0
  -10.8903   -0.4397    0.0000 H   0  0  0  0  0  0  0  0  0  0  0  0
   -9.1507   -3.9372    0.0000 H   0  0  0  0  0  0  0  0  0  0  0  0
   -8.5619   -2.1009    0.0000 H   0  0  0  0  0  0  0  0  0  0  0  0
  -12.4499   -4.2434    0.0000 H   0  0  0  0  0  0  0  0  0  0  0  0
  -12.0098   -2.5141    0.0000 H   0  0  0  0  0  0  0  0  0  0  0  0
   -9.3154   -5.6002    0.0000 H   0  0  0  0  0  0  0  0  0  0  0  0
  -12.6479   -8.6241    0.0000 H   0  0  0  0  0  0  0  0  0  0  0  0
  -10.1087   -8.0742    0.0000 H   0  0  0  0  0  0  0  0  0  0  0  0
  -14.3938   -6.7001    0.0000 H   0  0  0  0  0  0  0  0  0  0  0  0
  -13.6005   -4.2261    0.0000 H   0  0  0  0  0  0  0  0  0  0  0  0
   -7.1118    1.7722    0.0000 H   0  0  0  0  0  0  0  0  0  0  0  0
   -5.8887   -1.4294    0.0000 H   0  0  0  0  0  0  0  0  0  0  0  0
   -4.4554    1.9784    0.0000 H   0  0  0  0  0  0  0  0  0  0  0  0
   -3.6247    0.7553    0.0000 H   0  0  0  0  0  0  0  0  0  0  0  0
   -7.6457    2.5834    0.0000 H   0  0  0  0  0  0  0  0  0  0  0  0
   -7.3005    1.3145    0.0000 H   0  0  0  0  0  0  0  0  0  0  0  0
   -5.2700    5.1162    0.0000 H   0  0  0  0  0  0  0  0  0  0  0  0
   -4.6940    2.9991    0.0000 H   0  0  0  0  0  0  0  0  0  0  0  0
   -8.5830    5.1660    0.0000 H   0  0  0  0  0  0  0  0  0  0  0  0
   -8.0103    3.4760    0.0000 H   0  0  0  0  0  0  0  0  0  0  0  0
   -8.1372    7.1131    0.0000 H   0  0  0  0  0  0  0  0  0  0  0  0
   -6.2525    7.5213    0.0000 H   0  0  0  0  0  0  0  0  0  0  0  0
   -5.5233    5.7362    0.0000 H   0  0  0  0  0  0  0  0  0  0  0  0
   -5.6544   -2.9011    0.0000 H   0  0  0  0  0  0  0  0  0  0  0  0
   -2.3224   -2.0992    0.0000 H   0  0  0  0  0  0  0  0  0  0  0  0
   -5.6059   -4.1538    0.0000 H   0  0  0  0  0  0  0  0  0  0  0  0
   -4.8314   -5.7614    0.0000 H   0  0  0  0  0  0  0  0  0  0  0  0
   -2.9467   -5.3532    0.0000 H   0  0  0  0  0  0  0  0  0  0  0  0
   -0.9761   -1.4599    0.0000 H   0  0  0  0  0  0  0  0  0  0  0  0
    0.9157   -6.0687    0.0000 H   0  0  0  0  0  0  0  0  0  0  0  0
    0.0570   -4.8747    0.0000 H   0  0  0  0  0  0  0  0  0  0  0  0
    2.1451   -7.2943    0.0000 H   0  0  0  0  0  0  0  0  0  0  0  0
    1.1523   -6.4423    0.0000 H   0  0  0  0  0  0  0  0  0  0  0  0
    4.0430   -8.1203    0.0000 H   0  0  0  0  0  0  0  0  0  0  0  0
    2.6609   -7.6175    0.0000 H   0  0  0  0  0  0  0  0  0  0  0  0
    5.0824   -8.5173    0.0000 H   0  0  0  0  0  0  0  0  0  0  0  0
   -1.5302   -4.4637    0.0000 H   0  0  0  0  0  0  0  0  0  0  0  0
   -0.4337   -5.8798    0.0000 H   0  0  0  0  0  0  0  0  0  0  0  0
    0.7870   -5.6842    0.0000 H   0  0  0  0  0  0  0  0  0  0  0  0
   -0.3635    0.1237    0.0000 H   0  0  0  0  0  0  0  0  0  0  0  0
    1.3945    2.4141    0.0000 H   0  0  0  0  0  0  0  0  0  0  0  0
   -1.1207    0.4504    0.0000 H   0  0  0  0  0  0  0  0  0  0  0  0
    0.0591   -0.4384    0.0000 H   0  0  0  0  0  0  0  0  0  0  0  0
   -0.5846    3.8814    0.0000 H   0  0  0  0  0  0  0  0  0  0  0  0
    0.9609    2.9894    0.0000 H   0  0  0  0  0  0  0  0  0  0  0  0
   -3.3500    2.0563    0.0000 H   0  0  0  0  0  0  0  0  0  0  0  0
   -1.9248    0.9825    0.0000 H   0  0  0  0  0  0  0  0  0  0  0  0
   -1.7535    5.0757    0.0000 H   0  0  0  0  0  0  0  0  0  0  0  0
   -6.2351    5.1467    0.0000 H   0  0  0  0  0  0  0  0  0  0  0  0
   -3.9202    6.5095    0.0000 H   0  0  0  0  0  0  0  0  0  0  0  0
   -6.2877    3.1906    0.0000 H   0  0  0  0  0  0  0  0  0  0  0  0
   -3.8369    1.5240    0.0000 H   0  0  0  0  0  0  0  0  0  0  0  0
    3.6391    4.1373    0.0000 H   0  0  0  0  0  0  0  0  0  0  0  0
    6.5260    4.1909    0.0000 H   0  0  0  0  0  0  0  0  0  0  0  0
    3.4225    4.9330    0.0000 H   0  0  0  0  0  0  0  0  0  0  0  0
    3.4632    3.4564    0.0000 H   0  0  0  0  0  0  0  0  0  0  0  0
    6.7054    4.8886    0.0000 H   0  0  0  0  0  0  0  0  0  0  0  0
    4.9795    8.2457    0.0000 H   0  0  0  0  0  0  0  0  0  0  0  0
    3.2881    7.6772    0.0000 H   0  0  0  0  0  0  0  0  0  0  0  0
    3.3372    5.8934    0.0000 H   0  0  0  0  0  0  0  0  0  0  0  0
    6.2285    8.1382    0.0000 H   0  0  0  0  0  0  0  0  0  0  0  0
    7.7978    7.2888    0.0000 H   0  0  0  0  0  0  0  0  0  0  0  0
    7.3012    5.4255    0.0000 H   0  0  0  0  0  0  0  0  0  0  0  0
    9.2727    3.5103    0.0000 H   0  0  0  0  0  0  0  0  0  0  0  0
   11.1003    1.4694    0.0000 H   0  0  0  0  0  0  0  0  0  0  0  0
    9.9415    4.1986    0.0000 H   0  0  0  0  0  0  0  0  0  0  0  0
    8.6306    3.2233    0.0000 H   0  0  0  0  0  0  0  0  0  0  0  0
   12.2863    0.4902    0.0000 H   0  0  0  0  0  0  0  0  0  0  0  0
   15.0230    1.2388    0.0000 H   0  0  0  0  0  0  0  0  0  0  0  0
   15.8675    4.1175    0.0000 H   0  0  0  0  0  0  0  0  0  0  0  0
   13.7968    6.2882    0.0000 H   0  0  0  0  0  0  0  0  0  0  0  0
   10.8815    5.5803    0.0000 H   0  0  0  0  0  0  0  0  0  0  0  0
   12.2632   -1.1047    0.0000 H   0  0  0  0  0  0  0  0  0  0  0  0
   11.7563   -4.4209    0.0000 H   0  0  0  0  0  0  0  0  0  0  0  0
   10.9927   -5.6779    0.0000 H   0  0  0  0  0  0  0  0  0  0  0  0
   10.7858   -6.0687    0.0000 H   0  0  0  0  0  0  0  0  0  0  0  0
    9.8619   -6.9951    0.0000 H   0  0  0  0  0  0  0  0  0  0  0  0
    9.3727   -7.3572    0.0000 H   0  0  0  0  0  0  0  0  0  0  0  0
    8.0337   -7.9655    0.0000 H   0  0  0  0  0  0  0  0  0  0  0  0
    7.0281   -8.4419    0.0000 H   0  0  0  0  0  0  0  0  0  0  0  0
   13.3020   -3.7234    0.0000 H   0  0  0  0  0  0  0  0  0  0  0  0
   12.5083   -5.3288    0.0000 H   0  0  0  0  0  0  0  0  0  0  0  0
   11.0912   -5.2846    0.0000 H   0  0  0  0  0  0  0  0  0  0  0  0
  1  2  1  0
  2  3  1  0
  3  4  1  0
  4  5  2  0
  4  6  1  0
  6  7  1  0
  7  8  1  0
  8  9  1  0
  9 10  1  0
 10 11  1  0
 11 12  1  0
 12 13  2  3
 12 14  1  0
  7 15  1  0
 15 16  2  0
 15 17  1  0
 17 18  1  0
 18 19  1  0
 19 20  1  0
 20 21  1  0
 21 22  1  0
 22 23  1  0
 18 24  1  0
 24 25  2  0
 24 26  1  0
 26 27  1  0
 27 28  1  0
 27 29  1  0
 29 30  2  0
 29 31  1  0
 32 31  1  6
 32 33  1  0
 33 34  1  0
 34 35  1  0
 35 36  1  0
 32 37  1  0
 32 38  1  0
 38 39  2  0
 38 40  1  0
 40 41  1  0
 41 42  1  0
 42 43  1  0
 43 44  1  0
 44 45  1  0
 45 46  1  0
 46 47  2  3
 46 48  1  0
 41 49  1  0
 49 50  2  0
 49 51  1  0
 51 52  1  0
 52 53  1  0
 53 54  1  0
 54 55  1  0
 54 56  1  0
 52 57  1  0
 57 58  2  0
 57 59  1  0
 59 60  1  0
 60 61  1  0
 61 62  1  0
 62 63  2  0
 63 64  1  0
 64 65  2  0
 65 66  1  0
 66 67  2  0
 60 68  1  0
 68 69  2  0
 68 70  1  0
 70 71  1  0
 71 72  1  0
 72 73  1  0
 73 74  1  0
 74 75  1  0
 71 76  1  0
 71 77  1  6
 77 78  2  0
 77 79  1  0
 67 62  1  0
 36 75  2  0
  1 80  1  0
  1 81  1  0
  2 82  1  0
  2 83  1  0
  3 84  1  0
  3 85  1  0
  6 86  1  0
  7 87  1  6
  8 88  1  0
  8 89  1  0
  9 90  1  0
  9 91  1  0
 10 92  1  0
 10 93  1  0
 11 94  1  0
 13 95  1  0
 13 96  1  0
 14 97  1  0
 14 98  1  0
 17 99  1  0
 18100  1  1
 19101  1  0
 19102  1  0
 20103  1  0
 20104  1  0
 21105  1  0
 21106  1  0
 22107  1  0
 22108  1  0
 23109  1  0
 23110  1  0
 23111  1  0
 26112  1  0
 27113  1  6
 28114  1  0
 28115  1  0
 28116  1  0
 31117  1  0
 33118  1  0
 33119  1  0
 34120  1  0
 34121  1  0
 35122  1  0
 35123  1  0
 36124  1  0
 37125  1  0
 37126  1  0
 37127  1  0
 40128  1  0
 41129  1  1
 42130  1  0
 42131  1  0
 43132  1  0
 43133  1  0
 44134  1  0
 44135  1  0
 45136  1  0
 47137  1  0
 47138  1  0
 48139  1  0
 48140  1  0
 51141  1  0
 52142  1  1
 53143  1  0
 53144  1  0
 54145  1  0
 55146  1  0
 55147  1  0
 55148  1  0
 56149  1  0
 56150  1  0
 56151  1  0
 59152  1  0
 60153  1  1
 61154  1  0
 61155  1  0
 63156  1  0
 64157  1  0
 65158  1  0
 66159  1  0
 67160  1  0
 70161  1  0
 72162  1  0
 72163  1  0
 73164  1  0
 73165  1  0
 74166  1  0
 74167  1  0
 75168  1  0
 76169  1  0
 76170  1  0
 76171  1  0
M  CHG  4  13   1  23   1  47   1  79  -1
M  END
