
     RDKit          2D

319327  0  0  0  0  0  0  0  0999 V2000
  -31.8751    0.1984    0.0000 C   0  0  0  0  0  0  0  0  0  0  0  0
  -33.1456   -0.5991    0.0000 N   0  0  0  0  0  0  0  0  0  0  0  0
  -34.4715    0.1024    0.0000 C   0  0  0  0  0  0  0  0  0  0  0  0
  -34.5269    1.6014    0.0000 C   0  0  0  0  0  0  0  0  0  0  0  0
  -35.8527    2.3029    0.0000 C   0  0  0  0  0  0  0  0  0  0  0  0
  -37.1232    1.5054    0.0000 C   0  0  0  0  0  0  0  0  0  0  0  0
  -37.0678    0.0065    0.0000 C   0  0  0  0  0  0  0  0  0  0  0  0
  -35.7419   -0.6951    0.0000 C   0  0  0  0  0  0  0  0  0  0  0  0
  -38.4762   -0.5094    0.0000 C   0  0  0  0  0  0  0  0  0  0  0  0
  -39.4021    0.6707    0.0000 O   0  0  0  0  0  0  0  0  0  0  0  0
  -38.5659    1.9159    0.0000 C   0  0  0  0  0  0  0  0  0  0  0  0
  -39.0818    3.3244    0.0000 O   0  0  0  0  0  0  0  0  0  0  0  0
  -39.9309   -0.8753    0.0000 C   0  0  0  0  0  0  0  0  0  0  0  0
  -40.3415   -2.3180    0.0000 C   0  0  0  0  0  0  0  0  0  0  0  0
  -41.7962   -2.6839    0.0000 C   0  0  0  0  0  0  0  0  0  0  0  0
  -42.8403   -1.6070    0.0000 C   0  0  0  0  0  0  0  0  0  0  0  0
  -42.4298   -0.1643    0.0000 C   0  0  0  0  0  0  0  0  0  0  0  0
  -40.9751    0.2016    0.0000 C   0  0  0  0  0  0  0  0  0  0  0  0
  -44.2951   -1.9728    0.0000 O   0  0  0  0  0  0  0  0  0  0  0  0
  -39.2973   -3.3949    0.0000 O   0  0  0  0  0  0  0  0  0  0  0  0
  -37.8426   -3.0291    0.0000 C   0  0  0  0  0  0  0  0  0  0  0  0
  -37.4321   -1.5863    0.0000 C   0  0  0  0  0  0  0  0  0  0  0  0
  -36.1689   -1.8938    0.0000 C   0  0  0  0  0  0  0  0  0  0  0  0
  -35.6120   -2.4681    0.0000 C   0  0  0  0  0  0  0  0  0  0  0  0
  -35.8310   -3.2376    0.0000 C   0  0  0  0  0  0  0  0  0  0  0  0
  -36.6068   -3.4327    0.0000 C   0  0  0  0  0  0  0  0  0  0  0  0
  -34.2995   -4.8170    0.0000 O   0  0  0  0  0  0  0  0  0  0  0  0
  -31.9305    1.6973    0.0000 S   0  0  0  0  0  0  0  0  0  0  0  0
  -30.5493   -0.5031    0.0000 N   0  0  0  0  0  0  0  0  0  0  0  0
  -29.2788    0.2943    0.0000 C   0  0  0  0  0  0  0  0  0  0  0  0
  -27.9530   -0.4072    0.0000 C   0  0  0  0  0  0  0  0  0  0  0  0
  -26.6825    0.3903    0.0000 C   0  0  0  0  0  0  0  0  0  0  0  0
  -26.7379    1.8893    0.0000 O   0  0  0  0  0  0  0  0  0  0  0  0
  -25.3567   -0.3112    0.0000 N   0  0  0  0  0  0  0  0  0  0  0  0
  -24.0862    0.4863    0.0000 C   0  0  0  0  0  0  0  0  0  0  0  0
  -23.1652    1.6701    0.0000 C   0  0  0  0  0  0  0  0  0  0  0  0
  -21.6793    1.4644    0.0000 C   0  0  0  0  0  0  0  0  0  0  0  0
  -20.7582    2.6483    0.0000 C   0  0  0  0  0  0  0  0  0  0  0  0
  -20.3535    0.7629    0.0000 C   0  0  0  0  0  0  0  0  0  0  0  0
  -22.7604   -0.2153    0.0000 C   0  0  0  0  0  0  0  0  0  0  0  0
  -22.7050   -1.7142    0.0000 O   0  0  0  0  0  0  0  0  0  0  0  0
  -21.4899    0.5822    0.0000 N   0  0  0  0  0  0  0  0  0  0  0  0
  -20.1641   -0.1193    0.0000 C   0  0  0  0  0  0  0  0  0  0  0  0
  -19.1581   -1.2320    0.0000 C   0  0  0  0  0  0  0  0  0  0  0  0
  -19.6187   -2.6595    0.0000 O   0  0  0  0  0  0  0  0  0  0  0  0
  -18.8936    0.6782    0.0000 C   0  0  0  0  0  0  0  0  0  0  0  0
  -18.7659    2.1727    0.0000 O   0  0  0  0  0  0  0  0  0  0  0  0
  -17.5678   -0.0233    0.0000 N   0  0  0  0  0  0  0  0  0  0  0  0
  -16.2973    0.7741    0.0000 C   0  0  0  0  0  0  0  0  0  0  0  0
  -15.3762    1.9580    0.0000 C   0  0  0  0  0  0  0  0  0  0  0  0
  -13.8904    1.7523    0.0000 C   0  0  0  0  0  0  0  0  0  0  0  0
  -12.9693    2.9362    0.0000 C   0  0  0  0  0  0  0  0  0  0  0  0
  -11.4695    2.9131    0.0000 N   0  0  0  0  0  0  0  0  0  0  0  0
  -13.5341    4.3258    0.0000 O   0  0  0  0  0  0  0  0  0  0  0  0
  -14.9715    0.0726    0.0000 C   0  0  0  0  0  0  0  0  0  0  0  0
  -14.9161   -1.4264    0.0000 O   0  0  0  0  0  0  0  0  0  0  0  0
  -13.7010    0.8701    0.0000 N   0  0  0  0  0  0  0  0  0  0  0  0
  -12.3752    0.1686    0.0000 C   0  0  0  0  0  0  0  0  0  0  0  0
  -11.3692   -0.9441    0.0000 C   0  0  0  0  0  0  0  0  0  0  0  0
  -11.8298   -2.3716    0.0000 C   0  0  0  0  0  0  0  0  0  0  0  0
  -10.8239   -3.4843    0.0000 C   0  0  0  0  0  0  0  0  0  0  0  0
  -11.2845   -4.9118    0.0000 O   0  0  0  0  0  0  0  0  0  0  0  0
   -9.3573   -3.1694    0.0000 O   0  0  0  0  0  0  0  0  0  0  0  0
  -11.1047    0.9661    0.0000 C   0  0  0  0  0  0  0  0  0  0  0  0
  -11.0116    2.0556    0.0000 O   0  0  0  0  0  0  0  0  0  0  0  0
   -9.7789    0.2645    0.0000 N   0  0  0  0  0  0  0  0  0  0  0  0
   -8.5084    1.0620    0.0000 C   0  0  0  0  0  0  0  0  0  0  0  0
   -7.5873    2.2459    0.0000 C   0  0  0  0  0  0  0  0  0  0  0  0
   -7.1267    3.6734    0.0000 O   0  0  0  0  0  0  0  0  0  0  0  0
   -6.0875    2.2228    0.0000 C   0  0  0  0  0  0  0  0  0  0  0  0
   -7.1826    0.3605    0.0000 C   0  0  0  0  0  0  0  0  0  0  0  0
   -7.3103   -1.1340    0.0000 O   0  0  0  0  0  0  0  0  0  0  0  0
   -5.9121    1.1580    0.0000 N   0  0  0  0  0  0  0  0  0  0  0  0
   -4.5863    0.4565    0.0000 C   0  0  0  0  0  0  0  0  0  0  0  0
   -3.5803   -0.6562    0.0000 C   0  0  0  0  0  0  0  0  0  0  0  0
   -4.0409   -2.0837    0.0000 C   0  0  0  0  0  0  0  0  0  0  0  0
   -5.5075   -2.3986    0.0000 C   0  0  0  0  0  0  0  0  0  0  0  0
   -5.9681   -3.8261    0.0000 C   0  0  0  0  0  0  0  0  0  0  0  0
   -4.9622   -4.9388    0.0000 C   0  0  0  0  0  0  0  0  0  0  0  0
   -3.4956   -4.6239    0.0000 C   0  0  0  0  0  0  0  0  0  0  0  0
   -3.0349   -3.1964    0.0000 C   0  0  0  0  0  0  0  0  0  0  0  0
   -3.3158    1.2539    0.0000 C   0  0  0  0  0  0  0  0  0  0  0  0
   -3.3712    2.7529    0.0000 O   0  0  0  0  0  0  0  0  0  0  0  0
   -1.9900    0.5524    0.0000 N   0  0  0  0  0  0  0  0  0  0  0  0
   -0.7195    1.3499    0.0000 C   0  0  0  0  0  0  0  0  0  0  0  0
    0.2016    2.5338    0.0000 C   0  0  0  0  0  0  0  0  0  0  0  0
    1.6624    2.8743    0.0000 O   0  0  0  0  0  0  0  0  0  0  0  0
    0.6063    0.6484    0.0000 C   0  0  0  0  0  0  0  0  0  0  0  0
    0.6618   -0.8506    0.0000 O   0  0  0  0  0  0  0  0  0  0  0  0
    1.8768    1.4459    0.0000 N   0  0  0  0  0  0  0  0  0  0  0  0
    3.2027    0.7443    0.0000 C   0  0  0  0  0  0  0  0  0  0  0  0
    4.2086   -0.3683    0.0000 C   0  0  0  0  0  0  0  0  0  0  0  0
    3.7480   -1.7959    0.0000 C   0  0  0  0  0  0  0  0  0  0  0  0
    4.7540   -2.9085    0.0000 O   0  0  0  0  0  0  0  0  0  0  0  0
    2.2814   -2.1107    0.0000 O   0  0  0  0  0  0  0  0  0  0  0  0
    4.4731    1.5418    0.0000 C   0  0  0  0  0  0  0  0  0  0  0  0
    4.4177    3.0408    0.0000 O   0  0  0  0  0  0  0  0  0  0  0  0
    5.7990    0.8403    0.0000 N   0  0  0  0  0  0  0  0  0  0  0  0
    7.0694    1.6378    0.0000 C   0  0  0  0  0  0  0  0  0  0  0  0
    7.9905    2.8217    0.0000 C   0  0  0  0  0  0  0  0  0  0  0  0
    9.4763    2.6159    0.0000 C   0  0  0  0  0  0  0  0  0  0  0  0
   10.3974    3.7998    0.0000 C   0  0  0  0  0  0  0  0  0  0  0  0
   10.8022    1.9144    0.0000 C   0  0  0  0  0  0  0  0  0  0  0  0
    8.3953    0.9363    0.0000 C   0  0  0  0  0  0  0  0  0  0  0  0
    8.2675   -0.5583    0.0000 O   0  0  0  0  0  0  0  0  0  0  0  0
    9.6657    1.7337    0.0000 N   0  0  0  0  0  0  0  0  0  0  0  0
   10.9916    1.0322    0.0000 C   0  0  0  0  0  0  0  0  0  0  0  0
   11.9975   -0.0804    0.0000 C   0  0  0  0  0  0  0  0  0  0  0  0
   11.5369   -1.5080    0.0000 C   0  0  0  0  0  0  0  0  0  0  0  0
   10.1113   -1.9744    0.0000 C   0  0  0  0  0  0  0  0  0  0  0  0
   10.1143   -3.4744    0.0000 N   0  0  0  0  0  0  0  0  0  0  0  0
   11.5419   -3.9350    0.0000 C   0  0  0  0  0  0  0  0  0  0  0  0
   12.1547   -5.3041    0.0000 C   0  0  0  0  0  0  0  0  0  0  0  0
   13.6468   -5.4578    0.0000 C   0  0  0  0  0  0  0  0  0  0  0  0
   14.5260   -4.2425    0.0000 C   0  0  0  0  0  0  0  0  0  0  0  0
   13.9132   -2.8735    0.0000 C   0  0  0  0  0  0  0  0  0  0  0  0
   12.4211   -2.7197    0.0000 C   0  0  0  0  0  0  0  0  0  0  0  0
   12.2620    1.8297    0.0000 C   0  0  0  0  0  0  0  0  0  0  0  0
   12.3897    3.3242    0.0000 O   0  0  0  0  0  0  0  0  0  0  0  0
   13.5879    1.1282    0.0000 N   0  0  0  0  0  0  0  0  0  0  0  0
   14.8583    1.9257    0.0000 C   0  0  0  0  0  0  0  0  0  0  0  0
   15.7794    3.1095    0.0000 C   0  0  0  0  0  0  0  0  0  0  0  0
   17.2652    2.9038    0.0000 C   0  0  0  0  0  0  0  0  0  0  0  0
   18.1863    4.0877    0.0000 C   0  0  0  0  0  0  0  0  0  0  0  0
   19.6721    3.8820    0.0000 C   0  0  0  0  0  0  0  0  0  0  0  0
   20.5932    5.0659    0.0000 N   0  0  0  0  0  0  0  0  0  0  0  0
   16.1842    1.2241    0.0000 C   0  0  0  0  0  0  0  0  0  0  0  0
   16.2396   -0.2748    0.0000 O   0  0  0  0  0  0  0  0  0  0  0  0
   17.4546    2.0216    0.0000 N   0  0  0  0  0  0  0  0  0  0  0  0
   18.7805    1.3201    0.0000 C   0  0  0  0  0  0  0  0  0  0  0  0
   19.7864    0.2074    0.0000 C   0  0  0  0  0  0  0  0  0  0  0  0
   19.3258   -1.2201    0.0000 C   0  0  0  0  0  0  0  0  0  0  0  0
   20.3318   -2.3328    0.0000 C   0  0  0  0  0  0  0  0  0  0  0  0
   18.4047   -2.4040    0.0000 C   0  0  0  0  0  0  0  0  0  0  0  0
   20.0509    2.1176    0.0000 C   0  0  0  0  0  0  0  0  0  0  0  0
   20.3012    3.3065    0.0000 O   0  0  0  0  0  0  0  0  0  0  0  0
   21.3768    1.4161    0.0000 N   0  0  0  0  0  0  0  0  0  0  0  0
   22.6472    2.2135    0.0000 C   0  0  0  0  0  0  0  0  0  0  0  0
   23.5683    3.3974    0.0000 C   0  0  0  0  0  0  0  0  0  0  0  0
   25.0541    3.1917    0.0000 C   0  0  0  0  0  0  0  0  0  0  0  0
   25.9752    4.3756    0.0000 C   0  0  0  0  0  0  0  0  0  0  0  0
   26.3800    2.4902    0.0000 C   0  0  0  0  0  0  0  0  0  0  0  0
   23.9731    1.5120    0.0000 C   0  0  0  0  0  0  0  0  0  0  0  0
   24.0285    0.0130    0.0000 O   0  0  0  0  0  0  0  0  0  0  0  0
   25.2435    2.3095    0.0000 N   0  0  0  0  0  0  0  0  0  0  0  0
   25.3451    3.8061    0.0000 C   0  0  0  0  0  0  0  0  0  0  0  0
   26.7998    4.1719    0.0000 C   0  0  0  0  0  0  0  0  0  0  0  0
   27.5973    2.9014    0.0000 C   0  0  0  0  0  0  0  0  0  0  0  0
   26.6354    1.7504    0.0000 C   0  0  0  0  0  0  0  0  0  0  0  0
   27.8807    0.9142    0.0000 C   0  0  0  0  0  0  0  0  0  0  0  0
   29.2980    1.4054    0.0000 O   0  0  0  0  0  0  0  0  0  0  0  0
   27.7791   -0.5824    0.0000 N   0  0  0  0  0  0  0  0  0  0  0  0
   29.0244   -1.4186    0.0000 C   0  0  0  0  0  0  0  0  0  0  0  0
   30.4806   -1.7786    0.0000 C   0  0  0  0  0  0  0  0  0  0  0  0
   30.8970   -3.2196    0.0000 C   0  0  0  0  0  0  0  0  0  0  0  0
   32.3531   -3.5795    0.0000 C   0  0  0  0  0  0  0  0  0  0  0  0
   32.9421   -4.9591    0.0000 O   0  0  0  0  0  0  0  0  0  0  0  0
   33.3929   -2.4984    0.0000 O   0  0  0  0  0  0  0  0  0  0  0  0
   28.9228   -2.9152    0.0000 C   0  0  0  0  0  0  0  0  0  0  0  0
   27.5759   -3.5755    0.0000 O   0  0  0  0  0  0  0  0  0  0  0  0
   30.1681   -3.7515    0.0000 N   0  0  0  0  0  0  0  0  0  0  0  0
   30.0665   -5.2480    0.0000 C   0  0  0  0  0  0  0  0  0  0  0  0
   29.4592   -6.6196    0.0000 C   0  0  0  0  0  0  0  0  0  0  0  0
   27.9677   -6.7794    0.0000 C   0  0  0  0  0  0  0  0  0  0  0  0
   27.3604   -8.1510    0.0000 N   0  0  0  0  0  0  0  0  0  0  0  0
   27.0836   -5.5677    0.0000 O   0  0  0  0  0  0  0  0  0  0  0  0
   31.3117   -6.0843    0.0000 C   0  0  0  0  0  0  0  0  0  0  0  0
   31.3933   -7.5820    0.0000 O   0  0  0  0  0  0  0  0  0  0  0  0
   32.7290   -5.5931    0.0000 O   0  0  0  0  0  0  0  0  0  0  0  0
  -32.9079   -2.0801    0.0000 H   0  0  0  0  0  0  0  0  0  0  0  0
  -33.2564    2.3989    0.0000 H   0  0  0  0  0  0  0  0  0  0  0  0
  -35.9081    3.8019    0.0000 H   0  0  0  0  0  0  0  0  0  0  0  0
  -35.3254   -2.1361    0.0000 H   0  0  0  0  0  0  0  0  0  0  0  0
  -42.2067   -4.1266    0.0000 H   0  0  0  0  0  0  0  0  0  0  0  0
  -43.4740    0.9126    0.0000 H   0  0  0  0  0  0  0  0  0  0  0  0
  -40.5646    1.6443    0.0000 H   0  0  0  0  0  0  0  0  0  0  0  0
  -45.3392   -0.8960    0.0000 H   0  0  0  0  0  0  0  0  0  0  0  0
  -35.5668    0.2222    0.0000 H   0  0  0  0  0  0  0  0  0  0  0  0
  -33.4447   -2.1116    0.0000 H   0  0  0  0  0  0  0  0  0  0  0  0
  -37.2089   -5.5487    0.0000 H   0  0  0  0  0  0  0  0  0  0  0  0
  -34.7100   -6.2597    0.0000 H   0  0  0  0  0  0  0  0  0  0  0  0
  -30.4939   -2.0021    0.0000 H   0  0  0  0  0  0  0  0  0  0  0  0
  -28.3578    1.4782    0.0000 H   0  0  0  0  0  0  0  0  0  0  0  0
  -30.2848    1.4070    0.0000 H   0  0  0  0  0  0  0  0  0  0  0  0
  -26.9470   -1.5198    0.0000 H   0  0  0  0  0  0  0  0  0  0  0  0
  -28.8741   -1.5911    0.0000 H   0  0  0  0  0  0  0  0  0  0  0  0
  -25.3013   -1.8102    0.0000 H   0  0  0  0  0  0  0  0  0  0  0  0
  -25.0922    1.5989    0.0000 H   0  0  0  0  0  0  0  0  0  0  0  0
  -22.8820    3.1432    0.0000 H   0  0  0  0  0  0  0  0  0  0  0  0
  -24.4910    2.3717    0.0000 H   0  0  0  0  0  0  0  0  0  0  0  0
  -21.4157   -0.0122    0.0000 H   0  0  0  0  0  0  0  0  0  0  0  0
  -19.2668    2.8082    0.0000 H   0  0  0  0  0  0  0  0  0  0  0  0
  -20.2976    4.0758    0.0000 H   0  0  0  0  0  0  0  0  0  0  0  0
  -21.9887    3.5062    0.0000 H   0  0  0  0  0  0  0  0  0  0  0  0
  -19.9370   -0.6781    0.0000 H   0  0  0  0  0  0  0  0  0  0  0  0
  -18.8926    1.1034    0.0000 H   0  0  0  0  0  0  0  0  0  0  0  0
  -19.7223    2.1236    0.0000 H   0  0  0  0  0  0  0  0  0  0  0  0
  -21.1810    2.0500    0.0000 H   0  0  0  0  0  0  0  0  0  0  0  0
  -21.0852   -1.3032    0.0000 H   0  0  0  0  0  0  0  0  0  0  0  0
  -17.9277   -2.0899    0.0000 H   0  0  0  0  0  0  0  0  0  0  0  0
  -17.8739   -0.4569    0.0000 H   0  0  0  0  0  0  0  0  0  0  0  0
  -18.6128   -3.7722    0.0000 H   0  0  0  0  0  0  0  0  0  0  0  0
  -17.3301   -1.5044    0.0000 H   0  0  0  0  0  0  0  0  0  0  0  0
  -17.3033    1.8868    0.0000 H   0  0  0  0  0  0  0  0  0  0  0  0
  -14.9156    3.3856    0.0000 H   0  0  0  0  0  0  0  0  0  0  0  0
  -16.7021    2.6595    0.0000 H   0  0  0  0  0  0  0  0  0  0  0  0
  -12.5646    1.0508    0.0000 H   0  0  0  0  0  0  0  0  0  0  0  0
  -13.6268    0.2756    0.0000 H   0  0  0  0  0  0  0  0  0  0  0  0
  -10.5624    3.9143    0.0000 H   0  0  0  0  0  0  0  0  0  0  0  0
  -10.5547    1.5208    0.0000 H   0  0  0  0  0  0  0  0  0  0  0  0
  -13.3921    2.3379    0.0000 H   0  0  0  0  0  0  0  0  0  0  0  0
  -13.4337   -0.8942    0.0000 H   0  0  0  0  0  0  0  0  0  0  0  0
  -10.1388   -1.8020    0.0000 H   0  0  0  0  0  0  0  0  0  0  0  0
  -10.1890   -0.0183    0.0000 H   0  0  0  0  0  0  0  0  0  0  0  0
  -12.7509   -3.5555    0.0000 H   0  0  0  0  0  0  0  0  0  0  0  0
  -13.2313   -1.8370    0.0000 H   0  0  0  0  0  0  0  0  0  0  0  0
   -8.3513   -4.2821    0.0000 H   0  0  0  0  0  0  0  0  0  0  0  0
   -9.5412   -1.2165    0.0000 H   0  0  0  0  0  0  0  0  0  0  0  0
   -9.5144    2.1747    0.0000 H   0  0  0  0  0  0  0  0  0  0  0  0
   -8.9132    2.9474    0.0000 H   0  0  0  0  0  0  0  0  0  0  0  0
   -5.7094    4.1647    0.0000 H   0  0  0  0  0  0  0  0  0  0  0  0
   -5.0430    3.1030    0.0000 H   0  0  0  0  0  0  0  0  0  0  0  0
   -4.7757    1.3387    0.0000 H   0  0  0  0  0  0  0  0  0  0  0  0
   -5.8379    0.5635    0.0000 H   0  0  0  0  0  0  0  0  0  0  0  0
   -5.7844    2.6525    0.0000 H   0  0  0  0  0  0  0  0  0  0  0  0
   -5.5073   -0.7274    0.0000 H   0  0  0  0  0  0  0  0  0  0  0  0
   -2.3498   -1.5141    0.0000 H   0  0  0  0  0  0  0  0  0  0  0  0
   -2.4001    0.2696    0.0000 H   0  0  0  0  0  0  0  0  0  0  0  0
   -6.6416   -1.4168    0.0000 H   0  0  0  0  0  0  0  0  0  0  0  0
   -7.4347   -4.1410    0.0000 H   0  0  0  0  0  0  0  0  0  0  0  0
   -5.4228   -6.3663    0.0000 H   0  0  0  0  0  0  0  0  0  0  0  0
   -2.4896   -5.7366    0.0000 H   0  0  0  0  0  0  0  0  0  0  0  0
   -1.5684   -2.8815    0.0000 H   0  0  0  0  0  0  0  0  0  0  0  0
   -1.7522   -0.9286    0.0000 H   0  0  0  0  0  0  0  0  0  0  0  0
   -1.7255    2.4626    0.0000 H   0  0  0  0  0  0  0  0  0  0  0  0
    0.6622    3.9613    0.0000 H   0  0  0  0  0  0  0  0  0  0  0  0
   -1.1243    3.2353    0.0000 H   0  0  0  0  0  0  0  0  0  0  0  0
    2.6085    3.5119    0.0000 H   0  0  0  0  0  0  0  0  0  0  0  0
    2.0045    2.9404    0.0000 H   0  0  0  0  0  0  0  0  0  0  0  0
    2.2816   -0.4396    0.0000 H   0  0  0  0  0  0  0  0  0  0  0  0
    5.4391   -1.2262    0.0000 H   0  0  0  0  0  0  0  0  0  0  0  0
    5.3888    0.5575    0.0000 H   0  0  0  0  0  0  0  0  0  0  0  0
    1.8208   -3.5382    0.0000 H   0  0  0  0  0  0  0  0  0  0  0  0
    6.0367   -0.6407    0.0000 H   0  0  0  0  0  0  0  0  0  0  0  0
    6.0634    2.7504    0.0000 H   0  0  0  0  0  0  0  0  0  0  0  0
    8.2737    4.2947    0.0000 H   0  0  0  0  0  0  0  0  0  0  0  0
    6.6646    3.5232    0.0000 H   0  0  0  0  0  0  0  0  0  0  0  0
    9.7400    1.1393    0.0000 H   0  0  0  0  0  0  0  0  0  0  0  0
   11.8888    3.9597    0.0000 H   0  0  0  0  0  0  0  0  0  0  0  0
   10.8580    5.2274    0.0000 H   0  0  0  0  0  0  0  0  0  0  0  0
    9.1669    4.6577    0.0000 H   0  0  0  0  0  0  0  0  0  0  0  0
   11.2186    0.4734    0.0000 H   0  0  0  0  0  0  0  0  0  0  0  0
   12.2630    2.2549    0.0000 H   0  0  0  0  0  0  0  0  0  0  0  0
   11.4334    3.2752    0.0000 H   0  0  0  0  0  0  0  0  0  0  0  0
    9.9747    3.2016    0.0000 H   0  0  0  0  0  0  0  0  0  0  0  0
   10.0705   -0.1517    0.0000 H   0  0  0  0  0  0  0  0  0  0  0  0
   13.2280   -0.9383    0.0000 H   0  0  0  0  0  0  0  0  0  0  0  0
   13.2818    0.6946    0.0000 H   0  0  0  0  0  0  0  0  0  0  0  0
    8.7978   -1.2499    0.0000 H   0  0  0  0  0  0  0  0  0  0  0  0
    8.9026   -4.3585    0.0000 H   0  0  0  0  0  0  0  0  0  0  0  0
   11.2755   -6.5194    0.0000 H   0  0  0  0  0  0  0  0  0  0  0  0
   14.2597   -6.8269    0.0000 H   0  0  0  0  0  0  0  0  0  0  0  0
   16.0181   -4.3963    0.0000 H   0  0  0  0  0  0  0  0  0  0  0  0
   14.7924   -1.6581    0.0000 H   0  0  0  0  0  0  0  0  0  0  0  0
   13.8256   -0.3529    0.0000 H   0  0  0  0  0  0  0  0  0  0  0  0
   13.8524    3.0383    0.0000 H   0  0  0  0  0  0  0  0  0  0  0  0
   16.0626    4.5826    0.0000 H   0  0  0  0  0  0  0  0  0  0  0  0
   14.4535    3.8111    0.0000 H   0  0  0  0  0  0  0  0  0  0  0  0
   18.4957    2.0459    0.0000 H   0  0  0  0  0  0  0  0  0  0  0  0
   17.5289    1.4272    0.0000 H   0  0  0  0  0  0  0  0  0  0  0  0
   18.6469    5.5152    0.0000 H   0  0  0  0  0  0  0  0  0  0  0  0
   16.9559    4.9456    0.0000 H   0  0  0  0  0  0  0  0  0  0  0  0
   21.0736    3.3473    0.0000 H   0  0  0  0  0  0  0  0  0  0  0  0
   19.3890    2.4089    0.0000 H   0  0  0  0  0  0  0  0  0  0  0  0
   22.0429    4.6806    0.0000 H   0  0  0  0  0  0  0  0  0  0  0  0
   20.0285    6.4555    0.0000 H   0  0  0  0  0  0  0  0  0  0  0  0
   17.7636    3.4895    0.0000 H   0  0  0  0  0  0  0  0  0  0  0  0
   17.7219    0.2573    0.0000 H   0  0  0  0  0  0  0  0  0  0  0  0
   21.1123   -0.4941    0.0000 H   0  0  0  0  0  0  0  0  0  0  0  0
   20.9666    1.1333    0.0000 H   0  0  0  0  0  0  0  0  0  0  0  0
   17.9243   -0.6854    0.0000 H   0  0  0  0  0  0  0  0  0  0  0  0
   20.0486   -3.8058    0.0000 H   0  0  0  0  0  0  0  0  0  0  0  0
   21.6576   -3.0343    0.0000 H   0  0  0  0  0  0  0  0  0  0  0  0
   21.3903   -1.2700    0.0000 H   0  0  0  0  0  0  0  0  0  0  0  0
   18.7959   -3.8521    0.0000 H   0  0  0  0  0  0  0  0  0  0  0  0
   17.1343   -3.2015    0.0000 H   0  0  0  0  0  0  0  0  0  0  0  0
   17.3988   -1.2913    0.0000 H   0  0  0  0  0  0  0  0  0  0  0  0
   21.6145   -0.0650    0.0000 H   0  0  0  0  0  0  0  0  0  0  0  0
   21.7844    3.4405    0.0000 H   0  0  0  0  0  0  0  0  0  0  0  0
   23.8515    4.8705    0.0000 H   0  0  0  0  0  0  0  0  0  0  0  0
   22.1668    3.9321    0.0000 H   0  0  0  0  0  0  0  0  0  0  0  0
   25.3178    1.7150    0.0000 H   0  0  0  0  0  0  0  0  0  0  0  0
   27.4361    4.7161    0.0000 H   0  0  0  0  0  0  0  0  0  0  0  0
   26.2584    5.8486    0.0000 H   0  0  0  0  0  0  0  0  0  0  0  0
   24.8585    5.3771    0.0000 H   0  0  0  0  0  0  0  0  0  0  0  0
   26.6177    1.0091    0.0000 H   0  0  0  0  0  0  0  0  0  0  0  0
   27.8798    2.4671    0.0000 H   0  0  0  0  0  0  0  0  0  0  0  0
   27.3217    3.6578    0.0000 H   0  0  0  0  0  0  0  0  0  0  0  0
   23.8773    4.1150    0.0000 H   0  0  0  0  0  0  0  0  0  0  0  0
   24.9539    5.2541    0.0000 H   0  0  0  0  0  0  0  0  0  0  0  0
   26.4595    5.6328    0.0000 H   0  0  0  0  0  0  0  0  0  0  0  0
   28.1467    4.8322    0.0000 H   0  0  0  0  0  0  0  0  0  0  0  0
   28.7774    3.8273    0.0000 H   0  0  0  0  0  0  0  0  0  0  0  0
   28.8710    2.1092    0.0000 H   0  0  0  0  0  0  0  0  0  0  0  0
   26.1008    0.3489    0.0000 H   0  0  0  0  0  0  0  0  0  0  0  0
   26.4323   -1.2427    0.0000 H   0  0  0  0  0  0  0  0  0  0  0  0
   29.6317   -0.0471    0.0000 H   0  0  0  0  0  0  0  0  0  0  0  0
   31.9720   -1.6187    0.0000 H   0  0  0  0  0  0  0  0  0  0  0  0
   30.5822   -0.2820    0.0000 H   0  0  0  0  0  0  0  0  0  0  0  0
   30.7954   -4.7162    0.0000 H   0  0  0  0  0  0  0  0  0  0  0  0
   29.6552   -4.0611    0.0000 H   0  0  0  0  0  0  0  0  0  0  0  0
   34.8491   -2.8583    0.0000 H   0  0  0  0  0  0  0  0  0  0  0  0
   31.6347   -3.4367    0.0000 H   0  0  0  0  0  0  0  0  0  0  0  0
   28.6103   -4.8881    0.0000 H   0  0  0  0  0  0  0  0  0  0  0  0
   29.3576   -8.1161    0.0000 H   0  0  0  0  0  0  0  0  0  0  0  0
   30.8606   -7.1543    0.0000 H   0  0  0  0  0  0  0  0  0  0  0  0
   25.8689   -8.3108    0.0000 H   0  0  0  0  0  0  0  0  0  0  0  0
   28.2445   -9.3627    0.0000 H   0  0  0  0  0  0  0  0  0  0  0  0
   33.9038   -6.2602    0.0000 H   0  0  0  0  0  0  0  0  0  0  0  0
  1  2  1  0
  2  3  1  0
  3  4  2  0
  4  5  1  0
  5  6  2  0
  6  7  1  0
  7  8  2  0
  7  9  1  0
  9 10  1  0
 10 11  1  0
 11 12  2  0
  9 13  1  0
 13 14  1  0
 14 15  2  0
 15 16  1  0
 16 17  2  0
 17 18  1  0
 16 19  1  0
 14 20  1  0
 20 21  1  0
 21 22  2  0
 22 23  1  0
 23 24  2  0
 24 25  1  0
 25 26  2  0
 25 27  1  0
  1 28  2  0
  1 29  1  0
 29 30  1  0
 30 31  1  0
 31 32  1  0
 32 33  2  0
 32 34  1  0
 34 35  1  0
 35 36  1  0
 36 37  1  0
 37 38  1  0
 37 39  1  0
 35 40  1  0
 40 41  2  0
 40 42  1  0
 42 43  1  0
 43 44  1  0
 44 45  1  0
 43 46  1  0
 46 47  2  0
 46 48  1  0
 48 49  1  0
 49 50  1  0
 50 51  1  0
 51 52  1  0
 52 53  1  0
 52 54  2  0
 49 55  1  0
 55 56  2  0
 55 57  1  0
 57 58  1  0
 58 59  1  0
 59 60  1  0
 60 61  1  0
 61 62  2  0
 61 63  1  0
 58 64  1  0
 64 65  2  0
 64 66  1  0
 66 67  1  0
 67 68  1  0
 68 69  1  0
 68 70  1  0
 67 71  1  0
 71 72  2  0
 71 73  1  0
 73 74  1  0
 74 75  1  0
 75 76  1  0
 76 77  2  0
 77 78  1  0
 78 79  2  0
 79 80  1  0
 80 81  2  0
 74 82  1  0
 82 83  2  0
 82 84  1  0
 84 85  1  0
 85 86  1  0
 86 87  1  0
 85 88  1  0
 88 89  2  0
 88 90  1  0
 90 91  1  0
 91 92  1  0
 92 93  1  0
 93 94  2  0
 93 95  1  0
 91 96  1  0
 96 97  2  0
 96 98  1  0
 98 99  1  0
 99100  1  0
100101  1  0
101102  1  0
101103  1  0
 99104  1  0
104105  2  0
104106  1  0
106107  1  0
107108  1  0
108109  1  0
109110  2  0
110111  1  0
111112  1  0
112113  2  0
113114  1  0
114115  2  0
115116  1  0
116117  2  0
107118  1  0
118119  2  0
118120  1  0
120121  1  0
121122  1  0
122123  1  0
123124  1  0
124125  1  0
125126  1  0
121127  1  0
127128  2  0
127129  1  0
129130  1  0
130131  1  0
131132  1  0
132133  1  0
132134  1  0
130135  1  0
135136  2  0
135137  1  0
137138  1  0
138139  1  0
139140  1  0
140141  1  0
140142  1  0
138143  1  0
143144  2  0
143145  1  0
145146  1  0
146147  1  0
147148  1  0
148149  1  0
149150  1  0
150151  2  0
150152  1  0
152153  1  0
153154  1  0
154155  1  0
155156  1  0
156157  2  0
156158  1  0
153159  1  0
159160  2  0
159161  1  0
161162  1  0
162163  1  0
163164  1  0
164165  1  0
164166  2  0
162167  1  0
167168  2  0
167169  1  0
  8  3  1  0
 81 76  1  0
117109  1  0
149145  1  0
 11  6  1  0
117112  1  0
 18 13  2  0
 22  9  1  0
 26 21  1  0
  2170  1  0
  4171  1  0
  5172  1  0
  8173  1  0
 15174  1  0
 17175  1  0
 18176  1  0
 19177  1  0
 23178  1  0
 24179  1  0
 26180  1  0
 27181  1  0
 29182  1  0
 30183  1  0
 30184  1  0
 31185  1  0
 31186  1  0
 34187  1  0
 35188  1  1
 36189  1  0
 36190  1  0
 37191  1  0
 38192  1  0
 38193  1  0
 38194  1  0
 39195  1  0
 39196  1  0
 39197  1  0
 42198  1  0
 43199  1  6
 44200  1  0
 44201  1  0
 45202  1  0
 48203  1  0
 49204  1  1
 50205  1  0
 50206  1  0
 51207  1  0
 51208  1  0
 53209  1  0
 53210  1  0
 57211  1  0
 58212  1  6
 59213  1  0
 59214  1  0
 60215  1  0
 60216  1  0
 63217  1  0
 66218  1  0
 67219  1  1
 68220  1  1
 69221  1  0
 70222  1  0
 70223  1  0
 70224  1  0
 73225  1  0
 74226  1  6
 75227  1  0
 75228  1  0
 77229  1  0
 78230  1  0
 79231  1  0
 80232  1  0
 81233  1  0
 84234  1  0
 85235  1  1
 86236  1  0
 86237  1  0
 87238  1  0
 90239  1  0
 91240  1  6
 92241  1  0
 92242  1  0
 95243  1  0
 98244  1  0
 99245  1  1
100246  1  0
100247  1  0
101248  1  0
102249  1  0
102250  1  0
102251  1  0
103252  1  0
103253  1  0
103254  1  0
106255  1  0
107256  1  6
108257  1  0
108258  1  0
110259  1  0
111260  1  0
113261  1  0
114262  1  0
115263  1  0
116264  1  0
120265  1  0
121266  1  1
122267  1  0
122268  1  0
123269  1  0
123270  1  0
124271  1  0
124272  1  0
125273  1  0
125274  1  0
126275  1  0
126276  1  0
129277  1  0
130278  1  6
131279  1  0
131280  1  0
132281  1  0
133282  1  0
133283  1  0
133284  1  0
134285  1  0
134286  1  0
134287  1  0
137288  1  0
138289  1  1
139290  1  0
139291  1  0
140292  1  0
141293  1  0
141294  1  0
141295  1  0
142296  1  0
142297  1  0
142298  1  0
146299  1  0
146300  1  0
147301  1  0
147302  1  0
148303  1  0
148304  1  0
149305  1  0
152306  1  0
153307  1  1
154308  1  0
154309  1  0
155310  1  0
155311  1  0
158312  1  0
161313  1  0
162314  1  6
163315  1  0
163316  1  0
165317  1  0
165318  1  0
169319  1  0
M  END
