
     RDKit          2D

264266  0  0  0  0  0  0  0  0999 V2000
  -24.3145   -3.9527    0.0000 N   0  0  0  0  0  0  0  0  0  0  0  0
  -23.0462   -3.1517    0.0000 C   0  0  0  0  0  0  0  0  0  0  0  0
  -23.1058   -1.6529    0.0000 C   0  0  0  0  0  0  0  0  0  0  0  0
  -21.8376   -0.8519    0.0000 C   0  0  0  0  0  0  0  0  0  0  0  0
  -20.5098   -1.5497    0.0000 O   0  0  0  0  0  0  0  0  0  0  0  0
  -21.8971    0.6469    0.0000 N   0  0  0  0  0  0  0  0  0  0  0  0
  -20.6289    1.4479    0.0000 C   0  0  0  0  0  0  0  0  0  0  0  0
  -21.6379    2.5578    0.0000 C   0  0  0  0  0  0  0  0  0  0  0  0
  -21.1813    3.9866    0.0000 C   0  0  0  0  0  0  0  0  0  0  0  0
  -22.1903    5.0964    0.0000 N   0  0  0  0  0  0  0  0  0  0  0  0
  -19.7156    4.3055    0.0000 O   0  0  0  0  0  0  0  0  0  0  0  0
  -19.1632    1.7668    0.0000 C   0  0  0  0  0  0  0  0  0  0  0  0
  -18.9120    3.0933    0.0000 O   0  0  0  0  0  0  0  0  0  0  0  0
  -18.1541    0.6570    0.0000 N   0  0  0  0  0  0  0  0  0  0  0  0
  -16.6884    0.9759    0.0000 C   0  0  0  0  0  0  0  0  0  0  0  0
  -17.2570    2.3639    0.0000 C   0  0  0  0  0  0  0  0  0  0  0  0
  -16.3392    3.5504    0.0000 C   0  0  0  0  0  0  0  0  0  0  0  0
  -16.9078    4.9384    0.0000 C   0  0  0  0  0  0  0  0  0  0  0  0
  -15.9900    6.1249    0.0000 O   0  0  0  0  0  0  0  0  0  0  0  0
  -18.3942    5.1400    0.0000 O   0  0  0  0  0  0  0  0  0  0  0  0
  -15.2020    0.7743    0.0000 C   0  0  0  0  0  0  0  0  0  0  0  0
  -14.5813    1.8187    0.0000 O   0  0  0  0  0  0  0  0  0  0  0  0
  -14.6334   -0.6138    0.0000 N   0  0  0  0  0  0  0  0  0  0  0  0
  -13.1471   -0.8154    0.0000 C   0  0  0  0  0  0  0  0  0  0  0  0
  -13.2066    0.6834    0.0000 C   0  0  0  0  0  0  0  0  0  0  0  0
  -11.9384    1.4844    0.0000 C   0  0  0  0  0  0  0  0  0  0  0  0
  -11.9980    2.9832    0.0000 C   0  0  0  0  0  0  0  0  0  0  0  0
  -10.5225    1.9796    0.0000 C   0  0  0  0  0  0  0  0  0  0  0  0
  -11.8193   -1.5132    0.0000 C   0  0  0  0  0  0  0  0  0  0  0  0
  -10.5510   -0.7122    0.0000 O   0  0  0  0  0  0  0  0  0  0  0  0
  -11.7597   -3.0120    0.0000 N   0  0  0  0  0  0  0  0  0  0  0  0
  -10.4319   -3.7099    0.0000 C   0  0  0  0  0  0  0  0  0  0  0  0
  -11.3497   -4.8963    0.0000 C   0  0  0  0  0  0  0  0  0  0  0  0
  -12.8361   -4.6947    0.0000 C   0  0  0  0  0  0  0  0  0  0  0  0
  -13.7539   -5.8811    0.0000 C   0  0  0  0  0  0  0  0  0  0  0  0
  -15.2403   -5.6795    0.0000 C   0  0  0  0  0  0  0  0  0  0  0  0
  -16.1581   -6.8660    0.0000 N   0  0  0  0  0  0  0  0  0  0  0  0
   -8.9455   -3.9115    0.0000 C   0  0  0  0  0  0  0  0  0  0  0  0
   -8.5504   -5.3585    0.0000 O   0  0  0  0  0  0  0  0  0  0  0  0
   -8.0277   -2.7250    0.0000 N   0  0  0  0  0  0  0  0  0  0  0  0
   -6.5413   -2.9266    0.0000 C   0  0  0  0  0  0  0  0  0  0  0  0
   -5.7090   -4.1745    0.0000 C   0  0  0  0  0  0  0  0  0  0  0  0
   -4.5458   -5.1216    0.0000 C   0  0  0  0  0  0  0  0  0  0  0  0
   -3.1551   -5.6837    0.0000 C   0  0  0  0  0  0  0  0  0  0  0  0
   -1.6605   -5.8110    0.0000 C   0  0  0  0  0  0  0  0  0  0  0  0
   -7.4855   -4.0922    0.0000 C   0  0  0  0  0  0  0  0  0  0  0  0
   -6.9689   -1.4889    0.0000 C   0  0  0  0  0  0  0  0  0  0  0  0
   -8.4687   -1.5147    0.0000 O   0  0  0  0  0  0  0  0  0  0  0  0
   -6.9537    0.0111    0.0000 N   0  0  0  0  0  0  0  0  0  0  0  0
   -6.4970    1.4399    0.0000 C   0  0  0  0  0  0  0  0  0  0  0  0
   -7.9872    1.2685    0.0000 C   0  0  0  0  0  0  0  0  0  0  0  0
   -8.7272    2.5732    0.0000 O   0  0  0  0  0  0  0  0  0  0  0  0
   -5.6395    2.6706    0.0000 C   0  0  0  0  0  0  0  0  0  0  0  0
   -6.7287    3.7019    0.0000 O   0  0  0  0  0  0  0  0  0  0  0  0
   -4.4573    3.5939    0.0000 N   0  0  0  0  0  0  0  0  0  0  0  0
   -3.0555    4.1277    0.0000 C   0  0  0  0  0  0  0  0  0  0  0  0
   -4.1186    5.1859    0.0000 C   0  0  0  0  0  0  0  0  0  0  0  0
   -3.7338    6.6357    0.0000 C   0  0  0  0  0  0  0  0  0  0  0  0
   -2.2858    7.0272    0.0000 C   0  0  0  0  0  0  0  0  0  0  0  0
   -1.9009    8.4770    0.0000 C   0  0  0  0  0  0  0  0  0  0  0  0
   -2.9640    9.5352    0.0000 C   0  0  0  0  0  0  0  0  0  0  0  0
   -4.4120    9.1436    0.0000 C   0  0  0  0  0  0  0  0  0  0  0  0
   -4.7969    7.6939    0.0000 C   0  0  0  0  0  0  0  0  0  0  0  0
   -1.5587    4.2246    0.0000 C   0  0  0  0  0  0  0  0  0  0  0  0
   -1.2502    5.6925    0.0000 O   0  0  0  0  0  0  0  0  0  0  0  0
   -0.0997    3.8760    0.0000 N   0  0  0  0  0  0  0  0  0  0  0  0
    1.1916    3.1128    0.0000 C   0  0  0  0  0  0  0  0  0  0  0  0
    1.3561    4.6038    0.0000 C   0  0  0  0  0  0  0  0  0  0  0  0
    2.7296    5.2068    0.0000 C   0  0  0  0  0  0  0  0  0  0  0  0
    3.9385    4.3189    0.0000 C   0  0  0  0  0  0  0  0  0  0  0  0
    5.3120    4.9219    0.0000 C   0  0  0  0  0  0  0  0  0  0  0  0
    5.4765    6.4129    0.0000 C   0  0  0  0  0  0  0  0  0  0  0  0
    4.2675    7.3008    0.0000 C   0  0  0  0  0  0  0  0  0  0  0  0
    2.8941    6.6978    0.0000 C   0  0  0  0  0  0  0  0  0  0  0  0
    2.2007    2.0030    0.0000 C   0  0  0  0  0  0  0  0  0  0  0  0
    3.5407    2.6770    0.0000 O   0  0  0  0  0  0  0  0  0  0  0  0
    2.8378    0.6450    0.0000 N   0  0  0  0  0  0  0  0  0  0  0  0
    3.0463   -0.8405    0.0000 C   0  0  0  0  0  0  0  0  0  0  0  0
    2.8076   -2.3214    0.0000 C   0  0  0  0  0  0  0  0  0  0  0  0
    2.1431   -3.6661    0.0000 C   0  0  0  0  0  0  0  0  0  0  0  0
    1.1118   -4.7553    0.0000 C   0  0  0  0  0  0  0  0  0  0  0  0
   -0.1948   -5.4921    0.0000 C   0  0  0  0  0  0  0  0  0  0  0  0
    4.3894   -1.5083    0.0000 C   0  0  0  0  0  0  0  0  0  0  0  0
    4.3145   -0.0395    0.0000 C   0  0  0  0  0  0  0  0  0  0  0  0
    4.4381    1.4554    0.0000 O   0  0  0  0  0  0  0  0  0  0  0  0
    5.6423   -0.7373    0.0000 N   0  0  0  0  0  0  0  0  0  0  0  0
    6.9105    0.0637    0.0000 C   0  0  0  0  0  0  0  0  0  0  0  0
    7.8283    1.2501    0.0000 C   0  0  0  0  0  0  0  0  0  0  0  0
    9.3147    1.0485    0.0000 C   0  0  0  0  0  0  0  0  0  0  0  0
   10.2325    2.2350    0.0000 C   0  0  0  0  0  0  0  0  0  0  0  0
   10.6425    0.3507    0.0000 C   0  0  0  0  0  0  0  0  0  0  0  0
    8.2383   -0.6341    0.0000 C   0  0  0  0  0  0  0  0  0  0  0  0
    8.2979   -2.1329    0.0000 O   0  0  0  0  0  0  0  0  0  0  0  0
    9.5065    0.1669    0.0000 N   0  0  0  0  0  0  0  0  0  0  0  0
   10.8343   -0.5310    0.0000 C   0  0  0  0  0  0  0  0  0  0  0  0
   11.8434   -1.6408    0.0000 C   0  0  0  0  0  0  0  0  0  0  0  0
   11.3867   -3.0696    0.0000 C   0  0  0  0  0  0  0  0  0  0  0  0
   12.3958   -4.1795    0.0000 C   0  0  0  0  0  0  0  0  0  0  0  0
   11.9391   -5.6083    0.0000 N   0  0  0  0  0  0  0  0  0  0  0  0
   12.9482   -6.7182    0.0000 C   0  0  0  0  0  0  0  0  0  0  0  0
   12.4915   -8.1470    0.0000 N   0  0  0  0  0  0  0  0  0  0  0  0
   14.4139   -6.3993    0.0000 N   0  0  0  0  0  0  0  0  0  0  0  0
   12.1026    0.2700    0.0000 C   0  0  0  0  0  0  0  0  0  0  0  0
   12.2261    1.7649    0.0000 O   0  0  0  0  0  0  0  0  0  0  0  0
   13.4304   -0.4278    0.0000 N   0  0  0  0  0  0  0  0  0  0  0  0
   14.6986    0.3732    0.0000 C   0  0  0  0  0  0  0  0  0  0  0  0
   15.6164    1.5596    0.0000 C   0  0  0  0  0  0  0  0  0  0  0  0
   15.0478    2.9477    0.0000 C   0  0  0  0  0  0  0  0  0  0  0  0
   15.9656    4.1341    0.0000 O   0  0  0  0  0  0  0  0  0  0  0  0
   13.5614    3.1493    0.0000 O   0  0  0  0  0  0  0  0  0  0  0  0
   16.0264   -0.3246    0.0000 C   0  0  0  0  0  0  0  0  0  0  0  0
   16.0860   -1.8234    0.0000 O   0  0  0  0  0  0  0  0  0  0  0  0
   17.2946    0.4764    0.0000 N   0  0  0  0  0  0  0  0  0  0  0  0
   18.6224   -0.2215    0.0000 C   0  0  0  0  0  0  0  0  0  0  0  0
   19.6315   -1.3313    0.0000 C   0  0  0  0  0  0  0  0  0  0  0  0
   21.0972   -1.0124    0.0000 C   0  0  0  0  0  0  0  0  0  0  0  0
   22.1062   -2.1223    0.0000 C   0  0  0  0  0  0  0  0  0  0  0  0
   23.5719   -1.8034    0.0000 N   0  0  0  0  0  0  0  0  0  0  0  0
   21.6496   -3.5511    0.0000 O   0  0  0  0  0  0  0  0  0  0  0  0
   19.8906    0.5795    0.0000 C   0  0  0  0  0  0  0  0  0  0  0  0
   19.8311    2.0783    0.0000 O   0  0  0  0  0  0  0  0  0  0  0  0
   21.2184   -0.1183    0.0000 N   0  0  0  0  0  0  0  0  0  0  0  0
   22.4867    0.6827    0.0000 C   0  0  0  0  0  0  0  0  0  0  0  0
   23.9524    1.0016    0.0000 C   0  0  0  0  0  0  0  0  0  0  0  0
   24.4090    2.4304    0.0000 C   0  0  0  0  0  0  0  0  0  0  0  0
   25.4388    0.8000    0.0000 C   0  0  0  0  0  0  0  0  0  0  0  0
   26.0074   -0.5880    0.0000 C   0  0  0  0  0  0  0  0  0  0  0  0
   22.4271    2.1815    0.0000 C   0  0  0  0  0  0  0  0  0  0  0  0
   21.0993    2.8793    0.0000 O   0  0  0  0  0  0  0  0  0  0  0  0
   23.5882    3.1311    0.0000 O   0  0  0  0  0  0  0  0  0  0  0  0
  -24.2549   -5.4515    0.0000 H   0  0  0  0  0  0  0  0  0  0  0  0
  -25.6423   -3.2549    0.0000 H   0  0  0  0  0  0  0  0  0  0  0  0
  -22.4776   -4.5398    0.0000 H   0  0  0  0  0  0  0  0  0  0  0  0
  -21.5805   -2.8328    0.0000 H   0  0  0  0  0  0  0  0  0  0  0  0
  -24.5715   -1.9718    0.0000 H   0  0  0  0  0  0  0  0  0  0  0  0
  -23.6744   -0.2648    0.0000 H   0  0  0  0  0  0  0  0  0  0  0  0
  -22.8176    0.9951    0.0000 H   0  0  0  0  0  0  0  0  0  0  0  0
  -20.0603    0.0598    0.0000 H   0  0  0  0  0  0  0  0  0  0  0  0
  -22.9657    3.2556    0.0000 H   0  0  0  0  0  0  0  0  0  0  0  0
  -22.3305    1.8586    0.0000 H   0  0  0  0  0  0  0  0  0  0  0  0
  -21.7337    6.5252    0.0000 H   0  0  0  0  0  0  0  0  0  0  0  0
  -23.6560    4.7775    0.0000 H   0  0  0  0  0  0  0  0  0  0  0  0
  -18.6108   -0.7718    0.0000 H   0  0  0  0  0  0  0  0  0  0  0  0
  -16.6289   -0.5229    0.0000 H   0  0  0  0  0  0  0  0  0  0  0  0
  -18.0366    3.4661    0.0000 H   0  0  0  0  0  0  0  0  0  0  0  0
  -18.2954    2.0211    0.0000 H   0  0  0  0  0  0  0  0  0  0  0  0
  -15.0710    4.3514    0.0000 H   0  0  0  0  0  0  0  0  0  0  0  0
  -15.3302    2.4405    0.0000 H   0  0  0  0  0  0  0  0  0  0  0  0
  -15.5512   -1.8002    0.0000 H   0  0  0  0  0  0  0  0  0  0  0  0
  -13.6037   -2.2442    0.0000 H   0  0  0  0  0  0  0  0  0  0  0  0
  -13.6672    1.8077    0.0000 H   0  0  0  0  0  0  0  0  0  0  0  0
  -14.2996    0.7164    0.0000 H   0  0  0  0  0  0  0  0  0  0  0  0
  -11.3698    0.0964    0.0000 H   0  0  0  0  0  0  0  0  0  0  0  0
  -10.8368    3.9328    0.0000 H   0  0  0  0  0  0  0  0  0  0  0  0
  -12.5665    4.3713    0.0000 H   0  0  0  0  0  0  0  0  0  0  0  0
  -13.4916    2.8453    0.0000 H   0  0  0  0  0  0  0  0  0  0  0  0
   -9.8453    3.1658    0.0000 H   0  0  0  0  0  0  0  0  0  0  0  0
   -9.2672    1.8215    0.0000 H   0  0  0  0  0  0  0  0  0  0  0  0
  -10.4131    0.3045    0.0000 H   0  0  0  0  0  0  0  0  0  0  0  0
  -13.1161   -3.6525    0.0000 H   0  0  0  0  0  0  0  0  0  0  0  0
   -9.9752   -2.2811    0.0000 H   0  0  0  0  0  0  0  0  0  0  0  0
  -11.6288   -6.3701    0.0000 H   0  0  0  0  0  0  0  0  0  0  0  0
  -10.0219   -5.5941    0.0000 H   0  0  0  0  0  0  0  0  0  0  0  0
  -14.0689   -3.8402    0.0000 H   0  0  0  0  0  0  0  0  0  0  0  0
  -12.9219   -3.1972    0.0000 H   0  0  0  0  0  0  0  0  0  0  0  0
  -14.0330   -7.3550    0.0000 H   0  0  0  0  0  0  0  0  0  0  0  0
  -12.5210   -6.7356    0.0000 H   0  0  0  0  0  0  0  0  0  0  0  0
  -16.5681   -4.9817    0.0000 H   0  0  0  0  0  0  0  0  0  0  0  0
  -14.9612   -4.2057    0.0000 H   0  0  0  0  0  0  0  0  0  0  0  0
  -17.6445   -6.6644    0.0000 H   0  0  0  0  0  0  0  0  0  0  0  0
  -16.6147   -8.2948    0.0000 H   0  0  0  0  0  0  0  0  0  0  0  0
  -14.9252   -7.7205    0.0000 H   0  0  0  0  0  0  0  0  0  0  0  0
   -8.7613   -1.4166    0.0000 H   0  0  0  0  0  0  0  0  0  0  0  0
   -6.0938   -5.6243    0.0000 H   0  0  0  0  0  0  0  0  0  0  0  0
   -7.1478   -4.5985    0.0000 H   0  0  0  0  0  0  0  0  0  0  0  0
   -4.6694   -6.6165    0.0000 H   0  0  0  0  0  0  0  0  0  0  0  0
   -5.7957   -5.9509    0.0000 H   0  0  0  0  0  0  0  0  0  0  0  0
   -2.6564   -7.0984    0.0000 H   0  0  0  0  0  0  0  0  0  0  0  0
   -4.1051   -6.8446    0.0000 H   0  0  0  0  0  0  0  0  0  0  0  0
   -1.5636   -7.3079    0.0000 H   0  0  0  0  0  0  0  0  0  0  0  0
   -8.7824   -4.4710    0.0000 H   0  0  0  0  0  0  0  0  0  0  0  0
   -7.4555   -5.6739    0.0000 H   0  0  0  0  0  0  0  0  0  0  0  0
   -6.2877   -5.2682    0.0000 H   0  0  0  0  0  0  0  0  0  0  0  0
   -8.4346    0.2497    0.0000 H   0  0  0  0  0  0  0  0  0  0  0  0
   -7.2661    2.7277    0.0000 H   0  0  0  0  0  0  0  0  0  0  0  0
   -9.3289    0.5977    0.0000 H   0  0  0  0  0  0  0  0  0  0  0  0
   -7.9202   -0.2301    0.0000 H   0  0  0  0  0  0  0  0  0  0  0  0
  -10.3917    2.5043    0.0000 H   0  0  0  0  0  0  0  0  0  0  0  0
   -5.1941    4.9004    0.0000 H   0  0  0  0  0  0  0  0  0  0  0  0
   -2.5282    5.5319    0.0000 H   0  0  0  0  0  0  0  0  0  0  0  0
   -5.4796    5.8166    0.0000 H   0  0  0  0  0  0  0  0  0  0  0  0
   -5.2485    4.1992    0.0000 H   0  0  0  0  0  0  0  0  0  0  0  0
   -1.1016    6.1065    0.0000 H   0  0  0  0  0  0  0  0  0  0  0  0
   -0.4529    8.8686    0.0000 H   0  0  0  0  0  0  0  0  0  0  0  0
   -2.5792   10.9850    0.0000 H   0  0  0  0  0  0  0  0  0  0  0  0
   -5.4751   10.2018    0.0000 H   0  0  0  0  0  0  0  0  0  0  0  0
   -6.2449    7.3023    0.0000 H   0  0  0  0  0  0  0  0  0  0  0  0
    0.4624    5.2667    0.0000 H   0  0  0  0  0  0  0  0  0  0  0  0
    2.6183    3.5761    0.0000 H   0  0  0  0  0  0  0  0  0  0  0  0
    1.0007    6.0611    0.0000 H   0  0  0  0  0  0  0  0  0  0  0  0
   -0.1197    4.8720    0.0000 H   0  0  0  0  0  0  0  0  0  0  0  0
    3.9570    2.8190    0.0000 H   0  0  0  0  0  0  0  0  0  0  0  0
    6.5209    4.0340    0.0000 H   0  0  0  0  0  0  0  0  0  0  0  0
    6.8499    7.0159    0.0000 H   0  0  0  0  0  0  0  0  0  0  0  0
    4.4320    8.7918    0.0000 H   0  0  0  0  0  0  0  0  0  0  0  0
    1.6851    7.5857    0.0000 H   0  0  0  0  0  0  0  0  0  0  0  0
    4.2127    1.2446    0.0000 H   0  0  0  0  0  0  0  0  0  0  0  0
    4.2926   -2.1092    0.0000 H   0  0  0  0  0  0  0  0  0  0  0  0
    3.7601   -3.4802    0.0000 H   0  0  0  0  0  0  0  0  0  0  0  0
    3.6246   -3.9011    0.0000 H   0  0  0  0  0  0  0  0  0  0  0  0
    2.8767   -4.9745    0.0000 H   0  0  0  0  0  0  0  0  0  0  0  0
    2.4582   -5.4165    0.0000 H   0  0  0  0  0  0  0  0  0  0  0  0
    1.2460   -6.2493    0.0000 H   0  0  0  0  0  0  0  0  0  0  0  0
    0.3390   -6.8939    0.0000 H   0  0  0  0  0  0  0  0  0  0  0  0
    5.7264   -1.3140    0.0000 H   0  0  0  0  0  0  0  0  0  0  0  0
    5.0193   -2.9595    0.0000 H   0  0  0  0  0  0  0  0  0  0  0  0
    3.7885   -3.0757    0.0000 H   0  0  0  0  0  0  0  0  0  0  0  0
    5.8841   -2.2177    0.0000 H   0  0  0  0  0  0  0  0  0  0  0  0
    5.9015    1.1736    0.0000 H   0  0  0  0  0  0  0  0  0  0  0  0
    8.1074    2.7240    0.0000 H   0  0  0  0  0  0  0  0  0  0  0  0
    6.5005    1.9480    0.0000 H   0  0  0  0  0  0  0  0  0  0  0  0
    9.5824   -0.4274    0.0000 H   0  0  0  0  0  0  0  0  0  0  0  0
   11.7235    2.3990    0.0000 H   0  0  0  0  0  0  0  0  0  0  0  0
   10.6891    3.6638    0.0000 H   0  0  0  0  0  0  0  0  0  0  0  0
    8.9997    3.0895    0.0000 H   0  0  0  0  0  0  0  0  0  0  0  0
   11.0630   -1.0892    0.0000 H   0  0  0  0  0  0  0  0  0  0  0  0
   12.1024    0.6953    0.0000 H   0  0  0  0  0  0  0  0  0  0  0  0
   11.2699    1.7132    0.0000 H   0  0  0  0  0  0  0  0  0  0  0  0
    9.8114    1.6356    0.0000 H   0  0  0  0  0  0  0  0  0  0  0  0
    9.7788   -1.5967    0.0000 H   0  0  0  0  0  0  0  0  0  0  0  0
   13.1712   -2.3387    0.0000 H   0  0  0  0  0  0  0  0  0  0  0  0
   13.1255   -0.8622    0.0000 H   0  0  0  0  0  0  0  0  0  0  0  0
   10.4689   -4.2561    0.0000 H   0  0  0  0  0  0  0  0  0  0  0  0
    9.9838   -2.5389    0.0000 H   0  0  0  0  0  0  0  0  0  0  0  0
   13.7236   -4.8773    0.0000 H   0  0  0  0  0  0  0  0  0  0  0  0
   13.4513   -3.1138    0.0000 H   0  0  0  0  0  0  0  0  0  0  0  0
   10.4734   -5.9272    0.0000 H   0  0  0  0  0  0  0  0  0  0  0  0
   13.5006   -9.2569    0.0000 H   0  0  0  0  0  0  0  0  0  0  0  0
   11.0258   -8.4659    0.0000 H   0  0  0  0  0  0  0  0  0  0  0  0
   15.4229   -7.5091    0.0000 H   0  0  0  0  0  0  0  0  0  0  0  0
   14.8705   -4.9705    0.0000 H   0  0  0  0  0  0  0  0  0  0  0  0
   13.6722   -1.9082    0.0000 H   0  0  0  0  0  0  0  0  0  0  0  0
   13.6895    1.4831    0.0000 H   0  0  0  0  0  0  0  0  0  0  0  0
   16.7775    2.5093    0.0000 H   0  0  0  0  0  0  0  0  0  0  0  0
   16.8640    0.7269    0.0000 H   0  0  0  0  0  0  0  0  0  0  0  0
   17.4182    1.9713    0.0000 H   0  0  0  0  0  0  0  0  0  0  0  0
   17.7046   -1.4079    0.0000 H   0  0  0  0  0  0  0  0  0  0  0  0
   20.2001   -2.7194    0.0000 H   0  0  0  0  0  0  0  0  0  0  0  0
   18.3632   -2.1323    0.0000 H   0  0  0  0  0  0  0  0  0  0  0  0
   22.4536   -0.3720    0.0000 H   0  0  0  0  0  0  0  0  0  0  0  0
   21.2469    0.4801    0.0000 H   0  0  0  0  0  0  0  0  0  0  0  0
   24.5810   -2.9132    0.0000 H   0  0  0  0  0  0  0  0  0  0  0  0
   24.0286   -0.3746    0.0000 H   0  0  0  0  0  0  0  0  0  0  0  0
   21.6389   -1.5582    0.0000 H   0  0  0  0  0  0  0  0  0  0  0  0
   23.2202   -0.6257    0.0000 H   0  0  0  0  0  0  0  0  0  0  0  0
   24.0119   -0.4972    0.0000 H   0  0  0  0  0  0  0  0  0  0  0  0
   25.8249    2.9256    0.0000 H   0  0  0  0  0  0  0  0  0  0  0  0
   24.3495    3.9292    0.0000 H   0  0  0  0  0  0  0  0  0  0  0  0
   23.0937    3.1514    0.0000 H   0  0  0  0  0  0  0  0  0  0  0  0
   26.9045    1.1189    0.0000 H   0  0  0  0  0  0  0  0  0  0  0  0
   25.5623    2.2949    0.0000 H   0  0  0  0  0  0  0  0  0  0  0  0
   27.4938   -0.7897    0.0000 H   0  0  0  0  0  0  0  0  0  0  0  0
   26.0669   -2.0869    0.0000 H   0  0  0  0  0  0  0  0  0  0  0  0
   24.5417   -0.9070    0.0000 H   0  0  0  0  0  0  0  0  0  0  0  0
  1  2  1  0
  2  3  1  0
  3  4  1  0
  4  5  2  0
  4  6  1  0
  6  7  1  0
  7  8  1  0
  8  9  1  0
  9 10  1  0
  9 11  2  0
  7 12  1  0
 12 13  2  0
 12 14  1  0
 14 15  1  0
 15 16  1  0
 16 17  1  0
 17 18  1  0
 18 19  2  0
 18 20  1  0
 15 21  1  0
 21 22  2  0
 21 23  1  0
 23 24  1  0
 24 25  1  0
 25 26  1  0
 26 27  1  0
 26 28  1  0
 24 29  1  0
 29 30  2  0
 29 31  1  0
 31 32  1  0
 32 33  1  0
 33 34  1  0
 34 35  1  0
 35 36  1  0
 36 37  1  0
 32 38  1  0
 38 39  2  0
 38 40  1  0
 41 40  1  6
 41 42  1  0
 42 43  1  0
 43 44  1  0
 44 45  1  0
 41 46  1  0
 41 47  1  0
 47 48  2  0
 47 49  1  0
 49 50  1  0
 50 51  1  0
 51 52  1  0
 50 53  1  0
 53 54  2  0
 53 55  1  0
 55 56  1  0
 56 57  1  0
 57 58  1  0
 58 59  2  0
 59 60  1  0
 60 61  2  0
 61 62  1  0
 62 63  2  0
 56 64  1  0
 64 65  2  0
 64 66  1  0
 66 67  1  0
 67 68  1  0
 68 69  1  0
 69 70  2  0
 70 71  1  0
 71 72  2  0
 72 73  1  0
 73 74  2  0
 67 75  1  0
 75 76  2  0
 75 77  1  0
 77 78  1  0
 78 79  1  0
 79 80  1  0
 80 81  1  0
 81 82  1  0
 78 83  1  0
 78 84  1  6
 84 85  2  0
 84 86  1  0
 86 87  1  0
 87 88  1  0
 88 89  1  0
 89 90  1  0
 89 91  1  0
 87 92  1  0
 92 93  2  0
 92 94  1  0
 94 95  1  0
 95 96  1  0
 96 97  1  0
 97 98  1  0
 98 99  1  0
 99100  1  0
100101  2  3
100102  1  0
 95103  1  0
103104  2  0
103105  1  0
105106  1  0
106107  1  0
107108  1  0
108109  2  0
108110  1  0
106111  1  0
111112  2  0
111113  1  0
113114  1  0
114115  1  0
115116  1  0
116117  1  0
117118  1  0
117119  2  0
114120  1  0
120121  2  0
120122  1  0
122123  1  0
123124  1  0
124125  1  0
124126  1  0
126127  1  0
123128  1  0
128129  2  0
128130  1  0
 63 58  1  0
 74 69  1  0
 45 82  2  0
  1131  1  0
  1132  1  0
  2133  1  0
  2134  1  0
  3135  1  0
  3136  1  0
  6137  1  0
  7138  1  1
  8139  1  0
  8140  1  0
 10141  1  0
 10142  1  0
 14143  1  0
 15144  1  1
 16145  1  0
 16146  1  0
 17147  1  0
 17148  1  0
 23149  1  0
 24150  1  1
 25151  1  0
 25152  1  0
 26153  1  0
 27154  1  0
 27155  1  0
 27156  1  0
 28157  1  0
 28158  1  0
 28159  1  0
 31160  1  0
 32161  1  6
 33162  1  0
 33163  1  0
 34164  1  0
 34165  1  0
 35166  1  0
 35167  1  0
 36168  1  0
 36169  1  0
 37170  1  0
 37171  1  0
 37172  1  0
 40173  1  0
 42174  1  0
 42175  1  0
 43176  1  0
 43177  1  0
 44178  1  0
 44179  1  0
 45180  1  0
 46181  1  0
 46182  1  0
 46183  1  0
 49184  1  0
 50185  1  1
 51186  1  0
 51187  1  0
 52188  1  0
 55189  1  0
 56190  1  1
 57191  1  0
 57192  1  0
 59193  1  0
 60194  1  0
 61195  1  0
 62196  1  0
 63197  1  0
 66198  1  0
 67199  1  1
 68200  1  0
 68201  1  0
 70202  1  0
 71203  1  0
 72204  1  0
 73205  1  0
 74206  1  0
 77207  1  0
 79208  1  0
 79209  1  0
 80210  1  0
 80211  1  0
 81212  1  0
 81213  1  0
 82214  1  0
 83215  1  0
 83216  1  0
 83217  1  0
 86218  1  0
 87219  1  1
 88220  1  0
 88221  1  0
 89222  1  0
 90223  1  0
 90224  1  0
 90225  1  0
 91226  1  0
 91227  1  0
 91228  1  0
 94229  1  0
 95230  1  6
 96231  1  0
 96232  1  0
 97233  1  0
 97234  1  0
 98235  1  0
 98236  1  0
 99237  1  0
101238  1  0
101239  1  0
102240  1  0
102241  1  0
105242  1  0
106243  1  1
107244  1  0
107245  1  0
113246  1  0
114247  1  6
115248  1  0
115249  1  0
116250  1  0
116251  1  0
118252  1  0
118253  1  0
122254  1  0
123255  1  6
124256  1  6
125257  1  0
125258  1  0
125259  1  0
126260  1  0
126261  1  0
127262  1  0
127263  1  0
127264  1  0
M  CHG  5  20  -1  37   1 101   1 110  -1 130  -1
M  END
