
     RDKit          2D

206214  0  0  0  0  0  0  0  0999 V2000
  -12.9540    0.4083    0.0000 C   0  0  0  0  0  0  0  0  0  0  0  0
  -13.7625   -0.8552    0.0000 N   0  0  0  0  0  0  0  0  0  0  0  0
  -15.2609   -0.7868    0.0000 C   0  0  0  0  0  0  0  0  0  0  0  0
  -15.9509    0.5451    0.0000 C   0  0  0  0  0  0  0  0  0  0  0  0
  -17.4494    0.6135    0.0000 C   0  0  0  0  0  0  0  0  0  0  0  0
  -18.2578   -0.6500    0.0000 C   0  0  0  0  0  0  0  0  0  0  0  0
  -17.5678   -1.9819    0.0000 C   0  0  0  0  0  0  0  0  0  0  0  0
  -16.0693   -2.0503    0.0000 C   0  0  0  0  0  0  0  0  0  0  0  0
  -18.6213   -3.0497    0.0000 C   0  0  0  0  0  0  0  0  0  0  0  0
  -19.9623   -2.3778    0.0000 O   0  0  0  0  0  0  0  0  0  0  0  0
  -19.7377   -0.8947    0.0000 C   0  0  0  0  0  0  0  0  0  0  0  0
  -20.8055    0.1588    0.0000 O   0  0  0  0  0  0  0  0  0  0  0  0
  -19.7806   -4.0016    0.0000 C   0  0  0  0  0  0  0  0  0  0  0  0
  -19.5359   -5.4815    0.0000 C   0  0  0  0  0  0  0  0  0  0  0  0
  -20.6952   -6.4333    0.0000 C   0  0  0  0  0  0  0  0  0  0  0  0
  -22.0992   -5.9052    0.0000 C   0  0  0  0  0  0  0  0  0  0  0  0
  -22.3438   -4.4253    0.0000 C   0  0  0  0  0  0  0  0  0  0  0  0
  -21.1845   -3.4735    0.0000 C   0  0  0  0  0  0  0  0  0  0  0  0
  -23.2585   -6.8571    0.0000 O   0  0  0  0  0  0  0  0  0  0  0  0
  -18.1319   -6.0095    0.0000 O   0  0  0  0  0  0  0  0  0  0  0  0
  -16.9726   -5.0577    0.0000 C   0  0  0  0  0  0  0  0  0  0  0  0
  -17.2173   -3.5778    0.0000 C   0  0  0  0  0  0  0  0  0  0  0  0
  -15.9438   -3.3166    0.0000 C   0  0  0  0  0  0  0  0  0  0  0  0
  -15.1950   -3.5982    0.0000 C   0  0  0  0  0  0  0  0  0  0  0  0
  -15.0645   -4.3875    0.0000 C   0  0  0  0  0  0  0  0  0  0  0  0
  -15.6828   -4.8952    0.0000 C   0  0  0  0  0  0  0  0  0  0  0  0
  -13.0054   -5.1620    0.0000 O   0  0  0  0  0  0  0  0  0  0  0  0
  -13.6440    1.7402    0.0000 S   0  0  0  0  0  0  0  0  0  0  0  0
  -11.4556    0.3400    0.0000 N   0  0  0  0  0  0  0  0  0  0  0  0
  -10.6472    1.6035    0.0000 C   0  0  0  0  0  0  0  0  0  0  0  0
   -9.1487    1.5351    0.0000 C   0  0  0  0  0  0  0  0  0  0  0  0
   -8.3403    2.7986    0.0000 C   0  0  0  0  0  0  0  0  0  0  0  0
   -8.8673    3.3966    0.0000 O   0  0  0  0  0  0  0  0  0  0  0  0
   -6.8418    2.7302    0.0000 N   0  0  0  0  0  0  0  0  0  0  0  0
   -6.0334    3.9937    0.0000 C   0  0  0  0  0  0  0  0  0  0  0  0
   -7.4181    4.5705    0.0000 C   0  0  0  0  0  0  0  0  0  0  0  0
   -8.6099    3.6597    0.0000 C   0  0  0  0  0  0  0  0  0  0  0  0
   -9.9946    4.2364    0.0000 C   0  0  0  0  0  0  0  0  0  0  0  0
  -11.1864    3.3256    0.0000 C   0  0  0  0  0  0  0  0  0  0  0  0
  -10.9936    1.8381    0.0000 C   0  0  0  0  0  0  0  0  0  0  0  0
   -9.6089    1.2613    0.0000 C   0  0  0  0  0  0  0  0  0  0  0  0
   -8.4170    2.1721    0.0000 C   0  0  0  0  0  0  0  0  0  0  0  0
   -4.8416    4.9045    0.0000 C   0  0  0  0  0  0  0  0  0  0  0  0
   -5.2143    6.3574    0.0000 O   0  0  0  0  0  0  0  0  0  0  0  0
   -3.4569    4.3278    0.0000 N   0  0  0  0  0  0  0  0  0  0  0  0
   -2.2651    5.2386    0.0000 C   0  0  0  0  0  0  0  0  0  0  0  0
   -3.3690    6.2541    0.0000 C   0  0  0  0  0  0  0  0  0  0  0  0
   -4.8444    5.9837    0.0000 O   0  0  0  0  0  0  0  0  0  0  0  0
   -0.8336    5.6868    0.0000 C   0  0  0  0  0  0  0  0  0  0  0  0
   -0.6869    7.1796    0.0000 O   0  0  0  0  0  0  0  0  0  0  0  0
    0.2703    4.6712    0.0000 N   0  0  0  0  0  0  0  0  0  0  0  0
    1.7018    5.1195    0.0000 C   0  0  0  0  0  0  0  0  0  0  0  0
    2.3970    6.4486    0.0000 C   0  0  0  0  0  0  0  0  0  0  0  0
    3.5480    7.4106    0.0000 C   0  0  0  0  0  0  0  0  0  0  0  0
    4.9794    7.8588    0.0000 C   0  0  0  0  0  0  0  0  0  0  0  0
    6.4735    7.7251    0.0000 C   0  0  0  0  0  0  0  0  0  0  0  0
    0.6067    6.1446    0.0000 C   0  0  0  0  0  0  0  0  0  0  0  0
    1.5681    3.6254    0.0000 C   0  0  0  0  0  0  0  0  0  0  0  0
    0.1074    3.2845    0.0000 O   0  0  0  0  0  0  0  0  0  0  0  0
    2.0163    2.1940    0.0000 N   0  0  0  0  0  0  0  0  0  0  0  0
    2.9783    1.0430    0.0000 C   0  0  0  0  0  0  0  0  0  0  0  0
    1.5468    0.5948    0.0000 C   0  0  0  0  0  0  0  0  0  0  0  0
    1.2193   -0.8690    0.0000 C   0  0  0  0  0  0  0  0  0  0  0  0
   -0.2122   -1.3173    0.0000 C   0  0  0  0  0  0  0  0  0  0  0  0
    1.4121   -2.3566    0.0000 C   0  0  0  0  0  0  0  0  0  0  0  0
    4.3074    0.3478    0.0000 C   0  0  0  0  0  0  0  0  0  0  0  0
    3.8848   -1.0915    0.0000 O   0  0  0  0  0  0  0  0  0  0  0  0
    5.8014    0.2141    0.0000 N   0  0  0  0  0  0  0  0  0  0  0  0
    7.2860    1.2559    0.0000 C   0  0  0  0  0  0  0  0  0  0  0  0
    7.9759    2.5878    0.0000 C   0  0  0  0  0  0  0  0  0  0  0  0
    9.1754    3.4885    0.0000 C   0  0  0  0  0  0  0  0  0  0  0  0
    7.8611    4.2114    0.0000 C   0  0  0  0  0  0  0  0  0  0  0  0
    7.3189    5.6100    0.0000 N   0  0  0  0  0  0  0  0  0  0  0  0
    7.8026    7.0299    0.0000 C   0  0  0  0  0  0  0  0  0  0  0  0
    9.0858    7.8067    0.0000 C   0  0  0  0  0  0  0  0  0  0  0  0
   10.5681    7.5769    0.0000 C   0  0  0  0  0  0  0  0  0  0  0  0
   11.5559    6.4481    0.0000 C   0  0  0  0  0  0  0  0  0  0  0  0
   11.5870    4.9484    0.0000 C   0  0  0  0  0  0  0  0  0  0  0  0
   10.6469    3.7796    0.0000 C   0  0  0  0  0  0  0  0  0  0  0  0
    7.2423   -0.2435    0.0000 C   0  0  0  0  0  0  0  0  0  0  0  0
    5.9729   -1.0426    0.0000 O   0  0  0  0  0  0  0  0  0  0  0  0
    7.8535   -1.6133    0.0000 N   0  0  0  0  0  0  0  0  0  0  0  0
    8.9985   -2.5823    0.0000 C   0  0  0  0  0  0  0  0  0  0  0  0
    7.6782   -3.2941    0.0000 C   0  0  0  0  0  0  0  0  0  0  0  0
    7.6345   -4.7935    0.0000 C   0  0  0  0  0  0  0  0  0  0  0  0
    6.3142   -5.5054    0.0000 C   0  0  0  0  0  0  0  0  0  0  0  0
    6.2705   -7.0047    0.0000 C   0  0  0  0  0  0  0  0  0  0  0  0
    4.9502   -7.7166    0.0000 N   0  0  0  0  0  0  0  0  0  0  0  0
   10.4506   -2.9585    0.0000 C   0  0  0  0  0  0  0  0  0  0  0  0
   10.4069   -4.4579    0.0000 O   0  0  0  0  0  0  0  0  0  0  0  0
   11.9221   -2.6675    0.0000 N   0  0  0  0  0  0  0  0  0  0  0  0
   13.1216   -1.7668    0.0000 C   0  0  0  0  0  0  0  0  0  0  0  0
   13.8115   -0.4348    0.0000 C   0  0  0  0  0  0  0  0  0  0  0  0
   13.8552    1.0645    0.0000 C   0  0  0  0  0  0  0  0  0  0  0  0
   13.2440    2.4344    0.0000 C   0  0  0  0  0  0  0  0  0  0  0  0
   12.0989    3.4033    0.0000 C   0  0  0  0  0  0  0  0  0  0  0  0
   14.5834   -2.1031    0.0000 C   0  0  0  0  0  0  0  0  0  0  0  0
   13.5218   -3.2124    0.0000 C   0  0  0  0  0  0  0  0  0  0  0  0
   12.6081   -4.4020    0.0000 O   0  0  0  0  0  0  0  0  0  0  0  0
   14.9738   -3.5886    0.0000 N   0  0  0  0  0  0  0  0  0  0  0  0
   15.3740   -5.0342    0.0000 C   0  0  0  0  0  0  0  0  0  0  0  0
   15.2557   -6.5296    0.0000 C   0  0  0  0  0  0  0  0  0  0  0  0
   13.9015   -7.1747    0.0000 C   0  0  0  0  0  0  0  0  0  0  0  0
   13.7831   -8.6700    0.0000 C   0  0  0  0  0  0  0  0  0  0  0  0
   12.4083   -7.3178    0.0000 C   0  0  0  0  0  0  0  0  0  0  0  0
   16.8261   -5.4105    0.0000 C   0  0  0  0  0  0  0  0  0  0  0  0
   17.3995   -6.7965    0.0000 O   0  0  0  0  0  0  0  0  0  0  0  0
   17.8779   -4.3411    0.0000 O   0  0  0  0  0  0  0  0  0  0  0  0
  -12.9153   -2.0930    0.0000 H   0  0  0  0  0  0  0  0  0  0  0  0
  -15.1425    1.8086    0.0000 H   0  0  0  0  0  0  0  0  0  0  0  0
  -18.1394    1.9453    0.0000 H   0  0  0  0  0  0  0  0  0  0  0  0
  -15.0776   -3.1756    0.0000 H   0  0  0  0  0  0  0  0  0  0  0  0
  -20.4506   -7.9132    0.0000 H   0  0  0  0  0  0  0  0  0  0  0  0
  -23.7478   -3.8972    0.0000 H   0  0  0  0  0  0  0  0  0  0  0  0
  -21.4292   -1.9936    0.0000 H   0  0  0  0  0  0  0  0  0  0  0  0
  -24.6625   -6.3290    0.0000 H   0  0  0  0  0  0  0  0  0  0  0  0
  -16.3026   -1.1460    0.0000 H   0  0  0  0  0  0  0  0  0  0  0  0
  -13.3873   -2.3506    0.0000 H   0  0  0  0  0  0  0  0  0  0  0  0
  -15.3240   -7.0657    0.0000 H   0  0  0  0  0  0  0  0  0  0  0  0
  -12.7607   -6.6419    0.0000 H   0  0  0  0  0  0  0  0  0  0  0  0
  -10.7656   -0.9919    0.0000 H   0  0  0  0  0  0  0  0  0  0  0  0
  -12.0318    2.1802    0.0000 H   0  0  0  0  0  0  0  0  0  0  0  0
  -10.3196    3.0673    0.0000 H   0  0  0  0  0  0  0  0  0  0  0  0
   -9.2954    0.0423    0.0000 H   0  0  0  0  0  0  0  0  0  0  0  0
   -7.7640    0.9583    0.0000 H   0  0  0  0  0  0  0  0  0  0  0  0
   -5.9946    1.4924    0.0000 H   0  0  0  0  0  0  0  0  0  0  0  0
   -4.9295    2.9781    0.0000 H   0  0  0  0  0  0  0  0  0  0  0  0
   -8.5220    5.5860    0.0000 H   0  0  0  0  0  0  0  0  0  0  0  0
   -6.6097    5.8340    0.0000 H   0  0  0  0  0  0  0  0  0  0  0  0
  -10.1875    5.7240    0.0000 H   0  0  0  0  0  0  0  0  0  0  0  0
  -12.5711    3.9024    0.0000 H   0  0  0  0  0  0  0  0  0  0  0  0
  -12.1854    0.9273    0.0000 H   0  0  0  0  0  0  0  0  0  0  0  0
   -9.5988   -0.2387    0.0000 H   0  0  0  0  0  0  0  0  0  0  0  0
   -7.1130    1.4309    0.0000 H   0  0  0  0  0  0  0  0  0  0  0  0
   -3.2640    2.8402    0.0000 H   0  0  0  0  0  0  0  0  0  0  0  0
   -1.5751    3.9067    0.0000 H   0  0  0  0  0  0  0  0  0  0  0  0
   -4.0590    7.5860    0.0000 H   0  0  0  0  0  0  0  0  0  0  0  0
   -2.1772    7.1649    0.0000 H   0  0  0  0  0  0  0  0  0  0  0  0
   -5.9044    6.8214    0.0000 H   0  0  0  0  0  0  0  0  0  0  0  0
   -0.2332    3.2583    0.0000 H   0  0  0  0  0  0  0  0  0  0  0  0
    1.9488    7.8801    0.0000 H   0  0  0  0  0  0  0  0  0  0  0  0
    0.9304    6.7634    0.0000 H   0  0  0  0  0  0  0  0  0  0  0  0
    3.4985    8.9097    0.0000 H   0  0  0  0  0  0  0  0  0  0  0  0
    2.3135    8.2626    0.0000 H   0  0  0  0  0  0  0  0  0  0  0  0
    5.6747    9.1879    0.0000 H   0  0  0  0  0  0  0  0  0  0  0  0
    4.1650    9.1184    0.0000 H   0  0  0  0  0  0  0  0  0  0  0  0
    6.8960    9.1644    0.0000 H   0  0  0  0  0  0  0  0  0  0  0  0
   -0.7298    6.3421    0.0000 H   0  0  0  0  0  0  0  0  0  0  0  0
    0.4197    7.7155    0.0000 H   0  0  0  0  0  0  0  0  0  0  0  0
    1.6321    7.4737    0.0000 H   0  0  0  0  0  0  0  0  0  0  0  0
    0.6220    1.6409    0.0000 H   0  0  0  0  0  0  0  0  0  0  0  0
    3.0277   -0.4562    0.0000 H   0  0  0  0  0  0  0  0  0  0  0  0
    0.0679    0.8453    0.0000 H   0  0  0  0  0  0  0  0  0  0  0  0
    0.8336    1.9144    0.0000 H   0  0  0  0  0  0  0  0  0  0  0  0
    2.6982   -1.1195    0.0000 H   0  0  0  0  0  0  0  0  0  0  0  0
   -0.7157   -2.7302    0.0000 H   0  0  0  0  0  0  0  0  0  0  0  0
   -1.7106   -1.2489    0.0000 H   0  0  0  0  0  0  0  0  0  0  0  0
   -0.5849    0.1357    0.0000 H   0  0  0  0  0  0  0  0  0  0  0  0
    0.3402   -3.4059    0.0000 H   0  0  0  0  0  0  0  0  0  0  0  0
    2.1021   -3.6884    0.0000 H   0  0  0  0  0  0  0  0  0  0  0  0
    2.8436   -1.9083    0.0000 H   0  0  0  0  0  0  0  0  0  0  0  0
    5.7788   -1.2857    0.0000 H   0  0  0  0  0  0  0  0  0  0  0  0
    5.8340    1.6321    0.0000 H   0  0  0  0  0  0  0  0  0  0  0  0
    7.2378    3.8937    0.0000 H   0  0  0  0  0  0  0  0  0  0  0  0
    6.4762    2.5604    0.0000 H   0  0  0  0  0  0  0  0  0  0  0  0
    6.6203    3.3686    0.0000 H   0  0  0  0  0  0  0  0  0  0  0  0
    5.8193    5.5789    0.0000 H   0  0  0  0  0  0  0  0  0  0  0  0
    8.7948    9.2782    0.0000 H   0  0  0  0  0  0  0  0  0  0  0  0
   11.2910    8.8912    0.0000 H   0  0  0  0  0  0  0  0  0  0  0  0
   12.9545    6.9902    0.0000 H   0  0  0  0  0  0  0  0  0  0  0  0
   13.0553    4.6414    0.0000 H   0  0  0  0  0  0  0  0  0  0  0  0
    6.5532   -2.3611    0.0000 H   0  0  0  0  0  0  0  0  0  0  0  0
    9.3590   -4.0383    0.0000 H   0  0  0  0  0  0  0  0  0  0  0  0
    6.1786   -3.3289    0.0000 H   0  0  0  0  0  0  0  0  0  0  0  0
    6.7274   -2.1340    0.0000 H   0  0  0  0  0  0  0  0  0  0  0  0
    8.2764   -6.1493    0.0000 H   0  0  0  0  0  0  0  0  0  0  0  0
    9.1341   -4.7587    0.0000 H   0  0  0  0  0  0  0  0  0  0  0  0
    4.8146   -5.5402    0.0000 H   0  0  0  0  0  0  0  0  0  0  0  0
    5.6724   -4.1496    0.0000 H   0  0  0  0  0  0  0  0  0  0  0  0
    6.7423   -8.4286    0.0000 H   0  0  0  0  0  0  0  0  0  0  0  0
    7.7701   -6.9699    0.0000 H   0  0  0  0  0  0  0  0  0  0  0  0
    4.9065   -9.2159    0.0000 H   0  0  0  0  0  0  0  0  0  0  0  0
    3.4660   -7.9339    0.0000 H   0  0  0  0  0  0  0  0  0  0  0  0
    4.3084   -6.3608    0.0000 H   0  0  0  0  0  0  0  0  0  0  0  0
   12.3617   -4.1016    0.0000 H   0  0  0  0  0  0  0  0  0  0  0  0
   14.9295   -1.4348    0.0000 H   0  0  0  0  0  0  0  0  0  0  0  0
   15.2232    0.0723    0.0000 H   0  0  0  0  0  0  0  0  0  0  0  0
   15.2964    0.6487    0.0000 H   0  0  0  0  0  0  0  0  0  0  0  0
   15.0295    1.9977    0.0000 H   0  0  0  0  0  0  0  0  0  0  0  0
   14.7229    2.6850    0.0000 H   0  0  0  0  0  0  0  0  0  0  0  0
   13.7276    3.8542    0.0000 H   0  0  0  0  0  0  0  0  0  0  0  0
   12.9461    4.6412    0.0000 H   0  0  0  0  0  0  0  0  0  0  0  0
   15.4934   -3.1017    0.0000 H   0  0  0  0  0  0  0  0  0  0  0  0
   16.0686   -1.5583    0.0000 H   0  0  0  0  0  0  0  0  0  0  0  0
   15.1138   -0.5104    0.0000 H   0  0  0  0  0  0  0  0  0  0  0  0
   16.0257   -2.5192    0.0000 H   0  0  0  0  0  0  0  0  0  0  0  0
   13.8746   -4.9943    0.0000 H   0  0  0  0  0  0  0  0  0  0  0  0
   15.8291   -7.9156    0.0000 H   0  0  0  0  0  0  0  0  0  0  0  0
   16.7551   -6.5695    0.0000 H   0  0  0  0  0  0  0  0  0  0  0  0
   13.3281   -5.7887    0.0000 H   0  0  0  0  0  0  0  0  0  0  0  0
   12.5177   -9.4755    0.0000 H   0  0  0  0  0  0  0  0  0  0  0  0
   14.1833  -10.1157    0.0000 H   0  0  0  0  0  0  0  0  0  0  0  0
   15.2826   -8.7100    0.0000 H   0  0  0  0  0  0  0  0  0  0  0  0
   11.6240   -8.5964    0.0000 H   0  0  0  0  0  0  0  0  0  0  0  0
   10.9563   -6.9416    0.0000 H   0  0  0  0  0  0  0  0  0  0  0  0
   12.5267   -5.8225    0.0000 H   0  0  0  0  0  0  0  0  0  0  0  0
  1  2  1  0
  2  3  1  0
  3  4  2  0
  4  5  1  0
  5  6  2  0
  6  7  1  0
  7  8  2  0
  7  9  1  0
  9 10  1  0
 10 11  1  0
 11 12  2  0
  9 13  1  0
 13 14  1  0
 14 15  2  0
 15 16  1  0
 16 17  2  0
 17 18  1  0
 16 19  1  0
 14 20  1  0
 20 21  1  0
 21 22  2  0
 22 23  1  0
 23 24  2  0
 24 25  1  0
 25 26  2  0
 25 27  1  0
  1 28  2  0
  1 29  1  0
 29 30  1  0
 30 31  1  0
 31 32  1  0
 32 33  2  0
 32 34  1  0
 34 35  1  0
 35 36  1  0
 36 37  1  0
 37 38  2  0
 38 39  1  0
 39 40  2  0
 40 41  1  0
 41 42  2  0
 35 43  1  0
 43 44  2  0
 43 45  1  0
 45 46  1  0
 46 47  1  0
 47 48  1  0
 46 49  1  0
 49 50  2  0
 49 51  1  0
 52 51  1  1
 52 53  1  0
 53 54  1  0
 54 55  1  0
 55 56  1  0
 52 57  1  0
 52 58  1  0
 58 59  2  0
 58 60  1  0
 60 61  1  0
 61 62  1  0
 62 63  1  0
 63 64  1  0
 63 65  1  0
 61 66  1  0
 66 67  2  0
 66 68  1  0
 68 69  1  0
 69 70  1  0
 70 71  1  0
 71 72  2  0
 72 73  1  0
 73 74  1  0
 74 75  1  0
 75 76  2  0
 76 77  1  0
 77 78  2  0
 78 79  1  0
 69 80  1  0
 80 81  2  0
 80 82  1  0
 82 83  1  0
 83 84  1  0
 84 85  1  0
 85 86  1  0
 86 87  1  0
 87 88  1  0
 83 89  1  0
 89 90  2  0
 89 91  1  0
 91 92  1  0
 92 93  1  0
 93 94  1  0
 94 95  1  0
 95 96  1  0
 92 97  1  0
 92 98  1  1
 98 99  2  0
 98100  1  0
100101  1  0
101102  1  0
102103  1  0
103104  1  0
103105  1  0
101106  1  0
106107  2  0
106108  1  0
  8  3  1  0
 42 37  1  0
 79 71  1  0
 11  6  1  0
 56 74  2  0
 96 79  2  0
 18 13  2  0
 22  9  1  0
 26 21  1  0
  2109  1  0
  4110  1  0
  5111  1  0
  8112  1  0
 15113  1  0
 17114  1  0
 18115  1  0
 19116  1  0
 23117  1  0
 24118  1  0
 26119  1  0
 27120  1  0
 29121  1  0
 30122  1  0
 30123  1  0
 31124  1  0
 31125  1  0
 34126  1  0
 35127  1  1
 36128  1  0
 36129  1  0
 38130  1  0
 39131  1  0
 40132  1  0
 41133  1  0
 42134  1  0
 45135  1  0
 46136  1  1
 47137  1  0
 47138  1  0
 48139  1  0
 51140  1  0
 53141  1  0
 53142  1  0
 54143  1  0
 54144  1  0
 55145  1  0
 55146  1  0
 56147  1  0
 57148  1  0
 57149  1  0
 57150  1  0
 60151  1  0
 61152  1  6
 62153  1  0
 62154  1  0
 63155  1  0
 64156  1  0
 64157  1  0
 64158  1  0
 65159  1  0
 65160  1  0
 65161  1  0
 68162  1  0
 69163  1  1
 70164  1  0
 70165  1  0
 72166  1  0
 73167  1  0
 75168  1  0
 76169  1  0
 77170  1  0
 78171  1  0
 82172  1  0
 83173  1  6
 84174  1  0
 84175  1  0
 85176  1  0
 85177  1  0
 86178  1  0
 86179  1  0
 87180  1  0
 87181  1  0
 88182  1  0
 88183  1  0
 88184  1  0
 91185  1  0
 93186  1  0
 93187  1  0
 94188  1  0
 94189  1  0
 95190  1  0
 95191  1  0
 96192  1  0
 97193  1  0
 97194  1  0
 97195  1  0
100196  1  0
101197  1  6
102198  1  0
102199  1  0
103200  1  0
104201  1  0
104202  1  0
104203  1  0
105204  1  0
105205  1  0
105206  1  0
M  CHG  2  88   1 108  -1
M  END
