
     RDKit          2D

307311  0  0  0  0  0  0  0  0999 V2000
  -26.5474    0.8437    0.0000 N   0  0  0  0  0  0  0  0  0  0  0  0
  -25.1250    1.3197    0.0000 C   0  0  0  0  0  0  0  0  0  0  0  0
  -24.0015    0.3258    0.0000 C   0  0  0  0  0  0  0  0  0  0  0  0
  -22.5790    0.8018    0.0000 C   0  0  0  0  0  0  0  0  0  0  0  0
  -22.4614    2.2972    0.0000 O   0  0  0  0  0  0  0  0  0  0  0  0
  -21.4555   -0.1921    0.0000 N   0  0  0  0  0  0  0  0  0  0  0  0
  -20.0331    0.2840    0.0000 C   0  0  0  0  0  0  0  0  0  0  0  0
  -20.7489    1.6021    0.0000 C   0  0  0  0  0  0  0  0  0  0  0  0
  -19.9652    2.8811    0.0000 C   0  0  0  0  0  0  0  0  0  0  0  0
  -20.6810    4.1993    0.0000 C   0  0  0  0  0  0  0  0  0  0  0  0
  -18.7913    3.8150    0.0000 C   0  0  0  0  0  0  0  0  0  0  0  0
  -18.5336    0.2448    0.0000 C   0  0  0  0  0  0  0  0  0  0  0  0
  -17.9117    1.6097    0.0000 O   0  0  0  0  0  0  0  0  0  0  0  0
  -17.8178   -1.0734    0.0000 N   0  0  0  0  0  0  0  0  0  0  0  0
  -16.3183   -1.1126    0.0000 C   0  0  0  0  0  0  0  0  0  0  0  0
  -16.5401    0.3709    0.0000 C   0  0  0  0  0  0  0  0  0  0  0  0
  -15.3662    1.3047    0.0000 O   0  0  0  0  0  0  0  0  0  0  0  0
  -14.9227   -1.6623    0.0000 C   0  0  0  0  0  0  0  0  0  0  0  0
  -13.7488   -0.7285    0.0000 O   0  0  0  0  0  0  0  0  0  0  0  0
  -14.7009   -3.1458    0.0000 N   0  0  0  0  0  0  0  0  0  0  0  0
  -13.3052   -3.6955    0.0000 C   0  0  0  0  0  0  0  0  0  0  0  0
  -14.0889   -4.9745    0.0000 C   0  0  0  0  0  0  0  0  0  0  0  0
  -15.5884   -4.9353    0.0000 C   0  0  0  0  0  0  0  0  0  0  0  0
  -16.3721   -6.2143    0.0000 C   0  0  0  0  0  0  0  0  0  0  0  0
  -17.8716   -6.1751    0.0000 N   0  0  0  0  0  0  0  0  0  0  0  0
  -15.6563   -7.5325    0.0000 O   0  0  0  0  0  0  0  0  0  0  0  0
  -11.8057   -3.7347    0.0000 C   0  0  0  0  0  0  0  0  0  0  0  0
  -11.2560   -5.1303    0.0000 O   0  0  0  0  0  0  0  0  0  0  0  0
  -11.0221   -2.4557    0.0000 N   0  0  0  0  0  0  0  0  0  0  0  0
   -9.5226   -2.4949    0.0000 C   0  0  0  0  0  0  0  0  0  0  0  0
   -8.5598   -3.6452    0.0000 C   0  0  0  0  0  0  0  0  0  0  0  0
   -7.3007   -4.4605    0.0000 C   0  0  0  0  0  0  0  0  0  0  0  0
   -5.8573   -4.8685    0.0000 C   0  0  0  0  0  0  0  0  0  0  0  0
   -4.3577   -4.8329    0.0000 C   0  0  0  0  0  0  0  0  0  0  0  0
  -10.3348   -3.7560    0.0000 C   0  0  0  0  0  0  0  0  0  0  0  0
  -10.1036   -1.1120    0.0000 C   0  0  0  0  0  0  0  0  0  0  0  0
  -11.5917   -1.3004    0.0000 O   0  0  0  0  0  0  0  0  0  0  0  0
  -10.2511    0.3807    0.0000 N   0  0  0  0  0  0  0  0  0  0  0  0
   -9.9521    1.8506    0.0000 C   0  0  0  0  0  0  0  0  0  0  0  0
  -11.4149    1.5186    0.0000 C   0  0  0  0  0  0  0  0  0  0  0  0
  -12.6759    0.7063    0.0000 O   0  0  0  0  0  0  0  0  0  0  0  0
  -12.4339    2.6194    0.0000 C   0  0  0  0  0  0  0  0  0  0  0  0
   -9.2332    3.1671    0.0000 C   0  0  0  0  0  0  0  0  0  0  0  0
  -10.4278    4.0742    0.0000 O   0  0  0  0  0  0  0  0  0  0  0  0
   -8.1581    4.2131    0.0000 N   0  0  0  0  0  0  0  0  0  0  0  0
   -6.8225    4.8958    0.0000 C   0  0  0  0  0  0  0  0  0  0  0  0
   -7.9941    5.8325    0.0000 C   0  0  0  0  0  0  0  0  0  0  0  0
   -7.7687    7.3155    0.0000 C   0  0  0  0  0  0  0  0  0  0  0  0
   -6.3718    7.8618    0.0000 C   0  0  0  0  0  0  0  0  0  0  0  0
   -6.1464    9.3448    0.0000 C   0  0  0  0  0  0  0  0  0  0  0  0
   -7.3181   10.2814    0.0000 C   0  0  0  0  0  0  0  0  0  0  0  0
   -8.7150    9.7351    0.0000 C   0  0  0  0  0  0  0  0  0  0  0  0
   -8.9404    8.2521    0.0000 C   0  0  0  0  0  0  0  0  0  0  0  0
   -5.3449    5.1545    0.0000 C   0  0  0  0  0  0  0  0  0  0  0  0
   -5.1975    6.6473    0.0000 O   0  0  0  0  0  0  0  0  0  0  0  0
   -3.8568    4.9662    0.0000 N   0  0  0  0  0  0  0  0  0  0  0  0
   -2.4903    4.3477    0.0000 C   0  0  0  0  0  0  0  0  0  0  0  0
   -2.4885    5.8477    0.0000 C   0  0  0  0  0  0  0  0  0  0  0  0
   -3.6853    6.7519    0.0000 O   0  0  0  0  0  0  0  0  0  0  0  0
   -1.3668    3.3538    0.0000 C   0  0  0  0  0  0  0  0  0  0  0  0
   -0.8034    4.7439    0.0000 O   0  0  0  0  0  0  0  0  0  0  0  0
   -0.5862    2.0729    0.0000 N   0  0  0  0  0  0  0  0  0  0  0  0
   -0.2178    0.6189    0.0000 C   0  0  0  0  0  0  0  0  0  0  0  0
   -0.2944   -0.8792    0.0000 C   0  0  0  0  0  0  0  0  0  0  0  0
   -0.8091   -2.2881    0.0000 C   0  0  0  0  0  0  0  0  0  0  0  0
   -1.7163   -3.4827    0.0000 C   0  0  0  0  0  0  0  0  0  0  0  0
   -2.9352   -4.3569    0.0000 C   0  0  0  0  0  0  0  0  0  0  0  0
    0.4742    2.0546    0.0000 C   0  0  0  0  0  0  0  0  0  0  0  0
    0.7285    3.3977    0.0000 C   0  0  0  0  0  0  0  0  0  0  0  0
    1.2323    4.6684    0.0000 C   0  0  0  0  0  0  0  0  0  0  0  0
    1.9674    5.8208    0.0000 C   0  0  0  0  0  0  0  0  0  0  0  0
    0.7419   -0.6536    0.0000 C   0  0  0  0  0  0  0  0  0  0  0  0
   -1.3669   -1.2805    0.0000 O   0  0  0  0  0  0  0  0  0  0  0  0
    1.2542   -1.9209    0.0000 N   0  0  0  0  0  0  0  0  0  0  0  0
    1.9970   -3.0684    0.0000 C   0  0  0  0  0  0  0  0  0  0  0  0
    0.9399   -4.9142    0.0000 C   0  0  0  0  0  0  0  0  0  0  0  0
    1.9079   -6.0600    0.0000 C   0  0  0  0  0  0  0  0  0  0  0  0
    1.3996   -7.4713    0.0000 C   0  0  0  0  0  0  0  0  0  0  0  0
    2.9903   -7.0985    0.0000 C   0  0  0  0  0  0  0  0  0  0  0  0
    2.9436   -4.0545    0.0000 C   0  0  0  0  0  0  0  0  0  0  0  0
    2.2016   -5.2817    0.0000 O   0  0  0  0  0  0  0  0  0  0  0  0
    4.0597   -4.8437    0.0000 N   0  0  0  0  0  0  0  0  0  0  0  0
    5.3050   -5.4074    0.0000 C   0  0  0  0  0  0  0  0  0  0  0  0
    5.4136   -7.5317    0.0000 C   0  0  0  0  0  0  0  0  0  0  0  0
    4.3151   -8.5531    0.0000 C   0  0  0  0  0  0  0  0  0  0  0  0
    2.8431   -8.2648    0.0000 C   0  0  0  0  0  0  0  0  0  0  0  0
    2.1140   -9.5757    0.0000 N   0  0  0  0  0  0  0  0  0  0  0  0
    3.1354  -10.6742    0.0000 C   0  0  0  0  0  0  0  0  0  0  0  0
    3.0025  -12.1683    0.0000 C   0  0  0  0  0  0  0  0  0  0  0  0
    4.2300  -13.0304    0.0000 C   0  0  0  0  0  0  0  0  0  0  0  0
    5.5904  -12.3984    0.0000 C   0  0  0  0  0  0  0  0  0  0  0  0
    5.7233  -10.9043    0.0000 C   0  0  0  0  0  0  0  0  0  0  0  0
    4.4958  -10.0422    0.0000 C   0  0  0  0  0  0  0  0  0  0  0  0
    6.6345   -5.7253    0.0000 C   0  0  0  0  0  0  0  0  0  0  0  0
    6.5112   -7.9182    0.0000 O   0  0  0  0  0  0  0  0  0  0  0  0
    8.0000   -5.7857    0.0000 N   0  0  0  0  0  0  0  0  0  0  0  0
    9.3524   -5.5867    0.0000 C   0  0  0  0  0  0  0  0  0  0  0  0
   10.5922   -7.3151    0.0000 C   0  0  0  0  0  0  0  0  0  0  0  0
   10.2203   -8.7682    0.0000 C   0  0  0  0  0  0  0  0  0  0  0  0
   11.2929   -9.8169    0.0000 C   0  0  0  0  0  0  0  0  0  0  0  0
   10.9210  -11.2701    0.0000 C   0  0  0  0  0  0  0  0  0  0  0  0
   11.9935  -12.3187    0.0000 N   0  0  0  0  0  0  0  0  0  0  0  0
   10.6426   -5.1353    0.0000 C   0  0  0  0  0  0  0  0  0  0  0  0
   11.7246   -7.0468    0.0000 O   0  0  0  0  0  0  0  0  0  0  0  0
   11.8241   -4.4479    0.0000 N   0  0  0  0  0  0  0  0  0  0  0  0
   12.8542   -3.5493    0.0000 C   0  0  0  0  0  0  0  0  0  0  0  0
   14.8316   -4.3330    0.0000 C   0  0  0  0  0  0  0  0  0  0  0  0
   15.3044   -5.7566    0.0000 C   0  0  0  0  0  0  0  0  0  0  0  0
   16.7737   -6.0589    0.0000 C   0  0  0  0  0  0  0  0  0  0  0  0
   15.2618   -7.2560    0.0000 C   0  0  0  0  0  0  0  0  0  0  0  0
   13.6956   -2.4721    0.0000 C   0  0  0  0  0  0  0  0  0  0  0  0
   15.6392   -3.4951    0.0000 O   0  0  0  0  0  0  0  0  0  0  0  0
   14.3179   -1.2550    0.0000 N   0  0  0  0  0  0  0  0  0  0  0  0
   14.6986    0.0578    0.0000 C   0  0  0  0  0  0  0  0  0  0  0  0
   16.7859    0.4676    0.0000 C   0  0  0  0  0  0  0  0  0  0  0  0
   17.9532   -0.4743    0.0000 C   0  0  0  0  0  0  0  0  0  0  0  0
   19.3526    0.0657    0.0000 C   0  0  0  0  0  0  0  0  0  0  0  0
   18.7280   -1.7587    0.0000 C   0  0  0  0  0  0  0  0  0  0  0  0
   14.8240    1.4190    0.0000 C   0  0  0  0  0  0  0  0  0  0  0  0
   17.0122    1.6091    0.0000 O   0  0  0  0  0  0  0  0  0  0  0  0
   14.6896    2.7793    0.0000 N   0  0  0  0  0  0  0  0  0  0  0  0
   14.3001    4.0895    0.0000 C   0  0  0  0  0  0  0  0  0  0  0  0
   15.8344    5.5627    0.0000 C   0  0  0  0  0  0  0  0  0  0  0  0
   13.6697    5.3024    0.0000 C   0  0  0  0  0  0  0  0  0  0  0  0
   15.4077    6.6454    0.0000 O   0  0  0  0  0  0  0  0  0  0  0  0
   12.8211    6.3740    0.0000 N   0  0  0  0  0  0  0  0  0  0  0  0
   11.7851    7.2657    0.0000 C   0  0  0  0  0  0  0  0  0  0  0  0
   10.5991    7.9453    0.0000 C   0  0  0  0  0  0  0  0  0  0  0  0
    9.3058    8.3880    0.0000 C   0  0  0  0  0  0  0  0  0  0  0  0
    7.9522    8.5781    0.0000 C   0  0  0  0  0  0  0  0  0  0  0  0
    6.5870    8.5085    0.0000 C   0  0  0  0  0  0  0  0  0  0  0  0
    5.2597    8.1818    0.0000 C   0  0  0  0  0  0  0  0  0  0  0  0
    4.0182    7.6098    0.0000 C   0  0  0  0  0  0  0  0  0  0  0  0
    2.9074    6.8132    0.0000 C   0  0  0  0  0  0  0  0  0  0  0  0
   13.5708    8.4214    0.0000 C   0  0  0  0  0  0  0  0  0  0  0  0
   12.2794    9.3346    0.0000 C   0  0  0  0  0  0  0  0  0  0  0  0
   11.2650   10.4396    0.0000 O   0  0  0  0  0  0  0  0  0  0  0  0
   13.6212   10.0052    0.0000 N   0  0  0  0  0  0  0  0  0  0  0  0
   13.7113   11.5024    0.0000 C   0  0  0  0  0  0  0  0  0  0  0  0
   13.2839   12.9403    0.0000 C   0  0  0  0  0  0  0  0  0  0  0  0
   14.3154   14.0293    0.0000 C   0  0  0  0  0  0  0  0  0  0  0  0
   13.8880   15.4671    0.0000 N   0  0  0  0  0  0  0  0  0  0  0  0
   15.1075   13.9398    0.0000 O   0  0  0  0  0  0  0  0  0  0  0  0
   15.0531   12.1730    0.0000 C   0  0  0  0  0  0  0  0  0  0  0  0
   15.1976   12.9570    0.0000 O   0  0  0  0  0  0  0  0  0  0  0  0
   16.3047   11.3463    0.0000 O   0  0  0  0  0  0  0  0  0  0  0  0
  -27.6709    1.8375    0.0000 H   0  0  0  0  0  0  0  0  0  0  0  0
  -26.8464   -0.6262    0.0000 H   0  0  0  0  0  0  0  0  0  0  0  0
  -25.8408    2.6379    0.0000 H   0  0  0  0  0  0  0  0  0  0  0  0
  -23.9511    2.2535    0.0000 H   0  0  0  0  0  0  0  0  0  0  0  0
  -25.1754   -0.6080    0.0000 H   0  0  0  0  0  0  0  0  0  0  0  0
  -23.2857   -0.9924    0.0000 H   0  0  0  0  0  0  0  0  0  0  0  0
  -21.7545   -1.6620    0.0000 H   0  0  0  0  0  0  0  0  0  0  0  0
  -19.8113   -1.1996    0.0000 H   0  0  0  0  0  0  0  0  0  0  0  0
  -21.8724    2.5960    0.0000 H   0  0  0  0  0  0  0  0  0  0  0  0
  -22.1138    0.9801    0.0000 H   0  0  0  0  0  0  0  0  0  0  0  0
  -18.8417    1.8873    0.0000 H   0  0  0  0  0  0  0  0  0  0  0  0
  -20.0590    5.5643    0.0000 H   0  0  0  0  0  0  0  0  0  0  0  0
  -21.8045    5.1932    0.0000 H   0  0  0  0  0  0  0  0  0  0  0  0
  -21.9599    3.4156    0.0000 H   0  0  0  0  0  0  0  0  0  0  0  0
  -18.8306    5.3145    0.0000 H   0  0  0  0  0  0  0  0  0  0  0  0
  -17.3689    4.2910    0.0000 H   0  0  0  0  0  0  0  0  0  0  0  0
  -18.0755    2.4968    0.0000 H   0  0  0  0  0  0  0  0  0  0  0  0
  -18.6015   -2.3524    0.0000 H   0  0  0  0  0  0  0  0  0  0  0  0
  -16.6173   -2.5825    0.0000 H   0  0  0  0  0  0  0  0  0  0  0  0
  -17.0899    1.7665    0.0000 H   0  0  0  0  0  0  0  0  0  0  0  0
  -18.0355    0.2532    0.0000 H   0  0  0  0  0  0  0  0  0  0  0  0
  -15.5880    2.7882    0.0000 H   0  0  0  0  0  0  0  0  0  0  0  0
  -15.9798   -3.9296    0.0000 H   0  0  0  0  0  0  0  0  0  0  0  0
  -13.0062   -2.2256    0.0000 H   0  0  0  0  0  0  0  0  0  0  0  0
  -14.3879   -6.4444    0.0000 H   0  0  0  0  0  0  0  0  0  0  0  0
  -12.6933   -5.5242    0.0000 H   0  0  0  0  0  0  0  0  0  0  0  0
  -16.9841   -4.3856    0.0000 H   0  0  0  0  0  0  0  0  0  0  0  0
  -15.8362   -3.4559    0.0000 H   0  0  0  0  0  0  0  0  0  0  0  0
  -18.6553   -7.4541    0.0000 H   0  0  0  0  0  0  0  0  0  0  0  0
  -18.5874   -4.8569    0.0000 H   0  0  0  0  0  0  0  0  0  0  0  0
  -11.8932   -1.2346    0.0000 H   0  0  0  0  0  0  0  0  0  0  0  0
   -8.7851   -5.1281    0.0000 H   0  0  0  0  0  0  0  0  0  0  0  0
   -9.9441   -4.2227    0.0000 H   0  0  0  0  0  0  0  0  0  0  0  0
   -7.2614   -5.9600    0.0000 H   0  0  0  0  0  0  0  0  0  0  0  0
   -8.4533   -5.4205    0.0000 H   0  0  0  0  0  0  0  0  0  0  0  0
   -5.2081   -6.2207    0.0000 H   0  0  0  0  0  0  0  0  0  0  0  0
   -6.6757   -6.1255    0.0000 H   0  0  0  0  0  0  0  0  0  0  0  0
   -4.0990   -6.3104    0.0000 H   0  0  0  0  0  0  0  0  0  0  0  0
  -11.5829   -4.2733    0.0000 H   0  0  0  0  0  0  0  0  0  0  0  0
  -10.1334   -5.3251    0.0000 H   0  0  0  0  0  0  0  0  0  0  0  0
   -9.0165   -4.7952    0.0000 H   0  0  0  0  0  0  0  0  0  0  0  0
  -11.7492    0.4573    0.0000 H   0  0  0  0  0  0  0  0  0  0  0  0
  -10.7038    3.1487    0.0000 H   0  0  0  0  0  0  0  0  0  0  0  0
  -11.1858    0.0362    0.0000 H   0  0  0  0  0  0  0  0  0  0  0  0
  -14.0836    1.2245    0.0000 H   0  0  0  0  0  0  0  0  0  0  0  0
  -13.9262    2.4681    0.0000 H   0  0  0  0  0  0  0  0  0  0  0  0
  -13.0148    4.0023    0.0000 H   0  0  0  0  0  0  0  0  0  0  0  0
  -11.2813    3.5793    0.0000 H   0  0  0  0  0  0  0  0  0  0  0  0
   -9.0323    5.4321    0.0000 H   0  0  0  0  0  0  0  0  0  0  0  0
   -6.4506    6.3490    0.0000 H   0  0  0  0  0  0  0  0  0  0  0  0
   -9.4154    6.3119    0.0000 H   0  0  0  0  0  0  0  0  0  0  0  0
   -9.0102    4.7291    0.0000 H   0  0  0  0  0  0  0  0  0  0  0  0
   -5.0947    7.0750    0.0000 H   0  0  0  0  0  0  0  0  0  0  0  0
   -4.7495    9.8911    0.0000 H   0  0  0  0  0  0  0  0  0  0  0  0
   -7.0927   11.7644    0.0000 H   0  0  0  0  0  0  0  0  0  0  0  0
   -9.8866   10.6717    0.0000 H   0  0  0  0  0  0  0  0  0  0  0  0
  -10.3373    7.7058    0.0000 H   0  0  0  0  0  0  0  0  0  0  0  0
   -3.6278    6.4487    0.0000 H   0  0  0  0  0  0  0  0  0  0  0  0
   -1.2075    5.1251    0.0000 H   0  0  0  0  0  0  0  0  0  0  0  0
   -1.9738    7.2566    0.0000 H   0  0  0  0  0  0  0  0  0  0  0  0
   -0.9906    5.7674    0.0000 H   0  0  0  0  0  0  0  0  0  0  0  0
   -3.7848    8.0992    0.0000 H   0  0  0  0  0  0  0  0  0  0  0  0
    0.7967    2.6539    0.0000 H   0  0  0  0  0  0  0  0  0  0  0  0
    1.1026   -0.3329    0.0000 H   0  0  0  0  0  0  0  0  0  0  0  0
    0.6423   -2.0508    0.0000 H   0  0  0  0  0  0  0  0  0  0  0  0
    0.6270   -2.7214    0.0000 H   0  0  0  0  0  0  0  0  0  0  0  0
   -0.4336   -3.7403    0.0000 H   0  0  0  0  0  0  0  0  0  0  0  0
   -0.4717   -4.3200    0.0000 H   0  0  0  0  0  0  0  0  0  0  0  0
   -1.4208   -4.9533    0.0000 H   0  0  0  0  0  0  0  0  0  0  0  0
   -2.2525   -5.6925    0.0000 H   0  0  0  0  0  0  0  0  0  0  0  0
   -1.5646    1.4483    0.0000 H   0  0  0  0  0  0  0  0  0  0  0  0
   -1.3003    3.1624    0.0000 H   0  0  0  0  0  0  0  0  0  0  0  0
   -1.4373    3.7328    0.0000 H   0  0  0  0  0  0  0  0  0  0  0  0
   -0.6482    4.9170    0.0000 H   0  0  0  0  0  0  0  0  0  0  0  0
   -0.8714    5.2286    0.0000 H   0  0  0  0  0  0  0  0  0  0  0  0
   -0.1658    6.2715    0.0000 H   0  0  0  0  0  0  0  0  0  0  0  0
    0.2336    7.1750    0.0000 H   0  0  0  0  0  0  0  0  0  0  0  0
   -0.3615   -3.3667    0.0000 H   0  0  0  0  0  0  0  0  0  0  0  0
   -0.0100   -3.8545    0.0000 H   0  0  0  0  0  0  0  0  0  0  0  0
   -0.1537   -5.9408    0.0000 H   0  0  0  0  0  0  0  0  0  0  0  0
   -0.5424   -4.6846    0.0000 H   0  0  0  0  0  0  0  0  0  0  0  0
    3.1186   -5.1744    0.0000 H   0  0  0  0  0  0  0  0  0  0  0  0
    1.8926   -8.8880    0.0000 H   0  0  0  0  0  0  0  0  0  0  0  0
    0.4392   -8.6235    0.0000 H   0  0  0  0  0  0  0  0  0  0  0  0
    0.0169   -6.8898    0.0000 H   0  0  0  0  0  0  0  0  0  0  0  0
    3.0316   -8.2951    0.0000 H   0  0  0  0  0  0  0  0  0  0  0  0
    4.6794   -7.2684    0.0000 H   0  0  0  0  0  0  0  0  0  0  0  0
    4.0442   -5.5594    0.0000 H   0  0  0  0  0  0  0  0  0  0  0  0
    2.9661   -6.7526    0.0000 H   0  0  0  0  0  0  0  0  0  0  0  0
    4.1815   -7.2721    0.0000 H   0  0  0  0  0  0  0  0  0  0  0  0
    6.0692   -8.8809    0.0000 H   0  0  0  0  0  0  0  0  0  0  0  0
    6.8955   -7.2993    0.0000 H   0  0  0  0  0  0  0  0  0  0  0  0
    2.0500   -6.9916    0.0000 H   0  0  0  0  0  0  0  0  0  0  0  0
    0.6249   -9.7564    0.0000 H   0  0  0  0  0  0  0  0  0  0  0  0
    1.6422  -12.8003    0.0000 H   0  0  0  0  0  0  0  0  0  0  0  0
    4.0972  -14.5245    0.0000 H   0  0  0  0  0  0  0  0  0  0  0  0
    6.8179  -13.2606    0.0000 H   0  0  0  0  0  0  0  0  0  0  0  0
    7.0836  -10.2724    0.0000 H   0  0  0  0  0  0  0  0  0  0  0  0
    7.9289   -7.9810    0.0000 H   0  0  0  0  0  0  0  0  0  0  0  0
    8.8859   -7.6260    0.0000 H   0  0  0  0  0  0  0  0  0  0  0  0
   11.9587   -7.9336    0.0000 H   0  0  0  0  0  0  0  0  0  0  0  0
   11.7132   -6.3183    0.0000 H   0  0  0  0  0  0  0  0  0  0  0  0
    9.2292   -9.8942    0.0000 H   0  0  0  0  0  0  0  0  0  0  0  0
    8.7448   -8.4987    0.0000 H   0  0  0  0  0  0  0  0  0  0  0  0
   12.7246  -10.2643    0.0000 H   0  0  0  0  0  0  0  0  0  0  0  0
   12.2840   -8.6910    0.0000 H   0  0  0  0  0  0  0  0  0  0  0  0
   10.0745  -12.5084    0.0000 H   0  0  0  0  0  0  0  0  0  0  0  0
    9.4893  -10.8227    0.0000 H   0  0  0  0  0  0  0  0  0  0  0  0
   11.6217  -13.7719    0.0000 H   0  0  0  0  0  0  0  0  0  0  0  0
   13.3601  -12.9373    0.0000 H   0  0  0  0  0  0  0  0  0  0  0  0
   12.9846  -11.1928    0.0000 H   0  0  0  0  0  0  0  0  0  0  0  0
   12.9511   -6.3332    0.0000 H   0  0  0  0  0  0  0  0  0  0  0  0
   13.5643   -5.5171    0.0000 H   0  0  0  0  0  0  0  0  0  0  0  0
   16.3157   -4.1146    0.0000 H   0  0  0  0  0  0  0  0  0  0  0  0
   15.2358   -2.8885    0.0000 H   0  0  0  0  0  0  0  0  0  0  0  0
   13.9174   -6.3276    0.0000 H   0  0  0  0  0  0  0  0  0  0  0  0
   17.4164   -7.4142    0.0000 H   0  0  0  0  0  0  0  0  0  0  0  0
   18.2577   -5.8405    0.0000 H   0  0  0  0  0  0  0  0  0  0  0  0
   16.9987   -4.5759    0.0000 H   0  0  0  0  0  0  0  0  0  0  0  0
   16.4336   -8.1924    0.0000 H   0  0  0  0  0  0  0  0  0  0  0  0
   14.7090   -8.6504    0.0000 H   0  0  0  0  0  0  0  0  0  0  0  0
   13.7926   -6.9536    0.0000 H   0  0  0  0  0  0  0  0  0  0  0  0
   16.2852   -2.2317    0.0000 H   0  0  0  0  0  0  0  0  0  0  0  0
   16.3598   -1.2136    0.0000 H   0  0  0  0  0  0  0  0  0  0  0  0
   17.9162    1.4537    0.0000 H   0  0  0  0  0  0  0  0  0  0  0  0
   16.3449    1.9013    0.0000 H   0  0  0  0  0  0  0  0  0  0  0  0
   17.0951   -1.7046    0.0000 H   0  0  0  0  0  0  0  0  0  0  0  0
   20.6261   -0.7270    0.0000 H   0  0  0  0  0  0  0  0  0  0  0  0
   20.4830    1.0517    0.0000 H   0  0  0  0  0  0  0  0  0  0  0  0
   18.7402    1.4349    0.0000 H   0  0  0  0  0  0  0  0  0  0  0  0
   20.2201   -1.9130    0.0000 H   0  0  0  0  0  0  0  0  0  0  0  0
   19.0168   -3.2307    0.0000 H   0  0  0  0  0  0  0  0  0  0  0  0
   17.3286   -2.2987    0.0000 H   0  0  0  0  0  0  0  0  0  0  0  0
   16.8484    3.2028    0.0000 H   0  0  0  0  0  0  0  0  0  0  0  0
   16.4272    4.0963    0.0000 H   0  0  0  0  0  0  0  0  0  0  0  0
   17.3257    5.4014    0.0000 H   0  0  0  0  0  0  0  0  0  0  0  0
   16.4247    6.9417    0.0000 H   0  0  0  0  0  0  0  0  0  0  0  0
   14.6883    6.5304    0.0000 H   0  0  0  0  0  0  0  0  0  0  0  0
   14.5268    7.7579    0.0000 H   0  0  0  0  0  0  0  0  0  0  0  0
   10.6929   10.0703    0.0000 H   0  0  0  0  0  0  0  0  0  0  0  0
   11.8947    9.6947    0.0000 H   0  0  0  0  0  0  0  0  0  0  0  0
    9.1729   10.5394    0.0000 H   0  0  0  0  0  0  0  0  0  0  0  0
   10.2470   10.3511    0.0000 H   0  0  0  0  0  0  0  0  0  0  0  0
    7.4145   10.6654    0.0000 H   0  0  0  0  0  0  0  0  0  0  0  0
    8.6724   10.6097    0.0000 H   0  0  0  0  0  0  0  0  0  0  0  0
    5.6640   10.4563    0.0000 H   0  0  0  0  0  0  0  0  0  0  0  0
    6.9097   10.6396    0.0000 H   0  0  0  0  0  0  0  0  0  0  0  0
    3.9847    9.9197    0.0000 H   0  0  0  0  0  0  0  0  0  0  0  0
    5.1733   10.3355    0.0000 H   0  0  0  0  0  0  0  0  0  0  0  0
    2.3417    8.9188    0.0000 H   0  0  0  0  0  0  0  0  0  0  0  0
    3.5257    9.7083    0.0000 H   0  0  0  0  0  0  0  0  0  0  0  0
    1.4612    8.4710    0.0000 H   0  0  0  0  0  0  0  0  0  0  0  0
   14.1105    9.8210    0.0000 H   0  0  0  0  0  0  0  0  0  0  0  0
   15.0689    8.4978    0.0000 H   0  0  0  0  0  0  0  0  0  0  0  0
   14.2500    7.0840    0.0000 H   0  0  0  0  0  0  0  0  0  0  0  0
   14.9642    9.3372    0.0000 H   0  0  0  0  0  0  0  0  0  0  0  0
   12.2211   11.3312    0.0000 H   0  0  0  0  0  0  0  0  0  0  0  0
   12.3905   14.1452    0.0000 H   0  0  0  0  0  0  0  0  0  0  0  0
   11.9422   12.2697    0.0000 H   0  0  0  0  0  0  0  0  0  0  0  0
   14.9195   16.5562    0.0000 H   0  0  0  0  0  0  0  0  0  0  0  0
   12.4291   15.8159    0.0000 H   0  0  0  0  0  0  0  0  0  0  0  0
  1  2  1  0
  2  3  1  0
  3  4  1  0
  4  5  2  0
  4  6  1  0
  6  7  1  0
  7  8  1  0
  8  9  1  0
  9 10  1  0
  9 11  1  0
  7 12  1  0
 12 13  2  0
 12 14  1  0
 14 15  1  0
 15 16  1  0
 16 17  1  0
 15 18  1  0
 18 19  2  0
 18 20  1  0
 20 21  1  0
 21 22  1  0
 22 23  1  0
 23 24  1  0
 24 25  1  0
 24 26  2  0
 21 27  1  0
 27 28  2  0
 27 29  1  0
 30 29  1  6
 30 31  1  0
 31 32  1  0
 32 33  1  0
 33 34  1  0
 30 35  1  0
 30 36  1  0
 36 37  2  0
 36 38  1  0
 38 39  1  0
 39 40  1  0
 40 41  1  0
 40 42  1  0
 39 43  1  0
 43 44  2  0
 43 45  1  0
 45 46  1  0
 46 47  1  0
 47 48  1  0
 48 49  2  0
 49 50  1  0
 50 51  2  0
 51 52  1  0
 52 53  2  0
 46 54  1  0
 54 55  2  0
 54 56  1  0
 56 57  1  0
 57 58  1  0
 58 59  1  0
 57 60  1  0
 60 61  2  0
 60 62  1  0
 62 63  1  0
 63 64  1  0
 64 65  1  0
 65 66  1  0
 66 67  1  0
 63 68  1  0
 68 69  1  0
 69 70  1  0
 70 71  1  0
 63 72  1  0
 72 73  2  0
 72 74  1  0
 74 75  1  0
 75 76  1  0
 76 77  1  0
 77 78  1  0
 77 79  1  0
 75 80  1  0
 80 81  2  0
 80 82  1  0
 82 83  1  0
 83 84  1  0
 84 85  1  0
 85 86  2  0
 86 87  1  0
 87 88  1  0
 88 89  2  0
 89 90  1  0
 90 91  2  0
 91 92  1  0
 92 93  2  0
 83 94  1  0
 94 95  2  0
 94 96  1  0
 96 97  1  0
 97 98  1  0
 98 99  1  0
 99100  1  0
100101  1  0
101102  1  0
 97103  1  0
103104  2  0
103105  1  0
105106  1  0
106107  1  0
107108  1  0
108109  1  0
108110  1  0
106111  1  0
111112  2  0
111113  1  0
113114  1  0
114115  1  0
115116  1  0
116117  1  0
116118  1  0
114119  1  0
119120  2  0
119121  1  0
121122  1  0
122123  1  0
122124  1  0
124125  2  0
124126  1  0
126127  1  0
127128  1  0
128129  1  0
129130  1  0
130131  1  0
131132  1  0
132133  1  0
133134  1  0
127135  1  0
127136  1  1
136137  2  0
136138  1  0
138139  1  0
139140  1  0
140141  1  0
141142  1  0
141143  2  0
139144  1  0
144145  2  0
144146  1  0
 53 48  1  0
 93 85  1  0
 93 88  1  0
 34 67  2  0
 71134  2  0
  1147  1  0
  1148  1  0
  2149  1  0
  2150  1  0
  3151  1  0
  3152  1  0
  6153  1  0
  7154  1  1
  8155  1  0
  8156  1  0
  9157  1  0
 10158  1  0
 10159  1  0
 10160  1  0
 11161  1  0
 11162  1  0
 11163  1  0
 14164  1  0
 15165  1  1
 16166  1  0
 16167  1  0
 17168  1  0
 20169  1  0
 21170  1  6
 22171  1  0
 22172  1  0
 23173  1  0
 23174  1  0
 25175  1  0
 25176  1  0
 29177  1  0
 31178  1  0
 31179  1  0
 32180  1  0
 32181  1  0
 33182  1  0
 33183  1  0
 34184  1  0
 35185  1  0
 35186  1  0
 35187  1  0
 38188  1  0
 39189  1  1
 40190  1  1
 41191  1  0
 42192  1  0
 42193  1  0
 42194  1  0
 45195  1  0
 46196  1  1
 47197  1  0
 47198  1  0
 49199  1  0
 50200  1  0
 51201  1  0
 52202  1  0
 53203  1  0
 56204  1  0
 57205  1  1
 58206  1  0
 58207  1  0
 59208  1  0
 62209  1  0
 64210  1  0
 64211  1  0
 65212  1  0
 65213  1  0
 66214  1  0
 66215  1  0
 67216  1  0
 68217  1  0
 68218  1  0
 69219  1  0
 69220  1  0
 70221  1  0
 70222  1  0
 71223  1  0
 74224  1  0
 75225  1  6
 76226  1  0
 76227  1  0
 77228  1  0
 78229  1  0
 78230  1  0
 78231  1  0
 79232  1  0
 79233  1  0
 79234  1  0
 82235  1  0
 83236  1  6
 84237  1  0
 84238  1  0
 86239  1  0
 87240  1  0
 89241  1  0
 90242  1  0
 91243  1  0
 92244  1  0
 96245  1  0
 97246  1  6
 98247  1  0
 98248  1  0
 99249  1  0
 99250  1  0
100251  1  0
100252  1  0
101253  1  0
101254  1  0
102255  1  0
102256  1  0
102257  1  0
105258  1  0
106259  1  6
107260  1  0
107261  1  0
108262  1  0
109263  1  0
109264  1  0
109265  1  0
110266  1  0
110267  1  0
110268  1  0
113269  1  0
114270  1  6
115271  1  0
115272  1  0
116273  1  0
117274  1  0
117275  1  0
117276  1  0
118277  1  0
118278  1  0
118279  1  0
121280  1  0
122281  1  6
123282  1  0
123283  1  0
123284  1  0
126285  1  0
128286  1  0
128287  1  0
129288  1  0
129289  1  0
130290  1  0
130291  1  0
131292  1  0
131293  1  0
132294  1  0
132295  1  0
133296  1  0
133297  1  0
134298  1  0
135299  1  0
135300  1  0
135301  1  0
138302  1  0
139303  1  1
140304  1  0
140305  1  0
142306  1  0
142307  1  0
M  CHG  2 102   1 146  -1
M  END
