
     RDKit          2D

208213  0  0  0  0  0  0  0  0999 V2000
  -17.4690   -4.3242    0.0000 N   0  0  0  0  0  0  0  0  0  0  0  0
  -15.9744   -4.4512    0.0000 C   0  0  0  0  0  0  0  0  0  0  0  0
  -15.1171   -3.2203    0.0000 C   0  0  0  0  0  0  0  0  0  0  0  0
  -13.6225   -3.3473    0.0000 C   0  0  0  0  0  0  0  0  0  0  0  0
  -13.1554   -4.7727    0.0000 O   0  0  0  0  0  0  0  0  0  0  0  0
  -12.7652   -2.1164    0.0000 N   0  0  0  0  0  0  0  0  0  0  0  0
  -11.2706   -2.2434    0.0000 C   0  0  0  0  0  0  0  0  0  0  0  0
  -10.3768   -3.4481    0.0000 C   0  0  0  0  0  0  0  0  0  0  0  0
   -9.1677   -4.3358    0.0000 C   0  0  0  0  0  0  0  0  0  0  0  0
   -7.7507   -4.8277    0.0000 C   0  0  0  0  0  0  0  0  0  0  0  0
   -6.2516   -4.8800    0.0000 C   0  0  0  0  0  0  0  0  0  0  0  0
  -12.1553   -3.4547    0.0000 C   0  0  0  0  0  0  0  0  0  0  0  0
  -11.7695   -0.8288    0.0000 C   0  0  0  0  0  0  0  0  0  0  0  0
  -13.2661   -0.9297    0.0000 O   0  0  0  0  0  0  0  0  0  0  0  0
  -11.8294    0.6700    0.0000 N   0  0  0  0  0  0  0  0  0  0  0  0
  -11.4448    2.1198    0.0000 C   0  0  0  0  0  0  0  0  0  0  0  0
  -12.9245    1.8741    0.0000 C   0  0  0  0  0  0  0  0  0  0  0  0
  -13.8772    3.0327    0.0000 C   0  0  0  0  0  0  0  0  0  0  0  0
  -15.3569    2.7870    0.0000 O   0  0  0  0  0  0  0  0  0  0  0  0
  -13.3501    4.4371    0.0000 O   0  0  0  0  0  0  0  0  0  0  0  0
  -10.6499    3.3919    0.0000 C   0  0  0  0  0  0  0  0  0  0  0  0
  -11.7893    4.3675    0.0000 O   0  0  0  0  0  0  0  0  0  0  0  0
   -9.5154    4.3732    0.0000 N   0  0  0  0  0  0  0  0  0  0  0  0
   -8.1420    4.9764    0.0000 C   0  0  0  0  0  0  0  0  0  0  0  0
   -9.2568    5.9801    0.0000 C   0  0  0  0  0  0  0  0  0  0  0  0
   -8.9449    7.4473    0.0000 C   0  0  0  0  0  0  0  0  0  0  0  0
   -7.5183    7.9109    0.0000 C   0  0  0  0  0  0  0  0  0  0  0  0
   -7.2065    9.3781    0.0000 C   0  0  0  0  0  0  0  0  0  0  0  0
   -8.3212   10.3818    0.0000 C   0  0  0  0  0  0  0  0  0  0  0  0
   -9.7478    9.9183    0.0000 C   0  0  0  0  0  0  0  0  0  0  0  0
  -10.0596    8.4510    0.0000 C   0  0  0  0  0  0  0  0  0  0  0  0
   -6.6519    5.1481    0.0000 C   0  0  0  0  0  0  0  0  0  0  0  0
   -6.4172    6.6296    0.0000 O   0  0  0  0  0  0  0  0  0  0  0  0
   -5.1773    4.8729    0.0000 N   0  0  0  0  0  0  0  0  0  0  0  0
   -3.8494    4.1753    0.0000 C   0  0  0  0  0  0  0  0  0  0  0  0
   -3.7597    5.6726    0.0000 C   0  0  0  0  0  0  0  0  0  0  0  0
   -2.4182    6.3436    0.0000 O   0  0  0  0  0  0  0  0  0  0  0  0
   -2.7861    3.1173    0.0000 C   0  0  0  0  0  0  0  0  0  0  0  0
   -1.8335    4.2760    0.0000 O   0  0  0  0  0  0  0  0  0  0  0  0
   -2.0819    1.7929    0.0000 N   0  0  0  0  0  0  0  0  0  0  0  0
   -1.7994    0.3198    0.0000 C   0  0  0  0  0  0  0  0  0  0  0  0
   -1.9636   -1.1712    0.0000 C   0  0  0  0  0  0  0  0  0  0  0  0
   -2.5600   -2.5476    0.0000 C   0  0  0  0  0  0  0  0  0  0  0  0
   -3.5356   -3.6870    0.0000 C   0  0  0  0  0  0  0  0  0  0  0  0
   -4.8037   -4.4882    0.0000 C   0  0  0  0  0  0  0  0  0  0  0  0
   -0.9585    1.6313    0.0000 C   0  0  0  0  0  0  0  0  0  0  0  0
   -0.4451    2.8161    0.0000 C   0  0  0  0  0  0  0  0  0  0  0  0
    0.3948    3.7970    0.0000 C   0  0  0  0  0  0  0  0  0  0  0  0
    1.4865    4.4868    0.0000 C   0  0  0  0  0  0  0  0  0  0  0  0
   -0.8567   -0.9205    0.0000 C   0  0  0  0  0  0  0  0  0  0  0  0
   -2.9314   -1.6523    0.0000 O   0  0  0  0  0  0  0  0  0  0  0  0
   -0.2504   -2.0607    0.0000 N   0  0  0  0  0  0  0  0  0  0  0  0
    0.6650   -2.9716    0.0000 C   0  0  0  0  0  0  0  0  0  0  0  0
    0.1610   -5.0331    0.0000 C   0  0  0  0  0  0  0  0  0  0  0  0
    1.4129   -5.8595    0.0000 C   0  0  0  0  0  0  0  0  0  0  0  0
    1.3232   -7.3568    0.0000 C   0  0  0  0  0  0  0  0  0  0  0  0
    2.5750   -8.1831    0.0000 C   0  0  0  0  0  0  0  0  0  0  0  0
    3.9166   -7.5122    0.0000 C   0  0  0  0  0  0  0  0  0  0  0  0
    5.1685   -8.3385    0.0000 O   0  0  0  0  0  0  0  0  0  0  0  0
    4.0063   -6.0148    0.0000 C   0  0  0  0  0  0  0  0  0  0  0  0
    2.7544   -5.1885    0.0000 C   0  0  0  0  0  0  0  0  0  0  0  0
    1.8082   -3.5721    0.0000 C   0  0  0  0  0  0  0  0  0  0  0  0
    1.5694   -4.9862    0.0000 O   0  0  0  0  0  0  0  0  0  0  0  0
    3.0776   -3.8090    0.0000 N   0  0  0  0  0  0  0  0  0  0  0  0
    4.3605   -3.6612    0.0000 C   0  0  0  0  0  0  0  0  0  0  0  0
    5.6580   -5.3406    0.0000 C   0  0  0  0  0  0  0  0  0  0  0  0
    5.3462   -6.8078    0.0000 C   0  0  0  0  0  0  0  0  0  0  0  0
    3.9759   -7.4179    0.0000 C   0  0  0  0  0  0  0  0  0  0  0  0
    4.1327   -8.9097    0.0000 N   0  0  0  0  0  0  0  0  0  0  0  0
    5.5999   -9.2216    0.0000 C   0  0  0  0  0  0  0  0  0  0  0  0
    6.3499  -10.5206    0.0000 C   0  0  0  0  0  0  0  0  0  0  0  0
    7.8499  -10.5206    0.0000 C   0  0  0  0  0  0  0  0  0  0  0  0
    8.5999   -9.2216    0.0000 C   0  0  0  0  0  0  0  0  0  0  0  0
    7.8499   -7.9225    0.0000 C   0  0  0  0  0  0  0  0  0  0  0  0
    6.3499   -7.9225    0.0000 C   0  0  0  0  0  0  0  0  0  0  0  0
    5.5428   -3.1419    0.0000 C   0  0  0  0  0  0  0  0  0  0  0  0
    6.7179   -5.0017    0.0000 O   0  0  0  0  0  0  0  0  0  0  0  0
    6.5194   -2.2971    0.0000 N   0  0  0  0  0  0  0  0  0  0  0  0
    7.2037   -1.2020    0.0000 C   0  0  0  0  0  0  0  0  0  0  0  0
    9.3258   -1.2346    0.0000 C   0  0  0  0  0  0  0  0  0  0  0  0
   10.2785   -2.3932    0.0000 C   0  0  0  0  0  0  0  0  0  0  0  0
   11.7582   -2.1475    0.0000 C   0  0  0  0  0  0  0  0  0  0  0  0
   12.7109   -3.3061    0.0000 C   0  0  0  0  0  0  0  0  0  0  0  0
   14.1906   -3.0603    0.0000 N   0  0  0  0  0  0  0  0  0  0  0  0
    7.5349    0.0462    0.0000 C   0  0  0  0  0  0  0  0  0  0  0  0
    9.7216   -0.1947    0.0000 O   0  0  0  0  0  0  0  0  0  0  0  0
    7.4833    1.3365    0.0000 N   0  0  0  0  0  0  0  0  0  0  0  0
    7.0538    2.5543    0.0000 C   0  0  0  0  0  0  0  0  0  0  0  0
    6.2844    3.5914    0.0000 C   0  0  0  0  0  0  0  0  0  0  0  0
    5.2435    4.3556    0.0000 C   0  0  0  0  0  0  0  0  0  0  0  0
    4.0235    4.7791    0.0000 C   0  0  0  0  0  0  0  0  0  0  0  0
    2.7330    4.8241    0.0000 C   0  0  0  0  0  0  0  0  0  0  0  0
    9.1665    2.7559    0.0000 C   0  0  0  0  0  0  0  0  0  0  0  0
    8.4023    4.1931    0.0000 C   0  0  0  0  0  0  0  0  0  0  0  0
    7.9674    5.6286    0.0000 O   0  0  0  0  0  0  0  0  0  0  0  0
    9.9022    4.2155    0.0000 N   0  0  0  0  0  0  0  0  0  0  0  0
   10.6326    5.5256    0.0000 C   0  0  0  0  0  0  0  0  0  0  0  0
   10.8710    7.0066    0.0000 C   0  0  0  0  0  0  0  0  0  0  0  0
   12.2727    7.5406    0.0000 C   0  0  0  0  0  0  0  0  0  0  0  0
   12.5110    9.0216    0.0000 C   0  0  0  0  0  0  0  0  0  0  0  0
   13.7725    7.5631    0.0000 C   0  0  0  0  0  0  0  0  0  0  0  0
   12.1325    5.5481    0.0000 C   0  0  0  0  0  0  0  0  0  0  0  0
   13.0172    6.7594    0.0000 O   0  0  0  0  0  0  0  0  0  0  0  0
   12.9018    4.2604    0.0000 O   0  0  0  0  0  0  0  0  0  0  0  0
  -18.3263   -5.5551    0.0000 H   0  0  0  0  0  0  0  0  0  0  0  0
  -18.1063   -2.9663    0.0000 H   0  0  0  0  0  0  0  0  0  0  0  0
  -16.3590   -5.9010    0.0000 H   0  0  0  0  0  0  0  0  0  0  0  0
  -14.6133   -5.0817    0.0000 H   0  0  0  0  0  0  0  0  0  0  0  0
  -16.4781   -2.5898    0.0000 H   0  0  0  0  0  0  0  0  0  0  0  0
  -14.7325   -1.7705    0.0000 H   0  0  0  0  0  0  0  0  0  0  0  0
  -13.5633   -0.8464    0.0000 H   0  0  0  0  0  0  0  0  0  0  0  0
  -10.6887   -4.9153    0.0000 H   0  0  0  0  0  0  0  0  0  0  0  0
  -11.7926   -3.9436    0.0000 H   0  0  0  0  0  0  0  0  0  0  0  0
   -9.2164   -5.8350    0.0000 H   0  0  0  0  0  0  0  0  0  0  0  0
  -10.3746   -5.2266    0.0000 H   0  0  0  0  0  0  0  0  0  0  0  0
   -7.1818   -6.2156    0.0000 H   0  0  0  0  0  0  0  0  0  0  0  0
   -8.6414   -6.0346    0.0000 H   0  0  0  0  0  0  0  0  0  0  0  0
   -6.0799   -6.3702    0.0000 H   0  0  0  0  0  0  0  0  0  0  0  0
  -13.4316   -3.8980    0.0000 H   0  0  0  0  0  0  0  0  0  0  0  0
  -12.0462   -5.0330    0.0000 H   0  0  0  0  0  0  0  0  0  0  0  0
  -10.9001   -4.5694    0.0000 H   0  0  0  0  0  0  0  0  0  0  0  0
  -13.3203    0.8342    0.0000 H   0  0  0  0  0  0  0  0  0  0  0  0
  -12.2773    3.3675    0.0000 H   0  0  0  0  0  0  0  0  0  0  0  0
  -14.2309    1.1371    0.0000 H   0  0  0  0  0  0  0  0  0  0  0  0
  -12.7827    0.3808    0.0000 H   0  0  0  0  0  0  0  0  0  0  0  0
  -10.3166    5.6412    0.0000 H   0  0  0  0  0  0  0  0  0  0  0  0
   -7.6856    6.4053    0.0000 H   0  0  0  0  0  0  0  0  0  0  0  0
  -10.6475    6.5420    0.0000 H   0  0  0  0  0  0  0  0  0  0  0  0
  -10.3358    4.9382    0.0000 H   0  0  0  0  0  0  0  0  0  0  0  0
   -6.2896    7.0505    0.0000 H   0  0  0  0  0  0  0  0  0  0  0  0
   -5.7799    9.8416    0.0000 H   0  0  0  0  0  0  0  0  0  0  0  0
   -8.0093   11.8490    0.0000 H   0  0  0  0  0  0  0  0  0  0  0  0
  -10.8625   10.9219    0.0000 H   0  0  0  0  0  0  0  0  0  0  0  0
  -11.4862    7.9875    0.0000 H   0  0  0  0  0  0  0  0  0  0  0  0
   -4.6855    6.2900    0.0000 H   0  0  0  0  0  0  0  0  0  0  0  0
   -2.5233    4.8763    0.0000 H   0  0  0  0  0  0  0  0  0  0  0  0
   -4.1876    7.1103    0.0000 H   0  0  0  0  0  0  0  0  0  0  0  0
   -5.2471    5.8666    0.0000 H   0  0  0  0  0  0  0  0  0  0  0  0
   -2.3285    7.8409    0.0000 H   0  0  0  0  0  0  0  0  0  0  0  0
   -0.6673    2.2919    0.0000 H   0  0  0  0  0  0  0  0  0  0  0  0
   -0.5370   -0.7077    0.0000 H   0  0  0  0  0  0  0  0  0  0  0  0
   -1.0971   -2.3957    0.0000 H   0  0  0  0  0  0  0  0  0  0  0  0
   -1.1518   -3.0642    0.0000 H   0  0  0  0  0  0  0  0  0  0  0  0
   -2.0929   -3.9730    0.0000 H   0  0  0  0  0  0  0  0  0  0  0  0
   -2.2403   -4.4435    0.0000 H   0  0  0  0  0  0  0  0  0  0  0  0
   -3.3268   -5.1724    0.0000 H   0  0  0  0  0  0  0  0  0  0  0  0
   -4.2004   -5.8615    0.0000 H   0  0  0  0  0  0  0  0  0  0  0  0
   -3.0617    1.3472    0.0000 H   0  0  0  0  0  0  0  0  0  0  0  0
   -2.5016    3.0352    0.0000 H   0  0  0  0  0  0  0  0  0  0  0  0
   -2.4470    3.7037    0.0000 H   0  0  0  0  0  0  0  0  0  0  0  0
   -1.5058    4.6125    0.0000 H   0  0  0  0  0  0  0  0  0  0  0  0
   -1.3584    5.0830    0.0000 H   0  0  0  0  0  0  0  0  0  0  0  0
   -0.2719    5.8119    0.0000 H   0  0  0  0  0  0  0  0  0  0  0  0
    0.6017    6.5010    0.0000 H   0  0  0  0  0  0  0  0  0  0  0  0
   -1.7652   -3.6365    0.0000 H   0  0  0  0  0  0  0  0  0  0  0  0
   -1.1510   -4.0699    0.0000 H   0  0  0  0  0  0  0  0  0  0  0  0
   -0.4354   -6.4095    0.0000 H   0  0  0  0  0  0  0  0  0  0  0  0
   -1.3296   -4.8652    0.0000 H   0  0  0  0  0  0  0  0  0  0  0  0
   -0.0184   -8.0278    0.0000 H   0  0  0  0  0  0  0  0  0  0  0  0
    2.3035   -9.6583    0.0000 H   0  0  0  0  0  0  0  0  0  0  0  0
    5.0788   -9.8358    0.0000 H   0  0  0  0  0  0  0  0  0  0  0  0
    5.4704   -5.6884    0.0000 H   0  0  0  0  0  0  0  0  0  0  0  0
    3.2038   -3.7574    0.0000 H   0  0  0  0  0  0  0  0  0  0  0  0
    2.8185   -5.9901    0.0000 H   0  0  0  0  0  0  0  0  0  0  0  0
    4.4462   -5.8338    0.0000 H   0  0  0  0  0  0  0  0  0  0  0  0
    7.0488   -5.9025    0.0000 H   0  0  0  0  0  0  0  0  0  0  0  0
    6.7371   -4.2987    0.0000 H   0  0  0  0  0  0  0  0  0  0  0  0
    2.5951   -6.8319    0.0000 H   0  0  0  0  0  0  0  0  0  0  0  0
    3.1486  -10.0418    0.0000 H   0  0  0  0  0  0  0  0  0  0  0  0
    5.5999  -11.8197    0.0000 H   0  0  0  0  0  0  0  0  0  0  0  0
    8.5999  -11.8196    0.0000 H   0  0  0  0  0  0  0  0  0  0  0  0
   10.0999   -9.2216    0.0000 H   0  0  0  0  0  0  0  0  0  0  0  0
    8.5999   -6.6235    0.0000 H   0  0  0  0  0  0  0  0  0  0  0  0
    8.1906   -3.7280    0.0000 H   0  0  0  0  0  0  0  0  0  0  0  0
    8.5203   -2.8202    0.0000 H   0  0  0  0  0  0  0  0  0  0  0  0
   10.5326   -0.3438    0.0000 H   0  0  0  0  0  0  0  0  0  0  0  0
    9.1839    0.2587    0.0000 H   0  0  0  0  0  0  0  0  0  0  0  0
   10.6013   -3.8580    0.0000 H   0  0  0  0  0  0  0  0  0  0  0  0
    9.0716   -3.2840    0.0000 H   0  0  0  0  0  0  0  0  0  0  0  0
   12.9651   -1.2567    0.0000 H   0  0  0  0  0  0  0  0  0  0  0  0
   11.4354   -0.6826    0.0000 H   0  0  0  0  0  0  0  0  0  0  0  0
   13.2098   -4.7207    0.0000 H   0  0  0  0  0  0  0  0  0  0  0  0
   11.5040   -4.1968    0.0000 H   0  0  0  0  0  0  0  0  0  0  0  0
   15.1433   -4.2190    0.0000 H   0  0  0  0  0  0  0  0  0  0  0  0
   15.4971   -2.3233    0.0000 H   0  0  0  0  0  0  0  0  0  0  0  0
   13.8678   -1.5955    0.0000 H   0  0  0  0  0  0  0  0  0  0  0  0
    9.6440    1.7509    0.0000 H   0  0  0  0  0  0  0  0  0  0  0  0
    7.0900    5.5548    0.0000 H   0  0  0  0  0  0  0  0  0  0  0  0
    8.1230    4.7520    0.0000 H   0  0  0  0  0  0  0  0  0  0  0  0
    5.6176    6.4745    0.0000 H   0  0  0  0  0  0  0  0  0  0  0  0
    6.6583    6.0066    0.0000 H   0  0  0  0  0  0  0  0  0  0  0  0
    3.5831    6.8552    0.0000 H   0  0  0  0  0  0  0  0  0  0  0  0
    5.0426    6.6741    0.0000 H   0  0  0  0  0  0  0  0  0  0  0  0
    2.4812    7.0097    0.0000 H   0  0  0  0  0  0  0  0  0  0  0  0
   10.2961    3.7428    0.0000 H   0  0  0  0  0  0  0  0  0  0  0  0
   10.4405    1.9642    0.0000 H   0  0  0  0  0  0  0  0  0  0  0  0
    9.1441    1.2561    0.0000 H   0  0  0  0  0  0  0  0  0  0  0  0
   10.8227    3.0312    0.0000 H   0  0  0  0  0  0  0  0  0  0  0  0
    9.2156    6.0175    0.0000 H   0  0  0  0  0  0  0  0  0  0  0  0
   10.4110    8.4343    0.0000 H   0  0  0  0  0  0  0  0  0  0  0  0
    9.3712    6.9841    0.0000 H   0  0  0  0  0  0  0  0  0  0  0  0
   13.0645    6.2666    0.0000 H   0  0  0  0  0  0  0  0  0  0  0  0
   13.8372    9.7225    0.0000 H   0  0  0  0  0  0  0  0  0  0  0  0
   12.2285   10.4947    0.0000 H   0  0  0  0  0  0  0  0  0  0  0  0
   11.0196    9.1821    0.0000 H   0  0  0  0  0  0  0  0  0  0  0  0
   14.6572    8.7744    0.0000 H   0  0  0  0  0  0  0  0  0  0  0  0
   15.1896    7.0712    0.0000 H   0  0  0  0  0  0  0  0  0  0  0  0
   13.5342    6.0821    0.0000 H   0  0  0  0  0  0  0  0  0  0  0  0
  1  2  1  0
  2  3  1  0
  3  4  1  0
  4  5  2  0
  4  6  1  0
  7  6  1  6
  7  8  1  0
  8  9  1  0
  9 10  1  0
 10 11  1  0
  7 12  1  0
  7 13  1  0
 13 14  2  0
 13 15  1  0
 15 16  1  0
 16 17  1  0
 17 18  1  0
 18 19  2  0
 18 20  1  0
 16 21  1  0
 21 22  2  0
 21 23  1  0
 23 24  1  0
 24 25  1  0
 25 26  1  0
 26 27  2  0
 27 28  1  0
 28 29  2  0
 29 30  1  0
 30 31  2  0
 24 32  1  0
 32 33  2  0
 32 34  1  0
 34 35  1  0
 35 36  1  0
 36 37  1  0
 35 38  1  0
 38 39  2  0
 38 40  1  0
 40 41  1  0
 41 42  1  0
 42 43  1  0
 43 44  1  0
 44 45  1  0
 41 46  1  0
 46 47  1  0
 47 48  1  0
 48 49  1  0
 41 50  1  0
 50 51  2  0
 50 52  1  0
 52 53  1  0
 53 54  1  0
 54 55  1  0
 55 56  2  0
 56 57  1  0
 57 58  2  0
 58 59  1  0
 58 60  1  0
 60 61  2  0
 53 62  1  0
 62 63  2  0
 62 64  1  0
 64 65  1  0
 65 66  1  0
 66 67  1  0
 67 68  2  0
 68 69  1  0
 69 70  1  0
 70 71  2  0
 71 72  1  0
 72 73  2  0
 73 74  1  0
 74 75  2  0
 65 76  1  0
 76 77  2  0
 76 78  1  0
 78 79  1  0
 79 80  1  0
 80 81  1  0
 81 82  1  0
 82 83  1  0
 83 84  1  0
 79 85  1  0
 85 86  2  0
 85 87  1  0
 87 88  1  0
 88 89  1  0
 89 90  1  0
 90 91  1  0
 91 92  1  0
 88 93  1  0
 88 94  1  6
 94 95  2  0
 94 96  1  0
 96 97  1  0
 97 98  1  0
 98 99  1  0
 99100  1  0
 99101  1  0
 97102  1  0
102103  2  0
102104  1  0
 31 26  1  0
 61 55  1  0
 75 67  1  0
 75 70  1  0
 11 45  2  0
 49 92  2  0
  1105  1  0
  1106  1  0
  2107  1  0
  2108  1  0
  3109  1  0
  3110  1  0
  6111  1  0
  8112  1  0
  8113  1  0
  9114  1  0
  9115  1  0
 10116  1  0
 10117  1  0
 11118  1  0
 12119  1  0
 12120  1  0
 12121  1  0
 15122  1  0
 16123  1  1
 17124  1  0
 17125  1  0
 23126  1  0
 24127  1  1
 25128  1  0
 25129  1  0
 27130  1  0
 28131  1  0
 29132  1  0
 30133  1  0
 31134  1  0
 34135  1  0
 35136  1  1
 36137  1  0
 36138  1  0
 37139  1  0
 40140  1  0
 42141  1  0
 42142  1  0
 43143  1  0
 43144  1  0
 44145  1  0
 44146  1  0
 45147  1  0
 46148  1  0
 46149  1  0
 47150  1  0
 47151  1  0
 48152  1  0
 48153  1  0
 49154  1  0
 52155  1  0
 53156  1  6
 54157  1  0
 54158  1  0
 56159  1  0
 57160  1  0
 59161  1  0
 60162  1  0
 61163  1  0
 64164  1  0
 65165  1  6
 66166  1  0
 66167  1  0
 68168  1  0
 69169  1  0
 71170  1  0
 72171  1  0
 73172  1  0
 74173  1  0
 78174  1  0
 79175  1  6
 80176  1  0
 80177  1  0
 81178  1  0
 81179  1  0
 82180  1  0
 82181  1  0
 83182  1  0
 83183  1  0
 84184  1  0
 84185  1  0
 84186  1  0
 87187  1  0
 89188  1  0
 89189  1  0
 90190  1  0
 90191  1  0
 91192  1  0
 91193  1  0
 92194  1  0
 93195  1  0
 93196  1  0
 93197  1  0
 96198  1  0
 97199  1  1
 98200  1  0
 98201  1  0
 99202  1  0
100203  1  0
100204  1  0
100205  1  0
101206  1  0
101207  1  0
101208  1  0
M  CHG  3  20  -1  84   1 104  -1
M  END
