
     RDKit          2D

339346  0  0  0  0  0  0  0  0999 V2000
  -29.1236   -0.2482    0.0000 C   0  0  0  0  0  0  0  0  0  0  0  0
  -30.3747   -1.0756    0.0000 N   0  0  0  0  0  0  0  0  0  0  0  0
  -31.7169   -0.4058    0.0000 C   0  0  0  0  0  0  0  0  0  0  0  0
  -31.8079    1.0914    0.0000 C   0  0  0  0  0  0  0  0  0  0  0  0
  -33.1500    1.7613    0.0000 C   0  0  0  0  0  0  0  0  0  0  0  0
  -34.4012    0.9338    0.0000 C   0  0  0  0  0  0  0  0  0  0  0  0
  -34.3102   -0.5634    0.0000 C   0  0  0  0  0  0  0  0  0  0  0  0
  -32.9680   -1.2332    0.0000 C   0  0  0  0  0  0  0  0  0  0  0  0
  -35.7060   -1.1126    0.0000 C   0  0  0  0  0  0  0  0  0  0  0  0
  -36.6597    0.0452    0.0000 O   0  0  0  0  0  0  0  0  0  0  0  0
  -35.8532    1.3100    0.0000 C   0  0  0  0  0  0  0  0  0  0  0  0
  -36.4025    2.7058    0.0000 O   0  0  0  0  0  0  0  0  0  0  0  0
  -37.1516   -1.5129    0.0000 C   0  0  0  0  0  0  0  0  0  0  0  0
  -37.5277   -2.9650    0.0000 C   0  0  0  0  0  0  0  0  0  0  0  0
  -38.9733   -3.3653    0.0000 C   0  0  0  0  0  0  0  0  0  0  0  0
  -40.0428   -2.3135    0.0000 C   0  0  0  0  0  0  0  0  0  0  0  0
  -39.6667   -0.8614    0.0000 C   0  0  0  0  0  0  0  0  0  0  0  0
  -38.2211   -0.4611    0.0000 C   0  0  0  0  0  0  0  0  0  0  0  0
  -41.4884   -2.7138    0.0000 O   0  0  0  0  0  0  0  0  0  0  0  0
  -36.4583   -4.0168    0.0000 O   0  0  0  0  0  0  0  0  0  0  0  0
  -35.0127   -3.6165    0.0000 C   0  0  0  0  0  0  0  0  0  0  0  0
  -34.6365   -2.1644    0.0000 C   0  0  0  0  0  0  0  0  0  0  0  0
  -33.3665   -2.4417    0.0000 C   0  0  0  0  0  0  0  0  0  0  0  0
  -32.7961   -3.0027    0.0000 C   0  0  0  0  0  0  0  0  0  0  0  0
  -32.9967   -3.7771    0.0000 C   0  0  0  0  0  0  0  0  0  0  0  0
  -33.7677   -3.9906    0.0000 C   0  0  0  0  0  0  0  0  0  0  0  0
  -31.4281   -5.3197    0.0000 O   0  0  0  0  0  0  0  0  0  0  0  0
  -29.2146    1.2491    0.0000 S   0  0  0  0  0  0  0  0  0  0  0  0
  -27.7814   -0.9180    0.0000 N   0  0  0  0  0  0  0  0  0  0  0  0
  -26.5303   -0.0906    0.0000 C   0  0  0  0  0  0  0  0  0  0  0  0
  -25.1882   -0.7604    0.0000 C   0  0  0  0  0  0  0  0  0  0  0  0
  -23.9370    0.0670    0.0000 C   0  0  0  0  0  0  0  0  0  0  0  0
  -24.0280    1.5643    0.0000 O   0  0  0  0  0  0  0  0  0  0  0  0
  -22.5949   -0.6028    0.0000 N   0  0  0  0  0  0  0  0  0  0  0  0
  -21.3437    0.2246    0.0000 C   0  0  0  0  0  0  0  0  0  0  0  0
  -20.4510    1.4301    0.0000 C   0  0  0  0  0  0  0  0  0  0  0  0
  -18.9607    1.2597    0.0000 C   0  0  0  0  0  0  0  0  0  0  0  0
  -18.0680    2.4651    0.0000 C   0  0  0  0  0  0  0  0  0  0  0  0
  -16.8531    2.4753    0.0000 O   0  0  0  0  0  0  0  0  0  0  0  0
  -18.6656    3.8410    0.0000 O   0  0  0  0  0  0  0  0  0  0  0  0
  -20.0016   -0.4452    0.0000 C   0  0  0  0  0  0  0  0  0  0  0  0
  -19.9106   -1.9424    0.0000 O   0  0  0  0  0  0  0  0  0  0  0  0
  -18.7504    0.3822    0.0000 N   0  0  0  0  0  0  0  0  0  0  0  0
  -17.4083   -0.2876    0.0000 C   0  0  0  0  0  0  0  0  0  0  0  0
  -16.3762   -1.3760    0.0000 C   0  0  0  0  0  0  0  0  0  0  0  0
  -16.8027   -2.8141    0.0000 C   0  0  0  0  0  0  0  0  0  0  0  0
  -15.7706   -3.9026    0.0000 C   0  0  0  0  0  0  0  0  0  0  0  0
  -16.1972   -5.3406    0.0000 N   0  0  0  0  0  0  0  0  0  0  0  0
  -15.1651   -6.4291    0.0000 C   0  0  0  0  0  0  0  0  0  0  0  0
  -15.5917   -7.8671    0.0000 N   0  0  0  0  0  0  0  0  0  0  0  0
  -13.7064   -6.0795    0.0000 N   0  0  0  0  0  0  0  0  0  0  0  0
  -16.1571    0.5399    0.0000 C   0  0  0  0  0  0  0  0  0  0  0  0
  -16.0825    1.7526    0.0000 O   0  0  0  0  0  0  0  0  0  0  0  0
  -14.8150   -0.1300    0.0000 N   0  0  0  0  0  0  0  0  0  0  0  0
  -13.5638    0.6975    0.0000 C   0  0  0  0  0  0  0  0  0  0  0  0
  -12.6711    1.9029    0.0000 C   0  0  0  0  0  0  0  0  0  0  0  0
  -11.1808    1.7325    0.0000 C   0  0  0  0  0  0  0  0  0  0  0  0
  -10.2881    2.9380    0.0000 C   0  0  0  0  0  0  0  0  0  0  0  0
   -9.8387    1.0627    0.0000 C   0  0  0  0  0  0  0  0  0  0  0  0
  -12.2217    0.0276    0.0000 C   0  0  0  0  0  0  0  0  0  0  0  0
  -12.1307   -1.4696    0.0000 O   0  0  0  0  0  0  0  0  0  0  0  0
  -10.9705    0.8551    0.0000 N   0  0  0  0  0  0  0  0  0  0  0  0
   -9.6284    0.1852    0.0000 C   0  0  0  0  0  0  0  0  0  0  0  0
   -8.5963   -0.9032    0.0000 C   0  0  0  0  0  0  0  0  0  0  0  0
   -8.3773    1.0127    0.0000 C   0  0  0  0  0  0  0  0  0  0  0  0
   -8.2851    2.5098    0.0000 O   0  0  0  0  0  0  0  0  0  0  0  0
   -7.0351    0.3429    0.0000 N   0  0  0  0  0  0  0  0  0  0  0  0
   -5.7840    1.1703    0.0000 C   0  0  0  0  0  0  0  0  0  0  0  0
   -4.8913    2.3757    0.0000 C   0  0  0  0  0  0  0  0  0  0  0  0
   -3.4010    2.2053    0.0000 C   0  0  0  0  0  0  0  0  0  0  0  0
   -2.5083    3.4108    0.0000 C   0  0  0  0  0  0  0  0  0  0  0  0
   -1.0180    3.2404    0.0000 N   0  0  0  0  0  0  0  0  0  0  0  0
   -0.1253    4.4458    0.0000 C   0  0  0  0  0  0  0  0  0  0  0  0
    1.3650    4.2755    0.0000 N   0  0  0  0  0  0  0  0  0  0  0  0
   -0.7229    5.8217    0.0000 N   0  0  0  0  0  0  0  0  0  0  0  0
   -4.4418    0.5005    0.0000 C   0  0  0  0  0  0  0  0  0  0  0  0
   -4.3508   -0.9968    0.0000 O   0  0  0  0  0  0  0  0  0  0  0  0
   -3.1907    1.3279    0.0000 N   0  0  0  0  0  0  0  0  0  0  0  0
   -1.8485    0.6581    0.0000 C   0  0  0  0  0  0  0  0  0  0  0  0
   -0.8164   -0.4304    0.0000 C   0  0  0  0  0  0  0  0  0  0  0  0
   -1.2430   -1.8685    0.0000 C   0  0  0  0  0  0  0  0  0  0  0  0
   -0.2109   -2.9569    0.0000 C   0  0  0  0  0  0  0  0  0  0  0  0
   -0.6375   -4.3950    0.0000 N   0  0  0  0  0  0  0  0  0  0  0  0
    0.3946   -5.4834    0.0000 C   0  0  0  0  0  0  0  0  0  0  0  0
   -0.0319   -6.9215    0.0000 N   0  0  0  0  0  0  0  0  0  0  0  0
    1.8533   -5.1338    0.0000 N   0  0  0  0  0  0  0  0  0  0  0  0
   -0.5974    1.4855    0.0000 C   0  0  0  0  0  0  0  0  0  0  0  0
   -0.3976    2.5606    0.0000 O   0  0  0  0  0  0  0  0  0  0  0  0
    0.7448    0.8157    0.0000 N   0  0  0  0  0  0  0  0  0  0  0  0
    1.9959    1.6431    0.0000 C   0  0  0  0  0  0  0  0  0  0  0  0
    2.8886    2.8485    0.0000 C   0  0  0  0  0  0  0  0  0  0  0  0
    4.3886    2.8611    0.0000 C   0  0  0  0  0  0  0  0  0  0  0  0
    3.3152    4.2866    0.0000 C   0  0  0  0  0  0  0  0  0  0  0  0
    4.7204    4.8114    0.0000 C   0  0  0  0  0  0  0  0  0  0  0  0
    3.3381    0.9733    0.0000 C   0  0  0  0  0  0  0  0  0  0  0  0
    3.2459   -0.5239    0.0000 O   0  0  0  0  0  0  0  0  0  0  0  0
    4.5892    1.8007    0.0000 N   0  0  0  0  0  0  0  0  0  0  0  0
    5.9313    1.1309    0.0000 C   0  0  0  0  0  0  0  0  0  0  0  0
    6.3172   -0.3186    0.0000 C   0  0  0  0  0  0  0  0  0  0  0  0
    7.1132   -1.5900    0.0000 C   0  0  0  0  0  0  0  0  0  0  0  0
    8.2485   -2.5703    0.0000 C   0  0  0  0  0  0  0  0  0  0  0  0
    9.6224   -3.1724    0.0000 C   0  0  0  0  0  0  0  0  0  0  0  0
    4.6619    0.3318    0.0000 C   0  0  0  0  0  0  0  0  0  0  0  0
    5.9899    2.6298    0.0000 C   0  0  0  0  0  0  0  0  0  0  0  0
    5.2309    2.8736    0.0000 O   0  0  0  0  0  0  0  0  0  0  0  0
    6.4876    4.0448    0.0000 N   0  0  0  0  0  0  0  0  0  0  0  0
    7.3803    5.2502    0.0000 C   0  0  0  0  0  0  0  0  0  0  0  0
    7.0672    6.7172    0.0000 C   0  0  0  0  0  0  0  0  0  0  0  0
    8.1810    7.7218    0.0000 C   0  0  0  0  0  0  0  0  0  0  0  0
    7.8679    9.1888    0.0000 C   0  0  0  0  0  0  0  0  0  0  0  0
    9.4923    8.4502    0.0000 C   0  0  0  0  0  0  0  0  0  0  0  0
    8.5887    6.1390    0.0000 C   0  0  0  0  0  0  0  0  0  0  0  0
    8.2319    7.5959    0.0000 O   0  0  0  0  0  0  0  0  0  0  0  0
   10.0053    6.6321    0.0000 N   0  0  0  0  0  0  0  0  0  0  0  0
   11.5043    6.6857    0.0000 C   0  0  0  0  0  0  0  0  0  0  0  0
   12.4560    7.8452    0.0000 C   0  0  0  0  0  0  0  0  0  0  0  0
   11.9277    9.2491    0.0000 S   0  0  0  0  0  0  0  0  0  0  0  0
   12.9526    6.2951    0.0000 C   0  0  0  0  0  0  0  0  0  0  0  0
   13.5547    7.6690    0.0000 O   0  0  0  0  0  0  0  0  0  0  0  0
   14.2214    5.4950    0.0000 N   0  0  0  0  0  0  0  0  0  0  0  0
   15.1979    4.3564    0.0000 C   0  0  0  0  0  0  0  0  0  0  0  0
   16.6978    4.3353    0.0000 C   0  0  0  0  0  0  0  0  0  0  0  0
   17.4660    5.6236    0.0000 C   0  0  0  0  0  0  0  0  0  0  0  0
   18.9659    5.6025    0.0000 C   0  0  0  0  0  0  0  0  0  0  0  0
   19.7341    6.8908    0.0000 N   0  0  0  0  0  0  0  0  0  0  0  0
   21.2340    6.8697    0.0000 C   0  0  0  0  0  0  0  0  0  0  0  0
   22.0022    8.1580    0.0000 N   0  0  0  0  0  0  0  0  0  0  0  0
   21.9656    5.5602    0.0000 N   0  0  0  0  0  0  0  0  0  0  0  0
   15.7955    2.9806    0.0000 C   0  0  0  0  0  0  0  0  0  0  0  0
   17.2451    3.3665    0.0000 O   0  0  0  0  0  0  0  0  0  0  0  0
   15.9610    1.4898    0.0000 N   0  0  0  0  0  0  0  0  0  0  0  0
   15.6798    0.0164    0.0000 C   0  0  0  0  0  0  0  0  0  0  0  0
   14.9767   -1.3086    0.0000 C   0  0  0  0  0  0  0  0  0  0  0  0
   13.9143   -2.3676    0.0000 C   0  0  0  0  0  0  0  0  0  0  0  0
   12.5870   -3.0663    0.0000 C   0  0  0  0  0  0  0  0  0  0  0  0
   11.1127   -3.3428    0.0000 C   0  0  0  0  0  0  0  0  0  0  0  0
   17.1385    0.3660    0.0000 C   0  0  0  0  0  0  0  0  0  0  0  0
   16.5984   -1.1694    0.0000 C   0  0  0  0  0  0  0  0  0  0  0  0
   16.3836   -2.6540    0.0000 O   0  0  0  0  0  0  0  0  0  0  0  0
   18.0846   -0.9668    0.0000 N   0  0  0  0  0  0  0  0  0  0  0  0
   19.0032   -2.1526    0.0000 C   0  0  0  0  0  0  0  0  0  0  0  0
   19.4609   -3.5811    0.0000 C   0  0  0  0  0  0  0  0  0  0  0  0
   18.4526   -4.6917    0.0000 C   0  0  0  0  0  0  0  0  0  0  0  0
   18.7584   -6.1602    0.0000 C   0  0  0  0  0  0  0  0  0  0  0  0
   17.4563   -6.9048    0.0000 N   0  0  0  0  0  0  0  0  0  0  0  0
   16.3457   -5.8965    0.0000 C   0  0  0  0  0  0  0  0  0  0  0  0
   16.9615   -4.5287    0.0000 N   0  0  0  0  0  0  0  0  0  0  0  0
   20.4895   -1.9500    0.0000 C   0  0  0  0  0  0  0  0  0  0  0  0
   21.0571   -0.5615    0.0000 O   0  0  0  0  0  0  0  0  0  0  0  0
   21.4081   -3.1358    0.0000 N   0  0  0  0  0  0  0  0  0  0  0  0
   22.8943   -2.9332    0.0000 C   0  0  0  0  0  0  0  0  0  0  0  0
   24.2217   -2.2344    0.0000 C   0  0  0  0  0  0  0  0  0  0  0  0
   25.4904   -3.0346    0.0000 C   0  0  0  0  0  0  0  0  0  0  0  0
   26.8835   -2.4784    0.0000 C   0  0  0  0  0  0  0  0  0  0  0  0
   27.8430   -3.6314    0.0000 N   0  0  0  0  0  0  0  0  0  0  0  0
   27.0428   -4.9002    0.0000 C   0  0  0  0  0  0  0  0  0  0  0  0
   25.5889   -4.5313    0.0000 N   0  0  0  0  0  0  0  0  0  0  0  0
   23.8130   -4.1190    0.0000 C   0  0  0  0  0  0  0  0  0  0  0  0
   23.2453   -5.5074    0.0000 O   0  0  0  0  0  0  0  0  0  0  0  0
   25.2992   -3.9164    0.0000 N   0  0  0  0  0  0  0  0  0  0  0  0
   26.2178   -5.1022    0.0000 C   0  0  0  0  0  0  0  0  0  0  0  0
   26.6754   -6.5307    0.0000 C   0  0  0  0  0  0  0  0  0  0  0  0
   25.6672   -7.6412    0.0000 O   0  0  0  0  0  0  0  0  0  0  0  0
   27.7041   -4.8996    0.0000 C   0  0  0  0  0  0  0  0  0  0  0  0
   28.5908   -3.6897    0.0000 O   0  0  0  0  0  0  0  0  0  0  0  0
   28.6227   -6.0854    0.0000 N   0  0  0  0  0  0  0  0  0  0  0  0
   30.1089   -5.8827    0.0000 C   0  0  0  0  0  0  0  0  0  0  0  0
   31.4362   -5.1840    0.0000 C   0  0  0  0  0  0  0  0  0  0  0  0
   32.4445   -4.0734    0.0000 O   0  0  0  0  0  0  0  0  0  0  0  0
   32.7050   -5.9841    0.0000 C   0  0  0  0  0  0  0  0  0  0  0  0
   31.0275   -7.0686    0.0000 C   0  0  0  0  0  0  0  0  0  0  0  0
   32.5274   -7.0486    0.0000 O   0  0  0  0  0  0  0  0  0  0  0  0
   30.4599   -8.4570    0.0000 O   0  0  0  0  0  0  0  0  0  0  0  0
  -30.1019   -2.5506    0.0000 H   0  0  0  0  0  0  0  0  0  0  0  0
  -30.5567    1.9189    0.0000 H   0  0  0  0  0  0  0  0  0  0  0  0
  -33.2410    3.2585    0.0000 H   0  0  0  0  0  0  0  0  0  0  0  0
  -32.5174   -2.6639    0.0000 H   0  0  0  0  0  0  0  0  0  0  0  0
  -39.3495   -4.8174    0.0000 H   0  0  0  0  0  0  0  0  0  0  0  0
  -40.7361    0.1903    0.0000 H   0  0  0  0  0  0  0  0  0  0  0  0
  -37.8449    0.9909    0.0000 H   0  0  0  0  0  0  0  0  0  0  0  0
  -42.5579   -1.6620    0.0000 H   0  0  0  0  0  0  0  0  0  0  0  0
  -32.8148   -0.3120    0.0000 H   0  0  0  0  0  0  0  0  0  0  0  0
  -30.6379   -2.5948    0.0000 H   0  0  0  0  0  0  0  0  0  0  0  0
  -34.3193   -6.1203    0.0000 H   0  0  0  0  0  0  0  0  0  0  0  0
  -31.8043   -6.7718    0.0000 H   0  0  0  0  0  0  0  0  0  0  0  0
  -27.6904   -2.4152    0.0000 H   0  0  0  0  0  0  0  0  0  0  0  0
  -25.6376    1.1149    0.0000 H   0  0  0  0  0  0  0  0  0  0  0  0
  -27.5624    0.9979    0.0000 H   0  0  0  0  0  0  0  0  0  0  0  0
  -24.1560   -1.8489    0.0000 H   0  0  0  0  0  0  0  0  0  0  0  0
  -26.0809   -1.9658    0.0000 H   0  0  0  0  0  0  0  0  0  0  0  0
  -22.5039   -2.1000    0.0000 H   0  0  0  0  0  0  0  0  0  0  0  0
  -22.3758    1.3131    0.0000 H   0  0  0  0  0  0  0  0  0  0  0  0
  -20.0244    2.8681    0.0000 H   0  0  0  0  0  0  0  0  0  0  0  0
  -21.7932    2.0999    0.0000 H   0  0  0  0  0  0  0  0  0  0  0  0
  -17.6186    0.5899    0.0000 H   0  0  0  0  0  0  0  0  0  0  0  0
  -18.6621   -0.2103    0.0000 H   0  0  0  0  0  0  0  0  0  0  0  0
  -18.4764    1.8570    0.0000 H   0  0  0  0  0  0  0  0  0  0  0  0
  -18.4413   -1.3752    0.0000 H   0  0  0  0  0  0  0  0  0  0  0  0
  -15.0340   -2.0458    0.0000 H   0  0  0  0  0  0  0  0  0  0  0  0
  -15.2183   -0.4224    0.0000 H   0  0  0  0  0  0  0  0  0  0  0  0
  -17.6954   -4.0195    0.0000 H   0  0  0  0  0  0  0  0  0  0  0  0
  -18.2165   -2.3129    0.0000 H   0  0  0  0  0  0  0  0  0  0  0  0
  -14.4285   -4.5724    0.0000 H   0  0  0  0  0  0  0  0  0  0  0  0
  -14.7377   -2.8149    0.0000 H   0  0  0  0  0  0  0  0  0  0  0  0
  -17.6559   -5.6902    0.0000 H   0  0  0  0  0  0  0  0  0  0  0  0
  -14.5596   -8.9556    0.0000 H   0  0  0  0  0  0  0  0  0  0  0  0
  -17.0504   -8.2168    0.0000 H   0  0  0  0  0  0  0  0  0  0  0  0
  -12.6743   -7.1679    0.0000 H   0  0  0  0  0  0  0  0  0  0  0  0
  -13.2798   -4.6414    0.0000 H   0  0  0  0  0  0  0  0  0  0  0  0
  -14.5422   -1.6049    0.0000 H   0  0  0  0  0  0  0  0  0  0  0  0
  -14.5959    1.7859    0.0000 H   0  0  0  0  0  0  0  0  0  0  0  0
  -12.4230    3.3822    0.0000 H   0  0  0  0  0  0  0  0  0  0  0  0
  -14.0133    2.5727    0.0000 H   0  0  0  0  0  0  0  0  0  0  0  0
  -10.8822    0.2625    0.0000 H   0  0  0  0  0  0  0  0  0  0  0  0
   -8.8009    3.1333    0.0000 H   0  0  0  0  0  0  0  0  0  0  0  0
   -9.8616    4.3760    0.0000 H   0  0  0  0  0  0  0  0  0  0  0  0
  -11.5386    3.7664    0.0000 H   0  0  0  0  0  0  0  0  0  0  0  0
   -9.3881   -0.3680    0.0000 H   0  0  0  0  0  0  0  0  0  0  0  0
   -8.3864    1.4378    0.0000 H   0  0  0  0  0  0  0  0  0  0  0  0
   -9.2400    2.4380    0.0000 H   0  0  0  0  0  0  0  0  0  0  0  0
  -10.6965    2.3298    0.0000 H   0  0  0  0  0  0  0  0  0  0  0  0
  -10.5211   -1.0202    0.0000 H   0  0  0  0  0  0  0  0  0  0  0  0
   -9.0229   -2.3413    0.0000 H   0  0  0  0  0  0  0  0  0  0  0  0
   -7.3458   -1.7316    0.0000 H   0  0  0  0  0  0  0  0  0  0  0  0
   -7.3308   -0.0979    0.0000 H   0  0  0  0  0  0  0  0  0  0  0  0
   -6.7623   -1.1321    0.0000 H   0  0  0  0  0  0  0  0  0  0  0  0
   -6.8161    2.2587    0.0000 H   0  0  0  0  0  0  0  0  0  0  0  0
   -4.6432    3.8551    0.0000 H   0  0  0  0  0  0  0  0  0  0  0  0
   -6.2334    3.0455    0.0000 H   0  0  0  0  0  0  0  0  0  0  0  0
   -2.0588    1.5355    0.0000 H   0  0  0  0  0  0  0  0  0  0  0  0
   -3.1023    0.7354    0.0000 H   0  0  0  0  0  0  0  0  0  0  0  0
   -2.0817    4.8488    0.0000 H   0  0  0  0  0  0  0  0  0  0  0  0
   -3.7588    4.2392    0.0000 H   0  0  0  0  0  0  0  0  0  0  0  0
   -0.1052    2.0501    0.0000 H   0  0  0  0  0  0  0  0  0  0  0  0
    2.2577    5.4809    0.0000 H   0  0  0  0  0  0  0  0  0  0  0  0
    1.8122    2.8318    0.0000 H   0  0  0  0  0  0  0  0  0  0  0  0
    0.1698    7.0271    0.0000 H   0  0  0  0  0  0  0  0  0  0  0  0
   -2.2132    5.9920    0.0000 H   0  0  0  0  0  0  0  0  0  0  0  0
   -2.9167    2.8026    0.0000 H   0  0  0  0  0  0  0  0  0  0  0  0
   -2.8815   -0.4296    0.0000 H   0  0  0  0  0  0  0  0  0  0  0  0
    0.5257   -1.1002    0.0000 H   0  0  0  0  0  0  0  0  0  0  0  0
    0.3414    0.5232    0.0000 H   0  0  0  0  0  0  0  0  0  0  0  0
   -2.1357   -3.0739    0.0000 H   0  0  0  0  0  0  0  0  0  0  0  0
   -2.6568   -1.3672    0.0000 H   0  0  0  0  0  0  0  0  0  0  0  0
    1.1313   -3.6267    0.0000 H   0  0  0  0  0  0  0  0  0  0  0  0
    0.8221   -1.8693    0.0000 H   0  0  0  0  0  0  0  0  0  0  0  0
   -2.0962   -4.7446    0.0000 H   0  0  0  0  0  0  0  0  0  0  0  0
    1.0002   -8.0100    0.0000 H   0  0  0  0  0  0  0  0  0  0  0  0
   -1.4906   -7.2711    0.0000 H   0  0  0  0  0  0  0  0  0  0  0  0
    2.8854   -6.2223    0.0000 H   0  0  0  0  0  0  0  0  0  0  0  0
    2.2799   -3.6958    0.0000 H   0  0  0  0  0  0  0  0  0  0  0  0
    1.0176   -0.6593    0.0000 H   0  0  0  0  0  0  0  0  0  0  0  0
    0.9638    2.7316    0.0000 H   0  0  0  0  0  0  0  0  0  0  0  0
    1.4243    3.1737    0.0000 H   0  0  0  0  0  0  0  0  0  0  0  0
    5.2940    3.8838    0.0000 H   0  0  0  0  0  0  0  0  0  0  0  0
    5.8878    2.3561    0.0000 H   0  0  0  0  0  0  0  0  0  0  0  0
    4.5623    1.1914    0.0000 H   0  0  0  0  0  0  0  0  0  0  0  0
    3.2242    5.7838    0.0000 H   0  0  0  0  0  0  0  0  0  0  0  0
    1.8568    4.6374    0.0000 H   0  0  0  0  0  0  0  0  0  0  0  0
    4.8806    6.1529    0.0000 H   0  0  0  0  0  0  0  0  0  0  0  0
    6.2611    4.8315    0.0000 H   0  0  0  0  0  0  0  0  0  0  0  0
    4.8649    3.1390    0.0000 H   0  0  0  0  0  0  0  0  0  0  0  0
    4.3164    3.2757    0.0000 H   0  0  0  0  0  0  0  0  0  0  0  0
    4.8185   -0.2564    0.0000 H   0  0  0  0  0  0  0  0  0  0  0  0
    5.4857   -1.5671    0.0000 H   0  0  0  0  0  0  0  0  0  0  0  0
    5.7201   -2.1463    0.0000 H   0  0  0  0  0  0  0  0  0  0  0  0
    6.5145   -2.9654    0.0000 H   0  0  0  0  0  0  0  0  0  0  0  0
    6.9752   -3.3631    0.0000 H   0  0  0  0  0  0  0  0  0  0  0  0
    8.2648   -4.0702    0.0000 H   0  0  0  0  0  0  0  0  0  0  0  0
    9.2318   -4.6206    0.0000 H   0  0  0  0  0  0  0  0  0  0  0  0
    4.6038   -1.3331    0.0000 H   0  0  0  0  0  0  0  0  0  0  0  0
    3.4402   -0.4650    0.0000 H   0  0  0  0  0  0  0  0  0  0  0  0
    3.6627    1.1914    0.0000 H   0  0  0  0  0  0  0  0  0  0  0  0
    5.3721    5.0476    0.0000 H   0  0  0  0  0  0  0  0  0  0  0  0
    5.9144    5.5681    0.0000 H   0  0  0  0  0  0  0  0  0  0  0  0
    6.1222    7.8820    0.0000 H   0  0  0  0  0  0  0  0  0  0  0  0
    5.5819    6.5072    0.0000 H   0  0  0  0  0  0  0  0  0  0  0  0
    9.2610    6.6808    0.0000 H   0  0  0  0  0  0  0  0  0  0  0  0
    8.8510   10.3217    0.0000 H   0  0  0  0  0  0  0  0  0  0  0  0
    7.0719   10.4602    0.0000 H   0  0  0  0  0  0  0  0  0  0  0  0
    6.4193    8.7993    0.0000 H   0  0  0  0  0  0  0  0  0  0  0  0
    9.9583    9.7341    0.0000 H   0  0  0  0  0  0  0  0  0  0  0  0
   11.0722    8.5317    0.0000 H   0  0  0  0  0  0  0  0  0  0  0  0
   10.2301    6.9373    0.0000 H   0  0  0  0  0  0  0  0  0  0  0  0
    9.9106    8.1291    0.0000 H   0  0  0  0  0  0  0  0  0  0  0  0
   11.0077    8.1011    0.0000 H   0  0  0  0  0  0  0  0  0  0  0  0
   13.7468    8.6092    0.0000 H   0  0  0  0  0  0  0  0  0  0  0  0
   13.6791    6.9767    0.0000 H   0  0  0  0  0  0  0  0  0  0  0  0
   12.8794   10.4085    0.0000 H   0  0  0  0  0  0  0  0  0  0  0  0
   15.2017    6.6304    0.0000 H   0  0  0  0  0  0  0  0  0  0  0  0
   15.6638    5.7823    0.0000 H   0  0  0  0  0  0  0  0  0  0  0  0
   18.0245    3.6355    0.0000 H   0  0  0  0  0  0  0  0  0  0  0  0
   16.7814    2.8376    0.0000 H   0  0  0  0  0  0  0  0  0  0  0  0
   17.7473    7.0970    0.0000 H   0  0  0  0  0  0  0  0  0  0  0  0
   16.1393    6.3234    0.0000 H   0  0  0  0  0  0  0  0  0  0  0  0
   20.3680    5.0696    0.0000 H   0  0  0  0  0  0  0  0  0  0  0  0
   18.8663    4.1058    0.0000 H   0  0  0  0  0  0  0  0  0  0  0  0
   19.0025    8.2003    0.0000 H   0  0  0  0  0  0  0  0  0  0  0  0
   23.5021    8.1369    0.0000 H   0  0  0  0  0  0  0  0  0  0  0  0
   21.2706    9.4675    0.0000 H   0  0  0  0  0  0  0  0  0  0  0  0
   23.4654    5.5390    0.0000 H   0  0  0  0  0  0  0  0  0  0  0  0
   21.1973    4.2718    0.0000 H   0  0  0  0  0  0  0  0  0  0  0  0
   17.4599    1.4312    0.0000 H   0  0  0  0  0  0  0  0  0  0  0  0
   15.5050   -2.7125    0.0000 H   0  0  0  0  0  0  0  0  0  0  0  0
   16.4059   -1.7639    0.0000 H   0  0  0  0  0  0  0  0  0  0  0  0
   14.1871   -3.8425    0.0000 H   0  0  0  0  0  0  0  0  0  0  0  0
   15.1459   -3.2239    0.0000 H   0  0  0  0  0  0  0  0  0  0  0  0
   12.2326   -4.5238    0.0000 H   0  0  0  0  0  0  0  0  0  0  0  0
   13.6485   -4.1261    0.0000 H   0  0  0  0  0  0  0  0  0  0  0  0
   11.1663   -4.8418    0.0000 H   0  0  0  0  0  0  0  0  0  0  0  0
   18.4033   -0.4404    0.0000 H   0  0  0  0  0  0  0  0  0  0  0  0
   18.2794    1.3398    0.0000 H   0  0  0  0  0  0  0  0  0  0  0  0
   16.8915    1.8455    0.0000 H   0  0  0  0  0  0  0  0  0  0  0  0
   18.8173    0.3421    0.0000 H   0  0  0  0  0  0  0  0  0  0  0  0
   17.6759   -2.8514    0.0000 H   0  0  0  0  0  0  0  0  0  0  0  0
   20.2281   -4.8701    0.0000 H   0  0  0  0  0  0  0  0  0  0  0  0
   20.9178   -3.2243    0.0000 H   0  0  0  0  0  0  0  0  0  0  0  0
   20.1262   -6.7759    0.0000 H   0  0  0  0  0  0  0  0  0  0  0  0
   17.2933   -8.3959    0.0000 H   0  0  0  0  0  0  0  0  0  0  0  0
   14.8772   -6.2023    0.0000 H   0  0  0  0  0  0  0  0  0  0  0  0
   21.0139   -4.5831    0.0000 H   0  0  0  0  0  0  0  0  0  0  0  0
   22.4367   -1.5047    0.0000 H   0  0  0  0  0  0  0  0  0  0  0  0
   25.2299   -1.1239    0.0000 H   0  0  0  0  0  0  0  0  0  0  0  0
   23.3031   -1.0486    0.0000 H   0  0  0  0  0  0  0  0  0  0  0  0
   27.2524   -1.0245    0.0000 H   0  0  0  0  0  0  0  0  0  0  0  0
   29.3397   -3.5330    0.0000 H   0  0  0  0  0  0  0  0  0  0  0  0
   27.7647   -6.2151    0.0000 H   0  0  0  0  0  0  0  0  0  0  0  0
   26.1859   -2.7065    0.0000 H   0  0  0  0  0  0  0  0  0  0  0  0
   24.8905   -5.8009    0.0000 H   0  0  0  0  0  0  0  0  0  0  0  0
   27.4427   -7.8196    0.0000 H   0  0  0  0  0  0  0  0  0  0  0  0
   28.1650   -6.3541    0.0000 H   0  0  0  0  0  0  0  0  0  0  0  0
   26.1248   -9.0697    0.0000 H   0  0  0  0  0  0  0  0  0  0  0  0
   28.2285   -7.5327    0.0000 H   0  0  0  0  0  0  0  0  0  0  0  0
   29.6513   -4.4543    0.0000 H   0  0  0  0  0  0  0  0  0  0  0  0
   30.5176   -3.9982    0.0000 H   0  0  0  0  0  0  0  0  0  0  0  0
   33.9383   -4.2103    0.0000 H   0  0  0  0  0  0  0  0  0  0  0  0
   34.1076   -5.4524    0.0000 H   0  0  0  0  0  0  0  0  0  0  0  0
   33.6236   -7.1699    0.0000 H   0  0  0  0  0  0  0  0  0  0  0  0
   32.1618   -7.3823    0.0000 H   0  0  0  0  0  0  0  0  0  0  0  0
  1  2  1  0
  2  3  1  0
  3  4  2  0
  4  5  1  0
  5  6  2  0
  6  7  1  0
  7  8  2  0
  7  9  1  0
  9 10  1  0
 10 11  1  0
 11 12  2  0
  9 13  1  0
 13 14  1  0
 14 15  2  0
 15 16  1  0
 16 17  2  0
 17 18  1  0
 16 19  1  0
 14 20  1  0
 20 21  1  0
 21 22  2  0
 22 23  1  0
 23 24  2  0
 24 25  1  0
 25 26  2  0
 25 27  1  0
  1 28  2  0
  1 29  1  0
 29 30  1  0
 30 31  1  0
 31 32  1  0
 32 33  2  0
 32 34  1  0
 34 35  1  0
 35 36  1  0
 36 37  1  0
 37 38  1  0
 38 39  2  0
 38 40  1  0
 35 41  1  0
 41 42  2  0
 41 43  1  0
 43 44  1  0
 44 45  1  0
 45 46  1  0
 46 47  1  0
 47 48  1  0
 48 49  1  0
 49 50  2  3
 49 51  1  0
 44 52  1  0
 52 53  2  0
 52 54  1  0
 54 55  1  0
 55 56  1  0
 56 57  1  0
 57 58  1  0
 57 59  1  0
 55 60  1  0
 60 61  2  0
 60 62  1  0
 62 63  1  0
 63 64  1  0
 63 65  1  0
 65 66  2  0
 65 67  1  0
 67 68  1  0
 68 69  1  0
 69 70  1  0
 70 71  1  0
 71 72  1  0
 72 73  1  0
 73 74  2  3
 73 75  1  0
 68 76  1  0
 76 77  2  0
 76 78  1  0
 78 79  1  0
 79 80  1  0
 80 81  1  0
 81 82  1  0
 82 83  1  0
 83 84  1  0
 84 85  2  3
 84 86  1  0
 79 87  1  0
 87 88  2  0
 87 89  1  0
 89 90  1  0
 90 91  1  0
 91 92  1  0
 91 93  1  0
 93 94  1  0
 90 95  1  0
 95 96  2  0
 95 97  1  0
 98 97  1  6
 98 99  1  0
 99100  1  0
100101  1  0
101102  1  0
 98103  1  0
 98104  1  0
104105  2  0
104106  1  0
106107  1  0
107108  1  0
108109  1  0
109110  1  0
109111  1  0
107112  1  0
112113  2  0
112114  1  0
114115  1  0
115116  1  0
116117  1  0
115118  1  0
118119  2  0
118120  1  0
120121  1  0
121122  1  0
122123  1  0
123124  1  0
124125  1  0
125126  1  0
126127  2  3
126128  1  0
121129  1  0
129130  2  0
129131  1  0
131132  1  0
132133  1  0
133134  1  0
134135  1  0
135136  1  0
132137  1  0
132138  1  6
138139  2  0
138140  1  0
140141  1  0
141142  1  0
142143  1  0
143144  2  0
144145  1  0
145146  1  0
146147  2  0
141148  1  0
148149  2  0
148150  1  0
150151  1  0
151152  1  0
152153  1  0
153154  2  0
154155  1  0
155156  1  0
156157  2  0
151158  1  0
158159  2  0
158160  1  0
160161  1  0
161162  1  0
162163  1  0
161164  1  0
164165  2  0
164166  1  0
166167  1  0
167168  1  0
168169  1  0
168170  1  0
167171  1  0
171172  2  0
171173  1  0
  8  3  1  0
147143  1  0
157153  1  0
 11  6  1  0
102136  2  0
 18 13  2  0
 22  9  1  0
 26 21  1  0
  2174  1  0
  4175  1  0
  5176  1  0
  8177  1  0
 15178  1  0
 17179  1  0
 18180  1  0
 19181  1  0
 23182  1  0
 24183  1  0
 26184  1  0
 27185  1  0
 29186  1  0
 30187  1  0
 30188  1  0
 31189  1  0
 31190  1  0
 34191  1  0
 35192  1  1
 36193  1  0
 36194  1  0
 37195  1  0
 37196  1  0
 43197  1  0
 44198  1  6
 45199  1  0
 45200  1  0
 46201  1  0
 46202  1  0
 47203  1  0
 47204  1  0
 48205  1  0
 50206  1  0
 50207  1  0
 51208  1  0
 51209  1  0
 54210  1  0
 55211  1  1
 56212  1  0
 56213  1  0
 57214  1  0
 58215  1  0
 58216  1  0
 58217  1  0
 59218  1  0
 59219  1  0
 59220  1  0
 62221  1  0
 63222  1  6
 64223  1  0
 64224  1  0
 64225  1  0
 67226  1  0
 68227  1  1
 69228  1  0
 69229  1  0
 70230  1  0
 70231  1  0
 71232  1  0
 71233  1  0
 72234  1  0
 74235  1  0
 74236  1  0
 75237  1  0
 75238  1  0
 78239  1  0
 79240  1  6
 80241  1  0
 80242  1  0
 81243  1  0
 81244  1  0
 82245  1  0
 82246  1  0
 83247  1  0
 85248  1  0
 85249  1  0
 86250  1  0
 86251  1  0
 89252  1  0
 90253  1  1
 91254  1  1
 92255  1  0
 92256  1  0
 92257  1  0
 93258  1  0
 93259  1  0
 94260  1  0
 94261  1  0
 94262  1  0
 97263  1  0
 99264  1  0
 99265  1  0
100266  1  0
100267  1  0
101268  1  0
101269  1  0
102270  1  0
103271  1  0
103272  1  0
103273  1  0
106274  1  0
107275  1  1
108276  1  0
108277  1  0
109278  1  0
110279  1  0
110280  1  0
110281  1  0
111282  1  0
111283  1  0
111284  1  0
114285  1  0
115286  1  1
116287  1  0
116288  1  0
117289  1  0
120290  1  0
121291  1  1
122292  1  0
122293  1  0
123294  1  0
123295  1  0
124296  1  0
124297  1  0
125298  1  0
127299  1  0
127300  1  0
128301  1  0
128302  1  0
131303  1  0
133304  1  0
133305  1  0
134306  1  0
134307  1  0
135308  1  0
135309  1  0
136310  1  0
137311  1  0
137312  1  0
137313  1  0
140314  1  0
141315  1  6
142316  1  0
142317  1  0
144318  1  0
145319  1  0
146320  1  0
150321  1  0
151322  1  1
152323  1  0
152324  1  0
154325  1  0
155326  1  0
156327  1  0
160328  1  0
161329  1  6
162330  1  0
162331  1  0
163332  1  0
166333  1  0
167334  1  1
168335  1  1
169336  1  0
170337  1  0
170338  1  0
170339  1  0
M  CHG  6  40  -1  50   1  74   1  85   1 127   1 173  -1
M  END
