
     RDKit          2D

247252  0  0  0  0  0  0  0  0999 V2000
   26.6117   -8.4390    0.0000 N   0  0  0  0  0  0  0  0  0  0  0  0
   25.3274   -7.6640    0.0000 C   0  0  0  0  0  0  0  0  0  0  0  0
   25.3564   -6.1643    0.0000 C   0  0  0  0  0  0  0  0  0  0  0  0
   24.0721   -5.3893    0.0000 C   0  0  0  0  0  0  0  0  0  0  0  0
   22.8569   -6.2688    0.0000 O   0  0  0  0  0  0  0  0  0  0  0  0
   24.1011   -3.8896    0.0000 N   0  0  0  0  0  0  0  0  0  0  0  0
   22.8168   -3.1146    0.0000 C   0  0  0  0  0  0  0  0  0  0  0  0
   22.2766   -4.5140    0.0000 C   0  0  0  0  0  0  0  0  0  0  0  0
   20.7946   -4.7459    0.0000 C   0  0  0  0  0  0  0  0  0  0  0  0
   20.2545   -6.1452    0.0000 N   0  0  0  0  0  0  0  0  0  0  0  0
   19.8529   -3.5784    0.0000 O   0  0  0  0  0  0  0  0  0  0  0  0
   21.8750   -1.9471    0.0000 C   0  0  0  0  0  0  0  0  0  0  0  0
   20.3931   -2.1790    0.0000 O   0  0  0  0  0  0  0  0  0  0  0  0
   22.4152   -0.5478    0.0000 N   0  0  0  0  0  0  0  0  0  0  0  0
   21.4734    0.6197    0.0000 C   0  0  0  0  0  0  0  0  0  0  0  0
   22.7867    1.3445    0.0000 C   0  0  0  0  0  0  0  0  0  0  0  0
   24.1559    0.7318    0.0000 O   0  0  0  0  0  0  0  0  0  0  0  0
   20.1891    1.3947    0.0000 C   0  0  0  0  0  0  0  0  0  0  0  0
   20.2181    2.8944    0.0000 O   0  0  0  0  0  0  0  0  0  0  0  0
   18.8758    0.6699    0.0000 N   0  0  0  0  0  0  0  0  0  0  0  0
   17.5916    1.4449    0.0000 C   0  0  0  0  0  0  0  0  0  0  0  0
   17.0514    0.0456    0.0000 C   0  0  0  0  0  0  0  0  0  0  0  0
   17.8438   -1.2280    0.0000 O   0  0  0  0  0  0  0  0  0  0  0  0
   16.6498    2.6124    0.0000 C   0  0  0  0  0  0  0  0  0  0  0  0
   15.8831    2.3941    0.0000 O   0  0  0  0  0  0  0  0  0  0  0  0
   17.1900    4.0118    0.0000 N   0  0  0  0  0  0  0  0  0  0  0  0
   16.2482    5.1793    0.0000 C   0  0  0  0  0  0  0  0  0  0  0  0
   15.7625    6.5985    0.0000 C   0  0  0  0  0  0  0  0  0  0  0  0
   16.7487    7.7287    0.0000 C   0  0  0  0  0  0  0  0  0  0  0  0
   16.2630    9.1479    0.0000 C   0  0  0  0  0  0  0  0  0  0  0  0
   17.2493   10.2781    0.0000 C   0  0  0  0  0  0  0  0  0  0  0  0
   18.7212    9.9891    0.0000 C   0  0  0  0  0  0  0  0  0  0  0  0
   19.2068    8.5699    0.0000 C   0  0  0  0  0  0  0  0  0  0  0  0
   18.2206    7.4397    0.0000 C   0  0  0  0  0  0  0  0  0  0  0  0
   15.2620    4.0491    0.0000 C   0  0  0  0  0  0  0  0  0  0  0  0
   15.4262    3.2690    0.0000 O   0  0  0  0  0  0  0  0  0  0  0  0
   13.7901    4.3381    0.0000 N   0  0  0  0  0  0  0  0  0  0  0  0
   12.8038    3.2078    0.0000 C   0  0  0  0  0  0  0  0  0  0  0  0
   12.2637    1.8085    0.0000 C   0  0  0  0  0  0  0  0  0  0  0  0
   11.3319    3.4968    0.0000 C   0  0  0  0  0  0  0  0  0  0  0  0
   10.8463    4.9160    0.0000 O   0  0  0  0  0  0  0  0  0  0  0  0
   10.3457    2.3666    0.0000 N   0  0  0  0  0  0  0  0  0  0  0  0
    8.8738    2.6556    0.0000 C   0  0  0  0  0  0  0  0  0  0  0  0
    7.5895    3.4306    0.0000 C   0  0  0  0  0  0  0  0  0  0  0  0
    6.2762    2.7059    0.0000 C   0  0  0  0  0  0  0  0  0  0  0  0
    4.9919    3.4808    0.0000 O   0  0  0  0  0  0  0  0  0  0  0  0
    5.8852    1.2577    0.0000 O   0  0  0  0  0  0  0  0  0  0  0  0
    7.8876    1.5254    0.0000 C   0  0  0  0  0  0  0  0  0  0  0  0
    8.3733    0.1062    0.0000 O   0  0  0  0  0  0  0  0  0  0  0  0
    6.4157    1.8144    0.0000 N   0  0  0  0  0  0  0  0  0  0  0  0
    5.4295    0.6842    0.0000 C   0  0  0  0  0  0  0  0  0  0  0  0
    4.8893   -0.7152    0.0000 C   0  0  0  0  0  0  0  0  0  0  0  0
    3.4073   -0.9470    0.0000 C   0  0  0  0  0  0  0  0  0  0  0  0
    2.4655    0.2205    0.0000 C   0  0  0  0  0  0  0  0  0  0  0  0
    0.9836   -0.0114    0.0000 C   0  0  0  0  0  0  0  0  0  0  0  0
    0.4434   -1.4107    0.0000 C   0  0  0  0  0  0  0  0  0  0  0  0
    1.3852   -2.5782    0.0000 C   0  0  0  0  0  0  0  0  0  0  0  0
    2.8671   -2.3464    0.0000 C   0  0  0  0  0  0  0  0  0  0  0  0
    3.9576    0.9732    0.0000 C   0  0  0  0  0  0  0  0  0  0  0  0
    3.8297    2.4677    0.0000 O   0  0  0  0  0  0  0  0  0  0  0  0
    2.9714   -0.1570    0.0000 N   0  0  0  0  0  0  0  0  0  0  0  0
    1.4995    0.1320    0.0000 C   0  0  0  0  0  0  0  0  0  0  0  0
    0.2152    0.9069    0.0000 C   0  0  0  0  0  0  0  0  0  0  0  0
    0.2442    2.4067    0.0000 C   0  0  0  0  0  0  0  0  0  0  0  0
    1.5575    3.1314    0.0000 C   0  0  0  0  0  0  0  0  0  0  0  0
    1.5865    4.6311    0.0000 C   0  0  0  0  0  0  0  0  0  0  0  0
    0.3022    5.4061    0.0000 C   0  0  0  0  0  0  0  0  0  0  0  0
   -1.0111    4.6814    0.0000 C   0  0  0  0  0  0  0  0  0  0  0  0
   -1.0401    3.1816    0.0000 C   0  0  0  0  0  0  0  0  0  0  0  0
    0.5132   -0.9982    0.0000 C   0  0  0  0  0  0  0  0  0  0  0  0
    0.6411   -2.4928    0.0000 O   0  0  0  0  0  0  0  0  0  0  0  0
   -0.9587   -0.7093    0.0000 N   0  0  0  0  0  0  0  0  0  0  0  0
   -1.9449   -1.8395    0.0000 C   0  0  0  0  0  0  0  0  0  0  0  0
   -2.4851   -3.2388    0.0000 C   0  0  0  0  0  0  0  0  0  0  0  0
   -3.9670   -3.4707    0.0000 C   0  0  0  0  0  0  0  0  0  0  0  0
   -4.6505   -4.8059    0.0000 C   0  0  0  0  0  0  0  0  0  0  0  0
   -6.1316   -4.5685    0.0000 N   0  0  0  0  0  0  0  0  0  0  0  0
   -6.3635   -3.0865    0.0000 C   0  0  0  0  0  0  0  0  0  0  0  0
   -5.0257   -2.4080    0.0000 N   0  0  0  0  0  0  0  0  0  0  0  0
   -3.4168   -1.5505    0.0000 C   0  0  0  0  0  0  0  0  0  0  0  0
   -3.9025   -0.1313    0.0000 O   0  0  0  0  0  0  0  0  0  0  0  0
   -4.4030   -2.6807    0.0000 N   0  0  0  0  0  0  0  0  0  0  0  0
   -5.8749   -2.3917    0.0000 C   0  0  0  0  0  0  0  0  0  0  0  0
   -7.1592   -1.6167    0.0000 C   0  0  0  0  0  0  0  0  0  0  0  0
   -8.5849   -1.1505    0.0000 O   0  0  0  0  0  0  0  0  0  0  0  0
   -7.1302   -0.1170    0.0000 C   0  0  0  0  0  0  0  0  0  0  0  0
   -6.8611   -3.5219    0.0000 C   0  0  0  0  0  0  0  0  0  0  0  0
   -6.7333   -5.0164    0.0000 O   0  0  0  0  0  0  0  0  0  0  0  0
   -8.3330   -3.2329    0.0000 N   0  0  0  0  0  0  0  0  0  0  0  0
   -9.3192   -4.3631    0.0000 C   0  0  0  0  0  0  0  0  0  0  0  0
   -9.8594   -5.7625    0.0000 C   0  0  0  0  0  0  0  0  0  0  0  0
  -11.2413   -6.3460    0.0000 C   0  0  0  0  0  0  0  0  0  0  0  0
  -10.7911   -4.0741    0.0000 C   0  0  0  0  0  0  0  0  0  0  0  0
  -11.2768   -2.6549    0.0000 O   0  0  0  0  0  0  0  0  0  0  0  0
  -11.7774   -5.2043    0.0000 N   0  0  0  0  0  0  0  0  0  0  0  0
  -11.4427   -6.6665    0.0000 C   0  0  0  0  0  0  0  0  0  0  0  0
  -12.7299   -7.4367    0.0000 C   0  0  0  0  0  0  0  0  0  0  0  0
  -13.8601   -6.4504    0.0000 C   0  0  0  0  0  0  0  0  0  0  0  0
  -13.2714   -5.0708    0.0000 C   0  0  0  0  0  0  0  0  0  0  0  0
  -14.7050   -4.6295    0.0000 C   0  0  0  0  0  0  0  0  0  0  0  0
  -15.9202   -5.5089    0.0000 O   0  0  0  0  0  0  0  0  0  0  0  0
  -15.0397   -3.1673    0.0000 N   0  0  0  0  0  0  0  0  0  0  0  0
  -16.4733   -2.7261    0.0000 C   0  0  0  0  0  0  0  0  0  0  0  0
  -17.9714   -2.8018    0.0000 C   0  0  0  0  0  0  0  0  0  0  0  0
  -18.7860   -1.5422    0.0000 C   0  0  0  0  0  0  0  0  0  0  0  0
  -18.1025   -0.2070    0.0000 C   0  0  0  0  0  0  0  0  0  0  0  0
  -18.9171    1.0525    0.0000 C   0  0  0  0  0  0  0  0  0  0  0  0
  -20.4152    0.9769    0.0000 C   0  0  0  0  0  0  0  0  0  0  0  0
  -21.2298    2.2364    0.0000 O   0  0  0  0  0  0  0  0  0  0  0  0
  -21.0987   -0.3584    0.0000 C   0  0  0  0  0  0  0  0  0  0  0  0
  -20.2841   -1.6179    0.0000 C   0  0  0  0  0  0  0  0  0  0  0  0
  -16.8080   -1.2639    0.0000 C   0  0  0  0  0  0  0  0  0  0  0  0
  -15.5928   -0.3845    0.0000 O   0  0  0  0  0  0  0  0  0  0  0  0
  -18.2416   -0.8226    0.0000 N   0  0  0  0  0  0  0  0  0  0  0  0
  -18.5763    0.6396    0.0000 C   0  0  0  0  0  0  0  0  0  0  0  0
  -18.3907    2.1280    0.0000 C   0  0  0  0  0  0  0  0  0  0  0  0
  -17.0088    2.7115    0.0000 C   0  0  0  0  0  0  0  0  0  0  0  0
  -16.8232    4.2000    0.0000 C   0  0  0  0  0  0  0  0  0  0  0  0
  -15.4414    4.7835    0.0000 C   0  0  0  0  0  0  0  0  0  0  0  0
  -20.0099    1.0808    0.0000 C   0  0  0  0  0  0  0  0  0  0  0  0
  -21.3233    0.3561    0.0000 O   0  0  0  0  0  0  0  0  0  0  0  0
  -20.3446    2.5430    0.0000 N   0  0  0  0  0  0  0  0  0  0  0  0
  -21.7782    2.9843    0.0000 C   0  0  0  0  0  0  0  0  0  0  0  0
  -23.2763    2.9086    0.0000 C   0  0  0  0  0  0  0  0  0  0  0  0
  -24.0909    4.1681    0.0000 C   0  0  0  0  0  0  0  0  0  0  0  0
  -25.5890    4.0924    0.0000 C   0  0  0  0  0  0  0  0  0  0  0  0
  -24.4256    5.6303    0.0000 C   0  0  0  0  0  0  0  0  0  0  0  0
  -22.1129    4.4464    0.0000 C   0  0  0  0  0  0  0  0  0  0  0  0
  -23.4820    5.0592    0.0000 O   0  0  0  0  0  0  0  0  0  0  0  0
  -21.0139    5.4674    0.0000 O   0  0  0  0  0  0  0  0  0  0  0  0
   26.5827   -9.9387    0.0000 H   0  0  0  0  0  0  0  0  0  0  0  0
   27.9250   -7.7143    0.0000 H   0  0  0  0  0  0  0  0  0  0  0  0
   24.7872   -9.0634    0.0000 H   0  0  0  0  0  0  0  0  0  0  0  0
   23.8555   -7.3750    0.0000 H   0  0  0  0  0  0  0  0  0  0  0  0
   26.8283   -6.4533    0.0000 H   0  0  0  0  0  0  0  0  0  0  0  0
   25.8966   -4.7650    0.0000 H   0  0  0  0  0  0  0  0  0  0  0  0
   25.4144   -3.1649    0.0000 H   0  0  0  0  0  0  0  0  0  0  0  0
   23.8030   -1.9844    0.0000 H   0  0  0  0  0  0  0  0  0  0  0  0
   22.0650   -5.9990    0.0000 H   0  0  0  0  0  0  0  0  0  0  0  0
   23.6348   -5.1506    0.0000 H   0  0  0  0  0  0  0  0  0  0  0  0
   18.7725   -6.3771    0.0000 H   0  0  0  0  0  0  0  0  0  0  0  0
   21.1962   -7.3127    0.0000 H   0  0  0  0  0  0  0  0  0  0  0  0
   23.9144   -0.4983    0.0000 H   0  0  0  0  0  0  0  0  0  0  0  0
   20.4872   -0.5105    0.0000 H   0  0  0  0  0  0  0  0  0  0  0  0
   23.7730    2.4747    0.0000 H   0  0  0  0  0  0  0  0  0  0  0  0
   21.8450    2.5119    0.0000 H   0  0  0  0  0  0  0  0  0  0  0  0
   25.3843    1.2942    0.0000 H   0  0  0  0  0  0  0  0  0  0  0  0
   19.0299   -0.8221    0.0000 H   0  0  0  0  0  0  0  0  0  0  0  0
   18.5778    2.5751    0.0000 H   0  0  0  0  0  0  0  0  0  0  0  0
   16.0651   -1.0846    0.0000 H   0  0  0  0  0  0  0  0  0  0  0  0
   15.7671    0.8206    0.0000 H   0  0  0  0  0  0  0  0  0  0  0  0
   17.4530   -2.5213    0.0000 H   0  0  0  0  0  0  0  0  0  0  0  0
   18.6719    4.2436    0.0000 H   0  0  0  0  0  0  0  0  0  0  0  0
   17.5615    5.9040    0.0000 H   0  0  0  0  0  0  0  0  0  0  0  0
   14.4492    5.8737    0.0000 H   0  0  0  0  0  0  0  0  0  0  0  0
   14.8207    7.7660    0.0000 H   0  0  0  0  0  0  0  0  0  0  0  0
   14.7911    9.4369    0.0000 H   0  0  0  0  0  0  0  0  0  0  0  0
   16.7636   11.6973    0.0000 H   0  0  0  0  0  0  0  0  0  0  0  0
   19.7074   11.1193    0.0000 H   0  0  0  0  0  0  0  0  0  0  0  0
   20.6787    8.2809    0.0000 H   0  0  0  0  0  0  0  0  0  0  0  0
   18.7063    6.0205    0.0000 H   0  0  0  0  0  0  0  0  0  0  0  0
   13.3044    5.7573    0.0000 H   0  0  0  0  0  0  0  0  0  0  0  0
   14.0881    2.4329    0.0000 H   0  0  0  0  0  0  0  0  0  0  0  0
   10.9633    1.0608    0.0000 H   0  0  0  0  0  0  0  0  0  0  0  0
   12.2346    0.3088    0.0000 H   0  0  0  0  0  0  0  0  0  0  0  0
   13.7355    1.5195    0.0000 H   0  0  0  0  0  0  0  0  0  0  0  0
   10.6548    0.8988    0.0000 H   0  0  0  0  0  0  0  0  0  0  0  0
    9.4140    4.0550    0.0000 H   0  0  0  0  0  0  0  0  0  0  0  0
    6.6477    4.5981    0.0000 H   0  0  0  0  0  0  0  0  0  0  0  0
    8.5758    4.5608    0.0000 H   0  0  0  0  0  0  0  0  0  0  0  0
    5.6011    3.0739    0.0000 H   0  0  0  0  0  0  0  0  0  0  0  0
    6.7138   -0.0908    0.0000 H   0  0  0  0  0  0  0  0  0  0  0  0
    4.8603   -2.2149    0.0000 H   0  0  0  0  0  0  0  0  0  0  0  0
    6.3612   -1.0042    0.0000 H   0  0  0  0  0  0  0  0  0  0  0  0
    3.0057    1.6198    0.0000 H   0  0  0  0  0  0  0  0  0  0  0  0
   -0.2127    0.8935    0.0000 H   0  0  0  0  0  0  0  0  0  0  0  0
   -1.0386   -1.6426    0.0000 H   0  0  0  0  0  0  0  0  0  0  0  0
    0.8450   -3.9776    0.0000 H   0  0  0  0  0  0  0  0  0  0  0  0
    3.8089   -3.5139    0.0000 H   0  0  0  0  0  0  0  0  0  0  0  0
    3.0992   -1.6516    0.0000 H   0  0  0  0  0  0  0  0  0  0  0  0
    2.0397    1.5313    0.0000 H   0  0  0  0  0  0  0  0  0  0  0  0
   -1.2105    1.3732    0.0000 H   0  0  0  0  0  0  0  0  0  0  0  0
   -0.6476   -0.3201    0.0000 H   0  0  0  0  0  0  0  0  0  0  0  0
    2.9911    2.6902    0.0000 H   0  0  0  0  0  0  0  0  0  0  0  0
    2.8998    5.3559    0.0000 H   0  0  0  0  0  0  0  0  0  0  0  0
    0.3312    6.9058    0.0000 H   0  0  0  0  0  0  0  0  0  0  0  0
   -2.2954    5.4563    0.0000 H   0  0  0  0  0  0  0  0  0  0  0  0
   -2.3534    2.4569    0.0000 H   0  0  0  0  0  0  0  0  0  0  0  0
   -1.6137    0.6401    0.0000 H   0  0  0  0  0  0  0  0  0  0  0  0
   -0.6606   -2.6144    0.0000 H   0  0  0  0  0  0  0  0  0  0  0  0
   -2.5141   -4.7385    0.0000 H   0  0  0  0  0  0  0  0  0  0  0  0
   -1.0132   -3.5278    0.0000 H   0  0  0  0  0  0  0  0  0  0  0  0
   -3.9721   -6.1437    0.0000 H   0  0  0  0  0  0  0  0  0  0  0  0
   -7.1943   -5.6271    0.0000 H   0  0  0  0  0  0  0  0  0  0  0  0
   -7.7721   -2.5708    0.0000 H   0  0  0  0  0  0  0  0  0  0  0  0
   -4.2752   -4.1752    0.0000 H   0  0  0  0  0  0  0  0  0  0  0  0
   -5.1682   -1.0686    0.0000 H   0  0  0  0  0  0  0  0  0  0  0  0
   -8.1651   -2.7295    0.0000 H   0  0  0  0  0  0  0  0  0  0  0  0
   -9.2861    0.0217    0.0000 H   0  0  0  0  0  0  0  0  0  0  0  0
   -8.3104    0.8087    0.0000 H   0  0  0  0  0  0  0  0  0  0  0  0
   -6.5900    1.2824    0.0000 H   0  0  0  0  0  0  0  0  0  0  0  0
   -5.6340   -0.2244    0.0000 H   0  0  0  0  0  0  0  0  0  0  0  0
   -8.9881   -1.8835    0.0000 H   0  0  0  0  0  0  0  0  0  0  0  0
   -8.0349   -5.1381    0.0000 H   0  0  0  0  0  0  0  0  0  0  0  0
   -9.8884   -7.2622    0.0000 H   0  0  0  0  0  0  0  0  0  0  0  0
   -8.3875   -6.0515    0.0000 H   0  0  0  0  0  0  0  0  0  0  0  0
  -11.8816   -7.3937    0.0000 H   0  0  0  0  0  0  0  0  0  0  0  0
  -12.9216   -6.1048    0.0000 H   0  0  0  0  0  0  0  0  0  0  0  0
  -12.1734   -4.7448    0.0000 H   0  0  0  0  0  0  0  0  0  0  0  0
   -9.9481   -6.5387    0.0000 H   0  0  0  0  0  0  0  0  0  0  0  0
  -10.8113   -8.0272    0.0000 H   0  0  0  0  0  0  0  0  0  0  0  0
  -11.8294   -8.6363    0.0000 H   0  0  0  0  0  0  0  0  0  0  0  0
  -13.8288   -8.4576    0.0000 H   0  0  0  0  0  0  0  0  0  0  0  0
  -14.7228   -7.6775    0.0000 H   0  0  0  0  0  0  0  0  0  0  0  0
  -15.2498   -5.8860    0.0000 H   0  0  0  0  0  0  0  0  0  0  0  0
  -12.9824   -3.5989    0.0000 H   0  0  0  0  0  0  0  0  0  0  0  0
  -13.9407   -2.1464    0.0000 H   0  0  0  0  0  0  0  0  0  0  0  0
  -16.6589   -4.2146    0.0000 H   0  0  0  0  0  0  0  0  0  0  0  0
  -19.3533   -3.3853    0.0000 H   0  0  0  0  0  0  0  0  0  0  0  0
  -17.6367   -4.2640    0.0000 H   0  0  0  0  0  0  0  0  0  0  0  0
  -16.6248    0.0507    0.0000 H   0  0  0  0  0  0  0  0  0  0  0  0
  -18.5770    2.5135    0.0000 H   0  0  0  0  0  0  0  0  0  0  0  0
  -22.7074    1.9787    0.0000 H   0  0  0  0  0  0  0  0  0  0  0  0
  -22.5968   -0.4340    0.0000 H   0  0  0  0  0  0  0  0  0  0  0  0
  -20.9676   -2.9531    0.0000 H   0  0  0  0  0  0  0  0  0  0  0  0
  -19.5550   -1.5473    0.0000 H   0  0  0  0  0  0  0  0  0  0  0  0
  -17.0801    0.5321    0.0000 H   0  0  0  0  0  0  0  0  0  0  0  0
  -18.7254    3.5902    0.0000 H   0  0  0  0  0  0  0  0  0  0  0  0
  -19.8626    2.4171    0.0000 H   0  0  0  0  0  0  0  0  0  0  0  0
  -15.5127    2.6040    0.0000 H   0  0  0  0  0  0  0  0  0  0  0  0
  -16.4984    1.3010    0.0000 H   0  0  0  0  0  0  0  0  0  0  0  0
  -17.1579    5.6622    0.0000 H   0  0  0  0  0  0  0  0  0  0  0  0
  -18.3194    4.3075    0.0000 H   0  0  0  0  0  0  0  0  0  0  0  0
  -15.2557    6.2720    0.0000 H   0  0  0  0  0  0  0  0  0  0  0  0
  -13.9433    4.8592    0.0000 H   0  0  0  0  0  0  0  0  0  0  0  0
  -14.9309    3.3730    0.0000 H   0  0  0  0  0  0  0  0  0  0  0  0
  -19.3783    3.6903    0.0000 H   0  0  0  0  0  0  0  0  0  0  0  0
  -21.9638    1.4958    0.0000 H   0  0  0  0  0  0  0  0  0  0  0  0
  -24.5767    2.1610    0.0000 H   0  0  0  0  0  0  0  0  0  0  0  0
  -23.1224    1.4165    0.0000 H   0  0  0  0  0  0  0  0  0  0  0  0
  -23.0100    5.2082    0.0000 H   0  0  0  0  0  0  0  0  0  0  0  0
  -26.5510    5.2433    0.0000 H   0  0  0  0  0  0  0  0  0  0  0  0
  -26.9708    3.5090    0.0000 H   0  0  0  0  0  0  0  0  0  0  0  0
  -25.4350    2.6004    0.0000 H   0  0  0  0  0  0  0  0  0  0  0  0
  -25.7947    6.2430    0.0000 H   0  0  0  0  0  0  0  0  0  0  0  0
  -24.2400    7.1188    0.0000 H   0  0  0  0  0  0  0  0  0  0  0  0
  -22.9275    5.7060    0.0000 H   0  0  0  0  0  0  0  0  0  0  0  0
  1  2  1  0
  2  3  1  0
  3  4  1  0
  4  5  2  0
  4  6  1  0
  6  7  1  0
  7  8  1  0
  8  9  1  0
  9 10  1  0
  9 11  2  0
  7 12  1  0
 12 13  2  0
 12 14  1  0
 14 15  1  0
 15 16  1  0
 16 17  1  0
 15 18  1  0
 18 19  2  0
 18 20  1  0
 20 21  1  0
 21 22  1  0
 22 23  1  0
 21 24  1  0
 24 25  2  0
 24 26  1  0
 26 27  1  0
 27 28  1  0
 28 29  1  0
 29 30  2  0
 30 31  1  0
 31 32  2  0
 32 33  1  0
 33 34  2  0
 27 35  1  0
 35 36  2  0
 35 37  1  0
 37 38  1  0
 38 39  1  0
 38 40  1  0
 40 41  2  0
 40 42  1  0
 42 43  1  0
 43 44  1  0
 44 45  1  0
 45 46  2  0
 45 47  1  0
 43 48  1  0
 48 49  2  0
 48 50  1  0
 50 51  1  0
 51 52  1  0
 52 53  1  0
 53 54  2  0
 54 55  1  0
 55 56  2  0
 56 57  1  0
 57 58  2  0
 51 59  1  0
 59 60  2  0
 59 61  1  0
 61 62  1  0
 62 63  1  0
 63 64  1  0
 64 65  2  0
 65 66  1  0
 66 67  2  0
 67 68  1  0
 68 69  2  0
 62 70  1  0
 70 71  2  0
 70 72  1  0
 72 73  1  0
 73 74  1  0
 74 75  1  0
 75 76  2  0
 76 77  1  0
 77 78  1  0
 78 79  2  0
 73 80  1  0
 80 81  2  0
 80 82  1  0
 82 83  1  0
 83 84  1  0
 84 85  1  0
 84 86  1  0
 83 87  1  0
 87 88  2  0
 87 89  1  0
 89 90  1  0
 90 91  1  0
 91 92  1  0
 90 93  1  0
 93 94  2  0
 93 95  1  0
 95 96  1  0
 96 97  1  0
 97 98  1  0
 98 99  1  0
 99100  1  0
100101  2  0
100102  1  0
102103  1  0
103104  1  0
104105  1  0
105106  2  0
106107  1  0
107108  2  0
108109  1  0
108110  1  0
110111  2  0
103112  1  0
112113  2  0
112114  1  0
114115  1  0
115116  1  0
116117  1  0
117118  1  0
118119  1  0
115120  1  0
120121  2  0
120122  1  0
122123  1  0
123124  1  0
124125  1  0
125126  1  0
125127  1  0
123128  1  0
128129  2  0
128130  1  0
 34 29  1  0
 58 53  1  0
 69 64  1  0
 79 75  1  0
 99 95  1  0
111105  1  0
  1131  1  0
  1132  1  0
  2133  1  0
  2134  1  0
  3135  1  0
  3136  1  0
  6137  1  0
  7138  1  1
  8139  1  0
  8140  1  0
 10141  1  0
 10142  1  0
 14143  1  0
 15144  1  6
 16145  1  0
 16146  1  0
 17147  1  0
 20148  1  0
 21149  1  1
 22150  1  0
 22151  1  0
 23152  1  0
 26153  1  0
 27154  1  6
 28155  1  0
 28156  1  0
 30157  1  0
 31158  1  0
 32159  1  0
 33160  1  0
 34161  1  0
 37162  1  0
 38163  1  1
 39164  1  0
 39165  1  0
 39166  1  0
 42167  1  0
 43168  1  6
 44169  1  0
 44170  1  0
 50171  1  0
 51172  1  1
 52173  1  0
 52174  1  0
 54175  1  0
 55176  1  0
 56177  1  0
 57178  1  0
 58179  1  0
 61180  1  0
 62181  1  6
 63182  1  0
 63183  1  0
 65184  1  0
 66185  1  0
 67186  1  0
 68187  1  0
 69188  1  0
 72189  1  0
 73190  1  1
 74191  1  0
 74192  1  0
 76193  1  0
 77194  1  0
 78195  1  0
 82196  1  0
 83197  1  6
 84198  1  1
 85199  1  0
 86200  1  0
 86201  1  0
 86202  1  0
 89203  1  0
 90204  1  1
 91205  1  0
 91206  1  0
 92207  1  0
 92208  1  0
 92209  1  0
 96210  1  0
 96211  1  0
 97212  1  0
 97213  1  0
 98214  1  0
 98215  1  0
 99216  1  0
102217  1  0
103218  1  1
104219  1  0
104220  1  0
106221  1  0
107222  1  0
109223  1  0
110224  1  0
111225  1  0
114226  1  0
115227  1  1
116228  1  0
116229  1  0
117230  1  0
117231  1  0
118232  1  0
118233  1  0
119234  1  0
119235  1  0
119236  1  0
122237  1  0
123238  1  1
124239  1  0
124240  1  0
125241  1  0
126242  1  0
126243  1  0
126244  1  0
127245  1  0
127246  1  0
127247  1  0
M  CHG  2  47  -1 130  -1
M  END
