
     RDKit          2D

274276  0  0  0  0  0  0  0  0999 V2000
  -23.0980    3.1911    0.0000 N   0  0  0  0  0  0  0  0  0  0  0  0
  -22.8729    1.7081    0.0000 C   0  0  0  0  0  0  0  0  0  0  0  0
  -21.4760    1.1616    0.0000 C   0  0  0  0  0  0  0  0  0  0  0  0
  -21.2508   -0.3214    0.0000 O   0  0  0  0  0  0  0  0  0  0  0  0
  -19.8539   -0.8680    0.0000 C   0  0  0  0  0  0  0  0  0  0  0  0
  -19.6288   -2.3510    0.0000 C   0  0  0  0  0  0  0  0  0  0  0  0
  -18.2319   -2.8975    0.0000 O   0  0  0  0  0  0  0  0  0  0  0  0
  -18.0068   -4.3805    0.0000 C   0  0  0  0  0  0  0  0  0  0  0  0
  -16.6099   -4.9270    0.0000 C   0  0  0  0  0  0  0  0  0  0  0  0
  -15.4381   -3.9906    0.0000 O   0  0  0  0  0  0  0  0  0  0  0  0
  -16.3847   -6.4100    0.0000 N   0  0  0  0  0  0  0  0  0  0  0  0
  -14.9878   -6.9566    0.0000 C   0  0  0  0  0  0  0  0  0  0  0  0
  -15.7686   -8.2373    0.0000 C   0  0  0  0  0  0  0  0  0  0  0  0
  -17.2682   -8.2015    0.0000 C   0  0  0  0  0  0  0  0  0  0  0  0
  -18.0490   -9.4823    0.0000 N   0  0  0  0  0  0  0  0  0  0  0  0
  -18.1421   -6.9824    0.0000 O   0  0  0  0  0  0  0  0  0  0  0  0
  -13.4883   -6.9924    0.0000 C   0  0  0  0  0  0  0  0  0  0  0  0
  -12.9353   -8.3867    0.0000 O   0  0  0  0  0  0  0  0  0  0  0  0
  -12.7075   -5.7116    0.0000 N   0  0  0  0  0  0  0  0  0  0  0  0
  -11.2079   -5.7474    0.0000 C   0  0  0  0  0  0  0  0  0  0  0  0
  -11.5036   -7.2180    0.0000 C   0  0  0  0  0  0  0  0  0  0  0  0
  -10.3778   -8.2093    0.0000 C   0  0  0  0  0  0  0  0  0  0  0  0
  -10.6735   -9.6799    0.0000 C   0  0  0  0  0  0  0  0  0  0  0  0
   -9.5478  -10.6712    0.0000 N   0  0  0  0  0  0  0  0  0  0  0  0
  -12.0949  -10.1591    0.0000 O   0  0  0  0  0  0  0  0  0  0  0  0
   -9.7865   -5.2682    0.0000 C   0  0  0  0  0  0  0  0  0  0  0  0
   -8.6608   -6.2595    0.0000 O   0  0  0  0  0  0  0  0  0  0  0  0
   -9.4909   -3.7976    0.0000 N   0  0  0  0  0  0  0  0  0  0  0  0
   -8.0695   -3.3184    0.0000 C   0  0  0  0  0  0  0  0  0  0  0  0
   -8.7883   -2.0018    0.0000 C   0  0  0  0  0  0  0  0  0  0  0  0
  -10.2878   -1.9660    0.0000 C   0  0  0  0  0  0  0  0  0  0  0  0
  -11.0066   -0.6494    0.0000 C   0  0  0  0  0  0  0  0  0  0  0  0
  -11.7092   -2.4452    0.0000 C   0  0  0  0  0  0  0  0  0  0  0  0
   -6.5699   -3.3542    0.0000 C   0  0  0  0  0  0  0  0  0  0  0  0
   -6.0170   -4.7485    0.0000 O   0  0  0  0  0  0  0  0  0  0  0  0
   -5.7891   -2.0734    0.0000 N   0  0  0  0  0  0  0  0  0  0  0  0
   -4.2895   -2.1092    0.0000 C   0  0  0  0  0  0  0  0  0  0  0  0
   -3.4099   -3.3242    0.0000 C   0  0  0  0  0  0  0  0  0  0  0  0
   -2.3162   -4.3507    0.0000 C   0  0  0  0  0  0  0  0  0  0  0  0
   -1.0480   -5.1517    0.0000 C   0  0  0  0  0  0  0  0  0  0  0  0
    0.3489   -5.6983    0.0000 C   0  0  0  0  0  0  0  0  0  0  0  0
    1.8240   -5.9706    0.0000 C   0  0  0  0  0  0  0  0  0  0  0  0
    3.3240   -5.9588    0.0000 C   0  0  0  0  0  0  0  0  0  0  0  0
    4.7946   -5.6633    0.0000 C   0  0  0  0  0  0  0  0  0  0  0  0
   -5.1442   -3.3419    0.0000 C   0  0  0  0  0  0  0  0  0  0  0  0
   -4.9234   -0.7497    0.0000 C   0  0  0  0  0  0  0  0  0  0  0  0
   -6.3876   -1.0754    0.0000 O   0  0  0  0  0  0  0  0  0  0  0  0
   -5.2885    0.7052    0.0000 N   0  0  0  0  0  0  0  0  0  0  0  0
   -5.3716    2.2029    0.0000 C   0  0  0  0  0  0  0  0  0  0  0  0
   -6.6766    1.4633    0.0000 C   0  0  0  0  0  0  0  0  0  0  0  0
   -7.9696    2.2237    0.0000 C   0  0  0  0  0  0  0  0  0  0  0  0
   -7.9576    3.7236    0.0000 C   0  0  0  0  0  0  0  0  0  0  0  0
   -9.2506    4.4840    0.0000 N   0  0  0  0  0  0  0  0  0  0  0  0
   -9.2386    5.9840    0.0000 C   0  0  0  0  0  0  0  0  0  0  0  0
  -10.5316    6.7443    0.0000 N   0  0  0  0  0  0  0  0  0  0  0  0
   -7.9336    6.7236    0.0000 N   0  0  0  0  0  0  0  0  0  0  0  0
   -5.1698    3.6893    0.0000 C   0  0  0  0  0  0  0  0  0  0  0  0
   -6.6611    3.8509    0.0000 O   0  0  0  0  0  0  0  0  0  0  0  0
   -4.6904    5.1106    0.0000 N   0  0  0  0  0  0  0  0  0  0  0  0
   -3.9506    6.4155    0.0000 C   0  0  0  0  0  0  0  0  0  0  0  0
   -5.4483    6.4988    0.0000 C   0  0  0  0  0  0  0  0  0  0  0  0
   -6.1250    7.8376    0.0000 O   0  0  0  0  0  0  0  0  0  0  0  0
   -2.9773    7.5568    0.0000 C   0  0  0  0  0  0  0  0  0  0  0  0
   -4.0209    8.6342    0.0000 O   0  0  0  0  0  0  0  0  0  0  0  0
   -1.8055    8.4933    0.0000 N   0  0  0  0  0  0  0  0  0  0  0  0
   -0.4777    9.1911    0.0000 C   0  0  0  0  0  0  0  0  0  0  0  0
   -1.6926   10.0709    0.0000 C   0  0  0  0  0  0  0  0  0  0  0  0
   -1.5381   11.5629    0.0000 C   0  0  0  0  0  0  0  0  0  0  0  0
   -0.1687   12.1751    0.0000 C   0  0  0  0  0  0  0  0  0  0  0  0
   -0.0141   13.6671    0.0000 C   0  0  0  0  0  0  0  0  0  0  0  0
   -1.2290   14.5470    0.0000 C   0  0  0  0  0  0  0  0  0  0  0  0
   -2.5984   13.9348    0.0000 C   0  0  0  0  0  0  0  0  0  0  0  0
   -2.7529   12.4428    0.0000 C   0  0  0  0  0  0  0  0  0  0  0  0
    0.9582    9.6250    0.0000 C   0  0  0  0  0  0  0  0  0  0  0  0
    0.8442   11.1206    0.0000 O   0  0  0  0  0  0  0  0  0  0  0  0
    2.4502    9.7793    0.0000 N   0  0  0  0  0  0  0  0  0  0  0  0
    3.9445    9.6485    0.0000 C   0  0  0  0  0  0  0  0  0  0  0  0
    3.3981   11.0454    0.0000 C   0  0  0  0  0  0  0  0  0  0  0  0
    4.3348   12.2170    0.0000 C   0  0  0  0  0  0  0  0  0  0  0  0
    5.8178   11.9917    0.0000 C   0  0  0  0  0  0  0  0  0  0  0  0
    6.7544   13.1633    0.0000 C   0  0  0  0  0  0  0  0  0  0  0  0
    6.2081   14.5603    0.0000 C   0  0  0  0  0  0  0  0  0  0  0  0
    4.7251   14.7856    0.0000 C   0  0  0  0  0  0  0  0  0  0  0  0
    3.7885   13.6140    0.0000 C   0  0  0  0  0  0  0  0  0  0  0  0
    5.3870    9.2372    0.0000 C   0  0  0  0  0  0  0  0  0  0  0  0
    6.0997   10.5570    0.0000 O   0  0  0  0  0  0  0  0  0  0  0  0
    6.7256    8.5604    0.0000 N   0  0  0  0  0  0  0  0  0  0  0  0
    7.9119    7.6424    0.0000 C   0  0  0  0  0  0  0  0  0  0  0  0
    8.2076    9.1130    0.0000 C   0  0  0  0  0  0  0  0  0  0  0  0
    8.9031    6.5166    0.0000 C   0  0  0  0  0  0  0  0  0  0  0  0
   10.1181    7.3962    0.0000 O   0  0  0  0  0  0  0  0  0  0  0  0
    9.6633    5.2234    0.0000 N   0  0  0  0  0  0  0  0  0  0  0  0
   10.1650    3.8098    0.0000 C   0  0  0  0  0  0  0  0  0  0  0  0
   11.2088    4.8871    0.0000 C   0  0  0  0  0  0  0  0  0  0  0  0
   12.6637    4.5218    0.0000 C   0  0  0  0  0  0  0  0  0  0  0  0
   13.7074    5.5991    0.0000 C   0  0  0  0  0  0  0  0  0  0  0  0
   13.9058    3.6810    0.0000 C   0  0  0  0  0  0  0  0  0  0  0  0
   10.3902    2.3268    0.0000 C   0  0  0  0  0  0  0  0  0  0  0  0
   11.8868    2.2268    0.0000 O   0  0  0  0  0  0  0  0  0  0  0  0
   10.3306    0.8280    0.0000 N   0  0  0  0  0  0  0  0  0  0  0  0
    9.9884   -0.6324    0.0000 C   0  0  0  0  0  0  0  0  0  0  0  0
    9.3761   -2.0017    0.0000 C   0  0  0  0  0  0  0  0  0  0  0  0
    8.5156   -3.2304    0.0000 C   0  0  0  0  0  0  0  0  0  0  0  0
    7.4382   -4.2740    0.0000 C   0  0  0  0  0  0  0  0  0  0  0  0
    6.1827   -5.0949    0.0000 C   0  0  0  0  0  0  0  0  0  0  0  0
   11.0773   -1.6641    0.0000 C   0  0  0  0  0  0  0  0  0  0  0  0
   11.4489   -0.2905    0.0000 C   0  0  0  0  0  0  0  0  0  0  0  0
   12.0548    1.0817    0.0000 O   0  0  0  0  0  0  0  0  0  0  0  0
   12.4753   -1.3843    0.0000 N   0  0  0  0  0  0  0  0  0  0  0  0
   13.9358   -1.0424    0.0000 C   0  0  0  0  0  0  0  0  0  0  0  0
   15.1913   -0.2215    0.0000 C   0  0  0  0  0  0  0  0  0  0  0  0
   16.5299   -0.8983    0.0000 C   0  0  0  0  0  0  0  0  0  0  0  0
   17.7854   -0.0775    0.0000 O   0  0  0  0  0  0  0  0  0  0  0  0
   16.6708   -1.6829    0.0000 O   0  0  0  0  0  0  0  0  0  0  0  0
   14.9622   -2.1362    0.0000 C   0  0  0  0  0  0  0  0  0  0  0  0
   15.7548   -2.0504    0.0000 O   0  0  0  0  0  0  0  0  0  0  0  0
   14.5281   -3.5720    0.0000 N   0  0  0  0  0  0  0  0  0  0  0  0
   15.5545   -4.6659    0.0000 C   0  0  0  0  0  0  0  0  0  0  0  0
   16.8931   -5.3427    0.0000 C   0  0  0  0  0  0  0  0  0  0  0  0
   16.9763   -6.8404    0.0000 C   0  0  0  0  0  0  0  0  0  0  0  0
   18.3149   -7.5172    0.0000 C   0  0  0  0  0  0  0  0  0  0  0  0
   18.5800   -8.9936    0.0000 N   0  0  0  0  0  0  0  0  0  0  0  0
   19.5704   -6.6964    0.0000 O   0  0  0  0  0  0  0  0  0  0  0  0
   15.1204   -6.1017    0.0000 C   0  0  0  0  0  0  0  0  0  0  0  0
   13.6599   -6.4436    0.0000 O   0  0  0  0  0  0  0  0  0  0  0  0
   16.1468   -7.1955    0.0000 N   0  0  0  0  0  0  0  0  0  0  0  0
   15.7127   -8.6313    0.0000 C   0  0  0  0  0  0  0  0  0  0  0  0
   14.8137   -9.8321    0.0000 C   0  0  0  0  0  0  0  0  0  0  0  0
   15.4041  -11.2110    0.0000 C   0  0  0  0  0  0  0  0  0  0  0  0
   13.5582  -10.6529    0.0000 C   0  0  0  0  0  0  0  0  0  0  0  0
   12.2196   -9.9761    0.0000 C   0  0  0  0  0  0  0  0  0  0  0  0
   16.7391   -9.7252    0.0000 C   0  0  0  0  0  0  0  0  0  0  0  0
   16.4833  -11.2032    0.0000 O   0  0  0  0  0  0  0  0  0  0  0  0
   18.2304   -9.5638    0.0000 O   0  0  0  0  0  0  0  0  0  0  0  0
  -24.4949    3.7376    0.0000 H   0  0  0  0  0  0  0  0  0  0  0  0
  -21.9263    4.1276    0.0000 H   0  0  0  0  0  0  0  0  0  0  0  0
  -24.3724    1.7439    0.0000 H   0  0  0  0  0  0  0  0  0  0  0  0
  -23.1685    0.2375    0.0000 H   0  0  0  0  0  0  0  0  0  0  0  0
  -21.1803    2.6321    0.0000 H   0  0  0  0  0  0  0  0  0  0  0  0
  -19.9832    1.3088    0.0000 H   0  0  0  0  0  0  0  0  0  0  0  0
  -19.3812    0.5556    0.0000 H   0  0  0  0  0  0  0  0  0  0  0  0
  -18.3544   -0.9038    0.0000 H   0  0  0  0  0  0  0  0  0  0  0  0
  -21.1284   -2.3152    0.0000 H   0  0  0  0  0  0  0  0  0  0  0  0
  -20.1015   -3.7745    0.0000 H   0  0  0  0  0  0  0  0  0  0  0  0
  -19.4995   -4.5278    0.0000 H   0  0  0  0  0  0  0  0  0  0  0  0
  -18.3024   -5.8511    0.0000 H   0  0  0  0  0  0  0  0  0  0  0  0
  -17.6619   -7.1967    0.0000 H   0  0  0  0  0  0  0  0  0  0  0  0
  -14.6922   -5.4860    0.0000 H   0  0  0  0  0  0  0  0  0  0  0  0
  -16.0643   -9.7079    0.0000 H   0  0  0  0  0  0  0  0  0  0  0  0
  -14.3717   -8.7839    0.0000 H   0  0  0  0  0  0  0  0  0  0  0  0
  -19.5486   -9.4465    0.0000 H   0  0  0  0  0  0  0  0  0  0  0  0
  -17.3302  -10.7989    0.0000 H   0  0  0  0  0  0  0  0  0  0  0  0
  -13.4263   -4.3950    0.0000 H   0  0  0  0  0  0  0  0  0  0  0  0
  -11.6121   -4.3029    0.0000 H   0  0  0  0  0  0  0  0  0  0  0  0
  -12.1224   -8.5844    0.0000 H   0  0  0  0  0  0  0  0  0  0  0  0
  -12.9912   -7.0257    0.0000 H   0  0  0  0  0  0  0  0  0  0  0  0
   -8.9809   -8.7558    0.0000 H   0  0  0  0  0  0  0  0  0  0  0  0
   -9.5970   -6.9285    0.0000 H   0  0  0  0  0  0  0  0  0  0  0  0
   -9.8434  -12.1418    0.0000 H   0  0  0  0  0  0  0  0  0  0  0  0
   -8.1264  -10.1920    0.0000 H   0  0  0  0  0  0  0  0  0  0  0  0
  -10.7290   -2.9509    0.0000 H   0  0  0  0  0  0  0  0  0  0  0  0
   -7.8443   -4.8014    0.0000 H   0  0  0  0  0  0  0  0  0  0  0  0
   -8.8310   -0.5024    0.0000 H   0  0  0  0  0  0  0  0  0  0  0  0
   -7.3669   -1.5225    0.0000 H   0  0  0  0  0  0  0  0  0  0  0  0
  -10.6092   -3.4311    0.0000 H   0  0  0  0  0  0  0  0  0  0  0  0
  -12.4906   -0.4311    0.0000 H   0  0  0  0  0  0  0  0  0  0  0  0
  -11.2318    0.8336    0.0000 H   0  0  0  0  0  0  0  0  0  0  0  0
   -9.6543   -0.0005    0.0000 H   0  0  0  0  0  0  0  0  0  0  0  0
  -12.1819   -3.8688    0.0000 H   0  0  0  0  0  0  0  0  0  0  0  0
  -13.2088   -2.4094    0.0000 H   0  0  0  0  0  0  0  0  0  0  0  0
  -12.1135   -1.0007    0.0000 H   0  0  0  0  0  0  0  0  0  0  0  0
   -6.6630   -0.8543    0.0000 H   0  0  0  0  0  0  0  0  0  0  0  0
   -4.0158   -4.6964    0.0000 H   0  0  0  0  0  0  0  0  0  0  0  0
   -4.8478   -3.7513    0.0000 H   0  0  0  0  0  0  0  0  0  0  0  0
   -2.6514   -5.8128    0.0000 H   0  0  0  0  0  0  0  0  0  0  0  0
   -3.6473   -5.0422    0.0000 H   0  0  0  0  0  0  0  0  0  0  0  0
   -1.1005   -6.6508    0.0000 H   0  0  0  0  0  0  0  0  0  0  0  0
   -2.2241   -6.0827    0.0000 H   0  0  0  0  0  0  0  0  0  0  0  0
    0.5811   -7.1802    0.0000 H   0  0  0  0  0  0  0  0  0  0  0  0
   -0.6298   -6.8350    0.0000 H   0  0  0  0  0  0  0  0  0  0  0  0
    2.3324   -7.3818    0.0000 H   0  0  0  0  0  0  0  0  0  0  0  0
    1.0781   -7.2719    0.0000 H   0  0  0  0  0  0  0  0  0  0  0  0
    4.2417   -7.1452    0.0000 H   0  0  0  0  0  0  0  0  0  0  0  0
    2.8378   -7.3778    0.0000 H   0  0  0  0  0  0  0  0  0  0  0  0
    5.2285   -7.0992    0.0000 H   0  0  0  0  0  0  0  0  0  0  0  0
   -6.4091   -3.8165    0.0000 H   0  0  0  0  0  0  0  0  0  0  0  0
   -4.9962   -4.9170    0.0000 H   0  0  0  0  0  0  0  0  0  0  0  0
   -3.7394   -4.2610    0.0000 H   0  0  0  0  0  0  0  0  0  0  0  0
   -6.7330    0.3010    0.0000 H   0  0  0  0  0  0  0  0  0  0  0  0
   -6.5020    3.1889    0.0000 H   0  0  0  0  0  0  0  0  0  0  0  0
   -7.7818    0.4492    0.0000 H   0  0  0  0  0  0  0  0  0  0  0  0
   -6.0299    0.1099    0.0000 H   0  0  0  0  0  0  0  0  0  0  0  0
   -9.4447    2.4960    0.0000 H   0  0  0  0  0  0  0  0  0  0  0  0
   -8.4939    0.8183    0.0000 H   0  0  0  0  0  0  0  0  0  0  0  0
   -7.4333    5.1290    0.0000 H   0  0  0  0  0  0  0  0  0  0  0  0
   -6.4825    3.4514    0.0000 H   0  0  0  0  0  0  0  0  0  0  0  0
  -10.5556    3.7444    0.0000 H   0  0  0  0  0  0  0  0  0  0  0  0
  -10.5196    8.2443    0.0000 H   0  0  0  0  0  0  0  0  0  0  0  0
  -11.8366    6.0048    0.0000 H   0  0  0  0  0  0  0  0  0  0  0  0
   -8.1045    8.2138    0.0000 H   0  0  0  0  0  0  0  0  0  0  0  0
   -6.8630    5.6729    0.0000 H   0  0  0  0  0  0  0  0  0  0  0  0
   -6.1672    5.3734    0.0000 H   0  0  0  0  0  0  0  0  0  0  0  0
   -4.5410    7.7944    0.0000 H   0  0  0  0  0  0  0  0  0  0  0  0
   -6.8842    6.0649    0.0000 H   0  0  0  0  0  0  0  0  0  0  0  0
   -5.6360    5.0106    0.0000 H   0  0  0  0  0  0  0  0  0  0  0  0
   -7.6013    8.1029    0.0000 H   0  0  0  0  0  0  0  0  0  0  0  0
   -2.7733    9.6393    0.0000 H   0  0  0  0  0  0  0  0  0  0  0  0
   -0.2289   10.6703    0.0000 H   0  0  0  0  0  0  0  0  0  0  0  0
   -3.0742   10.6550    0.0000 H   0  0  0  0  0  0  0  0  0  0  0  0
   -2.6551    8.9204    0.0000 H   0  0  0  0  0  0  0  0  0  0  0  0
    1.1444   11.4499    0.0000 H   0  0  0  0  0  0  0  0  0  0  0  0
    1.3553   14.2793    0.0000 H   0  0  0  0  0  0  0  0  0  0  0  0
   -1.0745   16.0390    0.0000 H   0  0  0  0  0  0  0  0  0  0  0  0
   -3.8132   14.8146    0.0000 H   0  0  0  0  0  0  0  0  0  0  0  0
   -4.1223   11.8306    0.0000 H   0  0  0  0  0  0  0  0  0  0  0  0
    2.2556   11.2666    0.0000 H   0  0  0  0  0  0  0  0  0  0  0  0
    4.9535   10.7583    0.0000 H   0  0  0  0  0  0  0  0  0  0  0  0
    2.5516   12.2837    0.0000 H   0  0  0  0  0  0  0  0  0  0  0  0
    1.9664   10.5980    0.0000 H   0  0  0  0  0  0  0  0  0  0  0  0
    6.5303   10.6717    0.0000 H   0  0  0  0  0  0  0  0  0  0  0  0
    8.2374   12.9380    0.0000 H   0  0  0  0  0  0  0  0  0  0  0  0
    7.1447   15.7319    0.0000 H   0  0  0  0  0  0  0  0  0  0  0  0
    4.1788   16.1826    0.0000 H   0  0  0  0  0  0  0  0  0  0  0  0
    2.3055   13.8394    0.0000 H   0  0  0  0  0  0  0  0  0  0  0  0
    7.3661    9.9168    0.0000 H   0  0  0  0  0  0  0  0  0  0  0  0
    9.3609    8.0305    0.0000 H   0  0  0  0  0  0  0  0  0  0  0  0
    9.6290    9.5922    0.0000 H   0  0  0  0  0  0  0  0  0  0  0  0
    8.1649   10.6124    0.0000 H   0  0  0  0  0  0  0  0  0  0  0  0
    6.7613    9.5106    0.0000 H   0  0  0  0  0  0  0  0  0  0  0  0
   10.9354    6.0183    0.0000 H   0  0  0  0  0  0  0  0  0  0  0  0
   11.5274    3.1823    0.0000 H   0  0  0  0  0  0  0  0  0  0  0  0
   11.8212    6.2564    0.0000 H   0  0  0  0  0  0  0  0  0  0  0  0
   10.2070    6.0036    0.0000 H   0  0  0  0  0  0  0  0  0  0  0  0
   12.4008    3.0450    0.0000 H   0  0  0  0  0  0  0  0  0  0  0  0
   15.1959    5.4139    0.0000 H   0  0  0  0  0  0  0  0  0  0  0  0
   14.3198    6.9684    0.0000 H   0  0  0  0  0  0  0  0  0  0  0  0
   12.5770    6.5851    0.0000 H   0  0  0  0  0  0  0  0  0  0  0  0
   15.3249    4.1670    0.0000 H   0  0  0  0  0  0  0  0  0  0  0  0
   14.7855    2.4660    0.0000 H   0  0  0  0  0  0  0  0  0  0  0  0
   12.8620    2.6037    0.0000 H   0  0  0  0  0  0  0  0  0  0  0  0
   11.8305    0.8089    0.0000 H   0  0  0  0  0  0  0  0  0  0  0  0
   10.8709   -2.1255    0.0000 H   0  0  0  0  0  0  0  0  0  0  0  0
   10.0948   -3.3183    0.0000 H   0  0  0  0  0  0  0  0  0  0  0  0
    9.9000   -3.8079    0.0000 H   0  0  0  0  0  0  0  0  0  0  0  0
    9.1430   -4.5929    0.0000 H   0  0  0  0  0  0  0  0  0  0  0  0
    8.7800   -4.9445    0.0000 H   0  0  0  0  0  0  0  0  0  0  0  0
    7.6161   -5.7634    0.0000 H   0  0  0  0  0  0  0  0  0  0  0  0
    6.8805   -6.4227    0.0000 H   0  0  0  0  0  0  0  0  0  0  0  0
   10.8090   -3.3083    0.0000 H   0  0  0  0  0  0  0  0  0  0  0  0
   12.1198   -2.6842    0.0000 H   0  0  0  0  0  0  0  0  0  0  0  0
   12.1377   -0.8812    0.0000 H   0  0  0  0  0  0  0  0  0  0  0  0
   12.2195   -2.8623    0.0000 H   0  0  0  0  0  0  0  0  0  0  0  0
   13.3454    0.3366    0.0000 H   0  0  0  0  0  0  0  0  0  0  0  0
   16.0903    0.9792    0.0000 H   0  0  0  0  0  0  0  0  0  0  0  0
   14.1649    0.8724    0.0000 H   0  0  0  0  0  0  0  0  0  0  0  0
   13.0676   -3.9140    0.0000 H   0  0  0  0  0  0  0  0  0  0  0  0
   16.4535   -3.4651    0.0000 H   0  0  0  0  0  0  0  0  0  0  0  0
   18.3825   -5.5209    0.0000 H   0  0  0  0  0  0  0  0  0  0  0  0
   17.3272   -3.9069    0.0000 H   0  0  0  0  0  0  0  0  0  0  0  0
   16.5422   -8.2762    0.0000 H   0  0  0  0  0  0  0  0  0  0  0  0
   15.5776   -7.3824    0.0000 H   0  0  0  0  0  0  0  0  0  0  0  0
   19.7367   -9.6918    0.0000 H   0  0  0  0  0  0  0  0  0  0  0  0
   17.5400  -10.2951    0.0000 H   0  0  0  0  0  0  0  0  0  0  0  0
   17.6467   -7.2171    0.0000 H   0  0  0  0  0  0  0  0  0  0  0  0
   14.3741   -7.9545    0.0000 H   0  0  0  0  0  0  0  0  0  0  0  0
   13.9283   -8.6213    0.0000 H   0  0  0  0  0  0  0  0  0  0  0  0
   14.6581  -12.5124    0.0000 H   0  0  0  0  0  0  0  0  0  0  0  0
   16.4305  -12.3049    0.0000 H   0  0  0  0  0  0  0  0  0  0  0  0
   16.8980  -11.0758    0.0000 H   0  0  0  0  0  0  0  0  0  0  0  0
   12.6592  -11.8537    0.0000 H   0  0  0  0  0  0  0  0  0  0  0  0
   14.4436  -11.8638    0.0000 H   0  0  0  0  0  0  0  0  0  0  0  0
   10.9642  -10.7970    0.0000 H   0  0  0  0  0  0  0  0  0  0  0  0
   11.1932   -8.8823    0.0000 H   0  0  0  0  0  0  0  0  0  0  0  0
   12.9656   -8.6747    0.0000 H   0  0  0  0  0  0  0  0  0  0  0  0
  1  2  1  0
  2  3  1  0
  3  4  1  0
  4  5  1  0
  5  6  1  0
  6  7  1  0
  7  8  1  0
  8  9  1  0
  9 10  2  0
  9 11  1  0
 11 12  1  0
 12 13  1  0
 13 14  1  0
 14 15  1  0
 14 16  2  0
 12 17  1  0
 17 18  2  0
 17 19  1  0
 19 20  1  0
 20 21  1  0
 21 22  1  0
 22 23  1  0
 23 24  1  0
 23 25  2  0
 20 26  1  0
 26 27  2  0
 26 28  1  0
 28 29  1  0
 29 30  1  0
 30 31  1  0
 31 32  1  0
 31 33  1  0
 29 34  1  0
 34 35  2  0
 34 36  1  0
 37 36  1  1
 37 38  1  0
 38 39  1  0
 39 40  1  0
 40 41  1  0
 41 42  1  0
 42 43  1  0
 43 44  1  0
 37 45  1  0
 37 46  1  0
 46 47  2  0
 46 48  1  0
 48 49  1  0
 49 50  1  0
 50 51  1  0
 51 52  1  0
 52 53  1  0
 53 54  1  0
 54 55  2  3
 54 56  1  0
 49 57  1  0
 57 58  2  0
 57 59  1  0
 59 60  1  0
 60 61  1  0
 61 62  1  0
 60 63  1  0
 63 64  2  0
 63 65  1  0
 65 66  1  0
 66 67  1  0
 67 68  1  0
 68 69  2  0
 69 70  1  0
 70 71  2  0
 71 72  1  0
 72 73  2  0
 66 74  1  0
 74 75  2  0
 74 76  1  0
 76 77  1  0
 77 78  1  0
 78 79  1  0
 79 80  2  0
 80 81  1  0
 81 82  2  0
 82 83  1  0
 83 84  2  0
 77 85  1  0
 85 86  2  0
 85 87  1  0
 87 88  1  0
 88 89  1  0
 88 90  1  0
 90 91  2  0
 90 92  1  0
 92 93  1  0
 93 94  1  0
 94 95  1  0
 95 96  1  0
 95 97  1  0
 93 98  1  0
 98 99  2  0
 98100  1  0
100101  1  0
101102  1  0
102103  1  0
103104  1  0
104105  1  0
101106  1  0
101107  1  6
107108  2  0
107109  1  0
109110  1  0
110111  1  0
111112  1  0
112113  2  0
112114  1  0
110115  1  0
115116  2  0
115117  1  0
117118  1  0
118119  1  0
119120  1  0
120121  1  0
121122  1  0
121123  2  0
118124  1  0
124125  2  0
124126  1  0
126127  1  0
127128  1  0
128129  1  0
128130  1  0
130131  1  0
127132  1  0
132133  2  0
132134  1  0
 73 68  1  0
 84 79  1  0
 44105  2  0
  1135  1  0
  1136  1  0
  2137  1  0
  2138  1  0
  3139  1  0
  3140  1  0
  5141  1  0
  5142  1  0
  6143  1  0
  6144  1  0
  8145  1  0
  8146  1  0
 11147  1  0
 12148  1  6
 13149  1  0
 13150  1  0
 15151  1  0
 15152  1  0
 19153  1  0
 20154  1  6
 21155  1  0
 21156  1  0
 22157  1  0
 22158  1  0
 24159  1  0
 24160  1  0
 28161  1  0
 29162  1  1
 30163  1  0
 30164  1  0
 31165  1  0
 32166  1  0
 32167  1  0
 32168  1  0
 33169  1  0
 33170  1  0
 33171  1  0
 36172  1  0
 38173  1  0
 38174  1  0
 39175  1  0
 39176  1  0
 40177  1  0
 40178  1  0
 41179  1  0
 41180  1  0
 42181  1  0
 42182  1  0
 43183  1  0
 43184  1  0
 44185  1  0
 45186  1  0
 45187  1  0
 45188  1  0
 48189  1  0
 49190  1  1
 50191  1  0
 50192  1  0
 51193  1  0
 51194  1  0
 52195  1  0
 52196  1  0
 53197  1  0
 55198  1  0
 55199  1  0
 56200  1  0
 56201  1  0
 59202  1  0
 60203  1  1
 61204  1  0
 61205  1  0
 62206  1  0
 65207  1  0
 66208  1  1
 67209  1  0
 67210  1  0
 69211  1  0
 70212  1  0
 71213  1  0
 72214  1  0
 73215  1  0
 76216  1  0
 77217  1  1
 78218  1  0
 78219  1  0
 80220  1  0
 81221  1  0
 82222  1  0
 83223  1  0
 84224  1  0
 87225  1  0
 88226  1  1
 89227  1  0
 89228  1  0
 89229  1  0
 92230  1  0
 93231  1  1
 94232  1  0
 94233  1  0
 95234  1  0
 96235  1  0
 96236  1  0
 96237  1  0
 97238  1  0
 97239  1  0
 97240  1  0
100241  1  0
102242  1  0
102243  1  0
103244  1  0
103245  1  0
104246  1  0
104247  1  0
105248  1  0
106249  1  0
106250  1  0
106251  1  0
109252  1  0
110253  1  1
111254  1  0
111255  1  0
117256  1  0
118257  1  1
119258  1  0
119259  1  0
120260  1  0
120261  1  0
122262  1  0
122263  1  0
126264  1  0
127265  1  6
128266  1  6
129267  1  0
129268  1  0
129269  1  0
130270  1  0
130271  1  0
131272  1  0
131273  1  0
131274  1  0
M  CHG  3  55   1 114  -1 134  -1
M  END
