
     RDKit          2D

331336  0  0  0  0  0  0  0  0999 V2000
   20.1621    1.2491    0.0000 C   0  0  0  0  0  0  0  0  0  0  0  0
   20.9449    2.5286    0.0000 N   0  0  0  0  0  0  0  0  0  0  0  0
   22.4444    2.4904    0.0000 C   0  0  0  0  0  0  0  0  0  0  0  0
   23.1611    1.1727    0.0000 C   0  0  0  0  0  0  0  0  0  0  0  0
   24.6606    1.1346    0.0000 C   0  0  0  0  0  0  0  0  0  0  0  0
   25.4434    2.4141    0.0000 C   0  0  0  0  0  0  0  0  0  0  0  0
   24.7267    3.7318    0.0000 C   0  0  0  0  0  0  0  0  0  0  0  0
   23.2272    3.7700    0.0000 C   0  0  0  0  0  0  0  0  0  0  0  0
   25.7584    4.8206    0.0000 C   0  0  0  0  0  0  0  0  0  0  0  0
   27.1128    4.1758    0.0000 O   0  0  0  0  0  0  0  0  0  0  0  0
   26.9181    2.6885    0.0000 C   0  0  0  0  0  0  0  0  0  0  0  0
   28.0069    1.6568    0.0000 O   0  0  0  0  0  0  0  0  0  0  0  0
   26.8983    5.7956    0.0000 C   0  0  0  0  0  0  0  0  0  0  0  0
   26.6239    7.2703    0.0000 C   0  0  0  0  0  0  0  0  0  0  0  0
   27.7638    8.2453    0.0000 C   0  0  0  0  0  0  0  0  0  0  0  0
   29.1781    7.7456    0.0000 C   0  0  0  0  0  0  0  0  0  0  0  0
   29.4526    6.2709    0.0000 C   0  0  0  0  0  0  0  0  0  0  0  0
   28.3127    5.2959    0.0000 C   0  0  0  0  0  0  0  0  0  0  0  0
   30.3180    8.7206    0.0000 O   0  0  0  0  0  0  0  0  0  0  0  0
   25.2096    7.7700    0.0000 O   0  0  0  0  0  0  0  0  0  0  0  0
   24.0697    6.7950    0.0000 C   0  0  0  0  0  0  0  0  0  0  0  0
   24.3441    5.3203    0.0000 C   0  0  0  0  0  0  0  0  0  0  0  0
   23.0761    5.0335    0.0000 C   0  0  0  0  0  0  0  0  0  0  0  0
   22.3218    5.3000    0.0000 C   0  0  0  0  0  0  0  0  0  0  0  0
   22.1755    6.0864    0.0000 C   0  0  0  0  0  0  0  0  0  0  0  0
   22.7834    6.6065    0.0000 C   0  0  0  0  0  0  0  0  0  0  0  0
   20.1011    6.8193    0.0000 O   0  0  0  0  0  0  0  0  0  0  0  0
   20.8788   -0.0686    0.0000 S   0  0  0  0  0  0  0  0  0  0  0  0
   18.6625    1.2872    0.0000 N   0  0  0  0  0  0  0  0  0  0  0  0
   17.8797    0.0077    0.0000 C   0  0  0  0  0  0  0  0  0  0  0  0
   16.3802    0.0459    0.0000 C   0  0  0  0  0  0  0  0  0  0  0  0
   15.5974   -1.2337    0.0000 C   0  0  0  0  0  0  0  0  0  0  0  0
   16.1364   -1.8210    0.0000 O   0  0  0  0  0  0  0  0  0  0  0  0
   14.0979   -1.1955    0.0000 N   0  0  0  0  0  0  0  0  0  0  0  0
   13.3151   -2.4750    0.0000 C   0  0  0  0  0  0  0  0  0  0  0  0
   14.7111   -3.0238    0.0000 C   0  0  0  0  0  0  0  0  0  0  0  0
   15.8843   -2.0891    0.0000 C   0  0  0  0  0  0  0  0  0  0  0  0
   17.2804   -2.6379    0.0000 C   0  0  0  0  0  0  0  0  0  0  0  0
   18.4536   -1.7032    0.0000 N   0  0  0  0  0  0  0  0  0  0  0  0
   19.8496   -2.2520    0.0000 C   0  0  0  0  0  0  0  0  0  0  0  0
   21.0228   -1.3173    0.0000 N   0  0  0  0  0  0  0  0  0  0  0  0
   20.0724   -3.7353    0.0000 N   0  0  0  0  0  0  0  0  0  0  0  0
   12.1418   -3.4097    0.0000 C   0  0  0  0  0  0  0  0  0  0  0  0
   12.7170   -4.7950    0.0000 O   0  0  0  0  0  0  0  0  0  0  0  0
   10.7458   -2.8609    0.0000 N   0  0  0  0  0  0  0  0  0  0  0  0
    9.5726   -3.7956    0.0000 C   0  0  0  0  0  0  0  0  0  0  0  0
   10.6968   -4.7887    0.0000 C   0  0  0  0  0  0  0  0  0  0  0  0
   12.1189   -4.3117    0.0000 C   0  0  0  0  0  0  0  0  0  0  0  0
   13.2431   -5.3048    0.0000 C   0  0  0  0  0  0  0  0  0  0  0  0
   14.6652   -4.8278    0.0000 N   0  0  0  0  0  0  0  0  0  0  0  0
   15.7893   -5.8209    0.0000 C   0  0  0  0  0  0  0  0  0  0  0  0
   17.2115   -5.3439    0.0000 N   0  0  0  0  0  0  0  0  0  0  0  0
   15.4914   -7.2910    0.0000 N   0  0  0  0  0  0  0  0  0  0  0  0
    8.1505   -4.2726    0.0000 C   0  0  0  0  0  0  0  0  0  0  0  0
    8.2171   -5.7711    0.0000 O   0  0  0  0  0  0  0  0  0  0  0  0
    7.0263   -3.2795    0.0000 N   0  0  0  0  0  0  0  0  0  0  0  0
    5.6042   -3.7565    0.0000 C   0  0  0  0  0  0  0  0  0  0  0  0
    6.3209   -5.0742    0.0000 C   0  0  0  0  0  0  0  0  0  0  0  0
    7.8204   -5.1123    0.0000 C   0  0  0  0  0  0  0  0  0  0  0  0
    8.5371   -6.4300    0.0000 C   0  0  0  0  0  0  0  0  0  0  0  0
   10.0366   -6.4682    0.0000 N   0  0  0  0  0  0  0  0  0  0  0  0
   10.7533   -7.7859    0.0000 C   0  0  0  0  0  0  0  0  0  0  0  0
   12.2528   -7.8241    0.0000 N   0  0  0  0  0  0  0  0  0  0  0  0
    9.9705   -9.0654    0.0000 N   0  0  0  0  0  0  0  0  0  0  0  0
    4.1046   -3.7183    0.0000 C   0  0  0  0  0  0  0  0  0  0  0  0
    3.6547   -5.1492    0.0000 O   0  0  0  0  0  0  0  0  0  0  0  0
    3.3879   -2.4006    0.0000 N   0  0  0  0  0  0  0  0  0  0  0  0
    1.8884   -2.3624    0.0000 C   0  0  0  0  0  0  0  0  0  0  0  0
    2.1112   -3.8458    0.0000 C   0  0  0  0  0  0  0  0  0  0  0  0
    3.5073   -4.3945    0.0000 C   0  0  0  0  0  0  0  0  0  0  0  0
    3.7301   -5.8779    0.0000 C   0  0  0  0  0  0  0  0  0  0  0  0
    5.1261   -6.4266    0.0000 N   0  0  0  0  0  0  0  0  0  0  0  0
    5.3489   -7.9100    0.0000 C   0  0  0  0  0  0  0  0  0  0  0  0
    6.7449   -8.4587    0.0000 N   0  0  0  0  0  0  0  0  0  0  0  0
    4.1757   -8.8446    0.0000 N   0  0  0  0  0  0  0  0  0  0  0  0
    0.4924   -1.8137    0.0000 C   0  0  0  0  0  0  0  0  0  0  0  0
   -0.4198   -3.0045    0.0000 O   0  0  0  0  0  0  0  0  0  0  0  0
    0.2696   -0.3303    0.0000 N   0  0  0  0  0  0  0  0  0  0  0  0
   -1.1264    0.2184    0.0000 C   0  0  0  0  0  0  0  0  0  0  0  0
   -0.9982   -1.2761    0.0000 C   0  0  0  0  0  0  0  0  0  0  0  0
   -1.1550   -2.7679    0.0000 C   0  0  0  0  0  0  0  0  0  0  0  0
   -1.5914   -4.2030    0.0000 C   0  0  0  0  0  0  0  0  0  0  0  0
   -2.2915   -5.5296    0.0000 C   0  0  0  0  0  0  0  0  0  0  0  0
   -0.0148    1.2255    0.0000 C   0  0  0  0  0  0  0  0  0  0  0  0
   -1.5352    1.6616    0.0000 C   0  0  0  0  0  0  0  0  0  0  0  0
   -0.2141    2.3721    0.0000 O   0  0  0  0  0  0  0  0  0  0  0  0
   -2.2098    3.0014    0.0000 N   0  0  0  0  0  0  0  0  0  0  0  0
   -3.1257    4.1893    0.0000 C   0  0  0  0  0  0  0  0  0  0  0  0
   -2.7350    5.6375    0.0000 C   0  0  0  0  0  0  0  0  0  0  0  0
   -1.2855    6.0234    0.0000 C   0  0  0  0  0  0  0  0  0  0  0  0
   -0.8949    7.4716    0.0000 C   0  0  0  0  0  0  0  0  0  0  0  0
    0.5546    7.8575    0.0000 N   0  0  0  0  0  0  0  0  0  0  0  0
    0.9452    9.3057    0.0000 C   0  0  0  0  0  0  0  0  0  0  0  0
    2.3948    9.6916    0.0000 N   0  0  0  0  0  0  0  0  0  0  0  0
   -0.1137   10.3681    0.0000 N   0  0  0  0  0  0  0  0  0  0  0  0
   -4.2498    5.1824    0.0000 C   0  0  0  0  0  0  0  0  0  0  0  0
   -3.5226    6.4943    0.0000 O   0  0  0  0  0  0  0  0  0  0  0  0
   -5.5416    5.9448    0.0000 N   0  0  0  0  0  0  0  0  0  0  0  0
   -6.9544    6.4490    0.0000 C   0  0  0  0  0  0  0  0  0  0  0  0
   -7.4087    7.8785    0.0000 C   0  0  0  0  0  0  0  0  0  0  0  0
   -6.3979    8.9868    0.0000 C   0  0  0  0  0  0  0  0  0  0  0  0
   -6.8523   10.4163    0.0000 C   0  0  0  0  0  0  0  0  0  0  0  0
   -5.8415   11.5245    0.0000 N   0  0  0  0  0  0  0  0  0  0  0  0
   -6.2958   12.9541    0.0000 C   0  0  0  0  0  0  0  0  0  0  0  0
   -5.2850   14.0623    0.0000 N   0  0  0  0  0  0  0  0  0  0  0  0
   -7.7610   13.2753    0.0000 N   0  0  0  0  0  0  0  0  0  0  0  0
   -8.4370    6.6767    0.0000 C   0  0  0  0  0  0  0  0  0  0  0  0
   -8.5344    8.1735    0.0000 O   0  0  0  0  0  0  0  0  0  0  0  0
   -9.9359    6.6196    0.0000 N   0  0  0  0  0  0  0  0  0  0  0  0
  -11.3969    6.2800    0.0000 C   0  0  0  0  0  0  0  0  0  0  0  0
  -12.5520    7.2369    0.0000 C   0  0  0  0  0  0  0  0  0  0  0  0
  -12.3008    8.7157    0.0000 C   0  0  0  0  0  0  0  0  0  0  0  0
  -13.4560    9.6727    0.0000 C   0  0  0  0  0  0  0  0  0  0  0  0
  -13.2048   11.1515    0.0000 N   0  0  0  0  0  0  0  0  0  0  0  0
  -14.3599   12.1084    0.0000 C   0  0  0  0  0  0  0  0  0  0  0  0
  -14.1087   13.5873    0.0000 N   0  0  0  0  0  0  0  0  0  0  0  0
  -15.7662   11.5866    0.0000 N   0  0  0  0  0  0  0  0  0  0  0  0
  -12.7673    5.6700    0.0000 C   0  0  0  0  0  0  0  0  0  0  0  0
  -13.6585    6.8765    0.0000 O   0  0  0  0  0  0  0  0  0  0  0  0
  -13.9974    4.8116    0.0000 N   0  0  0  0  0  0  0  0  0  0  0  0
  -15.0429    3.7360    0.0000 C   0  0  0  0  0  0  0  0  0  0  0  0
  -16.5320    3.9165    0.0000 C   0  0  0  0  0  0  0  0  0  0  0  0
  -17.1202    5.2964    0.0000 C   0  0  0  0  0  0  0  0  0  0  0  0
  -18.6093    5.4769    0.0000 C   0  0  0  0  0  0  0  0  0  0  0  0
  -19.1975    6.8568    0.0000 N   0  0  0  0  0  0  0  0  0  0  0  0
  -20.6866    7.0373    0.0000 C   0  0  0  0  0  0  0  0  0  0  0  0
  -21.2748    8.4172    0.0000 N   0  0  0  0  0  0  0  0  0  0  0  0
  -21.5875    5.8380    0.0000 N   0  0  0  0  0  0  0  0  0  0  0  0
  -15.8659    2.4819    0.0000 C   0  0  0  0  0  0  0  0  0  0  0  0
  -17.2680    3.0151    0.0000 O   0  0  0  0  0  0  0  0  0  0  0  0
  -16.4367    1.0948    0.0000 N   0  0  0  0  0  0  0  0  0  0  0  0
  -16.7347   -0.3753    0.0000 C   0  0  0  0  0  0  0  0  0  0  0  0
  -18.0850   -1.0285    0.0000 C   0  0  0  0  0  0  0  0  0  0  0  0
  -19.3258   -0.1857    0.0000 C   0  0  0  0  0  0  0  0  0  0  0  0
  -20.6761   -0.8389    0.0000 C   0  0  0  0  0  0  0  0  0  0  0  0
  -21.9170    0.0039    0.0000 N   0  0  0  0  0  0  0  0  0  0  0  0
  -23.2673   -0.6493    0.0000 C   0  0  0  0  0  0  0  0  0  0  0  0
  -24.5081    0.1935    0.0000 N   0  0  0  0  0  0  0  0  0  0  0  0
  -23.3768   -2.1453    0.0000 N   0  0  0  0  0  0  0  0  0  0  0  0
  -16.7491   -1.8752    0.0000 C   0  0  0  0  0  0  0  0  0  0  0  0
  -18.2168   -2.1847    0.0000 O   0  0  0  0  0  0  0  0  0  0  0  0
  -16.4793   -3.3508    0.0000 N   0  0  0  0  0  0  0  0  0  0  0  0
  -15.9352   -4.7486    0.0000 C   0  0  0  0  0  0  0  0  0  0  0  0
  -16.7180   -6.0282    0.0000 C   0  0  0  0  0  0  0  0  0  0  0  0
  -18.2175   -5.9900    0.0000 C   0  0  0  0  0  0  0  0  0  0  0  0
  -19.0003   -7.2695    0.0000 C   0  0  0  0  0  0  0  0  0  0  0  0
  -20.4998   -7.2314    0.0000 N   0  0  0  0  0  0  0  0  0  0  0  0
  -21.2826   -8.5109    0.0000 C   0  0  0  0  0  0  0  0  0  0  0  0
  -22.7822   -8.4727    0.0000 N   0  0  0  0  0  0  0  0  0  0  0  0
  -20.5659   -9.8286    0.0000 N   0  0  0  0  0  0  0  0  0  0  0  0
  -15.1363   -6.0182    0.0000 C   0  0  0  0  0  0  0  0  0  0  0  0
  -16.2038   -7.0721    0.0000 O   0  0  0  0  0  0  0  0  0  0  0  0
  -14.1117   -7.1137    0.0000 N   0  0  0  0  0  0  0  0  0  0  0  0
  -12.8982   -7.9954    0.0000 C   0  0  0  0  0  0  0  0  0  0  0  0
  -11.5398   -8.6316    0.0000 C   0  0  0  0  0  0  0  0  0  0  0  0
  -10.0855   -8.9992    0.0000 C   0  0  0  0  0  0  0  0  0  0  0  0
   -8.5880   -9.0849    0.0000 C   0  0  0  0  0  0  0  0  0  0  0  0
   -7.1013   -8.8857    0.0000 C   0  0  0  0  0  0  0  0  0  0  0  0
   -5.6791   -8.4087    0.0000 C   0  0  0  0  0  0  0  0  0  0  0  0
   -4.3730   -7.6712    0.0000 C   0  0  0  0  0  0  0  0  0  0  0  0
   -3.2300   -6.6998    0.0000 C   0  0  0  0  0  0  0  0  0  0  0  0
  -14.2271   -8.6911    0.0000 C   0  0  0  0  0  0  0  0  0  0  0  0
  -12.8650   -9.4951    0.0000 C   0  0  0  0  0  0  0  0  0  0  0  0
  -14.0426  -10.4241    0.0000 O   0  0  0  0  0  0  0  0  0  0  0  0
  -11.7632  -10.5130    0.0000 O   0  0  0  0  0  0  0  0  0  0  0  0
   20.0729    3.7491    0.0000 H   0  0  0  0  0  0  0  0  0  0  0  0
   22.3783   -0.1068    0.0000 H   0  0  0  0  0  0  0  0  0  0  0  0
   25.3773   -0.1831    0.0000 H   0  0  0  0  0  0  0  0  0  0  0  0
   22.2129    4.8751    0.0000 H   0  0  0  0  0  0  0  0  0  0  0  0
   27.4894    9.7200    0.0000 H   0  0  0  0  0  0  0  0  0  0  0  0
   30.8669    5.7713    0.0000 H   0  0  0  0  0  0  0  0  0  0  0  0
   28.5871    3.8213    0.0000 H   0  0  0  0  0  0  0  0  0  0  0  0
   31.7323    8.2210    0.0000 H   0  0  0  0  0  0  0  0  0  0  0  0
   23.4786    2.8706    0.0000 H   0  0  0  0  0  0  0  0  0  0  0  0
   20.5396    4.0162    0.0000 H   0  0  0  0  0  0  0  0  0  0  0  0
   22.3809    8.7693    0.0000 H   0  0  0  0  0  0  0  0  0  0  0  0
   19.8267    8.2940    0.0000 H   0  0  0  0  0  0  0  0  0  0  0  0
   17.9458    2.6049    0.0000 H   0  0  0  0  0  0  0  0  0  0  0  0
   19.2758   -0.5410    0.0000 H   0  0  0  0  0  0  0  0  0  0  0  0
   17.9463   -1.4908    0.0000 H   0  0  0  0  0  0  0  0  0  0  0  0
   16.6782    1.5160    0.0000 H   0  0  0  0  0  0  0  0  0  0  0  0
   14.9842    0.5946    0.0000 H   0  0  0  0  0  0  0  0  0  0  0  0
   13.3812    0.1222    0.0000 H   0  0  0  0  0  0  0  0  0  0  0  0
   12.1909   -1.4819    0.0000 H   0  0  0  0  0  0  0  0  0  0  0  0
   15.7058   -4.1465    0.0000 H   0  0  0  0  0  0  0  0  0  0  0  0
   14.2612   -4.4547    0.0000 H   0  0  0  0  0  0  0  0  0  0  0  0
   16.6671   -0.8096    0.0000 H   0  0  0  0  0  0  0  0  0  0  0  0
   15.0339   -0.8535    0.0000 H   0  0  0  0  0  0  0  0  0  0  0  0
   18.4045   -3.6310    0.0000 H   0  0  0  0  0  0  0  0  0  0  0  0
   16.6594   -4.0033    0.0000 H   0  0  0  0  0  0  0  0  0  0  0  0
   18.5963   -0.2100    0.0000 H   0  0  0  0  0  0  0  0  0  0  0  0
   22.4189   -1.8661    0.0000 H   0  0  0  0  0  0  0  0  0  0  0  0
   21.4684   -4.2841    0.0000 H   0  0  0  0  0  0  0  0  0  0  0  0
   18.8992   -4.6700    0.0000 H   0  0  0  0  0  0  0  0  0  0  0  0
   10.5230   -1.3776    0.0000 H   0  0  0  0  0  0  0  0  0  0  0  0
    8.8559   -2.4779    0.0000 H   0  0  0  0  0  0  0  0  0  0  0  0
   11.2475   -6.1839    0.0000 H   0  0  0  0  0  0  0  0  0  0  0  0
    9.7845   -5.9794    0.0000 H   0  0  0  0  0  0  0  0  0  0  0  0
   13.2921   -3.3771    0.0000 H   0  0  0  0  0  0  0  0  0  0  0  0
   11.7423   -2.8597    0.0000 H   0  0  0  0  0  0  0  0  0  0  0  0
   13.9598   -6.6225    0.0000 H   0  0  0  0  0  0  0  0  0  0  0  0
   12.1925   -6.3755    0.0000 H   0  0  0  0  0  0  0  0  0  0  0  0
   15.3100   -3.4735    0.0000 H   0  0  0  0  0  0  0  0  0  0  0  0
   18.3356   -6.3370    0.0000 H   0  0  0  0  0  0  0  0  0  0  0  0
   16.6155   -8.2841    0.0000 H   0  0  0  0  0  0  0  0  0  0  0  0
   14.0692   -7.7680    0.0000 H   0  0  0  0  0  0  0  0  0  0  0  0
    7.3243   -1.8094    0.0000 H   0  0  0  0  0  0  0  0  0  0  0  0
    5.3814   -2.2731    0.0000 H   0  0  0  0  0  0  0  0  0  0  0  0
    6.3612   -6.5736    0.0000 H   0  0  0  0  0  0  0  0  0  0  0  0
    5.0564   -5.8811    0.0000 H   0  0  0  0  0  0  0  0  0  0  0  0
    9.2425   -4.6353    0.0000 H   0  0  0  0  0  0  0  0  0  0  0  0
    7.9631   -3.6191    0.0000 H   0  0  0  0  0  0  0  0  0  0  0  0
    8.7599   -7.9134    0.0000 H   0  0  0  0  0  0  0  0  0  0  0  0
    7.1837   -7.0768    0.0000 H   0  0  0  0  0  0  0  0  0  0  0  0
   11.1058   -5.4161    0.0000 H   0  0  0  0  0  0  0  0  0  0  0  0
   12.9695   -9.1418    0.0000 H   0  0  0  0  0  0  0  0  0  0  0  0
   10.6872  -10.3831    0.0000 H   0  0  0  0  0  0  0  0  0  0  0  0
    8.4710   -9.0273    0.0000 H   0  0  0  0  0  0  0  0  0  0  0  0
    4.1707   -1.1211    0.0000 H   0  0  0  0  0  0  0  0  0  0  0  0
    2.1864   -0.8923    0.0000 H   0  0  0  0  0  0  0  0  0  0  0  0
    1.6363   -5.2686    0.0000 H   0  0  0  0  0  0  0  0  0  0  0  0
    0.6117   -3.8076    0.0000 H   0  0  0  0  0  0  0  0  0  0  0  0
    5.0068   -4.4327    0.0000 H   0  0  0  0  0  0  0  0  0  0  0  0
    4.1521   -3.0402    0.0000 H   0  0  0  0  0  0  0  0  0  0  0  0
    3.4321   -7.3480    0.0000 H   0  0  0  0  0  0  0  0  0  0  0  0
    2.2371   -6.0228    0.0000 H   0  0  0  0  0  0  0  0  0  0  0  0
    6.4906   -5.8037    0.0000 H   0  0  0  0  0  0  0  0  0  0  0  0
    6.9677   -9.9421    0.0000 H   0  0  0  0  0  0  0  0  0  0  0  0
    4.3985  -10.3280    0.0000 H   0  0  0  0  0  0  0  0  0  0  0  0
    2.7796   -8.2959    0.0000 H   0  0  0  0  0  0  0  0  0  0  0  0
    1.5480    0.4543    0.0000 H   0  0  0  0  0  0  0  0  0  0  0  0
    0.4342   -0.8309    0.0000 H   0  0  0  0  0  0  0  0  0  0  0  0
    0.1615   -2.2276    0.0000 H   0  0  0  0  0  0  0  0  0  0  0  0
    0.3449   -2.7848    0.0000 H   0  0  0  0  0  0  0  0  0  0  0  0
   -0.0630   -3.7962    0.0000 H   0  0  0  0  0  0  0  0  0  0  0  0
   -0.1118   -3.9567    0.0000 H   0  0  0  0  0  0  0  0  0  0  0  0
   -0.7137   -5.4194    0.0000 H   0  0  0  0  0  0  0  0  0  0  0  0
   -1.0374   -6.3526    0.0000 H   0  0  0  0  0  0  0  0  0  0  0  0
    1.4585    0.9440    0.0000 H   0  0  0  0  0  0  0  0  0  0  0  0
    0.8417    2.4569    0.0000 H   0  0  0  0  0  0  0  0  0  0  0  0
   -0.9419    2.4047    0.0000 H   0  0  0  0  0  0  0  0  0  0  0  0
   -0.8523    3.6395    0.0000 H   0  0  0  0  0  0  0  0  0  0  0  0
   -1.6298    4.3009    0.0000 H   0  0  0  0  0  0  0  0  0  0  0  0
   -2.8633    7.1320    0.0000 H   0  0  0  0  0  0  0  0  0  0  0  0
   -4.1525    6.1283    0.0000 H   0  0  0  0  0  0  0  0  0  0  0  0
    0.2086    5.8902    0.0000 H   0  0  0  0  0  0  0  0  0  0  0  0
   -0.7994    4.6043    0.0000 H   0  0  0  0  0  0  0  0  0  0  0  0
   -1.0232    8.9661    0.0000 H   0  0  0  0  0  0  0  0  0  0  0  0
   -2.3616    7.7859    0.0000 H   0  0  0  0  0  0  0  0  0  0  0  0
    1.6135    6.7951    0.0000 H   0  0  0  0  0  0  0  0  0  0  0  0
    2.7854   11.1398    0.0000 H   0  0  0  0  0  0  0  0  0  0  0  0
    0.2769   11.8164    0.0000 H   0  0  0  0  0  0  0  0  0  0  0  0
   -1.5632    9.9823    0.0000 H   0  0  0  0  0  0  0  0  0  0  0  0
   -4.7446    7.2155    0.0000 H   0  0  0  0  0  0  0  0  0  0  0  0
   -5.7563    7.3516    0.0000 H   0  0  0  0  0  0  0  0  0  0  0  0
   -8.3246    9.0664    0.0000 H   0  0  0  0  0  0  0  0  0  0  0  0
   -8.8665    7.5250    0.0000 H   0  0  0  0  0  0  0  0  0  0  0  0
   -5.0690    9.6825    0.0000 H   0  0  0  0  0  0  0  0  0  0  0  0
   -5.2218    8.0558    0.0000 H   0  0  0  0  0  0  0  0  0  0  0  0
   -7.7682   11.6042    0.0000 H   0  0  0  0  0  0  0  0  0  0  0  0
   -8.2561    9.8878    0.0000 H   0  0  0  0  0  0  0  0  0  0  0  0
   -4.3763   11.2033    0.0000 H   0  0  0  0  0  0  0  0  0  0  0  0
   -5.7394   15.4919    0.0000 H   0  0  0  0  0  0  0  0  0  0  0  0
   -8.2154   14.7049    0.0000 H   0  0  0  0  0  0  0  0  0  0  0  0
   -8.7719   12.1671    0.0000 H   0  0  0  0  0  0  0  0  0  0  0  0
   -9.9524    8.1195    0.0000 H   0  0  0  0  0  0  0  0  0  0  0  0
  -10.8771    7.6870    0.0000 H   0  0  0  0  0  0  0  0  0  0  0  0
  -13.9648    7.7411    0.0000 H   0  0  0  0  0  0  0  0  0  0  0  0
  -13.5873    6.1514    0.0000 H   0  0  0  0  0  0  0  0  0  0  0  0
  -11.5590   10.0195    0.0000 H   0  0  0  0  0  0  0  0  0  0  0  0
  -10.8081    8.5684    0.0000 H   0  0  0  0  0  0  0  0  0  0  0  0
  -14.8687   10.1768    0.0000 H   0  0  0  0  0  0  0  0  0  0  0  0
  -14.3512    8.4691    0.0000 H   0  0  0  0  0  0  0  0  0  0  0  0
  -11.7985   11.6734    0.0000 H   0  0  0  0  0  0  0  0  0  0  0  0
  -15.2638   14.5442    0.0000 H   0  0  0  0  0  0  0  0  0  0  0  0
  -16.9213   12.5435    0.0000 H   0  0  0  0  0  0  0  0  0  0  0  0
  -16.0173   10.1077    0.0000 H   0  0  0  0  0  0  0  0  0  0  0  0
  -14.8222    6.0645    0.0000 H   0  0  0  0  0  0  0  0  0  0  0  0
  -15.3663    5.2007    0.0000 H   0  0  0  0  0  0  0  0  0  0  0  0
  -17.9930    3.5769    0.0000 H   0  0  0  0  0  0  0  0  0  0  0  0
  -16.8160    2.4437    0.0000 H   0  0  0  0  0  0  0  0  0  0  0  0
  -17.2010    6.7942    0.0000 H   0  0  0  0  0  0  0  0  0  0  0  0
  -15.7848    5.9795    0.0000 H   0  0  0  0  0  0  0  0  0  0  0  0
  -20.0703    5.1373    0.0000 H   0  0  0  0  0  0  0  0  0  0  0  0
  -18.7117    3.9804    0.0000 H   0  0  0  0  0  0  0  0  0  0  0  0
  -18.2966    8.0561    0.0000 H   0  0  0  0  0  0  0  0  0  0  0  0
  -22.7639    8.5977    0.0000 H   0  0  0  0  0  0  0  0  0  0  0  0
  -23.0766    6.0185    0.0000 H   0  0  0  0  0  0  0  0  0  0  0  0
  -20.9993    4.4581    0.0000 H   0  0  0  0  0  0  0  0  0  0  0  0
  -17.8079    1.7028    0.0000 H   0  0  0  0  0  0  0  0  0  0  0  0
  -17.7986    0.6821    0.0000 H   0  0  0  0  0  0  0  0  0  0  0  0
  -19.1305   -2.1041    0.0000 H   0  0  0  0  0  0  0  0  0  0  0  0
  -17.5277   -2.4211    0.0000 H   0  0  0  0  0  0  0  0  0  0  0  0
  -20.2036    1.0307    0.0000 H   0  0  0  0  0  0  0  0  0  0  0  0
  -18.5717    1.1109    0.0000 H   0  0  0  0  0  0  0  0  0  0  0  0
  -21.7216   -1.9145    0.0000 H   0  0  0  0  0  0  0  0  0  0  0  0
  -19.9532   -2.1532    0.0000 H   0  0  0  0  0  0  0  0  0  0  0  0
  -21.8075    1.4999    0.0000 H   0  0  0  0  0  0  0  0  0  0  0  0
  -25.8584   -0.4597    0.0000 H   0  0  0  0  0  0  0  0  0  0  0  0
  -24.7271   -2.7985    0.0000 H   0  0  0  0  0  0  0  0  0  0  0  0
  -22.1359   -2.9881    0.0000 H   0  0  0  0  0  0  0  0  0  0  0  0
  -17.9616   -3.5806    0.0000 H   0  0  0  0  0  0  0  0  0  0  0  0
  -17.4019   -4.4343    0.0000 H   0  0  0  0  0  0  0  0  0  0  0  0
  -17.0160   -7.4983    0.0000 H   0  0  0  0  0  0  0  0  0  0  0  0
  -15.4962   -6.8984    0.0000 H   0  0  0  0  0  0  0  0  0  0  0  0
  -19.6135   -5.4413    0.0000 H   0  0  0  0  0  0  0  0  0  0  0  0
  -18.2841   -4.4915    0.0000 H   0  0  0  0  0  0  0  0  0  0  0  0
  -19.2983   -8.7396    0.0000 H   0  0  0  0  0  0  0  0  0  0  0  0
  -17.6816   -7.9843    0.0000 H   0  0  0  0  0  0  0  0  0  0  0  0
  -21.2165   -5.9137    0.0000 H   0  0  0  0  0  0  0  0  0  0  0  0
  -23.5650   -9.7523    0.0000 H   0  0  0  0  0  0  0  0  0  0  0  0
  -21.3488  -11.1081    0.0000 H   0  0  0  0  0  0  0  0  0  0  0  0
  -19.0664   -9.8668    0.0000 H   0  0  0  0  0  0  0  0  0  0  0  0
  -15.2344   -8.1084    0.0000 H   0  0  0  0  0  0  0  0  0  0  0  0
  -11.2234  -10.0978    0.0000 H   0  0  0  0  0  0  0  0  0  0  0  0
  -12.4520   -9.8223    0.0000 H   0  0  0  0  0  0  0  0  0  0  0  0
   -9.6699  -10.4405    0.0000 H   0  0  0  0  0  0  0  0  0  0  0  0
  -10.7559  -10.3411    0.0000 H   0  0  0  0  0  0  0  0  0  0  0  0
   -7.9071  -10.4215    0.0000 H   0  0  0  0  0  0  0  0  0  0  0  0
   -9.1653  -10.4693    0.0000 H   0  0  0  0  0  0  0  0  0  0  0  0
   -6.1798  -10.0692    0.0000 H   0  0  0  0  0  0  0  0  0  0  0  0
   -7.4062  -10.3544    0.0000 H   0  0  0  0  0  0  0  0  0  0  0  0
   -4.5503   -9.3965    0.0000 H   0  0  0  0  0  0  0  0  0  0  0  0
   -5.7006   -9.9085    0.0000 H   0  0  0  0  0  0  0  0  0  0  0  0
   -2.9951   -8.2639    0.0000 H   0  0  0  0  0  0  0  0  0  0  0  0
   -4.1102   -9.1480    0.0000 H   0  0  0  0  0  0  0  0  0  0  0  0
   -2.1544   -7.7452    0.0000 H   0  0  0  0  0  0  0  0  0  0  0  0
  -14.4713  -10.1711    0.0000 H   0  0  0  0  0  0  0  0  0  0  0  0
  -15.6784   -9.0701    0.0000 H   0  0  0  0  0  0  0  0  0  0  0  0
  -15.0139   -7.4140    0.0000 H   0  0  0  0  0  0  0  0  0  0  0  0
  -11.5164  -11.7157    0.0000 H   0  0  0  0  0  0  0  0  0  0  0  0
  1  2  1  0
  2  3  1  0
  3  4  2  0
  4  5  1  0
  5  6  2  0
  6  7  1  0
  7  8  2  0
  7  9  1  0
  9 10  1  0
 10 11  1  0
 11 12  2  0
  9 13  1  0
 13 14  1  0
 14 15  2  0
 15 16  1  0
 16 17  2  0
 17 18  1  0
 16 19  1  0
 14 20  1  0
 20 21  1  0
 21 22  2  0
 22 23  1  0
 23 24  2  0
 24 25  1  0
 25 26  2  0
 25 27  1  0
  1 28  2  0
  1 29  1  0
 29 30  1  0
 30 31  1  0
 31 32  1  0
 32 33  2  0
 32 34  1  0
 34 35  1  0
 35 36  1  0
 36 37  1  0
 37 38  1  0
 38 39  1  0
 39 40  1  0
 40 41  2  3
 40 42  1  0
 35 43  1  0
 43 44  2  0
 43 45  1  0
 45 46  1  0
 46 47  1  0
 47 48  1  0
 48 49  1  0
 49 50  1  0
 50 51  1  0
 51 52  2  3
 51 53  1  0
 46 54  1  0
 54 55  2  0
 54 56  1  0
 56 57  1  0
 57 58  1  0
 58 59  1  0
 59 60  1  0
 60 61  1  0
 61 62  1  0
 62 63  2  3
 62 64  1  0
 57 65  1  0
 65 66  2  0
 65 67  1  0
 67 68  1  0
 68 69  1  0
 69 70  1  0
 70 71  1  0
 71 72  1  0
 72 73  1  0
 73 74  2  3
 73 75  1  0
 68 76  1  0
 76 77  2  0
 76 78  1  0
 79 78  1  6
 79 80  1  0
 80 81  1  0
 81 82  1  0
 82 83  1  0
 79 84  1  0
 79 85  1  0
 85 86  2  0
 85 87  1  0
 87 88  1  0
 88 89  1  0
 89 90  1  0
 90 91  1  0
 91 92  1  0
 92 93  1  0
 93 94  2  3
 93 95  1  0
 88 96  1  0
 96 97  2  0
 96 98  1  0
 98 99  1  0
 99100  1  0
100101  1  0
101102  1  0
102103  1  0
103104  1  0
104105  2  3
104106  1  0
 99107  1  0
107108  2  0
107109  1  0
109110  1  0
110111  1  0
111112  1  0
112113  1  0
113114  1  0
114115  1  0
115116  2  3
115117  1  0
110118  1  0
118119  2  0
118120  1  0
120121  1  0
121122  1  0
122123  1  0
123124  1  0
124125  1  0
125126  1  0
126127  2  3
126128  1  0
121129  1  0
129130  2  0
129131  1  0
131132  1  0
132133  1  0
133134  1  0
134135  1  0
135136  1  0
136137  1  0
137138  2  3
137139  1  0
132140  1  0
140141  2  0
140142  1  0
142143  1  0
143144  1  0
144145  1  0
145146  1  0
146147  1  0
147148  1  0
148149  2  3
148150  1  0
143151  1  0
151152  2  0
151153  1  0
153154  1  0
154155  1  0
155156  1  0
156157  1  0
157158  1  0
158159  1  0
159160  1  0
160161  1  0
154162  1  0
154163  1  1
163164  2  0
163165  1  0
  8  3  1  0
 11  6  1  0
 83161  2  0
 18 13  2  0
 22  9  1  0
 26 21  1  0
  2166  1  0
  4167  1  0
  5168  1  0
  8169  1  0
 15170  1  0
 17171  1  0
 18172  1  0
 19173  1  0
 23174  1  0
 24175  1  0
 26176  1  0
 27177  1  0
 29178  1  0
 30179  1  0
 30180  1  0
 31181  1  0
 31182  1  0
 34183  1  0
 35184  1  1
 36185  1  0
 36186  1  0
 37187  1  0
 37188  1  0
 38189  1  0
 38190  1  0
 39191  1  0
 41192  1  0
 42193  1  0
 42194  1  0
 45195  1  0
 46196  1  1
 47197  1  0
 47198  1  0
 48199  1  0
 48200  1  0
 49201  1  0
 49202  1  0
 50203  1  0
 52204  1  0
 53205  1  0
 53206  1  0
 56207  1  0
 57208  1  1
 58209  1  0
 58210  1  0
 59211  1  0
 59212  1  0
 60213  1  0
 60214  1  0
 61215  1  0
 63216  1  0
 64217  1  0
 64218  1  0
 67219  1  0
 68220  1  1
 69221  1  0
 69222  1  0
 70223  1  0
 70224  1  0
 71225  1  0
 71226  1  0
 72227  1  0
 74228  1  0
 75229  1  0
 75230  1  0
 78231  1  0
 80232  1  0
 80233  1  0
 81234  1  0
 81235  1  0
 82236  1  0
 82237  1  0
 83238  1  0
 84239  1  0
 84240  1  0
 84241  1  0
 87242  1  0
 88243  1  6
 89244  1  0
 89245  1  0
 90246  1  0
 90247  1  0
 91248  1  0
 91249  1  0
 92250  1  0
 94251  1  0
 95252  1  0
 95253  1  0
 98254  1  0
 99255  1  6
100256  1  0
100257  1  0
101258  1  0
101259  1  0
102260  1  0
102261  1  0
103262  1  0
105263  1  0
106264  1  0
106265  1  0
109266  1  0
110267  1  6
111268  1  0
111269  1  0
112270  1  0
112271  1  0
113272  1  0
113273  1  0
114274  1  0
116275  1  0
117276  1  0
117277  1  0
120278  1  0
121279  1  6
122280  1  0
122281  1  0
123282  1  0
123283  1  0
124284  1  0
124285  1  0
125286  1  0
127287  1  0
128288  1  0
128289  1  0
131290  1  0
132291  1  6
133292  1  0
133293  1  0
134294  1  0
134295  1  0
135296  1  0
135297  1  0
136298  1  0
138299  1  0
139300  1  0
139301  1  0
142302  1  0
143303  1  6
144304  1  0
144305  1  0
145306  1  0
145307  1  0
146308  1  0
146309  1  0
147310  1  0
149311  1  0
150312  1  0
150313  1  0
153314  1  0
155315  1  0
155316  1  0
156317  1  0
156318  1  0
157319  1  0
157320  1  0
158321  1  0
158322  1  0
159323  1  0
159324  1  0
160325  1  0
160326  1  0
161327  1  0
162328  1  0
162329  1  0
162330  1  0
165331  1  0
M  END
