
     RDKit          2D

341347  0  0  0  0  0  0  0  0999 V2000
   28.4645   -3.5213    0.0000 C   0  0  0  0  0  0  0  0  0  0  0  0
   29.9310   -3.2064    0.0000 N   0  0  0  0  0  0  0  0  0  0  0  0
   30.9370   -4.3191    0.0000 C   0  0  0  0  0  0  0  0  0  0  0  0
   30.4764   -5.7466    0.0000 C   0  0  0  0  0  0  0  0  0  0  0  0
   31.4824   -6.8593    0.0000 C   0  0  0  0  0  0  0  0  0  0  0  0
   32.9490   -6.5444    0.0000 C   0  0  0  0  0  0  0  0  0  0  0  0
   33.4096   -5.1168    0.0000 C   0  0  0  0  0  0  0  0  0  0  0  0
   32.4036   -4.0042    0.0000 C   0  0  0  0  0  0  0  0  0  0  0  0
   34.9096   -5.1138    0.0000 C   0  0  0  0  0  0  0  0  0  0  0  0
   35.3760   -6.5394    0.0000 O   0  0  0  0  0  0  0  0  0  0  0  0
   34.1643   -7.4236    0.0000 C   0  0  0  0  0  0  0  0  0  0  0  0
   34.1674   -8.9236    0.0000 O   0  0  0  0  0  0  0  0  0  0  0  0
   36.4017   -5.2675    0.0000 C   0  0  0  0  0  0  0  0  0  0  0  0
   37.2809   -4.0522    0.0000 C   0  0  0  0  0  0  0  0  0  0  0  0
   38.7730   -4.2059    0.0000 C   0  0  0  0  0  0  0  0  0  0  0  0
   39.3859   -5.5749    0.0000 C   0  0  0  0  0  0  0  0  0  0  0  0
   38.5067   -6.7903    0.0000 C   0  0  0  0  0  0  0  0  0  0  0  0
   37.0146   -6.6366    0.0000 C   0  0  0  0  0  0  0  0  0  0  0  0
   40.8780   -5.7287    0.0000 O   0  0  0  0  0  0  0  0  0  0  0  0
   36.6679   -2.6831    0.0000 O   0  0  0  0  0  0  0  0  0  0  0  0
   35.1758   -2.5294    0.0000 C   0  0  0  0  0  0  0  0  0  0  0  0
   34.2967   -3.7447    0.0000 C   0  0  0  0  0  0  0  0  0  0  0  0
   33.2148   -3.0238    0.0000 C   0  0  0  0  0  0  0  0  0  0  0  0
   32.8880   -2.2937    0.0000 C   0  0  0  0  0  0  0  0  0  0  0  0
   33.3569   -1.6455    0.0000 C   0  0  0  0  0  0  0  0  0  0  0  0
   34.1526   -1.7275    0.0000 C   0  0  0  0  0  0  0  0  0  0  0  0
   32.4579    0.3625    0.0000 O   0  0  0  0  0  0  0  0  0  0  0  0
   28.0039   -4.9488    0.0000 S   0  0  0  0  0  0  0  0  0  0  0  0
   27.4585   -2.4086    0.0000 N   0  0  0  0  0  0  0  0  0  0  0  0
   25.9919   -2.7235    0.0000 C   0  0  0  0  0  0  0  0  0  0  0  0
   24.9859   -1.6109    0.0000 C   0  0  0  0  0  0  0  0  0  0  0  0
   23.5193   -1.9258    0.0000 C   0  0  0  0  0  0  0  0  0  0  0  0
   23.0587   -3.3533    0.0000 O   0  0  0  0  0  0  0  0  0  0  0  0
   22.5134   -0.8131    0.0000 N   0  0  0  0  0  0  0  0  0  0  0  0
   21.0468   -1.1280    0.0000 C   0  0  0  0  0  0  0  0  0  0  0  0
   19.7763   -1.9255    0.0000 C   0  0  0  0  0  0  0  0  0  0  0  0
   18.3749   -1.3908    0.0000 C   0  0  0  0  0  0  0  0  0  0  0  0
   18.8553   -3.1094    0.0000 C   0  0  0  0  0  0  0  0  0  0  0  0
   19.4200   -4.4990    0.0000 C   0  0  0  0  0  0  0  0  0  0  0  0
   20.0408   -0.0153    0.0000 C   0  0  0  0  0  0  0  0  0  0  0  0
   20.5014    1.4122    0.0000 O   0  0  0  0  0  0  0  0  0  0  0  0
   18.5742   -0.3302    0.0000 N   0  0  0  0  0  0  0  0  0  0  0  0
   17.5682    0.7824    0.0000 C   0  0  0  0  0  0  0  0  0  0  0  0
   17.0035    2.1721    0.0000 C   0  0  0  0  0  0  0  0  0  0  0  0
   17.9245    3.3560    0.0000 C   0  0  0  0  0  0  0  0  0  0  0  0
   17.3598    4.7456    0.0000 C   0  0  0  0  0  0  0  0  0  0  0  0
   19.1950    4.1535    0.0000 C   0  0  0  0  0  0  0  0  0  0  0  0
   16.1017    0.4676    0.0000 C   0  0  0  0  0  0  0  0  0  0  0  0
   15.8185   -1.0055    0.0000 O   0  0  0  0  0  0  0  0  0  0  0  0
   15.0957    1.5802    0.0000 N   0  0  0  0  0  0  0  0  0  0  0  0
   13.6291    1.2653    0.0000 C   0  0  0  0  0  0  0  0  0  0  0  0
   12.8948   -0.0426    0.0000 C   0  0  0  0  0  0  0  0  0  0  0  0
   11.8075   -1.0761    0.0000 C   0  0  0  0  0  0  0  0  0  0  0  0
   10.4640   -1.7431    0.0000 C   0  0  0  0  0  0  0  0  0  0  0  0
    8.9836   -1.9845    0.0000 C   0  0  0  0  0  0  0  0  0  0  0  0
   14.6598    0.1756    0.0000 C   0  0  0  0  0  0  0  0  0  0  0  0
   13.9453    2.7316    0.0000 C   0  0  0  0  0  0  0  0  0  0  0  0
   15.4206    3.0026    0.0000 O   0  0  0  0  0  0  0  0  0  0  0  0
   13.8152    4.2260    0.0000 N   0  0  0  0  0  0  0  0  0  0  0  0
   13.2504    5.6156    0.0000 C   0  0  0  0  0  0  0  0  0  0  0  0
   13.9186    6.9585    0.0000 C   0  0  0  0  0  0  0  0  0  0  0  0
   12.3011    6.7770    0.0000 C   0  0  0  0  0  0  0  0  0  0  0  0
   13.3081    7.8888    0.0000 O   0  0  0  0  0  0  0  0  0  0  0  0
   11.0517    7.6070    0.0000 N   0  0  0  0  0  0  0  0  0  0  0  0
    9.6131    8.0319    0.0000 C   0  0  0  0  0  0  0  0  0  0  0  0
    8.9798    9.3916    0.0000 C   0  0  0  0  0  0  0  0  0  0  0  0
    9.8407   10.6200    0.0000 O   0  0  0  0  0  0  0  0  0  0  0  0
    8.1132    8.0138    0.0000 C   0  0  0  0  0  0  0  0  0  0  0  0
    7.8719    9.4943    0.0000 O   0  0  0  0  0  0  0  0  0  0  0  0
    6.6853    7.5545    0.0000 N   0  0  0  0  0  0  0  0  0  0  0  0
    5.4562    6.6947    0.0000 C   0  0  0  0  0  0  0  0  0  0  0  0
    3.9982    7.0473    0.0000 C   0  0  0  0  0  0  0  0  0  0  0  0
    3.5746    8.4862    0.0000 C   0  0  0  0  0  0  0  0  0  0  0  0
    4.5351    5.5108    0.0000 C   0  0  0  0  0  0  0  0  0  0  0  0
    3.2272    6.2451    0.0000 O   0  0  0  0  0  0  0  0  0  0  0  0
    4.0040    4.1080    0.0000 N   0  0  0  0  0  0  0  0  0  0  0  0
    3.9099    2.6109    0.0000 C   0  0  0  0  0  0  0  0  0  0  0  0
    4.2612    1.1526    0.0000 C   0  0  0  0  0  0  0  0  0  0  0  0
    5.0268   -0.1373    0.0000 C   0  0  0  0  0  0  0  0  0  0  0  0
    6.1386   -1.1442    0.0000 C   0  0  0  0  0  0  0  0  0  0  0  0
    7.4977   -1.7788    0.0000 C   0  0  0  0  0  0  0  0  0  0  0  0
    2.5840    3.3124    0.0000 C   0  0  0  0  0  0  0  0  0  0  0  0
    2.7252    1.6909    0.0000 C   0  0  0  0  0  0  0  0  0  0  0  0
    2.5639    0.1996    0.0000 O   0  0  0  0  0  0  0  0  0  0  0  0
    1.3360    2.2569    0.0000 N   0  0  0  0  0  0  0  0  0  0  0  0
    0.1513    1.3369    0.0000 C   0  0  0  0  0  0  0  0  0  0  0  0
   -0.6473    0.0671    0.0000 C   0  0  0  0  0  0  0  0  0  0  0  0
   -2.1462    0.1239    0.0000 C   0  0  0  0  0  0  0  0  0  0  0  0
   -2.8465    1.4503    0.0000 C   0  0  0  0  0  0  0  0  0  0  0  0
   -4.3455    1.5071    0.0000 C   0  0  0  0  0  0  0  0  0  0  0  0
   -5.1441    0.2374    0.0000 C   0  0  0  0  0  0  0  0  0  0  0  0
   -6.6430    0.2941    0.0000 O   0  0  0  0  0  0  0  0  0  0  0  0
   -4.4438   -1.0891    0.0000 C   0  0  0  0  0  0  0  0  0  0  0  0
   -2.9448   -1.1459    0.0000 C   0  0  0  0  0  0  0  0  0  0  0  0
   -1.2378    1.9028    0.0000 C   0  0  0  0  0  0  0  0  0  0  0  0
   -1.2596    3.4027    0.0000 O   0  0  0  0  0  0  0  0  0  0  0  0
   -2.4225    0.9828    0.0000 N   0  0  0  0  0  0  0  0  0  0  0  0
   -3.8117    1.5488    0.0000 C   0  0  0  0  0  0  0  0  0  0  0  0
   -4.9234    2.5558    0.0000 C   0  0  0  0  0  0  0  0  0  0  0  0
   -4.4309    3.9726    0.0000 C   0  0  0  0  0  0  0  0  0  0  0  0
   -6.3125    3.1217    0.0000 C   0  0  0  0  0  0  0  0  0  0  0  0
   -6.5169    4.6078    0.0000 C   0  0  0  0  0  0  0  0  0  0  0  0
   -4.9964    0.6288    0.0000 C   0  0  0  0  0  0  0  0  0  0  0  0
   -5.1576   -0.8625    0.0000 O   0  0  0  0  0  0  0  0  0  0  0  0
   -6.3855    1.1948    0.0000 N   0  0  0  0  0  0  0  0  0  0  0  0
   -7.5702    0.2747    0.0000 C   0  0  0  0  0  0  0  0  0  0  0  0
   -8.3688   -0.9950    0.0000 C   0  0  0  0  0  0  0  0  0  0  0  0
   -9.8677   -0.9382    0.0000 C   0  0  0  0  0  0  0  0  0  0  0  0
  -10.6663   -2.2080    0.0000 C   0  0  0  0  0  0  0  0  0  0  0  0
  -12.1653   -2.1512    0.0000 N   0  0  0  0  0  0  0  0  0  0  0  0
  -12.9639   -3.4210    0.0000 C   0  0  0  0  0  0  0  0  0  0  0  0
  -14.4447   -3.1819    0.0000 N   0  0  0  0  0  0  0  0  0  0  0  0
  -12.2636   -4.7475    0.0000 N   0  0  0  0  0  0  0  0  0  0  0  0
   -8.9593    0.8407    0.0000 C   0  0  0  0  0  0  0  0  0  0  0  0
   -9.1637    2.3267    0.0000 O   0  0  0  0  0  0  0  0  0  0  0  0
  -10.1441   -0.0793    0.0000 N   0  0  0  0  0  0  0  0  0  0  0  0
  -11.5332    0.4867    0.0000 C   0  0  0  0  0  0  0  0  0  0  0  0
  -12.6449    1.4937    0.0000 C   0  0  0  0  0  0  0  0  0  0  0  0
  -12.3288    2.9600    0.0000 C   0  0  0  0  0  0  0  0  0  0  0  0
  -13.4405    3.9669    0.0000 C   0  0  0  0  0  0  0  0  0  0  0  0
  -13.1244    5.4332    0.0000 C   0  0  0  0  0  0  0  0  0  0  0  0
  -14.2361    6.4402    0.0000 N   0  0  0  0  0  0  0  0  0  0  0  0
  -12.7179   -0.4333    0.0000 C   0  0  0  0  0  0  0  0  0  0  0  0
  -12.8791   -1.9246    0.0000 O   0  0  0  0  0  0  0  0  0  0  0  0
  -14.1070    0.1327    0.0000 N   0  0  0  0  0  0  0  0  0  0  0  0
  -15.2917   -0.7874    0.0000 C   0  0  0  0  0  0  0  0  0  0  0  0
  -16.0903   -2.0571    0.0000 C   0  0  0  0  0  0  0  0  0  0  0  0
  -17.5893   -2.0004    0.0000 C   0  0  0  0  0  0  0  0  0  0  0  0
  -18.3879   -3.2701    0.0000 C   0  0  0  0  0  0  0  0  0  0  0  0
  -18.9784   -1.4344    0.0000 C   0  0  0  0  0  0  0  0  0  0  0  0
  -16.6809   -0.2214    0.0000 C   0  0  0  0  0  0  0  0  0  0  0  0
  -16.8853    1.2646    0.0000 O   0  0  0  0  0  0  0  0  0  0  0  0
  -17.8656   -1.1414    0.0000 N   0  0  0  0  0  0  0  0  0  0  0  0
  -19.2547   -0.5754    0.0000 C   0  0  0  0  0  0  0  0  0  0  0  0
  -20.3665    0.4315    0.0000 C   0  0  0  0  0  0  0  0  0  0  0  0
  -20.0503    1.8978    0.0000 C   0  0  0  0  0  0  0  0  0  0  0  0
  -21.1621    2.9048    0.0000 C   0  0  0  0  0  0  0  0  0  0  0  0
  -20.8459    4.3711    0.0000 N   0  0  0  0  0  0  0  0  0  0  0  0
  -22.5900    2.4455    0.0000 O   0  0  0  0  0  0  0  0  0  0  0  0
  -20.4394   -1.4954    0.0000 C   0  0  0  0  0  0  0  0  0  0  0  0
  -20.4177   -2.9953    0.0000 O   0  0  0  0  0  0  0  0  0  0  0  0
  -21.8285   -0.9295    0.0000 N   0  0  0  0  0  0  0  0  0  0  0  0
  -23.0133   -1.8495    0.0000 C   0  0  0  0  0  0  0  0  0  0  0  0
  -23.8119   -3.1192    0.0000 C   0  0  0  0  0  0  0  0  0  0  0  0
  -25.3108   -3.0625    0.0000 C   0  0  0  0  0  0  0  0  0  0  0  0
  -26.1094   -4.3322    0.0000 C   0  0  0  0  0  0  0  0  0  0  0  0
  -27.6083   -4.2755    0.0000 N   0  0  0  0  0  0  0  0  0  0  0  0
  -28.4069   -5.5452    0.0000 C   0  0  0  0  0  0  0  0  0  0  0  0
  -29.8878   -5.3062    0.0000 N   0  0  0  0  0  0  0  0  0  0  0  0
  -27.7066   -6.8717    0.0000 N   0  0  0  0  0  0  0  0  0  0  0  0
  -24.4024   -1.2835    0.0000 C   0  0  0  0  0  0  0  0  0  0  0  0
  -24.6068    0.2025    0.0000 O   0  0  0  0  0  0  0  0  0  0  0  0
  -25.5871   -2.2035    0.0000 N   0  0  0  0  0  0  0  0  0  0  0  0
  -26.9762   -1.6375    0.0000 C   0  0  0  0  0  0  0  0  0  0  0  0
  -28.0880   -0.6306    0.0000 C   0  0  0  0  0  0  0  0  0  0  0  0
  -27.7718    0.8357    0.0000 C   0  0  0  0  0  0  0  0  0  0  0  0
  -28.8836    1.8427    0.0000 C   0  0  0  0  0  0  0  0  0  0  0  0
  -28.5674    3.3090    0.0000 O   0  0  0  0  0  0  0  0  0  0  0  0
  -30.3115    1.3833    0.0000 O   0  0  0  0  0  0  0  0  0  0  0  0
  -28.1609   -2.5576    0.0000 C   0  0  0  0  0  0  0  0  0  0  0  0
  -28.3222   -4.0489    0.0000 O   0  0  0  0  0  0  0  0  0  0  0  0
  -29.5501   -1.9916    0.0000 N   0  0  0  0  0  0  0  0  0  0  0  0
  -30.7348   -2.9116    0.0000 C   0  0  0  0  0  0  0  0  0  0  0  0
  -31.5334   -4.1813    0.0000 C   0  0  0  0  0  0  0  0  0  0  0  0
  -33.0323   -4.1246    0.0000 C   0  0  0  0  0  0  0  0  0  0  0  0
  -33.8309   -5.3943    0.0000 C   0  0  0  0  0  0  0  0  0  0  0  0
  -35.3298   -5.3376    0.0000 N   0  0  0  0  0  0  0  0  0  0  0  0
  -33.1306   -6.7208    0.0000 O   0  0  0  0  0  0  0  0  0  0  0  0
  -32.1239   -2.3456    0.0000 C   0  0  0  0  0  0  0  0  0  0  0  0
  -33.4119   -3.1144    0.0000 O   0  0  0  0  0  0  0  0  0  0  0  0
  -32.3283   -0.8596    0.0000 O   0  0  0  0  0  0  0  0  0  0  0  0
   30.2142   -1.7334    0.0000 H   0  0  0  0  0  0  0  0  0  0  0  0
   29.0099   -6.0615    0.0000 H   0  0  0  0  0  0  0  0  0  0  0  0
   31.0218   -8.2868    0.0000 H   0  0  0  0  0  0  0  0  0  0  0  0
   32.5051   -2.5076    0.0000 H   0  0  0  0  0  0  0  0  0  0  0  0
   39.6522   -2.9905    0.0000 H   0  0  0  0  0  0  0  0  0  0  0  0
   39.1196   -8.1593    0.0000 H   0  0  0  0  0  0  0  0  0  0  0  0
   36.1354   -7.8519    0.0000 H   0  0  0  0  0  0  0  0  0  0  0  0
   41.4909   -7.0977    0.0000 H   0  0  0  0  0  0  0  0  0  0  0  0
   31.9254   -4.8063    0.0000 H   0  0  0  0  0  0  0  0  0  0  0  0
   30.7294   -1.8874    0.0000 H   0  0  0  0  0  0  0  0  0  0  0  0
   35.4421    0.0550    0.0000 H   0  0  0  0  0  0  0  0  0  0  0  0
   33.3371    1.5778    0.0000 H   0  0  0  0  0  0  0  0  0  0  0  0
   27.9191   -0.9811    0.0000 H   0  0  0  0  0  0  0  0  0  0  0  0
   24.7215   -3.5210    0.0000 H   0  0  0  0  0  0  0  0  0  0  0  0
   26.5567   -4.1131    0.0000 H   0  0  0  0  0  0  0  0  0  0  0  0
   24.4212   -0.2213    0.0000 H   0  0  0  0  0  0  0  0  0  0  0  0
   26.2564   -0.8134    0.0000 H   0  0  0  0  0  0  0  0  0  0  0  0
   22.9739    0.6144    0.0000 H   0  0  0  0  0  0  0  0  0  0  0  0
   21.6115   -2.5176    0.0000 H   0  0  0  0  0  0  0  0  0  0  0  0
   20.9105   -2.9072    0.0000 H   0  0  0  0  0  0  0  0  0  0  0  0
   17.0923   -1.8607    0.0000 H   0  0  0  0  0  0  0  0  0  0  0  0
   17.4445   -0.1113    0.0000 H   0  0  0  0  0  0  0  0  0  0  0  0
   18.7078    0.2538    0.0000 H   0  0  0  0  0  0  0  0  0  0  0  0
   17.5848   -3.9069    0.0000 H   0  0  0  0  0  0  0  0  0  0  0  0
   17.6100   -2.2732    0.0000 H   0  0  0  0  0  0  0  0  0  0  0  0
   18.4990   -5.6829    0.0000 H   0  0  0  0  0  0  0  0  0  0  0  0
   20.4260   -5.6117    0.0000 H   0  0  0  0  0  0  0  0  0  0  0  0
   20.7782   -3.8623    0.0000 H   0  0  0  0  0  0  0  0  0  0  0  0
   17.7819   -1.6039    0.0000 H   0  0  0  0  0  0  0  0  0  0  0  0
   18.9264    1.4191    0.0000 H   0  0  0  0  0  0  0  0  0  0  0  0
   16.1406    3.3990    0.0000 H   0  0  0  0  0  0  0  0  0  0  0  0
   15.6453    1.5354    0.0000 H   0  0  0  0  0  0  0  0  0  0  0  0
   19.0586    2.3742    0.0000 H   0  0  0  0  0  0  0  0  0  0  0  0
   18.1296    6.0329    0.0000 H   0  0  0  0  0  0  0  0  0  0  0  0
   16.3538    5.8582    0.0000 H   0  0  0  0  0  0  0  0  0  0  0  0
   16.0016    4.1089    0.0000 H   0  0  0  0  0  0  0  0  0  0  0  0
   19.3227    5.6480    0.0000 H   0  0  0  0  0  0  0  0  0  0  0  0
   20.6615    4.4683    0.0000 H   0  0  0  0  0  0  0  0  0  0  0  0
   19.7597    2.7638    0.0000 H   0  0  0  0  0  0  0  0  0  0  0  0
   15.5563    3.0077    0.0000 H   0  0  0  0  0  0  0  0  0  0  0  0
   14.3618   -0.3552    0.0000 H   0  0  0  0  0  0  0  0  0  0  0  0
   13.3896   -1.4587    0.0000 H   0  0  0  0  0  0  0  0  0  0  0  0
   13.0184   -1.9613    0.0000 H   0  0  0  0  0  0  0  0  0  0  0  0
   12.0453   -2.5571    0.0000 H   0  0  0  0  0  0  0  0  0  0  0  0
   11.5001   -2.8278    0.0000 H   0  0  0  0  0  0  0  0  0  0  0  0
   10.0752   -3.1918    0.0000 H   0  0  0  0  0  0  0  0  0  0  0  0
    9.0016   -3.4844    0.0000 H   0  0  0  0  0  0  0  0  0  0  0  0
   14.3019   -1.4515    0.0000 H   0  0  0  0  0  0  0  0  0  0  0  0
   15.6450   -0.9001    0.0000 H   0  0  0  0  0  0  0  0  0  0  0  0
   15.8415    0.7596    0.0000 H   0  0  0  0  0  0  0  0  0  0  0  0
   15.2735    4.5773    0.0000 H   0  0  0  0  0  0  0  0  0  0  0  0
   14.7493    5.5588    0.0000 H   0  0  0  0  0  0  0  0  0  0  0  0
   15.4158    7.0513    0.0000 H   0  0  0  0  0  0  0  0  0  0  0  0
   14.0872    8.4490    0.0000 H   0  0  0  0  0  0  0  0  0  0  0  0
   12.6256    7.7189    0.0000 H   0  0  0  0  0  0  0  0  0  0  0  0
   11.6862    8.9662    0.0000 H   0  0  0  0  0  0  0  0  0  0  0  0
   10.5921    9.1684    0.0000 H   0  0  0  0  0  0  0  0  0  0  0  0
    7.9196   10.4527    0.0000 H   0  0  0  0  0  0  0  0  0  0  0  0
    7.5792    8.8548    0.0000 H   0  0  0  0  0  0  0  0  0  0  0  0
    9.2074   11.9797    0.0000 H   0  0  0  0  0  0  0  0  0  0  0  0
    6.0183    8.8980    0.0000 H   0  0  0  0  0  0  0  0  0  0  0  0
    5.3597    8.1916    0.0000 H   0  0  0  0  0  0  0  0  0  0  0  0
    2.5076    6.8800    0.0000 H   0  0  0  0  0  0  0  0  0  0  0  0
    3.5447    5.6175    0.0000 H   0  0  0  0  0  0  0  0  0  0  0  0
    2.1167    8.8389    0.0000 H   0  0  0  0  0  0  0  0  0  0  0  0
    3.6687    9.9833    0.0000 H   0  0  0  0  0  0  0  0  0  0  0  0
    5.0338    8.8340    0.0000 H   0  0  0  0  0  0  0  0  0  0  0  0
    2.5377    4.4241    0.0000 H   0  0  0  0  0  0  0  0  0  0  0  0
    3.4003   -0.0757    0.0000 H   0  0  0  0  0  0  0  0  0  0  0  0
    2.7636    1.0672    0.0000 H   0  0  0  0  0  0  0  0  0  0  0  0
    4.3956   -1.4980    0.0000 H   0  0  0  0  0  0  0  0  0  0  0  0
    3.6209   -0.6603    0.0000 H   0  0  0  0  0  0  0  0  0  0  0  0
    6.1192   -2.6441    0.0000 H   0  0  0  0  0  0  0  0  0  0  0  0
    4.8467   -1.9066    0.0000 H   0  0  0  0  0  0  0  0  0  0  0  0
    7.0729   -3.2173    0.0000 H   0  0  0  0  0  0  0  0  0  0  0  0
    1.1583    2.8460    0.0000 H   0  0  0  0  0  0  0  0  0  0  0  0
    1.7211    4.5394    0.0000 H   0  0  0  0  0  0  0  0  0  0  0  0
    3.1912    4.6840    0.0000 H   0  0  0  0  0  0  0  0  0  0  0  0
    0.9520    3.7069    0.0000 H   0  0  0  0  0  0  0  0  0  0  0  0
    1.2631    0.3299    0.0000 H   0  0  0  0  0  0  0  0  0  0  0  0
   -0.9635   -1.3992    0.0000 H   0  0  0  0  0  0  0  0  0  0  0  0
    0.7418   -0.4989    0.0000 H   0  0  0  0  0  0  0  0  0  0  0  0
   -2.2087    2.8080    0.0000 H   0  0  0  0  0  0  0  0  0  0  0  0
   -5.3460    2.6247    0.0000 H   0  0  0  0  0  0  0  0  0  0  0  0
   -7.2809   -1.0635    0.0000 H   0  0  0  0  0  0  0  0  0  0  0  0
   -5.2424   -2.3589    0.0000 H   0  0  0  0  0  0  0  0  0  0  0  0
   -2.2445   -2.4724    0.0000 H   0  0  0  0  0  0  0  0  0  0  0  0
   -2.5838   -0.5085    0.0000 H   0  0  0  0  0  0  0  0  0  0  0  0
   -2.8642    2.7117    0.0000 H   0  0  0  0  0  0  0  0  0  0  0  0
   -6.0055    1.5170    0.0000 H   0  0  0  0  0  0  0  0  0  0  0  0
   -5.5806    5.1782    0.0000 H   0  0  0  0  0  0  0  0  0  0  0  0
   -3.8086    5.2918    0.0000 H   0  0  0  0  0  0  0  0  0  0  0  0
   -3.1595    3.6296    0.0000 H   0  0  0  0  0  0  0  0  0  0  0  0
   -7.8115    3.1785    0.0000 H   0  0  0  0  0  0  0  0  0  0  0  0
   -6.9741    1.7755    0.0000 H   0  0  0  0  0  0  0  0  0  0  0  0
   -7.9061    5.1737    0.0000 H   0  0  0  0  0  0  0  0  0  0  0  0
   -6.2008    6.0741    0.0000 H   0  0  0  0  0  0  0  0  0  0  0  0
   -5.0488    4.9154    0.0000 H   0  0  0  0  0  0  0  0  0  0  0  0
   -6.9434    2.5872    0.0000 H   0  0  0  0  0  0  0  0  0  0  0  0
   -6.4584   -0.7322    0.0000 H   0  0  0  0  0  0  0  0  0  0  0  0
   -8.5039   -2.4889    0.0000 H   0  0  0  0  0  0  0  0  0  0  0  0
   -7.0590   -1.7261    0.0000 H   0  0  0  0  0  0  0  0  0  0  0  0
  -11.2569   -0.3723    0.0000 H   0  0  0  0  0  0  0  0  0  0  0  0
  -10.2771    0.5048    0.0000 H   0  0  0  0  0  0  0  0  0  0  0  0
  -10.9825   -3.6743    0.0000 H   0  0  0  0  0  0  0  0  0  0  0  0
   -9.3566   -2.9391    0.0000 H   0  0  0  0  0  0  0  0  0  0  0  0
  -13.1658   -1.0336    0.0000 H   0  0  0  0  0  0  0  0  0  0  0  0
  -15.2614   -4.6340    0.0000 H   0  0  0  0  0  0  0  0  0  0  0  0
  -15.0183   -1.9587    0.0000 H   0  0  0  0  0  0  0  0  0  0  0  0
  -13.0622   -6.0172    0.0000 H   0  0  0  0  0  0  0  0  0  0  0  0
  -10.7646   -4.8042    0.0000 H   0  0  0  0  0  0  0  0  0  0  0  0
  -10.3053   -1.5706    0.0000 H   0  0  0  0  0  0  0  0  0  0  0  0
  -10.5858    1.6496    0.0000 H   0  0  0  0  0  0  0  0  0  0  0  0
  -14.0341    2.0596    0.0000 H   0  0  0  0  0  0  0  0  0  0  0  0
  -13.7271    0.4549    0.0000 H   0  0  0  0  0  0  0  0  0  0  0  0
  -11.3814    4.1229    0.0000 H   0  0  0  0  0  0  0  0  0  0  0  0
  -10.8810    2.5675    0.0000 H   0  0  0  0  0  0  0  0  0  0  0  0
  -14.8883    4.3593    0.0000 H   0  0  0  0  0  0  0  0  0  0  0  0
  -14.3880    2.8040    0.0000 H   0  0  0  0  0  0  0  0  0  0  0  0
  -12.3258    6.7029    0.0000 H   0  0  0  0  0  0  0  0  0  0  0  0
  -11.6766    5.0408    0.0000 H   0  0  0  0  0  0  0  0  0  0  0  0
  -13.9200    7.9065    0.0000 H   0  0  0  0  0  0  0  0  0  0  0  0
  -15.6253    7.0062    0.0000 H   0  0  0  0  0  0  0  0  0  0  0  0
  -15.1836    5.2773    0.0000 H   0  0  0  0  0  0  0  0  0  0  0  0
  -14.4910    1.5827    0.0000 H   0  0  0  0  0  0  0  0  0  0  0  0
  -14.1800   -1.7943    0.0000 H   0  0  0  0  0  0  0  0  0  0  0  0
  -16.2254   -3.5510    0.0000 H   0  0  0  0  0  0  0  0  0  0  0  0
  -14.6055   -2.2701    0.0000 H   0  0  0  0  0  0  0  0  0  0  0  0
  -17.9986   -0.5573    0.0000 H   0  0  0  0  0  0  0  0  0  0  0  0
  -19.8560   -3.5777    0.0000 H   0  0  0  0  0  0  0  0  0  0  0  0
  -18.7040   -4.7364    0.0000 H   0  0  0  0  0  0  0  0  0  0  0  0
  -17.0781   -4.0012    0.0000 H   0  0  0  0  0  0  0  0  0  0  0  0
  -19.5363   -0.0420    0.0000 H   0  0  0  0  0  0  0  0  0  0  0  0
  -20.3981   -1.9187    0.0000 H   0  0  0  0  0  0  0  0  0  0  0  0
  -19.4709   -2.8512    0.0000 H   0  0  0  0  0  0  0  0  0  0  0  0
  -18.0268   -2.6327    0.0000 H   0  0  0  0  0  0  0  0  0  0  0  0
  -18.3073    0.5875    0.0000 H   0  0  0  0  0  0  0  0  0  0  0  0
  -21.6762    1.1626    0.0000 H   0  0  0  0  0  0  0  0  0  0  0  0
  -21.5671   -0.4676    0.0000 H   0  0  0  0  0  0  0  0  0  0  0  0
  -19.2517    3.1676    0.0000 H   0  0  0  0  0  0  0  0  0  0  0  0
  -18.6025    1.5054    0.0000 H   0  0  0  0  0  0  0  0  0  0  0  0
  -21.9577    5.3781    0.0000 H   0  0  0  0  0  0  0  0  0  0  0  0
  -19.4180    4.8304    0.0000 H   0  0  0  0  0  0  0  0  0  0  0  0
  -22.2126    0.5206    0.0000 H   0  0  0  0  0  0  0  0  0  0  0  0
  -21.9015   -2.8564    0.0000 H   0  0  0  0  0  0  0  0  0  0  0  0
  -23.9469   -4.6131    0.0000 H   0  0  0  0  0  0  0  0  0  0  0  0
  -22.4227   -3.6852    0.0000 H   0  0  0  0  0  0  0  0  0  0  0  0
  -26.6999   -2.4965    0.0000 H   0  0  0  0  0  0  0  0  0  0  0  0
  -25.7202   -1.6194    0.0000 H   0  0  0  0  0  0  0  0  0  0  0  0
  -26.4256   -5.7985    0.0000 H   0  0  0  0  0  0  0  0  0  0  0  0
  -24.7996   -5.0633    0.0000 H   0  0  0  0  0  0  0  0  0  0  0  0
  -28.6088   -3.1579    0.0000 H   0  0  0  0  0  0  0  0  0  0  0  0
  -30.7045   -6.7582    0.0000 H   0  0  0  0  0  0  0  0  0  0  0  0
  -30.4613   -4.0829    0.0000 H   0  0  0  0  0  0  0  0  0  0  0  0
  -28.5052   -8.1414    0.0000 H   0  0  0  0  0  0  0  0  0  0  0  0
  -26.2077   -6.9284    0.0000 H   0  0  0  0  0  0  0  0  0  0  0  0
  -25.7483   -3.6948    0.0000 H   0  0  0  0  0  0  0  0  0  0  0  0
  -26.0288   -0.4746    0.0000 H   0  0  0  0  0  0  0  0  0  0  0  0
  -29.3978    0.1005    0.0000 H   0  0  0  0  0  0  0  0  0  0  0  0
  -29.1701   -1.6693    0.0000 H   0  0  0  0  0  0  0  0  0  0  0  0
  -26.9732    2.1055    0.0000 H   0  0  0  0  0  0  0  0  0  0  0  0
  -26.3241    0.4433    0.0000 H   0  0  0  0  0  0  0  0  0  0  0  0
  -29.9341   -0.5416    0.0000 H   0  0  0  0  0  0  0  0  0  0  0  0
  -29.6230   -3.9186    0.0000 H   0  0  0  0  0  0  0  0  0  0  0  0
  -31.8496   -5.6476    0.0000 H   0  0  0  0  0  0  0  0  0  0  0  0
  -30.0486   -4.3944    0.0000 H   0  0  0  0  0  0  0  0  0  0  0  0
  -34.4214   -3.5586    0.0000 H   0  0  0  0  0  0  0  0  0  0  0  0
  -33.2627   -2.6424    0.0000 H   0  0  0  0  0  0  0  0  0  0  0  0
  -36.1285   -6.6073    0.0000 H   0  0  0  0  0  0  0  0  0  0  0  0
  -36.0302   -4.0111    0.0000 H   0  0  0  0  0  0  0  0  0  0  0  0
  1  2  1  0
  2  3  1  0
  3  4  2  0
  4  5  1  0
  5  6  2  0
  6  7  1  0
  7  8  2  0
  7  9  1  0
  9 10  1  0
 10 11  1  0
 11 12  2  0
  9 13  1  0
 13 14  1  0
 14 15  2  0
 15 16  1  0
 16 17  2  0
 17 18  1  0
 16 19  1  0
 14 20  1  0
 20 21  1  0
 21 22  2  0
 22 23  1  0
 23 24  2  0
 24 25  1  0
 25 26  2  0
 25 27  1  0
  1 28  2  0
  1 29  1  0
 29 30  1  0
 30 31  1  0
 31 32  1  0
 32 33  2  0
 32 34  1  0
 34 35  1  0
 35 36  1  0
 36 37  1  0
 36 38  1  0
 38 39  1  0
 35 40  1  0
 40 41  2  0
 40 42  1  0
 42 43  1  0
 43 44  1  0
 44 45  1  0
 45 46  1  0
 45 47  1  0
 43 48  1  0
 48 49  2  0
 48 50  1  0
 51 50  1  1
 51 52  1  0
 52 53  1  0
 53 54  1  0
 54 55  1  0
 51 56  1  0
 51 57  1  0
 57 58  2  0
 57 59  1  0
 59 60  1  0
 60 61  1  0
 60 62  1  0
 62 63  2  0
 62 64  1  0
 64 65  1  0
 65 66  1  0
 66 67  1  0
 65 68  1  0
 68 69  2  0
 68 70  1  0
 70 71  1  0
 71 72  1  0
 72 73  1  0
 71 74  1  0
 74 75  2  0
 74 76  1  0
 76 77  1  0
 77 78  1  0
 78 79  1  0
 79 80  1  0
 80 81  1  0
 77 82  1  0
 77 83  1  1
 83 84  2  0
 83 85  1  0
 85 86  1  0
 86 87  1  0
 87 88  1  0
 88 89  2  0
 89 90  1  0
 90 91  2  0
 91 92  1  0
 91 93  1  0
 93 94  2  0
 86 95  1  0
 95 96  2  0
 95 97  1  0
 97 98  1  0
 98 99  1  0
 99100  1  0
 99101  1  0
101102  1  0
 98103  1  0
103104  2  0
103105  1  0
105106  1  0
106107  1  0
107108  1  0
108109  1  0
109110  1  0
110111  1  0
111112  2  3
111113  1  0
106114  1  0
114115  2  0
114116  1  0
116117  1  0
117118  1  0
118119  1  0
119120  1  0
120121  1  0
121122  1  0
117123  1  0
123124  2  0
123125  1  0
125126  1  0
126127  1  0
127128  1  0
128129  1  0
128130  1  0
126131  1  0
131132  2  0
131133  1  0
133134  1  0
134135  1  0
135136  1  0
136137  1  0
137138  1  0
137139  2  0
134140  1  0
140141  2  0
140142  1  0
142143  1  0
143144  1  0
144145  1  0
145146  1  0
146147  1  0
147148  1  0
148149  2  3
148150  1  0
143151  1  0
151152  2  0
151153  1  0
153154  1  0
154155  1  0
155156  1  0
156157  1  0
157158  2  0
157159  1  0
154160  1  0
160161  2  0
160162  1  0
162163  1  0
163164  1  0
164165  1  0
165166  1  0
166167  1  0
166168  2  0
163169  1  0
169170  2  0
169171  1  0
  8  3  1  0
 94 88  1  0
 11  6  1  0
 55 81  2  0
 18 13  2  0
 22  9  1  0
 26 21  1  0
  2172  1  0
  4173  1  0
  5174  1  0
  8175  1  0
 15176  1  0
 17177  1  0
 18178  1  0
 19179  1  0
 23180  1  0
 24181  1  0
 26182  1  0
 27183  1  0
 29184  1  0
 30185  1  0
 30186  1  0
 31187  1  0
 31188  1  0
 34189  1  0
 35190  1  1
 36191  1  1
 37192  1  0
 37193  1  0
 37194  1  0
 38195  1  0
 38196  1  0
 39197  1  0
 39198  1  0
 39199  1  0
 42200  1  0
 43201  1  6
 44202  1  0
 44203  1  0
 45204  1  0
 46205  1  0
 46206  1  0
 46207  1  0
 47208  1  0
 47209  1  0
 47210  1  0
 50211  1  0
 52212  1  0
 52213  1  0
 53214  1  0
 53215  1  0
 54216  1  0
 54217  1  0
 55218  1  0
 56219  1  0
 56220  1  0
 56221  1  0
 59222  1  0
 60223  1  6
 61224  1  0
 61225  1  0
 61226  1  0
 64227  1  0
 65228  1  6
 66229  1  0
 66230  1  0
 67231  1  0
 70232  1  0
 71233  1  6
 72234  1  0
 72235  1  0
 73236  1  0
 73237  1  0
 73238  1  0
 76239  1  0
 78240  1  0
 78241  1  0
 79242  1  0
 79243  1  0
 80244  1  0
 80245  1  0
 81246  1  0
 82247  1  0
 82248  1  0
 82249  1  0
 85250  1  0
 86251  1  1
 87252  1  0
 87253  1  0
 89254  1  0
 90255  1  0
 92256  1  0
 93257  1  0
 94258  1  0
 97259  1  0
 98260  1  6
 99261  1  1
100262  1  0
100263  1  0
100264  1  0
101265  1  0
101266  1  0
102267  1  0
102268  1  0
102269  1  0
105270  1  0
106271  1  1
107272  1  0
107273  1  0
108274  1  0
108275  1  0
109276  1  0
109277  1  0
110278  1  0
112279  1  0
112280  1  0
113281  1  0
113282  1  0
116283  1  0
117284  1  6
118285  1  0
118286  1  0
119287  1  0
119288  1  0
120289  1  0
120290  1  0
121291  1  0
121292  1  0
122293  1  0
122294  1  0
122295  1  0
125296  1  0
126297  1  1
127298  1  0
127299  1  0
128300  1  0
129301  1  0
129302  1  0
129303  1  0
130304  1  0
130305  1  0
130306  1  0
133307  1  0
134308  1  6
135309  1  0
135310  1  0
136311  1  0
136312  1  0
138313  1  0
138314  1  0
142315  1  0
143316  1  1
144317  1  0
144318  1  0
145319  1  0
145320  1  0
146321  1  0
146322  1  0
147323  1  0
149324  1  0
149325  1  0
150326  1  0
150327  1  0
153328  1  0
154329  1  6
155330  1  0
155331  1  0
156332  1  0
156333  1  0
162334  1  0
163335  1  1
164336  1  0
164337  1  0
165338  1  0
165339  1  0
167340  1  0
167341  1  0
M  CHG  5 112   1 122   1 149   1 159  -1 171  -1
M  END
