
     RDKit          2D

448454  0  0  0  0  0  0  0  0999 V2000
  -51.0510    0.3142    0.0000 C   0  0  0  0  0  0  0  0  0  0  0  0
  -52.3431   -0.4477    0.0000 N   0  0  0  0  0  0  0  0  0  0  0  0
  -53.6490    0.2904    0.0000 C   0  0  0  0  0  0  0  0  0  0  0  0
  -53.6627    1.7903    0.0000 C   0  0  0  0  0  0  0  0  0  0  0  0
  -54.9686    2.5283    0.0000 C   0  0  0  0  0  0  0  0  0  0  0  0
  -56.2607    1.7665    0.0000 C   0  0  0  0  0  0  0  0  0  0  0  0
  -56.2469    0.2665    0.0000 C   0  0  0  0  0  0  0  0  0  0  0  0
  -54.9411   -0.4715    0.0000 C   0  0  0  0  0  0  0  0  0  0  0  0
  -57.6692   -0.2101    0.0000 C   0  0  0  0  0  0  0  0  0  0  0  0
  -58.5620    0.9953    0.0000 O   0  0  0  0  0  0  0  0  0  0  0  0
  -57.6915    2.2169    0.0000 C   0  0  0  0  0  0  0  0  0  0  0  0
  -58.1681    3.6391    0.0000 O   0  0  0  0  0  0  0  0  0  0  0  0
  -59.1335   -0.5354    0.0000 C   0  0  0  0  0  0  0  0  0  0  0  0
  -59.5839   -1.9662    0.0000 C   0  0  0  0  0  0  0  0  0  0  0  0
  -61.0482   -2.2915    0.0000 C   0  0  0  0  0  0  0  0  0  0  0  0
  -62.0621   -1.1861    0.0000 C   0  0  0  0  0  0  0  0  0  0  0  0
  -61.6117    0.2447    0.0000 C   0  0  0  0  0  0  0  0  0  0  0  0
  -60.1474    0.5700    0.0000 C   0  0  0  0  0  0  0  0  0  0  0  0
  -63.5264   -1.5114    0.0000 O   0  0  0  0  0  0  0  0  0  0  0  0
  -58.5700   -3.0717    0.0000 O   0  0  0  0  0  0  0  0  0  0  0  0
  -57.1057   -2.7463    0.0000 C   0  0  0  0  0  0  0  0  0  0  0  0
  -56.6553   -1.3155    0.0000 C   0  0  0  0  0  0  0  0  0  0  0  0
  -55.4012   -1.6579    0.0000 C   0  0  0  0  0  0  0  0  0  0  0  0
  -54.8605   -2.2475    0.0000 C   0  0  0  0  0  0  0  0  0  0  0  0
  -55.1007   -3.0106    0.0000 C   0  0  0  0  0  0  0  0  0  0  0  0
  -55.8816   -3.1841    0.0000 C   0  0  0  0  0  0  0  0  0  0  0  0
  -53.6137   -4.6319    0.0000 O   0  0  0  0  0  0  0  0  0  0  0  0
  -51.0648    1.8142    0.0000 S   0  0  0  0  0  0  0  0  0  0  0  0
  -49.7451   -0.4238    0.0000 N   0  0  0  0  0  0  0  0  0  0  0  0
  -48.4530    0.3381    0.0000 C   0  0  0  0  0  0  0  0  0  0  0  0
  -47.1472   -0.4000    0.0000 C   0  0  0  0  0  0  0  0  0  0  0  0
  -45.8551    0.3619    0.0000 C   0  0  0  0  0  0  0  0  0  0  0  0
  -45.8688    1.8619    0.0000 O   0  0  0  0  0  0  0  0  0  0  0  0
  -44.5492   -0.3761    0.0000 N   0  0  0  0  0  0  0  0  0  0  0  0
  -43.2571    0.3858    0.0000 C   0  0  0  0  0  0  0  0  0  0  0  0
  -42.3035    1.5437    0.0000 C   0  0  0  0  0  0  0  0  0  0  0  0
  -40.8338    1.8435    0.0000 O   0  0  0  0  0  0  0  0  0  0  0  0
  -41.9512   -0.3522    0.0000 C   0  0  0  0  0  0  0  0  0  0  0  0
  -41.9375   -1.8522    0.0000 O   0  0  0  0  0  0  0  0  0  0  0  0
  -40.6591    0.4096    0.0000 N   0  0  0  0  0  0  0  0  0  0  0  0
  -39.3533   -0.3284    0.0000 C   0  0  0  0  0  0  0  0  0  0  0  0
  -38.3786   -1.4686    0.0000 C   0  0  0  0  0  0  0  0  0  0  0  0
  -38.8786   -2.8827    0.0000 C   0  0  0  0  0  0  0  0  0  0  0  0
  -37.9040   -4.0229    0.0000 C   0  0  0  0  0  0  0  0  0  0  0  0
  -38.4040   -5.4371    0.0000 O   0  0  0  0  0  0  0  0  0  0  0  0
  -36.4292   -3.7489    0.0000 O   0  0  0  0  0  0  0  0  0  0  0  0
  -38.0612    0.4335    0.0000 C   0  0  0  0  0  0  0  0  0  0  0  0
  -38.0749    1.9334    0.0000 O   0  0  0  0  0  0  0  0  0  0  0  0
  -36.7553   -0.3045    0.0000 N   0  0  0  0  0  0  0  0  0  0  0  0
  -35.4632    0.4574    0.0000 C   0  0  0  0  0  0  0  0  0  0  0  0
  -34.5096    1.6152    0.0000 C   0  0  0  0  0  0  0  0  0  0  0  0
  -33.0301    1.3683    0.0000 C   0  0  0  0  0  0  0  0  0  0  0  0
  -32.0765    2.5262    0.0000 C   0  0  0  0  0  0  0  0  0  0  0  0
  -30.8626    2.4738    0.0000 O   0  0  0  0  0  0  0  0  0  0  0  0
  -32.6024    3.9310    0.0000 O   0  0  0  0  0  0  0  0  0  0  0  0
  -34.1573   -0.2807    0.0000 C   0  0  0  0  0  0  0  0  0  0  0  0
  -34.1436   -1.7806    0.0000 O   0  0  0  0  0  0  0  0  0  0  0  0
  -32.8652    0.4812    0.0000 N   0  0  0  0  0  0  0  0  0  0  0  0
  -31.5594   -0.2568    0.0000 C   0  0  0  0  0  0  0  0  0  0  0  0
  -30.5847   -1.3970    0.0000 C   0  0  0  0  0  0  0  0  0  0  0  0
  -31.0847   -2.8112    0.0000 C   0  0  0  0  0  0  0  0  0  0  0  0
  -30.1101   -3.9513    0.0000 C   0  0  0  0  0  0  0  0  0  0  0  0
  -32.0383   -3.9690    0.0000 C   0  0  0  0  0  0  0  0  0  0  0  0
  -30.2673    0.5051    0.0000 C   0  0  0  0  0  0  0  0  0  0  0  0
  -30.1302    1.7123    0.0000 O   0  0  0  0  0  0  0  0  0  0  0  0
  -28.9614   -0.2330    0.0000 N   0  0  0  0  0  0  0  0  0  0  0  0
  -27.6693    0.5289    0.0000 C   0  0  0  0  0  0  0  0  0  0  0  0
  -26.7157    1.6868    0.0000 C   0  0  0  0  0  0  0  0  0  0  0  0
  -25.2171    1.6221    0.0000 C   0  0  0  0  0  0  0  0  0  0  0  0
  -26.3634   -0.2091    0.0000 C   0  0  0  0  0  0  0  0  0  0  0  0
  -26.3497   -1.7090    0.0000 O   0  0  0  0  0  0  0  0  0  0  0  0
  -25.0713    0.5528    0.0000 N   0  0  0  0  0  0  0  0  0  0  0  0
  -23.7655   -0.1853    0.0000 C   0  0  0  0  0  0  0  0  0  0  0  0
  -22.7908   -1.3254    0.0000 C   0  0  0  0  0  0  0  0  0  0  0  0
  -22.4734    0.5766    0.0000 C   0  0  0  0  0  0  0  0  0  0  0  0
  -22.4871    2.0766    0.0000 O   0  0  0  0  0  0  0  0  0  0  0  0
  -21.1675   -0.1614    0.0000 N   0  0  0  0  0  0  0  0  0  0  0  0
  -19.8754    0.6005    0.0000 C   0  0  0  0  0  0  0  0  0  0  0  0
  -18.9218    1.7584    0.0000 C   0  0  0  0  0  0  0  0  0  0  0  0
  -17.4423    1.5115    0.0000 C   0  0  0  0  0  0  0  0  0  0  0  0
  -16.4887    2.6693    0.0000 C   0  0  0  0  0  0  0  0  0  0  0  0
  -15.2748    2.6169    0.0000 O   0  0  0  0  0  0  0  0  0  0  0  0
  -17.0146    4.0741    0.0000 O   0  0  0  0  0  0  0  0  0  0  0  0
  -18.5695   -0.1375    0.0000 C   0  0  0  0  0  0  0  0  0  0  0  0
  -18.5558   -1.6375    0.0000 O   0  0  0  0  0  0  0  0  0  0  0  0
  -17.2774    0.6244    0.0000 N   0  0  0  0  0  0  0  0  0  0  0  0
  -15.9716   -0.1137    0.0000 C   0  0  0  0  0  0  0  0  0  0  0  0
  -14.9969   -1.2539    0.0000 C   0  0  0  0  0  0  0  0  0  0  0  0
  -14.6795    0.6482    0.0000 C   0  0  0  0  0  0  0  0  0  0  0  0
  -14.5424    1.8555    0.0000 O   0  0  0  0  0  0  0  0  0  0  0  0
  -13.3736   -0.0898    0.0000 N   0  0  0  0  0  0  0  0  0  0  0  0
  -12.0815    0.6721    0.0000 C   0  0  0  0  0  0  0  0  0  0  0  0
  -11.1279    1.8299    0.0000 C   0  0  0  0  0  0  0  0  0  0  0  0
   -9.6484    1.5830    0.0000 C   0  0  0  0  0  0  0  0  0  0  0  0
   -8.5790    2.6349    0.0000 C   0  0  0  0  0  0  0  0  0  0  0  0
   -7.2481    1.9429    0.0000 N   0  0  0  0  0  0  0  0  0  0  0  0
   -7.4950    0.4633    0.0000 C   0  0  0  0  0  0  0  0  0  0  0  0
   -8.9785    0.2409    0.0000 N   0  0  0  0  0  0  0  0  0  0  0  0
  -10.7756   -0.0660    0.0000 C   0  0  0  0  0  0  0  0  0  0  0  0
  -10.7619   -1.5659    0.0000 O   0  0  0  0  0  0  0  0  0  0  0  0
   -9.4835    0.6959    0.0000 N   0  0  0  0  0  0  0  0  0  0  0  0
   -8.1777   -0.0421    0.0000 C   0  0  0  0  0  0  0  0  0  0  0  0
   -7.2030   -1.1823    0.0000 C   0  0  0  0  0  0  0  0  0  0  0  0
   -7.7030   -2.5965    0.0000 C   0  0  0  0  0  0  0  0  0  0  0  0
   -6.7284   -3.7366    0.0000 N   0  0  0  0  0  0  0  0  0  0  0  0
   -9.1778   -2.8705    0.0000 O   0  0  0  0  0  0  0  0  0  0  0  0
   -6.8856    0.7198    0.0000 C   0  0  0  0  0  0  0  0  0  0  0  0
   -6.5360    2.1785    0.0000 O   0  0  0  0  0  0  0  0  0  0  0  0
   -5.5797   -0.0183    0.0000 N   0  0  0  0  0  0  0  0  0  0  0  0
   -4.2876    0.7436    0.0000 C   0  0  0  0  0  0  0  0  0  0  0  0
   -3.3340    1.9015    0.0000 C   0  0  0  0  0  0  0  0  0  0  0  0
   -1.8545    1.6546    0.0000 C   0  0  0  0  0  0  0  0  0  0  0  0
   -0.9009    2.8125    0.0000 C   0  0  0  0  0  0  0  0  0  0  0  0
   -0.5486    0.9166    0.0000 C   0  0  0  0  0  0  0  0  0  0  0  0
   -2.9817    0.0056    0.0000 C   0  0  0  0  0  0  0  0  0  0  0  0
   -2.9680   -1.4943    0.0000 O   0  0  0  0  0  0  0  0  0  0  0  0
   -1.6896    0.7675    0.0000 N   0  0  0  0  0  0  0  0  0  0  0  0
   -0.3838    0.0294    0.0000 C   0  0  0  0  0  0  0  0  0  0  0  0
    0.5909   -1.1107    0.0000 C   0  0  0  0  0  0  0  0  0  0  0  0
    0.0909   -2.5249    0.0000 S   0  0  0  0  0  0  0  0  0  0  0  0
    0.9083    0.7913    0.0000 C   0  0  0  0  0  0  0  0  0  0  0  0
    1.0775    2.2818    0.0000 O   0  0  0  0  0  0  0  0  0  0  0  0
    2.2142    0.0533    0.0000 N   0  0  0  0  0  0  0  0  0  0  0  0
    3.5063    0.8152    0.0000 C   0  0  0  0  0  0  0  0  0  0  0  0
    4.4599    1.9731    0.0000 C   0  0  0  0  0  0  0  0  0  0  0  0
    4.9599    3.3873    0.0000 O   0  0  0  0  0  0  0  0  0  0  0  0
    5.9585    1.9084    0.0000 C   0  0  0  0  0  0  0  0  0  0  0  0
    4.8122    0.0772    0.0000 C   0  0  0  0  0  0  0  0  0  0  0  0
    4.8259   -1.4228    0.0000 O   0  0  0  0  0  0  0  0  0  0  0  0
    6.1043    0.8391    0.0000 N   0  0  0  0  0  0  0  0  0  0  0  0
    7.4101    0.1010    0.0000 C   0  0  0  0  0  0  0  0  0  0  0  0
    8.3848   -1.0392    0.0000 C   0  0  0  0  0  0  0  0  0  0  0  0
    7.8848   -2.4533    0.0000 C   0  0  0  0  0  0  0  0  0  0  0  0
    8.8594   -3.5935    0.0000 C   0  0  0  0  0  0  0  0  0  0  0  0
    6.9312   -3.6112    0.0000 C   0  0  0  0  0  0  0  0  0  0  0  0
    8.7022    0.8629    0.0000 C   0  0  0  0  0  0  0  0  0  0  0  0
    8.6885    2.3628    0.0000 O   0  0  0  0  0  0  0  0  0  0  0  0
   10.0081    0.1249    0.0000 N   0  0  0  0  0  0  0  0  0  0  0  0
   11.3002    0.8868    0.0000 C   0  0  0  0  0  0  0  0  0  0  0  0
   12.2538    2.0446    0.0000 C   0  0  0  0  0  0  0  0  0  0  0  0
   13.7333    1.7977    0.0000 C   0  0  0  0  0  0  0  0  0  0  0  0
   14.6869    2.9556    0.0000 C   0  0  0  0  0  0  0  0  0  0  0  0
   15.0392    1.0597    0.0000 C   0  0  0  0  0  0  0  0  0  0  0  0
   12.6061    0.1487    0.0000 C   0  0  0  0  0  0  0  0  0  0  0  0
   12.6198   -1.3512    0.0000 O   0  0  0  0  0  0  0  0  0  0  0  0
   13.8982    0.9106    0.0000 N   0  0  0  0  0  0  0  0  0  0  0  0
   15.2040    0.1726    0.0000 C   0  0  0  0  0  0  0  0  0  0  0  0
   16.1787   -0.9676    0.0000 C   0  0  0  0  0  0  0  0  0  0  0  0
   15.6787   -2.3818    0.0000 C   0  0  0  0  0  0  0  0  0  0  0  0
   16.6533   -3.5219    0.0000 C   0  0  0  0  0  0  0  0  0  0  0  0
   16.1533   -4.9361    0.0000 O   0  0  0  0  0  0  0  0  0  0  0  0
   18.1281   -3.2479    0.0000 O   0  0  0  0  0  0  0  0  0  0  0  0
   16.4961    0.9345    0.0000 C   0  0  0  0  0  0  0  0  0  0  0  0
   16.6653    2.4249    0.0000 O   0  0  0  0  0  0  0  0  0  0  0  0
   17.8020    0.1964    0.0000 N   0  0  0  0  0  0  0  0  0  0  0  0
   19.0941    0.9583    0.0000 C   0  0  0  0  0  0  0  0  0  0  0  0
   20.0477    2.1162    0.0000 C   0  0  0  0  0  0  0  0  0  0  0  0
   21.5272    1.8693    0.0000 C   0  0  0  0  0  0  0  0  0  0  0  0
   22.4808    3.0272    0.0000 N   0  0  0  0  0  0  0  0  0  0  0  0
   22.3775    0.6336    0.0000 O   0  0  0  0  0  0  0  0  0  0  0  0
   20.4000    0.2203    0.0000 C   0  0  0  0  0  0  0  0  0  0  0  0
   20.4137   -1.2796    0.0000 O   0  0  0  0  0  0  0  0  0  0  0  0
   21.6921    0.9822    0.0000 N   0  0  0  0  0  0  0  0  0  0  0  0
   22.9979    0.2441    0.0000 C   0  0  0  0  0  0  0  0  0  0  0  0
   23.9726   -0.8960    0.0000 C   0  0  0  0  0  0  0  0  0  0  0  0
   24.2900    1.0060    0.0000 C   0  0  0  0  0  0  0  0  0  0  0  0
   24.4592    2.4965    0.0000 O   0  0  0  0  0  0  0  0  0  0  0  0
   25.5959    0.2680    0.0000 N   0  0  0  0  0  0  0  0  0  0  0  0
   26.8880    1.0299    0.0000 C   0  0  0  0  0  0  0  0  0  0  0  0
   27.8416    2.1878    0.0000 C   0  0  0  0  0  0  0  0  0  0  0  0
   29.3369    2.3062    0.0000 C   0  0  0  0  0  0  0  0  0  0  0  0
   28.3416    3.6020    0.0000 C   0  0  0  0  0  0  0  0  0  0  0  0
   27.3670    4.7421    0.0000 C   0  0  0  0  0  0  0  0  0  0  0  0
   28.1939    0.2919    0.0000 C   0  0  0  0  0  0  0  0  0  0  0  0
   28.0247   -1.1986    0.0000 O   0  0  0  0  0  0  0  0  0  0  0  0
   29.4860    1.0538    0.0000 N   0  0  0  0  0  0  0  0  0  0  0  0
   30.7918    0.3157    0.0000 C   0  0  0  0  0  0  0  0  0  0  0  0
   31.1025   -1.1518    0.0000 C   0  0  0  0  0  0  0  0  0  0  0  0
   31.8320   -2.4624    0.0000 C   0  0  0  0  0  0  0  0  0  0  0  0
   32.9154   -3.4999    0.0000 C   0  0  0  0  0  0  0  0  0  0  0  0
   34.2564   -4.1719    0.0000 C   0  0  0  0  0  0  0  0  0  0  0  0
   29.4829   -0.4170    0.0000 C   0  0  0  0  0  0  0  0  0  0  0  0
   30.9275    1.8096    0.0000 C   0  0  0  0  0  0  0  0  0  0  0  0
   29.6952    2.6649    0.0000 O   0  0  0  0  0  0  0  0  0  0  0  0
   31.4974    3.1971    0.0000 N   0  0  0  0  0  0  0  0  0  0  0  0
   32.4510    4.3549    0.0000 C   0  0  0  0  0  0  0  0  0  0  0  0
   32.2138    5.8361    0.0000 C   0  0  0  0  0  0  0  0  0  0  0  0
   33.3779    6.7820    0.0000 C   0  0  0  0  0  0  0  0  0  0  0  0
   33.1408    8.2632    0.0000 O   0  0  0  0  0  0  0  0  0  0  0  0
   34.8779    6.7847    0.0000 O   0  0  0  0  0  0  0  0  0  0  0  0
   33.7035    5.1803    0.0000 C   0  0  0  0  0  0  0  0  0  0  0  0
   33.4222    6.6537    0.0000 O   0  0  0  0  0  0  0  0  0  0  0  0
   35.1437    5.5998    0.0000 N   0  0  0  0  0  0  0  0  0  0  0  0
   36.6435    5.5762    0.0000 C   0  0  0  0  0  0  0  0  0  0  0  0
   37.6536    6.6851    0.0000 C   0  0  0  0  0  0  0  0  0  0  0  0
   38.9821    7.3816    0.0000 O   0  0  0  0  0  0  0  0  0  0  0  0
   37.1983    8.1143    0.0000 C   0  0  0  0  0  0  0  0  0  0  0  0
   38.0697    5.1115    0.0000 C   0  0  0  0  0  0  0  0  0  0  0  0
   38.7417    6.4526    0.0000 O   0  0  0  0  0  0  0  0  0  0  0  0
   39.2956    4.2471    0.0000 N   0  0  0  0  0  0  0  0  0  0  0  0
   40.2122    3.0598    0.0000 C   0  0  0  0  0  0  0  0  0  0  0  0
   41.7090    2.9614    0.0000 C   0  0  0  0  0  0  0  0  0  0  0  0
   42.5426    4.2085    0.0000 C   0  0  0  0  0  0  0  0  0  0  0  0
   40.7382    1.6550    0.0000 C   0  0  0  0  0  0  0  0  0  0  0  0
   42.2056    1.9657    0.0000 O   0  0  0  0  0  0  0  0  0  0  0  0
   40.8267    0.1576    0.0000 N   0  0  0  0  0  0  0  0  0  0  0  0
   40.4699   -1.2993    0.0000 C   0  0  0  0  0  0  0  0  0  0  0  0
   39.6996   -2.5864    0.0000 C   0  0  0  0  0  0  0  0  0  0  0  0
   38.5841   -3.5892    0.0000 C   0  0  0  0  0  0  0  0  0  0  0  0
   37.2225   -4.2186    0.0000 C   0  0  0  0  0  0  0  0  0  0  0  0
   35.7359   -4.4188    0.0000 C   0  0  0  0  0  0  0  0  0  0  0  0
   41.9447   -1.0253    0.0000 C   0  0  0  0  0  0  0  0  0  0  0  0
   41.3263   -2.5309    0.0000 C   0  0  0  0  0  0  0  0  0  0  0  0
   41.0353   -4.0024    0.0000 O   0  0  0  0  0  0  0  0  0  0  0  0
   42.8210   -2.4050    0.0000 N   0  0  0  0  0  0  0  0  0  0  0  0
   43.6773   -3.6366    0.0000 C   0  0  0  0  0  0  0  0  0  0  0  0
   44.0608   -5.0867    0.0000 C   0  0  0  0  0  0  0  0  0  0  0  0
   42.9966   -6.1439    0.0000 C   0  0  0  0  0  0  0  0  0  0  0  0
   43.3801   -7.5941    0.0000 C   0  0  0  0  0  0  0  0  0  0  0  0
   42.3160   -8.6512    0.0000 O   0  0  0  0  0  0  0  0  0  0  0  0
   44.8277   -7.9870    0.0000 O   0  0  0  0  0  0  0  0  0  0  0  0
   45.1720   -3.5108    0.0000 C   0  0  0  0  0  0  0  0  0  0  0  0
   45.8104   -2.1534    0.0000 O   0  0  0  0  0  0  0  0  0  0  0  0
   46.0283   -4.7423    0.0000 N   0  0  0  0  0  0  0  0  0  0  0  0
   47.5230   -4.6165    0.0000 C   0  0  0  0  0  0  0  0  0  0  0  0
   48.8846   -3.9870    0.0000 C   0  0  0  0  0  0  0  0  0  0  0  0
   50.1105   -4.8514    0.0000 C   0  0  0  0  0  0  0  0  0  0  0  0
   51.4720   -4.2220    0.0000 C   0  0  0  0  0  0  0  0  0  0  0  0
   52.6979   -5.0863    0.0000 N   0  0  0  0  0  0  0  0  0  0  0  0
   51.6077   -2.7281    0.0000 O   0  0  0  0  0  0  0  0  0  0  0  0
   48.3794   -5.8480    0.0000 C   0  0  0  0  0  0  0  0  0  0  0  0
   49.8783   -5.9053    0.0000 O   0  0  0  0  0  0  0  0  0  0  0  0
   47.7410   -7.2054    0.0000 O   0  0  0  0  0  0  0  0  0  0  0  0
  -52.1466   -1.9347    0.0000 H   0  0  0  0  0  0  0  0  0  0  0  0
  -52.3707    2.5522    0.0000 H   0  0  0  0  0  0  0  0  0  0  0  0
  -54.9824    4.0283    0.0000 H   0  0  0  0  0  0  0  0  0  0  0  0
  -54.5648   -1.9236    0.0000 H   0  0  0  0  0  0  0  0  0  0  0  0
  -61.4986   -3.7223    0.0000 H   0  0  0  0  0  0  0  0  0  0  0  0
  -62.6256    1.3502    0.0000 H   0  0  0  0  0  0  0  0  0  0  0  0
  -59.6970    2.0008    0.0000 H   0  0  0  0  0  0  0  0  0  0  0  0
  -64.5403   -0.4059    0.0000 H   0  0  0  0  0  0  0  0  0  0  0  0
  -54.7406    0.4406    0.0000 H   0  0  0  0  0  0  0  0  0  0  0  0
  -52.6841   -1.9513    0.0000 H   0  0  0  0  0  0  0  0  0  0  0  0
  -56.5422   -5.2826    0.0000 H   0  0  0  0  0  0  0  0  0  0  0  0
  -54.0641   -6.0627    0.0000 H   0  0  0  0  0  0  0  0  0  0  0  0
  -49.7314   -1.9238    0.0000 H   0  0  0  0  0  0  0  0  0  0  0  0
  -47.4995    1.4960    0.0000 H   0  0  0  0  0  0  0  0  0  0  0  0
  -49.4277    1.4782    0.0000 H   0  0  0  0  0  0  0  0  0  0  0  0
  -46.1725   -1.5401    0.0000 H   0  0  0  0  0  0  0  0  0  0  0  0
  -48.1008   -1.5578    0.0000 H   0  0  0  0  0  0  0  0  0  0  0  0
  -44.5354   -1.8760    0.0000 H   0  0  0  0  0  0  0  0  0  0  0  0
  -44.2318    1.5260    0.0000 H   0  0  0  0  0  0  0  0  0  0  0  0
  -41.8035    2.9579    0.0000 H   0  0  0  0  0  0  0  0  0  0  0  0
  -43.6094    2.2817    0.0000 H   0  0  0  0  0  0  0  0  0  0  0  0
  -39.8704    2.4546    0.0000 H   0  0  0  0  0  0  0  0  0  0  0  0
  -40.4900    1.9001    0.0000 H   0  0  0  0  0  0  0  0  0  0  0  0
  -40.4409   -1.3614    0.0000 H   0  0  0  0  0  0  0  0  0  0  0  0
  -37.1724   -2.3603    0.0000 H   0  0  0  0  0  0  0  0  0  0  0  0
  -37.1732   -0.5758    0.0000 H   0  0  0  0  0  0  0  0  0  0  0  0
  -39.8322   -4.0406    0.0000 H   0  0  0  0  0  0  0  0  0  0  0  0
  -40.2647   -2.3094    0.0000 H   0  0  0  0  0  0  0  0  0  0  0  0
  -35.4545   -4.8891    0.0000 H   0  0  0  0  0  0  0  0  0  0  0  0
  -36.5588   -1.7916    0.0000 H   0  0  0  0  0  0  0  0  0  0  0  0
  -36.4379    1.5975    0.0000 H   0  0  0  0  0  0  0  0  0  0  0  0
  -34.0096    3.0294    0.0000 H   0  0  0  0  0  0  0  0  0  0  0  0
  -35.8155    2.3533    0.0000 H   0  0  0  0  0  0  0  0  0  0  0  0
  -31.7242    0.6303    0.0000 H   0  0  0  0  0  0  0  0  0  0  0  0
  -32.8075   -0.1151    0.0000 H   0  0  0  0  0  0  0  0  0  0  0  0
  -31.6488    5.0888    0.0000 H   0  0  0  0  0  0  0  0  0  0  0  0
  -32.5157    1.9399    0.0000 H   0  0  0  0  0  0  0  0  0  0  0  0
  -32.6470   -1.2898    0.0000 H   0  0  0  0  0  0  0  0  0  0  0  0
  -29.2788   -2.1350    0.0000 H   0  0  0  0  0  0  0  0  0  0  0  0
  -29.3793   -0.5043    0.0000 H   0  0  0  0  0  0  0  0  0  0  0  0
  -32.4708   -2.2378    0.0000 H   0  0  0  0  0  0  0  0  0  0  0  0
  -30.4340   -5.4159    0.0000 H   0  0  0  0  0  0  0  0  0  0  0  0
  -28.8042   -4.6894    0.0000 H   0  0  0  0  0  0  0  0  0  0  0  0
  -29.0224   -2.9183    0.0000 H   0  0  0  0  0  0  0  0  0  0  0  0
  -31.6875   -5.4275    0.0000 H   0  0  0  0  0  0  0  0  0  0  0  0
  -33.3304   -4.7309    0.0000 H   0  0  0  0  0  0  0  0  0  0  0  0
  -33.0130   -2.8289    0.0000 H   0  0  0  0  0  0  0  0  0  0  0  0
  -28.7649   -1.7200    0.0000 H   0  0  0  0  0  0  0  0  0  0  0  0
  -28.6440    1.6691    0.0000 H   0  0  0  0  0  0  0  0  0  0  0  0
  -26.2157    3.1010    0.0000 H   0  0  0  0  0  0  0  0  0  0  0  0
  -28.0216    2.4248    0.0000 H   0  0  0  0  0  0  0  0  0  0  0  0
  -24.2826    2.5978    0.0000 H   0  0  0  0  0  0  0  0  0  0  0  0
  -23.9303    0.7019    0.0000 H   0  0  0  0  0  0  0  0  0  0  0  0
  -25.0136   -0.0435    0.0000 H   0  0  0  0  0  0  0  0  0  0  0  0
  -24.9022    2.0432    0.0000 H   0  0  0  0  0  0  0  0  0  0  0  0
  -24.7191   -1.3431    0.0000 H   0  0  0  0  0  0  0  0  0  0  0  0
  -23.2908   -2.7396    0.0000 H   0  0  0  0  0  0  0  0  0  0  0  0
  -21.5846   -2.2171    0.0000 H   0  0  0  0  0  0  0  0  0  0  0  0
  -21.5854   -0.4327    0.0000 H   0  0  0  0  0  0  0  0  0  0  0  0
  -20.9710   -1.6485    0.0000 H   0  0  0  0  0  0  0  0  0  0  0  0
  -20.8501    1.7407    0.0000 H   0  0  0  0  0  0  0  0  0  0  0  0
  -18.4218    3.1726    0.0000 H   0  0  0  0  0  0  0  0  0  0  0  0
  -20.2277    2.4964    0.0000 H   0  0  0  0  0  0  0  0  0  0  0  0
  -16.1364    0.7734    0.0000 H   0  0  0  0  0  0  0  0  0  0  0  0
  -17.2197    0.0281    0.0000 H   0  0  0  0  0  0  0  0  0  0  0  0
  -16.0610    5.2320    0.0000 H   0  0  0  0  0  0  0  0  0  0  0  0
  -16.9279    2.0830    0.0000 H   0  0  0  0  0  0  0  0  0  0  0  0
  -16.9252   -1.2716    0.0000 H   0  0  0  0  0  0  0  0  0  0  0  0
  -15.4969   -2.6680    0.0000 H   0  0  0  0  0  0  0  0  0  0  0  0
  -13.7907   -2.1456    0.0000 H   0  0  0  0  0  0  0  0  0  0  0  0
  -13.7915   -0.3611    0.0000 H   0  0  0  0  0  0  0  0  0  0  0  0
  -13.1771   -1.5769    0.0000 H   0  0  0  0  0  0  0  0  0  0  0  0
  -13.0562    1.8122    0.0000 H   0  0  0  0  0  0  0  0  0  0  0  0
  -10.6279    3.2441    0.0000 H   0  0  0  0  0  0  0  0  0  0  0  0
  -12.4338    2.5680    0.0000 H   0  0  0  0  0  0  0  0  0  0  0  0
   -8.8014    4.1183    0.0000 H   0  0  0  0  0  0  0  0  0  0  0  0
   -5.9061    2.6128    0.0000 H   0  0  0  0  0  0  0  0  0  0  0  0
   -6.3207   -0.4699    0.0000 H   0  0  0  0  0  0  0  0  0  0  0  0
   -9.1340    2.1546    0.0000 H   0  0  0  0  0  0  0  0  0  0  0  0
   -9.1313   -1.2000    0.0000 H   0  0  0  0  0  0  0  0  0  0  0  0
   -5.9968   -2.0740    0.0000 H   0  0  0  0  0  0  0  0  0  0  0  0
   -5.8977   -0.4432    0.0000 H   0  0  0  0  0  0  0  0  0  0  0  0
   -7.2284   -5.1508    0.0000 H   0  0  0  0  0  0  0  0  0  0  0  0
   -5.2536   -3.4626    0.0000 H   0  0  0  0  0  0  0  0  0  0  0  0
   -5.3832   -1.5053    0.0000 H   0  0  0  0  0  0  0  0  0  0  0  0
   -5.2623    1.8838    0.0000 H   0  0  0  0  0  0  0  0  0  0  0  0
   -3.0101    3.3661    0.0000 H   0  0  0  0  0  0  0  0  0  0  0  0
   -4.6399    2.6395    0.0000 H   0  0  0  0  0  0  0  0  0  0  0  0
   -1.6319    0.1712    0.0000 H   0  0  0  0  0  0  0  0  0  0  0  0
    0.5944    2.9309    0.0000 H   0  0  0  0  0  0  0  0  0  0  0  0
   -0.4008    4.2267    0.0000 H   0  0  0  0  0  0  0  0  0  0  0  0
   -2.1071    3.7042    0.0000 H   0  0  0  0  0  0  0  0  0  0  0  0
   -0.1723   -0.5355    0.0000 H   0  0  0  0  0  0  0  0  0  0  0  0
    0.9211    1.2164    0.0000 H   0  0  0  0  0  0  0  0  0  0  0  0
    0.1201    2.2593    0.0000 H   0  0  0  0  0  0  0  0  0  0  0  0
   -1.3401    2.2262    0.0000 H   0  0  0  0  0  0  0  0  0  0  0  0
   -1.3374   -1.1284    0.0000 H   0  0  0  0  0  0  0  0  0  0  0  0
    1.7971   -2.0024    0.0000 H   0  0  0  0  0  0  0  0  0  0  0  0
    1.8962   -0.3716    0.0000 H   0  0  0  0  0  0  0  0  0  0  0  0
    1.0655   -3.6651    0.0000 H   0  0  0  0  0  0  0  0  0  0  0  0
    2.4107   -1.4338    0.0000 H   0  0  0  0  0  0  0  0  0  0  0  0
    2.5316    1.9554    0.0000 H   0  0  0  0  0  0  0  0  0  0  0  0
    3.1540    2.7111    0.0000 H   0  0  0  0  0  0  0  0  0  0  0  0
    3.9853    4.5274    0.0000 H   0  0  0  0  0  0  0  0  0  0  0  0
    6.8930    2.8840    0.0000 H   0  0  0  0  0  0  0  0  0  0  0  0
    7.2453    0.9881    0.0000 H   0  0  0  0  0  0  0  0  0  0  0  0
    6.1620    0.2428    0.0000 H   0  0  0  0  0  0  0  0  0  0  0  0
    6.2734    2.3295    0.0000 H   0  0  0  0  0  0  0  0  0  0  0  0
    6.3225   -0.9320    0.0000 H   0  0  0  0  0  0  0  0  0  0  0  0
    9.6907   -1.7772    0.0000 H   0  0  0  0  0  0  0  0  0  0  0  0
    9.5902   -0.1464    0.0000 H   0  0  0  0  0  0  0  0  0  0  0  0
    6.4987   -1.8800    0.0000 H   0  0  0  0  0  0  0  0  0  0  0  0
    8.5355   -5.0581    0.0000 H   0  0  0  0  0  0  0  0  0  0  0  0
   10.1653   -4.3315    0.0000 H   0  0  0  0  0  0  0  0  0  0  0  0
    9.9471   -2.5605    0.0000 H   0  0  0  0  0  0  0  0  0  0  0  0
    7.2820   -5.0696    0.0000 H   0  0  0  0  0  0  0  0  0  0  0  0
    5.6391   -4.3731    0.0000 H   0  0  0  0  0  0  0  0  0  0  0  0
    5.9565   -2.4710    0.0000 H   0  0  0  0  0  0  0  0  0  0  0  0
   10.2046   -1.3622    0.0000 H   0  0  0  0  0  0  0  0  0  0  0  0
   10.3255    2.0269    0.0000 H   0  0  0  0  0  0  0  0  0  0  0  0
   12.5777    3.5092    0.0000 H   0  0  0  0  0  0  0  0  0  0  0  0
   10.9479    2.7827    0.0000 H   0  0  0  0  0  0  0  0  0  0  0  0
   13.9559    0.3143    0.0000 H   0  0  0  0  0  0  0  0  0  0  0  0
   16.1822    3.0741    0.0000 H   0  0  0  0  0  0  0  0  0  0  0  0
   15.1870    4.3698    0.0000 H   0  0  0  0  0  0  0  0  0  0  0  0
   13.4807    3.8473    0.0000 H   0  0  0  0  0  0  0  0  0  0  0  0
   15.4155   -0.3923    0.0000 H   0  0  0  0  0  0  0  0  0  0  0  0
   16.5089    1.3595    0.0000 H   0  0  0  0  0  0  0  0  0  0  0  0
   15.7079    2.4024    0.0000 H   0  0  0  0  0  0  0  0  0  0  0  0
   14.2477    2.3693    0.0000 H   0  0  0  0  0  0  0  0  0  0  0  0
   14.1164   -0.8604    0.0000 H   0  0  0  0  0  0  0  0  0  0  0  0
   17.3849   -1.8593    0.0000 H   0  0  0  0  0  0  0  0  0  0  0  0
   17.4840   -0.2285    0.0000 H   0  0  0  0  0  0  0  0  0  0  0  0
   14.7251   -3.5396    0.0000 H   0  0  0  0  0  0  0  0  0  0  0  0
   14.2926   -1.8084    0.0000 H   0  0  0  0  0  0  0  0  0  0  0  0
   19.1028   -4.3881    0.0000 H   0  0  0  0  0  0  0  0  0  0  0  0
   17.9985   -1.2906    0.0000 H   0  0  0  0  0  0  0  0  0  0  0  0
   18.1194    2.0985    0.0000 H   0  0  0  0  0  0  0  0  0  0  0  0
   20.5477    3.5304    0.0000 H   0  0  0  0  0  0  0  0  0  0  0  0
   18.7418    2.8542    0.0000 H   0  0  0  0  0  0  0  0  0  0  0  0
   23.9794    2.9625    0.0000 H   0  0  0  0  0  0  0  0  0  0  0  0
   21.9549    4.4319    0.0000 H   0  0  0  0  0  0  0  0  0  0  0  0
   22.0416    2.4409    0.0000 H   0  0  0  0  0  0  0  0  0  0  0  0
   22.0443   -0.9137    0.0000 H   0  0  0  0  0  0  0  0  0  0  0  0
   25.4476   -1.1688    0.0000 H   0  0  0  0  0  0  0  0  0  0  0  0
   24.4986   -2.3008    0.0000 H   0  0  0  0  0  0  0  0  0  0  0  0
   22.6805   -1.6579    0.0000 H   0  0  0  0  0  0  0  0  0  0  0  0
   25.7924   -1.2191    0.0000 H   0  0  0  0  0  0  0  0  0  0  0  0
   25.9133    2.1701    0.0000 H   0  0  0  0  0  0  0  0  0  0  0  0
   26.4555    2.7611    0.0000 H   0  0  0  0  0  0  0  0  0  0  0  0
   30.2970    3.1005    0.0000 H   0  0  0  0  0  0  0  0  0  0  0  0
   30.8114    1.5416    0.0000 H   0  0  0  0  0  0  0  0  0  0  0  0
   29.4054    0.4477    0.0000 H   0  0  0  0  0  0  0  0  0  0  0  0
   29.2952    4.7598    0.0000 H   0  0  0  0  0  0  0  0  0  0  0  0
   29.8253    3.3810    0.0000 H   0  0  0  0  0  0  0  0  0  0  0  0
   27.8670    6.1563    0.0000 H   0  0  0  0  0  0  0  0  0  0  0  0
   26.0611    5.4802    0.0000 H   0  0  0  0  0  0  0  0  0  0  0  0
   26.2793    3.7091    0.0000 H   0  0  0  0  0  0  0  0  0  0  0  0
   29.6551    2.5442    0.0000 H   0  0  0  0  0  0  0  0  0  0  0  0
   29.6090   -1.0124    0.0000 H   0  0  0  0  0  0  0  0  0  0  0  0
   30.2078   -2.3557    0.0000 H   0  0  0  0  0  0  0  0  0  0  0  0
   30.4121   -2.9462    0.0000 H   0  0  0  0  0  0  0  0  0  0  0  0
   31.1633   -3.8051    0.0000 H   0  0  0  0  0  0  0  0  0  0  0  0
   31.6029   -4.2261    0.0000 H   0  0  0  0  0  0  0  0  0  0  0  0
   32.8543   -4.9986    0.0000 H   0  0  0  0  0  0  0  0  0  0  0  0
   33.7917   -5.5981    0.0000 H   0  0  0  0  0  0  0  0  0  0  0  0
   29.3392   -2.0767    0.0000 H   0  0  0  0  0  0  0  0  0  0  0  0
   28.2218   -1.1497    0.0000 H   0  0  0  0  0  0  0  0  0  0  0  0
   28.5293    0.4930    0.0000 H   0  0  0  0  0  0  0  0  0  0  0  0
   30.3138    4.1186    0.0000 H   0  0  0  0  0  0  0  0  0  0  0  0
   30.9663    4.5685    0.0000 H   0  0  0  0  0  0  0  0  0  0  0  0
   31.4844    7.1468    0.0000 H   0  0  0  0  0  0  0  0  0  0  0  0
   30.7471    5.5218    0.0000 H   0  0  0  0  0  0  0  0  0  0  0  0
   35.4562    4.8564    0.0000 H   0  0  0  0  0  0  0  0  0  0  0  0
   35.1262    7.0997    0.0000 H   0  0  0  0  0  0  0  0  0  0  0  0
   35.8848    6.8702    0.0000 H   0  0  0  0  0  0  0  0  0  0  0  0
   38.8303    5.7548    0.0000 H   0  0  0  0  0  0  0  0  0  0  0  0
   39.2253    8.8618    0.0000 H   0  0  0  0  0  0  0  0  0  0  0  0
   38.0657    9.3381    0.0000 H   0  0  0  0  0  0  0  0  0  0  0  0
   36.2817    9.3017    0.0000 H   0  0  0  0  0  0  0  0  0  0  0  0
   35.7948    7.5849    0.0000 H   0  0  0  0  0  0  0  0  0  0  0  0
   40.3330    5.3305    0.0000 H   0  0  0  0  0  0  0  0  0  0  0  0
   40.7509    4.4598    0.0000 H   0  0  0  0  0  0  0  0  0  0  0  0
   43.0819    2.3571    0.0000 H   0  0  0  0  0  0  0  0  0  0  0  0
   41.7154    1.4615    0.0000 H   0  0  0  0  0  0  0  0  0  0  0  0
   44.0393    4.1102    0.0000 H   0  0  0  0  0  0  0  0  0  0  0  0
   42.8993    5.6655    0.0000 H   0  0  0  0  0  0  0  0  0  0  0  0
   41.2536    4.9757    0.0000 H   0  0  0  0  0  0  0  0  0  0  0  0
   42.3206    0.0220    0.0000 H   0  0  0  0  0  0  0  0  0  0  0  0
   40.1548   -4.0156    0.0000 H   0  0  0  0  0  0  0  0  0  0  0  0
   41.1035   -3.1146    0.0000 H   0  0  0  0  0  0  0  0  0  0  0  0
   38.7806   -5.0763    0.0000 H   0  0  0  0  0  0  0  0  0  0  0  0
   39.7699   -4.5078    0.0000 H   0  0  0  0  0  0  0  0  0  0  0  0
   36.7936   -5.6560    0.0000 H   0  0  0  0  0  0  0  0  0  0  0  0
   38.2281   -5.3317    0.0000 H   0  0  0  0  0  0  0  0  0  0  0  0
   35.7123   -5.9186    0.0000 H   0  0  0  0  0  0  0  0  0  0  0  0
   43.1663   -1.8957    0.0000 H   0  0  0  0  0  0  0  0  0  0  0  0
   43.1343   -0.1116    0.0000 H   0  0  0  0  0  0  0  0  0  0  0  0
   41.7743    0.4650    0.0000 H   0  0  0  0  0  0  0  0  0  0  0  0
   43.6201   -1.1356    0.0000 H   0  0  0  0  0  0  0  0  0  0  0  0
   42.2492   -4.0954    0.0000 H   0  0  0  0  0  0  0  0  0  0  0  0
   44.7606   -6.4135    0.0000 H   0  0  0  0  0  0  0  0  0  0  0  0
   45.5341   -4.8054    0.0000 H   0  0  0  0  0  0  0  0  0  0  0  0
   41.6351   -6.7734    0.0000 H   0  0  0  0  0  0  0  0  0  0  0  0
   41.9966   -5.0259    0.0000 H   0  0  0  0  0  0  0  0  0  0  0  0
   45.2112   -9.4372    0.0000 H   0  0  0  0  0  0  0  0  0  0  0  0
   45.5602   -6.1674    0.0000 H   0  0  0  0  0  0  0  0  0  0  0  0
   47.1396   -3.1663    0.0000 H   0  0  0  0  0  0  0  0  0  0  0  0
   49.9487   -2.9298    0.0000 H   0  0  0  0  0  0  0  0  0  0  0  0
   48.0283   -2.7555    0.0000 H   0  0  0  0  0  0  0  0  0  0  0  0
   50.9668   -6.0830    0.0000 H   0  0  0  0  0  0  0  0  0  0  0  0
   49.4960   -6.2198    0.0000 H   0  0  0  0  0  0  0  0  0  0  0  0
   54.0594   -4.4569    0.0000 H   0  0  0  0  0  0  0  0  0  0  0  0
   52.5623   -6.5802    0.0000 H   0  0  0  0  0  0  0  0  0  0  0  0
   48.5973   -8.4369    0.0000 H   0  0  0  0  0  0  0  0  0  0  0  0
  1  2  1  0
  2  3  1  0
  3  4  2  0
  4  5  1  0
  5  6  2  0
  6  7  1  0
  7  8  2  0
  7  9  1  0
  9 10  1  0
 10 11  1  0
 11 12  2  0
  9 13  1  0
 13 14  1  0
 14 15  2  0
 15 16  1  0
 16 17  2  0
 17 18  1  0
 16 19  1  0
 14 20  1  0
 20 21  1  0
 21 22  2  0
 22 23  1  0
 23 24  2  0
 24 25  1  0
 25 26  2  0
 25 27  1  0
  1 28  2  0
  1 29  1  0
 29 30  1  0
 30 31  1  0
 31 32  1  0
 32 33  2  0
 32 34  1  0
 34 35  1  0
 35 36  1  0
 36 37  1  0
 35 38  1  0
 38 39  2  0
 38 40  1  0
 40 41  1  0
 41 42  1  0
 42 43  1  0
 43 44  1  0
 44 45  2  0
 44 46  1  0
 41 47  1  0
 47 48  2  0
 47 49  1  0
 49 50  1  0
 50 51  1  0
 51 52  1  0
 52 53  1  0
 53 54  2  0
 53 55  1  0
 50 56  1  0
 56 57  2  0
 56 58  1  0
 58 59  1  0
 59 60  1  0
 60 61  1  0
 61 62  1  0
 61 63  1  0
 59 64  1  0
 64 65  2  0
 64 66  1  0
 66 67  1  0
 67 68  1  0
 68 69  1  0
 67 70  1  0
 70 71  2  0
 70 72  1  0
 72 73  1  0
 73 74  1  0
 73 75  1  0
 75 76  2  0
 75 77  1  0
 77 78  1  0
 78 79  1  0
 79 80  1  0
 80 81  1  0
 81 82  2  0
 81 83  1  0
 78 84  1  0
 84 85  2  0
 84 86  1  0
 86 87  1  0
 87 88  1  0
 87 89  1  0
 89 90  2  0
 89 91  1  0
 91 92  1  0
 92 93  1  0
 93 94  1  0
 94 95  2  0
 95 96  1  0
 96 97  1  0
 97 98  2  0
 92 99  1  0
 99100  2  0
 99101  1  0
101102  1  0
102103  1  0
103104  1  0
104105  1  0
104106  2  0
102107  1  0
107108  2  0
107109  1  0
109110  1  0
110111  1  0
111112  1  0
112113  1  0
112114  1  0
110115  1  0
115116  2  0
115117  1  0
117118  1  0
118119  1  0
119120  1  0
118121  1  0
121122  2  0
121123  1  0
123124  1  0
124125  1  0
125126  1  0
125127  1  0
124128  1  0
128129  2  0
128130  1  0
130131  1  0
131132  1  0
132133  1  0
133134  1  0
133135  1  0
131136  1  0
136137  2  0
136138  1  0
138139  1  0
139140  1  0
140141  1  0
141142  1  0
141143  1  0
139144  1  0
144145  2  0
144146  1  0
146147  1  0
147148  1  0
148149  1  0
149150  1  0
150151  2  0
150152  1  0
147153  1  0
153154  2  0
153155  1  0
155156  1  0
156157  1  0
157158  1  0
158159  1  0
158160  2  0
156161  1  0
161162  2  0
161163  1  0
163164  1  0
164165  1  0
164166  1  0
166167  2  0
166168  1  0
168169  1  0
169170  1  0
170171  1  0
170172  1  0
172173  1  0
169174  1  0
174175  2  0
174176  1  0
177176  1  6
177178  1  0
178179  1  0
179180  1  0
180181  1  0
177182  1  0
177183  1  0
183184  2  0
183185  1  0
185186  1  0
186187  1  0
187188  1  0
188189  2  0
188190  1  0
186191  1  0
191192  2  0
191193  1  0
193194  1  0
194195  1  0
195196  1  0
195197  1  0
194198  1  0
198199  2  0
198200  1  0
200201  1  0
201202  1  0
202203  1  0
201204  1  0
204205  2  0
204206  1  0
206207  1  0
207208  1  0
208209  1  0
209210  1  0
210211  1  0
207212  1  0
207213  1  6
213214  2  0
213215  1  0
215216  1  0
216217  1  0
217218  1  0
218219  1  0
219220  2  0
219221  1  0
216222  1  0
222223  2  0
222224  1  0
224225  1  0
225226  1  0
226227  1  0
227228  1  0
228229  1  0
228230  2  0
225231  1  0
231232  2  0
231233  1  0
  8  3  1  0
 98 94  1  0
 11  6  1  0
181211  2  0
 18 13  2  0
 22  9  1  0
 26 21  1  0
  2234  1  0
  4235  1  0
  5236  1  0
  8237  1  0
 15238  1  0
 17239  1  0
 18240  1  0
 19241  1  0
 23242  1  0
 24243  1  0
 26244  1  0
 27245  1  0
 29246  1  0
 30247  1  0
 30248  1  0
 31249  1  0
 31250  1  0
 34251  1  0
 35252  1  1
 36253  1  0
 36254  1  0
 37255  1  0
 40256  1  0
 41257  1  6
 42258  1  0
 42259  1  0
 43260  1  0
 43261  1  0
 46262  1  0
 49263  1  0
 50264  1  1
 51265  1  0
 51266  1  0
 52267  1  0
 52268  1  0
 55269  1  0
 58270  1  0
 59271  1  6
 60272  1  0
 60273  1  0
 61274  1  0
 62275  1  0
 62276  1  0
 62277  1  0
 63278  1  0
 63279  1  0
 63280  1  0
 66281  1  0
 67282  1  1
 68283  1  0
 68284  1  0
 69285  1  0
 69286  1  0
 69287  1  0
 72288  1  0
 73289  1  6
 74290  1  0
 74291  1  0
 74292  1  0
 77293  1  0
 78294  1  1
 79295  1  0
 79296  1  0
 80297  1  0
 80298  1  0
 83299  1  0
 86300  1  0
 87301  1  6
 88302  1  0
 88303  1  0
 88304  1  0
 91305  1  0
 92306  1  1
 93307  1  0
 93308  1  0
 95309  1  0
 96310  1  0
 97311  1  0
101312  1  0
102313  1  6
103314  1  0
103315  1  0
105316  1  0
105317  1  0
109318  1  0
110319  1  1
111320  1  0
111321  1  0
112322  1  0
113323  1  0
113324  1  0
113325  1  0
114326  1  0
114327  1  0
114328  1  0
117329  1  0
118330  1  6
119331  1  0
119332  1  0
120333  1  0
123334  1  0
124335  1  1
125336  1  1
126337  1  0
127338  1  0
127339  1  0
127340  1  0
130341  1  0
131342  1  6
132343  1  0
132344  1  0
133345  1  0
134346  1  0
134347  1  0
134348  1  0
135349  1  0
135350  1  0
135351  1  0
138352  1  0
139353  1  1
140354  1  0
140355  1  0
141356  1  0
142357  1  0
142358  1  0
142359  1  0
143360  1  0
143361  1  0
143362  1  0
146363  1  0
147364  1  6
148365  1  0
148366  1  0
149367  1  0
149368  1  0
152369  1  0
155370  1  0
156371  1  1
157372  1  0
157373  1  0
159374  1  0
159375  1  0
163376  1  0
164377  1  6
165378  1  0
165379  1  0
165380  1  0
168381  1  0
169382  1  1
170383  1  1
171384  1  0
171385  1  0
171386  1  0
172387  1  0
172388  1  0
173389  1  0
173390  1  0
173391  1  0
176392  1  0
178393  1  0
178394  1  0
179395  1  0
179396  1  0
180397  1  0
180398  1  0
181399  1  0
182400  1  0
182401  1  0
182402  1  0
185403  1  0
186404  1  1
187405  1  0
187406  1  0
190407  1  0
193408  1  0
194409  1  1
195410  1  6
196411  1  0
197412  1  0
197413  1  0
197414  1  0
200415  1  0
201416  1  1
202417  1  0
202418  1  0
203419  1  0
203420  1  0
203421  1  0
206422  1  0
208423  1  0
208424  1  0
209425  1  0
209426  1  0
210427  1  0
210428  1  0
211429  1  0
212430  1  0
212431  1  0
212432  1  0
215433  1  0
216434  1  6
217435  1  0
217436  1  0
218437  1  0
218438  1  0
221439  1  0
224440  1  0
225441  1  1
226442  1  0
226443  1  0
227444  1  0
227445  1  0
229446  1  0
229447  1  0
233448  1  0
M  END
