
     RDKit          2D

174181  0  0  0  0  0  0  0  0999 V2000
   10.2848   -0.1027    0.0000 C   0  0  0  0  0  0  0  0  0  0  0  0
   11.6534    0.5113    0.0000 N   0  0  0  0  0  0  0  0  0  0  0  0
   12.8694   -0.3669    0.0000 C   0  0  0  0  0  0  0  0  0  0  0  0
   12.7169   -1.8591    0.0000 C   0  0  0  0  0  0  0  0  0  0  0  0
   13.9329   -2.7373    0.0000 C   0  0  0  0  0  0  0  0  0  0  0  0
   15.3015   -2.1233    0.0000 C   0  0  0  0  0  0  0  0  0  0  0  0
   15.4540   -0.6310    0.0000 C   0  0  0  0  0  0  0  0  0  0  0  0
   14.2380    0.2472    0.0000 C   0  0  0  0  0  0  0  0  0  0  0  0
   16.9203   -0.3150    0.0000 C   0  0  0  0  0  0  0  0  0  0  0  0
   17.6741   -1.6119    0.0000 O   0  0  0  0  0  0  0  0  0  0  0  0
   16.6736   -2.7294    0.0000 C   0  0  0  0  0  0  0  0  0  0  0  0
   16.9896   -4.1958    0.0000 O   0  0  0  0  0  0  0  0  0  0  0  0
   18.4117   -0.1539    0.0000 C   0  0  0  0  0  0  0  0  0  0  0  0
   19.0178    1.2181    0.0000 C   0  0  0  0  0  0  0  0  0  0  0  0
   20.5092    1.3792    0.0000 C   0  0  0  0  0  0  0  0  0  0  0  0
   21.3943    0.1682    0.0000 C   0  0  0  0  0  0  0  0  0  0  0  0
   20.7881   -1.2038    0.0000 C   0  0  0  0  0  0  0  0  0  0  0  0
   19.2968   -1.3649    0.0000 C   0  0  0  0  0  0  0  0  0  0  0  0
   22.8856    0.3293    0.0000 O   0  0  0  0  0  0  0  0  0  0  0  0
   18.1327    2.4291    0.0000 O   0  0  0  0  0  0  0  0  0  0  0  0
   16.6414    2.2681    0.0000 C   0  0  0  0  0  0  0  0  0  0  0  0
   16.0352    0.8960    0.0000 C   0  0  0  0  0  0  0  0  0  0  0  0
   14.8267    1.3753    0.0000 C   0  0  0  0  0  0  0  0  0  0  0  0
   14.3547    2.0211    0.0000 C   0  0  0  0  0  0  0  0  0  0  0  0
   14.6780    2.7529    0.0000 C   0  0  0  0  0  0  0  0  0  0  0  0
   15.4733    2.8388    0.0000 C   0  0  0  0  0  0  0  0  0  0  0  0
   13.3797    4.5290    0.0000 O   0  0  0  0  0  0  0  0  0  0  0  0
   10.1323   -1.5949    0.0000 S   0  0  0  0  0  0  0  0  0  0  0  0
    9.0687    0.7755    0.0000 N   0  0  0  0  0  0  0  0  0  0  0  0
    7.7002    0.1615    0.0000 C   0  0  0  0  0  0  0  0  0  0  0  0
    6.4841    1.0397    0.0000 C   0  0  0  0  0  0  0  0  0  0  0  0
    5.1156    0.4257    0.0000 C   0  0  0  0  0  0  0  0  0  0  0  0
    4.9631   -1.0666    0.0000 O   0  0  0  0  0  0  0  0  0  0  0  0
    3.8995    1.3039    0.0000 N   0  0  0  0  0  0  0  0  0  0  0  0
    2.5310    0.6898    0.0000 C   0  0  0  0  0  0  0  0  0  0  0  0
    1.4549   -0.3552    0.0000 C   0  0  0  0  0  0  0  0  0  0  0  0
    0.0119    0.0541    0.0000 C   0  0  0  0  0  0  0  0  0  0  0  0
   -0.3552    1.5085    0.0000 C   0  0  0  0  0  0  0  0  0  0  0  0
   -1.7983    1.9178    0.0000 C   0  0  0  0  0  0  0  0  0  0  0  0
   -2.8743    0.8727    0.0000 C   0  0  0  0  0  0  0  0  0  0  0  0
   -2.5072   -0.5817    0.0000 C   0  0  0  0  0  0  0  0  0  0  0  0
   -1.0642   -0.9910    0.0000 C   0  0  0  0  0  0  0  0  0  0  0  0
    1.3149    1.5680    0.0000 C   0  0  0  0  0  0  0  0  0  0  0  0
    1.8240    2.9790    0.0000 O   0  0  0  0  0  0  0  0  0  0  0  0
   -0.0536    0.9540    0.0000 N   0  0  0  0  0  0  0  0  0  0  0  0
   -1.2697    1.8322    0.0000 C   0  0  0  0  0  0  0  0  0  0  0  0
   -1.4159    3.3251    0.0000 C   0  0  0  0  0  0  0  0  0  0  0  0
   -1.9956    4.7085    0.0000 C   0  0  0  0  0  0  0  0  0  0  0  0
   -2.9573    5.8596    0.0000 C   0  0  0  0  0  0  0  0  0  0  0  0
   -4.2156    6.6761    0.0000 C   0  0  0  0  0  0  0  0  0  0  0  0
    0.0309    2.5794    0.0000 C   0  0  0  0  0  0  0  0  0  0  0  0
   -1.5700    0.3626    0.0000 C   0  0  0  0  0  0  0  0  0  0  0  0
   -0.4401   -0.6240    0.0000 O   0  0  0  0  0  0  0  0  0  0  0  0
   -2.2902   -0.9532    0.0000 N   0  0  0  0  0  0  0  0  0  0  0  0
   -3.3662   -1.9983    0.0000 C   0  0  0  0  0  0  0  0  0  0  0  0
   -3.2946   -3.4966    0.0000 C   0  0  0  0  0  0  0  0  0  0  0  0
   -1.9613   -4.1837    0.0000 C   0  0  0  0  0  0  0  0  0  0  0  0
   -1.8897   -5.6820    0.0000 C   0  0  0  0  0  0  0  0  0  0  0  0
   -0.5564   -6.3692    0.0000 N   0  0  0  0  0  0  0  0  0  0  0  0
   -0.4848   -7.8675    0.0000 C   0  0  0  0  0  0  0  0  0  0  0  0
    0.8486   -8.5546    0.0000 N   0  0  0  0  0  0  0  0  0  0  0  0
   -1.7465   -8.6786    0.0000 N   0  0  0  0  0  0  0  0  0  0  0  0
   -4.7025   -2.6798    0.0000 C   0  0  0  0  0  0  0  0  0  0  0  0
   -4.2278   -4.1027    0.0000 O   0  0  0  0  0  0  0  0  0  0  0  0
   -6.1803   -2.9371    0.0000 N   0  0  0  0  0  0  0  0  0  0  0  0
   -7.6682   -2.7474    0.0000 C   0  0  0  0  0  0  0  0  0  0  0  0
   -8.7950   -3.7376    0.0000 C   0  0  0  0  0  0  0  0  0  0  0  0
   -8.5009   -5.2085    0.0000 C   0  0  0  0  0  0  0  0  0  0  0  0
   -9.6277   -6.1986    0.0000 C   0  0  0  0  0  0  0  0  0  0  0  0
   -7.7215   -6.4901    0.0000 C   0  0  0  0  0  0  0  0  0  0  0  0
   -9.0342   -2.1276    0.0000 C   0  0  0  0  0  0  0  0  0  0  0  0
   -9.8507   -3.3859    0.0000 O   0  0  0  0  0  0  0  0  0  0  0  0
  -10.1567   -1.1327    0.0000 N   0  0  0  0  0  0  0  0  0  0  0  0
  -10.9362    0.1489    0.0000 C   0  0  0  0  0  0  0  0  0  0  0  0
  -12.4128    0.4125    0.0000 C   0  0  0  0  0  0  0  0  0  0  0  0
  -13.3794   -0.7345    0.0000 C   0  0  0  0  0  0  0  0  0  0  0  0
  -14.8561   -0.4709    0.0000 C   0  0  0  0  0  0  0  0  0  0  0  0
  -15.8227   -1.6179    0.0000 C   0  0  0  0  0  0  0  0  0  0  0  0
  -15.3127   -3.0285    0.0000 C   0  0  0  0  0  0  0  0  0  0  0  0
  -13.8360   -3.2922    0.0000 C   0  0  0  0  0  0  0  0  0  0  0  0
  -12.8694   -2.1451    0.0000 C   0  0  0  0  0  0  0  0  0  0  0  0
  -11.3032    1.6033    0.0000 C   0  0  0  0  0  0  0  0  0  0  0  0
  -12.7961    1.4571    0.0000 O   0  0  0  0  0  0  0  0  0  0  0  0
  -11.2253    3.1013    0.0000 N   0  0  0  0  0  0  0  0  0  0  0  0
  -10.7092    4.5097    0.0000 C   0  0  0  0  0  0  0  0  0  0  0  0
   -9.8010    5.7035    0.0000 C   0  0  0  0  0  0  0  0  0  0  0  0
   -8.5812    6.5765    0.0000 C   0  0  0  0  0  0  0  0  0  0  0  0
   -7.1583    7.0512    0.0000 C   0  0  0  0  0  0  0  0  0  0  0  0
   -5.6587    7.0854    0.0000 C   0  0  0  0  0  0  0  0  0  0  0  0
  -12.2053    4.4008    0.0000 C   0  0  0  0  0  0  0  0  0  0  0  0
  -11.4238    5.8286    0.0000 C   0  0  0  0  0  0  0  0  0  0  0  0
  -12.9071    6.0516    0.0000 O   0  0  0  0  0  0  0  0  0  0  0  0
  -10.9716    7.2588    0.0000 O   0  0  0  0  0  0  0  0  0  0  0  0
   11.6228    2.0110    0.0000 H   0  0  0  0  0  0  0  0  0  0  0  0
   11.3483   -2.4731    0.0000 H   0  0  0  0  0  0  0  0  0  0  0  0
   13.7804   -4.2295    0.0000 H   0  0  0  0  0  0  0  0  0  0  0  0
   14.0249    1.7319    0.0000 H   0  0  0  0  0  0  0  0  0  0  0  0
   21.1153    2.7513    0.0000 H   0  0  0  0  0  0  0  0  0  0  0  0
   21.6733   -2.4148    0.0000 H   0  0  0  0  0  0  0  0  0  0  0  0
   18.6906   -2.7370    0.0000 H   0  0  0  0  0  0  0  0  0  0  0  0
   23.7708   -0.8817    0.0000 H   0  0  0  0  0  0  0  0  0  0  0  0
   13.9377   -0.6371    0.0000 H   0  0  0  0  0  0  0  0  0  0  0  0
   12.1589    1.9679    0.0000 H   0  0  0  0  0  0  0  0  0  0  0  0
   16.3624    4.8511    0.0000 H   0  0  0  0  0  0  0  0  0  0  0  0
   13.9859    5.9011    0.0000 H   0  0  0  0  0  0  0  0  0  0  0  0
    9.2213    2.2677    0.0000 H   0  0  0  0  0  0  0  0  0  0  0  0
    6.6242   -0.8836    0.0000 H   0  0  0  0  0  0  0  0  0  0  0  0
    8.5425   -1.0797    0.0000 H   0  0  0  0  0  0  0  0  0  0  0  0
    5.6418    2.2808    0.0000 H   0  0  0  0  0  0  0  0  0  0  0  0
    7.5602    2.0847    0.0000 H   0  0  0  0  0  0  0  0  0  0  0  0
    4.0520    2.7961    0.0000 H   0  0  0  0  0  0  0  0  0  0  0  0
    3.3733   -0.5513    0.0000 H   0  0  0  0  0  0  0  0  0  0  0  0
    0.8012   -1.7053    0.0000 H   0  0  0  0  0  0  0  0  0  0  0  0
    2.6710   -1.2334    0.0000 H   0  0  0  0  0  0  0  0  0  0  0  0
    0.9417    2.2621    0.0000 H   0  0  0  0  0  0  0  0  0  0  0  0
   -2.5063    3.2402    0.0000 H   0  0  0  0  0  0  0  0  0  0  0  0
   -4.3173    1.2821    0.0000 H   0  0  0  0  0  0  0  0  0  0  0  0
   -3.8041   -1.3353    0.0000 H   0  0  0  0  0  0  0  0  0  0  0  0
   -0.3561   -2.3134    0.0000 H   0  0  0  0  0  0  0  0  0  0  0  0
   -0.3869   -0.5085    0.0000 H   0  0  0  0  0  0  0  0  0  0  0  0
    0.0791    3.2024    0.0000 H   0  0  0  0  0  0  0  0  0  0  0  0
   -0.3933    4.4225    0.0000 H   0  0  0  0  0  0  0  0  0  0  0  0
   -0.5309    5.0320    0.0000 H   0  0  0  0  0  0  0  0  0  0  0  0
   -1.1822    5.9688    0.0000 H   0  0  0  0  0  0  0  0  0  0  0  0
   -1.5725    6.4359    0.0000 H   0  0  0  0  0  0  0  0  0  0  0  0
   -2.7306    7.3424    0.0000 H   0  0  0  0  0  0  0  0  0  0  0  0
   -3.5958    8.0421    0.0000 H   0  0  0  0  0  0  0  0  0  0  0  0
    0.3970    4.0341    0.0000 H   0  0  0  0  0  0  0  0  0  0  0  0
    1.4025    3.1867    0.0000 H   0  0  0  0  0  0  0  0  0  0  0  0
    0.8671    1.3341    0.0000 H   0  0  0  0  0  0  0  0  0  0  0  0
   -1.2161   -2.0002    0.0000 H   0  0  0  0  0  0  0  0  0  0  0  0
   -1.9143   -2.3751    0.0000 H   0  0  0  0  0  0  0  0  0  0  0  0
   -3.9111   -4.8641    0.0000 H   0  0  0  0  0  0  0  0  0  0  0  0
   -4.7843   -3.6726    0.0000 H   0  0  0  0  0  0  0  0  0  0  0  0
   -0.4733   -4.3734    0.0000 H   0  0  0  0  0  0  0  0  0  0  0  0
   -1.1827   -2.9016    0.0000 H   0  0  0  0  0  0  0  0  0  0  0  0
   -2.3349   -7.1145    0.0000 H   0  0  0  0  0  0  0  0  0  0  0  0
   -3.3897   -5.6752    0.0000 H   0  0  0  0  0  0  0  0  0  0  0  0
    0.7054   -5.5580    0.0000 H   0  0  0  0  0  0  0  0  0  0  0  0
    0.9202  -10.0529    0.0000 H   0  0  0  0  0  0  0  0  0  0  0  0
   -1.6749  -10.1769    0.0000 H   0  0  0  0  0  0  0  0  0  0  0  0
   -3.0799   -7.9915    0.0000 H   0  0  0  0  0  0  0  0  0  0  0  0
   -6.1460   -4.4367    0.0000 H   0  0  0  0  0  0  0  0  0  0  0  0
   -7.0576   -4.1175    0.0000 H   0  0  0  0  0  0  0  0  0  0  0  0
  -10.2485   -4.1082    0.0000 H   0  0  0  0  0  0  0  0  0  0  0  0
   -9.8614   -2.6827    0.0000 H   0  0  0  0  0  0  0  0  0  0  0  0
   -7.0474   -4.8378    0.0000 H   0  0  0  0  0  0  0  0  0  0  0  0
   -9.5151   -7.6944    0.0000 H   0  0  0  0  0  0  0  0  0  0  0  0
  -11.0251   -6.7437    0.0000 H   0  0  0  0  0  0  0  0  0  0  0  0
  -10.5575   -5.0216    0.0000 H   0  0  0  0  0  0  0  0  0  0  0  0
   -8.2759   -7.8838    0.0000 H   0  0  0  0  0  0  0  0  0  0  0  0
   -6.5507   -7.4278    0.0000 H   0  0  0  0  0  0  0  0  0  0  0  0
   -6.5947   -5.4999    0.0000 H   0  0  0  0  0  0  0  0  0  0  0  0
  -11.1820   -2.2276    0.0000 H   0  0  0  0  0  0  0  0  0  0  0  0
  -11.7838   -1.0887    0.0000 H   0  0  0  0  0  0  0  0  0  0  0  0
  -13.7103    1.1653    0.0000 H   0  0  0  0  0  0  0  0  0  0  0  0
  -12.2529    1.9040    0.0000 H   0  0  0  0  0  0  0  0  0  0  0  0
  -15.3661    0.9397    0.0000 H   0  0  0  0  0  0  0  0  0  0  0  0
  -17.2994   -1.3543    0.0000 H   0  0  0  0  0  0  0  0  0  0  0  0
  -16.2793   -4.1756    0.0000 H   0  0  0  0  0  0  0  0  0  0  0  0
  -13.3260   -4.7028    0.0000 H   0  0  0  0  0  0  0  0  0  0  0  0
  -11.4359   -2.5868    0.0000 H   0  0  0  0  0  0  0  0  0  0  0  0
  -12.6949    3.4016    0.0000 H   0  0  0  0  0  0  0  0  0  0  0  0
  -10.0951    7.1744    0.0000 H   0  0  0  0  0  0  0  0  0  0  0  0
  -11.1377    6.3840    0.0000 H   0  0  0  0  0  0  0  0  0  0  0  0
   -8.6117    8.0762    0.0000 H   0  0  0  0  0  0  0  0  0  0  0  0
   -9.6580    7.6208    0.0000 H   0  0  0  0  0  0  0  0  0  0  0  0
   -6.5727    8.4322    0.0000 H   0  0  0  0  0  0  0  0  0  0  0  0
   -8.0344    8.2688    0.0000 H   0  0  0  0  0  0  0  0  0  0  0  0
   -5.4690    8.5734    0.0000 H   0  0  0  0  0  0  0  0  0  0  0  0
  -13.1926    5.5300    0.0000 H   0  0  0  0  0  0  0  0  0  0  0  0
  -13.5738    3.7868    0.0000 H   0  0  0  0  0  0  0  0  0  0  0  0
  -12.2011    2.9008    0.0000 H   0  0  0  0  0  0  0  0  0  0  0  0
  -11.3535    8.4257    0.0000 H   0  0  0  0  0  0  0  0  0  0  0  0
  1  2  1  0
  2  3  1  0
  3  4  2  0
  4  5  1  0
  5  6  2  0
  6  7  1  0
  7  8  2  0
  7  9  1  0
  9 10  1  0
 10 11  1  0
 11 12  2  0
  9 13  1  0
 13 14  1  0
 14 15  2  0
 15 16  1  0
 16 17  2  0
 17 18  1  0
 16 19  1  0
 14 20  1  0
 20 21  1  0
 21 22  2  0
 22 23  1  0
 23 24  2  0
 24 25  1  0
 25 26  2  0
 25 27  1  0
  1 28  2  0
  1 29  1  0
 29 30  1  0
 30 31  1  0
 31 32  1  0
 32 33  2  0
 32 34  1  0
 34 35  1  0
 35 36  1  0
 36 37  1  0
 37 38  2  0
 38 39  1  0
 39 40  2  0
 40 41  1  0
 41 42  2  0
 35 43  1  0
 43 44  2  0
 43 45  1  0
 46 45  1  6
 46 47  1  0
 47 48  1  0
 48 49  1  0
 49 50  1  0
 46 51  1  0
 46 52  1  0
 52 53  2  0
 52 54  1  0
 54 55  1  0
 55 56  1  0
 56 57  1  0
 57 58  1  0
 58 59  1  0
 59 60  1  0
 60 61  2  3
 60 62  1  0
 55 63  1  0
 63 64  2  0
 63 65  1  0
 65 66  1  0
 66 67  1  0
 67 68  1  0
 68 69  1  0
 68 70  1  0
 66 71  1  0
 71 72  2  0
 71 73  1  0
 73 74  1  0
 74 75  1  0
 75 76  1  0
 76 77  2  0
 77 78  1  0
 78 79  2  0
 79 80  1  0
 80 81  2  0
 74 82  1  0
 82 83  2  0
 82 84  1  0
 84 85  1  0
 85 86  1  0
 86 87  1  0
 87 88  1  0
 88 89  1  0
 85 90  1  0
 85 91  1  6
 91 92  2  0
 91 93  1  0
  8  3  1  0
 42 37  1  0
 81 76  1  0
 11  6  1  0
 50 89  2  0
 18 13  2  0
 22  9  1  0
 26 21  1  0
  2 94  1  0
  4 95  1  0
  5 96  1  0
  8 97  1  0
 15 98  1  0
 17 99  1  0
 18100  1  0
 19101  1  0
 23102  1  0
 24103  1  0
 26104  1  0
 27105  1  0
 29106  1  0
 30107  1  0
 30108  1  0
 31109  1  0
 31110  1  0
 34111  1  0
 35112  1  1
 36113  1  0
 36114  1  0
 38115  1  0
 39116  1  0
 40117  1  0
 41118  1  0
 42119  1  0
 45120  1  0
 47121  1  0
 47122  1  0
 48123  1  0
 48124  1  0
 49125  1  0
 49126  1  0
 50127  1  0
 51128  1  0
 51129  1  0
 51130  1  0
 54131  1  0
 55132  1  1
 56133  1  0
 56134  1  0
 57135  1  0
 57136  1  0
 58137  1  0
 58138  1  0
 59139  1  0
 61140  1  0
 62141  1  0
 62142  1  0
 65143  1  0
 66144  1  1
 67145  1  0
 67146  1  0
 68147  1  0
 69148  1  0
 69149  1  0
 69150  1  0
 70151  1  0
 70152  1  0
 70153  1  0
 73154  1  0
 74155  1  1
 75156  1  0
 75157  1  0
 77158  1  0
 78159  1  0
 79160  1  0
 80161  1  0
 81162  1  0
 84163  1  0
 86164  1  0
 86165  1  0
 87166  1  0
 87167  1  0
 88168  1  0
 88169  1  0
 89170  1  0
 90171  1  0
 90172  1  0
 90173  1  0
 93174  1  0
M  END
