
     RDKit          2D

289292  0  0  0  0  0  0  0  0999 V2000
   24.8447   14.3908    0.0000 N   0  0  0  0  0  0  0  0  0  0  0  0
   23.4301   13.8918    0.0000 C   0  0  0  0  0  0  0  0  0  0  0  0
   23.1550   12.4173    0.0000 C   0  0  0  0  0  0  0  0  0  0  0  0
   21.7404   11.9182    0.0000 O   0  0  0  0  0  0  0  0  0  0  0  0
   21.4653   10.4437    0.0000 C   0  0  0  0  0  0  0  0  0  0  0  0
   20.0507    9.9447    0.0000 O   0  0  0  0  0  0  0  0  0  0  0  0
   19.7756    8.4701    0.0000 C   0  0  0  0  0  0  0  0  0  0  0  0
   18.3611    7.9711    0.0000 C   0  0  0  0  0  0  0  0  0  0  0  0
   18.0860    6.4965    0.0000 O   0  0  0  0  0  0  0  0  0  0  0  0
   16.6714    5.9975    0.0000 C   0  0  0  0  0  0  0  0  0  0  0  0
   16.3963    4.5229    0.0000 C   0  0  0  0  0  0  0  0  0  0  0  0
   14.9817    4.0239    0.0000 C   0  0  0  0  0  0  0  0  0  0  0  0
   13.9697    5.1311    0.0000 O   0  0  0  0  0  0  0  0  0  0  0  0
   14.7066    2.5494    0.0000 N   0  0  0  0  0  0  0  0  0  0  0  0
   13.2920    2.0503    0.0000 C   0  0  0  0  0  0  0  0  0  0  0  0
   13.0462    3.5301    0.0000 C   0  0  0  0  0  0  0  0  0  0  0  0
   11.6419    4.0571    0.0000 C   0  0  0  0  0  0  0  0  0  0  0  0
   11.3961    5.5368    0.0000 C   0  0  0  0  0  0  0  0  0  0  0  0
    9.9917    6.0638    0.0000 C   0  0  0  0  0  0  0  0  0  0  0  0
    9.7459    7.5435    0.0000 N   0  0  0  0  0  0  0  0  0  0  0  0
   12.1335    1.0976    0.0000 C   0  0  0  0  0  0  0  0  0  0  0  0
   10.8038    1.7919    0.0000 O   0  0  0  0  0  0  0  0  0  0  0  0
   12.3793   -0.3821    0.0000 N   0  0  0  0  0  0  0  0  0  0  0  0
   11.2207   -1.3348    0.0000 C   0  0  0  0  0  0  0  0  0  0  0  0
   10.4836   -0.0284    0.0000 C   0  0  0  0  0  0  0  0  0  0  0  0
    8.9837   -0.0135    0.0000 C   0  0  0  0  0  0  0  0  0  0  0  0
    8.2466    1.2929    0.0000 C   0  0  0  0  0  0  0  0  0  0  0  0
    6.7467    1.3077    0.0000 N   0  0  0  0  0  0  0  0  0  0  0  0
    9.0095    2.5844    0.0000 O   0  0  0  0  0  0  0  0  0  0  0  0
   10.4579   -2.6264    0.0000 C   0  0  0  0  0  0  0  0  0  0  0  0
    8.9579   -2.6115    0.0000 O   0  0  0  0  0  0  0  0  0  0  0  0
   11.1949   -3.9328    0.0000 N   0  0  0  0  0  0  0  0  0  0  0  0
   10.4321   -5.2243    0.0000 C   0  0  0  0  0  0  0  0  0  0  0  0
   11.8365   -5.7513    0.0000 C   0  0  0  0  0  0  0  0  0  0  0  0
   12.9950   -4.7986    0.0000 C   0  0  0  0  0  0  0  0  0  0  0  0
   14.3994   -5.3256    0.0000 C   0  0  0  0  0  0  0  0  0  0  0  0
   14.8238   -6.7643    0.0000 F   0  0  0  0  0  0  0  0  0  0  0  0
   15.5580   -4.3728    0.0000 C   0  0  0  0  0  0  0  0  0  0  0  0
   16.9624   -4.8998    0.0000 F   0  0  0  0  0  0  0  0  0  0  0  0
   15.3122   -2.8931    0.0000 C   0  0  0  0  0  0  0  0  0  0  0  0
   16.4708   -1.9404    0.0000 F   0  0  0  0  0  0  0  0  0  0  0  0
   13.9078   -2.3661    0.0000 C   0  0  0  0  0  0  0  0  0  0  0  0
   13.8442   -0.8675    0.0000 F   0  0  0  0  0  0  0  0  0  0  0  0
   12.7492   -3.3189    0.0000 C   0  0  0  0  0  0  0  0  0  0  0  0
   11.3448   -2.7919    0.0000 F   0  0  0  0  0  0  0  0  0  0  0  0
    9.2735   -6.1771    0.0000 C   0  0  0  0  0  0  0  0  0  0  0  0
    9.5905   -6.9085    0.0000 O   0  0  0  0  0  0  0  0  0  0  0  0
    7.8691   -5.6501    0.0000 N   0  0  0  0  0  0  0  0  0  0  0  0
    6.7105   -6.6028    0.0000 C   0  0  0  0  0  0  0  0  0  0  0  0
    7.8500   -7.5783    0.0000 C   0  0  0  0  0  0  0  0  0  0  0  0
    9.2645   -7.0793    0.0000 C   0  0  0  0  0  0  0  0  0  0  0  0
   10.4040   -8.0549    0.0000 C   0  0  0  0  0  0  0  0  0  0  0  0
   11.8186   -7.5558    0.0000 N   0  0  0  0  0  0  0  0  0  0  0  0
   12.9580   -8.5314    0.0000 C   0  0  0  0  0  0  0  0  0  0  0  0
   14.3726   -8.0323    0.0000 N   0  0  0  0  0  0  0  0  0  0  0  0
   12.6829  -10.0059    0.0000 N   0  0  0  0  0  0  0  0  0  0  0  0
    5.2960   -7.1018    0.0000 C   0  0  0  0  0  0  0  0  0  0  0  0
    5.3859   -8.5991    0.0000 O   0  0  0  0  0  0  0  0  0  0  0  0
    4.1565   -6.1263    0.0000 N   0  0  0  0  0  0  0  0  0  0  0  0
    2.7420   -6.6253    0.0000 C   0  0  0  0  0  0  0  0  0  0  0  0
    3.4791   -7.9317    0.0000 C   0  0  0  0  0  0  0  0  0  0  0  0
    4.9790   -7.9466    0.0000 C   0  0  0  0  0  0  0  0  0  0  0  0
    5.7161   -9.2530    0.0000 C   0  0  0  0  0  0  0  0  0  0  0  0
    7.2160   -9.2679    0.0000 C   0  0  0  0  0  0  0  0  0  0  0  0
    7.9531  -10.5743    0.0000 N   0  0  0  0  0  0  0  0  0  0  0  0
    1.2421   -6.6104    0.0000 C   0  0  0  0  0  0  0  0  0  0  0  0
    0.8144   -8.0482    0.0000 O   0  0  0  0  0  0  0  0  0  0  0  0
    0.5050   -5.3040    0.0000 N   0  0  0  0  0  0  0  0  0  0  0  0
   -0.9949   -5.2891    0.0000 C   0  0  0  0  0  0  0  0  0  0  0  0
   -0.7491   -6.7689    0.0000 C   0  0  0  0  0  0  0  0  0  0  0  0
    0.6552   -7.2958    0.0000 C   0  0  0  0  0  0  0  0  0  0  0  0
    0.9010   -8.7756    0.0000 C   0  0  0  0  0  0  0  0  0  0  0  0
    2.3054   -9.3026    0.0000 C   0  0  0  0  0  0  0  0  0  0  0  0
    2.5512  -10.7823    0.0000 N   0  0  0  0  0  0  0  0  0  0  0  0
   -2.3993   -4.7621    0.0000 C   0  0  0  0  0  0  0  0  0  0  0  0
   -3.4331   -5.8490    0.0000 O   0  0  0  0  0  0  0  0  0  0  0  0
   -2.6451   -3.2824    0.0000 N   0  0  0  0  0  0  0  0  0  0  0  0
   -4.0495   -2.7554    0.0000 C   0  0  0  0  0  0  0  0  0  0  0  0
   -4.3246   -4.2300    0.0000 C   0  0  0  0  0  0  0  0  0  0  0  0
   -3.3126   -5.3371    0.0000 O   0  0  0  0  0  0  0  0  0  0  0  0
   -5.1890   -1.7799    0.0000 C   0  0  0  0  0  0  0  0  0  0  0  0
   -6.3306   -2.7528    0.0000 O   0  0  0  0  0  0  0  0  0  0  0  0
   -4.9138   -0.3053    0.0000 N   0  0  0  0  0  0  0  0  0  0  0  0
   -6.0533    0.6702    0.0000 C   0  0  0  0  0  0  0  0  0  0  0  0
   -6.4739   -0.7696    0.0000 C   0  0  0  0  0  0  0  0  0  0  0  0
   -7.3001   -2.0216    0.0000 C   0  0  0  0  0  0  0  0  0  0  0  0
   -8.4587   -2.9743    0.0000 C   0  0  0  0  0  0  0  0  0  0  0  0
   -9.8466   -3.5432    0.0000 C   0  0  0  0  0  0  0  0  0  0  0  0
   -4.6954    1.3076    0.0000 C   0  0  0  0  0  0  0  0  0  0  0  0
   -6.0758    2.1700    0.0000 C   0  0  0  0  0  0  0  0  0  0  0  0
   -4.5961    2.4158    0.0000 O   0  0  0  0  0  0  0  0  0  0  0  0
   -6.5394    3.5966    0.0000 N   0  0  0  0  0  0  0  0  0  0  0  0
   -7.4029    4.8231    0.0000 C   0  0  0  0  0  0  0  0  0  0  0  0
   -7.0546    6.2821    0.0000 C   0  0  0  0  0  0  0  0  0  0  0  0
   -5.6169    6.7100    0.0000 C   0  0  0  0  0  0  0  0  0  0  0  0
   -4.5275    5.6789    0.0000 C   0  0  0  0  0  0  0  0  0  0  0  0
   -3.0899    6.1068    0.0000 C   0  0  0  0  0  0  0  0  0  0  0  0
   -2.7416    7.5658    0.0000 C   0  0  0  0  0  0  0  0  0  0  0  0
   -3.8310    8.5969    0.0000 C   0  0  0  0  0  0  0  0  0  0  0  0
   -5.2687    8.1690    0.0000 C   0  0  0  0  0  0  0  0  0  0  0  0
   -8.5895    5.7406    0.0000 C   0  0  0  0  0  0  0  0  0  0  0  0
   -7.8591    7.0508    0.0000 O   0  0  0  0  0  0  0  0  0  0  0  0
   -9.9939    6.2676    0.0000 N   0  0  0  0  0  0  0  0  0  0  0  0
  -11.4912    6.3573    0.0000 C   0  0  0  0  0  0  0  0  0  0  0  0
  -12.4148    7.5392    0.0000 C   0  0  0  0  0  0  0  0  0  0  0  0
  -11.8530    8.9300    0.0000 C   0  0  0  0  0  0  0  0  0  0  0  0
  -10.3676    9.1389    0.0000 C   0  0  0  0  0  0  0  0  0  0  0  0
   -9.8057   10.5297    0.0000 C   0  0  0  0  0  0  0  0  0  0  0  0
  -10.7293   11.7116    0.0000 C   0  0  0  0  0  0  0  0  0  0  0  0
  -12.2147   11.5028    0.0000 C   0  0  0  0  0  0  0  0  0  0  0  0
  -12.7765   10.1120    0.0000 C   0  0  0  0  0  0  0  0  0  0  0  0
  -12.9485    6.0016    0.0000 C   0  0  0  0  0  0  0  0  0  0  0  0
  -13.5174    7.3895    0.0000 O   0  0  0  0  0  0  0  0  0  0  0  0
  -14.2361    5.2321    0.0000 N   0  0  0  0  0  0  0  0  0  0  0  0
  -15.2397    4.1174    0.0000 C   0  0  0  0  0  0  0  0  0  0  0  0
  -16.7397    4.1322    0.0000 C   0  0  0  0  0  0  0  0  0  0  0  0
  -17.4767    5.4387    0.0000 C   0  0  0  0  0  0  0  0  0  0  0  0
  -18.9767    5.4535    0.0000 C   0  0  0  0  0  0  0  0  0  0  0  0
  -19.7137    6.7600    0.0000 C   0  0  0  0  0  0  0  0  0  0  0  0
  -21.2137    6.7748    0.0000 N   0  0  0  0  0  0  0  0  0  0  0  0
  -15.8702    2.7563    0.0000 C   0  0  0  0  0  0  0  0  0  0  0  0
  -17.3100    3.1769    0.0000 O   0  0  0  0  0  0  0  0  0  0  0  0
  -16.0715    1.2699    0.0000 N   0  0  0  0  0  0  0  0  0  0  0  0
  -15.8257   -0.2099    0.0000 C   0  0  0  0  0  0  0  0  0  0  0  0
  -15.1546   -1.5514    0.0000 C   0  0  0  0  0  0  0  0  0  0  0  0
  -14.1180   -2.6355    0.0000 C   0  0  0  0  0  0  0  0  0  0  0  0
  -12.8078   -3.3659    0.0000 C   0  0  0  0  0  0  0  0  0  0  0  0
  -11.3406   -3.6777    0.0000 C   0  0  0  0  0  0  0  0  0  0  0  0
  -17.2755    0.1747    0.0000 C   0  0  0  0  0  0  0  0  0  0  0  0
  -16.7725   -1.3733    0.0000 C   0  0  0  0  0  0  0  0  0  0  0  0
  -16.5934   -2.8625    0.0000 O   0  0  0  0  0  0  0  0  0  0  0  0
  -18.2534   -1.1350    0.0000 N   0  0  0  0  0  0  0  0  0  0  0  0
  -19.2003   -2.2984    0.0000 C   0  0  0  0  0  0  0  0  0  0  0  0
  -19.6921   -3.7155    0.0000 C   0  0  0  0  0  0  0  0  0  0  0  0
  -21.1652   -3.9981    0.0000 C   0  0  0  0  0  0  0  0  0  0  0  0
  -21.6570   -5.4152    0.0000 C   0  0  0  0  0  0  0  0  0  0  0  0
  -22.6462   -3.7598    0.0000 C   0  0  0  0  0  0  0  0  0  0  0  0
  -20.6812   -2.0601    0.0000 C   0  0  0  0  0  0  0  0  0  0  0  0
  -21.7628   -3.0995    0.0000 O   0  0  0  0  0  0  0  0  0  0  0  0
  -21.2154   -0.6585    0.0000 O   0  0  0  0  0  0  0  0  0  0  0  0
   25.1198   15.8654    0.0000 H   0  0  0  0  0  0  0  0  0  0  0  0
   25.9841   13.4153    0.0000 H   0  0  0  0  0  0  0  0  0  0  0  0
   23.1843   15.3715    0.0000 H   0  0  0  0  0  0  0  0  0  0  0  0
   21.9302   13.9067    0.0000 H   0  0  0  0  0  0  0  0  0  0  0  0
   24.6549   12.4024    0.0000 H   0  0  0  0  0  0  0  0  0  0  0  0
   23.5793   10.9785    0.0000 H   0  0  0  0  0  0  0  0  0  0  0  0
   22.9522   10.2461    0.0000 H   0  0  0  0  0  0  0  0  0  0  0  0
   21.8896    9.0049    0.0000 H   0  0  0  0  0  0  0  0  0  0  0  0
   21.2626    8.2725    0.0000 H   0  0  0  0  0  0  0  0  0  0  0  0
   20.0214    6.9904    0.0000 H   0  0  0  0  0  0  0  0  0  0  0  0
   18.1153    9.4508    0.0000 H   0  0  0  0  0  0  0  0  0  0  0  0
   16.8741    8.1687    0.0000 H   0  0  0  0  0  0  0  0  0  0  0  0
   16.2471    7.4362    0.0000 H   0  0  0  0  0  0  0  0  0  0  0  0
   15.1715    6.0124    0.0000 H   0  0  0  0  0  0  0  0  0  0  0  0
   17.8962    4.5081    0.0000 H   0  0  0  0  0  0  0  0  0  0  0  0
   16.6421    3.0432    0.0000 H   0  0  0  0  0  0  0  0  0  0  0  0
   15.8461    1.5738    0.0000 H   0  0  0  0  0  0  0  0  0  0  0  0
   14.0291    0.7439    0.0000 H   0  0  0  0  0  0  0  0  0  0  0  0
   13.3214    5.0046    0.0000 H   0  0  0  0  0  0  0  0  0  0  0  0
   14.5052    3.8786    0.0000 H   0  0  0  0  0  0  0  0  0  0  0  0
   10.1513    3.8890    0.0000 H   0  0  0  0  0  0  0  0  0  0  0  0
   11.3667    2.5825    0.0000 H   0  0  0  0  0  0  0  0  0  0  0  0
   11.8489    6.9668    0.0000 H   0  0  0  0  0  0  0  0  0  0  0  0
   12.8866    5.7048    0.0000 H   0  0  0  0  0  0  0  0  0  0  0  0
    8.4918    6.0787    0.0000 H   0  0  0  0  0  0  0  0  0  0  0  0
    9.5389    4.6337    0.0000 H   0  0  0  0  0  0  0  0  0  0  0  0
    8.3415    8.0705    0.0000 H   0  0  0  0  0  0  0  0  0  0  0  0
   10.0210    9.0181    0.0000 H   0  0  0  0  0  0  0  0  0  0  0  0
   11.2364    7.7116    0.0000 H   0  0  0  0  0  0  0  0  0  0  0  0
   13.8374   -0.7340    0.0000 H   0  0  0  0  0  0  0  0  0  0  0  0
   12.3601   -2.3104    0.0000 H   0  0  0  0  0  0  0  0  0  0  0  0
   10.0593    1.4103    0.0000 H   0  0  0  0  0  0  0  0  0  0  0  0
   11.7354    0.7981    0.0000 H   0  0  0  0  0  0  0  0  0  0  0  0
    7.5691   -0.5126    0.0000 H   0  0  0  0  0  0  0  0  0  0  0  0
    9.2295   -1.4933    0.0000 H   0  0  0  0  0  0  0  0  0  0  0  0
    6.0096    2.6142    0.0000 H   0  0  0  0  0  0  0  0  0  0  0  0
    5.9838    0.0162    0.0000 H   0  0  0  0  0  0  0  0  0  0  0  0
   12.6539   -3.5843    0.0000 H   0  0  0  0  0  0  0  0  0  0  0  0
    9.2926   -4.2488    0.0000 H   0  0  0  0  0  0  0  0  0  0  0  0
   12.9759   -6.7268    0.0000 H   0  0  0  0  0  0  0  0  0  0  0  0
   11.4088   -7.1891    0.0000 H   0  0  0  0  0  0  0  0  0  0  0  0
    7.6233   -4.1703    0.0000 H   0  0  0  0  0  0  0  0  0  0  0  0
    5.9735   -5.2964    0.0000 H   0  0  0  0  0  0  0  0  0  0  0  0
    8.5871   -8.8848    0.0000 H   0  0  0  0  0  0  0  0  0  0  0  0
    6.5839   -8.3827    0.0000 H   0  0  0  0  0  0  0  0  0  0  0  0
   10.4231   -6.1266    0.0000 H   0  0  0  0  0  0  0  0  0  0  0  0
    8.8655   -5.6334    0.0000 H   0  0  0  0  0  0  0  0  0  0  0  0
   11.1411   -9.3613    0.0000 H   0  0  0  0  0  0  0  0  0  0  0  0
    9.5104   -9.2596    0.0000 H   0  0  0  0  0  0  0  0  0  0  0  0
   12.4423   -6.1917    0.0000 H   0  0  0  0  0  0  0  0  0  0  0  0
   15.5120   -9.0079    0.0000 H   0  0  0  0  0  0  0  0  0  0  0  0
   14.8254   -6.6023    0.0000 H   0  0  0  0  0  0  0  0  0  0  0  0
   13.8223  -10.9815    0.0000 H   0  0  0  0  0  0  0  0  0  0  0  0
   11.2683  -10.5049    0.0000 H   0  0  0  0  0  0  0  0  0  0  0  0
    4.4317   -4.6517    0.0000 H   0  0  0  0  0  0  0  0  0  0  0  0
    2.4962   -5.1456    0.0000 H   0  0  0  0  0  0  0  0  0  0  0  0
    3.7249   -9.4115    0.0000 H   0  0  0  0  0  0  0  0  0  0  0  0
    2.0142   -8.2546    0.0000 H   0  0  0  0  0  0  0  0  0  0  0  0
    6.3222   -7.2789    0.0000 H   0  0  0  0  0  0  0  0  0  0  0  0
    5.0985   -6.4514    0.0000 H   0  0  0  0  0  0  0  0  0  0  0  0
    5.7797  -10.7517    0.0000 H   0  0  0  0  0  0  0  0  0  0  0  0
    4.4643  -10.0795    0.0000 H   0  0  0  0  0  0  0  0  0  0  0  0
    8.7093   -9.1260    0.0000 H   0  0  0  0  0  0  0  0  0  0  0  0
    6.9702   -7.7882    0.0000 H   0  0  0  0  0  0  0  0  0  0  0  0
    9.4530  -10.5892    0.0000 H   0  0  0  0  0  0  0  0  0  0  0  0
    8.1989  -12.0540    0.0000 H   0  0  0  0  0  0  0  0  0  0  0  0
    6.6099  -11.2420    0.0000 H   0  0  0  0  0  0  0  0  0  0  0  0
    1.2678   -4.0125    0.0000 H   0  0  0  0  0  0  0  0  0  0  0  0
   -0.7198   -3.8146    0.0000 H   0  0  0  0  0  0  0  0  0  0  0  0
   -1.2019   -8.1989    0.0000 H   0  0  0  0  0  0  0  0  0  0  0  0
   -2.2491   -6.7540    0.0000 H   0  0  0  0  0  0  0  0  0  0  0  0
    2.1458   -7.1278    0.0000 H   0  0  0  0  0  0  0  0  0  0  0  0
    1.2790   -5.9317    0.0000 H   0  0  0  0  0  0  0  0  0  0  0  0
    0.4482  -10.2056    0.0000 H   0  0  0  0  0  0  0  0  0  0  0  0
   -0.5895   -8.9436    0.0000 H   0  0  0  0  0  0  0  0  0  0  0  0
    3.7572   -9.6799    0.0000 H   0  0  0  0  0  0  0  0  0  0  0  0
    2.5805   -7.8280    0.0000 H   0  0  0  0  0  0  0  0  0  0  0  0
    3.9556  -11.3093    0.0000 H   0  0  0  0  0  0  0  0  0  0  0  0
    2.2761  -12.2568    0.0000 H   0  0  0  0  0  0  0  0  0  0  0  0
    1.0607  -10.9503    0.0000 H   0  0  0  0  0  0  0  0  0  0  0  0
   -1.4866   -2.3297    0.0000 H   0  0  0  0  0  0  0  0  0  0  0  0
   -3.2867   -1.4639    0.0000 H   0  0  0  0  0  0  0  0  0  0  0  0
   -5.0875   -5.5215    0.0000 H   0  0  0  0  0  0  0  0  0  0  0  0
   -5.7290   -3.7030    0.0000 H   0  0  0  0  0  0  0  0  0  0  0  0
   -3.4603   -6.6801    0.0000 H   0  0  0  0  0  0  0  0  0  0  0  0
   -3.4490    0.0175    0.0000 H   0  0  0  0  0  0  0  0  0  0  0  0
   -4.9821   -0.9264    0.0000 H   0  0  0  0  0  0  0  0  0  0  0  0
   -5.8331   -2.1259    0.0000 H   0  0  0  0  0  0  0  0  0  0  0  0
   -6.1045   -2.9273    0.0000 H   0  0  0  0  0  0  0  0  0  0  0  0
   -6.7346   -3.4109    0.0000 H   0  0  0  0  0  0  0  0  0  0  0  0
   -7.2048   -3.7975    0.0000 H   0  0  0  0  0  0  0  0  0  0  0  0
   -8.5110   -4.4734    0.0000 H   0  0  0  0  0  0  0  0  0  0  0  0
   -9.4909   -5.0004    0.0000 H   0  0  0  0  0  0  0  0  0  0  0  0
   -3.3692    0.6068    0.0000 H   0  0  0  0  0  0  0  0  0  0  0  0
   -3.6375    2.3709    0.0000 H   0  0  0  0  0  0  0  0  0  0  0  0
   -5.2365    2.7066    0.0000 H   0  0  0  0  0  0  0  0  0  0  0  0
   -5.1261    4.0991    0.0000 H   0  0  0  0  0  0  0  0  0  0  0  0
   -5.9298    5.1057    0.0000 H   0  0  0  0  0  0  0  0  0  0  0  0
   -7.2264    7.7723    0.0000 H   0  0  0  0  0  0  0  0  0  0  0  0
   -8.4858    6.7314    0.0000 H   0  0  0  0  0  0  0  0  0  0  0  0
   -4.6954    4.1883    0.0000 H   0  0  0  0  0  0  0  0  0  0  0  0
   -2.0005    5.0757    0.0000 H   0  0  0  0  0  0  0  0  0  0  0  0
   -1.3039    7.9937    0.0000 H   0  0  0  0  0  0  0  0  0  0  0  0
   -3.4827   10.0559    0.0000 H   0  0  0  0  0  0  0  0  0  0  0  0
   -6.3581    9.2001    0.0000 H   0  0  0  0  0  0  0  0  0  0  0  0
   -9.5056    7.6859    0.0000 H   0  0  0  0  0  0  0  0  0  0  0  0
  -10.7937    7.6852    0.0000 H   0  0  0  0  0  0  0  0  0  0  0  0
  -13.6869    8.3340    0.0000 H   0  0  0  0  0  0  0  0  0  0  0  0
  -13.6584    6.7004    0.0000 H   0  0  0  0  0  0  0  0  0  0  0  0
   -9.3068    8.0783    0.0000 H   0  0  0  0  0  0  0  0  0  0  0  0
   -8.3203   10.7385    0.0000 H   0  0  0  0  0  0  0  0  0  0  0  0
  -10.1675   13.1024    0.0000 H   0  0  0  0  0  0  0  0  0  0  0  0
  -13.1382   12.6848    0.0000 H   0  0  0  0  0  0  0  0  0  0  0  0
  -14.2619    9.9032    0.0000 H   0  0  0  0  0  0  0  0  0  0  0  0
  -15.1888    6.3907    0.0000 H   0  0  0  0  0  0  0  0  0  0  0  0
  -15.6712    5.5540    0.0000 H   0  0  0  0  0  0  0  0  0  0  0  0
  -18.0828    3.4645    0.0000 H   0  0  0  0  0  0  0  0  0  0  0  0
  -16.8592    2.6370    0.0000 H   0  0  0  0  0  0  0  0  0  0  0  0
  -17.5403    6.9373    0.0000 H   0  0  0  0  0  0  0  0  0  0  0  0
  -16.1336    6.1064    0.0000 H   0  0  0  0  0  0  0  0  0  0  0  0
  -20.3198    4.7858    0.0000 H   0  0  0  0  0  0  0  0  0  0  0  0
  -18.9131    3.9549    0.0000 H   0  0  0  0  0  0  0  0  0  0  0  0
  -19.9595    8.2397    0.0000 H   0  0  0  0  0  0  0  0  0  0  0  0
  -18.3706    7.4277    0.0000 H   0  0  0  0  0  0  0  0  0  0  0  0
  -21.9507    8.0813    0.0000 H   0  0  0  0  0  0  0  0  0  0  0  0
  -22.6282    6.2758    0.0000 H   0  0  0  0  0  0  0  0  0  0  0  0
  -21.1501    5.2762    0.0000 H   0  0  0  0  0  0  0  0  0  0  0  0
  -17.5713    1.2473    0.0000 H   0  0  0  0  0  0  0  0  0  0  0  0
  -15.7165   -2.9422    0.0000 H   0  0  0  0  0  0  0  0  0  0  0  0
  -16.5944   -1.9722    0.0000 H   0  0  0  0  0  0  0  0  0  0  0  0
  -14.4261   -4.1035    0.0000 H   0  0  0  0  0  0  0  0  0  0  0  0
  -15.3697   -3.4620    0.0000 H   0  0  0  0  0  0  0  0  0  0  0  0
  -12.4886   -4.8316    0.0000 H   0  0  0  0  0  0  0  0  0  0  0  0
  -13.8945   -4.3999    0.0000 H   0  0  0  0  0  0  0  0  0  0  0  0
  -11.4302   -5.1751    0.0000 H   0  0  0  0  0  0  0  0  0  0  0  0
  -18.5594   -0.6011    0.0000 H   0  0  0  0  0  0  0  0  0  0  0  0
  -18.3928    1.1756    0.0000 H   0  0  0  0  0  0  0  0  0  0  0  0
  -16.9932    1.6479    0.0000 H   0  0  0  0  0  0  0  0  0  0  0  0
  -18.9545    0.1911    0.0000 H   0  0  0  0  0  0  0  0  0  0  0  0
  -17.8901   -3.0288    0.0000 H   0  0  0  0  0  0  0  0  0  0  0  0
  -19.4869   -5.2014    0.0000 H   0  0  0  0  0  0  0  0  0  0  0  0
  -18.2111   -3.9538    0.0000 H   0  0  0  0  0  0  0  0  0  0  0  0
  -21.7238   -2.6060    0.0000 H   0  0  0  0  0  0  0  0  0  0  0  0
  -23.0847   -5.8753    0.0000 H   0  0  0  0  0  0  0  0  0  0  0  0
  -21.6345   -6.9150    0.0000 H   0  0  0  0  0  0  0  0  0  0  0  0
  -20.2162   -5.8322    0.0000 H   0  0  0  0  0  0  0  0  0  0  0  0
  -23.7277   -4.7992    0.0000 H   0  0  0  0  0  0  0  0  0  0  0  0
  -23.9563   -3.0294    0.0000 H   0  0  0  0  0  0  0  0  0  0  0  0
  -22.1544   -2.3428    0.0000 H   0  0  0  0  0  0  0  0  0  0  0  0
  1  2  1  0
  2  3  1  0
  3  4  1  0
  4  5  1  0
  5  6  1  0
  6  7  1  0
  7  8  1  0
  8  9  1  0
  9 10  1  0
 10 11  1  0
 11 12  1  0
 12 13  2  0
 12 14  1  0
 14 15  1  0
 15 16  1  0
 16 17  1  0
 17 18  1  0
 18 19  1  0
 19 20  1  0
 15 21  1  0
 21 22  2  0
 21 23  1  0
 23 24  1  0
 24 25  1  0
 25 26  1  0
 26 27  1  0
 27 28  1  0
 27 29  2  0
 24 30  1  0
 30 31  2  0
 30 32  1  0
 32 33  1  0
 33 34  1  0
 34 35  1  0
 35 36  2  0
 36 37  1  0
 36 38  1  0
 38 39  1  0
 38 40  2  0
 40 41  1  0
 40 42  1  0
 42 43  1  0
 42 44  2  0
 44 45  1  0
 33 46  1  0
 46 47  2  0
 46 48  1  0
 48 49  1  0
 49 50  1  0
 50 51  1  0
 51 52  1  0
 52 53  1  0
 53 54  1  0
 54 55  2  3
 54 56  1  0
 49 57  1  0
 57 58  2  0
 57 59  1  0
 59 60  1  0
 60 61  1  0
 61 62  1  0
 62 63  1  0
 63 64  1  0
 64 65  1  0
 60 66  1  0
 66 67  2  0
 66 68  1  0
 68 69  1  0
 69 70  1  0
 70 71  1  0
 71 72  1  0
 72 73  1  0
 73 74  1  0
 69 75  1  0
 75 76  2  0
 75 77  1  0
 77 78  1  0
 78 79  1  0
 79 80  1  0
 78 81  1  0
 81 82  2  0
 81 83  1  0
 84 83  1  1
 84 85  1  0
 85 86  1  0
 86 87  1  0
 87 88  1  0
 84 89  1  0
 84 90  1  0
 90 91  2  0
 90 92  1  0
 92 93  1  0
 93 94  1  0
 94 95  1  0
 95 96  2  0
 96 97  1  0
 97 98  2  0
 98 99  1  0
 99100  2  0
 93101  1  0
101102  2  0
101103  1  0
103104  1  0
104105  1  0
105106  1  0
106107  2  0
107108  1  0
108109  2  0
109110  1  0
110111  2  0
104112  1  0
112113  2  0
112114  1  0
114115  1  0
115116  1  0
116117  1  0
117118  1  0
118119  1  0
119120  1  0
115121  1  0
121122  2  0
121123  1  0
123124  1  0
124125  1  0
125126  1  0
126127  1  0
127128  1  0
124129  1  0
124130  1  1
130131  2  0
130132  1  0
132133  1  0
133134  1  0
134135  1  0
135136  1  0
135137  1  0
133138  1  0
138139  2  0
138140  1  0
 44 35  1  0
100 95  1  0
111106  1  0
 88128  2  0
  1141  1  0
  1142  1  0
  2143  1  0
  2144  1  0
  3145  1  0
  3146  1  0
  5147  1  0
  5148  1  0
  7149  1  0
  7150  1  0
  8151  1  0
  8152  1  0
 10153  1  0
 10154  1  0
 11155  1  0
 11156  1  0
 14157  1  0
 15158  1  6
 16159  1  0
 16160  1  0
 17161  1  0
 17162  1  0
 18163  1  0
 18164  1  0
 19165  1  0
 19166  1  0
 20167  1  0
 20168  1  0
 20169  1  0
 23170  1  0
 24171  1  6
 25172  1  0
 25173  1  0
 26174  1  0
 26175  1  0
 28176  1  0
 28177  1  0
 32178  1  0
 33179  1  6
 34180  1  0
 34181  1  0
 48182  1  0
 49183  1  1
 50184  1  0
 50185  1  0
 51186  1  0
 51187  1  0
 52188  1  0
 52189  1  0
 53190  1  0
 55191  1  0
 55192  1  0
 56193  1  0
 56194  1  0
 59195  1  0
 60196  1  1
 61197  1  0
 61198  1  0
 62199  1  0
 62200  1  0
 63201  1  0
 63202  1  0
 64203  1  0
 64204  1  0
 65205  1  0
 65206  1  0
 65207  1  0
 68208  1  0
 69209  1  1
 70210  1  0
 70211  1  0
 71212  1  0
 71213  1  0
 72214  1  0
 72215  1  0
 73216  1  0
 73217  1  0
 74218  1  0
 74219  1  0
 74220  1  0
 77221  1  0
 78222  1  1
 79223  1  0
 79224  1  0
 80225  1  0
 83226  1  0
 85227  1  0
 85228  1  0
 86229  1  0
 86230  1  0
 87231  1  0
 87232  1  0
 88233  1  0
 89234  1  0
 89235  1  0
 89236  1  0
 92237  1  0
 93238  1  6
 94239  1  0
 94240  1  0
 96241  1  0
 97242  1  0
 98243  1  0
 99244  1  0
100245  1  0
103246  1  0
104247  1  6
105248  1  0
105249  1  0
107250  1  0
108251  1  0
109252  1  0
110253  1  0
111254  1  0
114255  1  0
115256  1  6
116257  1  0
116258  1  0
117259  1  0
117260  1  0
118261  1  0
118262  1  0
119263  1  0
119264  1  0
120265  1  0
120266  1  0
120267  1  0
123268  1  0
125269  1  0
125270  1  0
126271  1  0
126272  1  0
127273  1  0
127274  1  0
128275  1  0
129276  1  0
129277  1  0
129278  1  0
132279  1  0
133280  1  1
134281  1  0
134282  1  0
135283  1  0
136284  1  0
136285  1  0
136286  1  0
137287  1  0
137288  1  0
137289  1  0
M  CHG  6  20   1  55   1  65   1  74   1 120   1 140  -1
M  END
