
     RDKit          2D

294300  0  0  0  0  0  0  0  0999 V2000
  -24.0338   -2.2534    0.0000 C   0  0  0  0  0  0  0  0  0  0  0  0
  -25.1507   -3.2548    0.0000 N   0  0  0  0  0  0  0  0  0  0  0  0
  -26.5763   -2.7882    0.0000 C   0  0  0  0  0  0  0  0  0  0  0  0
  -26.8850   -1.3203    0.0000 C   0  0  0  0  0  0  0  0  0  0  0  0
  -28.3106   -0.8538    0.0000 C   0  0  0  0  0  0  0  0  0  0  0  0
  -29.4275   -1.8551    0.0000 C   0  0  0  0  0  0  0  0  0  0  0  0
  -29.1187   -3.3230    0.0000 C   0  0  0  0  0  0  0  0  0  0  0  0
  -27.6931   -3.7895    0.0000 C   0  0  0  0  0  0  0  0  0  0  0  0
  -30.4194   -4.0702    0.0000 C   0  0  0  0  0  0  0  0  0  0  0  0
  -31.5319   -3.0641    0.0000 O   0  0  0  0  0  0  0  0  0  0  0  0
  -30.9189   -1.6951    0.0000 C   0  0  0  0  0  0  0  0  0  0  0  0
  -31.6662   -0.3945    0.0000 O   0  0  0  0  0  0  0  0  0  0  0  0
  -31.7910   -4.6774    0.0000 C   0  0  0  0  0  0  0  0  0  0  0  0
  -31.9510   -6.1688    0.0000 C   0  0  0  0  0  0  0  0  0  0  0  0
  -33.3226   -6.7760    0.0000 C   0  0  0  0  0  0  0  0  0  0  0  0
  -34.5342   -5.8917    0.0000 C   0  0  0  0  0  0  0  0  0  0  0  0
  -34.3742   -4.4003    0.0000 C   0  0  0  0  0  0  0  0  0  0  0  0
  -33.0026   -3.7931    0.0000 C   0  0  0  0  0  0  0  0  0  0  0  0
  -35.9058   -6.4989    0.0000 O   0  0  0  0  0  0  0  0  0  0  0  0
  -30.7393   -7.0531    0.0000 O   0  0  0  0  0  0  0  0  0  0  0  0
  -29.3677   -6.4459    0.0000 C   0  0  0  0  0  0  0  0  0  0  0  0
  -29.2077   -4.9544    0.0000 C   0  0  0  0  0  0  0  0  0  0  0  0
  -27.9108   -5.0433    0.0000 C   0  0  0  0  0  0  0  0  0  0  0  0
  -27.2646   -5.5149    0.0000 C   0  0  0  0  0  0  0  0  0  0  0  0
  -27.3499   -6.3103    0.0000 C   0  0  0  0  0  0  0  0  0  0  0  0
  -28.0814   -6.6341    0.0000 C   0  0  0  0  0  0  0  0  0  0  0  0
  -25.5728   -7.6072    0.0000 O   0  0  0  0  0  0  0  0  0  0  0  0
  -24.3426   -0.7856    0.0000 S   0  0  0  0  0  0  0  0  0  0  0  0
  -22.6082   -2.7200    0.0000 N   0  0  0  0  0  0  0  0  0  0  0  0
  -21.4914   -1.7187    0.0000 C   0  0  0  0  0  0  0  0  0  0  0  0
  -20.0658   -2.1853    0.0000 C   0  0  0  0  0  0  0  0  0  0  0  0
  -18.9489   -1.1839    0.0000 C   0  0  0  0  0  0  0  0  0  0  0  0
  -19.2577    0.2839    0.0000 O   0  0  0  0  0  0  0  0  0  0  0  0
  -17.5234   -1.6505    0.0000 N   0  0  0  0  0  0  0  0  0  0  0  0
  -16.4065   -0.6492    0.0000 C   0  0  0  0  0  0  0  0  0  0  0  0
  -15.6995    0.6737    0.0000 C   0  0  0  0  0  0  0  0  0  0  0  0
  -14.2003    0.7229    0.0000 C   0  0  0  0  0  0  0  0  0  0  0  0
  -13.4081   -0.5509    0.0000 C   0  0  0  0  0  0  0  0  0  0  0  0
  -11.9089   -0.5017    0.0000 C   0  0  0  0  0  0  0  0  0  0  0  0
  -11.2019    0.8212    0.0000 C   0  0  0  0  0  0  0  0  0  0  0  0
  -11.9941    2.0950    0.0000 C   0  0  0  0  0  0  0  0  0  0  0  0
  -13.4933    2.0458    0.0000 C   0  0  0  0  0  0  0  0  0  0  0  0
  -14.9809   -1.1157    0.0000 C   0  0  0  0  0  0  0  0  0  0  0  0
  -14.8534   -2.6103    0.0000 O   0  0  0  0  0  0  0  0  0  0  0  0
  -13.8641   -0.1144    0.0000 N   0  0  0  0  0  0  0  0  0  0  0  0
  -12.4385   -0.5810    0.0000 C   0  0  0  0  0  0  0  0  0  0  0  0
  -11.2584   -1.5070    0.0000 C   0  0  0  0  0  0  0  0  0  0  0  0
  -11.4703   -2.9919    0.0000 C   0  0  0  0  0  0  0  0  0  0  0  0
  -10.2903   -3.9180    0.0000 N   0  0  0  0  0  0  0  0  0  0  0  0
  -12.8623   -3.5509    0.0000 O   0  0  0  0  0  0  0  0  0  0  0  0
  -11.3216    0.4203    0.0000 C   0  0  0  0  0  0  0  0  0  0  0  0
  -11.2660    1.9193    0.0000 O   0  0  0  0  0  0  0  0  0  0  0  0
   -9.8960   -0.0462    0.0000 N   0  0  0  0  0  0  0  0  0  0  0  0
   -8.7792    0.9551    0.0000 C   0  0  0  0  0  0  0  0  0  0  0  0
   -8.0721    2.2780    0.0000 C   0  0  0  0  0  0  0  0  0  0  0  0
   -6.5901    2.5095    0.0000 C   0  0  0  0  0  0  0  0  0  0  0  0
   -7.8602    3.7630    0.0000 C   0  0  0  0  0  0  0  0  0  0  0  0
   -6.5468    4.4874    0.0000 C   0  0  0  0  0  0  0  0  0  0  0  0
   -7.3536    0.4885    0.0000 C   0  0  0  0  0  0  0  0  0  0  0  0
   -7.2261   -1.0060    0.0000 O   0  0  0  0  0  0  0  0  0  0  0  0
   -6.2367    1.4898    0.0000 N   0  0  0  0  0  0  0  0  0  0  0  0
   -4.8111    1.0233    0.0000 C   0  0  0  0  0  0  0  0  0  0  0  0
   -4.2176   -0.3543    0.0000 C   0  0  0  0  0  0  0  0  0  0  0  0
   -3.2445   -1.4958    0.0000 C   0  0  0  0  0  0  0  0  0  0  0  0
   -1.9781   -2.2997    0.0000 C   0  0  0  0  0  0  0  0  0  0  0  0
   -0.5310   -2.6946    0.0000 C   0  0  0  0  0  0  0  0  0  0  0  0
   -5.9502    0.0473    0.0000 C   0  0  0  0  0  0  0  0  0  0  0  0
   -4.9722    2.5146    0.0000 C   0  0  0  0  0  0  0  0  0  0  0  0
   -6.4520    2.7598    0.0000 O   0  0  0  0  0  0  0  0  0  0  0  0
   -4.6865    3.9872    0.0000 N   0  0  0  0  0  0  0  0  0  0  0  0
   -3.9795    5.3101    0.0000 C   0  0  0  0  0  0  0  0  0  0  0  0
   -4.5035    6.7155    0.0000 C   0  0  0  0  0  0  0  0  0  0  0  0
   -3.5484    7.8721    0.0000 C   0  0  0  0  0  0  0  0  0  0  0  0
   -4.0725    9.2776    0.0000 O   0  0  0  0  0  0  0  0  0  0  0  0
   -2.0783    8.1700    0.0000 O   0  0  0  0  0  0  0  0  0  0  0  0
   -2.9139    6.3658    0.0000 C   0  0  0  0  0  0  0  0  0  0  0  0
   -3.4797    7.7550    0.0000 O   0  0  0  0  0  0  0  0  0  0  0  0
   -1.5845    7.0606    0.0000 N   0  0  0  0  0  0  0  0  0  0  0  0
   -0.1094    7.3326    0.0000 C   0  0  0  0  0  0  0  0  0  0  0  0
    0.6627    8.6187    0.0000 C   0  0  0  0  0  0  0  0  0  0  0  0
   -0.0650    9.9303    0.0000 C   0  0  0  0  0  0  0  0  0  0  0  0
    0.7071   11.2164    0.0000 C   0  0  0  0  0  0  0  0  0  0  0  0
   -0.0206   12.5280    0.0000 N   0  0  0  0  0  0  0  0  0  0  0  0
    0.7515   13.8141    0.0000 C   0  0  0  0  0  0  0  0  0  0  0  0
    0.0238   15.1257    0.0000 N   0  0  0  0  0  0  0  0  0  0  0  0
    2.2513   13.7884    0.0000 N   0  0  0  0  0  0  0  0  0  0  0  0
    1.3804    7.1578    0.0000 C   0  0  0  0  0  0  0  0  0  0  0  0
    1.7753    8.6049    0.0000 O   0  0  0  0  0  0  0  0  0  0  0  0
    2.7524    6.5516    0.0000 N   0  0  0  0  0  0  0  0  0  0  0  0
    3.8849    5.5679    0.0000 C   0  0  0  0  0  0  0  0  0  0  0  0
    5.3717    5.7661    0.0000 C   0  0  0  0  0  0  0  0  0  0  0  0
    5.7702    7.2122    0.0000 C   0  0  0  0  0  0  0  0  0  0  0  0
    6.8367    5.4438    0.0000 C   0  0  0  0  0  0  0  0  0  0  0  0
    7.8483    6.5514    0.0000 C   0  0  0  0  0  0  0  0  0  0  0  0
    4.6770    4.2942    0.0000 C   0  0  0  0  0  0  0  0  0  0  0  0
    6.1167    4.7153    0.0000 O   0  0  0  0  0  0  0  0  0  0  0  0
    5.0586    2.8435    0.0000 N   0  0  0  0  0  0  0  0  0  0  0  0
    4.9955    1.3448    0.0000 C   0  0  0  0  0  0  0  0  0  0  0  0
    4.4936   -0.0687    0.0000 C   0  0  0  0  0  0  0  0  0  0  0  0
    3.5973   -1.2715    0.0000 C   0  0  0  0  0  0  0  0  0  0  0  0
    2.3863   -2.1566    0.0000 C   0  0  0  0  0  0  0  0  0  0  0  0
    0.9682   -2.6455    0.0000 C   0  0  0  0  0  0  0  0  0  0  0  0
    6.3875    1.9038    0.0000 C   0  0  0  0  0  0  0  0  0  0  0  0
    6.0775    0.3059    0.0000 C   0  0  0  0  0  0  0  0  0  0  0  0
    6.0819   -1.1941    0.0000 O   0  0  0  0  0  0  0  0  0  0  0  0
    7.5182    0.7235    0.0000 N   0  0  0  0  0  0  0  0  0  0  0  0
    8.6002   -0.3154    0.0000 C   0  0  0  0  0  0  0  0  0  0  0  0
    9.2616   -1.6617    0.0000 C   0  0  0  0  0  0  0  0  0  0  0  0
    8.4264   -2.9077    0.0000 C   0  0  0  0  0  0  0  0  0  0  0  0
    9.0878   -4.2540    0.0000 C   0  0  0  0  0  0  0  0  0  0  0  0
    8.2525   -5.4999    0.0000 O   0  0  0  0  0  0  0  0  0  0  0  0
   10.5844   -4.3543    0.0000 O   0  0  0  0  0  0  0  0  0  0  0  0
   10.0409    0.1022    0.0000 C   0  0  0  0  0  0  0  0  0  0  0  0
   10.3996    1.5586    0.0000 O   0  0  0  0  0  0  0  0  0  0  0  0
   11.1229   -0.9367    0.0000 N   0  0  0  0  0  0  0  0  0  0  0  0
   12.5636   -0.5192    0.0000 C   0  0  0  0  0  0  0  0  0  0  0  0
   13.7746    0.3660    0.0000 C   0  0  0  0  0  0  0  0  0  0  0  0
   15.1467   -0.2402    0.0000 C   0  0  0  0  0  0  0  0  0  0  0  0
   16.3577    0.6449    0.0000 C   0  0  0  0  0  0  0  0  0  0  0  0
   16.2286   -1.2791    0.0000 C   0  0  0  0  0  0  0  0  0  0  0  0
   13.6456   -1.5581    0.0000 C   0  0  0  0  0  0  0  0  0  0  0  0
   13.2869   -3.0145    0.0000 O   0  0  0  0  0  0  0  0  0  0  0  0
   15.0863   -1.1405    0.0000 N   0  0  0  0  0  0  0  0  0  0  0  0
   16.1683   -2.1794    0.0000 C   0  0  0  0  0  0  0  0  0  0  0  0
   17.6090   -1.7618    0.0000 C   0  0  0  0  0  0  0  0  0  0  0  0
   18.1426   -0.3599    0.0000 O   0  0  0  0  0  0  0  0  0  0  0  0
   18.6910   -2.8007    0.0000 N   0  0  0  0  0  0  0  0  0  0  0  0
   20.1317   -2.3831    0.0000 C   0  0  0  0  0  0  0  0  0  0  0  0
   21.3427   -1.4980    0.0000 C   0  0  0  0  0  0  0  0  0  0  0  0
   22.1779   -0.2521    0.0000 O   0  0  0  0  0  0  0  0  0  0  0  0
   22.7784   -1.9324    0.0000 C   0  0  0  0  0  0  0  0  0  0  0  0
   21.2136   -3.4220    0.0000 C   0  0  0  0  0  0  0  0  0  0  0  0
   20.8549   -4.8785    0.0000 O   0  0  0  0  0  0  0  0  0  0  0  0
   22.6543   -3.0045    0.0000 N   0  0  0  0  0  0  0  0  0  0  0  0
   23.7363   -4.0434    0.0000 C   0  0  0  0  0  0  0  0  0  0  0  0
   24.3977   -5.3897    0.0000 C   0  0  0  0  0  0  0  0  0  0  0  0
   23.5625   -6.6356    0.0000 C   0  0  0  0  0  0  0  0  0  0  0  0
   24.2239   -7.9819    0.0000 C   0  0  0  0  0  0  0  0  0  0  0  0
   22.3515   -7.5208    0.0000 C   0  0  0  0  0  0  0  0  0  0  0  0
   25.1770   -3.6258    0.0000 C   0  0  0  0  0  0  0  0  0  0  0  0
   25.5358   -2.1693    0.0000 O   0  0  0  0  0  0  0  0  0  0  0  0
   26.2590   -4.6647    0.0000 N   0  0  0  0  0  0  0  0  0  0  0  0
   27.6997   -4.2471    0.0000 C   0  0  0  0  0  0  0  0  0  0  0  0
   28.9107   -3.3620    0.0000 C   0  0  0  0  0  0  0  0  0  0  0  0
   30.2828   -3.9682    0.0000 C   0  0  0  0  0  0  0  0  0  0  0  0
   29.7460   -2.1160    0.0000 C   0  0  0  0  0  0  0  0  0  0  0  0
   29.0846   -0.7697    0.0000 C   0  0  0  0  0  0  0  0  0  0  0  0
   28.7817   -5.2860    0.0000 C   0  0  0  0  0  0  0  0  0  0  0  0
   30.2626   -5.0472    0.0000 O   0  0  0  0  0  0  0  0  0  0  0  0
   28.4230   -6.7425    0.0000 O   0  0  0  0  0  0  0  0  0  0  0  0
  -24.6653   -4.6741    0.0000 H   0  0  0  0  0  0  0  0  0  0  0  0
  -25.7682   -0.3190    0.0000 H   0  0  0  0  0  0  0  0  0  0  0  0
  -28.6194    0.6141    0.0000 H   0  0  0  0  0  0  0  0  0  0  0  0
  -27.0384   -5.1391    0.0000 H   0  0  0  0  0  0  0  0  0  0  0  0
  -33.4825   -8.2674    0.0000 H   0  0  0  0  0  0  0  0  0  0  0  0
  -35.5859   -3.5160    0.0000 H   0  0  0  0  0  0  0  0  0  0  0  0
  -32.8427   -2.3017    0.0000 H   0  0  0  0  0  0  0  0  0  0  0  0
  -37.1175   -5.6147    0.0000 H   0  0  0  0  0  0  0  0  0  0  0  0
  -27.6761   -2.8558    0.0000 H   0  0  0  0  0  0  0  0  0  0  0  0
  -25.1891   -4.7961    0.0000 H   0  0  0  0  0  0  0  0  0  0  0  0
  -28.3160   -8.8216    0.0000 H   0  0  0  0  0  0  0  0  0  0  0  0
  -25.7328   -9.0987    0.0000 H   0  0  0  0  0  0  0  0  0  0  0  0
  -22.2995   -4.1879    0.0000 H   0  0  0  0  0  0  0  0  0  0  0  0
  -20.7844   -0.3958    0.0000 H   0  0  0  0  0  0  0  0  0  0  0  0
  -22.6714   -0.7927    0.0000 H   0  0  0  0  0  0  0  0  0  0  0  0
  -18.8858   -3.1113    0.0000 H   0  0  0  0  0  0  0  0  0  0  0  0
  -20.7728   -3.5082    0.0000 H   0  0  0  0  0  0  0  0  0  0  0  0
  -17.2146   -3.1184    0.0000 H   0  0  0  0  0  0  0  0  0  0  0  0
  -17.5865    0.2768    0.0000 H   0  0  0  0  0  0  0  0  0  0  0  0
  -15.4876    2.1587    0.0000 H   0  0  0  0  0  0  0  0  0  0  0  0
  -17.1251    1.1403    0.0000 H   0  0  0  0  0  0  0  0  0  0  0  0
  -13.9486   -1.9501    0.0000 H   0  0  0  0  0  0  0  0  0  0  0  0
  -10.8321   -1.5459    0.0000 H   0  0  0  0  0  0  0  0  0  0  0  0
   -9.7027    0.8704    0.0000 H   0  0  0  0  0  0  0  0  0  0  0  0
  -11.2870    3.4179    0.0000 H   0  0  0  0  0  0  0  0  0  0  0  0
  -14.2854    3.3196    0.0000 H   0  0  0  0  0  0  0  0  0  0  0  0
  -13.8084    1.3845    0.0000 H   0  0  0  0  0  0  0  0  0  0  0  0
  -13.1455   -1.9039    0.0000 H   0  0  0  0  0  0  0  0  0  0  0  0
   -9.9003   -2.1439    0.0000 H   0  0  0  0  0  0  0  0  0  0  0  0
  -10.2523   -0.3945    0.0000 H   0  0  0  0  0  0  0  0  0  0  0  0
  -10.5022   -5.4029    0.0000 H   0  0  0  0  0  0  0  0  0  0  0  0
   -8.8983   -3.3590    0.0000 H   0  0  0  0  0  0  0  0  0  0  0  0
   -9.4106   -1.4655    0.0000 H   0  0  0  0  0  0  0  0  0  0  0  0
   -9.9592    1.8811    0.0000 H   0  0  0  0  0  0  0  0  0  0  0  0
   -9.4977    2.7446    0.0000 H   0  0  0  0  0  0  0  0  0  0  0  0
   -5.8438    3.6535    0.0000 H   0  0  0  0  0  0  0  0  0  0  0  0
   -5.0332    2.2290    0.0000 H   0  0  0  0  0  0  0  0  0  0  0  0
   -6.1743    0.8832    0.0000 H   0  0  0  0  0  0  0  0  0  0  0  0
   -8.1690    5.2308    0.0000 H   0  0  0  0  0  0  0  0  0  0  0  0
   -9.3594    3.7138    0.0000 H   0  0  0  0  0  0  0  0  0  0  0  0
   -6.5842    5.8379    0.0000 H   0  0  0  0  0  0  0  0  0  0  0  0
   -5.0255    4.7324    0.0000 H   0  0  0  0  0  0  0  0  0  0  0  0
   -6.1595    2.8540    0.0000 H   0  0  0  0  0  0  0  0  0  0  0  0
   -6.7221    2.9091    0.0000 H   0  0  0  0  0  0  0  0  0  0  0  0
   -5.7094   -0.5117    0.0000 H   0  0  0  0  0  0  0  0  0  0  0  0
   -4.8579   -1.7108    0.0000 H   0  0  0  0  0  0  0  0  0  0  0  0
   -4.5413   -2.2496    0.0000 H   0  0  0  0  0  0  0  0  0  0  0  0
   -3.6358   -2.9438    0.0000 H   0  0  0  0  0  0  0  0  0  0  0  0
   -3.1220   -3.2700    0.0000 H   0  0  0  0  0  0  0  0  0  0  0  0
   -1.7429   -3.7811    0.0000 H   0  0  0  0  0  0  0  0  0  0  0  0
   -0.7059   -4.1844    0.0000 H   0  0  0  0  0  0  0  0  0  0  0  0
   -5.7644   -1.6083    0.0000 H   0  0  0  0  0  0  0  0  0  0  0  0
   -7.0424   -0.9194    0.0000 H   0  0  0  0  0  0  0  0  0  0  0  0
   -7.0643    0.7518    0.0000 H   0  0  0  0  0  0  0  0  0  0  0  0
   -5.9365    4.8162    0.0000 H   0  0  0  0  0  0  0  0  0  0  0  0
   -5.4761    5.4104    0.0000 H   0  0  0  0  0  0  0  0  0  0  0  0
   -5.4767    7.8570    0.0000 H   0  0  0  0  0  0  0  0  0  0  0  0
   -5.9422    6.2909    0.0000 H   0  0  0  0  0  0  0  0  0  0  0  0
   -1.1317    6.3933    0.0000 H   0  0  0  0  0  0  0  0  0  0  0  0
   -1.8969    8.5277    0.0000 H   0  0  0  0  0  0  0  0  0  0  0  0
   -1.1080    8.4520    0.0000 H   0  0  0  0  0  0  0  0  0  0  0  0
    1.9345    9.4140    0.0000 H   0  0  0  0  0  0  0  0  0  0  0  0
    1.9995    7.9382    0.0000 H   0  0  0  0  0  0  0  0  0  0  0  0
   -1.1974   10.9140    0.0000 H   0  0  0  0  0  0  0  0  0  0  0  0
   -1.3368    9.1350    0.0000 H   0  0  0  0  0  0  0  0  0  0  0  0
    1.8725   12.1608    0.0000 H   0  0  0  0  0  0  0  0  0  0  0  0
    1.9510   10.3781    0.0000 H   0  0  0  0  0  0  0  0  0  0  0  0
   -1.5204   12.5537    0.0000 H   0  0  0  0  0  0  0  0  0  0  0  0
    0.7959   16.4118    0.0000 H   0  0  0  0  0  0  0  0  0  0  0  0
    3.0234   15.0745    0.0000 H   0  0  0  0  0  0  0  0  0  0  0  0
    2.9790   12.4768    0.0000 H   0  0  0  0  0  0  0  0  0  0  0  0
    3.5564    7.8180    0.0000 H   0  0  0  0  0  0  0  0  0  0  0  0
    4.1374    7.0465    0.0000 H   0  0  0  0  0  0  0  0  0  0  0  0
    5.6732    4.2967    0.0000 H   0  0  0  0  0  0  0  0  0  0  0  0
    7.4011    7.5524    0.0000 H   0  0  0  0  0  0  0  0  0  0  0  0
    6.0065    8.6515    0.0000 H   0  0  0  0  0  0  0  0  0  0  0  0
    4.5288    7.6513    0.0000 H   0  0  0  0  0  0  0  0  0  0  0  0
    8.1031    4.6399    0.0000 H   0  0  0  0  0  0  0  0  0  0  0  0
    6.4382    3.9977    0.0000 H   0  0  0  0  0  0  0  0  0  0  0  0
    9.3132    6.2291    0.0000 H   0  0  0  0  0  0  0  0  0  0  0  0
    8.4201    7.9381    0.0000 H   0  0  0  0  0  0  0  0  0  0  0  0
    6.8141    7.6378    0.0000 H   0  0  0  0  0  0  0  0  0  0  0  0
    6.5499    3.0046    0.0000 H   0  0  0  0  0  0  0  0  0  0  0  0
    5.2213   -1.3804    0.0000 H   0  0  0  0  0  0  0  0  0  0  0  0
    5.9740   -0.3103    0.0000 H   0  0  0  0  0  0  0  0  0  0  0  0
    4.0826   -2.6908    0.0000 H   0  0  0  0  0  0  0  0  0  0  0  0
    4.9407   -1.9387    0.0000 H   0  0  0  0  0  0  0  0  0  0  0  0
    2.2486   -3.6503    0.0000 H   0  0  0  0  0  0  0  0  0  0  0  0
    3.5912   -3.0499    0.0000 H   0  0  0  0  0  0  0  0  0  0  0  0
    1.2402   -4.1206    0.0000 H   0  0  0  0  0  0  0  0  0  0  0  0
    7.7566    1.2908    0.0000 H   0  0  0  0  0  0  0  0  0  0  0  0
    7.3740    3.0338    0.0000 H   0  0  0  0  0  0  0  0  0  0  0  0
    5.9271    3.3314    0.0000 H   0  0  0  0  0  0  0  0  0  0  0  0
    8.0518    2.1254    0.0000 H   0  0  0  0  0  0  0  0  0  0  0  0
    7.2903   -1.0463    0.0000 H   0  0  0  0  0  0  0  0  0  0  0  0
   10.2089   -2.8248    0.0000 H   0  0  0  0  0  0  0  0  0  0  0  0
   10.6508   -1.0959    0.0000 H   0  0  0  0  0  0  0  0  0  0  0  0
    7.2154   -3.7928    0.0000 H   0  0  0  0  0  0  0  0  0  0  0  0
    7.2258   -2.0084    0.0000 H   0  0  0  0  0  0  0  0  0  0  0  0
   11.2458   -5.7006    0.0000 H   0  0  0  0  0  0  0  0  0  0  0  0
   10.9444   -2.4261    0.0000 H   0  0  0  0  0  0  0  0  0  0  0  0
   11.9022    0.8271    0.0000 H   0  0  0  0  0  0  0  0  0  0  0  0
   14.4517    1.7044    0.0000 H   0  0  0  0  0  0  0  0  0  0  0  0
   12.6926    1.4049    0.0000 H   0  0  0  0  0  0  0  0  0  0  0  0
   14.9943   -1.7324    0.0000 H   0  0  0  0  0  0  0  0  0  0  0  0
   17.8356    0.3888    0.0000 H   0  0  0  0  0  0  0  0  0  0  0  0
   17.1929    1.8909    0.0000 H   0  0  0  0  0  0  0  0  0  0  0  0
   15.4104    1.8080    0.0000 H   0  0  0  0  0  0  0  0  0  0  0  0
   16.2330   -2.7791    0.0000 H   0  0  0  0  0  0  0  0  0  0  0  0
   17.7066   -1.5353    0.0000 H   0  0  0  0  0  0  0  0  0  0  0  0
   17.2095   -0.1443    0.0000 H   0  0  0  0  0  0  0  0  0  0  0  0
   15.7868    0.1859    0.0000 H   0  0  0  0  0  0  0  0  0  0  0  0
   16.8297   -3.5257    0.0000 H   0  0  0  0  0  0  0  0  0  0  0  0
   14.9573   -3.0645    0.0000 H   0  0  0  0  0  0  0  0  0  0  0  0
   18.3322   -4.2572    0.0000 H   0  0  0  0  0  0  0  0  0  0  0  0
   19.4703   -1.0368    0.0000 H   0  0  0  0  0  0  0  0  0  0  0  0
   20.2607   -0.4591    0.0000 H   0  0  0  0  0  0  0  0  0  0  0  0
   21.5165    1.0942    0.0000 H   0  0  0  0  0  0  0  0  0  0  0  0
   23.9257   -1.2191    0.0000 H   0  0  0  0  0  0  0  0  0  0  0  0
   23.7967   -3.1431    0.0000 H   0  0  0  0  0  0  0  0  0  0  0  0
   22.5623   -3.5964    0.0000 H   0  0  0  0  0  0  0  0  0  0  0  0
   23.1879   -1.6026    0.0000 H   0  0  0  0  0  0  0  0  0  0  0  0
   22.4265   -4.7743    0.0000 H   0  0  0  0  0  0  0  0  0  0  0  0
   25.4797   -6.4286    0.0000 H   0  0  0  0  0  0  0  0  0  0  0  0
   25.7869   -4.8239    0.0000 H   0  0  0  0  0  0  0  0  0  0  0  0
   22.3619   -5.7364    0.0000 H   0  0  0  0  0  0  0  0  0  0  0  0
   23.5468   -9.3204    0.0000 H   0  0  0  0  0  0  0  0  0  0  0  0
   25.3059   -9.0208    0.0000 H   0  0  0  0  0  0  0  0  0  0  0  0
   25.5338   -7.2510    0.0000 H   0  0  0  0  0  0  0  0  0  0  0  0
   22.3296   -9.0206    0.0000 H   0  0  0  0  0  0  0  0  0  0  0  0
   20.9108   -7.9383    0.0000 H   0  0  0  0  0  0  0  0  0  0  0  0
   21.6901   -6.1745    0.0000 H   0  0  0  0  0  0  0  0  0  0  0  0
   26.0805   -6.1540    0.0000 H   0  0  0  0  0  0  0  0  0  0  0  0
   27.0383   -2.9008    0.0000 H   0  0  0  0  0  0  0  0  0  0  0  0
   27.7102   -2.4627    0.0000 H   0  0  0  0  0  0  0  0  0  0  0  0
   31.5926   -3.2373    0.0000 H   0  0  0  0  0  0  0  0  0  0  0  0
   31.3648   -5.0071    0.0000 H   0  0  0  0  0  0  0  0  0  0  0  0
   29.9496   -5.4307    0.0000 H   0  0  0  0  0  0  0  0  0  0  0  0
   30.9570   -1.2309    0.0000 H   0  0  0  0  0  0  0  0  0  0  0  0
   30.9465   -3.0153    0.0000 H   0  0  0  0  0  0  0  0  0  0  0  0
   29.9198    0.4762    0.0000 H   0  0  0  0  0  0  0  0  0  0  0  0
   28.0026    0.2692    0.0000 H   0  0  0  0  0  0  0  0  0  0  0  0
   27.7747   -1.5007    0.0000 H   0  0  0  0  0  0  0  0  0  0  0  0
   29.5050   -7.7814    0.0000 H   0  0  0  0  0  0  0  0  0  0  0  0
  1  2  1  0
  2  3  1  0
  3  4  2  0
  4  5  1  0
  5  6  2  0
  6  7  1  0
  7  8  2  0
  7  9  1  0
  9 10  1  0
 10 11  1  0
 11 12  2  0
  9 13  1  0
 13 14  1  0
 14 15  2  0
 15 16  1  0
 16 17  2  0
 17 18  1  0
 16 19  1  0
 14 20  1  0
 20 21  1  0
 21 22  2  0
 22 23  1  0
 23 24  2  0
 24 25  1  0
 25 26  2  0
 25 27  1  0
  1 28  2  0
  1 29  1  0
 29 30  1  0
 30 31  1  0
 31 32  1  0
 32 33  2  0
 32 34  1  0
 34 35  1  0
 35 36  1  0
 36 37  1  0
 37 38  2  0
 38 39  1  0
 39 40  2  0
 40 41  1  0
 41 42  2  0
 35 43  1  0
 43 44  2  0
 43 45  1  0
 45 46  1  0
 46 47  1  0
 47 48  1  0
 48 49  1  0
 48 50  2  0
 46 51  1  0
 51 52  2  0
 51 53  1  0
 53 54  1  0
 54 55  1  0
 55 56  1  0
 55 57  1  0
 57 58  1  0
 54 59  1  0
 59 60  2  0
 59 61  1  0
 62 61  1  6
 62 63  1  0
 63 64  1  0
 64 65  1  0
 65 66  1  0
 62 67  1  0
 62 68  1  0
 68 69  2  0
 68 70  1  0
 70 71  1  0
 71 72  1  0
 72 73  1  0
 73 74  2  0
 73 75  1  0
 71 76  1  0
 76 77  2  0
 76 78  1  0
 78 79  1  0
 79 80  1  0
 80 81  1  0
 81 82  1  0
 82 83  1  0
 83 84  1  0
 84 85  2  3
 84 86  1  0
 79 87  1  0
 87 88  2  0
 87 89  1  0
 89 90  1  0
 90 91  1  0
 91 92  1  0
 91 93  1  0
 93 94  1  0
 90 95  1  0
 95 96  2  0
 95 97  1  0
 97 98  1  0
 98 99  1  0
 99100  1  0
100101  1  0
101102  1  0
 98103  1  0
 98104  1  6
104105  2  0
104106  1  0
106107  1  0
107108  1  0
108109  1  0
109110  1  0
110111  2  0
110112  1  0
107113  1  0
113114  2  0
113115  1  0
115116  1  0
116117  1  0
117118  1  0
118119  1  0
118120  1  0
116121  1  0
121122  2  0
121123  1  0
123124  1  0
124125  1  0
125126  2  0
125127  1  0
127128  1  0
128129  1  0
129130  1  0
129131  1  0
128132  1  0
132133  2  0
132134  1  0
134135  1  0
135136  1  0
136137  1  0
137138  1  0
137139  1  0
135140  1  0
140141  2  0
140142  1  0
142143  1  0
143144  1  0
144145  1  0
144146  1  0
146147  1  0
143148  1  0
148149  2  0
148150  1  0
  8  3  1  0
 42 37  1  0
 11  6  1  0
 66102  2  0
 18 13  2  0
 22  9  1  0
 26 21  1  0
  2151  1  0
  4152  1  0
  5153  1  0
  8154  1  0
 15155  1  0
 17156  1  0
 18157  1  0
 19158  1  0
 23159  1  0
 24160  1  0
 26161  1  0
 27162  1  0
 29163  1  0
 30164  1  0
 30165  1  0
 31166  1  0
 31167  1  0
 34168  1  0
 35169  1  1
 36170  1  0
 36171  1  0
 38172  1  0
 39173  1  0
 40174  1  0
 41175  1  0
 42176  1  0
 45177  1  0
 46178  1  6
 47179  1  0
 47180  1  0
 49181  1  0
 49182  1  0
 53183  1  0
 54184  1  1
 55185  1  1
 56186  1  0
 56187  1  0
 56188  1  0
 57189  1  0
 57190  1  0
 58191  1  0
 58192  1  0
 58193  1  0
 61194  1  0
 63195  1  0
 63196  1  0
 64197  1  0
 64198  1  0
 65199  1  0
 65200  1  0
 66201  1  0
 67202  1  0
 67203  1  0
 67204  1  0
 70205  1  0
 71206  1  1
 72207  1  0
 72208  1  0
 75209  1  0
 78210  1  0
 79211  1  1
 80212  1  0
 80213  1  0
 81214  1  0
 81215  1  0
 82216  1  0
 82217  1  0
 83218  1  0
 85219  1  0
 86220  1  0
 86221  1  0
 89222  1  0
 90223  1  1
 91224  1  6
 92225  1  0
 92226  1  0
 92227  1  0
 93228  1  0
 93229  1  0
 94230  1  0
 94231  1  0
 94232  1  0
 97233  1  0
 99234  1  0
 99235  1  0
100236  1  0
100237  1  0
101238  1  0
101239  1  0
102240  1  0
103241  1  0
103242  1  0
103243  1  0
106244  1  0
107245  1  6
108246  1  0
108247  1  0
109248  1  0
109249  1  0
112250  1  0
115251  1  0
116252  1  1
117253  1  0
117254  1  0
118255  1  0
119256  1  0
119257  1  0
119258  1  0
120259  1  0
120260  1  0
120261  1  0
123262  1  0
124263  1  0
124264  1  0
127265  1  0
128266  1  1
129267  1  1
130268  1  0
131269  1  0
131270  1  0
131271  1  0
134272  1  0
135273  1  6
136274  1  0
136275  1  0
137276  1  0
138277  1  0
138278  1  0
138279  1  0
139280  1  0
139281  1  0
139282  1  0
142283  1  0
143284  1  1
144285  1  1
145286  1  0
145287  1  0
145288  1  0
146289  1  0
146290  1  0
147291  1  0
147292  1  0
147293  1  0
150294  1  0
M  END
