
     RDKit          2D

323331  0  0  0  0  0  0  0  0999 V2000
   15.3645   -3.8353    0.0000 C   0  0  0  0  0  0  0  0  0  0  0  0
   16.6355   -4.6319    0.0000 N   0  0  0  0  0  0  0  0  0  0  0  0
   16.5811   -6.1310    0.0000 C   0  0  0  0  0  0  0  0  0  0  0  0
   15.2557   -6.8333    0.0000 C   0  0  0  0  0  0  0  0  0  0  0  0
   15.2013   -8.3324    0.0000 C   0  0  0  0  0  0  0  0  0  0  0  0
   16.4722   -9.1290    0.0000 C   0  0  0  0  0  0  0  0  0  0  0  0
   17.7976   -8.4266    0.0000 C   0  0  0  0  0  0  0  0  0  0  0  0
   17.8520   -6.9276    0.0000 C   0  0  0  0  0  0  0  0  0  0  0  0
   18.8752   -9.4701    0.0000 C   0  0  0  0  0  0  0  0  0  0  0  0
   18.2158  -10.8173    0.0000 O   0  0  0  0  0  0  0  0  0  0  0  0
   16.7307  -10.6065    0.0000 C   0  0  0  0  0  0  0  0  0  0  0  0
   15.6872  -11.6841    0.0000 O   0  0  0  0  0  0  0  0  0  0  0  0
   19.8378  -10.6204    0.0000 C   0  0  0  0  0  0  0  0  0  0  0  0
   21.3154  -10.3620    0.0000 C   0  0  0  0  0  0  0  0  0  0  0  0
   22.2780  -11.5124    0.0000 C   0  0  0  0  0  0  0  0  0  0  0  0
   21.7630  -12.9212    0.0000 C   0  0  0  0  0  0  0  0  0  0  0  0
   20.2855  -13.1797    0.0000 C   0  0  0  0  0  0  0  0  0  0  0  0
   19.3229  -12.0293    0.0000 C   0  0  0  0  0  0  0  0  0  0  0  0
   22.7256  -14.0716    0.0000 O   0  0  0  0  0  0  0  0  0  0  0  0
   21.8303   -8.9532    0.0000 O   0  0  0  0  0  0  0  0  0  0  0  0
   20.8677   -7.8028    0.0000 C   0  0  0  0  0  0  0  0  0  0  0  0
   19.3902   -8.0612    0.0000 C   0  0  0  0  0  0  0  0  0  0  0  0
   19.1171   -6.7902    0.0000 C   0  0  0  0  0  0  0  0  0  0  0  0
   19.3918   -6.0389    0.0000 C   0  0  0  0  0  0  0  0  0  0  0  0
   20.1798   -5.9010    0.0000 C   0  0  0  0  0  0  0  0  0  0  0  0
   20.6932   -6.5146    0.0000 C   0  0  0  0  0  0  0  0  0  0  0  0
   20.9351   -3.8347    0.0000 O   0  0  0  0  0  0  0  0  0  0  0  0
   14.0391   -4.5377    0.0000 S   0  0  0  0  0  0  0  0  0  0  0  0
   15.4189   -2.3363    0.0000 N   0  0  0  0  0  0  0  0  0  0  0  0
   14.1479   -1.5397    0.0000 C   0  0  0  0  0  0  0  0  0  0  0  0
   14.2023   -0.0407    0.0000 C   0  0  0  0  0  0  0  0  0  0  0  0
   12.9313    0.7560    0.0000 C   0  0  0  0  0  0  0  0  0  0  0  0
   11.9458   -0.3748    0.0000 O   0  0  0  0  0  0  0  0  0  0  0  0
   12.9857    2.2550    0.0000 N   0  0  0  0  0  0  0  0  0  0  0  0
   11.7148    3.0516    0.0000 C   0  0  0  0  0  0  0  0  0  0  0  0
   11.5114    1.5654    0.0000 C   0  0  0  0  0  0  0  0  0  0  0  0
   10.8790    0.2053    0.0000 C   0  0  0  0  0  0  0  0  0  0  0  0
    9.8737   -0.9081    0.0000 C   0  0  0  0  0  0  0  0  0  0  0  0
    8.5850   -1.6756    0.0000 C   0  0  0  0  0  0  0  0  0  0  0  0
   12.9636    3.8825    0.0000 C   0  0  0  0  0  0  0  0  0  0  0  0
   11.4711    4.5317    0.0000 C   0  0  0  0  0  0  0  0  0  0  0  0
   12.8983    4.9932    0.0000 O   0  0  0  0  0  0  0  0  0  0  0  0
   10.8019    5.8741    0.0000 N   0  0  0  0  0  0  0  0  0  0  0  0
    9.7668    6.9598    0.0000 C   0  0  0  0  0  0  0  0  0  0  0  0
    9.8959    8.4542    0.0000 C   0  0  0  0  0  0  0  0  0  0  0  0
   11.2546    9.0897    0.0000 C   0  0  0  0  0  0  0  0  0  0  0  0
   11.3837   10.5841    0.0000 C   0  0  0  0  0  0  0  0  0  0  0  0
   12.7424   11.2195    0.0000 N   0  0  0  0  0  0  0  0  0  0  0  0
   12.8715   12.7140    0.0000 C   0  0  0  0  0  0  0  0  0  0  0  0
   14.2303   13.3494    0.0000 N   0  0  0  0  0  0  0  0  0  0  0  0
   11.6418   13.5730    0.0000 N   0  0  0  0  0  0  0  0  0  0  0  0
    8.4577    7.6920    0.0000 C   0  0  0  0  0  0  0  0  0  0  0  0
    8.9867    9.0957    0.0000 O   0  0  0  0  0  0  0  0  0  0  0  0
    6.9909    8.0059    0.0000 N   0  0  0  0  0  0  0  0  0  0  0  0
    5.4968    7.8735    0.0000 C   0  0  0  0  0  0  0  0  0  0  0  0
    4.4089    8.9062    0.0000 C   0  0  0  0  0  0  0  0  0  0  0  0
    4.7592   10.3647    0.0000 C   0  0  0  0  0  0  0  0  0  0  0  0
    3.6713   11.3974    0.0000 C   0  0  0  0  0  0  0  0  0  0  0  0
    4.0216   12.8559    0.0000 N   0  0  0  0  0  0  0  0  0  0  0  0
    2.9337   13.8885    0.0000 C   0  0  0  0  0  0  0  0  0  0  0  0
    3.2840   15.3470    0.0000 N   0  0  0  0  0  0  0  0  0  0  0  0
    1.4954   13.4627    0.0000 N   0  0  0  0  0  0  0  0  0  0  0  0
    4.1081    7.3066    0.0000 C   0  0  0  0  0  0  0  0  0  0  0  0
    3.3405    8.5953    0.0000 O   0  0  0  0  0  0  0  0  0  0  0  0
    2.9481    6.3555    0.0000 N   0  0  0  0  0  0  0  0  0  0  0  0
    2.1201    5.1048    0.0000 C   0  0  0  0  0  0  0  0  0  0  0  0
    0.6344    4.8980    0.0000 C   0  0  0  0  0  0  0  0  0  0  0  0
    1.6974    3.6655    0.0000 C   0  0  0  0  0  0  0  0  0  0  0  0
    0.9212    4.0922    0.0000 O   0  0  0  0  0  0  0  0  0  0  0  0
    1.7178    2.1657    0.0000 N   0  0  0  0  0  0  0  0  0  0  0  0
    2.1794    0.7385    0.0000 C   0  0  0  0  0  0  0  0  0  0  0  0
    3.0411   -0.4893    0.0000 C   0  0  0  0  0  0  0  0  0  0  0  0
    4.2265   -1.4085    0.0000 C   0  0  0  0  0  0  0  0  0  0  0  0
    5.6301   -1.9375    0.0000 C   0  0  0  0  0  0  0  0  0  0  0  0
    7.1273   -2.0293    0.0000 C   0  0  0  0  0  0  0  0  0  0  0  0
    2.0436   -0.8496    0.0000 C   0  0  0  0  0  0  0  0  0  0  0  0
    2.2840   -2.1952    0.0000 C   0  0  0  0  0  0  0  0  0  0  0  0
    2.2654   -3.5620    0.0000 C   0  0  0  0  0  0  0  0  0  0  0  0
    1.9885   -4.9006    0.0000 C   0  0  0  0  0  0  0  0  0  0  0  0
    0.8296    1.5861    0.0000 C   0  0  0  0  0  0  0  0  0  0  0  0
    2.5773    2.9224    0.0000 O   0  0  0  0  0  0  0  0  0  0  0  0
   -0.1001    2.5881    0.0000 N   0  0  0  0  0  0  0  0  0  0  0  0
   -1.2027    3.3961    0.0000 C   0  0  0  0  0  0  0  0  0  0  0  0
   -0.8717    5.4972    0.0000 C   0  0  0  0  0  0  0  0  0  0  0  0
   -2.1841    6.2236    0.0000 C   0  0  0  0  0  0  0  0  0  0  0  0
   -2.2112    7.7233    0.0000 C   0  0  0  0  0  0  0  0  0  0  0  0
   -3.5237    8.4497    0.0000 N   0  0  0  0  0  0  0  0  0  0  0  0
   -3.5508    9.9494    0.0000 C   0  0  0  0  0  0  0  0  0  0  0  0
   -4.6485   10.9717    0.0000 N   0  0  0  0  0  0  0  0  0  0  0  0
   -2.2656   10.7228    0.0000 N   0  0  0  0  0  0  0  0  0  0  0  0
   -2.4382    3.9808    0.0000 C   0  0  0  0  0  0  0  0  0  0  0  0
   -2.1815    5.3917    0.0000 O   0  0  0  0  0  0  0  0  0  0  0  0
   -3.7621    4.3211    0.0000 N   0  0  0  0  0  0  0  0  0  0  0  0
   -5.1265    4.4047    0.0000 C   0  0  0  0  0  0  0  0  0  0  0  0
   -5.9840    6.3513    0.0000 C   0  0  0  0  0  0  0  0  0  0  0  0
   -5.3209    7.6968    0.0000 C   0  0  0  0  0  0  0  0  0  0  0  0
   -6.1546    8.9438    0.0000 C   0  0  0  0  0  0  0  0  0  0  0  0
   -5.4915   10.2893    0.0000 N   0  0  0  0  0  0  0  0  0  0  0  0
   -6.3252   11.5362    0.0000 C   0  0  0  0  0  0  0  0  0  0  0  0
   -5.6622   12.8817    0.0000 N   0  0  0  0  0  0  0  0  0  0  0  0
   -7.8220   11.4377    0.0000 N   0  0  0  0  0  0  0  0  0  0  0  0
   -6.4820    4.2286    0.0000 C   0  0  0  0  0  0  0  0  0  0  0  0
   -7.1473    6.3219    0.0000 O   0  0  0  0  0  0  0  0  0  0  0  0
   -7.7797    3.7992    0.0000 N   0  0  0  0  0  0  0  0  0  0  0  0
   -8.9727    3.1319    0.0000 C   0  0  0  0  0  0  0  0  0  0  0  0
  -10.7465    4.3059    0.0000 C   0  0  0  0  0  0  0  0  0  0  0  0
  -10.9161    5.7962    0.0000 C   0  0  0  0  0  0  0  0  0  0  0  0
  -12.2916    6.3945    0.0000 C   0  0  0  0  0  0  0  0  0  0  0  0
  -12.4612    7.8849    0.0000 N   0  0  0  0  0  0  0  0  0  0  0  0
  -13.8367    8.4832    0.0000 C   0  0  0  0  0  0  0  0  0  0  0  0
  -14.0063    9.9736    0.0000 N   0  0  0  0  0  0  0  0  0  0  0  0
  -15.0426    7.5911    0.0000 N   0  0  0  0  0  0  0  0  0  0  0  0
  -10.0178    2.2509    0.0000 C   0  0  0  0  0  0  0  0  0  0  0  0
  -11.7092    3.6522    0.0000 O   0  0  0  0  0  0  0  0  0  0  0  0
  -10.8774    1.1880    0.0000 N   0  0  0  0  0  0  0  0  0  0  0  0
  -11.5202   -0.0183    0.0000 C   0  0  0  0  0  0  0  0  0  0  0  0
  -13.6471    0.0103    0.0000 C   0  0  0  0  0  0  0  0  0  0  0  0
  -14.5955    1.1724    0.0000 C   0  0  0  0  0  0  0  0  0  0  0  0
  -14.2129    2.6228    0.0000 C   0  0  0  0  0  0  0  0  0  0  0  0
  -15.4740    3.4349    0.0000 N   0  0  0  0  0  0  0  0  0  0  0  0
  -16.6361    2.4865    0.0000 C   0  0  0  0  0  0  0  0  0  0  0  0
  -18.1185    2.7154    0.0000 C   0  0  0  0  0  0  0  0  0  0  0  0
  -19.0580    1.5461    0.0000 C   0  0  0  0  0  0  0  0  0  0  0  0
  -18.5151    0.1478    0.0000 C   0  0  0  0  0  0  0  0  0  0  0  0
  -17.0327   -0.0812    0.0000 C   0  0  0  0  0  0  0  0  0  0  0  0
  -16.0932    1.0882    0.0000 C   0  0  0  0  0  0  0  0  0  0  0  0
  -11.9231   -1.3245    0.0000 C   0  0  0  0  0  0  0  0  0  0  0  0
  -14.1036   -1.0601    0.0000 O   0  0  0  0  0  0  0  0  0  0  0  0
  -12.0716   -2.6833    0.0000 N   0  0  0  0  0  0  0  0  0  0  0  0
  -11.9602   -4.0457    0.0000 C   0  0  0  0  0  0  0  0  0  0  0  0
  -13.7649   -5.1715    0.0000 C   0  0  0  0  0  0  0  0  0  0  0  0
  -15.1911   -4.7066    0.0000 C   0  0  0  0  0  0  0  0  0  0  0  0
  -16.3067   -5.7093    0.0000 C   0  0  0  0  0  0  0  0  0  0  0  0
  -17.7329   -5.2445    0.0000 N   0  0  0  0  0  0  0  0  0  0  0  0
  -18.8485   -6.2472    0.0000 C   0  0  0  0  0  0  0  0  0  0  0  0
  -20.2747   -5.7823    0.0000 N   0  0  0  0  0  0  0  0  0  0  0  0
  -18.5380   -7.7147    0.0000 N   0  0  0  0  0  0  0  0  0  0  0  0
  -11.5930   -5.3624    0.0000 C   0  0  0  0  0  0  0  0  0  0  0  0
  -13.5702   -6.3188    0.0000 O   0  0  0  0  0  0  0  0  0  0  0  0
  -10.9832   -6.5858    0.0000 N   0  0  0  0  0  0  0  0  0  0  0  0
  -10.1529   -7.6716    0.0000 C   0  0  0  0  0  0  0  0  0  0  0  0
  -11.0625   -9.5944    0.0000 C   0  0  0  0  0  0  0  0  0  0  0  0
  -12.5136   -9.9744    0.0000 C   0  0  0  0  0  0  0  0  0  0  0  0
  -12.9100  -11.4211    0.0000 C   0  0  0  0  0  0  0  0  0  0  0  0
  -14.3611  -11.8011    0.0000 N   0  0  0  0  0  0  0  0  0  0  0  0
  -14.7576  -13.2477    0.0000 C   0  0  0  0  0  0  0  0  0  0  0  0
  -16.2086  -13.6277    0.0000 N   0  0  0  0  0  0  0  0  0  0  0  0
  -13.7029  -14.3144    0.0000 N   0  0  0  0  0  0  0  0  0  0  0  0
   -9.1321   -8.5808    0.0000 C   0  0  0  0  0  0  0  0  0  0  0  0
  -10.2785  -10.4543    0.0000 O   0  0  0  0  0  0  0  0  0  0  0  0
   -7.9578   -9.2803    0.0000 N   0  0  0  0  0  0  0  0  0  0  0  0
   -6.6722   -9.7449    0.0000 C   0  0  0  0  0  0  0  0  0  0  0  0
   -5.3220   -9.9578    0.0000 C   0  0  0  0  0  0  0  0  0  0  0  0
   -3.9559   -9.9114    0.0000 C   0  0  0  0  0  0  0  0  0  0  0  0
   -2.6232   -9.6072    0.0000 C   0  0  0  0  0  0  0  0  0  0  0  0
   -1.3722   -9.0563    0.0000 C   0  0  0  0  0  0  0  0  0  0  0  0
   -0.2481   -8.2787    0.0000 C   0  0  0  0  0  0  0  0  0  0  0  0
    0.7086   -7.3023    0.0000 C   0  0  0  0  0  0  0  0  0  0  0  0
    1.4632   -6.1626    0.0000 C   0  0  0  0  0  0  0  0  0  0  0  0
   -7.9298  -11.4604    0.0000 C   0  0  0  0  0  0  0  0  0  0  0  0
   -6.3979  -11.8542    0.0000 C   0  0  0  0  0  0  0  0  0  0  0  0
   -7.2710  -13.0739    0.0000 O   0  0  0  0  0  0  0  0  0  0  0  0
   -5.0567  -12.5259    0.0000 O   0  0  0  0  0  0  0  0  0  0  0  0
   17.8653   -3.7732    0.0000 H   0  0  0  0  0  0  0  0  0  0  0  0
   13.9847   -6.0367    0.0000 H   0  0  0  0  0  0  0  0  0  0  0  0
   13.8759   -9.0347    0.0000 H   0  0  0  0  0  0  0  0  0  0  0  0
   18.5843   -6.2700    0.0000 H   0  0  0  0  0  0  0  0  0  0  0  0
   23.7556  -11.2539    0.0000 H   0  0  0  0  0  0  0  0  0  0  0  0
   19.7705  -14.5885    0.0000 H   0  0  0  0  0  0  0  0  0  0  0  0
   17.8453  -12.2877    0.0000 H   0  0  0  0  0  0  0  0  0  0  0  0
   22.2107  -15.4804    0.0000 H   0  0  0  0  0  0  0  0  0  0  0  0
   16.9500   -7.1693    0.0000 H   0  0  0  0  0  0  0  0  0  0  0  0
   18.1273   -4.2429    0.0000 H   0  0  0  0  0  0  0  0  0  0  0  0
   22.8603   -6.1355    0.0000 H   0  0  0  0  0  0  0  0  0  0  0  0
   22.4126   -3.5763    0.0000 H   0  0  0  0  0  0  0  0  0  0  0  0
   16.7443   -1.6339    0.0000 H   0  0  0  0  0  0  0  0  0  0  0  0
   13.5841   -2.9297    0.0000 H   0  0  0  0  0  0  0  0  0  0  0  0
   12.6811   -1.2258    0.0000 H   0  0  0  0  0  0  0  0  0  0  0  0
   15.6691   -0.3545    0.0000 H   0  0  0  0  0  0  0  0  0  0  0  0
   14.7661    1.3493    0.0000 H   0  0  0  0  0  0  0  0  0  0  0  0
   14.3869    2.7906    0.0000 H   0  0  0  0  0  0  0  0  0  0  0  0
   13.0100    1.6306    0.0000 H   0  0  0  0  0  0  0  0  0  0  0  0
   12.3453    0.3186    0.0000 H   0  0  0  0  0  0  0  0  0  0  0  0
   12.1952   -0.5141    0.0000 H   0  0  0  0  0  0  0  0  0  0  0  0
   11.6434   -1.0853    0.0000 H   0  0  0  0  0  0  0  0  0  0  0  0
   11.2355   -1.5371    0.0000 H   0  0  0  0  0  0  0  0  0  0  0  0
   10.0434   -2.3984    0.0000 H   0  0  0  0  0  0  0  0  0  0  0  0
    9.1520   -3.0644    0.0000 H   0  0  0  0  0  0  0  0  0  0  0  0
   14.3788    3.3851    0.0000 H   0  0  0  0  0  0  0  0  0  0  0  0
   13.8530    5.0904    0.0000 H   0  0  0  0  0  0  0  0  0  0  0  0
   12.2220    5.1863    0.0000 H   0  0  0  0  0  0  0  0  0  0  0  0
   12.0297    6.7359    0.0000 H   0  0  0  0  0  0  0  0  0  0  0  0
   11.2321    7.2805    0.0000 H   0  0  0  0  0  0  0  0  0  0  0  0
    9.3324    9.8443    0.0000 H   0  0  0  0  0  0  0  0  0  0  0  0
    8.4141    8.6873    0.0000 H   0  0  0  0  0  0  0  0  0  0  0  0
   12.7488    9.2221    0.0000 H   0  0  0  0  0  0  0  0  0  0  0  0
   11.8181    7.6995    0.0000 H   0  0  0  0  0  0  0  0  0  0  0  0
   10.9938   12.0325    0.0000 H   0  0  0  0  0  0  0  0  0  0  0  0
    9.8846   10.6348    0.0000 H   0  0  0  0  0  0  0  0  0  0  0  0
   13.9721   10.3606    0.0000 H   0  0  0  0  0  0  0  0  0  0  0  0
   14.3593   14.8439    0.0000 H   0  0  0  0  0  0  0  0  0  0  0  0
   11.7709   15.0674    0.0000 H   0  0  0  0  0  0  0  0  0  0  0  0
   10.2831   12.9375    0.0000 H   0  0  0  0  0  0  0  0  0  0  0  0
    7.0827    9.5031    0.0000 H   0  0  0  0  0  0  0  0  0  0  0  0
    6.1596    9.2191    0.0000 H   0  0  0  0  0  0  0  0  0  0  0  0
    2.9707    9.3323    0.0000 H   0  0  0  0  0  0  0  0  0  0  0  0
    3.3028    7.8930    0.0000 H   0  0  0  0  0  0  0  0  0  0  0  0
    5.5873   11.6154    0.0000 H   0  0  0  0  0  0  0  0  0  0  0  0
    6.1974    9.9385    0.0000 H   0  0  0  0  0  0  0  0  0  0  0  0
    2.2958   11.9957    0.0000 H   0  0  0  0  0  0  0  0  0  0  0  0
    2.6969   10.2569    0.0000 H   0  0  0  0  0  0  0  0  0  0  0  0
    5.4599   13.2817    0.0000 H   0  0  0  0  0  0  0  0  0  0  0  0
    2.1961   16.3797    0.0000 H   0  0  0  0  0  0  0  0  0  0  0  0
    0.4075   14.4954    0.0000 H   0  0  0  0  0  0  0  0  0  0  0  0
    1.1451   12.0042    0.0000 H   0  0  0  0  0  0  0  0  0  0  0  0
    1.8348    7.3607    0.0000 H   0  0  0  0  0  0  0  0  0  0  0  0
    1.3206    6.3740    0.0000 H   0  0  0  0  0  0  0  0  0  0  0  0
   -0.1588    6.1845    0.0000 H   0  0  0  0  0  0  0  0  0  0  0  0
   -0.8216    4.5372    0.0000 H   0  0  0  0  0  0  0  0  0  0  0  0
    0.5537    3.4002    0.0000 H   0  0  0  0  0  0  0  0  0  0  0  0
    0.2378    1.9220    0.0000 H   0  0  0  0  0  0  0  0  0  0  0  0
    2.8712   -1.9796    0.0000 H   0  0  0  0  0  0  0  0  0  0  0  0
    1.5676   -0.7698    0.0000 H   0  0  0  0  0  0  0  0  0  0  0  0
    4.5034   -2.8827    0.0000 H   0  0  0  0  0  0  0  0  0  0  0  0
    3.2409   -2.5393    0.0000 H   0  0  0  0  0  0  0  0  0  0  0  0
    6.1622   -3.3399    0.0000 H   0  0  0  0  0  0  0  0  0  0  0  0
    5.0216   -3.3086    0.0000 H   0  0  0  0  0  0  0  0  0  0  0  0
    7.2597   -3.5234    0.0000 H   0  0  0  0  0  0  0  0  0  0  0  0
    3.7332    0.4426    0.0000 H   0  0  0  0  0  0  0  0  0  0  0  0
    4.0962   -1.2533    0.0000 H   0  0  0  0  0  0  0  0  0  0  0  0
    4.4272   -1.7376    0.0000 H   0  0  0  0  0  0  0  0  0  0  0  0
    4.2231   -2.9801    0.0000 H   0  0  0  0  0  0  0  0  0  0  0  0
    4.4565   -3.5183    0.0000 H   0  0  0  0  0  0  0  0  0  0  0  0
    4.1424   -4.5626    0.0000 H   0  0  0  0  0  0  0  0  0  0  0  0
    4.0907   -5.5491    0.0000 H   0  0  0  0  0  0  0  0  0  0  0  0
    1.2191    4.3443    0.0000 H   0  0  0  0  0  0  0  0  0  0  0  0
    0.3931    4.8450    0.0000 H   0  0  0  0  0  0  0  0  0  0  0  0
   -0.3842    6.9158    0.0000 H   0  0  0  0  0  0  0  0  0  0  0  0
    0.6100    5.2636    0.0000 H   0  0  0  0  0  0  0  0  0  0  0  0
   -3.6262    6.6361    0.0000 H   0  0  0  0  0  0  0  0  0  0  0  0
   -3.0003    4.9651    0.0000 H   0  0  0  0  0  0  0  0  0  0  0  0
   -1.7238    9.1419    0.0000 H   0  0  0  0  0  0  0  0  0  0  0  0
   -0.7121    7.6720    0.0000 H   0  0  0  0  0  0  0  0  0  0  0  0
   -4.9579    8.0102    0.0000 H   0  0  0  0  0  0  0  0  0  0  0  0
   -4.8904   12.1755    0.0000 H   0  0  0  0  0  0  0  0  0  0  0  0
   -2.2928   12.2226    0.0000 H   0  0  0  0  0  0  0  0  0  0  0  0
   -0.9532    9.9965    0.0000 H   0  0  0  0  0  0  0  0  0  0  0  0
   -3.4194    6.4943    0.0000 H   0  0  0  0  0  0  0  0  0  0  0  0
   -4.4032    6.4051    0.0000 H   0  0  0  0  0  0  0  0  0  0  0  0
   -7.1939    7.2379    0.0000 H   0  0  0  0  0  0  0  0  0  0  0  0
   -7.2861    5.6067    0.0000 H   0  0  0  0  0  0  0  0  0  0  0  0
   -4.5209    8.9656    0.0000 H   0  0  0  0  0  0  0  0  0  0  0  0
   -4.0119    6.9643    0.0000 H   0  0  0  0  0  0  0  0  0  0  0  0
   -7.3645    9.8304    0.0000 H   0  0  0  0  0  0  0  0  0  0  0  0
   -7.3563    8.0460    0.0000 H   0  0  0  0  0  0  0  0  0  0  0  0
   -4.0631   10.7470    0.0000 H   0  0  0  0  0  0  0  0  0  0  0  0
   -6.4958   14.1287    0.0000 H   0  0  0  0  0  0  0  0  0  0  0  0
   -8.6557   12.6847    0.0000 H   0  0  0  0  0  0  0  0  0  0  0  0
   -8.4850   10.0922    0.0000 H   0  0  0  0  0  0  0  0  0  0  0  0
   -8.4945    5.8761    0.0000 H   0  0  0  0  0  0  0  0  0  0  0  0
   -9.2625    5.2037    0.0000 H   0  0  0  0  0  0  0  0  0  0  0  0
  -12.2437    4.3976    0.0000 H   0  0  0  0  0  0  0  0  0  0  0  0
  -11.4393    2.9755    0.0000 H   0  0  0  0  0  0  0  0  0  0  0  0
  -10.5657    7.2548    0.0000 H   0  0  0  0  0  0  0  0  0  0  0  0
   -9.4412    6.0695    0.0000 H   0  0  0  0  0  0  0  0  0  0  0  0
  -13.7888    6.4863    0.0000 H   0  0  0  0  0  0  0  0  0  0  0  0
  -12.8171    4.9896    0.0000 H   0  0  0  0  0  0  0  0  0  0  0  0
  -11.2553    8.7770    0.0000 H   0  0  0  0  0  0  0  0  0  0  0  0
  -15.3819   10.5719    0.0000 H   0  0  0  0  0  0  0  0  0  0  0  0
  -16.4181    8.1894    0.0000 H   0  0  0  0  0  0  0  0  0  0  0  0
  -14.8730    6.1008    0.0000 H   0  0  0  0  0  0  0  0  0  0  0  0
  -12.6015    2.5488    0.0000 H   0  0  0  0  0  0  0  0  0  0  0  0
  -13.0393    1.4706    0.0000 H   0  0  0  0  0  0  0  0  0  0  0  0
  -15.0357   -0.5569    0.0000 H   0  0  0  0  0  0  0  0  0  0  0  0
  -13.5107   -1.4834    0.0000 H   0  0  0  0  0  0  0  0  0  0  0  0
  -12.8912    3.3321    0.0000 H   0  0  0  0  0  0  0  0  0  0  0  0
  -15.5583    4.9325    0.0000 H   0  0  0  0  0  0  0  0  0  0  0  0
  -18.6614    4.1137    0.0000 H   0  0  0  0  0  0  0  0  0  0  0  0
  -20.5404    1.7750    0.0000 H   0  0  0  0  0  0  0  0  0  0  0  0
  -19.4546   -1.0215    0.0000 H   0  0  0  0  0  0  0  0  0  0  0  0
  -16.4897   -1.4795    0.0000 H   0  0  0  0  0  0  0  0  0  0  0  0
  -14.2577   -2.4707    0.0000 H   0  0  0  0  0  0  0  0  0  0  0  0
  -13.9651   -3.4487    0.0000 H   0  0  0  0  0  0  0  0  0  0  0  0
  -14.4703   -6.4953    0.0000 H   0  0  0  0  0  0  0  0  0  0  0  0
  -12.8426   -6.3544    0.0000 H   0  0  0  0  0  0  0  0  0  0  0  0
  -16.3722   -3.7821    0.0000 H   0  0  0  0  0  0  0  0  0  0  0  0
  -14.8269   -3.2515    0.0000 H   0  0  0  0  0  0  0  0  0  0  0  0
  -17.0121   -7.0331    0.0000 H   0  0  0  0  0  0  0  0  0  0  0  0
  -15.2470   -6.7710    0.0000 H   0  0  0  0  0  0  0  0  0  0  0  0
  -18.0434   -3.7770    0.0000 H   0  0  0  0  0  0  0  0  0  0  0  0
  -21.3903   -6.7850    0.0000 H   0  0  0  0  0  0  0  0  0  0  0  0
  -19.6536   -8.7173    0.0000 H   0  0  0  0  0  0  0  0  0  0  0  0
  -17.1118   -8.1795    0.0000 H   0  0  0  0  0  0  0  0  0  0  0  0
  -12.9372   -7.5888    0.0000 H   0  0  0  0  0  0  0  0  0  0  0  0
  -12.1623   -8.2533    0.0000 H   0  0  0  0  0  0  0  0  0  0  0  0
  -10.9403  -11.0894    0.0000 H   0  0  0  0  0  0  0  0  0  0  0  0
   -9.6471  -10.0909    0.0000 H   0  0  0  0  0  0  0  0  0  0  0  0
  -14.0071   -9.8352    0.0000 H   0  0  0  0  0  0  0  0  0  0  0  0
  -12.9939   -8.5534    0.0000 H   0  0  0  0  0  0  0  0  0  0  0  0
  -12.7878  -12.9161    0.0000 H   0  0  0  0  0  0  0  0  0  0  0  0
  -11.4446  -11.7413    0.0000 H   0  0  0  0  0  0  0  0  0  0  0  0
  -15.4157  -10.7344    0.0000 H   0  0  0  0  0  0  0  0  0  0  0  0
  -16.6051  -15.0744    0.0000 H   0  0  0  0  0  0  0  0  0  0  0  0
  -14.0994  -15.7610    0.0000 H   0  0  0  0  0  0  0  0  0  0  0  0
  -12.2519  -13.9344    0.0000 H   0  0  0  0  0  0  0  0  0  0  0  0
   -9.0593  -11.1805    0.0000 H   0  0  0  0  0  0  0  0  0  0  0  0
   -4.6534  -11.9771    0.0000 H   0  0  0  0  0  0  0  0  0  0  0  0
   -5.9102  -12.0538    0.0000 H   0  0  0  0  0  0  0  0  0  0  0  0
   -3.0660  -11.8746    0.0000 H   0  0  0  0  0  0  0  0  0  0  0  0
   -4.1368  -12.0808    0.0000 H   0  0  0  0  0  0  0  0  0  0  0  0
   -1.3779  -11.3665    0.0000 H   0  0  0  0  0  0  0  0  0  0  0  0
   -2.5732  -11.7621    0.0000 H   0  0  0  0  0  0  0  0  0  0  0  0
    0.1836  -10.5482    0.0000 H   0  0  0  0  0  0  0  0  0  0  0  0
   -0.9153  -11.1628    0.0000 H   0  0  0  0  0  0  0  0  0  0  0  0
    1.5620   -9.4491    0.0000 H   0  0  0  0  0  0  0  0  0  0  0  0
    0.5992  -10.2606    0.0000 H   0  0  0  0  0  0  0  0  0  0  0  0
    2.7413   -7.9290    0.0000 H   0  0  0  0  0  0  0  0  0  0  0  0
    1.9157   -9.0881    0.0000 H   0  0  0  0  0  0  0  0  0  0  0  0
    3.4047   -7.1972    0.0000 H   0  0  0  0  0  0  0  0  0  0  0  0
   -7.7531  -12.9500    0.0000 H   0  0  0  0  0  0  0  0  0  0  0  0
   -9.2187  -12.2277    0.0000 H   0  0  0  0  0  0  0  0  0  0  0  0
   -9.0404  -10.4522    0.0000 H   0  0  0  0  0  0  0  0  0  0  0  0
   -4.4854  -13.6127    0.0000 H   0  0  0  0  0  0  0  0  0  0  0  0
  1  2  1  0
  2  3  1  0
  3  4  2  0
  4  5  1  0
  5  6  2  0
  6  7  1  0
  7  8  2  0
  7  9  1  0
  9 10  1  0
 10 11  1  0
 11 12  2  0
  9 13  1  0
 13 14  1  0
 14 15  2  0
 15 16  1  0
 16 17  2  0
 17 18  1  0
 16 19  1  0
 14 20  1  0
 20 21  1  0
 21 22  2  0
 22 23  1  0
 23 24  2  0
 24 25  1  0
 25 26  2  0
 25 27  1  0
  1 28  2  0
  1 29  1  0
 29 30  1  0
 30 31  1  0
 31 32  1  0
 32 33  2  0
 32 34  1  0
 35 34  1  1
 35 36  1  0
 36 37  1  0
 37 38  1  0
 38 39  1  0
 35 40  1  0
 35 41  1  0
 41 42  2  0
 41 43  1  0
 43 44  1  0
 44 45  1  0
 45 46  1  0
 46 47  1  0
 47 48  1  0
 48 49  1  0
 49 50  2  3
 49 51  1  0
 44 52  1  0
 52 53  2  0
 52 54  1  0
 54 55  1  0
 55 56  1  0
 56 57  1  0
 57 58  1  0
 58 59  1  0
 59 60  1  0
 60 61  2  3
 60 62  1  0
 55 63  1  0
 63 64  2  0
 63 65  1  0
 65 66  1  0
 66 67  1  0
 66 68  1  0
 68 69  2  0
 68 70  1  0
 70 71  1  0
 71 72  1  0
 72 73  1  0
 73 74  1  0
 74 75  1  0
 71 76  1  0
 76 77  1  0
 77 78  1  0
 78 79  1  0
 71 80  1  0
 80 81  2  0
 80 82  1  0
 82 83  1  0
 83 84  1  0
 84 85  1  0
 85 86  1  0
 86 87  1  0
 87 88  1  0
 88 89  2  3
 88 90  1  0
 83 91  1  0
 91 92  2  0
 91 93  1  0
 93 94  1  0
 94 95  1  0
 95 96  1  0
 96 97  1  0
 97 98  1  0
 98 99  1  0
 99100  2  3
 99101  1  0
 94102  1  0
102103  2  0
102104  1  0
104105  1  0
105106  1  0
106107  1  0
107108  1  0
108109  1  0
109110  1  0
110111  2  3
110112  1  0
105113  1  0
113114  2  0
113115  1  0
115116  1  0
116117  1  0
117118  1  0
118119  2  0
119120  1  0
120121  1  0
121122  2  0
122123  1  0
123124  2  0
124125  1  0
125126  2  0
116127  1  0
127128  2  0
127129  1  0
129130  1  0
130131  1  0
131132  1  0
132133  1  0
133134  1  0
134135  1  0
135136  2  3
135137  1  0
130138  1  0
138139  2  0
138140  1  0
140141  1  0
141142  1  0
142143  1  0
143144  1  0
144145  1  0
145146  1  0
146147  2  3
146148  1  0
141149  1  0
149150  2  0
149151  1  0
151152  1  0
152153  1  0
153154  1  0
154155  1  0
155156  1  0
156157  1  0
157158  1  0
158159  1  0
152160  1  0
152161  1  1
161162  2  0
161163  1  0
  8  3  1  0
126118  1  0
 11  6  1  0
 39 75  2  0
126121  1  0
 18 13  2  0
 79159  2  0
 22  9  1  0
 26 21  1  0
  2164  1  0
  4165  1  0
  5166  1  0
  8167  1  0
 15168  1  0
 17169  1  0
 18170  1  0
 19171  1  0
 23172  1  0
 24173  1  0
 26174  1  0
 27175  1  0
 29176  1  0
 30177  1  0
 30178  1  0
 31179  1  0
 31180  1  0
 34181  1  0
 36182  1  0
 36183  1  0
 37184  1  0
 37185  1  0
 38186  1  0
 38187  1  0
 39188  1  0
 40189  1  0
 40190  1  0
 40191  1  0
 43192  1  0
 44193  1  6
 45194  1  0
 45195  1  0
 46196  1  0
 46197  1  0
 47198  1  0
 47199  1  0
 48200  1  0
 50201  1  0
 51202  1  0
 51203  1  0
 54204  1  0
 55205  1  6
 56206  1  0
 56207  1  0
 57208  1  0
 57209  1  0
 58210  1  0
 58211  1  0
 59212  1  0
 61213  1  0
 62214  1  0
 62215  1  0
 65216  1  0
 66217  1  6
 67218  1  0
 67219  1  0
 67220  1  0
 70221  1  0
 72222  1  0
 72223  1  0
 73224  1  0
 73225  1  0
 74226  1  0
 74227  1  0
 75228  1  0
 76229  1  0
 76230  1  0
 77231  1  0
 77232  1  0
 78233  1  0
 78234  1  0
 79235  1  0
 82236  1  0
 83237  1  6
 84238  1  0
 84239  1  0
 85240  1  0
 85241  1  0
 86242  1  0
 86243  1  0
 87244  1  0
 89245  1  0
 90246  1  0
 90247  1  0
 93248  1  0
 94249  1  6
 95250  1  0
 95251  1  0
 96252  1  0
 96253  1  0
 97254  1  0
 97255  1  0
 98256  1  0
100257  1  0
101258  1  0
101259  1  0
104260  1  0
105261  1  6
106262  1  0
106263  1  0
107264  1  0
107265  1  0
108266  1  0
108267  1  0
109268  1  0
111269  1  0
112270  1  0
112271  1  0
115272  1  0
116273  1  6
117274  1  0
117275  1  0
119276  1  0
120277  1  0
122278  1  0
123279  1  0
124280  1  0
125281  1  0
129282  1  0
130283  1  6
131284  1  0
131285  1  0
132286  1  0
132287  1  0
133288  1  0
133289  1  0
134290  1  0
136291  1  0
137292  1  0
137293  1  0
140294  1  0
141295  1  6
142296  1  0
142297  1  0
143298  1  0
143299  1  0
144300  1  0
144301  1  0
145302  1  0
147303  1  0
148304  1  0
148305  1  0
151306  1  0
153307  1  0
153308  1  0
154309  1  0
154310  1  0
155311  1  0
155312  1  0
156313  1  0
156314  1  0
157315  1  0
157316  1  0
158317  1  0
158318  1  0
159319  1  0
160320  1  0
160321  1  0
160322  1  0
163323  1  0
M  END
