
     RDKit          2D

464472  0  0  0  0  0  0  0  0999 V2000
   25.4145   11.1505    0.0000 C   0  0  0  0  0  0  0  0  0  0  0  0
   25.0349   12.6017    0.0000 N   0  0  0  0  0  0  0  0  0  0  0  0
   26.1019   13.6560    0.0000 C   0  0  0  0  0  0  0  0  0  0  0  0
   27.5484   13.2591    0.0000 C   0  0  0  0  0  0  0  0  0  0  0  0
   28.6154   14.3135    0.0000 C   0  0  0  0  0  0  0  0  0  0  0  0
   28.2358   15.7646    0.0000 C   0  0  0  0  0  0  0  0  0  0  0  0
   26.7892   16.1615    0.0000 C   0  0  0  0  0  0  0  0  0  0  0  0
   25.7223   15.1072    0.0000 C   0  0  0  0  0  0  0  0  0  0  0  0
   26.7197   17.6599    0.0000 C   0  0  0  0  0  0  0  0  0  0  0  0
   28.1232   18.1891    0.0000 O   0  0  0  0  0  0  0  0  0  0  0  0
   29.0602   17.0178    0.0000 C   0  0  0  0  0  0  0  0  0  0  0  0
   30.5586   17.0873    0.0000 O   0  0  0  0  0  0  0  0  0  0  0  0
   26.8071   19.1573    0.0000 C   0  0  0  0  0  0  0  0  0  0  0  0
   25.5540   19.9817    0.0000 C   0  0  0  0  0  0  0  0  0  0  0  0
   25.6414   21.4792    0.0000 C   0  0  0  0  0  0  0  0  0  0  0  0
   26.9819   22.1522    0.0000 C   0  0  0  0  0  0  0  0  0  0  0  0
   28.2350   21.3278    0.0000 C   0  0  0  0  0  0  0  0  0  0  0  0
   28.1476   19.8303    0.0000 C   0  0  0  0  0  0  0  0  0  0  0  0
   27.0693   23.6497    0.0000 O   0  0  0  0  0  0  0  0  0  0  0  0
   24.2134   19.3087    0.0000 O   0  0  0  0  0  0  0  0  0  0  0  0
   24.1260   17.8113    0.0000 C   0  0  0  0  0  0  0  0  0  0  0  0
   25.3791   16.9868    0.0000 C   0  0  0  0  0  0  0  0  0  0  0  0
   24.7069   15.8741    0.0000 C   0  0  0  0  0  0  0  0  0  0  0  0
   23.9920   15.5152    0.0000 C   0  0  0  0  0  0  0  0  0  0  0  0
   23.3236   15.9549    0.0000 C   0  0  0  0  0  0  0  0  0  0  0  0
   23.3703   16.7535    0.0000 C   0  0  0  0  0  0  0  0  0  0  0  0
   21.3575   14.9678    0.0000 O   0  0  0  0  0  0  0  0  0  0  0  0
   26.8611   10.7536    0.0000 S   0  0  0  0  0  0  0  0  0  0  0  0
   24.3476   10.0961    0.0000 N   0  0  0  0  0  0  0  0  0  0  0  0
   24.7272    8.6450    0.0000 C   0  0  0  0  0  0  0  0  0  0  0  0
   23.6602    7.5906    0.0000 C   0  0  0  0  0  0  0  0  0  0  0  0
   24.0398    6.1395    0.0000 C   0  0  0  0  0  0  0  0  0  0  0  0
   24.8368    6.1209    0.0000 O   0  0  0  0  0  0  0  0  0  0  0  0
   22.9729    5.0851    0.0000 N   0  0  0  0  0  0  0  0  0  0  0  0
   23.3525    3.6340    0.0000 C   0  0  0  0  0  0  0  0  0  0  0  0
   24.7157    4.2598    0.0000 C   0  0  0  0  0  0  0  0  0  0  0  0
   24.8553    5.7533    0.0000 C   0  0  0  0  0  0  0  0  0  0  0  0
   26.2185    6.3791    0.0000 C   0  0  0  0  0  0  0  0  0  0  0  0
   26.3581    7.8726    0.0000 C   0  0  0  0  0  0  0  0  0  0  0  0
   27.7213    8.4984    0.0000 N   0  0  0  0  0  0  0  0  0  0  0  0
   23.2128    2.1405    0.0000 C   0  0  0  0  0  0  0  0  0  0  0  0
   24.5331    1.4284    0.0000 O   0  0  0  0  0  0  0  0  0  0  0  0
   21.8496    1.5147    0.0000 N   0  0  0  0  0  0  0  0  0  0  0  0
   21.7100    0.0212    0.0000 C   0  0  0  0  0  0  0  0  0  0  0  0
   23.2050    0.1430    0.0000 C   0  0  0  0  0  0  0  0  0  0  0  0
   21.0680   -1.3345    0.0000 C   0  0  0  0  0  0  0  0  0  0  0  0
   22.0651   -2.4551    0.0000 O   0  0  0  0  0  0  0  0  0  0  0  0
   19.5730   -1.4563    0.0000 N   0  0  0  0  0  0  0  0  0  0  0  0
   18.9309   -2.8120    0.0000 C   0  0  0  0  0  0  0  0  0  0  0  0
   20.3775   -3.2088    0.0000 C   0  0  0  0  0  0  0  0  0  0  0  0
   21.6011   -4.0765    0.0000 O   0  0  0  0  0  0  0  0  0  0  0  0
   21.5650   -2.2924    0.0000 C   0  0  0  0  0  0  0  0  0  0  0  0
   17.8640   -3.8663    0.0000 C   0  0  0  0  0  0  0  0  0  0  0  0
   18.5835   -5.1825    0.0000 O   0  0  0  0  0  0  0  0  0  0  0  0
   16.4174   -3.4695    0.0000 N   0  0  0  0  0  0  0  0  0  0  0  0
   15.3505   -4.5238    0.0000 C   0  0  0  0  0  0  0  0  0  0  0  0
   16.5741   -5.3915    0.0000 C   0  0  0  0  0  0  0  0  0  0  0  0
   17.9373   -4.7656    0.0000 C   0  0  0  0  0  0  0  0  0  0  0  0
   19.1609   -5.6333    0.0000 C   0  0  0  0  0  0  0  0  0  0  0  0
   20.5902   -5.1783    0.0000 O   0  0  0  0  0  0  0  0  0  0  0  0
   19.0212   -7.1268    0.0000 O   0  0  0  0  0  0  0  0  0  0  0  0
   13.9873   -5.1496    0.0000 C   0  0  0  0  0  0  0  0  0  0  0  0
   13.8476   -6.6431    0.0000 O   0  0  0  0  0  0  0  0  0  0  0  0
   12.7637   -4.2820    0.0000 N   0  0  0  0  0  0  0  0  0  0  0  0
   11.4005   -4.9078    0.0000 C   0  0  0  0  0  0  0  0  0  0  0  0
   11.0209   -3.4566    0.0000 C   0  0  0  0  0  0  0  0  0  0  0  0
   12.0878   -2.4023    0.0000 C   0  0  0  0  0  0  0  0  0  0  0  0
   13.5344   -2.7991    0.0000 C   0  0  0  0  0  0  0  0  0  0  0  0
   14.6013   -1.7448    0.0000 C   0  0  0  0  0  0  0  0  0  0  0  0
   14.2217   -0.2936    0.0000 C   0  0  0  0  0  0  0  0  0  0  0  0
   15.2887    0.7607    0.0000 O   0  0  0  0  0  0  0  0  0  0  0  0
   12.7752    0.1032    0.0000 C   0  0  0  0  0  0  0  0  0  0  0  0
   11.7082   -0.9511    0.0000 C   0  0  0  0  0  0  0  0  0  0  0  0
   10.3335   -5.9621    0.0000 C   0  0  0  0  0  0  0  0  0  0  0  0
    9.0260   -5.2270    0.0000 O   0  0  0  0  0  0  0  0  0  0  0  0
   10.7131   -7.4133    0.0000 N   0  0  0  0  0  0  0  0  0  0  0  0
    9.6462   -8.4676    0.0000 C   0  0  0  0  0  0  0  0  0  0  0  0
    8.7931   -7.2338    0.0000 C   0  0  0  0  0  0  0  0  0  0  0  0
    9.4351   -5.8781    0.0000 C   0  0  0  0  0  0  0  0  0  0  0  0
    7.5695   -6.3661    0.0000 C   0  0  0  0  0  0  0  0  0  0  0  0
    7.7092   -4.8726    0.0000 C   0  0  0  0  0  0  0  0  0  0  0  0
    9.0042   -9.8233    0.0000 C   0  0  0  0  0  0  0  0  0  0  0  0
    7.5091   -9.9451    0.0000 O   0  0  0  0  0  0  0  0  0  0  0  0
    9.8572  -11.0571    0.0000 N   0  0  0  0  0  0  0  0  0  0  0  0
    9.2152  -12.4128    0.0000 C   0  0  0  0  0  0  0  0  0  0  0  0
   10.6617  -12.8096    0.0000 C   0  0  0  0  0  0  0  0  0  0  0  0
   11.7287  -11.7553    0.0000 C   0  0  0  0  0  0  0  0  0  0  0  0
   13.1752  -12.1521    0.0000 C   0  0  0  0  0  0  0  0  0  0  0  0
   14.2422  -11.0978    0.0000 N   0  0  0  0  0  0  0  0  0  0  0  0
   13.5548  -13.6033    0.0000 O   0  0  0  0  0  0  0  0  0  0  0  0
    8.1482  -13.4671    0.0000 C   0  0  0  0  0  0  0  0  0  0  0  0
    8.8677  -14.7833    0.0000 O   0  0  0  0  0  0  0  0  0  0  0  0
    6.7017  -13.0703    0.0000 N   0  0  0  0  0  0  0  0  0  0  0  0
    5.6347  -14.1246    0.0000 C   0  0  0  0  0  0  0  0  0  0  0  0
    6.8583  -14.9923    0.0000 C   0  0  0  0  0  0  0  0  0  0  0  0
    8.2215  -14.3664    0.0000 C   0  0  0  0  0  0  0  0  0  0  0  0
    9.4451  -15.2341    0.0000 C   0  0  0  0  0  0  0  0  0  0  0  0
   10.8083  -14.6083    0.0000 C   0  0  0  0  0  0  0  0  0  0  0  0
   10.9479  -13.1148    0.0000 C   0  0  0  0  0  0  0  0  0  0  0  0
   12.3112  -12.4890    0.0000 O   0  0  0  0  0  0  0  0  0  0  0  0
    9.7244  -12.2471    0.0000 C   0  0  0  0  0  0  0  0  0  0  0  0
    8.3611  -12.8729    0.0000 C   0  0  0  0  0  0  0  0  0  0  0  0
    4.2715  -14.7504    0.0000 C   0  0  0  0  0  0  0  0  0  0  0  0
    4.4974  -16.2333    0.0000 O   0  0  0  0  0  0  0  0  0  0  0  0
    3.0479  -13.8828    0.0000 N   0  0  0  0  0  0  0  0  0  0  0  0
    1.6847  -14.5086    0.0000 C   0  0  0  0  0  0  0  0  0  0  0  0
    2.5378  -15.7424    0.0000 C   0  0  0  0  0  0  0  0  0  0  0  0
    4.0328  -15.6206    0.0000 C   0  0  0  0  0  0  0  0  0  0  0  0
    4.8858  -16.8544    0.0000 N   0  0  0  0  0  0  0  0  0  0  0  0
    4.9838  -14.4605    0.0000 O   0  0  0  0  0  0  0  0  0  0  0  0
    0.1897  -14.6304    0.0000 C   0  0  0  0  0  0  0  0  0  0  0  0
   -0.1052  -16.1011    0.0000 O   0  0  0  0  0  0  0  0  0  0  0  0
   -0.6634  -13.3966    0.0000 N   0  0  0  0  0  0  0  0  0  0  0  0
   -2.1584  -13.5184    0.0000 C   0  0  0  0  0  0  0  0  0  0  0  0
   -1.7788  -14.9696    0.0000 C   0  0  0  0  0  0  0  0  0  0  0  0
   -0.3323  -15.3664    0.0000 C   0  0  0  0  0  0  0  0  0  0  0  0
    0.0473  -16.8176    0.0000 C   0  0  0  0  0  0  0  0  0  0  0  0
    1.4939  -17.2145    0.0000 N   0  0  0  0  0  0  0  0  0  0  0  0
    1.8735  -18.6656    0.0000 C   0  0  0  0  0  0  0  0  0  0  0  0
    3.3200  -19.0625    0.0000 N   0  0  0  0  0  0  0  0  0  0  0  0
    0.8065  -19.7200    0.0000 N   0  0  0  0  0  0  0  0  0  0  0  0
   -3.6050  -13.1216    0.0000 C   0  0  0  0  0  0  0  0  0  0  0  0
   -4.3851  -14.4027    0.0000 O   0  0  0  0  0  0  0  0  0  0  0  0
   -3.9846  -11.6704    0.0000 N   0  0  0  0  0  0  0  0  0  0  0  0
   -5.4311  -11.2736    0.0000 C   0  0  0  0  0  0  0  0  0  0  0  0
   -5.5707  -12.7670    0.0000 C   0  0  0  0  0  0  0  0  0  0  0  0
   -4.3471  -13.6347    0.0000 C   0  0  0  0  0  0  0  0  0  0  0  0
   -4.4868  -15.1282    0.0000 C   0  0  0  0  0  0  0  0  0  0  0  0
   -3.2632  -15.9959    0.0000 N   0  0  0  0  0  0  0  0  0  0  0  0
   -3.4028  -17.4893    0.0000 C   0  0  0  0  0  0  0  0  0  0  0  0
   -2.1792  -18.3570    0.0000 N   0  0  0  0  0  0  0  0  0  0  0  0
   -4.7660  -18.1152    0.0000 N   0  0  0  0  0  0  0  0  0  0  0  0
   -6.6547  -10.4059    0.0000 C   0  0  0  0  0  0  0  0  0  0  0  0
   -7.8260  -11.3430    0.0000 O   0  0  0  0  0  0  0  0  0  0  0  0
   -6.5151   -8.9124    0.0000 N   0  0  0  0  0  0  0  0  0  0  0  0
   -7.7387   -8.0447    0.0000 C   0  0  0  0  0  0  0  0  0  0  0  0
   -8.3807   -9.4004    0.0000 C   0  0  0  0  0  0  0  0  0  0  0  0
   -7.5276  -10.6342    0.0000 C   0  0  0  0  0  0  0  0  0  0  0  0
   -8.1696  -11.9899    0.0000 C   0  0  0  0  0  0  0  0  0  0  0  0
   -7.3166  -13.2237    0.0000 C   0  0  0  0  0  0  0  0  0  0  0  0
   -7.9586  -14.5794    0.0000 N   0  0  0  0  0  0  0  0  0  0  0  0
   -8.5917   -6.8109    0.0000 C   0  0  0  0  0  0  0  0  0  0  0  0
  -10.0128   -7.2909    0.0000 O   0  0  0  0  0  0  0  0  0  0  0  0
   -7.9497   -5.4553    0.0000 N   0  0  0  0  0  0  0  0  0  0  0  0
   -8.8027   -4.2214    0.0000 C   0  0  0  0  0  0  0  0  0  0  0  0
   -9.8697   -5.2758    0.0000 C   0  0  0  0  0  0  0  0  0  0  0  0
   -9.4901   -6.7269    0.0000 C   0  0  0  0  0  0  0  0  0  0  0  0
  -10.5570   -7.7813    0.0000 N   0  0  0  0  0  0  0  0  0  0  0  0
   -8.1825   -7.4620    0.0000 O   0  0  0  0  0  0  0  0  0  0  0  0
   -9.1823   -2.7703    0.0000 C   0  0  0  0  0  0  0  0  0  0  0  0
  -10.6819   -2.7352    0.0000 O   0  0  0  0  0  0  0  0  0  0  0  0
   -8.1154   -1.7159    0.0000 N   0  0  0  0  0  0  0  0  0  0  0  0
   -8.4950   -0.2647    0.0000 C   0  0  0  0  0  0  0  0  0  0  0  0
   -9.6266   -1.2493    0.0000 C   0  0  0  0  0  0  0  0  0  0  0  0
  -10.9242   -2.0019    0.0000 C   0  0  0  0  0  0  0  0  0  0  0  0
  -12.3407   -2.4953    0.0000 C   0  0  0  0  0  0  0  0  0  0  0  0
  -13.8250   -2.7117    0.0000 C   0  0  0  0  0  0  0  0  0  0  0  0
  -15.3235   -2.6433    0.0000 C   0  0  0  0  0  0  0  0  0  0  0  0
  -16.7819   -2.2925    0.0000 C   0  0  0  0  0  0  0  0  0  0  0  0
  -18.1476   -1.6721    0.0000 C   0  0  0  0  0  0  0  0  0  0  0  0
   -7.0262   -0.5691    0.0000 C   0  0  0  0  0  0  0  0  0  0  0  0
   -7.5701    0.9162    0.0000 C   0  0  0  0  0  0  0  0  0  0  0  0
   -6.2174    0.2677    0.0000 O   0  0  0  0  0  0  0  0  0  0  0  0
   -6.8854    2.2508    0.0000 N   0  0  0  0  0  0  0  0  0  0  0  0
   -6.4656    3.6909    0.0000 C   0  0  0  0  0  0  0  0  0  0  0  0
   -5.0655    4.2290    0.0000 C   0  0  0  0  0  0  0  0  0  0  0  0
   -3.8222    5.0682    0.0000 O   0  0  0  0  0  0  0  0  0  0  0  0
   -3.8994    3.2854    0.0000 C   0  0  0  0  0  0  0  0  0  0  0  0
   -6.3260    5.1843    0.0000 C   0  0  0  0  0  0  0  0  0  0  0  0
   -4.8375    5.3701    0.0000 O   0  0  0  0  0  0  0  0  0  0  0  0
   -6.4715    6.6773    0.0000 N   0  0  0  0  0  0  0  0  0  0  0  0
   -6.8970    8.1157    0.0000 C   0  0  0  0  0  0  0  0  0  0  0  0
   -6.0100    9.3253    0.0000 C   0  0  0  0  0  0  0  0  0  0  0  0
   -4.5189    9.1620    0.0000 C   0  0  0  0  0  0  0  0  0  0  0  0
   -3.5104   10.2723    0.0000 C   0  0  0  0  0  0  0  0  0  0  0  0
   -2.1427    9.6563    0.0000 N   0  0  0  0  0  0  0  0  0  0  0  0
   -2.3060    8.1652    0.0000 C   0  0  0  0  0  0  0  0  0  0  0  0
   -3.7746    7.8597    0.0000 N   0  0  0  0  0  0  0  0  0  0  0  0
   -7.5870    9.4475    0.0000 C   0  0  0  0  0  0  0  0  0  0  0  0
   -6.4352   10.4086    0.0000 O   0  0  0  0  0  0  0  0  0  0  0  0
   -8.5165   10.6248    0.0000 N   0  0  0  0  0  0  0  0  0  0  0  0
   -9.6521   11.6048    0.0000 C   0  0  0  0  0  0  0  0  0  0  0  0
   -9.5599   13.1020    0.0000 C   0  0  0  0  0  0  0  0  0  0  0  0
   -8.2173   13.7708    0.0000 C   0  0  0  0  0  0  0  0  0  0  0  0
   -8.1251   15.2679    0.0000 C   0  0  0  0  0  0  0  0  0  0  0  0
   -6.7824   15.9367    0.0000 N   0  0  0  0  0  0  0  0  0  0  0  0
   -9.3756   16.0963    0.0000 O   0  0  0  0  0  0  0  0  0  0  0  0
  -10.9526   12.3523    0.0000 C   0  0  0  0  0  0  0  0  0  0  0  0
  -10.5033   13.7834    0.0000 O   0  0  0  0  0  0  0  0  0  0  0  0
  -12.3711   12.8400    0.0000 N   0  0  0  0  0  0  0  0  0  0  0  0
  -13.8562   13.0506    0.0000 C   0  0  0  0  0  0  0  0  0  0  0  0
  -14.5881   14.3599    0.0000 C   0  0  0  0  0  0  0  0  0  0  0  0
  -13.8202   15.6484    0.0000 C   0  0  0  0  0  0  0  0  0  0  0  0
  -14.5521   16.9577    0.0000 C   0  0  0  0  0  0  0  0  0  0  0  0
  -13.7841   18.2462    0.0000 N   0  0  0  0  0  0  0  0  0  0  0  0
  -16.0519   16.9786    0.0000 O   0  0  0  0  0  0  0  0  0  0  0  0
  -15.3544   12.9762    0.0000 C   0  0  0  0  0  0  0  0  0  0  0  0
  -15.7501   14.4231    0.0000 O   0  0  0  0  0  0  0  0  0  0  0  0
  -16.8114   12.6197    0.0000 N   0  0  0  0  0  0  0  0  0  0  0  0
  -18.1746   11.9939    0.0000 C   0  0  0  0  0  0  0  0  0  0  0  0
  -19.4982   12.6997    0.0000 C   0  0  0  0  0  0  0  0  0  0  0  0
  -19.5488   14.1988    0.0000 C   0  0  0  0  0  0  0  0  0  0  0  0
  -20.8724   14.9046    0.0000 O   0  0  0  0  0  0  0  0  0  0  0  0
  -18.2758   14.9922    0.0000 O   0  0  0  0  0  0  0  0  0  0  0  0
  -19.3948   11.1214    0.0000 C   0  0  0  0  0  0  0  0  0  0  0  0
  -20.5099   12.1246    0.0000 O   0  0  0  0  0  0  0  0  0  0  0  0
  -20.4277   10.0337    0.0000 N   0  0  0  0  0  0  0  0  0  0  0  0
  -21.2362    8.7702    0.0000 C   0  0  0  0  0  0  0  0  0  0  0  0
  -22.7312    8.6484    0.0000 C   0  0  0  0  0  0  0  0  0  0  0  0
  -23.4275    9.9770    0.0000 C   0  0  0  0  0  0  0  0  0  0  0  0
  -24.0944    8.0226    0.0000 C   0  0  0  0  0  0  0  0  0  0  0  0
  -25.3180    8.8903    0.0000 C   0  0  0  0  0  0  0  0  0  0  0  0
  -21.7909    7.3766    0.0000 C   0  0  0  0  0  0  0  0  0  0  0  0
  -23.2310    7.7963    0.0000 O   0  0  0  0  0  0  0  0  0  0  0  0
  -22.0719    5.9031    0.0000 N   0  0  0  0  0  0  0  0  0  0  0  0
  -22.0689    4.4031    0.0000 C   0  0  0  0  0  0  0  0  0  0  0  0
  -21.7821    2.9308    0.0000 C   0  0  0  0  0  0  0  0  0  0  0  0
  -21.2219    1.5394    0.0000 C   0  0  0  0  0  0  0  0  0  0  0  0
  -20.4084    0.2791    0.0000 C   0  0  0  0  0  0  0  0  0  0  0  0
  -19.3711   -0.8044    0.0000 C   0  0  0  0  0  0  0  0  0  0  0  0
  -23.4142    5.0666    0.0000 C   0  0  0  0  0  0  0  0  0  0  0  0
  -23.2608    3.4924    0.0000 C   0  0  0  0  0  0  0  0  0  0  0  0
  -23.4336    2.0024    0.0000 O   0  0  0  0  0  0  0  0  0  0  0  0
  -24.6454    4.0691    0.0000 N   0  0  0  0  0  0  0  0  0  0  0  0
  -25.8373    3.1584    0.0000 C   0  0  0  0  0  0  0  0  0  0  0  0
  -26.6457    1.8949    0.0000 C   0  0  0  0  0  0  0  0  0  0  0  0
  -28.1442    1.9633    0.0000 C   0  0  0  0  0  0  0  0  0  0  0  0
  -28.9526    0.6998    0.0000 O   0  0  0  0  0  0  0  0  0  0  0  0
  -29.1359    3.0886    0.0000 O   0  0  0  0  0  0  0  0  0  0  0  0
  -27.2219    3.7351    0.0000 C   0  0  0  0  0  0  0  0  0  0  0  0
  -27.4148    5.2227    0.0000 O   0  0  0  0  0  0  0  0  0  0  0  0
  -28.4138    2.8244    0.0000 N   0  0  0  0  0  0  0  0  0  0  0  0
  -29.7985    3.4011    0.0000 C   0  0  0  0  0  0  0  0  0  0  0  0
  -30.9024    4.4167    0.0000 C   0  0  0  0  0  0  0  0  0  0  0  0
  -32.3338    3.9685    0.0000 C   0  0  0  0  0  0  0  0  0  0  0  0
  -33.4377    4.9841    0.0000 C   0  0  0  0  0  0  0  0  0  0  0  0
  -33.5257    3.0577    0.0000 C   0  0  0  0  0  0  0  0  0  0  0  0
  -30.9903    2.4904    0.0000 C   0  0  0  0  0  0  0  0  0  0  0  0
  -32.4350    2.8941    0.0000 O   0  0  0  0  0  0  0  0  0  0  0  0
  -30.7975    1.0028    0.0000 O   0  0  0  0  0  0  0  0  0  0  0  0
   23.5508   12.8192    0.0000 H   0  0  0  0  0  0  0  0  0  0  0  0
   27.9280   11.8080    0.0000 H   0  0  0  0  0  0  0  0  0  0  0  0
   30.0620   13.9166    0.0000 H   0  0  0  0  0  0  0  0  0  0  0  0
   24.2227   15.1422    0.0000 H   0  0  0  0  0  0  0  0  0  0  0  0
   24.3883   22.3036    0.0000 H   0  0  0  0  0  0  0  0  0  0  0  0
   29.5756   22.0008    0.0000 H   0  0  0  0  0  0  0  0  0  0  0  0
   29.4007   19.0059    0.0000 H   0  0  0  0  0  0  0  0  0  0  0  0
   28.4099   24.3227    0.0000 H   0  0  0  0  0  0  0  0  0  0  0  0
   26.5448   14.6650    0.0000 H   0  0  0  0  0  0  0  0  0  0  0  0
   23.6819   13.3408    0.0000 H   0  0  0  0  0  0  0  0  0  0  0  0
   21.5323   17.9627    0.0000 H   0  0  0  0  0  0  0  0  0  0  0  0
   20.1044   15.7922    0.0000 H   0  0  0  0  0  0  0  0  0  0  0  0
   22.9010   10.4930    0.0000 H   0  0  0  0  0  0  0  0  0  0  0  0
   26.0039    9.4323    0.0000 H   0  0  0  0  0  0  0  0  0  0  0  0
   25.4235    7.3164    0.0000 H   0  0  0  0  0  0  0  0  0  0  0  0
   22.8072    8.8245    0.0000 H   0  0  0  0  0  0  0  0  0  0  0  0
   22.2970    6.9648    0.0000 H   0  0  0  0  0  0  0  0  0  0  0  0
   21.5263    5.4820    0.0000 H   0  0  0  0  0  0  0  0  0  0  0  0
   21.8574    3.5121    0.0000 H   0  0  0  0  0  0  0  0  0  0  0  0
   26.2144    4.1985    0.0000 H   0  0  0  0  0  0  0  0  0  0  0  0
   25.0953    2.8086    0.0000 H   0  0  0  0  0  0  0  0  0  0  0  0
   24.3016    7.1474    0.0000 H   0  0  0  0  0  0  0  0  0  0  0  0
   23.3752    5.9968    0.0000 H   0  0  0  0  0  0  0  0  0  0  0  0
   27.7136    6.5009    0.0000 H   0  0  0  0  0  0  0  0  0  0  0  0
   26.7722    4.9850    0.0000 H   0  0  0  0  0  0  0  0  0  0  0  0
   26.1583    9.3592    0.0000 H   0  0  0  0  0  0  0  0  0  0  0  0
   24.8631    7.7508    0.0000 H   0  0  0  0  0  0  0  0  0  0  0  0
   27.8610    9.9919    0.0000 H   0  0  0  0  0  0  0  0  0  0  0  0
   28.9449    7.6308    0.0000 H   0  0  0  0  0  0  0  0  0  0  0  0
   20.6260    2.3823    0.0000 H   0  0  0  0  0  0  0  0  0  0  0  0
   20.2635    0.4180    0.0000 H   0  0  0  0  0  0  0  0  0  0  0  0
   24.0075    1.4103    0.0000 H   0  0  0  0  0  0  0  0  0  0  0  0
   24.6516   -0.2538    0.0000 H   0  0  0  0  0  0  0  0  0  0  0  0
   23.0654   -1.3505    0.0000 H   0  0  0  0  0  0  0  0  0  0  0  0
   18.7199   -0.2225    0.0000 H   0  0  0  0  0  0  0  0  0  0  0  0
   17.7074   -1.9443    0.0000 H   0  0  0  0  0  0  0  0  0  0  0  0
   19.9055   -4.6327    0.0000 H   0  0  0  0  0  0  0  0  0  0  0  0
   23.0304   -3.6215    0.0000 H   0  0  0  0  0  0  0  0  0  0  0  0
   22.9127   -2.3878    0.0000 H   0  0  0  0  0  0  0  0  0  0  0  0
   22.0865   -0.7988    0.0000 H   0  0  0  0  0  0  0  0  0  0  0  0
   20.5041   -0.9915    0.0000 H   0  0  0  0  0  0  0  0  0  0  0  0
   16.2176   -1.9829    0.0000 H   0  0  0  0  0  0  0  0  0  0  0  0
   14.4974   -3.2900    0.0000 H   0  0  0  0  0  0  0  0  0  0  0  0
   17.4271   -6.6253    0.0000 H   0  0  0  0  0  0  0  0  0  0  0  0
   15.5071   -6.4458    0.0000 H   0  0  0  0  0  0  0  0  0  0  0  0
   19.0042   -3.7113    0.0000 H   0  0  0  0  0  0  0  0  0  0  0  0
   17.4081   -3.3621    0.0000 H   0  0  0  0  0  0  0  0  0  0  0  0
   20.2448   -7.9945    0.0000 H   0  0  0  0  0  0  0  0  0  0  0  0
   13.2605   -2.8666    0.0000 H   0  0  0  0  0  0  0  0  0  0  0  0
   12.2535   -6.1416    0.0000 H   0  0  0  0  0  0  0  0  0  0  0  0
   10.1678   -2.2228    0.0000 H   0  0  0  0  0  0  0  0  0  0  0  0
    9.6577   -4.0824    0.0000 H   0  0  0  0  0  0  0  0  0  0  0  0
   13.9140   -4.2503    0.0000 H   0  0  0  0  0  0  0  0  0  0  0  0
   16.0855   -1.9624    0.0000 H   0  0  0  0  0  0  0  0  0  0  0  0
   14.9091    2.2119    0.0000 H   0  0  0  0  0  0  0  0  0  0  0  0
   12.3956    1.5544    0.0000 H   0  0  0  0  0  0  0  0  0  0  0  0
   10.2617   -0.5543    0.0000 H   0  0  0  0  0  0  0  0  0  0  0  0
   12.1597   -7.8101    0.0000 H   0  0  0  0  0  0  0  0  0  0  0  0
   10.8697   -9.3353    0.0000 H   0  0  0  0  0  0  0  0  0  0  0  0
    7.7262   -8.2881    0.0000 H   0  0  0  0  0  0  0  0  0  0  0  0
    8.7389   -4.5495    0.0000 H   0  0  0  0  0  0  0  0  0  0  0  0
   10.5021   -4.8238    0.0000 H   0  0  0  0  0  0  0  0  0  0  0  0
   10.8437   -6.3808    0.0000 H   0  0  0  0  0  0  0  0  0  0  0  0
    6.1230   -5.9693    0.0000 H   0  0  0  0  0  0  0  0  0  0  0  0
    6.9275   -7.7218    0.0000 H   0  0  0  0  0  0  0  0  0  0  0  0
    6.4856   -4.0050    0.0000 H   0  0  0  0  0  0  0  0  0  0  0  0
    8.3512   -3.5170    0.0000 H   0  0  0  0  0  0  0  0  0  0  0  0
    9.2018   -4.7246    0.0000 H   0  0  0  0  0  0  0  0  0  0  0  0
   11.3262  -10.7539    0.0000 H   0  0  0  0  0  0  0  0  0  0  0  0
    7.9916  -11.5451    0.0000 H   0  0  0  0  0  0  0  0  0  0  0  0
   11.8853  -13.6773    0.0000 H   0  0  0  0  0  0  0  0  0  0  0  0
   10.0197  -14.1653    0.0000 H   0  0  0  0  0  0  0  0  0  0  0  0
   12.2007  -10.3315    0.0000 H   0  0  0  0  0  0  0  0  0  0  0  0
   11.0558  -10.4147    0.0000 H   0  0  0  0  0  0  0  0  0  0  0  0
   15.6888  -11.4947    0.0000 H   0  0  0  0  0  0  0  0  0  0  0  0
   13.8626   -9.6466    0.0000 H   0  0  0  0  0  0  0  0  0  0  0  0
    6.1480  -11.6762    0.0000 H   0  0  0  0  0  0  0  0  0  0  0  0
    4.7817  -12.8908    0.0000 H   0  0  0  0  0  0  0  0  0  0  0  0
    7.7113  -16.2261    0.0000 H   0  0  0  0  0  0  0  0  0  0  0  0
    5.9278  -16.1688    0.0000 H   0  0  0  0  0  0  0  0  0  0  0  0
    9.3055  -16.7276    0.0000 H   0  0  0  0  0  0  0  0  0  0  0  0
   12.0319  -15.4759    0.0000 H   0  0  0  0  0  0  0  0  0  0  0  0
   12.6318  -11.0236    0.0000 H   0  0  0  0  0  0  0  0  0  0  0  0
   10.0450  -10.7818    0.0000 H   0  0  0  0  0  0  0  0  0  0  0  0
    7.2524  -11.8626    0.0000 H   0  0  0  0  0  0  0  0  0  0  0  0
    3.1876  -12.3893    0.0000 H   0  0  0  0  0  0  0  0  0  0  0  0
    1.3051  -13.0574    0.0000 H   0  0  0  0  0  0  0  0  0  0  0  0
    2.9174  -17.1936    0.0000 H   0  0  0  0  0  0  0  0  0  0  0  0
    1.3665  -16.6795    0.0000 H   0  0  0  0  0  0  0  0  0  0  0  0
    6.3846  -16.9157    0.0000 H   0  0  0  0  0  0  0  0  0  0  0  0
    4.2438  -18.2101    0.0000 H   0  0  0  0  0  0  0  0  0  0  0  0
   -0.0214  -12.0409    0.0000 H   0  0  0  0  0  0  0  0  0  0  0  0
   -2.0188  -12.0249    0.0000 H   0  0  0  0  0  0  0  0  0  0  0  0
   -2.0994  -16.4349    0.0000 H   0  0  0  0  0  0  0  0  0  0  0  0
   -3.1999  -15.4496    0.0000 H   0  0  0  0  0  0  0  0  0  0  0  0
    1.1628  -15.2446    0.0000 H   0  0  0  0  0  0  0  0  0  0  0  0
    0.1646  -13.9511    0.0000 H   0  0  0  0  0  0  0  0  0  0  0  0
   -0.0923  -18.3111    0.0000 H   0  0  0  0  0  0  0  0  0  0  0  0
   -1.4217  -17.1208    0.0000 H   0  0  0  0  0  0  0  0  0  0  0  0
    2.7843  -16.4496    0.0000 H   0  0  0  0  0  0  0  0  0  0  0  0
    3.6996  -20.5137    0.0000 H   0  0  0  0  0  0  0  0  0  0  0  0
    1.1861  -21.1711    0.0000 H   0  0  0  0  0  0  0  0  0  0  0  0
   -0.6400  -19.3231    0.0000 H   0  0  0  0  0  0  0  0  0  0  0  0
   -2.9176  -10.6161    0.0000 H   0  0  0  0  0  0  0  0  0  0  0  0
   -4.7891   -9.9179    0.0000 H   0  0  0  0  0  0  0  0  0  0  0  0
   -6.2127  -14.1227    0.0000 H   0  0  0  0  0  0  0  0  0  0  0  0
   -6.9581  -12.1968    0.0000 H   0  0  0  0  0  0  0  0  0  0  0  0
   -2.9006  -14.0316    0.0000 H   0  0  0  0  0  0  0  0  0  0  0  0
   -3.3962  -12.4747    0.0000 H   0  0  0  0  0  0  0  0  0  0  0  0
   -5.1288  -16.4839    0.0000 H   0  0  0  0  0  0  0  0  0  0  0  0
   -5.9864  -15.0932    0.0000 H   0  0  0  0  0  0  0  0  0  0  0  0
   -1.7891  -15.7185    0.0000 H   0  0  0  0  0  0  0  0  0  0  0  0
   -2.3189  -19.8505    0.0000 H   0  0  0  0  0  0  0  0  0  0  0  0
   -4.9057  -19.6087    0.0000 H   0  0  0  0  0  0  0  0  0  0  0  0
   -5.9896  -17.2475    0.0000 H   0  0  0  0  0  0  0  0  0  0  0  0
   -5.1519   -8.2866    0.0000 H   0  0  0  0  0  0  0  0  0  0  0  0
   -6.6717   -6.9904    0.0000 H   0  0  0  0  0  0  0  0  0  0  0  0
   -9.5682  -10.3168    0.0000 H   0  0  0  0  0  0  0  0  0  0  0  0
   -9.7009   -8.6884    0.0000 H   0  0  0  0  0  0  0  0  0  0  0  0
   -6.2074  -11.3463    0.0000 H   0  0  0  0  0  0  0  0  0  0  0  0
   -6.2373   -9.8694    0.0000 H   0  0  0  0  0  0  0  0  0  0  0  0
   -9.2366  -13.0442    0.0000 H   0  0  0  0  0  0  0  0  0  0  0  0
   -9.4899  -11.2779    0.0000 H   0  0  0  0  0  0  0  0  0  0  0  0
   -6.3393  -14.3617    0.0000 H   0  0  0  0  0  0  0  0  0  0  0  0
   -6.2496  -12.1694    0.0000 H   0  0  0  0  0  0  0  0  0  0  0  0
   -7.1056  -15.8132    0.0000 H   0  0  0  0  0  0  0  0  0  0  0  0
   -9.4536  -14.7012    0.0000 H   0  0  0  0  0  0  0  0  0  0  0  0
   -6.4546   -5.3334    0.0000 H   0  0  0  0  0  0  0  0  0  0  0  0
   -7.4395   -3.5956    0.0000 H   0  0  0  0  0  0  0  0  0  0  0  0
  -11.2329   -5.9016    0.0000 H   0  0  0  0  0  0  0  0  0  0  0  0
  -10.7227   -4.0419    0.0000 H   0  0  0  0  0  0  0  0  0  0  0  0
  -10.3572   -9.2679    0.0000 H   0  0  0  0  0  0  0  0  0  0  0  0
  -12.0036   -7.3844    0.0000 H   0  0  0  0  0  0  0  0  0  0  0  0
   -6.7280   -2.2861    0.0000 H   0  0  0  0  0  0  0  0  0  0  0  0
   -8.4227   -2.1440    0.0000 H   0  0  0  0  0  0  0  0  0  0  0  0
   -9.7117   -2.7469    0.0000 H   0  0  0  0  0  0  0  0  0  0  0  0
  -10.0537   -3.2234    0.0000 H   0  0  0  0  0  0  0  0  0  0  0  0
  -11.1111   -3.4902    0.0000 H   0  0  0  0  0  0  0  0  0  0  0  0
  -11.2696   -3.5454    0.0000 H   0  0  0  0  0  0  0  0  0  0  0  0
  -12.6286   -3.9674    0.0000 H   0  0  0  0  0  0  0  0  0  0  0  0
  -13.1287   -4.0403    0.0000 H   0  0  0  0  0  0  0  0  0  0  0  0
  -14.3863   -4.1027    0.0000 H   0  0  0  0  0  0  0  0  0  0  0  0
  -14.8912   -4.0796    0.0000 H   0  0  0  0  0  0  0  0  0  0  0  0
  -16.1379   -3.9029    0.0000 H   0  0  0  0  0  0  0  0  0  0  0  0
  -16.6293   -3.7847    0.0000 H   0  0  0  0  0  0  0  0  0  0  0  0
  -17.9442   -3.2407    0.0000 H   0  0  0  0  0  0  0  0  0  0  0  0
  -18.8950   -2.9726    0.0000 H   0  0  0  0  0  0  0  0  0  0  0  0
   -6.3852   -1.9252    0.0000 H   0  0  0  0  0  0  0  0  0  0  0  0
   -5.5265   -0.5352    0.0000 H   0  0  0  0  0  0  0  0  0  0  0  0
   -6.6201    0.8749    0.0000 H   0  0  0  0  0  0  0  0  0  0  0  0
   -5.5697    1.5303    0.0000 H   0  0  0  0  0  0  0  0  0  0  0  0
   -5.4937    2.5483    0.0000 H   0  0  0  0  0  0  0  0  0  0  0  0
   -5.5045    5.6633    0.0000 H   0  0  0  0  0  0  0  0  0  0  0  0
   -2.4833    4.8876    0.0000 H   0  0  0  0  0  0  0  0  0  0  0  0
   -2.4441    3.6489    0.0000 H   0  0  0  0  0  0  0  0  0  0  0  0
   -3.1263    2.0000    0.0000 H   0  0  0  0  0  0  0  0  0  0  0  0
   -4.7592    2.0563    0.0000 H   0  0  0  0  0  0  0  0  0  0  0  0
   -4.9992    6.9641    0.0000 H   0  0  0  0  0  0  0  0  0  0  0  0
   -5.4193    7.8581    0.0000 H   0  0  0  0  0  0  0  0  0  0  0  0
   -5.4179   10.7035    0.0000 H   0  0  0  0  0  0  0  0  0  0  0  0
   -7.1548   10.2946    0.0000 H   0  0  0  0  0  0  0  0  0  0  0  0
   -3.8158   11.7409    0.0000 H   0  0  0  0  0  0  0  0  0  0  0  0
   -0.8404   10.4006    0.0000 H   0  0  0  0  0  0  0  0  0  0  0  0
   -1.1957    7.1566    0.0000 H   0  0  0  0  0  0  0  0  0  0  0  0
   -7.3146   11.5222    0.0000 H   0  0  0  0  0  0  0  0  0  0  0  0
   -8.2091   12.0142    0.0000 H   0  0  0  0  0  0  0  0  0  0  0  0
   -9.8069   14.5815    0.0000 H   0  0  0  0  0  0  0  0  0  0  0  0
  -11.0470   13.2985    0.0000 H   0  0  0  0  0  0  0  0  0  0  0  0
   -6.7268   13.9400    0.0000 H   0  0  0  0  0  0  0  0  0  0  0  0
   -7.4564   12.4781    0.0000 H   0  0  0  0  0  0  0  0  0  0  0  0
   -6.6903   17.4339    0.0000 H   0  0  0  0  0  0  0  0  0  0  0  0
   -5.5319   15.1083    0.0000 H   0  0  0  0  0  0  0  0  0  0  0  0
  -11.8452   14.2448    0.0000 H   0  0  0  0  0  0  0  0  0  0  0  0
  -12.8636   14.1752    0.0000 H   0  0  0  0  0  0  0  0  0  0  0  0
  -15.5958   15.4711    0.0000 H   0  0  0  0  0  0  0  0  0  0  0  0
  -15.9454   13.7212    0.0000 H   0  0  0  0  0  0  0  0  0  0  0  0
  -12.6578   16.5965    0.0000 H   0  0  0  0  0  0  0  0  0  0  0  0
  -12.4812   14.9723    0.0000 H   0  0  0  0  0  0  0  0  0  0  0  0
  -14.5160   19.5556    0.0000 H   0  0  0  0  0  0  0  0  0  0  0  0
  -12.2842   18.2254    0.0000 H   0  0  0  0  0  0  0  0  0  0  0  0
  -17.3048   14.0362    0.0000 H   0  0  0  0  0  0  0  0  0  0  0  0
  -18.1300   13.4932    0.0000 H   0  0  0  0  0  0  0  0  0  0  0  0
  -20.9466   13.0897    0.0000 H   0  0  0  0  0  0  0  0  0  0  0  0
  -20.2947   11.4286    0.0000 H   0  0  0  0  0  0  0  0  0  0  0  0
  -18.3263   16.4913    0.0000 H   0  0  0  0  0  0  0  0  0  0  0  0
  -21.4871   11.0957    0.0000 H   0  0  0  0  0  0  0  0  0  0  0  0
  -21.8468   10.1403    0.0000 H   0  0  0  0  0  0  0  0  0  0  0  0
  -22.7141    7.1485    0.0000 H   0  0  0  0  0  0  0  0  0  0  0  0
  -25.0934    9.9634    0.0000 H   0  0  0  0  0  0  0  0  0  0  0  0
  -23.9639   11.3334    0.0000 H   0  0  0  0  0  0  0  0  0  0  0  0
  -22.4130   10.8193    0.0000 H   0  0  0  0  0  0  0  0  0  0  0  0
  -25.1614    6.9683    0.0000 H   0  0  0  0  0  0  0  0  0  0  0  0
  -23.2414    6.7888    0.0000 H   0  0  0  0  0  0  0  0  0  0  0  0
  -26.6812    8.2644    0.0000 H   0  0  0  0  0  0  0  0  0  0  0  0
  -26.1711   10.1241    0.0000 H   0  0  0  0  0  0  0  0  0  0  0  0
  -24.5379   10.1714    0.0000 H   0  0  0  0  0  0  0  0  0  0  0  0
  -23.5654    6.0428    0.0000 H   0  0  0  0  0  0  0  0  0  0  0  0
  -22.7801    1.8109    0.0000 H   0  0  0  0  0  0  0  0  0  0  0  0
  -23.2817    2.9658    0.0000 H   0  0  0  0  0  0  0  0  0  0  0  0
  -22.1412    0.3541    0.0000 H   0  0  0  0  0  0  0  0  0  0  0  0
  -22.7010    1.2900    0.0000 H   0  0  0  0  0  0  0  0  0  0  0  0
  -20.9186   -1.1314    0.0000 H   0  0  0  0  0  0  0  0  0  0  0  0
  -21.8671   -0.0705    0.0000 H   0  0  0  0  0  0  0  0  0  0  0  0
  -20.3512   -1.9400    0.0000 H   0  0  0  0  0  0  0  0  0  0  0  0
  -24.8260    4.5598    0.0000 H   0  0  0  0  0  0  0  0  0  0  0  0
  -24.4515    6.1501    0.0000 H   0  0  0  0  0  0  0  0  0  0  0  0
  -22.6813    6.3753    0.0000 H   0  0  0  0  0  0  0  0  0  0  0  0
  -25.0182    5.5221    0.0000 H   0  0  0  0  0  0  0  0  0  0  0  0
  -24.7334    2.1428    0.0000 H   0  0  0  0  0  0  0  0  0  0  0  0
  -26.9733    0.4311    0.0000 H   0  0  0  0  0  0  0  0  0  0  0  0
  -25.2611    1.3181    0.0000 H   0  0  0  0  0  0  0  0  0  0  0  0
  -30.2305    3.6450    0.0000 H   0  0  0  0  0  0  0  0  0  0  0  0
  -28.5866    1.3344    0.0000 H   0  0  0  0  0  0  0  0  0  0  0  0
  -28.9900    4.6646    0.0000 H   0  0  0  0  0  0  0  0  0  0  0  0
  -31.4248    5.8228    0.0000 H   0  0  0  0  0  0  0  0  0  0  0  0
  -29.7105    5.3275    0.0000 H   0  0  0  0  0  0  0  0  0  0  0  0
  -32.1671    2.4778    0.0000 H   0  0  0  0  0  0  0  0  0  0  0  0
  -34.9132    4.7137    0.0000 H   0  0  0  0  0  0  0  0  0  0  0  0
  -34.1277    6.3160    0.0000 H   0  0  0  0  0  0  0  0  0  0  0  0
  -32.3658    6.0333    0.0000 H   0  0  0  0  0  0  0  0  0  0  0  0
  -34.9703    3.4614    0.0000 H   0  0  0  0  0  0  0  0  0  0  0  0
  -34.3341    1.7942    0.0000 H   0  0  0  0  0  0  0  0  0  0  0  0
  -32.4218    2.0421    0.0000 H   0  0  0  0  0  0  0  0  0  0  0  0
  -31.9893    0.0920    0.0000 H   0  0  0  0  0  0  0  0  0  0  0  0
  1  2  1  0
  2  3  1  0
  3  4  2  0
  4  5  1  0
  5  6  2  0
  6  7  1  0
  7  8  2  0
  7  9  1  0
  9 10  1  0
 10 11  1  0
 11 12  2  0
  9 13  1  0
 13 14  1  0
 14 15  2  0
 15 16  1  0
 16 17  2  0
 17 18  1  0
 16 19  1  0
 14 20  1  0
 20 21  1  0
 21 22  2  0
 22 23  1  0
 23 24  2  0
 24 25  1  0
 25 26  2  0
 25 27  1  0
  1 28  2  0
  1 29  1  0
 29 30  1  0
 30 31  1  0
 31 32  1  0
 32 33  2  0
 32 34  1  0
 34 35  1  0
 35 36  1  0
 36 37  1  0
 37 38  1  0
 38 39  1  0
 39 40  1  0
 35 41  1  0
 41 42  2  0
 41 43  1  0
 43 44  1  0
 44 45  1  0
 44 46  1  0
 46 47  2  0
 46 48  1  0
 48 49  1  0
 49 50  1  0
 50 51  1  0
 50 52  1  0
 49 53  1  0
 53 54  2  0
 53 55  1  0
 55 56  1  0
 56 57  1  0
 57 58  1  0
 58 59  1  0
 59 60  2  0
 59 61  1  0
 56 62  1  0
 62 63  2  0
 62 64  1  0
 64 65  1  0
 65 66  1  0
 66 67  1  0
 67 68  2  0
 68 69  1  0
 69 70  2  0
 70 71  1  0
 70 72  1  0
 72 73  2  0
 65 74  1  0
 74 75  2  0
 74 76  1  0
 76 77  1  0
 77 78  1  0
 78 79  1  0
 78 80  1  0
 80 81  1  0
 77 82  1  0
 82 83  2  0
 82 84  1  0
 84 85  1  0
 85 86  1  0
 86 87  1  0
 87 88  1  0
 88 89  1  0
 88 90  2  0
 85 91  1  0
 91 92  2  0
 91 93  1  0
 93 94  1  0
 94 95  1  0
 95 96  1  0
 96 97  2  0
 97 98  1  0
 98 99  2  0
 99100  1  0
 99101  1  0
101102  2  0
 94103  1  0
103104  2  0
103105  1  0
105106  1  0
106107  1  0
107108  1  0
108109  1  0
108110  2  0
106111  1  0
111112  2  0
111113  1  0
113114  1  0
114115  1  0
115116  1  0
116117  1  0
117118  1  0
118119  1  0
119120  2  3
119121  1  0
114122  1  0
122123  2  0
122124  1  0
124125  1  0
125126  1  0
126127  1  0
127128  1  0
128129  1  0
129130  1  0
130131  2  3
130132  1  0
125133  1  0
133134  2  0
133135  1  0
135136  1  0
136137  1  0
137138  1  0
138139  1  0
139140  1  0
140141  1  0
136142  1  0
142143  2  0
142144  1  0
144145  1  0
145146  1  0
146147  1  0
147148  1  0
147149  2  0
145150  1  0
150151  2  0
150152  1  0
153152  1  6
153154  1  0
154155  1  0
155156  1  0
156157  1  0
157158  1  0
158159  1  0
159160  1  0
153161  1  0
153162  1  0
162163  2  0
162164  1  0
164165  1  0
165166  1  0
166167  1  0
166168  1  0
165169  1  0
169170  2  0
169171  1  0
171172  1  0
172173  1  0
173174  1  0
174175  2  0
175176  1  0
176177  1  0
177178  2  0
172179  1  0
179180  2  0
179181  1  0
181182  1  0
182183  1  0
183184  1  0
184185  1  0
185186  1  0
185187  2  0
182188  1  0
188189  2  0
188190  1  0
190191  1  0
191192  1  0
192193  1  0
193194  1  0
194195  1  0
194196  2  0
191197  1  0
197198  2  0
197199  1  0
199200  1  0
200201  1  0
201202  1  0
202203  2  0
202204  1  0
200205  1  0
205206  2  0
205207  1  0
207208  1  0
208209  1  0
209210  1  0
209211  1  0
211212  1  0
208213  1  0
213214  2  0
213215  1  0
215216  1  0
216217  1  0
217218  1  0
218219  1  0
219220  1  0
216221  1  0
216222  1  1
222223  2  0
222224  1  0
224225  1  0
225226  1  0
226227  1  0
227228  2  0
227229  1  0
225230  1  0
230231  2  0
230232  1  0
232233  1  0
233234  1  0
234235  1  0
235236  1  0
235237  1  0
233238  1  0
238239  2  0
238240  1  0
  8  3  1  0
 73 67  1  0
102 96  1  0
178174  1  0
 11  6  1  0
160220  2  0
 18 13  2  0
 22  9  1  0
 26 21  1  0
  2241  1  0
  4242  1  0
  5243  1  0
  8244  1  0
 15245  1  0
 17246  1  0
 18247  1  0
 19248  1  0
 23249  1  0
 24250  1  0
 26251  1  0
 27252  1  0
 29253  1  0
 30254  1  0
 30255  1  0
 31256  1  0
 31257  1  0
 34258  1  0
 35259  1  1
 36260  1  0
 36261  1  0
 37262  1  0
 37263  1  0
 38264  1  0
 38265  1  0
 39266  1  0
 39267  1  0
 40268  1  0
 40269  1  0
 43270  1  0
 44271  1  1
 45272  1  0
 45273  1  0
 45274  1  0
 48275  1  0
 49276  1  1
 50277  1  6
 51278  1  0
 52279  1  0
 52280  1  0
 52281  1  0
 55282  1  0
 56283  1  1
 57284  1  0
 57285  1  0
 58286  1  0
 58287  1  0
 61288  1  0
 64289  1  0
 65290  1  6
 66291  1  0
 66292  1  0
 68293  1  0
 69294  1  0
 71295  1  0
 72296  1  0
 73297  1  0
 76298  1  0
 77299  1  6
 78300  1  1
 79301  1  0
 79302  1  0
 79303  1  0
 80304  1  0
 80305  1  0
 81306  1  0
 81307  1  0
 81308  1  0
 84309  1  0
 85310  1  1
 86311  1  0
 86312  1  0
 87313  1  0
 87314  1  0
 89315  1  0
 89316  1  0
 93317  1  0
 94318  1  1
 95319  1  0
 95320  1  0
 97321  1  0
 98322  1  0
100323  1  0
101324  1  0
102325  1  0
105326  1  0
106327  1  6
107328  1  0
107329  1  0
109330  1  0
109331  1  0
113332  1  0
114333  1  1
115334  1  0
115335  1  0
116336  1  0
116337  1  0
117338  1  0
117339  1  0
118340  1  0
120341  1  0
121342  1  0
121343  1  0
124344  1  0
125345  1  1
126346  1  0
126347  1  0
127348  1  0
127349  1  0
128350  1  0
128351  1  0
129352  1  0
131353  1  0
132354  1  0
132355  1  0
135356  1  0
136357  1  1
137358  1  0
137359  1  0
138360  1  0
138361  1  0
139362  1  0
139363  1  0
140364  1  0
140365  1  0
141366  1  0
141367  1  0
144368  1  0
145369  1  1
146370  1  0
146371  1  0
148372  1  0
148373  1  0
152374  1  0
154375  1  0
154376  1  0
155377  1  0
155378  1  0
156379  1  0
156380  1  0
157381  1  0
157382  1  0
158383  1  0
158384  1  0
159385  1  0
159386  1  0
160387  1  0
161388  1  0
161389  1  0
161390  1  0
164391  1  0
165392  1  6
166393  1  1
167394  1  0
168395  1  0
168396  1  0
168397  1  0
171398  1  0
172399  1  6
173400  1  0
173401  1  0
175402  1  0
176403  1  0
177404  1  0
181405  1  0
182406  1  6
183407  1  0
183408  1  0
184409  1  0
184410  1  0
186411  1  0
186412  1  0
190413  1  0
191414  1  6
192415  1  0
192416  1  0
193417  1  0
193418  1  0
195419  1  0
195420  1  0
199421  1  0
200422  1  6
201423  1  0
201424  1  0
204425  1  0
207426  1  0
208427  1  6
209428  1  1
210429  1  0
210430  1  0
210431  1  0
211432  1  0
211433  1  0
212434  1  0
212435  1  0
212436  1  0
215437  1  0
217438  1  0
217439  1  0
218440  1  0
218441  1  0
219442  1  0
219443  1  0
220444  1  0
221445  1  0
221446  1  0
221447  1  0
224448  1  0
225449  1  1
226450  1  0
226451  1  0
229452  1  0
232453  1  0
233454  1  6
234455  1  0
234456  1  0
235457  1  0
236458  1  0
236459  1  0
236460  1  0
237461  1  0
237462  1  0
237463  1  0
240464  1  0
M  END
