
     RDKit          2D

265266  0  0  0  0  0  0  0  0999 V2000
  -20.6847   -2.2625    0.0000 N   0  0  0  0  0  0  0  0  0  0  0  0
  -19.2982   -2.8348    0.0000 C   0  0  0  0  0  0  0  0  0  0  0  0
  -19.1005   -4.3218    0.0000 C   0  0  0  0  0  0  0  0  0  0  0  0
  -17.7140   -4.8941    0.0000 C   0  0  0  0  0  0  0  0  0  0  0  0
  -16.5251   -3.9794    0.0000 O   0  0  0  0  0  0  0  0  0  0  0  0
  -17.5164   -6.3810    0.0000 N   0  0  0  0  0  0  0  0  0  0  0  0
  -16.1298   -6.9533    0.0000 C   0  0  0  0  0  0  0  0  0  0  0  0
  -16.9342   -8.2194    0.0000 C   0  0  0  0  0  0  0  0  0  0  0  0
  -18.4329   -8.1558    0.0000 C   0  0  0  0  0  0  0  0  0  0  0  0
  -19.2372   -9.4219    0.0000 N   0  0  0  0  0  0  0  0  0  0  0  0
  -19.2840   -6.9207    0.0000 O   0  0  0  0  0  0  0  0  0  0  0  0
  -14.6312   -7.0169    0.0000 C   0  0  0  0  0  0  0  0  0  0  0  0
  -14.1042   -8.4212    0.0000 O   0  0  0  0  0  0  0  0  0  0  0  0
  -13.8268   -5.7508    0.0000 N   0  0  0  0  0  0  0  0  0  0  0  0
  -12.3282   -5.8143    0.0000 C   0  0  0  0  0  0  0  0  0  0  0  0
  -12.6510   -7.2792    0.0000 C   0  0  0  0  0  0  0  0  0  0  0  0
  -11.5438   -8.2912    0.0000 C   0  0  0  0  0  0  0  0  0  0  0  0
  -11.8667   -9.7560    0.0000 C   0  0  0  0  0  0  0  0  0  0  0  0
  -10.7595  -10.7681    0.0000 O   0  0  0  0  0  0  0  0  0  0  0  0
  -13.2967  -10.2089    0.0000 O   0  0  0  0  0  0  0  0  0  0  0  0
  -10.8981   -5.3615    0.0000 C   0  0  0  0  0  0  0  0  0  0  0  0
   -9.7910   -6.3735    0.0000 O   0  0  0  0  0  0  0  0  0  0  0  0
  -10.5753   -3.8967    0.0000 N   0  0  0  0  0  0  0  0  0  0  0  0
   -9.1453   -3.4438    0.0000 C   0  0  0  0  0  0  0  0  0  0  0  0
   -9.8396   -2.1142    0.0000 C   0  0  0  0  0  0  0  0  0  0  0  0
  -11.3382   -2.0506    0.0000 C   0  0  0  0  0  0  0  0  0  0  0  0
  -12.0325   -0.7209    0.0000 C   0  0  0  0  0  0  0  0  0  0  0  0
  -12.7682   -2.5034    0.0000 C   0  0  0  0  0  0  0  0  0  0  0  0
   -7.6466   -3.5074    0.0000 C   0  0  0  0  0  0  0  0  0  0  0  0
   -7.1196   -4.9118    0.0000 O   0  0  0  0  0  0  0  0  0  0  0  0
   -6.8422   -2.2413    0.0000 N   0  0  0  0  0  0  0  0  0  0  0  0
   -5.3436   -2.3049    0.0000 C   0  0  0  0  0  0  0  0  0  0  0  0
   -4.4866   -3.5360    0.0000 C   0  0  0  0  0  0  0  0  0  0  0  0
   -3.4121   -4.5826    0.0000 C   0  0  0  0  0  0  0  0  0  0  0  0
   -2.1589   -5.4069    0.0000 C   0  0  0  0  0  0  0  0  0  0  0  0
   -0.7724   -5.9793    0.0000 C   0  0  0  0  0  0  0  0  0  0  0  0
    0.6974   -6.2788    0.0000 C   0  0  0  0  0  0  0  0  0  0  0  0
    2.1973   -6.2948    0.0000 C   0  0  0  0  0  0  0  0  0  0  0  0
    3.6731   -6.0266    0.0000 C   0  0  0  0  0  0  0  0  0  0  0  0
   -6.2209   -3.5216    0.0000 C   0  0  0  0  0  0  0  0  0  0  0  0
   -5.9521   -0.9339    0.0000 C   0  0  0  0  0  0  0  0  0  0  0  0
   -7.4221   -1.2324    0.0000 O   0  0  0  0  0  0  0  0  0  0  0  0
   -6.2902    0.5275    0.0000 N   0  0  0  0  0  0  0  0  0  0  0  0
   -6.3456    2.0265    0.0000 C   0  0  0  0  0  0  0  0  0  0  0  0
   -7.6641    1.3112    0.0000 C   0  0  0  0  0  0  0  0  0  0  0  0
   -8.9428    2.0954    0.0000 C   0  0  0  0  0  0  0  0  0  0  0  0
   -8.9030    3.5949    0.0000 C   0  0  0  0  0  0  0  0  0  0  0  0
  -10.1817    4.3791    0.0000 N   0  0  0  0  0  0  0  0  0  0  0  0
  -10.1419    5.8786    0.0000 C   0  0  0  0  0  0  0  0  0  0  0  0
  -11.4206    6.6627    0.0000 N   0  0  0  0  0  0  0  0  0  0  0  0
   -8.8234    6.5938    0.0000 N   0  0  0  0  0  0  0  0  0  0  0  0
   -6.1163    3.5089    0.0000 C   0  0  0  0  0  0  0  0  0  0  0  0
   -7.6044    3.6981    0.0000 O   0  0  0  0  0  0  0  0  0  0  0  0
   -5.6106    4.9211    0.0000 N   0  0  0  0  0  0  0  0  0  0  0  0
   -4.8468    6.2120    0.0000 C   0  0  0  0  0  0  0  0  0  0  0  0
   -6.3427    6.3231    0.0000 C   0  0  0  0  0  0  0  0  0  0  0  0
   -6.9945    7.6741    0.0000 O   0  0  0  0  0  0  0  0  0  0  0  0
   -3.8525    7.3351    0.0000 C   0  0  0  0  0  0  0  0  0  0  0  0
   -4.8760    8.4317    0.0000 O   0  0  0  0  0  0  0  0  0  0  0  0
   -2.6636    8.2498    0.0000 N   0  0  0  0  0  0  0  0  0  0  0  0
   -1.3231    8.9228    0.0000 C   0  0  0  0  0  0  0  0  0  0  0  0
   -2.5215    9.8250    0.0000 C   0  0  0  0  0  0  0  0  0  0  0  0
   -2.3393   11.3139    0.0000 C   0  0  0  0  0  0  0  0  0  0  0  0
   -0.9588   11.9006    0.0000 C   0  0  0  0  0  0  0  0  0  0  0  0
   -0.7767   13.3895    0.0000 C   0  0  0  0  0  0  0  0  0  0  0  0
   -1.9751   14.2917    0.0000 C   0  0  0  0  0  0  0  0  0  0  0  0
   -3.3556   13.7050    0.0000 C   0  0  0  0  0  0  0  0  0  0  0  0
   -3.5377   12.2161    0.0000 C   0  0  0  0  0  0  0  0  0  0  0  0
    0.1205    9.3301    0.0000 C   0  0  0  0  0  0  0  0  0  0  0  0
    0.0343   10.8276    0.0000 O   0  0  0  0  0  0  0  0  0  0  0  0
    1.6152    9.4567    0.0000 N   0  0  0  0  0  0  0  0  0  0  0  0
    3.1068    9.2982    0.0000 C   0  0  0  0  0  0  0  0  0  0  0  0
    2.5864   10.7051    0.0000 C   0  0  0  0  0  0  0  0  0  0  0  0
    3.5446   11.8592    0.0000 C   0  0  0  0  0  0  0  0  0  0  0  0
    3.0242   13.2660    0.0000 C   0  0  0  0  0  0  0  0  0  0  0  0
    3.9824   14.4201    0.0000 N   0  0  0  0  0  0  0  0  0  0  0  0
    3.4621   15.8269    0.0000 C   0  0  0  0  0  0  0  0  0  0  0  0
    4.4202   16.9810    0.0000 N   0  0  0  0  0  0  0  0  0  0  0  0
    1.9835   16.0797    0.0000 N   0  0  0  0  0  0  0  0  0  0  0  0
    4.5414    8.8603    0.0000 C   0  0  0  0  0  0  0  0  0  0  0  0
    5.2785   10.1668    0.0000 O   0  0  0  0  0  0  0  0  0  0  0  0
    5.8673    8.1588    0.0000 N   0  0  0  0  0  0  0  0  0  0  0  0
    7.0364    7.2191    0.0000 C   0  0  0  0  0  0  0  0  0  0  0  0
    7.3593    8.6839    0.0000 C   0  0  0  0  0  0  0  0  0  0  0  0
    8.0066    6.0750    0.0000 C   0  0  0  0  0  0  0  0  0  0  0  0
    9.2376    6.9320    0.0000 O   0  0  0  0  0  0  0  0  0  0  0  0
    8.7427    4.7681    0.0000 N   0  0  0  0  0  0  0  0  0  0  0  0
    9.2181    3.3454    0.0000 C   0  0  0  0  0  0  0  0  0  0  0  0
   10.2817    4.4032    0.0000 C   0  0  0  0  0  0  0  0  0  0  0  0
   11.7295    4.0110    0.0000 C   0  0  0  0  0  0  0  0  0  0  0  0
   12.7931    5.0688    0.0000 C   0  0  0  0  0  0  0  0  0  0  0  0
   12.9559    3.1473    0.0000 C   0  0  0  0  0  0  0  0  0  0  0  0
    9.4158    1.8585    0.0000 C   0  0  0  0  0  0  0  0  0  0  0  0
   10.9103    1.7308    0.0000 O   0  0  0  0  0  0  0  0  0  0  0  0
    9.3284    0.3610    0.0000 N   0  0  0  0  0  0  0  0  0  0  0  0
    8.9593   -1.0928    0.0000 C   0  0  0  0  0  0  0  0  0  0  0  0
    8.3217   -2.4506    0.0000 C   0  0  0  0  0  0  0  0  0  0  0  0
    7.4386   -3.6631    0.0000 C   0  0  0  0  0  0  0  0  0  0  0  0
    6.3420   -4.6866    0.0000 C   0  0  0  0  0  0  0  0  0  0  0  0
    5.0716   -5.4840    0.0000 C   0  0  0  0  0  0  0  0  0  0  0  0
   10.0288   -2.1445    0.0000 C   0  0  0  0  0  0  0  0  0  0  0  0
   10.4259   -0.7780    0.0000 C   0  0  0  0  0  0  0  0  0  0  0  0
   11.0571    0.5828    0.0000 O   0  0  0  0  0  0  0  0  0  0  0  0
   11.4318   -1.8906    0.0000 N   0  0  0  0  0  0  0  0  0  0  0  0
   12.8984   -1.5758    0.0000 C   0  0  0  0  0  0  0  0  0  0  0  0
   14.1689   -0.7783    0.0000 C   0  0  0  0  0  0  0  0  0  0  0  0
   15.4947   -1.4798    0.0000 C   0  0  0  0  0  0  0  0  0  0  0  0
   16.7652   -0.6824    0.0000 O   0  0  0  0  0  0  0  0  0  0  0  0
   15.6210   -2.2669    0.0000 O   0  0  0  0  0  0  0  0  0  0  0  0
   13.9044   -2.6885    0.0000 C   0  0  0  0  0  0  0  0  0  0  0  0
   14.6984   -2.6174    0.0000 O   0  0  0  0  0  0  0  0  0  0  0  0
   13.4437   -4.1160    0.0000 N   0  0  0  0  0  0  0  0  0  0  0  0
   14.4497   -5.2287    0.0000 C   0  0  0  0  0  0  0  0  0  0  0  0
   15.7756   -5.9302    0.0000 C   0  0  0  0  0  0  0  0  0  0  0  0
   15.8310   -7.4292    0.0000 C   0  0  0  0  0  0  0  0  0  0  0  0
   17.1568   -8.1307    0.0000 C   0  0  0  0  0  0  0  0  0  0  0  0
   17.3945   -9.6117    0.0000 N   0  0  0  0  0  0  0  0  0  0  0  0
   18.4273   -7.3332    0.0000 O   0  0  0  0  0  0  0  0  0  0  0  0
   13.9891   -6.6562    0.0000 C   0  0  0  0  0  0  0  0  0  0  0  0
   12.5225   -6.9710    0.0000 O   0  0  0  0  0  0  0  0  0  0  0  0
   14.9950   -7.7689    0.0000 N   0  0  0  0  0  0  0  0  0  0  0  0
   14.5344   -9.1964    0.0000 C   0  0  0  0  0  0  0  0  0  0  0  0
   13.6133  -10.3803    0.0000 C   0  0  0  0  0  0  0  0  0  0  0  0
   14.1781  -11.7699    0.0000 C   0  0  0  0  0  0  0  0  0  0  0  0
   12.3429  -11.1777    0.0000 C   0  0  0  0  0  0  0  0  0  0  0  0
   11.0170  -10.4762    0.0000 C   0  0  0  0  0  0  0  0  0  0  0  0
   15.5404  -10.3091    0.0000 C   0  0  0  0  0  0  0  0  0  0  0  0
   15.2572  -11.7821    0.0000 O   0  0  0  0  0  0  0  0  0  0  0  0
   17.0344  -10.1753    0.0000 O   0  0  0  0  0  0  0  0  0  0  0  0
  -20.8823   -0.7756    0.0000 H   0  0  0  0  0  0  0  0  0  0  0  0
  -21.8736   -3.1771    0.0000 H   0  0  0  0  0  0  0  0  0  0  0  0
  -18.9753   -1.3700    0.0000 H   0  0  0  0  0  0  0  0  0  0  0  0
  -17.7995   -2.8984    0.0000 H   0  0  0  0  0  0  0  0  0  0  0  0
  -20.5992   -4.2582    0.0000 H   0  0  0  0  0  0  0  0  0  0  0  0
  -19.4234   -5.7866    0.0000 H   0  0  0  0  0  0  0  0  0  0  0  0
  -18.8079   -7.1439    0.0000 H   0  0  0  0  0  0  0  0  0  0  0  0
  -15.8070   -5.4884    0.0000 H   0  0  0  0  0  0  0  0  0  0  0  0
  -17.2571   -9.6842    0.0000 H   0  0  0  0  0  0  0  0  0  0  0  0
  -15.5477   -8.7917    0.0000 H   0  0  0  0  0  0  0  0  0  0  0  0
  -20.7359   -9.3583    0.0000 H   0  0  0  0  0  0  0  0  0  0  0  0
  -18.5430  -10.7515    0.0000 H   0  0  0  0  0  0  0  0  0  0  0  0
  -14.5211   -4.4211    0.0000 H   0  0  0  0  0  0  0  0  0  0  0  0
  -12.7056   -4.3626    0.0000 H   0  0  0  0  0  0  0  0  0  0  0  0
  -13.2950   -8.6339    0.0000 H   0  0  0  0  0  0  0  0  0  0  0  0
  -14.1348   -7.0594    0.0000 H   0  0  0  0  0  0  0  0  0  0  0  0
  -10.1573   -8.8635    0.0000 H   0  0  0  0  0  0  0  0  0  0  0  0
  -10.7394   -7.0251    0.0000 H   0  0  0  0  0  0  0  0  0  0  0  0
  -11.7976   -3.0272    0.0000 H   0  0  0  0  0  0  0  0  0  0  0  0
   -8.9476   -4.9308    0.0000 H   0  0  0  0  0  0  0  0  0  0  0  0
   -9.8545   -0.6142    0.0000 H   0  0  0  0  0  0  0  0  0  0  0  0
   -8.4095   -1.6613    0.0000 H   0  0  0  0  0  0  0  0  0  0  0  0
  -11.6867   -3.5096    0.0000 H   0  0  0  0  0  0  0  0  0  0  0  0
  -13.5122   -0.4752    0.0000 H   0  0  0  0  0  0  0  0  0  0  0  0
  -12.2301    0.7660    0.0000 H   0  0  0  0  0  0  0  0  0  0  0  0
  -10.6683   -0.0972    0.0000 H   0  0  0  0  0  0  0  0  0  0  0  0
  -13.2672   -3.9180    0.0000 H   0  0  0  0  0  0  0  0  0  0  0  0
  -14.2669   -2.4399    0.0000 H   0  0  0  0  0  0  0  0  0  0  0  0
  -13.1456   -1.0517    0.0000 H   0  0  0  0  0  0  0  0  0  0  0  0
   -7.6934   -1.0062    0.0000 H   0  0  0  0  0  0  0  0  0  0  0  0
   -5.1178   -4.8967    0.0000 H   0  0  0  0  0  0  0  0  0  0  0  0
   -5.9322   -3.9363    0.0000 H   0  0  0  0  0  0  0  0  0  0  0  0
   -3.7743   -6.0382    0.0000 H   0  0  0  0  0  0  0  0  0  0  0  0
   -4.7558   -5.2493    0.0000 H   0  0  0  0  0  0  0  0  0  0  0  0
   -2.2392   -6.9048    0.0000 H   0  0  0  0  0  0  0  0  0  0  0  0
   -3.3521   -6.3159    0.0000 H   0  0  0  0  0  0  0  0  0  0  0  0
   -0.5677   -7.4652    0.0000 H   0  0  0  0  0  0  0  0  0  0  0  0
   -1.7720   -7.0976    0.0000 H   0  0  0  0  0  0  0  0  0  0  0  0
    1.1796   -7.6992    0.0000 H   0  0  0  0  0  0  0  0  0  0  0  0
   -0.0725   -7.5662    0.0000 H   0  0  0  0  0  0  0  0  0  0  0  0
    3.0930   -7.4981    0.0000 H   0  0  0  0  0  0  0  0  0  0  0  0
    1.6850   -7.7046    0.0000 H   0  0  0  0  0  0  0  0  0  0  0  0
    4.0804   -7.4703    0.0000 H   0  0  0  0  0  0  0  0  0  0  0  0
   -7.4944   -3.9726    0.0000 H   0  0  0  0  0  0  0  0  0  0  0  0
   -6.1022   -5.0991    0.0000 H   0  0  0  0  0  0  0  0  0  0  0  0
   -4.8334   -4.4665    0.0000 H   0  0  0  0  0  0  0  0  0  0  0  0
   -7.7420    0.1501    0.0000 H   0  0  0  0  0  0  0  0  0  0  0  0
   -7.4576    3.0333    0.0000 H   0  0  0  0  0  0  0  0  0  0  0  0
   -8.7879    0.3177    0.0000 H   0  0  0  0  0  0  0  0  0  0  0  0
   -7.0426   -0.0540    0.0000 H   0  0  0  0  0  0  0  0  0  0  0  0
  -10.4126    2.3950    0.0000 H   0  0  0  0  0  0  0  0  0  0  0  0
   -9.4930    0.7000    0.0000 H   0  0  0  0  0  0  0  0  0  0  0  0
   -8.3528    4.9903    0.0000 H   0  0  0  0  0  0  0  0  0  0  0  0
   -7.4332    3.2953    0.0000 H   0  0  0  0  0  0  0  0  0  0  0  0
  -11.5002    3.6638    0.0000 H   0  0  0  0  0  0  0  0  0  0  0  0
  -11.3808    8.1622    0.0000 H   0  0  0  0  0  0  0  0  0  0  0  0
  -12.7391    5.9475    0.0000 H   0  0  0  0  0  0  0  0  0  0  0  0
   -8.9667    8.0870    0.0000 H   0  0  0  0  0  0  0  0  0  0  0  0
   -7.7725    5.5235    0.0000 H   0  0  0  0  0  0  0  0  0  0  0  0
   -7.0823    5.2112    0.0000 H   0  0  0  0  0  0  0  0  0  0  0  0
   -5.4116    7.6017    0.0000 H   0  0  0  0  0  0  0  0  0  0  0  0
   -7.7864    5.9159    0.0000 H   0  0  0  0  0  0  0  0  0  0  0  0
   -6.5580    4.8387    0.0000 H   0  0  0  0  0  0  0  0  0  0  0  0
   -8.4656    7.9667    0.0000 H   0  0  0  0  0  0  0  0  0  0  0  0
   -3.6100    9.4135    0.0000 H   0  0  0  0  0  0  0  0  0  0  0  0
   -1.0469   10.3972    0.0000 H   0  0  0  0  0  0  0  0  0  0  0  0
   -3.8921   10.4346    0.0000 H   0  0  0  0  0  0  0  0  0  0  0  0
   -3.5051    8.6926    0.0000 H   0  0  0  0  0  0  0  0  0  0  0  0
    0.3405   11.1513    0.0000 H   0  0  0  0  0  0  0  0  0  0  0  0
    0.6038   13.9763    0.0000 H   0  0  0  0  0  0  0  0  0  0  0  0
   -1.7929   15.7806    0.0000 H   0  0  0  0  0  0  0  0  0  0  0  0
   -4.5539   14.6072    0.0000 H   0  0  0  0  0  0  0  0  0  0  0  0
   -4.9182   11.6294    0.0000 H   0  0  0  0  0  0  0  0  0  0  0  0
    1.4482   10.9474    0.0000 H   0  0  0  0  0  0  0  0  0  0  0  0
    4.2615   10.2556    0.0000 H   0  0  0  0  0  0  0  0  0  0  0  0
    1.6163   11.8491    0.0000 H   0  0  0  0  0  0  0  0  0  0  0  0
    1.1467   10.2842    0.0000 H   0  0  0  0  0  0  0  0  0  0  0  0
    4.8397   12.6159    0.0000 H   0  0  0  0  0  0  0  0  0  0  0  0
    4.7628   10.9839    0.0000 H   0  0  0  0  0  0  0  0  0  0  0  0
    2.0541   14.4100    0.0000 H   0  0  0  0  0  0  0  0  0  0  0  0
    1.6465   12.6728    0.0000 H   0  0  0  0  0  0  0  0  0  0  0  0
    5.4610   14.1673    0.0000 H   0  0  0  0  0  0  0  0  0  0  0  0
    3.8999   18.3879    0.0000 H   0  0  0  0  0  0  0  0  0  0  0  0
    5.8988   16.7282    0.0000 H   0  0  0  0  0  0  0  0  0  0  0  0
    1.4632   17.4866    0.0000 H   0  0  0  0  0  0  0  0  0  0  0  0
    1.0253   14.9256    0.0000 H   0  0  0  0  0  0  0  0  0  0  0  0
    6.5327    9.5031    0.0000 H   0  0  0  0  0  0  0  0  0  0  0  0
    8.4923    7.5803    0.0000 H   0  0  0  0  0  0  0  0  0  0  0  0
    8.7893    9.1367    0.0000 H   0  0  0  0  0  0  0  0  0  0  0  0
    7.3443   10.1838    0.0000 H   0  0  0  0  0  0  0  0  0  0  0  0
    5.9205    9.1082    0.0000 H   0  0  0  0  0  0  0  0  0  0  0  0
   10.0293    5.5392    0.0000 H   0  0  0  0  0  0  0  0  0  0  0  0
   10.5687    2.6927    0.0000 H   0  0  0  0  0  0  0  0  0  0  0  0
   10.9193    5.7609    0.0000 H   0  0  0  0  0  0  0  0  0  0  0  0
    9.3008    5.5380    0.0000 H   0  0  0  0  0  0  0  0  0  0  0  0
   11.4394    2.5393    0.0000 H   0  0  0  0  0  0  0  0  0  0  0  0
   14.2779    4.8560    0.0000 H   0  0  0  0  0  0  0  0  0  0  0  0
   13.4307    6.4265    0.0000 H   0  0  0  0  0  0  0  0  0  0  0  0
   11.6811    6.0755    0.0000 H   0  0  0  0  0  0  0  0  0  0  0  0
   14.3837    3.6069    0.0000 H   0  0  0  0  0  0  0  0  0  0  0  0
   13.8129    1.9162    0.0000 H   0  0  0  0  0  0  0  0  0  0  0  0
   11.8923    2.0895    0.0000 H   0  0  0  0  0  0  0  0  0  0  0  0
   10.8277    0.3142    0.0000 H   0  0  0  0  0  0  0  0  0  0  0  0
    9.8140   -2.6020    0.0000 H   0  0  0  0  0  0  0  0  0  0  0  0
    9.0159   -3.7802    0.0000 H   0  0  0  0  0  0  0  0  0  0  0  0
    8.8120   -4.2661    0.0000 H   0  0  0  0  0  0  0  0  0  0  0  0
    8.0406   -5.0369    0.0000 H   0  0  0  0  0  0  0  0  0  0  0  0
    7.6712   -5.3818    0.0000 H   0  0  0  0  0  0  0  0  0  0  0  0
    6.4924   -6.1790    0.0000 H   0  0  0  0  0  0  0  0  0  0  0  0
    5.7447   -6.8245    0.0000 H   0  0  0  0  0  0  0  0  0  0  0  0
    9.7301   -3.7835    0.0000 H   0  0  0  0  0  0  0  0  0  0  0  0
   11.0523   -3.1838    0.0000 H   0  0  0  0  0  0  0  0  0  0  0  0
   11.1036   -1.3814    0.0000 H   0  0  0  0  0  0  0  0  0  0  0  0
   11.1486   -3.3637    0.0000 H   0  0  0  0  0  0  0  0  0  0  0  0
   12.3337   -0.1862    0.0000 H   0  0  0  0  0  0  0  0  0  0  0  0
   15.0899    0.4056    0.0000 H   0  0  0  0  0  0  0  0  0  0  0  0
   13.1629    0.3343    0.0000 H   0  0  0  0  0  0  0  0  0  0  0  0
   11.9772   -4.4308    0.0000 H   0  0  0  0  0  0  0  0  0  0  0  0
   15.3708   -4.0448    0.0000 H   0  0  0  0  0  0  0  0  0  0  0  0
   17.2614   -6.1359    0.0000 H   0  0  0  0  0  0  0  0  0  0  0  0
   16.2362   -4.5027    0.0000 H   0  0  0  0  0  0  0  0  0  0  0  0
   15.3703   -8.8567    0.0000 H   0  0  0  0  0  0  0  0  0  0  0  0
   14.4225   -7.9452    0.0000 H   0  0  0  0  0  0  0  0  0  0  0  0
   18.5381  -10.3312    0.0000 H   0  0  0  0  0  0  0  0  0  0  0  0
   16.3306  -10.8937    0.0000 H   0  0  0  0  0  0  0  0  0  0  0  0
   16.4942   -7.8182    0.0000 H   0  0  0  0  0  0  0  0  0  0  0  0
   13.2086   -8.4949    0.0000 H   0  0  0  0  0  0  0  0  0  0  0  0
   12.7505   -9.1533    0.0000 H   0  0  0  0  0  0  0  0  0  0  0  0
   13.4082  -13.0572    0.0000 H   0  0  0  0  0  0  0  0  0  0  0  0
   15.1840  -12.8826    0.0000 H   0  0  0  0  0  0  0  0  0  0  0  0
   15.6742  -11.6624    0.0000 H   0  0  0  0  0  0  0  0  0  0  0  0
   11.4218  -12.3616    0.0000 H   0  0  0  0  0  0  0  0  0  0  0  0
   13.2057  -12.4047    0.0000 H   0  0  0  0  0  0  0  0  0  0  0  0
    9.7466  -11.2737    0.0000 H   0  0  0  0  0  0  0  0  0  0  0  0
   10.0111   -9.3636    0.0000 H   0  0  0  0  0  0  0  0  0  0  0  0
   11.7869   -9.1889    0.0000 H   0  0  0  0  0  0  0  0  0  0  0  0
  1  2  1  0
  2  3  1  0
  3  4  1  0
  4  5  2  0
  4  6  1  0
  6  7  1  0
  7  8  1  0
  8  9  1  0
  9 10  1  0
  9 11  2  0
  7 12  1  0
 12 13  2  0
 12 14  1  0
 14 15  1  0
 15 16  1  0
 16 17  1  0
 17 18  1  0
 18 19  2  0
 18 20  1  0
 15 21  1  0
 21 22  2  0
 21 23  1  0
 23 24  1  0
 24 25  1  0
 25 26  1  0
 26 27  1  0
 26 28  1  0
 24 29  1  0
 29 30  2  0
 29 31  1  0
 32 31  1  1
 32 33  1  0
 33 34  1  0
 34 35  1  0
 35 36  1  0
 36 37  1  0
 37 38  1  0
 38 39  1  0
 32 40  1  0
 32 41  1  0
 41 42  2  0
 41 43  1  0
 43 44  1  0
 44 45  1  0
 45 46  1  0
 46 47  1  0
 47 48  1  0
 48 49  1  0
 49 50  2  3
 49 51  1  0
 44 52  1  0
 52 53  2  0
 52 54  1  0
 54 55  1  0
 55 56  1  0
 56 57  1  0
 55 58  1  0
 58 59  2  0
 58 60  1  0
 60 61  1  0
 61 62  1  0
 62 63  1  0
 63 64  2  0
 64 65  1  0
 65 66  2  0
 66 67  1  0
 67 68  2  0
 61 69  1  0
 69 70  2  0
 69 71  1  0
 71 72  1  0
 72 73  1  0
 73 74  1  0
 74 75  1  0
 75 76  1  0
 76 77  1  0
 77 78  2  3
 77 79  1  0
 72 80  1  0
 80 81  2  0
 80 82  1  0
 82 83  1  0
 83 84  1  0
 83 85  1  0
 85 86  2  0
 85 87  1  0
 87 88  1  0
 88 89  1  0
 89 90  1  0
 90 91  1  0
 90 92  1  0
 88 93  1  0
 93 94  2  0
 93 95  1  0
 95 96  1  0
 96 97  1  0
 97 98  1  0
 98 99  1  0
 99100  1  0
 96101  1  0
 96102  1  6
102103  2  0
102104  1  0
104105  1  0
105106  1  0
106107  1  0
107108  2  0
107109  1  0
105110  1  0
110111  2  0
110112  1  0
112113  1  0
113114  1  0
114115  1  0
115116  1  0
116117  1  0
116118  2  0
113119  1  0
119120  2  0
119121  1  0
121122  1  0
122123  1  0
123124  1  0
123125  1  0
125126  1  0
122127  1  0
127128  2  0
127129  1  0
 68 63  1  0
 39100  2  0
  1130  1  0
  1131  1  0
  2132  1  0
  2133  1  0
  3134  1  0
  3135  1  0
  6136  1  0
  7137  1  6
  8138  1  0
  8139  1  0
 10140  1  0
 10141  1  0
 14142  1  0
 15143  1  6
 16144  1  0
 16145  1  0
 17146  1  0
 17147  1  0
 23148  1  0
 24149  1  1
 25150  1  0
 25151  1  0
 26152  1  0
 27153  1  0
 27154  1  0
 27155  1  0
 28156  1  0
 28157  1  0
 28158  1  0
 31159  1  0
 33160  1  0
 33161  1  0
 34162  1  0
 34163  1  0
 35164  1  0
 35165  1  0
 36166  1  0
 36167  1  0
 37168  1  0
 37169  1  0
 38170  1  0
 38171  1  0
 39172  1  0
 40173  1  0
 40174  1  0
 40175  1  0
 43176  1  0
 44177  1  1
 45178  1  0
 45179  1  0
 46180  1  0
 46181  1  0
 47182  1  0
 47183  1  0
 48184  1  0
 50185  1  0
 50186  1  0
 51187  1  0
 51188  1  0
 54189  1  0
 55190  1  1
 56191  1  0
 56192  1  0
 57193  1  0
 60194  1  0
 61195  1  1
 62196  1  0
 62197  1  0
 64198  1  0
 65199  1  0
 66200  1  0
 67201  1  0
 68202  1  0
 71203  1  0
 72204  1  1
 73205  1  0
 73206  1  0
 74207  1  0
 74208  1  0
 75209  1  0
 75210  1  0
 76211  1  0
 78212  1  0
 78213  1  0
 79214  1  0
 79215  1  0
 82216  1  0
 83217  1  1
 84218  1  0
 84219  1  0
 84220  1  0
 87221  1  0
 88222  1  1
 89223  1  0
 89224  1  0
 90225  1  0
 91226  1  0
 91227  1  0
 91228  1  0
 92229  1  0
 92230  1  0
 92231  1  0
 95232  1  0
 97233  1  0
 97234  1  0
 98235  1  0
 98236  1  0
 99237  1  0
 99238  1  0
100239  1  0
101240  1  0
101241  1  0
101242  1  0
104243  1  0
105244  1  1
106245  1  0
106246  1  0
112247  1  0
113248  1  1
114249  1  0
114250  1  0
115251  1  0
115252  1  0
117253  1  0
117254  1  0
121255  1  0
122256  1  6
123257  1  6
124258  1  0
124259  1  0
124260  1  0
125261  1  0
125262  1  0
126263  1  0
126264  1  0
126265  1  0
M  CHG  5  20  -1  50   1  78   1 109  -1 129  -1
M  END
