
     RDKit          2D

414415  0  0  0  0  0  0  0  0999 V2000
  -20.1849   14.1959    0.0000 N   0  0  0  0  0  0  0  0  0  0  0  0
  -21.0460   12.9676    0.0000 C   0  0  0  0  0  0  0  0  0  0  0  0
  -20.4128   11.6078    0.0000 C   0  0  0  0  0  0  0  0  0  0  0  0
  -21.2738   10.3796    0.0000 C   0  0  0  0  0  0  0  0  0  0  0  0
  -22.7681   10.5111    0.0000 O   0  0  0  0  0  0  0  0  0  0  0  0
  -20.6407    9.0197    0.0000 N   0  0  0  0  0  0  0  0  0  0  0  0
  -21.5017    7.7915    0.0000 C   0  0  0  0  0  0  0  0  0  0  0  0
  -20.1426    7.1568    0.0000 C   0  0  0  0  0  0  0  0  0  0  0  0
  -18.8178    7.8602    0.0000 O   0  0  0  0  0  0  0  0  0  0  0  0
  -22.7310    6.9318    0.0000 C   0  0  0  0  0  0  0  0  0  0  0  0
  -22.6011    5.4375    0.0000 O   0  0  0  0  0  0  0  0  0  0  0  0
  -24.0901    7.5665    0.0000 N   0  0  0  0  0  0  0  0  0  0  0  0
  -25.3193    6.7068    0.0000 C   0  0  0  0  0  0  0  0  0  0  0  0
  -25.9524    8.0667    0.0000 C   0  0  0  0  0  0  0  0  0  0  0  0
  -25.0914    9.2949    0.0000 C   0  0  0  0  0  0  0  0  0  0  0  0
  -25.7245   10.6547    0.0000 C   0  0  0  0  0  0  0  0  0  0  0  0
  -24.8635   11.8830    0.0000 O   0  0  0  0  0  0  0  0  0  0  0  0
  -27.2188   10.7863    0.0000 O   0  0  0  0  0  0  0  0  0  0  0  0
  -26.1803    5.4786    0.0000 C   0  0  0  0  0  0  0  0  0  0  0  0
  -27.6474    5.7913    0.0000 O   0  0  0  0  0  0  0  0  0  0  0  0
  -25.5472    4.1188    0.0000 N   0  0  0  0  0  0  0  0  0  0  0  0
  -26.4082    2.8905    0.0000 C   0  0  0  0  0  0  0  0  0  0  0  0
  -27.4683    3.9518    0.0000 C   0  0  0  0  0  0  0  0  0  0  0  0
  -28.9174    3.5644    0.0000 C   0  0  0  0  0  0  0  0  0  0  0  0
  -29.9775    4.6256    0.0000 C   0  0  0  0  0  0  0  0  0  0  0  0
  -31.4266    4.2382    0.0000 O   0  0  0  0  0  0  0  0  0  0  0  0
  -29.5884    6.0743    0.0000 O   0  0  0  0  0  0  0  0  0  0  0  0
  -26.7973    1.4419    0.0000 C   0  0  0  0  0  0  0  0  0  0  0  0
  -28.2828    1.2340    0.0000 O   0  0  0  0  0  0  0  0  0  0  0  0
  -25.7372    0.3806    0.0000 N   0  0  0  0  0  0  0  0  0  0  0  0
  -26.1263   -1.0681    0.0000 C   0  0  0  0  0  0  0  0  0  0  0  0
  -27.4854   -0.4334    0.0000 C   0  0  0  0  0  0  0  0  0  0  0  0
  -28.7146   -1.2930    0.0000 C   0  0  0  0  0  0  0  0  0  0  0  0
  -30.0737   -0.6583    0.0000 C   0  0  0  0  0  0  0  0  0  0  0  0
  -29.5756   -2.5213    0.0000 C   0  0  0  0  0  0  0  0  0  0  0  0
  -25.9964   -2.5624    0.0000 C   0  0  0  0  0  0  0  0  0  0  0  0
  -27.3212   -3.2658    0.0000 O   0  0  0  0  0  0  0  0  0  0  0  0
  -24.6373   -3.1971    0.0000 N   0  0  0  0  0  0  0  0  0  0  0  0
  -24.5074   -4.6915    0.0000 C   0  0  0  0  0  0  0  0  0  0  0  0
  -26.0016   -4.5599    0.0000 C   0  0  0  0  0  0  0  0  0  0  0  0
  -26.8626   -5.7882    0.0000 C   0  0  0  0  0  0  0  0  0  0  0  0
  -23.8742   -6.0513    0.0000 C   0  0  0  0  0  0  0  0  0  0  0  0
  -24.8786   -7.1654    0.0000 O   0  0  0  0  0  0  0  0  0  0  0  0
  -22.3800   -6.1829    0.0000 N   0  0  0  0  0  0  0  0  0  0  0  0
  -21.7468   -7.5427    0.0000 C   0  0  0  0  0  0  0  0  0  0  0  0
  -23.1959   -7.9301    0.0000 C   0  0  0  0  0  0  0  0  0  0  0  0
  -20.6868   -8.6040    0.0000 C   0  0  0  0  0  0  0  0  0  0  0  0
  -21.2495   -9.9944    0.0000 O   0  0  0  0  0  0  0  0  0  0  0  0
  -19.2377   -8.2165    0.0000 N   0  0  0  0  0  0  0  0  0  0  0  0
  -18.1776   -9.2778    0.0000 C   0  0  0  0  0  0  0  0  0  0  0  0
  -19.4068  -10.1375    0.0000 C   0  0  0  0  0  0  0  0  0  0  0  0
  -19.2769  -11.6318    0.0000 C   0  0  0  0  0  0  0  0  0  0  0  0
  -20.5061  -12.4915    0.0000 C   0  0  0  0  0  0  0  0  0  0  0  0
  -20.3762  -13.9859    0.0000 O   0  0  0  0  0  0  0  0  0  0  0  0
  -21.8652  -11.8568    0.0000 O   0  0  0  0  0  0  0  0  0  0  0  0
  -16.8185   -9.9125    0.0000 C   0  0  0  0  0  0  0  0  0  0  0  0
  -16.8717  -11.4116    0.0000 O   0  0  0  0  0  0  0  0  0  0  0  0
  -15.5893   -9.0528    0.0000 N   0  0  0  0  0  0  0  0  0  0  0  0
  -14.2302   -9.6875    0.0000 C   0  0  0  0  0  0  0  0  0  0  0  0
  -15.0912  -10.9158    0.0000 C   0  0  0  0  0  0  0  0  0  0  0  0
  -12.7360   -9.8191    0.0000 C   0  0  0  0  0  0  0  0  0  0  0  0
  -12.2733  -11.2460    0.0000 O   0  0  0  0  0  0  0  0  0  0  0  0
  -11.8749   -8.5909    0.0000 N   0  0  0  0  0  0  0  0  0  0  0  0
  -10.3807   -8.7224    0.0000 C   0  0  0  0  0  0  0  0  0  0  0  0
  -10.7697  -10.1711    0.0000 C   0  0  0  0  0  0  0  0  0  0  0  0
   -9.7097  -11.2324    0.0000 C   0  0  0  0  0  0  0  0  0  0  0  0
   -8.2280  -10.9985    0.0000 C   0  0  0  0  0  0  0  0  0  0  0  0
   -7.5478  -12.3354    0.0000 N   0  0  0  0  0  0  0  0  0  0  0  0
   -8.6090  -13.3955    0.0000 C   0  0  0  0  0  0  0  0  0  0  0  0
   -9.9452  -12.7138    0.0000 N   0  0  0  0  0  0  0  0  0  0  0  0
   -8.9316   -8.3350    0.0000 C   0  0  0  0  0  0  0  0  0  0  0  0
   -7.8715   -9.3963    0.0000 O   0  0  0  0  0  0  0  0  0  0  0  0
   -8.5425   -6.8863    0.0000 N   0  0  0  0  0  0  0  0  0  0  0  0
   -7.0934   -6.4989    0.0000 C   0  0  0  0  0  0  0  0  0  0  0  0
   -6.9635   -7.9933    0.0000 C   0  0  0  0  0  0  0  0  0  0  0  0
   -5.6044   -8.6280    0.0000 C   0  0  0  0  0  0  0  0  0  0  0  0
   -5.4745  -10.1224    0.0000 N   0  0  0  0  0  0  0  0  0  0  0  0
   -4.3752   -7.7683    0.0000 O   0  0  0  0  0  0  0  0  0  0  0  0
   -5.8642   -5.6393    0.0000 C   0  0  0  0  0  0  0  0  0  0  0  0
   -4.5926   -6.4349    0.0000 O   0  0  0  0  0  0  0  0  0  0  0  0
   -5.9941   -4.1449    0.0000 N   0  0  0  0  0  0  0  0  0  0  0  0
   -4.7649   -3.2852    0.0000 C   0  0  0  0  0  0  0  0  0  0  0  0
   -4.1317   -4.6450    0.0000 C   0  0  0  0  0  0  0  0  0  0  0  0
   -2.6375   -4.7766    0.0000 C   0  0  0  0  0  0  0  0  0  0  0  0
   -2.0043   -6.1364    0.0000 C   0  0  0  0  0  0  0  0  0  0  0  0
   -1.1884   -4.3892    0.0000 C   0  0  0  0  0  0  0  0  0  0  0  0
   -3.9038   -2.0570    0.0000 C   0  0  0  0  0  0  0  0  0  0  0  0
   -2.4368   -2.3697    0.0000 O   0  0  0  0  0  0  0  0  0  0  0  0
   -4.5370   -0.6972    0.0000 N   0  0  0  0  0  0  0  0  0  0  0  0
   -3.6759    0.5311    0.0000 C   0  0  0  0  0  0  0  0  0  0  0  0
   -2.6159   -0.5302    0.0000 C   0  0  0  0  0  0  0  0  0  0  0  0
   -1.1668   -0.1428    0.0000 S   0  0  0  0  0  0  0  0  0  0  0  0
   -3.2869    1.9797    0.0000 C   0  0  0  0  0  0  0  0  0  0  0  0
   -1.8378    2.3672    0.0000 O   0  0  0  0  0  0  0  0  0  0  0  0
   -4.3470    3.0410    0.0000 N   0  0  0  0  0  0  0  0  0  0  0  0
   -3.9579    4.4897    0.0000 C   0  0  0  0  0  0  0  0  0  0  0  0
   -5.4521    4.6213    0.0000 C   0  0  0  0  0  0  0  0  0  0  0  0
   -6.9012    4.2338    0.0000 O   0  0  0  0  0  0  0  0  0  0  0  0
   -6.0853    5.9811    0.0000 C   0  0  0  0  0  0  0  0  0  0  0  0
   -3.0968    5.7179    0.0000 C   0  0  0  0  0  0  0  0  0  0  0  0
   -3.8910    6.9904    0.0000 O   0  0  0  0  0  0  0  0  0  0  0  0
   -1.6026    5.5863    0.0000 N   0  0  0  0  0  0  0  0  0  0  0  0
   -0.7416    6.8146    0.0000 C   0  0  0  0  0  0  0  0  0  0  0  0
   -2.1007    7.4493    0.0000 C   0  0  0  0  0  0  0  0  0  0  0  0
   -2.2306    8.9436    0.0000 C   0  0  0  0  0  0  0  0  0  0  0  0
   -3.5897    9.5783    0.0000 C   0  0  0  0  0  0  0  0  0  0  0  0
   -1.8415   10.3923    0.0000 C   0  0  0  0  0  0  0  0  0  0  0  0
    0.4876    7.6743    0.0000 C   0  0  0  0  0  0  0  0  0  0  0  0
    0.1766    9.1416    0.0000 O   0  0  0  0  0  0  0  0  0  0  0  0
    1.8467    7.0396    0.0000 N   0  0  0  0  0  0  0  0  0  0  0  0
    3.0760    7.8992    0.0000 C   0  0  0  0  0  0  0  0  0  0  0  0
    2.0159    8.9605    0.0000 C   0  0  0  0  0  0  0  0  0  0  0  0
    2.4049   10.4092    0.0000 C   0  0  0  0  0  0  0  0  0  0  0  0
    1.3449   11.4704    0.0000 C   0  0  0  0  0  0  0  0  0  0  0  0
    3.2660   11.6374    0.0000 C   0  0  0  0  0  0  0  0  0  0  0  0
    4.5251    8.2866    0.0000 C   0  0  0  0  0  0  0  0  0  0  0  0
    4.7346    9.7719    0.0000 O   0  0  0  0  0  0  0  0  0  0  0  0
    5.5851    7.2254    0.0000 N   0  0  0  0  0  0  0  0  0  0  0  0
    7.0342    7.6128    0.0000 C   0  0  0  0  0  0  0  0  0  0  0  0
    6.4011    8.9726    0.0000 C   0  0  0  0  0  0  0  0  0  0  0  0
    7.2621   10.2009    0.0000 C   0  0  0  0  0  0  0  0  0  0  0  0
    6.6290   11.5607    0.0000 C   0  0  0  0  0  0  0  0  0  0  0  0
    7.4900   12.7889    0.0000 O   0  0  0  0  0  0  0  0  0  0  0  0
    5.1347   11.6923    0.0000 O   0  0  0  0  0  0  0  0  0  0  0  0
    8.5285    7.4812    0.0000 C   0  0  0  0  0  0  0  0  0  0  0  0
    9.2334    8.8053    0.0000 O   0  0  0  0  0  0  0  0  0  0  0  0
    9.1616    6.1214    0.0000 N   0  0  0  0  0  0  0  0  0  0  0  0
   10.6558    5.9898    0.0000 C   0  0  0  0  0  0  0  0  0  0  0  0
    9.8744    4.7095    0.0000 C   0  0  0  0  0  0  0  0  0  0  0  0
    9.3494    3.3043    0.0000 C   0  0  0  0  0  0  0  0  0  0  0  0
    9.0998    1.8252    0.0000 C   0  0  0  0  0  0  0  0  0  0  0  0
    9.1347    0.3256    0.0000 C   0  0  0  0  0  0  0  0  0  0  0  0
    9.4527   -1.1403    0.0000 C   0  0  0  0  0  0  0  0  0  0  0  0
   10.0424   -2.5195    0.0000 C   0  0  0  0  0  0  0  0  0  0  0  0
   10.8825   -3.7622    0.0000 C   0  0  0  0  0  0  0  0  0  0  0  0
   10.1102    7.3871    0.0000 C   0  0  0  0  0  0  0  0  0  0  0  0
   11.6654    7.0992    0.0000 C   0  0  0  0  0  0  0  0  0  0  0  0
   10.8000    8.3243    0.0000 O   0  0  0  0  0  0  0  0  0  0  0  0
   12.8668    7.9974    0.0000 N   0  0  0  0  0  0  0  0  0  0  0  0
   14.2164    8.6521    0.0000 C   0  0  0  0  0  0  0  0  0  0  0  0
   14.5127   10.1225    0.0000 C   0  0  0  0  0  0  0  0  0  0  0  0
   15.6655    9.0395    0.0000 C   0  0  0  0  0  0  0  0  0  0  0  0
   15.5997   10.5381    0.0000 O   0  0  0  0  0  0  0  0  0  0  0  0
   17.1617    9.1457    0.0000 N   0  0  0  0  0  0  0  0  0  0  0  0
   18.6510    8.9667    0.0000 C   0  0  0  0  0  0  0  0  0  0  0  0
   19.6953   10.0435    0.0000 C   0  0  0  0  0  0  0  0  0  0  0  0
   19.1121   11.4255    0.0000 C   0  0  0  0  0  0  0  0  0  0  0  0
   21.0449   10.6982    0.0000 C   0  0  0  0  0  0  0  0  0  0  0  0
   21.1528   12.1943    0.0000 C   0  0  0  0  0  0  0  0  0  0  0  0
   20.0795    8.5092    0.0000 C   0  0  0  0  0  0  0  0  0  0  0  0
   20.6708    9.8878    0.0000 O   0  0  0  0  0  0  0  0  0  0  0  0
   21.3956    7.7896    0.0000 N   0  0  0  0  0  0  0  0  0  0  0  0
   22.5518    6.8339    0.0000 C   0  0  0  0  0  0  0  0  0  0  0  0
   24.0124    7.1751    0.0000 C   0  0  0  0  0  0  0  0  0  0  0  0
   24.4473    8.6107    0.0000 C   0  0  0  0  0  0  0  0  0  0  0  0
   25.9079    8.9520    0.0000 C   0  0  0  0  0  0  0  0  0  0  0  0
   26.3427   10.3876    0.0000 N   0  0  0  0  0  0  0  0  0  0  0  0
   26.9338    7.8576    0.0000 O   0  0  0  0  0  0  0  0  0  0  0  0
   23.5062    5.6767    0.0000 C   0  0  0  0  0  0  0  0  0  0  0  0
   24.8420    6.3590    0.0000 O   0  0  0  0  0  0  0  0  0  0  0  0
   24.2243    4.3598    0.0000 N   0  0  0  0  0  0  0  0  0  0  0  0
   24.6802    2.9307    0.0000 C   0  0  0  0  0  0  0  0  0  0  0  0
   26.0935    2.4281    0.0000 C   0  0  0  0  0  0  0  0  0  0  0  0
   27.2354    3.4007    0.0000 C   0  0  0  0  0  0  0  0  0  0  0  0
   28.6487    2.8981    0.0000 O   0  0  0  0  0  0  0  0  0  0  0  0
   26.9641    4.8760    0.0000 O   0  0  0  0  0  0  0  0  0  0  0  0
   24.8575    1.4412    0.0000 C   0  0  0  0  0  0  0  0  0  0  0  0
   26.3501    1.2930    0.0000 O   0  0  0  0  0  0  0  0  0  0  0  0
   24.7496   -0.0549    0.0000 N   0  0  0  0  0  0  0  0  0  0  0  0
   24.3606   -1.5035    0.0000 C   0  0  0  0  0  0  0  0  0  0  0  0
   25.2777   -2.6905    0.0000 C   0  0  0  0  0  0  0  0  0  0  0  0
   25.9045   -4.0533    0.0000 O   0  0  0  0  0  0  0  0  0  0  0  0
   26.7642   -2.4896    0.0000 C   0  0  0  0  0  0  0  0  0  0  0  0
   23.7044   -2.8524    0.0000 C   0  0  0  0  0  0  0  0  0  0  0  0
   24.8800   -3.7841    0.0000 O   0  0  0  0  0  0  0  0  0  0  0  0
   22.8048   -4.0527    0.0000 N   0  0  0  0  0  0  0  0  0  0  0  0
   21.6943   -5.0611    0.0000 C   0  0  0  0  0  0  0  0  0  0  0  0
   21.8242   -6.5554    0.0000 C   0  0  0  0  0  0  0  0  0  0  0  0
   23.1833   -7.1901    0.0000 C   0  0  0  0  0  0  0  0  0  0  0  0
   20.4130   -5.8411    0.0000 C   0  0  0  0  0  0  0  0  0  0  0  0
   20.8983   -7.2604    0.0000 O   0  0  0  0  0  0  0  0  0  0  0  0
   19.0073   -6.3645    0.0000 N   0  0  0  0  0  0  0  0  0  0  0  0
   17.5279   -6.6124    0.0000 C   0  0  0  0  0  0  0  0  0  0  0  0
   16.0284   -6.5758    0.0000 C   0  0  0  0  0  0  0  0  0  0  0  0
   14.5628   -6.2562    0.0000 C   0  0  0  0  0  0  0  0  0  0  0  0
   13.1843   -5.6649    0.0000 C   0  0  0  0  0  0  0  0  0  0  0  0
   11.9425   -4.8234    0.0000 C   0  0  0  0  0  0  0  0  0  0  0  0
   18.4070   -7.8278    0.0000 C   0  0  0  0  0  0  0  0  0  0  0  0
   16.8293   -7.9397    0.0000 C   0  0  0  0  0  0  0  0  0  0  0  0
   15.3892   -8.3593    0.0000 O   0  0  0  0  0  0  0  0  0  0  0  0
   17.6295   -9.2085    0.0000 N   0  0  0  0  0  0  0  0  0  0  0  0
   16.9309  -10.5358    0.0000 C   0  0  0  0  0  0  0  0  0  0  0  0
   15.8204  -11.5442    0.0000 C   0  0  0  0  0  0  0  0  0  0  0  0
   16.1384  -13.0101    0.0000 C   0  0  0  0  0  0  0  0  0  0  0  0
   15.0279  -14.0185    0.0000 C   0  0  0  0  0  0  0  0  0  0  0  0
   15.1388  -15.2284    0.0000 O   0  0  0  0  0  0  0  0  0  0  0  0
   13.5994  -13.5609    0.0000 O   0  0  0  0  0  0  0  0  0  0  0  0
   17.7311  -11.8046    0.0000 C   0  0  0  0  0  0  0  0  0  0  0  0
   19.2299  -11.7459    0.0000 O   0  0  0  0  0  0  0  0  0  0  0  0
   17.0324  -13.1319    0.0000 N   0  0  0  0  0  0  0  0  0  0  0  0
   17.8326  -14.4006    0.0000 C   0  0  0  0  0  0  0  0  0  0  0  0
   19.0185  -15.3192    0.0000 C   0  0  0  0  0  0  0  0  0  0  0  0
   20.4069  -14.7514    0.0000 C   0  0  0  0  0  0  0  0  0  0  0  0
   21.5928  -15.6700    0.0000 C   0  0  0  0  0  0  0  0  0  0  0  0
   22.9812  -15.1022    0.0000 N   0  0  0  0  0  0  0  0  0  0  0  0
   21.3903  -17.1562    0.0000 O   0  0  0  0  0  0  0  0  0  0  0  0
   17.1340  -15.7280    0.0000 C   0  0  0  0  0  0  0  0  0  0  0  0
   17.7736  -17.0848    0.0000 O   0  0  0  0  0  0  0  0  0  0  0  0
   15.9348  -15.9231    0.0000 O   0  0  0  0  0  0  0  0  0  0  0  0
  -20.8181   15.5557    0.0000 H   0  0  0  0  0  0  0  0  0  0  0  0
  -18.6907   14.0643    0.0000 H   0  0  0  0  0  0  0  0  0  0  0  0
  -22.1060   14.0289    0.0000 H   0  0  0  0  0  0  0  0  0  0  0  0
  -22.2752   12.1079    0.0000 H   0  0  0  0  0  0  0  0  0  0  0  0
  -19.1836   12.4675    0.0000 H   0  0  0  0  0  0  0  0  0  0  0  0
  -19.3527   10.5465    0.0000 H   0  0  0  0  0  0  0  0  0  0  0  0
  -19.1416    9.0713    0.0000 H   0  0  0  0  0  0  0  0  0  0  0  0
  -22.5618    8.8528    0.0000 H   0  0  0  0  0  0  0  0  0  0  0  0
  -19.0826    6.0955    0.0000 H   0  0  0  0  0  0  0  0  0  0  0  0
  -21.0037    5.9286    0.0000 H   0  0  0  0  0  0  0  0  0  0  0  0
  -17.5543    7.3818    0.0000 H   0  0  0  0  0  0  0  0  0  0  0  0
  -24.0618    8.3632    0.0000 H   0  0  0  0  0  0  0  0  0  0  0  0
  -24.2592    5.6456    0.0000 H   0  0  0  0  0  0  0  0  0  0  0  0
  -27.0125    9.1279    0.0000 H   0  0  0  0  0  0  0  0  0  0  0  0
  -27.1816    7.2070    0.0000 H   0  0  0  0  0  0  0  0  0  0  0  0
  -23.8622   10.1546    0.0000 H   0  0  0  0  0  0  0  0  0  0  0  0
  -24.2824    8.9343    0.0000 H   0  0  0  0  0  0  0  0  0  0  0  0
  -24.0530    3.9872    0.0000 H   0  0  0  0  0  0  0  0  0  0  0  0
  -25.0491    2.2558    0.0000 H   0  0  0  0  0  0  0  0  0  0  0  0
  -28.2625    5.2243    0.0000 H   0  0  0  0  0  0  0  0  0  0  0  0
  -26.4836    5.0834    0.0000 H   0  0  0  0  0  0  0  0  0  0  0  0
  -30.1466    2.7047    0.0000 H   0  0  0  0  0  0  0  0  0  0  0  0
  -28.2842    2.2046    0.0000 H   0  0  0  0  0  0  0  0  0  0  0  0
  -24.2881    0.7680    0.0000 H   0  0  0  0  0  0  0  0  0  0  0  0
  -24.6320   -1.1996    0.0000 H   0  0  0  0  0  0  0  0  0  0  0  0
  -28.5454    0.6279    0.0000 H   0  0  0  0  0  0  0  0  0  0  0  0
  -26.9471    0.9667    0.0000 H   0  0  0  0  0  0  0  0  0  0  0  0
  -27.6545   -2.3543    0.0000 H   0  0  0  0  0  0  0  0  0  0  0  0
  -31.3985   -1.3618    0.0000 H   0  0  0  0  0  0  0  0  0  0  0  0
  -31.1337    0.4029    0.0000 H   0  0  0  0  0  0  0  0  0  0  0  0
  -29.3688    0.6657    0.0000 H   0  0  0  0  0  0  0  0  0  0  0  0
  -31.0747   -2.5728    0.0000 H   0  0  0  0  0  0  0  0  0  0  0  0
  -29.9647   -3.9699    0.0000 H   0  0  0  0  0  0  0  0  0  0  0  0
  -28.2165   -3.1560    0.0000 H   0  0  0  0  0  0  0  0  0  0  0  0
  -23.4080   -2.3374    0.0000 H   0  0  0  0  0  0  0  0  0  0  0  0
  -23.0583   -4.3041    0.0000 H   0  0  0  0  0  0  0  0  0  0  0  0
  -27.4279   -4.0956    0.0000 H   0  0  0  0  0  0  0  0  0  0  0  0
  -25.9746   -3.0601    0.0000 H   0  0  0  0  0  0  0  0  0  0  0  0
  -28.3569   -5.6566    0.0000 H   0  0  0  0  0  0  0  0  0  0  0  0
  -27.2517   -7.2368    0.0000 H   0  0  0  0  0  0  0  0  0  0  0  0
  -25.5035   -6.4228    0.0000 H   0  0  0  0  0  0  0  0  0  0  0  0
  -21.5189   -4.9546    0.0000 H   0  0  0  0  0  0  0  0  0  0  0  0
  -20.5176   -6.6830    0.0000 H   0  0  0  0  0  0  0  0  0  0  0  0
  -24.3775   -7.0060    0.0000 H   0  0  0  0  0  0  0  0  0  0  0  0
  -24.4252   -8.7898    0.0000 H   0  0  0  0  0  0  0  0  0  0  0  0
  -22.5628   -9.2899    0.0000 H   0  0  0  0  0  0  0  0  0  0  0  0
  -18.8486   -6.7679    0.0000 H   0  0  0  0  0  0  0  0  0  0  0  0
  -17.3165   -8.0496    0.0000 H   0  0  0  0  0  0  0  0  0  0  0  0
  -20.7979  -10.6986    0.0000 H   0  0  0  0  0  0  0  0  0  0  0  0
  -20.3502   -8.9713    0.0000 H   0  0  0  0  0  0  0  0  0  0  0  0
  -18.6438  -12.9917    0.0000 H   0  0  0  0  0  0  0  0  0  0  0  0
  -17.8278  -11.2444    0.0000 H   0  0  0  0  0  0  0  0  0  0  0  0
  -15.7192   -7.5585    0.0000 H   0  0  0  0  0  0  0  0  0  0  0  0
  -13.8411   -8.2388    0.0000 H   0  0  0  0  0  0  0  0  0  0  0  0
  -16.5903  -10.9673    0.0000 H   0  0  0  0  0  0  0  0  0  0  0  0
  -15.4803  -12.3644    0.0000 H   0  0  0  0  0  0  0  0  0  0  0  0
  -13.7321  -11.5505    0.0000 H   0  0  0  0  0  0  0  0  0  0  0  0
  -12.5081   -7.2310    0.0000 H   0  0  0  0  0  0  0  0  0  0  0  0
  -10.5106   -7.2281    0.0000 H   0  0  0  0  0  0  0  0  0  0  0  0
  -11.4746  -11.4951    0.0000 H   0  0  0  0  0  0  0  0  0  0  0  0
  -12.2420   -9.8841    0.0000 H   0  0  0  0  0  0  0  0  0  0  0  0
   -7.2432   -9.8671    0.0000 H   0  0  0  0  0  0  0  0  0  0  0  0
   -6.0664  -12.5709    0.0000 H   0  0  0  0  0  0  0  0  0  0  0  0
   -8.3752  -14.8772    0.0000 H   0  0  0  0  0  0  0  0  0  0  0  0
   -9.6026   -5.8251    0.0000 H   0  0  0  0  0  0  0  0  0  0  0  0
   -7.7266   -5.1391    0.0000 H   0  0  0  0  0  0  0  0  0  0  0  0
   -6.9905   -9.4931    0.0000 H   0  0  0  0  0  0  0  0  0  0  0  0
   -8.4452   -8.2272    0.0000 H   0  0  0  0  0  0  0  0  0  0  0  0
   -4.1154  -10.7571    0.0000 H   0  0  0  0  0  0  0  0  0  0  0  0
   -6.7038  -10.9820    0.0000 H   0  0  0  0  0  0  0  0  0  0  0  0
   -7.3532   -3.5102    0.0000 H   0  0  0  0  0  0  0  0  0  0  0  0
   -5.8250   -2.2240    0.0000 H   0  0  0  0  0  0  0  0  0  0  0  0
   -4.0018   -6.1394    0.0000 H   0  0  0  0  0  0  0  0  0  0  0  0
   -5.4440   -5.3716    0.0000 H   0  0  0  0  0  0  0  0  0  0  0  0
   -2.7674   -3.2823    0.0000 H   0  0  0  0  0  0  0  0  0  0  0  0
   -0.5373   -6.4492    0.0000 H   0  0  0  0  0  0  0  0  0  0  0  0
   -1.8745   -7.6308    0.0000 H   0  0  0  0  0  0  0  0  0  0  0  0
   -3.3954   -6.6976    0.0000 H   0  0  0  0  0  0  0  0  0  0  0  0
   -0.0069   -5.3133    0.0000 H   0  0  0  0  0  0  0  0  0  0  0  0
    0.0408   -3.5295    0.0000 H   0  0  0  0  0  0  0  0  0  0  0  0
   -1.8216   -3.0294    0.0000 H   0  0  0  0  0  0  0  0  0  0  0  0
   -6.0312   -0.5656    0.0000 H   0  0  0  0  0  0  0  0  0  0  0  0
   -5.0350    1.1658    0.0000 H   0  0  0  0  0  0  0  0  0  0  0  0
   -1.8217   -1.8027    0.0000 H   0  0  0  0  0  0  0  0  0  0  0  0
   -3.6005   -1.6617    0.0000 H   0  0  0  0  0  0  0  0  0  0  0  0
   -0.1067   -1.2040    0.0000 H   0  0  0  0  0  0  0  0  0  0  0  0
   -5.7380    2.4798    0.0000 H   0  0  0  0  0  0  0  0  0  0  0  0
   -2.5988    3.8550    0.0000 H   0  0  0  0  0  0  0  0  0  0  0  0
   -5.5054    3.1222    0.0000 H   0  0  0  0  0  0  0  0  0  0  0  0
   -8.0828    5.1580    0.0000 H   0  0  0  0  0  0  0  0  0  0  0  0
   -7.5523    6.2938    0.0000 H   0  0  0  0  0  0  0  0  0  0  0  0
   -6.2152    7.4754    0.0000 H   0  0  0  0  0  0  0  0  0  0  0  0
   -4.6362    6.3685    0.0000 H   0  0  0  0  0  0  0  0  0  0  0  0
   -0.9695    4.2265    0.0000 H   0  0  0  0  0  0  0  0  0  0  0  0
    0.3185    5.7533    0.0000 H   0  0  0  0  0  0  0  0  0  0  0  0
   -3.5949    7.5809    0.0000 H   0  0  0  0  0  0  0  0  0  0  0  0
   -2.8287    6.1378    0.0000 H   0  0  0  0  0  0  0  0  0  0  0  0
   -0.7364    8.8121    0.0000 H   0  0  0  0  0  0  0  0  0  0  0  0
   -3.9008   11.0457    0.0000 H   0  0  0  0  0  0  0  0  0  0  0  0
   -5.0839    9.7099    0.0000 H   0  0  0  0  0  0  0  0  0  0  0  0
   -4.1524    8.1879    0.0000 H   0  0  0  0  0  0  0  0  0  0  0  0
   -2.7643   11.5749    0.0000 H   0  0  0  0  0  0  0  0  0  0  0  0
   -0.9805   11.6206    0.0000 H   0  0  0  0  0  0  0  0  0  0  0  0
   -0.4824    9.7576    0.0000 H   0  0  0  0  0  0  0  0  0  0  0  0
    1.9766    5.5452    0.0000 H   0  0  0  0  0  0  0  0  0  0  0  0
    3.7091    6.5394    0.0000 H   0  0  0  0  0  0  0  0  0  0  0  0
    0.6568    9.5952    0.0000 H   0  0  0  0  0  0  0  0  0  0  0  0
    0.8832    7.9771    0.0000 H   0  0  0  0  0  0  0  0  0  0  0  0
    3.7640    9.7745    0.0000 H   0  0  0  0  0  0  0  0  0  0  0  0
    1.5544   12.9557    0.0000 H   0  0  0  0  0  0  0  0  0  0  0  0
   -0.0142   12.1051    0.0000 H   0  0  0  0  0  0  0  0  0  0  0  0
    0.3405   10.3563    0.0000 H   0  0  0  0  0  0  0  0  0  0  0  0
    2.8033   13.0643    0.0000 H   0  0  0  0  0  0  0  0  0  0  0  0
    4.4952   12.4971    0.0000 H   0  0  0  0  0  0  0  0  0  0  0  0
    4.3261   10.5761    0.0000 H   0  0  0  0  0  0  0  0  0  0  0  0
    5.1961    5.7767    0.0000 H   0  0  0  0  0  0  0  0  0  0  0  0
    7.1641    6.1184    0.0000 H   0  0  0  0  0  0  0  0  0  0  0  0
    5.4783   10.1552    0.0000 H   0  0  0  0  0  0  0  0  0  0  0  0
    5.0004    8.4359    0.0000 H   0  0  0  0  0  0  0  0  0  0  0  0
    8.4913   11.0605    0.0000 H   0  0  0  0  0  0  0  0  0  0  0  0
    8.3222    9.1396    0.0000 H   0  0  0  0  0  0  0  0  0  0  0  0
    8.0289    5.1380    0.0000 H   0  0  0  0  0  0  0  0  0  0  0  0
    8.7910    5.7468    0.0000 H   0  0  0  0  0  0  0  0  0  0  0  0
    8.3823    4.5559    0.0000 H   0  0  0  0  0  0  0  0  0  0  0  0
    8.0892    4.1179    0.0000 H   0  0  0  0  0  0  0  0  0  0  0  0
    7.8712    3.0494    0.0000 H   0  0  0  0  0  0  0  0  0  0  0  0
    7.7871    2.5511    0.0000 H   0  0  0  0  0  0  0  0  0  0  0  0
    7.6966    1.2952    0.0000 H   0  0  0  0  0  0  0  0  0  0  0  0
    7.7084    0.7899    0.0000 H   0  0  0  0  0  0  0  0  0  0  0  0
    7.8571   -0.4604    0.0000 H   0  0  0  0  0  0  0  0  0  0  0  0
    7.9643   -0.9543    0.0000 H   0  0  0  0  0  0  0  0  0  0  0  0
    8.3470   -2.1539    0.0000 H   0  0  0  0  0  0  0  0  0  0  0  0
    8.5457   -2.6186    0.0000 H   0  0  0  0  0  0  0  0  0  0  0  0
    9.3020   -3.8240    0.0000 H   0  0  0  0  0  0  0  0  0  0  0  0
    9.7253   -4.7166    0.0000 H   0  0  0  0  0  0  0  0  0  0  0  0
    8.7261    7.9652    0.0000 H   0  0  0  0  0  0  0  0  0  0  0  0
   10.0753    8.8867    0.0000 H   0  0  0  0  0  0  0  0  0  0  0  0
   11.4659    8.0289    0.0000 H   0  0  0  0  0  0  0  0  0  0  0  0
   12.0868    9.2787    0.0000 H   0  0  0  0  0  0  0  0  0  0  0  0
   13.0305    9.5706    0.0000 H   0  0  0  0  0  0  0  0  0  0  0  0
   13.3875   11.1144    0.0000 H   0  0  0  0  0  0  0  0  0  0  0  0
   15.1323   11.4886    0.0000 H   0  0  0  0  0  0  0  0  0  0  0  0
   16.0003    9.9295    0.0000 H   0  0  0  0  0  0  0  0  0  0  0  0
   17.0152   10.6385    0.0000 H   0  0  0  0  0  0  0  0  0  0  0  0
   17.9814   10.3090    0.0000 H   0  0  0  0  0  0  0  0  0  0  0  0
   20.8424    9.0769    0.0000 H   0  0  0  0  0  0  0  0  0  0  0  0
   20.1815   12.7029    0.0000 H   0  0  0  0  0  0  0  0  0  0  0  0
   18.4059   12.7017    0.0000 H   0  0  0  0  0  0  0  0  0  0  0  0
   17.8170   11.1777    0.0000 H   0  0  0  0  0  0  0  0  0  0  0  0
   22.5370   10.8518    0.0000 H   0  0  0  0  0  0  0  0  0  0  0  0
   21.6281    9.3162    0.0000 H   0  0  0  0  0  0  0  0  0  0  0  0
   22.5024   12.8489    0.0000 H   0  0  0  0  0  0  0  0  0  0  0  0
   20.7424   13.6371    0.0000 H   0  0  0  0  0  0  0  0  0  0  0  0
   19.6678   12.4063    0.0000 H   0  0  0  0  0  0  0  0  0  0  0  0
   22.2371    9.0313    0.0000 H   0  0  0  0  0  0  0  0  0  0  0  0
   22.7141    8.3251    0.0000 H   0  0  0  0  0  0  0  0  0  0  0  0
   25.5124    7.1791    0.0000 H   0  0  0  0  0  0  0  0  0  0  0  0
   24.4548    5.7419    0.0000 H   0  0  0  0  0  0  0  0  0  0  0  0
   24.3648   10.1085    0.0000 H   0  0  0  0  0  0  0  0  0  0  0  0
   23.0455    9.1447    0.0000 H   0  0  0  0  0  0  0  0  0  0  0  0
   27.8034   10.7288    0.0000 H   0  0  0  0  0  0  0  0  0  0  0  0
   25.3169   11.4819    0.0000 H   0  0  0  0  0  0  0  0  0  0  0  0
   25.6035    4.9495    0.0000 H   0  0  0  0  0  0  0  0  0  0  0  0
   25.7582    3.9738    0.0000 H   0  0  0  0  0  0  0  0  0  0  0  0
   27.3575    1.6205    0.0000 H   0  0  0  0  0  0  0  0  0  0  0  0
   25.6908    0.9832    0.0000 H   0  0  0  0  0  0  0  0  0  0  0  0
   26.2481   -0.1223    0.0000 H   0  0  0  0  0  0  0  0  0  0  0  0
   25.7844   -1.0317    0.0000 H   0  0  0  0  0  0  0  0  0  0  0  0
   24.1577   -3.6883    0.0000 H   0  0  0  0  0  0  0  0  0  0  0  0
   27.1425   -4.5941    0.0000 H   0  0  0  0  0  0  0  0  0  0  0  0
   27.8193   -3.5559    0.0000 H   0  0  0  0  0  0  0  0  0  0  0  0
   28.0924   -1.7925    0.0000 H   0  0  0  0  0  0  0  0  0  0  0  0
   26.6676   -0.9927    0.0000 H   0  0  0  0  0  0  0  0  0  0  0  0
   24.0289   -4.9196    0.0000 H   0  0  0  0  0  0  0  0  0  0  0  0
   23.1472   -5.4340    0.0000 H   0  0  0  0  0  0  0  0  0  0  0  0
   21.6146   -8.0407    0.0000 H   0  0  0  0  0  0  0  0  0  0  0  0
   20.3425   -6.7893    0.0000 H   0  0  0  0  0  0  0  0  0  0  0  0
   23.3132   -8.6845    0.0000 H   0  0  0  0  0  0  0  0  0  0  0  0
   24.6775   -7.3217    0.0000 H   0  0  0  0  0  0  0  0  0  0  0  0
   23.9113   -5.8787    0.0000 H   0  0  0  0  0  0  0  0  0  0  0  0
   19.5685   -7.7555    0.0000 H   0  0  0  0  0  0  0  0  0  0  0  0
   15.0912   -7.7470    0.0000 H   0  0  0  0  0  0  0  0  0  0  0  0
   16.3137   -8.0484    0.0000 H   0  0  0  0  0  0  0  0  0  0  0  0
   13.5480   -7.3607    0.0000 H   0  0  0  0  0  0  0  0  0  0  0  0
   14.5643   -7.7562    0.0000 H   0  0  0  0  0  0  0  0  0  0  0  0
   11.8789   -6.4038    0.0000 H   0  0  0  0  0  0  0  0  0  0  0  0
   13.0835   -7.1615    0.0000 H   0  0  0  0  0  0  0  0  0  0  0  0
   10.9868   -5.9796    0.0000 H   0  0  0  0  0  0  0  0  0  0  0  0
   18.1434   -9.3045    0.0000 H   0  0  0  0  0  0  0  0  0  0  0  0
   19.6488   -8.6693    0.0000 H   0  0  0  0  0  0  0  0  0  0  0  0
   19.6808   -7.0357    0.0000 H   0  0  0  0  0  0  0  0  0  0  0  0
   19.1243   -9.3330    0.0000 H   0  0  0  0  0  0  0  0  0  0  0  0
   15.7450   -9.6173    0.0000 H   0  0  0  0  0  0  0  0  0  0  0  0
   14.4320  -12.1119    0.0000 H   0  0  0  0  0  0  0  0  0  0  0  0
   15.0202  -10.2755    0.0000 H   0  0  0  0  0  0  0  0  0  0  0  0
   16.9386  -14.2788    0.0000 H   0  0  0  0  0  0  0  0  0  0  0  0
   17.6308  -13.1608    0.0000 H   0  0  0  0  0  0  0  0  0  0  0  0
   15.5923  -13.5515    0.0000 H   0  0  0  0  0  0  0  0  0  0  0  0
   18.8119  -13.2644    0.0000 H   0  0  0  0  0  0  0  0  0  0  0  0
   19.8187  -16.5879    0.0000 H   0  0  0  0  0  0  0  0  0  0  0  0
   18.0392  -16.4554    0.0000 H   0  0  0  0  0  0  0  0  0  0  0  0
   21.5174  -13.7431    0.0000 H   0  0  0  0  0  0  0  0  0  0  0  0
   19.7673  -13.3946    0.0000 H   0  0  0  0  0  0  0  0  0  0  0  0
   24.1671  -16.0207    0.0000 H   0  0  0  0  0  0  0  0  0  0  0  0
   23.1837  -13.6159    0.0000 H   0  0  0  0  0  0  0  0  0  0  0  0
  1  2  1  0
  2  3  1  0
  3  4  1  0
  4  5  2  0
  4  6  1  0
  6  7  1  0
  7  8  1  0
  8  9  1  0
  7 10  1  0
 10 11  2  0
 10 12  1  0
 12 13  1  0
 13 14  1  0
 14 15  1  0
 15 16  1  0
 16 17  2  0
 16 18  1  0
 13 19  1  0
 19 20  2  0
 19 21  1  0
 21 22  1  0
 22 23  1  0
 23 24  1  0
 24 25  1  0
 25 26  2  0
 25 27  1  0
 22 28  1  0
 28 29  2  0
 28 30  1  0
 30 31  1  0
 31 32  1  0
 32 33  1  0
 33 34  1  0
 33 35  1  0
 31 36  1  0
 36 37  2  0
 36 38  1  0
 38 39  1  0
 39 40  1  0
 40 41  1  0
 39 42  1  0
 42 43  2  0
 42 44  1  0
 44 45  1  0
 45 46  1  0
 45 47  1  0
 47 48  2  0
 47 49  1  0
 49 50  1  0
 50 51  1  0
 51 52  1  0
 52 53  1  0
 53 54  2  0
 53 55  1  0
 50 56  1  0
 56 57  2  0
 56 58  1  0
 58 59  1  0
 59 60  1  0
 59 61  1  0
 61 62  2  0
 61 63  1  0
 63 64  1  0
 64 65  1  0
 65 66  1  0
 66 67  2  0
 67 68  1  0
 68 69  1  0
 69 70  2  0
 64 71  1  0
 71 72  2  0
 71 73  1  0
 73 74  1  0
 74 75  1  0
 75 76  1  0
 76 77  1  0
 76 78  2  0
 74 79  1  0
 79 80  2  0
 79 81  1  0
 81 82  1  0
 82 83  1  0
 83 84  1  0
 84 85  1  0
 84 86  1  0
 82 87  1  0
 87 88  2  0
 87 89  1  0
 89 90  1  0
 90 91  1  0
 91 92  1  0
 90 93  1  0
 93 94  2  0
 93 95  1  0
 95 96  1  0
 96 97  1  0
 97 98  1  0
 97 99  1  0
 96100  1  0
100101  2  0
100102  1  0
102103  1  0
103104  1  0
104105  1  0
105106  1  0
105107  1  0
103108  1  0
108109  2  0
108110  1  0
110111  1  0
111112  1  0
112113  1  0
113114  1  0
113115  1  0
111116  1  0
116117  2  0
116118  1  0
118119  1  0
119120  1  0
120121  1  0
121122  1  0
122123  2  0
122124  1  0
119125  1  0
125126  2  0
125127  1  0
128127  1  1
128129  1  0
129130  1  0
130131  1  0
131132  1  0
132133  1  0
133134  1  0
134135  1  0
128136  1  0
128137  1  0
137138  2  0
137139  1  0
139140  1  0
140141  1  0
140142  1  0
142143  2  0
142144  1  0
144145  1  0
145146  1  0
146147  1  0
146148  1  0
148149  1  0
145150  1  0
150151  2  0
150152  1  0
152153  1  0
153154  1  0
154155  1  0
155156  1  0
156157  1  0
156158  2  0
153159  1  0
159160  2  0
159161  1  0
161162  1  0
162163  1  0
163164  1  0
164165  2  0
164166  1  0
162167  1  0
167168  2  0
167169  1  0
169170  1  0
170171  1  0
171172  1  0
171173  1  0
170174  1  0
174175  2  0
174176  1  0
176177  1  0
177178  1  0
178179  1  0
177180  1  0
180181  2  0
180182  1  0
182183  1  0
183184  1  0
184185  1  0
185186  1  0
186187  1  0
183188  1  0
183189  1  6
189190  2  0
189191  1  0
191192  1  0
192193  1  0
193194  1  0
194195  1  0
195196  2  0
195197  1  0
192198  1  0
198199  2  0
198200  1  0
200201  1  0
201202  1  0
202203  1  0
203204  1  0
204205  1  0
204206  2  0
201207  1  0
207208  2  0
207209  1  0
 70 66  1  0
135187  2  0
  1210  1  0
  1211  1  0
  2212  1  0
  2213  1  0
  3214  1  0
  3215  1  0
  6216  1  0
  7217  1  1
  8218  1  0
  8219  1  0
  9220  1  0
 12221  1  0
 13222  1  6
 14223  1  0
 14224  1  0
 15225  1  0
 15226  1  0
 21227  1  0
 22228  1  6
 23229  1  0
 23230  1  0
 24231  1  0
 24232  1  0
 30233  1  0
 31234  1  6
 32235  1  0
 32236  1  0
 33237  1  0
 34238  1  0
 34239  1  0
 34240  1  0
 35241  1  0
 35242  1  0
 35243  1  0
 38244  1  0
 39245  1  6
 40246  1  0
 40247  1  0
 41248  1  0
 41249  1  0
 41250  1  0
 44251  1  0
 45252  1  6
 46253  1  0
 46254  1  0
 46255  1  0
 49256  1  0
 50257  1  6
 51258  1  0
 51259  1  0
 52260  1  0
 52261  1  0
 58262  1  0
 59263  1  6
 60264  1  0
 60265  1  0
 60266  1  0
 63267  1  0
 64268  1  6
 65269  1  0
 65270  1  0
 67271  1  0
 68272  1  0
 69273  1  0
 73274  1  0
 74275  1  6
 75276  1  0
 75277  1  0
 77278  1  0
 77279  1  0
 81280  1  0
 82281  1  6
 83282  1  0
 83283  1  0
 84284  1  0
 85285  1  0
 85286  1  0
 85287  1  0
 86288  1  0
 86289  1  0
 86290  1  0
 89291  1  0
 90292  1  6
 91293  1  0
 91294  1  0
 92295  1  0
 95296  1  0
 96297  1  1
 97298  1  1
 98299  1  0
 99300  1  0
 99301  1  0
 99302  1  0
102303  1  0
103304  1  1
104305  1  0
104306  1  0
105307  1  0
106308  1  0
106309  1  0
106310  1  0
107311  1  0
107312  1  0
107313  1  0
110314  1  0
111315  1  1
112316  1  0
112317  1  0
113318  1  0
114319  1  0
114320  1  0
114321  1  0
115322  1  0
115323  1  0
115324  1  0
118325  1  0
119326  1  1
120327  1  0
120328  1  0
121329  1  0
121330  1  0
127331  1  0
129332  1  0
129333  1  0
130334  1  0
130335  1  0
131336  1  0
131337  1  0
132338  1  0
132339  1  0
133340  1  0
133341  1  0
134342  1  0
134343  1  0
135344  1  0
136345  1  0
136346  1  0
136347  1  0
139348  1  0
140349  1  1
141350  1  0
141351  1  0
141352  1  0
144353  1  0
145354  1  1
146355  1  6
147356  1  0
147357  1  0
147358  1  0
148359  1  0
148360  1  0
149361  1  0
149362  1  0
149363  1  0
152364  1  0
153365  1  1
154366  1  0
154367  1  0
155368  1  0
155369  1  0
157370  1  0
157371  1  0
161372  1  0
162373  1  1
163374  1  0
163375  1  0
169376  1  0
170377  1  1
171378  1  6
172379  1  0
173380  1  0
173381  1  0
173382  1  0
176383  1  0
177384  1  1
178385  1  0
178386  1  0
179387  1  0
179388  1  0
179389  1  0
182390  1  0
184391  1  0
184392  1  0
185393  1  0
185394  1  0
186395  1  0
186396  1  0
187397  1  0
188398  1  0
188399  1  0
188400  1  0
191401  1  0
192402  1  6
193403  1  0
193404  1  0
194405  1  0
194406  1  0
200407  1  0
201408  1  1
202409  1  0
202410  1  0
203411  1  0
203412  1  0
205413  1  0
205414  1  0
M  CHG  7  18  -1  27  -1  55  -1 124  -1 166  -1 197  -1 209  -1
M  END
