
     RDKit          2D

259260  0  0  0  0  0  0  0  0999 V2000
  -20.4154   -1.1745    0.0000 N   0  0  0  0  0  0  0  0  0  0  0  0
  -19.0683   -1.8343    0.0000 C   0  0  0  0  0  0  0  0  0  0  0  0
  -18.9662   -3.3308    0.0000 C   0  0  0  0  0  0  0  0  0  0  0  0
  -17.6190   -3.9906    0.0000 C   0  0  0  0  0  0  0  0  0  0  0  0
  -16.3741   -3.1539    0.0000 O   0  0  0  0  0  0  0  0  0  0  0  0
  -17.5169   -5.4871    0.0000 N   0  0  0  0  0  0  0  0  0  0  0  0
  -16.1698   -6.1469    0.0000 C   0  0  0  0  0  0  0  0  0  0  0  0
  -17.0535   -7.3590    0.0000 C   0  0  0  0  0  0  0  0  0  0  0  0
  -18.5450   -7.1997    0.0000 C   0  0  0  0  0  0  0  0  0  0  0  0
  -19.4287   -8.4118    0.0000 N   0  0  0  0  0  0  0  0  0  0  0  0
  -19.3154   -5.9127    0.0000 O   0  0  0  0  0  0  0  0  0  0  0  0
  -14.6783   -6.3062    0.0000 C   0  0  0  0  0  0  0  0  0  0  0  0
  -14.2421   -7.7413    0.0000 O   0  0  0  0  0  0  0  0  0  0  0  0
  -13.7946   -5.0941    0.0000 N   0  0  0  0  0  0  0  0  0  0  0  0
  -12.3031   -5.2533    0.0000 C   0  0  0  0  0  0  0  0  0  0  0  0
  -12.7189   -6.6946    0.0000 C   0  0  0  0  0  0  0  0  0  0  0  0
  -11.6787   -7.7753    0.0000 C   0  0  0  0  0  0  0  0  0  0  0  0
  -12.0945   -9.2165    0.0000 C   0  0  0  0  0  0  0  0  0  0  0  0
  -11.0543  -10.2972    0.0000 O   0  0  0  0  0  0  0  0  0  0  0  0
  -13.5506   -9.5770    0.0000 O   0  0  0  0  0  0  0  0  0  0  0  0
  -10.8470   -4.8929    0.0000 C   0  0  0  0  0  0  0  0  0  0  0  0
   -9.8068   -5.9736    0.0000 O   0  0  0  0  0  0  0  0  0  0  0  0
  -10.4312   -3.4516    0.0000 N   0  0  0  0  0  0  0  0  0  0  0  0
   -8.9751   -3.0912    0.0000 C   0  0  0  0  0  0  0  0  0  0  0  0
   -9.5830   -1.7198    0.0000 C   0  0  0  0  0  0  0  0  0  0  0  0
  -11.0745   -1.5606    0.0000 C   0  0  0  0  0  0  0  0  0  0  0  0
  -11.6824   -0.1893    0.0000 C   0  0  0  0  0  0  0  0  0  0  0  0
  -12.5305   -1.9211    0.0000 C   0  0  0  0  0  0  0  0  0  0  0  0
   -7.4836   -3.2504    0.0000 C   0  0  0  0  0  0  0  0  0  0  0  0
   -7.0475   -4.6856    0.0000 O   0  0  0  0  0  0  0  0  0  0  0  0
   -6.5999   -2.0383    0.0000 N   0  0  0  0  0  0  0  0  0  0  0  0
   -5.1084   -2.1976    0.0000 C   0  0  0  0  0  0  0  0  0  0  0  0
   -4.3319   -3.4809    0.0000 C   0  0  0  0  0  0  0  0  0  0  0  0
   -3.3265   -4.5941    0.0000 C   0  0  0  0  0  0  0  0  0  0  0  0
   -2.1286   -5.4969    0.0000 C   0  0  0  0  0  0  0  0  0  0  0  0
   -0.7815   -6.1567    0.0000 C   0  0  0  0  0  0  0  0  0  0  0  0
    0.6662   -6.5496    0.0000 C   0  0  0  0  0  0  0  0  0  0  0  0
    2.1620   -6.6615    0.0000 C   0  0  0  0  0  0  0  0  0  0  0  0
    3.6519   -6.4882    0.0000 C   0  0  0  0  0  0  0  0  0  0  0  0
   -6.0617   -3.3557    0.0000 C   0  0  0  0  0  0  0  0  0  0  0  0
   -5.6281   -0.7905    0.0000 C   0  0  0  0  0  0  0  0  0  0  0  0
   -7.1141   -0.9944    0.0000 O   0  0  0  0  0  0  0  0  0  0  0  0
   -5.8720    0.6895    0.0000 N   0  0  0  0  0  0  0  0  0  0  0  0
   -5.8315    2.1890    0.0000 C   0  0  0  0  0  0  0  0  0  0  0  0
   -7.1930    1.5595    0.0000 C   0  0  0  0  0  0  0  0  0  0  0  0
   -8.4189    2.4238    0.0000 C   0  0  0  0  0  0  0  0  0  0  0  0
   -8.2834    3.9177    0.0000 C   0  0  0  0  0  0  0  0  0  0  0  0
   -9.5093    4.7820    0.0000 N   0  0  0  0  0  0  0  0  0  0  0  0
   -9.3737    6.2759    0.0000 C   0  0  0  0  0  0  0  0  0  0  0  0
  -10.5997    7.1402    0.0000 N   0  0  0  0  0  0  0  0  0  0  0  0
   -8.0122    6.9054    0.0000 N   0  0  0  0  0  0  0  0  0  0  0  0
   -5.5079    3.6537    0.0000 C   0  0  0  0  0  0  0  0  0  0  0  0
   -6.9808    3.9376    0.0000 O   0  0  0  0  0  0  0  0  0  0  0  0
   -4.9130    5.0306    0.0000 N   0  0  0  0  0  0  0  0  0  0  0  0
   -4.0682    6.2701    0.0000 C   0  0  0  0  0  0  0  0  0  0  0  0
   -5.5539    6.4766    0.0000 C   0  0  0  0  0  0  0  0  0  0  0  0
   -6.1179    7.8666    0.0000 O   0  0  0  0  0  0  0  0  0  0  0  0
   -3.0041    7.3274    0.0000 C   0  0  0  0  0  0  0  0  0  0  0  0
   -3.9554    8.4871    0.0000 O   0  0  0  0  0  0  0  0  0  0  0  0
   -1.7592    8.1641    0.0000 N   0  0  0  0  0  0  0  0  0  0  0  0
   -0.3784    8.7501    0.0000 C   0  0  0  0  0  0  0  0  0  0  0  0
   -1.5166    9.7271    0.0000 C   0  0  0  0  0  0  0  0  0  0  0  0
   -1.2396   11.2013    0.0000 C   0  0  0  0  0  0  0  0  0  0  0  0
    0.1755   11.6985    0.0000 C   0  0  0  0  0  0  0  0  0  0  0  0
    0.4525   13.1727    0.0000 C   0  0  0  0  0  0  0  0  0  0  0  0
   -0.6857   14.1497    0.0000 C   0  0  0  0  0  0  0  0  0  0  0  0
   -2.1009   13.6524    0.0000 C   0  0  0  0  0  0  0  0  0  0  0  0
   -2.3779   12.1782    0.0000 C   0  0  0  0  0  0  0  0  0  0  0  0
    1.0884    9.0642    0.0000 C   0  0  0  0  0  0  0  0  0  0  0  0
    1.0980   10.5642    0.0000 O   0  0  0  0  0  0  0  0  0  0  0  0
    2.5881    9.0951    0.0000 N   0  0  0  0  0  0  0  0  0  0  0  0
    4.0665    8.8415    0.0000 C   0  0  0  0  0  0  0  0  0  0  0  0
    3.6371   10.2788    0.0000 C   0  0  0  0  0  0  0  0  0  0  0  0
    4.6671   11.3692    0.0000 C   0  0  0  0  0  0  0  0  0  0  0  0
    4.2378   12.8065    0.0000 C   0  0  0  0  0  0  0  0  0  0  0  0
    5.2678   13.8969    0.0000 N   0  0  0  0  0  0  0  0  0  0  0  0
    4.8384   15.3342    0.0000 C   0  0  0  0  0  0  0  0  0  0  0  0
    5.8684   16.4246    0.0000 N   0  0  0  0  0  0  0  0  0  0  0  0
    3.3791   15.6809    0.0000 N   0  0  0  0  0  0  0  0  0  0  0  0
    5.4702    8.3128    0.0000 C   0  0  0  0  0  0  0  0  0  0  0  0
    6.2893    9.5694    0.0000 O   0  0  0  0  0  0  0  0  0  0  0  0
    6.7485    7.5280    0.0000 N   0  0  0  0  0  0  0  0  0  0  0  0
    7.8552    6.5154    0.0000 C   0  0  0  0  0  0  0  0  0  0  0  0
    8.2710    7.9566    0.0000 C   0  0  0  0  0  0  0  0  0  0  0  0
    8.7502    5.3117    0.0000 C   0  0  0  0  0  0  0  0  0  0  0  0
   10.0335    6.0882    0.0000 O   0  0  0  0  0  0  0  0  0  0  0  0
    9.4012    3.9603    0.0000 N   0  0  0  0  0  0  0  0  0  0  0  0
    9.7848    2.5102    0.0000 C   0  0  0  0  0  0  0  0  0  0  0  0
   10.9138    3.4978    0.0000 C   0  0  0  0  0  0  0  0  0  0  0  0
   12.3336    3.0139    0.0000 C   0  0  0  0  0  0  0  0  0  0  0  0
   13.4626    4.0015    0.0000 C   0  0  0  0  0  0  0  0  0  0  0  0
   13.5022    2.0735    0.0000 C   0  0  0  0  0  0  0  0  0  0  0  0
    9.8869    1.0137    0.0000 C   0  0  0  0  0  0  0  0  0  0  0  0
   11.3703    0.7906    0.0000 O   0  0  0  0  0  0  0  0  0  0  0  0
    9.7040   -0.4751    0.0000 N   0  0  0  0  0  0  0  0  0  0  0  0
    9.2427   -1.9024    0.0000 C   0  0  0  0  0  0  0  0  0  0  0  0
    8.5196   -3.2166    0.0000 C   0  0  0  0  0  0  0  0  0  0  0  0
    7.5608   -4.3702    0.0000 C   0  0  0  0  0  0  0  0  0  0  0  0
    6.4010   -5.3215    0.0000 C   0  0  0  0  0  0  0  0  0  0  0  0
    5.0822   -6.0361    0.0000 C   0  0  0  0  0  0  0  0  0  0  0  0
   10.2428   -3.0204    0.0000 C   0  0  0  0  0  0  0  0  0  0  0  0
   10.7264   -1.6820    0.0000 C   0  0  0  0  0  0  0  0  0  0  0  0
   11.4433   -0.3644    0.0000 O   0  0  0  0  0  0  0  0  0  0  0  0
   11.6592   -2.8567    0.0000 N   0  0  0  0  0  0  0  0  0  0  0  0
   13.1429   -2.6363    0.0000 C   0  0  0  0  0  0  0  0  0  0  0  0
   14.4617   -1.9216    0.0000 C   0  0  0  0  0  0  0  0  0  0  0  0
   15.7400   -2.7065    0.0000 C   0  0  0  0  0  0  0  0  0  0  0  0
   17.0588   -1.9919    0.0000 O   0  0  0  0  0  0  0  0  0  0  0  0
   15.8158   -3.5000    0.0000 O   0  0  0  0  0  0  0  0  0  0  0  0
   14.0756   -3.8110    0.0000 C   0  0  0  0  0  0  0  0  0  0  0  0
   14.8726   -3.7908    0.0000 O   0  0  0  0  0  0  0  0  0  0  0  0
   13.5247   -5.2061    0.0000 N   0  0  0  0  0  0  0  0  0  0  0  0
   14.4575   -6.3808    0.0000 C   0  0  0  0  0  0  0  0  0  0  0  0
   15.7358   -7.1657    0.0000 C   0  0  0  0  0  0  0  0  0  0  0  0
   16.2354   -8.5800    0.0000 O   0  0  0  0  0  0  0  0  0  0  0  0
   13.9065   -7.7760    0.0000 C   0  0  0  0  0  0  0  0  0  0  0  0
   12.4228   -7.9964    0.0000 O   0  0  0  0  0  0  0  0  0  0  0  0
   14.8393   -8.9507    0.0000 N   0  0  0  0  0  0  0  0  0  0  0  0
   14.2883  -10.3458    0.0000 C   0  0  0  0  0  0  0  0  0  0  0  0
   13.2935  -11.4684    0.0000 C   0  0  0  0  0  0  0  0  0  0  0  0
   13.7682  -12.8913    0.0000 C   0  0  0  0  0  0  0  0  0  0  0  0
   11.9746  -12.1830    0.0000 C   0  0  0  0  0  0  0  0  0  0  0  0
   10.6963  -11.3982    0.0000 C   0  0  0  0  0  0  0  0  0  0  0  0
   15.2211  -11.5206    0.0000 C   0  0  0  0  0  0  0  0  0  0  0  0
   14.8443  -12.9725    0.0000 O   0  0  0  0  0  0  0  0  0  0  0  0
   16.7048  -11.3001    0.0000 O   0  0  0  0  0  0  0  0  0  0  0  0
  -20.5176    0.3220    0.0000 H   0  0  0  0  0  0  0  0  0  0  0  0
  -21.6604   -2.0113    0.0000 H   0  0  0  0  0  0  0  0  0  0  0  0
  -18.6525   -0.3931    0.0000 H   0  0  0  0  0  0  0  0  0  0  0  0
  -17.5768   -1.9936    0.0000 H   0  0  0  0  0  0  0  0  0  0  0  0
  -20.4577   -3.1716    0.0000 H   0  0  0  0  0  0  0  0  0  0  0  0
  -19.3820   -4.7720    0.0000 H   0  0  0  0  0  0  0  0  0  0  0  0
  -18.8545   -6.1659    0.0000 H   0  0  0  0  0  0  0  0  0  0  0  0
  -15.7539   -4.7057    0.0000 H   0  0  0  0  0  0  0  0  0  0  0  0
  -17.4693   -8.8002    0.0000 H   0  0  0  0  0  0  0  0  0  0  0  0
  -15.7063   -8.0188    0.0000 H   0  0  0  0  0  0  0  0  0  0  0  0
  -20.9202   -8.2525    0.0000 H   0  0  0  0  0  0  0  0  0  0  0  0
  -18.8208   -9.7831    0.0000 H   0  0  0  0  0  0  0  0  0  0  0  0
  -14.4024   -3.7228    0.0000 H   0  0  0  0  0  0  0  0  0  0  0  0
  -12.5869   -3.7804    0.0000 H   0  0  0  0  0  0  0  0  0  0  0  0
  -13.4482   -8.0053    0.0000 H   0  0  0  0  0  0  0  0  0  0  0  0
  -14.1856   -6.3803    0.0000 H   0  0  0  0  0  0  0  0  0  0  0  0
  -10.3316   -8.4351    0.0000 H   0  0  0  0  0  0  0  0  0  0  0  0
  -10.7950   -6.5632    0.0000 H   0  0  0  0  0  0  0  0  0  0  0  0
  -11.5954   -2.5058    0.0000 H   0  0  0  0  0  0  0  0  0  0  0  0
   -8.8730   -4.5877    0.0000 H   0  0  0  0  0  0  0  0  0  0  0  0
   -9.5020   -0.2220    0.0000 H   0  0  0  0  0  0  0  0  0  0  0  0
   -8.1269   -1.3594    0.0000 H   0  0  0  0  0  0  0  0  0  0  0  0
  -11.5155   -2.9943    0.0000 H   0  0  0  0  0  0  0  0  0  0  0  0
  -13.1433    0.1506    0.0000 H   0  0  0  0  0  0  0  0  0  0  0  0
  -11.7845    1.3072    0.0000 H   0  0  0  0  0  0  0  0  0  0  0  0
  -10.2811    0.3460    0.0000 H   0  0  0  0  0  0  0  0  0  0  0  0
  -13.1190   -3.3008    0.0000 H   0  0  0  0  0  0  0  0  0  0  0  0
  -14.0221   -1.7618    0.0000 H   0  0  0  0  0  0  0  0  0  0  0  0
  -12.8144   -0.4482    0.0000 H   0  0  0  0  0  0  0  0  0  0  0  0
   -7.3704   -0.7513    0.0000 H   0  0  0  0  0  0  0  0  0  0  0  0
   -5.0488   -4.7985    0.0000 H   0  0  0  0  0  0  0  0  0  0  0  0
   -5.8001   -3.7881    0.0000 H   0  0  0  0  0  0  0  0  0  0  0  0
   -3.7811   -6.0236    0.0000 H   0  0  0  0  0  0  0  0  0  0  0  0
   -4.7100   -5.1736    0.0000 H   0  0  0  0  0  0  0  0  0  0  0  0
   -2.3044   -6.9866    0.0000 H   0  0  0  0  0  0  0  0  0  0  0  0
   -3.3775   -6.3278    0.0000 H   0  0  0  0  0  0  0  0  0  0  0  0
   -0.6722   -7.6527    0.0000 H   0  0  0  0  0  0  0  0  0  0  0  0
   -1.8505   -7.2089    0.0000 H   0  0  0  0  0  0  0  0  0  0  0  0
    1.0566   -7.9979    0.0000 H   0  0  0  0  0  0  0  0  0  0  0  0
   -0.1845   -7.7851    0.0000 H   0  0  0  0  0  0  0  0  0  0  0  0
    2.9789   -7.9195    0.0000 H   0  0  0  0  0  0  0  0  0  0  0  0
    1.5605   -8.0356    0.0000 H   0  0  0  0  0  0  0  0  0  0  0  0
    3.9660   -7.9549    0.0000 H   0  0  0  0  0  0  0  0  0  0  0  0
   -7.3615   -3.7244    0.0000 H   0  0  0  0  0  0  0  0  0  0  0  0
   -6.0441   -4.9376    0.0000 H   0  0  0  0  0  0  0  0  0  0  0  0
   -4.7375   -4.3874    0.0000 H   0  0  0  0  0  0  0  0  0  0  0  0
   -7.3449    0.4057    0.0000 H   0  0  0  0  0  0  0  0  0  0  0  0
   -6.8768    3.2648    0.0000 H   0  0  0  0  0  0  0  0  0  0  0  0
   -8.3780    0.6398    0.0000 H   0  0  0  0  0  0  0  0  0  0  0  0
   -6.6600    0.1573    0.0000 H   0  0  0  0  0  0  0  0  0  0  0  0
   -9.8665    2.8167    0.0000 H   0  0  0  0  0  0  0  0  0  0  0  0
   -9.0572    1.0664    0.0000 H   0  0  0  0  0  0  0  0  0  0  0  0
   -7.6450    5.2751    0.0000 H   0  0  0  0  0  0  0  0  0  0  0  0
   -6.8357    3.5248    0.0000 H   0  0  0  0  0  0  0  0  0  0  0  0
  -10.8708    4.1525    0.0000 H   0  0  0  0  0  0  0  0  0  0  0  0
  -10.4641    8.6341    0.0000 H   0  0  0  0  0  0  0  0  0  0  0  0
  -11.9612    6.5107    0.0000 H   0  0  0  0  0  0  0  0  0  0  0  0
   -8.0598    8.4046    0.0000 H   0  0  0  0  0  0  0  0  0  0  0  0
   -7.0319    5.7701    0.0000 H   0  0  0  0  0  0  0  0  0  0  0  0
   -6.3631    5.4143    0.0000 H   0  0  0  0  0  0  0  0  0  0  0  0
   -4.5429    7.6930    0.0000 H   0  0  0  0  0  0  0  0  0  0  0  0
   -7.0206    6.1625    0.0000 H   0  0  0  0  0  0  0  0  0  0  0  0
   -5.8636    5.0090    0.0000 H   0  0  0  0  0  0  0  0  0  0  0  0
   -7.5674    8.2526    0.0000 H   0  0  0  0  0  0  0  0  0  0  0  0
   -2.6292    9.3860    0.0000 H   0  0  0  0  0  0  0  0  0  0  0  0
   -0.0085   10.2038    0.0000 H   0  0  0  0  0  0  0  0  0  0  0  0
   -2.8454   10.4230    0.0000 H   0  0  0  0  0  0  0  0  0  0  0  0
   -2.5706    8.6598    0.0000 H   0  0  0  0  0  0  0  0  0  0  0  0
    1.4244   10.8676    0.0000 H   0  0  0  0  0  0  0  0  0  0  0  0
    1.8677   13.6700    0.0000 H   0  0  0  0  0  0  0  0  0  0  0  0
   -0.4088   15.6239    0.0000 H   0  0  0  0  0  0  0  0  0  0  0  0
   -3.2391   14.6294    0.0000 H   0  0  0  0  0  0  0  0  0  0  0  0
   -3.7930   11.6810    0.0000 H   0  0  0  0  0  0  0  0  0  0  0  0
    2.5167   10.5934    0.0000 H   0  0  0  0  0  0  0  0  0  0  0  0
    5.2801    9.7231    0.0000 H   0  0  0  0  0  0  0  0  0  0  0  0
    2.7421   11.4825    0.0000 H   0  0  0  0  0  0  0  0  0  0  0  0
    2.1734    9.9508    0.0000 H   0  0  0  0  0  0  0  0  0  0  0  0
    6.0080   12.0416    0.0000 H   0  0  0  0  0  0  0  0  0  0  0  0
    5.8268   10.4179    0.0000 H   0  0  0  0  0  0  0  0  0  0  0  0
    3.3428   14.0102    0.0000 H   0  0  0  0  0  0  0  0  0  0  0  0
    2.8250   12.3025    0.0000 H   0  0  0  0  0  0  0  0  0  0  0  0
    6.7271   13.5501    0.0000 H   0  0  0  0  0  0  0  0  0  0  0  0
    5.4391   17.8618    0.0000 H   0  0  0  0  0  0  0  0  0  0  0  0
    7.3278   16.0778    0.0000 H   0  0  0  0  0  0  0  0  0  0  0  0
    2.9497   17.1182    0.0000 H   0  0  0  0  0  0  0  0  0  0  0  0
    2.3491   14.5905    0.0000 H   0  0  0  0  0  0  0  0  0  0  0  0
    7.4985    8.8270    0.0000 H   0  0  0  0  0  0  0  0  0  0  0  0
    9.3311    6.7828    0.0000 H   0  0  0  0  0  0  0  0  0  0  0  0
    9.7270    8.3171    0.0000 H   0  0  0  0  0  0  0  0  0  0  0  0
    8.3520    9.4544    0.0000 H   0  0  0  0  0  0  0  0  0  0  0  0
    6.8623    8.4720    0.0000 H   0  0  0  0  0  0  0  0  0  0  0  0
   10.7345    4.6476    0.0000 H   0  0  0  0  0  0  0  0  0  0  0  0
   11.0908    1.7725    0.0000 H   0  0  0  0  0  0  0  0  0  0  0  0
   11.6369    4.8120    0.0000 H   0  0  0  0  0  0  0  0  0  0  0  0
   10.0074    4.6930    0.0000 H   0  0  0  0  0  0  0  0  0  0  0  0
   11.9499    1.5637    0.0000 H   0  0  0  0  0  0  0  0  0  0  0  0
   14.9307    3.6942    0.0000 H   0  0  0  0  0  0  0  0  0  0  0  0
   14.1857    5.3156    0.0000 H   0  0  0  0  0  0  0  0  0  0  0  0
   12.4172    5.0772    0.0000 H   0  0  0  0  0  0  0  0  0  0  0  0
   14.9565    2.4409    0.0000 H   0  0  0  0  0  0  0  0  0  0  0  0
   14.2788    0.7902    0.0000 H   0  0  0  0  0  0  0  0  0  0  0  0
   12.3732    1.0859    0.0000 H   0  0  0  0  0  0  0  0  0  0  0  0
   11.1972   -0.6178    0.0000 H   0  0  0  0  0  0  0  0  0  0  0  0
    9.9992   -3.4631    0.0000 H   0  0  0  0  0  0  0  0  0  0  0  0
    9.1274   -4.5879    0.0000 H   0  0  0  0  0  0  0  0  0  0  0  0
    8.8929   -5.0598    0.0000 H   0  0  0  0  0  0  0  0  0  0  0  0
    8.0738   -5.7798    0.0000 H   0  0  0  0  0  0  0  0  0  0  0  0
    7.6830   -6.1003    0.0000 H   0  0  0  0  0  0  0  0  0  0  0  0
    6.4557   -6.8205    0.0000 H   0  0  0  0  0  0  0  0  0  0  0  0
    5.6682   -7.4169    0.0000 H   0  0  0  0  0  0  0  0  0  0  0  0
    9.8399   -4.6369    0.0000 H   0  0  0  0  0  0  0  0  0  0  0  0
   11.1977   -4.1229    0.0000 H   0  0  0  0  0  0  0  0  0  0  0  0
   11.3641   -2.3275    0.0000 H   0  0  0  0  0  0  0  0  0  0  0  0
   11.2824   -4.3086    0.0000 H   0  0  0  0  0  0  0  0  0  0  0  0
   12.6681   -1.2134    0.0000 H   0  0  0  0  0  0  0  0  0  0  0  0
   15.4566   -0.7991    0.0000 H   0  0  0  0  0  0  0  0  0  0  0  0
   13.5290   -0.7469    0.0000 H   0  0  0  0  0  0  0  0  0  0  0  0
   12.0410   -5.4266    0.0000 H   0  0  0  0  0  0  0  0  0  0  0  0
   15.4524   -5.2582    0.0000 H   0  0  0  0  0  0  0  0  0  0  0  0
   17.2054   -7.4660    0.0000 H   0  0  0  0  0  0  0  0  0  0  0  0
   16.2867   -5.7705    0.0000 H   0  0  0  0  0  0  0  0  0  0  0  0
   16.9735   -9.4500    0.0000 H   0  0  0  0  0  0  0  0  0  0  0  0
   16.3388   -8.9128    0.0000 H   0  0  0  0  0  0  0  0  0  0  0  0
   13.0101   -9.5610    0.0000 H   0  0  0  0  0  0  0  0  0  0  0  0
   12.5108  -10.1888    0.0000 H   0  0  0  0  0  0  0  0  0  0  0  0
   12.9176  -14.1268    0.0000 H   0  0  0  0  0  0  0  0  0  0  0  0
   14.7010  -14.0660    0.0000 H   0  0  0  0  0  0  0  0  0  0  0  0
   15.2555  -12.6969    0.0000 H   0  0  0  0  0  0  0  0  0  0  0  0
   10.9797  -13.3056    0.0000 H   0  0  0  0  0  0  0  0  0  0  0  0
   12.7572  -13.4627    0.0000 H   0  0  0  0  0  0  0  0  0  0  0  0
    9.3775  -12.1128    0.0000 H   0  0  0  0  0  0  0  0  0  0  0  0
    9.7636  -10.2235    0.0000 H   0  0  0  0  0  0  0  0  0  0  0  0
   11.5470  -10.1627    0.0000 H   0  0  0  0  0  0  0  0  0  0  0  0
  1  2  1  0
  2  3  1  0
  3  4  1  0
  4  5  2  0
  4  6  1  0
  6  7  1  0
  7  8  1  0
  8  9  1  0
  9 10  1  0
  9 11  2  0
  7 12  1  0
 12 13  2  0
 12 14  1  0
 14 15  1  0
 15 16  1  0
 16 17  1  0
 17 18  1  0
 18 19  2  0
 18 20  1  0
 15 21  1  0
 21 22  2  0
 21 23  1  0
 23 24  1  0
 24 25  1  0
 25 26  1  0
 26 27  1  0
 26 28  1  0
 24 29  1  0
 29 30  2  0
 29 31  1  0
 32 31  1  1
 32 33  1  0
 33 34  1  0
 34 35  1  0
 35 36  1  0
 36 37  1  0
 37 38  1  0
 38 39  1  0
 32 40  1  0
 32 41  1  0
 41 42  2  0
 41 43  1  0
 43 44  1  0
 44 45  1  0
 45 46  1  0
 46 47  1  0
 47 48  1  0
 48 49  1  0
 49 50  2  3
 49 51  1  0
 44 52  1  0
 52 53  2  0
 52 54  1  0
 54 55  1  0
 55 56  1  0
 56 57  1  0
 55 58  1  0
 58 59  2  0
 58 60  1  0
 60 61  1  0
 61 62  1  0
 62 63  1  0
 63 64  2  0
 64 65  1  0
 65 66  2  0
 66 67  1  0
 67 68  2  0
 61 69  1  0
 69 70  2  0
 69 71  1  0
 71 72  1  0
 72 73  1  0
 73 74  1  0
 74 75  1  0
 75 76  1  0
 76 77  1  0
 77 78  2  3
 77 79  1  0
 72 80  1  0
 80 81  2  0
 80 82  1  0
 82 83  1  0
 83 84  1  0
 83 85  1  0
 85 86  2  0
 85 87  1  0
 87 88  1  0
 88 89  1  0
 89 90  1  0
 90 91  1  0
 90 92  1  0
 88 93  1  0
 93 94  2  0
 93 95  1  0
 95 96  1  0
 96 97  1  0
 97 98  1  0
 98 99  1  0
 99100  1  0
 96101  1  0
 96102  1  6
102103  2  0
102104  1  0
104105  1  0
105106  1  0
106107  1  0
107108  2  0
107109  1  0
105110  1  0
110111  2  0
110112  1  0
112113  1  0
113114  1  0
114115  1  0
113116  1  0
116117  2  0
116118  1  0
118119  1  0
119120  1  0
120121  1  0
120122  1  0
122123  1  0
119124  1  0
124125  2  0
124126  1  0
 68 63  1  0
 39100  2  0
  1127  1  0
  1128  1  0
  2129  1  0
  2130  1  0
  3131  1  0
  3132  1  0
  6133  1  0
  7134  1  6
  8135  1  0
  8136  1  0
 10137  1  0
 10138  1  0
 14139  1  0
 15140  1  6
 16141  1  0
 16142  1  0
 17143  1  0
 17144  1  0
 23145  1  0
 24146  1  1
 25147  1  0
 25148  1  0
 26149  1  0
 27150  1  0
 27151  1  0
 27152  1  0
 28153  1  0
 28154  1  0
 28155  1  0
 31156  1  0
 33157  1  0
 33158  1  0
 34159  1  0
 34160  1  0
 35161  1  0
 35162  1  0
 36163  1  0
 36164  1  0
 37165  1  0
 37166  1  0
 38167  1  0
 38168  1  0
 39169  1  0
 40170  1  0
 40171  1  0
 40172  1  0
 43173  1  0
 44174  1  1
 45175  1  0
 45176  1  0
 46177  1  0
 46178  1  0
 47179  1  0
 47180  1  0
 48181  1  0
 50182  1  0
 50183  1  0
 51184  1  0
 51185  1  0
 54186  1  0
 55187  1  1
 56188  1  0
 56189  1  0
 57190  1  0
 60191  1  0
 61192  1  1
 62193  1  0
 62194  1  0
 64195  1  0
 65196  1  0
 66197  1  0
 67198  1  0
 68199  1  0
 71200  1  0
 72201  1  1
 73202  1  0
 73203  1  0
 74204  1  0
 74205  1  0
 75206  1  0
 75207  1  0
 76208  1  0
 78209  1  0
 78210  1  0
 79211  1  0
 79212  1  0
 82213  1  0
 83214  1  1
 84215  1  0
 84216  1  0
 84217  1  0
 87218  1  0
 88219  1  1
 89220  1  0
 89221  1  0
 90222  1  0
 91223  1  0
 91224  1  0
 91225  1  0
 92226  1  0
 92227  1  0
 92228  1  0
 95229  1  0
 97230  1  0
 97231  1  0
 98232  1  0
 98233  1  0
 99234  1  0
 99235  1  0
100236  1  0
101237  1  0
101238  1  0
101239  1  0
104240  1  0
105241  1  1
106242  1  0
106243  1  0
112244  1  0
113245  1  1
114246  1  0
114247  1  0
115248  1  0
118249  1  0
119250  1  6
120251  1  6
121252  1  0
121253  1  0
121254  1  0
122255  1  0
122256  1  0
123257  1  0
123258  1  0
123259  1  0
M  CHG  5  20  -1  50   1  78   1 109  -1 126  -1
M  END
