
     RDKit          2D

354362  0  0  0  0  0  0  0  0999 V2000
  -28.8659    0.0832    0.0000 C   0  0  0  0  0  0  0  0  0  0  0  0
  -30.1217   -0.7371    0.0000 N   0  0  0  0  0  0  0  0  0  0  0  0
  -31.4600   -0.0597    0.0000 C   0  0  0  0  0  0  0  0  0  0  0  0
  -31.5425    1.4380    0.0000 C   0  0  0  0  0  0  0  0  0  0  0  0
  -32.8808    2.1154    0.0000 C   0  0  0  0  0  0  0  0  0  0  0  0
  -34.1366    1.2951    0.0000 C   0  0  0  0  0  0  0  0  0  0  0  0
  -34.0541   -0.2026    0.0000 C   0  0  0  0  0  0  0  0  0  0  0  0
  -32.7158   -0.8800    0.0000 C   0  0  0  0  0  0  0  0  0  0  0  0
  -35.4531   -0.7439    0.0000 C   0  0  0  0  0  0  0  0  0  0  0  0
  -36.4002    0.4193    0.0000 O   0  0  0  0  0  0  0  0  0  0  0  0
  -35.5866    1.6795    0.0000 C   0  0  0  0  0  0  0  0  0  0  0  0
  -36.1278    3.0784    0.0000 O   0  0  0  0  0  0  0  0  0  0  0  0
  -36.9009   -1.1360    0.0000 C   0  0  0  0  0  0  0  0  0  0  0  0
  -37.2853   -2.5859    0.0000 C   0  0  0  0  0  0  0  0  0  0  0  0
  -38.7331   -2.9780    0.0000 C   0  0  0  0  0  0  0  0  0  0  0  0
  -39.7966   -1.9202    0.0000 C   0  0  0  0  0  0  0  0  0  0  0  0
  -39.4123   -0.4702    0.0000 C   0  0  0  0  0  0  0  0  0  0  0  0
  -37.9644   -0.0781    0.0000 C   0  0  0  0  0  0  0  0  0  0  0  0
  -41.2445   -2.3122    0.0000 O   0  0  0  0  0  0  0  0  0  0  0  0
  -36.2218   -3.6437    0.0000 O   0  0  0  0  0  0  0  0  0  0  0  0
  -34.7740   -3.2516    0.0000 C   0  0  0  0  0  0  0  0  0  0  0  0
  -34.3896   -1.8017    0.0000 C   0  0  0  0  0  0  0  0  0  0  0  0
  -33.1211   -2.0862    0.0000 C   0  0  0  0  0  0  0  0  0  0  0  0
  -32.5539   -2.6504    0.0000 C   0  0  0  0  0  0  0  0  0  0  0  0
  -32.7589   -3.4237    0.0000 C   0  0  0  0  0  0  0  0  0  0  0  0
  -33.5311   -3.6328    0.0000 C   0  0  0  0  0  0  0  0  0  0  0  0
  -31.1991   -4.9752    0.0000 O   0  0  0  0  0  0  0  0  0  0  0  0
  -28.9484    1.5809    0.0000 S   0  0  0  0  0  0  0  0  0  0  0  0
  -27.5275   -0.5942    0.0000 N   0  0  0  0  0  0  0  0  0  0  0  0
  -26.2717    0.2261    0.0000 C   0  0  0  0  0  0  0  0  0  0  0  0
  -24.9334   -0.4513    0.0000 C   0  0  0  0  0  0  0  0  0  0  0  0
  -23.6776    0.3690    0.0000 C   0  0  0  0  0  0  0  0  0  0  0  0
  -23.7601    1.8667    0.0000 O   0  0  0  0  0  0  0  0  0  0  0  0
  -22.3392   -0.3085    0.0000 N   0  0  0  0  0  0  0  0  0  0  0  0
  -21.0834    0.5119    0.0000 C   0  0  0  0  0  0  0  0  0  0  0  0
  -20.1839    1.7122    0.0000 C   0  0  0  0  0  0  0  0  0  0  0  0
  -18.6946    1.5334    0.0000 C   0  0  0  0  0  0  0  0  0  0  0  0
  -17.7951    2.7337    0.0000 C   0  0  0  0  0  0  0  0  0  0  0  0
  -16.5801    2.7370    0.0000 O   0  0  0  0  0  0  0  0  0  0  0  0
  -18.3848    4.1129    0.0000 O   0  0  0  0  0  0  0  0  0  0  0  0
  -19.7451   -0.1656    0.0000 C   0  0  0  0  0  0  0  0  0  0  0  0
  -19.6626   -1.6633    0.0000 O   0  0  0  0  0  0  0  0  0  0  0  0
  -18.4893    0.6548    0.0000 N   0  0  0  0  0  0  0  0  0  0  0  0
  -17.1510   -0.0227    0.0000 C   0  0  0  0  0  0  0  0  0  0  0  0
  -16.1250   -1.1170    0.0000 C   0  0  0  0  0  0  0  0  0  0  0  0
  -16.5598   -2.5526    0.0000 C   0  0  0  0  0  0  0  0  0  0  0  0
  -15.5338   -3.6469    0.0000 C   0  0  0  0  0  0  0  0  0  0  0  0
  -15.9686   -5.0825    0.0000 N   0  0  0  0  0  0  0  0  0  0  0  0
  -14.9427   -6.1768    0.0000 C   0  0  0  0  0  0  0  0  0  0  0  0
  -15.3774   -7.6124    0.0000 N   0  0  0  0  0  0  0  0  0  0  0  0
  -13.4820   -5.8355    0.0000 N   0  0  0  0  0  0  0  0  0  0  0  0
  -15.8951    0.7976    0.0000 C   0  0  0  0  0  0  0  0  0  0  0  0
  -15.8136    2.0099    0.0000 O   0  0  0  0  0  0  0  0  0  0  0  0
  -14.5568    0.1202    0.0000 N   0  0  0  0  0  0  0  0  0  0  0  0
  -13.3010    0.9405    0.0000 C   0  0  0  0  0  0  0  0  0  0  0  0
  -12.4015    2.1409    0.0000 C   0  0  0  0  0  0  0  0  0  0  0  0
  -10.9122    1.9621    0.0000 C   0  0  0  0  0  0  0  0  0  0  0  0
  -10.0126    3.1624    0.0000 C   0  0  0  0  0  0  0  0  0  0  0  0
   -9.5738    1.2846    0.0000 C   0  0  0  0  0  0  0  0  0  0  0  0
  -11.9627    0.2631    0.0000 C   0  0  0  0  0  0  0  0  0  0  0  0
  -11.8802   -1.2346    0.0000 O   0  0  0  0  0  0  0  0  0  0  0  0
  -10.7068    1.0834    0.0000 N   0  0  0  0  0  0  0  0  0  0  0  0
   -9.3685    0.4060    0.0000 C   0  0  0  0  0  0  0  0  0  0  0  0
   -8.3426   -0.6883    0.0000 C   0  0  0  0  0  0  0  0  0  0  0  0
   -8.7773   -2.1239    0.0000 C   0  0  0  0  0  0  0  0  0  0  0  0
   -7.7514   -3.2182    0.0000 C   0  0  0  0  0  0  0  0  0  0  0  0
   -8.1861   -4.6538    0.0000 N   0  0  0  0  0  0  0  0  0  0  0  0
   -7.1602   -5.7481    0.0000 C   0  0  0  0  0  0  0  0  0  0  0  0
   -7.5950   -7.1838    0.0000 N   0  0  0  0  0  0  0  0  0  0  0  0
   -5.6996   -5.4068    0.0000 N   0  0  0  0  0  0  0  0  0  0  0  0
   -8.1127    1.2263    0.0000 C   0  0  0  0  0  0  0  0  0  0  0  0
   -8.0120    2.7229    0.0000 O   0  0  0  0  0  0  0  0  0  0  0  0
   -6.7744    0.5489    0.0000 N   0  0  0  0  0  0  0  0  0  0  0  0
   -5.5186    1.3692    0.0000 C   0  0  0  0  0  0  0  0  0  0  0  0
   -4.6190    2.5696    0.0000 C   0  0  0  0  0  0  0  0  0  0  0  0
   -3.1297    2.3907    0.0000 C   0  0  0  0  0  0  0  0  0  0  0  0
   -2.2302    3.5911    0.0000 C   0  0  0  0  0  0  0  0  0  0  0  0
   -0.7409    3.4123    0.0000 N   0  0  0  0  0  0  0  0  0  0  0  0
    0.1586    4.6126    0.0000 C   0  0  0  0  0  0  0  0  0  0  0  0
    1.6479    4.4338    0.0000 N   0  0  0  0  0  0  0  0  0  0  0  0
   -0.4312    5.9918    0.0000 N   0  0  0  0  0  0  0  0  0  0  0  0
   -4.1802    0.6918    0.0000 C   0  0  0  0  0  0  0  0  0  0  0  0
   -4.0977   -0.8059    0.0000 O   0  0  0  0  0  0  0  0  0  0  0  0
   -2.9244    1.5121    0.0000 N   0  0  0  0  0  0  0  0  0  0  0  0
   -1.5861    0.8347    0.0000 C   0  0  0  0  0  0  0  0  0  0  0  0
   -0.5602   -0.2596    0.0000 C   0  0  0  0  0  0  0  0  0  0  0  0
   -0.9949   -1.6952    0.0000 C   0  0  0  0  0  0  0  0  0  0  0  0
    0.0310   -2.7895    0.0000 C   0  0  0  0  0  0  0  0  0  0  0  0
   -0.4037   -4.2252    0.0000 N   0  0  0  0  0  0  0  0  0  0  0  0
    0.6222   -5.3195    0.0000 C   0  0  0  0  0  0  0  0  0  0  0  0
    0.1875   -6.7551    0.0000 N   0  0  0  0  0  0  0  0  0  0  0  0
    2.0829   -4.9781    0.0000 N   0  0  0  0  0  0  0  0  0  0  0  0
   -0.3303    1.6550    0.0000 C   0  0  0  0  0  0  0  0  0  0  0  0
   -0.1244    2.7289    0.0000 O   0  0  0  0  0  0  0  0  0  0  0  0
    1.0080    0.9776    0.0000 N   0  0  0  0  0  0  0  0  0  0  0  0
    2.2639    1.7979    0.0000 C   0  0  0  0  0  0  0  0  0  0  0  0
    3.1634    2.9982    0.0000 C   0  0  0  0  0  0  0  0  0  0  0  0
    4.6634    3.0023    0.0000 C   0  0  0  0  0  0  0  0  0  0  0  0
    3.5981    4.4339    0.0000 C   0  0  0  0  0  0  0  0  0  0  0  0
    5.0063    4.9507    0.0000 C   0  0  0  0  0  0  0  0  0  0  0  0
    3.6022    1.1205    0.0000 C   0  0  0  0  0  0  0  0  0  0  0  0
    3.5015   -0.3762    0.0000 O   0  0  0  0  0  0  0  0  0  0  0  0
    4.8580    1.9408    0.0000 N   0  0  0  0  0  0  0  0  0  0  0  0
    6.1963    1.2634    0.0000 C   0  0  0  0  0  0  0  0  0  0  0  0
    6.5740   -0.1883    0.0000 C   0  0  0  0  0  0  0  0  0  0  0  0
    7.3627   -1.4642    0.0000 C   0  0  0  0  0  0  0  0  0  0  0  0
    8.4925   -2.4509    0.0000 C   0  0  0  0  0  0  0  0  0  0  0  0
    9.8629   -3.0608    0.0000 C   0  0  0  0  0  0  0  0  0  0  0  0
    4.9224    0.4715    0.0000 C   0  0  0  0  0  0  0  0  0  0  0  0
    6.2634    2.7619    0.0000 C   0  0  0  0  0  0  0  0  0  0  0  0
    5.5058    3.0100    0.0000 O   0  0  0  0  0  0  0  0  0  0  0  0
    6.7691    4.1740    0.0000 N   0  0  0  0  0  0  0  0  0  0  0  0
    7.6686    5.3744    0.0000 C   0  0  0  0  0  0  0  0  0  0  0  0
    7.3638    6.8431    0.0000 C   0  0  0  0  0  0  0  0  0  0  0  0
    8.4834    7.8414    0.0000 C   0  0  0  0  0  0  0  0  0  0  0  0
    9.9077    7.3710    0.0000 C   0  0  0  0  0  0  0  0  0  0  0  0
   11.0273    8.3693    0.0000 C   0  0  0  0  0  0  0  0  0  0  0  0
   10.7225    9.8380    0.0000 C   0  0  0  0  0  0  0  0  0  0  0  0
    9.2981   10.3084    0.0000 C   0  0  0  0  0  0  0  0  0  0  0  0
    8.1786    9.3101    0.0000 C   0  0  0  0  0  0  0  0  0  0  0  0
    8.8820    6.2563    0.0000 C   0  0  0  0  0  0  0  0  0  0  0  0
    8.5335    7.7152    0.0000 O   0  0  0  0  0  0  0  0  0  0  0  0
   10.3014    6.7413    0.0000 N   0  0  0  0  0  0  0  0  0  0  0  0
   11.8007    6.7865    0.0000 C   0  0  0  0  0  0  0  0  0  0  0  0
   12.7590    7.9405    0.0000 C   0  0  0  0  0  0  0  0  0  0  0  0
   12.2387    9.3474    0.0000 S   0  0  0  0  0  0  0  0  0  0  0  0
   13.2468    6.3877    0.0000 C   0  0  0  0  0  0  0  0  0  0  0  0
   13.8566    7.7581    0.0000 O   0  0  0  0  0  0  0  0  0  0  0  0
   14.5110    5.5803    0.0000 N   0  0  0  0  0  0  0  0  0  0  0  0
   15.4811    4.4363    0.0000 C   0  0  0  0  0  0  0  0  0  0  0  0
   16.9808    4.4066    0.0000 C   0  0  0  0  0  0  0  0  0  0  0  0
   17.7563    5.6906    0.0000 C   0  0  0  0  0  0  0  0  0  0  0  0
   19.2560    5.6609    0.0000 C   0  0  0  0  0  0  0  0  0  0  0  0
   20.0316    6.9449    0.0000 N   0  0  0  0  0  0  0  0  0  0  0  0
   21.5313    6.9152    0.0000 C   0  0  0  0  0  0  0  0  0  0  0  0
   22.3068    8.1992    0.0000 N   0  0  0  0  0  0  0  0  0  0  0  0
   22.2554    5.6016    0.0000 N   0  0  0  0  0  0  0  0  0  0  0  0
   16.0709    3.0571    0.0000 C   0  0  0  0  0  0  0  0  0  0  0  0
   17.5225    3.4347    0.0000 O   0  0  0  0  0  0  0  0  0  0  0  0
   16.2279    1.5653    0.0000 N   0  0  0  0  0  0  0  0  0  0  0  0
   15.9383    0.0936    0.0000 C   0  0  0  0  0  0  0  0  0  0  0  0
   15.2277   -1.2275    0.0000 C   0  0  0  0  0  0  0  0  0  0  0  0
   14.1593   -2.2803    0.0000 C   0  0  0  0  0  0  0  0  0  0  0  0
   12.8281   -2.9715    0.0000 C   0  0  0  0  0  0  0  0  0  0  0  0
   11.3522   -3.2396    0.0000 C   0  0  0  0  0  0  0  0  0  0  0  0
   17.3989    0.4349    0.0000 C   0  0  0  0  0  0  0  0  0  0  0  0
   16.8501   -1.0975    0.0000 C   0  0  0  0  0  0  0  0  0  0  0  0
   16.6269   -2.5808    0.0000 O   0  0  0  0  0  0  0  0  0  0  0  0
   18.3375   -0.9033    0.0000 N   0  0  0  0  0  0  0  0  0  0  0  0
   19.2494   -2.0943    0.0000 C   0  0  0  0  0  0  0  0  0  0  0  0
   19.6989   -3.5253    0.0000 C   0  0  0  0  0  0  0  0  0  0  0  0
   18.6843   -4.6302    0.0000 C   0  0  0  0  0  0  0  0  0  0  0  0
   18.9818   -6.1004    0.0000 C   0  0  0  0  0  0  0  0  0  0  0  0
   17.6755   -6.8376    0.0000 N   0  0  0  0  0  0  0  0  0  0  0  0
   16.5707   -5.8230    0.0000 C   0  0  0  0  0  0  0  0  0  0  0  0
   17.1942   -4.4588    0.0000 N   0  0  0  0  0  0  0  0  0  0  0  0
   20.7368   -1.9001    0.0000 C   0  0  0  0  0  0  0  0  0  0  0  0
   21.3123   -0.5149    0.0000 O   0  0  0  0  0  0  0  0  0  0  0  0
   21.6486   -3.0911    0.0000 N   0  0  0  0  0  0  0  0  0  0  0  0
   23.1360   -2.8969    0.0000 C   0  0  0  0  0  0  0  0  0  0  0  0
   24.4673   -2.2057    0.0000 C   0  0  0  0  0  0  0  0  0  0  0  0
   25.7315   -3.0130    0.0000 C   0  0  0  0  0  0  0  0  0  0  0  0
   27.1277   -2.4648    0.0000 C   0  0  0  0  0  0  0  0  0  0  0  0
   28.0806   -3.6232    0.0000 N   0  0  0  0  0  0  0  0  0  0  0  0
   27.2733   -4.8874    0.0000 C   0  0  0  0  0  0  0  0  0  0  0  0
   25.8215   -4.5103    0.0000 N   0  0  0  0  0  0  0  0  0  0  0  0
   24.0479   -4.0879    0.0000 C   0  0  0  0  0  0  0  0  0  0  0  0
   23.4724   -5.4731    0.0000 O   0  0  0  0  0  0  0  0  0  0  0  0
   25.5352   -3.8937    0.0000 N   0  0  0  0  0  0  0  0  0  0  0  0
   26.4471   -5.0847    0.0000 C   0  0  0  0  0  0  0  0  0  0  0  0
   26.8966   -6.5158    0.0000 C   0  0  0  0  0  0  0  0  0  0  0  0
   25.8821   -7.6206    0.0000 O   0  0  0  0  0  0  0  0  0  0  0  0
   27.9345   -4.8905    0.0000 C   0  0  0  0  0  0  0  0  0  0  0  0
   28.8281   -3.6858    0.0000 O   0  0  0  0  0  0  0  0  0  0  0  0
   28.8464   -6.0815    0.0000 N   0  0  0  0  0  0  0  0  0  0  0  0
   30.3337   -5.8873    0.0000 C   0  0  0  0  0  0  0  0  0  0  0  0
   31.6650   -5.1962    0.0000 C   0  0  0  0  0  0  0  0  0  0  0  0
   32.6796   -4.0913    0.0000 O   0  0  0  0  0  0  0  0  0  0  0  0
   32.9292   -6.0035    0.0000 C   0  0  0  0  0  0  0  0  0  0  0  0
   31.2456   -7.0784    0.0000 C   0  0  0  0  0  0  0  0  0  0  0  0
   32.7455   -7.0669    0.0000 O   0  0  0  0  0  0  0  0  0  0  0  0
   30.6701   -8.4636    0.0000 O   0  0  0  0  0  0  0  0  0  0  0  0
  -29.8572   -2.2136    0.0000 H   0  0  0  0  0  0  0  0  0  0  0  0
  -30.2867    2.2583    0.0000 H   0  0  0  0  0  0  0  0  0  0  0  0
  -32.9633    3.6132    0.0000 H   0  0  0  0  0  0  0  0  0  0  0  0
  -32.2734   -2.3133    0.0000 H   0  0  0  0  0  0  0  0  0  0  0  0
  -39.1175   -4.4279    0.0000 H   0  0  0  0  0  0  0  0  0  0  0  0
  -40.4757    0.5876    0.0000 H   0  0  0  0  0  0  0  0  0  0  0  0
  -37.5800    1.3718    0.0000 H   0  0  0  0  0  0  0  0  0  0  0  0
  -42.3080   -1.2544    0.0000 H   0  0  0  0  0  0  0  0  0  0  0  0
  -32.5574    0.0403    0.0000 H   0  0  0  0  0  0  0  0  0  0  0  0
  -30.3934   -2.2548    0.0000 H   0  0  0  0  0  0  0  0  0  0  0  0
  -34.0948   -5.7594    0.0000 H   0  0  0  0  0  0  0  0  0  0  0  0
  -31.5835   -6.4251    0.0000 H   0  0  0  0  0  0  0  0  0  0  0  0
  -27.4450   -2.0920    0.0000 H   0  0  0  0  0  0  0  0  0  0  0  0
  -25.3722    1.4264    0.0000 H   0  0  0  0  0  0  0  0  0  0  0  0
  -27.2976    1.3204    0.0000 H   0  0  0  0  0  0  0  0  0  0  0  0
  -23.9075   -1.5456    0.0000 H   0  0  0  0  0  0  0  0  0  0  0  0
  -25.8329   -1.6517    0.0000 H   0  0  0  0  0  0  0  0  0  0  0  0
  -22.2567   -1.8062    0.0000 H   0  0  0  0  0  0  0  0  0  0  0  0
  -22.1093    1.6062    0.0000 H   0  0  0  0  0  0  0  0  0  0  0  0
  -19.7492    3.1478    0.0000 H   0  0  0  0  0  0  0  0  0  0  0  0
  -21.5222    2.3896    0.0000 H   0  0  0  0  0  0  0  0  0  0  0  0
  -17.3563    0.8560    0.0000 H   0  0  0  0  0  0  0  0  0  0  0  0
  -18.4043    0.0617    0.0000 H   0  0  0  0  0  0  0  0  0  0  0  0
  -18.2069    2.1279    0.0000 H   0  0  0  0  0  0  0  0  0  0  0  0
  -18.1901   -1.1044    0.0000 H   0  0  0  0  0  0  0  0  0  0  0  0
  -14.7867   -1.7944    0.0000 H   0  0  0  0  0  0  0  0  0  0  0  0
  -14.9618   -0.1699    0.0000 H   0  0  0  0  0  0  0  0  0  0  0  0
  -17.4593   -3.7529    0.0000 H   0  0  0  0  0  0  0  0  0  0  0  0
  -17.9707   -2.0434    0.0000 H   0  0  0  0  0  0  0  0  0  0  0  0
  -14.1955   -4.3243    0.0000 H   0  0  0  0  0  0  0  0  0  0  0  0
  -14.4947   -2.5651    0.0000 H   0  0  0  0  0  0  0  0  0  0  0  0
  -17.4292   -5.4238    0.0000 H   0  0  0  0  0  0  0  0  0  0  0  0
  -14.3515   -8.7067    0.0000 H   0  0  0  0  0  0  0  0  0  0  0  0
  -16.8380   -7.9538    0.0000 H   0  0  0  0  0  0  0  0  0  0  0  0
  -12.4561   -6.9298    0.0000 H   0  0  0  0  0  0  0  0  0  0  0  0
  -13.0473   -4.3999    0.0000 H   0  0  0  0  0  0  0  0  0  0  0  0
  -14.2924   -1.3563    0.0000 H   0  0  0  0  0  0  0  0  0  0  0  0
  -14.3269    2.0348    0.0000 H   0  0  0  0  0  0  0  0  0  0  0  0
  -12.1450    3.6188    0.0000 H   0  0  0  0  0  0  0  0  0  0  0  0
  -13.7398    2.8183    0.0000 H   0  0  0  0  0  0  0  0  0  0  0  0
  -10.6219    0.4904    0.0000 H   0  0  0  0  0  0  0  0  0  0  0  0
   -8.5243    3.3493    0.0000 H   0  0  0  0  0  0  0  0  0  0  0  0
   -9.5779    4.5980    0.0000 H   0  0  0  0  0  0  0  0  0  0  0  0
  -11.2584    3.9979    0.0000 H   0  0  0  0  0  0  0  0  0  0  0  0
   -9.1314   -0.1486    0.0000 H   0  0  0  0  0  0  0  0  0  0  0  0
   -8.1194    1.6515    0.0000 H   0  0  0  0  0  0  0  0  0  0  0  0
   -8.9674    2.6566    0.0000 H   0  0  0  0  0  0  0  0  0  0  0  0
  -10.4245    2.5566    0.0000 H   0  0  0  0  0  0  0  0  0  0  0  0
  -10.4077   -0.6758    0.0000 H   0  0  0  0  0  0  0  0  0  0  0  0
   -7.0043   -1.3657    0.0000 H   0  0  0  0  0  0  0  0  0  0  0  0
   -7.0726    0.1099    0.0000 H   0  0  0  0  0  0  0  0  0  0  0  0
   -9.6769   -3.3243    0.0000 H   0  0  0  0  0  0  0  0  0  0  0  0
  -10.1883   -1.6147    0.0000 H   0  0  0  0  0  0  0  0  0  0  0  0
   -6.4131   -3.8956    0.0000 H   0  0  0  0  0  0  0  0  0  0  0  0
   -6.7123   -2.1365    0.0000 H   0  0  0  0  0  0  0  0  0  0  0  0
   -9.6468   -4.9952    0.0000 H   0  0  0  0  0  0  0  0  0  0  0  0
   -6.5690   -8.2781    0.0000 H   0  0  0  0  0  0  0  0  0  0  0  0
   -9.0556   -7.5251    0.0000 H   0  0  0  0  0  0  0  0  0  0  0  0
   -4.6737   -6.5011    0.0000 H   0  0  0  0  0  0  0  0  0  0  0  0
   -5.2648   -3.9712    0.0000 H   0  0  0  0  0  0  0  0  0  0  0  0
   -6.5099   -0.9276    0.0000 H   0  0  0  0  0  0  0  0  0  0  0  0
   -6.5445    2.4635    0.0000 H   0  0  0  0  0  0  0  0  0  0  0  0
   -4.3625    4.0475    0.0000 H   0  0  0  0  0  0  0  0  0  0  0  0
   -5.9574    3.2470    0.0000 H   0  0  0  0  0  0  0  0  0  0  0  0
   -1.7914    1.7133    0.0000 H   0  0  0  0  0  0  0  0  0  0  0  0
   -2.8394    0.9191    0.0000 H   0  0  0  0  0  0  0  0  0  0  0  0
   -1.7955    5.0267    0.0000 H   0  0  0  0  0  0  0  0  0  0  0  0
   -3.4760    4.4266    0.0000 H   0  0  0  0  0  0  0  0  0  0  0  0
    0.1651    2.2168    0.0000 H   0  0  0  0  0  0  0  0  0  0  0  0
    2.5474    5.6341    0.0000 H   0  0  0  0  0  0  0  0  0  0  0  0
    2.0869    2.9876    0.0000 H   0  0  0  0  0  0  0  0  0  0  0  0
    0.4684    7.1922    0.0000 H   0  0  0  0  0  0  0  0  0  0  0  0
   -1.9205    6.1706    0.0000 H   0  0  0  0  0  0  0  0  0  0  0  0
   -2.6421    2.9853    0.0000 H   0  0  0  0  0  0  0  0  0  0  0  0
   -2.6252   -0.2471    0.0000 H   0  0  0  0  0  0  0  0  0  0  0  0
    0.7781   -0.9370    0.0000 H   0  0  0  0  0  0  0  0  0  0  0  0
    0.6031    0.6874    0.0000 H   0  0  0  0  0  0  0  0  0  0  0  0
   -1.8944   -2.8956    0.0000 H   0  0  0  0  0  0  0  0  0  0  0  0
   -2.4058   -1.1860    0.0000 H   0  0  0  0  0  0  0  0  0  0  0  0
    1.3693   -3.4670    0.0000 H   0  0  0  0  0  0  0  0  0  0  0  0
    1.0701   -1.7078    0.0000 H   0  0  0  0  0  0  0  0  0  0  0  0
   -1.8644   -4.5665    0.0000 H   0  0  0  0  0  0  0  0  0  0  0  0
    1.2134   -7.8494    0.0000 H   0  0  0  0  0  0  0  0  0  0  0  0
   -1.2732   -7.0964    0.0000 H   0  0  0  0  0  0  0  0  0  0  0  0
    3.1088   -6.0724    0.0000 H   0  0  0  0  0  0  0  0  0  0  0  0
    2.5176   -3.5425    0.0000 H   0  0  0  0  0  0  0  0  0  0  0  0
    1.2725   -0.4989    0.0000 H   0  0  0  0  0  0  0  0  0  0  0  0
    1.2380    2.8922    0.0000 H   0  0  0  0  0  0  0  0  0  0  0  0
    1.7009    3.3317    0.0000 H   0  0  0  0  0  0  0  0  0  0  0  0
    5.5746    4.0198    0.0000 H   0  0  0  0  0  0  0  0  0  0  0  0
    6.1597    2.4888    0.0000 H   0  0  0  0  0  0  0  0  0  0  0  0
    4.8277    1.3317    0.0000 H   0  0  0  0  0  0  0  0  0  0  0  0
    3.5156    5.9316    0.0000 H   0  0  0  0  0  0  0  0  0  0  0  0
    2.1417    4.7929    0.0000 H   0  0  0  0  0  0  0  0  0  0  0  0
    5.1741    6.2913    0.0000 H   0  0  0  0  0  0  0  0  0  0  0  0
    6.5471    4.9620    0.0000 H   0  0  0  0  0  0  0  0  0  0  0  0
    5.1413    3.2775    0.0000 H   0  0  0  0  0  0  0  0  0  0  0  0
    4.5936    3.4173    0.0000 H   0  0  0  0  0  0  0  0  0  0  0  0
    5.0756   -0.1176    0.0000 H   0  0  0  0  0  0  0  0  0  0  0  0
    5.7354   -1.4320    0.0000 H   0  0  0  0  0  0  0  0  0  0  0  0
    5.9665   -2.0125    0.0000 H   0  0  0  0  0  0  0  0  0  0  0  0
    6.7562   -2.8361    0.0000 H   0  0  0  0  0  0  0  0  0  0  0  0
    7.2147   -3.2365    0.0000 H   0  0  0  0  0  0  0  0  0  0  0  0
    8.5002   -3.9509    0.0000 H   0  0  0  0  0  0  0  0  0  0  0  0
    9.4641   -4.5068    0.0000 H   0  0  0  0  0  0  0  0  0  0  0  0
    4.8549   -1.1931    0.0000 H   0  0  0  0  0  0  0  0  0  0  0  0
    3.6962   -0.3183    0.0000 H   0  0  0  0  0  0  0  0  0  0  0  0
    3.9280    1.3368    0.0000 H   0  0  0  0  0  0  0  0  0  0  0  0
    5.6593    5.1831    0.0000 H   0  0  0  0  0  0  0  0  0  0  0  0
    6.2046    5.7006    0.0000 H   0  0  0  0  0  0  0  0  0  0  0  0
    6.5751    8.1190    0.0000 H   0  0  0  0  0  0  0  0  0  0  0  0
    5.8774    6.6416    0.0000 H   0  0  0  0  0  0  0  0  0  0  0  0
   10.5589    6.0197    0.0000 H   0  0  0  0  0  0  0  0  0  0  0  0
   12.5231    8.2576    0.0000 H   0  0  0  0  0  0  0  0  0  0  0  0
   11.8420   10.8364    0.0000 H   0  0  0  0  0  0  0  0  0  0  0  0
    8.9933   11.7771    0.0000 H   0  0  0  0  0  0  0  0  0  0  0  0
    6.7542    9.7805    0.0000 H   0  0  0  0  0  0  0  0  0  0  0  0
   10.0333    8.2172    0.0000 H   0  0  0  0  0  0  0  0  0  0  0  0
   11.4887    8.2536    0.0000 H   0  0  0  0  0  0  0  0  0  0  0  0
   14.0541    8.6972    0.0000 H   0  0  0  0  0  0  0  0  0  0  0  0
   13.9771    7.0651    0.0000 H   0  0  0  0  0  0  0  0  0  0  0  0
   13.1969   10.5014    0.0000 H   0  0  0  0  0  0  0  0  0  0  0  0
   15.4977    6.7101    0.0000 H   0  0  0  0  0  0  0  0  0  0  0  0
   15.9550    5.8594    0.0000 H   0  0  0  0  0  0  0  0  0  0  0  0
   18.3036    3.6993    0.0000 H   0  0  0  0  0  0  0  0  0  0  0  0
   17.0559    2.9085    0.0000 H   0  0  0  0  0  0  0  0  0  0  0  0
   18.0460    7.1623    0.0000 H   0  0  0  0  0  0  0  0  0  0  0  0
   16.4336    6.3979    0.0000 H   0  0  0  0  0  0  0  0  0  0  0  0
   20.6552    5.1201    0.0000 H   0  0  0  0  0  0  0  0  0  0  0  0
   19.1480    4.1648    0.0000 H   0  0  0  0  0  0  0  0  0  0  0  0
   19.3074    8.2585    0.0000 H   0  0  0  0  0  0  0  0  0  0  0  0
   23.8065    8.1695    0.0000 H   0  0  0  0  0  0  0  0  0  0  0  0
   21.5826    9.5128    0.0000 H   0  0  0  0  0  0  0  0  0  0  0  0
   23.7552    5.5719    0.0000 H   0  0  0  0  0  0  0  0  0  0  0  0
   21.4799    4.3176    0.0000 H   0  0  0  0  0  0  0  0  0  0  0  0
   17.7264    1.4983    0.0000 H   0  0  0  0  0  0  0  0  0  0  0  0
   15.7480   -2.6343    0.0000 H   0  0  0  0  0  0  0  0  0  0  0  0
   16.6543   -1.6908    0.0000 H   0  0  0  0  0  0  0  0  0  0  0  0
   14.4238   -3.7569    0.0000 H   0  0  0  0  0  0  0  0  0  0  0  0
   15.3860   -3.1436    0.0000 H   0  0  0  0  0  0  0  0  0  0  0  0
   12.4654   -4.4270    0.0000 H   0  0  0  0  0  0  0  0  0  0  0  0
   13.8836   -4.0373    0.0000 H   0  0  0  0  0  0  0  0  0  0  0  0
   11.3974   -4.7390    0.0000 H   0  0  0  0  0  0  0  0  0  0  0  0
   18.6592   -0.3787    0.0000 H   0  0  0  0  0  0  0  0  0  0  0  0
   18.5454    1.4021    0.0000 H   0  0  0  0  0  0  0  0  0  0  0  0
   17.1604    1.9158    0.0000 H   0  0  0  0  0  0  0  0  0  0  0  0
   19.0776    0.4015    0.0000 H   0  0  0  0  0  0  0  0  0  0  0  0
   17.9181   -2.7855    0.0000 H   0  0  0  0  0  0  0  0  0  0  0  0
   20.4588   -4.8186    0.0000 H   0  0  0  0  0  0  0  0  0  0  0  0
   21.1579   -3.1768    0.0000 H   0  0  0  0  0  0  0  0  0  0  0  0
   20.3461   -6.7239    0.0000 H   0  0  0  0  0  0  0  0  0  0  0  0
   17.5041   -8.3278    0.0000 H   0  0  0  0  0  0  0  0  0  0  0  0
   15.1005   -6.1205    0.0000 H   0  0  0  0  0  0  0  0  0  0  0  0
   21.2463   -4.5361    0.0000 H   0  0  0  0  0  0  0  0  0  0  0  0
   22.6865   -1.4658    0.0000 H   0  0  0  0  0  0  0  0  0  0  0  0
   25.4818   -1.1009    0.0000 H   0  0  0  0  0  0  0  0  0  0  0  0
   23.5554   -1.0147    0.0000 H   0  0  0  0  0  0  0  0  0  0  0  0
   27.5048   -1.0129    0.0000 H   0  0  0  0  0  0  0  0  0  0  0  0
   29.5779   -3.5332    0.0000 H   0  0  0  0  0  0  0  0  0  0  0  0
   27.9876   -6.2064    0.0000 H   0  0  0  0  0  0  0  0  0  0  0  0
   26.4288   -2.6889    0.0000 H   0  0  0  0  0  0  0  0  0  0  0  0
   25.1159   -5.7759    0.0000 H   0  0  0  0  0  0  0  0  0  0  0  0
   27.6565   -7.8091    0.0000 H   0  0  0  0  0  0  0  0  0  0  0  0
   28.3872   -6.3477    0.0000 H   0  0  0  0  0  0  0  0  0  0  0  0
   26.3316   -9.0517    0.0000 H   0  0  0  0  0  0  0  0  0  0  0  0
   28.4440   -7.5266    0.0000 H   0  0  0  0  0  0  0  0  0  0  0  0
   29.8842   -4.4563    0.0000 H   0  0  0  0  0  0  0  0  0  0  0  0
   30.7531   -4.0051    0.0000 H   0  0  0  0  0  0  0  0  0  0  0  0
   34.1725   -4.2367    0.0000 H   0  0  0  0  0  0  0  0  0  0  0  0
   34.3348   -5.4797    0.0000 H   0  0  0  0  0  0  0  0  0  0  0  0
   33.8411   -7.1945    0.0000 H   0  0  0  0  0  0  0  0  0  0  0  0
   32.3781   -7.3985    0.0000 H   0  0  0  0  0  0  0  0  0  0  0  0
  1  2  1  0
  2  3  1  0
  3  4  2  0
  4  5  1  0
  5  6  2  0
  6  7  1  0
  7  8  2  0
  7  9  1  0
  9 10  1  0
 10 11  1  0
 11 12  2  0
  9 13  1  0
 13 14  1  0
 14 15  2  0
 15 16  1  0
 16 17  2  0
 17 18  1  0
 16 19  1  0
 14 20  1  0
 20 21  1  0
 21 22  2  0
 22 23  1  0
 23 24  2  0
 24 25  1  0
 25 26  2  0
 25 27  1  0
  1 28  2  0
  1 29  1  0
 29 30  1  0
 30 31  1  0
 31 32  1  0
 32 33  2  0
 32 34  1  0
 34 35  1  0
 35 36  1  0
 36 37  1  0
 37 38  1  0
 38 39  2  0
 38 40  1  0
 35 41  1  0
 41 42  2  0
 41 43  1  0
 43 44  1  0
 44 45  1  0
 45 46  1  0
 46 47  1  0
 47 48  1  0
 48 49  1  0
 49 50  2  3
 49 51  1  0
 44 52  1  0
 52 53  2  0
 52 54  1  0
 54 55  1  0
 55 56  1  0
 56 57  1  0
 57 58  1  0
 57 59  1  0
 55 60  1  0
 60 61  2  0
 60 62  1  0
 62 63  1  0
 63 64  1  0
 64 65  1  0
 65 66  1  0
 66 67  1  0
 67 68  1  0
 68 69  2  3
 68 70  1  0
 63 71  1  0
 71 72  2  0
 71 73  1  0
 73 74  1  0
 74 75  1  0
 75 76  1  0
 76 77  1  0
 77 78  1  0
 78 79  1  0
 79 80  2  3
 79 81  1  0
 74 82  1  0
 82 83  2  0
 82 84  1  0
 84 85  1  0
 85 86  1  0
 86 87  1  0
 87 88  1  0
 88 89  1  0
 89 90  1  0
 90 91  2  3
 90 92  1  0
 85 93  1  0
 93 94  2  0
 93 95  1  0
 95 96  1  0
 96 97  1  0
 97 98  1  0
 97 99  1  0
 99100  1  0
 96101  1  0
101102  2  0
101103  1  0
104103  1  6
104105  1  0
105106  1  0
106107  1  0
107108  1  0
104109  1  0
104110  1  0
110111  2  0
110112  1  0
112113  1  0
113114  1  0
114115  1  0
115116  2  0
116117  1  0
117118  2  0
118119  1  0
119120  2  0
113121  1  0
121122  2  0
121123  1  0
123124  1  0
124125  1  0
125126  1  0
124127  1  0
127128  2  0
127129  1  0
129130  1  0
130131  1  0
131132  1  0
132133  1  0
133134  1  0
134135  1  0
135136  2  3
135137  1  0
130138  1  0
138139  2  0
138140  1  0
140141  1  0
141142  1  0
142143  1  0
143144  1  0
144145  1  0
141146  1  0
141147  1  6
147148  2  0
147149  1  0
149150  1  0
150151  1  0
151152  1  0
152153  2  0
153154  1  0
154155  1  0
155156  2  0
150157  1  0
157158  2  0
157159  1  0
159160  1  0
160161  1  0
161162  1  0
162163  2  0
163164  1  0
164165  1  0
165166  2  0
160167  1  0
167168  2  0
167169  1  0
169170  1  0
170171  1  0
171172  1  0
170173  1  0
173174  2  0
173175  1  0
175176  1  0
176177  1  0
177178  1  0
177179  1  0
176180  1  0
180181  2  0
180182  1  0
  8  3  1  0
120115  1  0
156152  1  0
166162  1  0
 11  6  1  0
108145  2  0
 18 13  2  0
 22  9  1  0
 26 21  1  0
  2183  1  0
  4184  1  0
  5185  1  0
  8186  1  0
 15187  1  0
 17188  1  0
 18189  1  0
 19190  1  0
 23191  1  0
 24192  1  0
 26193  1  0
 27194  1  0
 29195  1  0
 30196  1  0
 30197  1  0
 31198  1  0
 31199  1  0
 34200  1  0
 35201  1  1
 36202  1  0
 36203  1  0
 37204  1  0
 37205  1  0
 43206  1  0
 44207  1  6
 45208  1  0
 45209  1  0
 46210  1  0
 46211  1  0
 47212  1  0
 47213  1  0
 48214  1  0
 50215  1  0
 50216  1  0
 51217  1  0
 51218  1  0
 54219  1  0
 55220  1  1
 56221  1  0
 56222  1  0
 57223  1  0
 58224  1  0
 58225  1  0
 58226  1  0
 59227  1  0
 59228  1  0
 59229  1  0
 62230  1  0
 63231  1  6
 64232  1  0
 64233  1  0
 65234  1  0
 65235  1  0
 66236  1  0
 66237  1  0
 67238  1  0
 69239  1  0
 69240  1  0
 70241  1  0
 70242  1  0
 73243  1  0
 74244  1  1
 75245  1  0
 75246  1  0
 76247  1  0
 76248  1  0
 77249  1  0
 77250  1  0
 78251  1  0
 80252  1  0
 80253  1  0
 81254  1  0
 81255  1  0
 84256  1  0
 85257  1  6
 86258  1  0
 86259  1  0
 87260  1  0
 87261  1  0
 88262  1  0
 88263  1  0
 89264  1  0
 91265  1  0
 91266  1  0
 92267  1  0
 92268  1  0
 95269  1  0
 96270  1  1
 97271  1  1
 98272  1  0
 98273  1  0
 98274  1  0
 99275  1  0
 99276  1  0
100277  1  0
100278  1  0
100279  1  0
103280  1  0
105281  1  0
105282  1  0
106283  1  0
106284  1  0
107285  1  0
107286  1  0
108287  1  0
109288  1  0
109289  1  0
109290  1  0
112291  1  0
113292  1  1
114293  1  0
114294  1  0
116295  1  0
117296  1  0
118297  1  0
119298  1  0
120299  1  0
123300  1  0
124301  1  1
125302  1  0
125303  1  0
126304  1  0
129305  1  0
130306  1  1
131307  1  0
131308  1  0
132309  1  0
132310  1  0
133311  1  0
133312  1  0
134313  1  0
136314  1  0
136315  1  0
137316  1  0
137317  1  0
140318  1  0
142319  1  0
142320  1  0
143321  1  0
143322  1  0
144323  1  0
144324  1  0
145325  1  0
146326  1  0
146327  1  0
146328  1  0
149329  1  0
150330  1  6
151331  1  0
151332  1  0
153333  1  0
154334  1  0
155335  1  0
159336  1  0
160337  1  1
161338  1  0
161339  1  0
163340  1  0
164341  1  0
165342  1  0
169343  1  0
170344  1  6
171345  1  0
171346  1  0
172347  1  0
175348  1  0
176349  1  1
177350  1  1
178351  1  0
179352  1  0
179353  1  0
179354  1  0
M  CHG  7  40  -1  50   1  69   1  80   1  91   1 136   1 182  -1
M  END
