
     RDKit          2D

337344  0  0  0  0  0  0  0  0999 V2000
   -6.2351  -11.8697    0.0000 C   0  0  0  0  0  0  0  0  0  0  0  0
   -4.7358  -11.9149    0.0000 N   0  0  0  0  0  0  0  0  0  0  0  0
   -4.0252  -13.2359    0.0000 C   0  0  0  0  0  0  0  0  0  0  0  0
   -4.8139  -14.5118    0.0000 C   0  0  0  0  0  0  0  0  0  0  0  0
   -4.1034  -15.8328    0.0000 C   0  0  0  0  0  0  0  0  0  0  0  0
   -2.6040  -15.8779    0.0000 C   0  0  0  0  0  0  0  0  0  0  0  0
   -1.8153  -14.6020    0.0000 C   0  0  0  0  0  0  0  0  0  0  0  0
   -2.5259  -13.2810    0.0000 C   0  0  0  0  0  0  0  0  0  0  0  0
   -0.3581  -14.9579    0.0000 C   0  0  0  0  0  0  0  0  0  0  0  0
   -0.2463  -16.4537    0.0000 O   0  0  0  0  0  0  0  0  0  0  0  0
   -1.6343  -17.0223    0.0000 C   0  0  0  0  0  0  0  0  0  0  0  0
   -1.9902  -18.4795    0.0000 O   0  0  0  0  0  0  0  0  0  0  0  0
    1.0539  -15.4641    0.0000 C   0  0  0  0  0  0  0  0  0  0  0  0
    2.1983  -14.4944    0.0000 C   0  0  0  0  0  0  0  0  0  0  0  0
    3.6103  -15.0007    0.0000 C   0  0  0  0  0  0  0  0  0  0  0  0
    3.8779  -16.4766    0.0000 C   0  0  0  0  0  0  0  0  0  0  0  0
    2.7334  -17.4463    0.0000 C   0  0  0  0  0  0  0  0  0  0  0  0
    1.3215  -16.9401    0.0000 C   0  0  0  0  0  0  0  0  0  0  0  0
    5.2899  -16.9829    0.0000 O   0  0  0  0  0  0  0  0  0  0  0  0
    1.9307  -13.0185    0.0000 O   0  0  0  0  0  0  0  0  0  0  0  0
    0.5187  -12.5123    0.0000 C   0  0  0  0  0  0  0  0  0  0  0  0
   -0.6257  -13.4820    0.0000 C   0  0  0  0  0  0  0  0  0  0  0  0
   -1.5036  -12.5232    0.0000 C   0  0  0  0  0  0  0  0  0  0  0  0
   -1.6463  -11.7360    0.0000 C   0  0  0  0  0  0  0  0  0  0  0  0
   -1.0360  -11.2188    0.0000 C   0  0  0  0  0  0  0  0  0  0  0  0
   -0.2829  -11.4888    0.0000 C   0  0  0  0  0  0  0  0  0  0  0  0
   -1.4284   -9.0541    0.0000 O   0  0  0  0  0  0  0  0  0  0  0  0
   -7.0238  -13.1456    0.0000 S   0  0  0  0  0  0  0  0  0  0  0  0
   -6.9457  -10.5487    0.0000 N   0  0  0  0  0  0  0  0  0  0  0  0
   -8.4450  -10.5036    0.0000 C   0  0  0  0  0  0  0  0  0  0  0  0
   -9.1556   -9.1826    0.0000 C   0  0  0  0  0  0  0  0  0  0  0  0
  -10.6549   -9.1374    0.0000 O   0  0  0  0  0  0  0  0  0  0  0  0
  -11.3655   -7.8164    0.0000 C   0  0  0  0  0  0  0  0  0  0  0  0
  -12.8648   -7.7713    0.0000 C   0  0  0  0  0  0  0  0  0  0  0  0
  -13.5753   -6.4503    0.0000 O   0  0  0  0  0  0  0  0  0  0  0  0
  -15.0747   -6.4051    0.0000 C   0  0  0  0  0  0  0  0  0  0  0  0
  -15.7852   -5.0841    0.0000 C   0  0  0  0  0  0  0  0  0  0  0  0
  -14.9965   -3.8082    0.0000 O   0  0  0  0  0  0  0  0  0  0  0  0
  -17.2846   -5.0390    0.0000 N   0  0  0  0  0  0  0  0  0  0  0  0
  -17.9951   -3.7180    0.0000 C   0  0  0  0  0  0  0  0  0  0  0  0
  -18.2110   -2.2336    0.0000 C   0  0  0  0  0  0  0  0  0  0  0  0
  -17.0335   -1.3044    0.0000 C   0  0  0  0  0  0  0  0  0  0  0  0
  -17.2494    0.1800    0.0000 C   0  0  0  0  0  0  0  0  0  0  0  0
  -16.0718    1.1091    0.0000 N   0  0  0  0  0  0  0  0  0  0  0  0
  -16.2878    2.5935    0.0000 C   0  0  0  0  0  0  0  0  0  0  0  0
  -15.2322    3.6593    0.0000 N   0  0  0  0  0  0  0  0  0  0  0  0
  -17.7385    2.9747    0.0000 N   0  0  0  0  0  0  0  0  0  0  0  0
  -19.4945   -3.6728    0.0000 C   0  0  0  0  0  0  0  0  0  0  0  0
  -20.2832   -4.9487    0.0000 O   0  0  0  0  0  0  0  0  0  0  0  0
  -20.2050   -2.3518    0.0000 N   0  0  0  0  0  0  0  0  0  0  0  0
  -21.6914   -2.1502    0.0000 C   0  0  0  0  0  0  0  0  0  0  0  0
  -21.9590   -0.6743    0.0000 C   0  0  0  0  0  0  0  0  0  0  0  0
  -20.6380    0.0363    0.0000 C   0  0  0  0  0  0  0  0  0  0  0  0
  -19.5540   -1.0005    0.0000 C   0  0  0  0  0  0  0  0  0  0  0  0
  -18.6362    0.1860    0.0000 C   0  0  0  0  0  0  0  0  0  0  0  0
  -19.2048    1.5740    0.0000 O   0  0  0  0  0  0  0  0  0  0  0  0
  -17.1498   -0.0156    0.0000 N   0  0  0  0  0  0  0  0  0  0  0  0
  -16.2320    1.1708    0.0000 C   0  0  0  0  0  0  0  0  0  0  0  0
  -15.7754    2.5996    0.0000 C   0  0  0  0  0  0  0  0  0  0  0  0
  -14.3097    2.9185    0.0000 C   0  0  0  0  0  0  0  0  0  0  0  0
  -13.8530    4.3473    0.0000 C   0  0  0  0  0  0  0  0  0  0  0  0
  -12.5080    5.0114    0.0000 O   0  0  0  0  0  0  0  0  0  0  0  0
  -14.8621    5.4572    0.0000 O   0  0  0  0  0  0  0  0  0  0  0  0
  -14.7456    0.9692    0.0000 C   0  0  0  0  0  0  0  0  0  0  0  0
  -14.3505   -0.4778    0.0000 O   0  0  0  0  0  0  0  0  0  0  0  0
  -13.8278    2.1556    0.0000 N   0  0  0  0  0  0  0  0  0  0  0  0
  -12.3414    1.9540    0.0000 C   0  0  0  0  0  0  0  0  0  0  0  0
  -11.5091    0.7062    0.0000 C   0  0  0  0  0  0  0  0  0  0  0  0
  -10.3459   -0.2409    0.0000 C   0  0  0  0  0  0  0  0  0  0  0  0
   -8.9552   -0.8031    0.0000 C   0  0  0  0  0  0  0  0  0  0  0  0
   -7.4606   -0.9303    0.0000 C   0  0  0  0  0  0  0  0  0  0  0  0
  -13.2856    0.7885    0.0000 C   0  0  0  0  0  0  0  0  0  0  0  0
  -12.7690    3.3918    0.0000 C   0  0  0  0  0  0  0  0  0  0  0  0
  -14.1784    3.9052    0.0000 O   0  0  0  0  0  0  0  0  0  0  0  0
  -12.7538    4.8917    0.0000 N   0  0  0  0  0  0  0  0  0  0  0  0
  -12.2971    6.3205    0.0000 C   0  0  0  0  0  0  0  0  0  0  0  0
  -13.0663    7.6083    0.0000 C   0  0  0  0  0  0  0  0  0  0  0  0
  -12.3356    8.9183    0.0000 C   0  0  0  0  0  0  0  0  0  0  0  0
  -14.2295    8.5554    0.0000 C   0  0  0  0  0  0  0  0  0  0  0  0
  -13.9909   10.0363    0.0000 C   0  0  0  0  0  0  0  0  0  0  0  0
  -11.4396    7.5513    0.0000 C   0  0  0  0  0  0  0  0  0  0  0  0
  -12.3950    8.7077    0.0000 O   0  0  0  0  0  0  0  0  0  0  0  0
  -10.2574    8.4745    0.0000 N   0  0  0  0  0  0  0  0  0  0  0  0
   -8.8556    9.0084    0.0000 C   0  0  0  0  0  0  0  0  0  0  0  0
   -8.3283   10.4126    0.0000 C   0  0  0  0  0  0  0  0  0  0  0  0
   -9.2808   11.5714    0.0000 C   0  0  0  0  0  0  0  0  0  0  0  0
   -8.7535   12.9757    0.0000 C   0  0  0  0  0  0  0  0  0  0  0  0
  -10.5722   12.3345    0.0000 C   0  0  0  0  0  0  0  0  0  0  0  0
   -7.3588    9.1053    0.0000 C   0  0  0  0  0  0  0  0  0  0  0  0
   -7.2315   10.5999    0.0000 O   0  0  0  0  0  0  0  0  0  0  0  0
   -5.8999    8.7567    0.0000 N   0  0  0  0  0  0  0  0  0  0  0  0
   -4.6085    7.9935    0.0000 C   0  0  0  0  0  0  0  0  0  0  0  0
   -3.1818    8.4568    0.0000 C   0  0  0  0  0  0  0  0  0  0  0  0
   -2.8697    9.9240    0.0000 C   0  0  0  0  0  0  0  0  0  0  0  0
   -1.4430   10.3873    0.0000 O   0  0  0  0  0  0  0  0  0  0  0  0
   -3.9843   10.9279    0.0000 O   0  0  0  0  0  0  0  0  0  0  0  0
   -3.5994    6.8837    0.0000 C   0  0  0  0  0  0  0  0  0  0  0  0
   -2.3516    7.7160    0.0000 O   0  0  0  0  0  0  0  0  0  0  0  0
   -2.9624    5.5257    0.0000 N   0  0  0  0  0  0  0  0  0  0  0  0
   -2.7539    4.0402    0.0000 C   0  0  0  0  0  0  0  0  0  0  0  0
   -2.9925    2.5593    0.0000 C   0  0  0  0  0  0  0  0  0  0  0  0
   -3.6570    1.2145    0.0000 C   0  0  0  0  0  0  0  0  0  0  0  0
   -4.6883    0.1254    0.0000 C   0  0  0  0  0  0  0  0  0  0  0  0
   -5.9949   -0.6114    0.0000 C   0  0  0  0  0  0  0  0  0  0  0  0
   -1.4856    4.8412    0.0000 C   0  0  0  0  0  0  0  0  0  0  0  0
   -1.5021    3.2137    0.0000 C   0  0  0  0  0  0  0  0  0  0  0  0
   -1.2271    1.7391    0.0000 O   0  0  0  0  0  0  0  0  0  0  0  0
   -0.1605    3.8844    0.0000 N   0  0  0  0  0  0  0  0  0  0  0  0
    1.0913    3.0578    0.0000 C   0  0  0  0  0  0  0  0  0  0  0  0
    1.9848    1.8530    0.0000 C   0  0  0  0  0  0  0  0  0  0  0  0
    1.3881    0.4768    0.0000 C   0  0  0  0  0  0  0  0  0  0  0  0
    2.1508   -0.8148    0.0000 C   0  0  0  0  0  0  0  0  0  0  0  0
    1.1581   -1.9393    0.0000 N   0  0  0  0  0  0  0  0  0  0  0  0
   -0.2181   -1.3427    0.0000 C   0  0  0  0  0  0  0  0  0  0  0  0
   -0.0759    0.1506    0.0000 N   0  0  0  0  0  0  0  0  0  0  0  0
    2.4329    3.7286    0.0000 C   0  0  0  0  0  0  0  0  0  0  0  0
    2.5229    5.2259    0.0000 O   0  0  0  0  0  0  0  0  0  0  0  0
    3.6847    2.9020    0.0000 N   0  0  0  0  0  0  0  0  0  0  0  0
    5.0263    3.5728    0.0000 C   0  0  0  0  0  0  0  0  0  0  0  0
    6.0577    4.6619    0.0000 C   0  0  0  0  0  0  0  0  0  0  0  0
    7.5482    4.4938    0.0000 C   0  0  0  0  0  0  0  0  0  0  0  0
    6.2781    2.7462    0.0000 C   0  0  0  0  0  0  0  0  0  0  0  0
    6.1881    1.2489    0.0000 O   0  0  0  0  0  0  0  0  0  0  0  0
    7.6197    3.4169    0.0000 N   0  0  0  0  0  0  0  0  0  0  0  0
    8.8715    2.5904    0.0000 C   0  0  0  0  0  0  0  0  0  0  0  0
    9.7650    1.3856    0.0000 C   0  0  0  0  0  0  0  0  0  0  0  0
    9.1683    0.0093    0.0000 C   0  0  0  0  0  0  0  0  0  0  0  0
   10.0619   -1.1955    0.0000 C   0  0  0  0  0  0  0  0  0  0  0  0
    9.4652   -2.5717    0.0000 N   0  0  0  0  0  0  0  0  0  0  0  0
   10.3588   -3.7766    0.0000 C   0  0  0  0  0  0  0  0  0  0  0  0
    9.7621   -5.1528    0.0000 N   0  0  0  0  0  0  0  0  0  0  0  0
   11.8489   -3.6052    0.0000 N   0  0  0  0  0  0  0  0  0  0  0  0
   10.2131    3.2611    0.0000 C   0  0  0  0  0  0  0  0  0  0  0  0
   10.3031    4.7584    0.0000 O   0  0  0  0  0  0  0  0  0  0  0  0
   11.4649    2.4346    0.0000 N   0  0  0  0  0  0  0  0  0  0  0  0
   12.8065    3.1053    0.0000 C   0  0  0  0  0  0  0  0  0  0  0  0
   13.8379    4.1945    0.0000 C   0  0  0  0  0  0  0  0  0  0  0  0
   15.2968    3.8459    0.0000 C   0  0  0  0  0  0  0  0  0  0  0  0
   16.3282    4.9350    0.0000 C   0  0  0  0  0  0  0  0  0  0  0  0
   17.7871    4.5864    0.0000 N   0  0  0  0  0  0  0  0  0  0  0  0
   18.8185    5.6756    0.0000 C   0  0  0  0  0  0  0  0  0  0  0  0
   20.2240    5.1518    0.0000 N   0  0  0  0  0  0  0  0  0  0  0  0
   18.3909    7.1134    0.0000 N   0  0  0  0  0  0  0  0  0  0  0  0
   14.0583    2.2787    0.0000 C   0  0  0  0  0  0  0  0  0  0  0  0
   13.9683    0.7814    0.0000 O   0  0  0  0  0  0  0  0  0  0  0  0
   15.3999    2.9495    0.0000 N   0  0  0  0  0  0  0  0  0  0  0  0
   16.6517    2.1229    0.0000 C   0  0  0  0  0  0  0  0  0  0  0  0
   17.5452    0.9181    0.0000 C   0  0  0  0  0  0  0  0  0  0  0  0
   16.9485   -0.4581    0.0000 C   0  0  0  0  0  0  0  0  0  0  0  0
   17.9933    2.7937    0.0000 C   0  0  0  0  0  0  0  0  0  0  0  0
   18.4429    4.2247    0.0000 O   0  0  0  0  0  0  0  0  0  0  0  0
   19.2451    1.9671    0.0000 N   0  0  0  0  0  0  0  0  0  0  0  0
   20.5867    2.6378    0.0000 C   0  0  0  0  0  0  0  0  0  0  0  0
   21.6181    3.7270    0.0000 C   0  0  0  0  0  0  0  0  0  0  0  0
   23.0770    3.3784    0.0000 C   0  0  0  0  0  0  0  0  0  0  0  0
   24.1084    4.4676    0.0000 S   0  0  0  0  0  0  0  0  0  0  0  0
   25.5989    4.2994    0.0000 C   0  0  0  0  0  0  0  0  0  0  0  0
   21.8385    1.8113    0.0000 C   0  0  0  0  0  0  0  0  0  0  0  0
   21.7485    0.3140    0.0000 O   0  0  0  0  0  0  0  0  0  0  0  0
   23.1801    2.4820    0.0000 N   0  0  0  0  0  0  0  0  0  0  0  0
   24.4319    1.6554    0.0000 C   0  0  0  0  0  0  0  0  0  0  0  0
   25.3254    0.4506    0.0000 C   0  0  0  0  0  0  0  0  0  0  0  0
   24.7287   -0.9256    0.0000 C   0  0  0  0  0  0  0  0  0  0  0  0
   25.6223   -2.1304    0.0000 C   0  0  0  0  0  0  0  0  0  0  0  0
   25.0256   -3.5067    0.0000 N   0  0  0  0  0  0  0  0  0  0  0  0
   25.9192   -4.7115    0.0000 C   0  0  0  0  0  0  0  0  0  0  0  0
   25.3225   -6.0877    0.0000 N   0  0  0  0  0  0  0  0  0  0  0  0
   27.4093   -4.5401    0.0000 N   0  0  0  0  0  0  0  0  0  0  0  0
   25.7735    2.3262    0.0000 C   0  0  0  0  0  0  0  0  0  0  0  0
   27.1167    1.6584    0.0000 O   0  0  0  0  0  0  0  0  0  0  0  0
   26.0453    3.8014    0.0000 O   0  0  0  0  0  0  0  0  0  0  0  0
   -4.1084  -10.5523    0.0000 H   0  0  0  0  0  0  0  0  0  0  0  0
   -6.3133  -14.4666    0.0000 H   0  0  0  0  0  0  0  0  0  0  0  0
   -4.8921  -17.1087    0.0000 H   0  0  0  0  0  0  0  0  0  0  0  0
   -2.0693  -11.8522    0.0000 H   0  0  0  0  0  0  0  0  0  0  0  0
    4.7547  -14.0310    0.0000 H   0  0  0  0  0  0  0  0  0  0  0  0
    3.0010  -18.9223    0.0000 H   0  0  0  0  0  0  0  0  0  0  0  0
    0.1770  -17.9098    0.0000 H   0  0  0  0  0  0  0  0  0  0  0  0
    5.5574  -18.4588    0.0000 H   0  0  0  0  0  0  0  0  0  0  0  0
   -3.1821  -13.9454    0.0000 H   0  0  0  0  0  0  0  0  0  0  0  0
   -3.6450  -10.8252    0.0000 H   0  0  0  0  0  0  0  0  0  0  0  0
    1.3955  -10.0666    0.0000 H   0  0  0  0  0  0  0  0  0  0  0  0
   -0.2840   -8.0844    0.0000 H   0  0  0  0  0  0  0  0  0  0  0  0
   -6.1569   -9.2728    0.0000 H   0  0  0  0  0  0  0  0  0  0  0  0
   -9.8693  -10.9740    0.0000 H   0  0  0  0  0  0  0  0  0  0  0  0
   -8.2291  -11.9880    0.0000 H   0  0  0  0  0  0  0  0  0  0  0  0
   -9.1889   -7.6829    0.0000 H   0  0  0  0  0  0  0  0  0  0  0  0
   -7.7312   -8.7122    0.0000 H   0  0  0  0  0  0  0  0  0  0  0  0
  -11.5814   -6.3320    0.0000 H   0  0  0  0  0  0  0  0  0  0  0  0
  -10.0091   -7.1759    0.0000 H   0  0  0  0  0  0  0  0  0  0  0  0
  -14.2211   -8.4118    0.0000 H   0  0  0  0  0  0  0  0  0  0  0  0
  -12.6489   -9.2557    0.0000 H   0  0  0  0  0  0  0  0  0  0  0  0
  -16.4990   -6.8755    0.0000 H   0  0  0  0  0  0  0  0  0  0  0  0
  -15.0413   -7.9048    0.0000 H   0  0  0  0  0  0  0  0  0  0  0  0
  -18.0733   -6.3149    0.0000 H   0  0  0  0  0  0  0  0  0  0  0  0
  -16.5241   -3.4247    0.0000 H   0  0  0  0  0  0  0  0  0  0  0  0
  -18.7553   -0.8358    0.0000 H   0  0  0  0  0  0  0  0  0  0  0  0
  -19.7069   -2.3454    0.0000 H   0  0  0  0  0  0  0  0  0  0  0  0
  -15.6092   -0.8340    0.0000 H   0  0  0  0  0  0  0  0  0  0  0  0
  -16.1672   -2.5290    0.0000 H   0  0  0  0  0  0  0  0  0  0  0  0
  -18.1157    1.4045    0.0000 H   0  0  0  0  0  0  0  0  0  0  0  0
  -18.7477    0.2514    0.0000 H   0  0  0  0  0  0  0  0  0  0  0  0
  -14.6211    0.7279    0.0000 H   0  0  0  0  0  0  0  0  0  0  0  0
  -15.5054    4.9697    0.0000 H   0  0  0  0  0  0  0  0  0  0  0  0
  -13.6875    4.0586    0.0000 H   0  0  0  0  0  0  0  0  0  0  0  0
  -17.8971    4.6331    0.0000 H   0  0  0  0  0  0  0  0  0  0  0  0
  -18.9633    2.3700    0.0000 H   0  0  0  0  0  0  0  0  0  0  0  0
  -21.7366   -3.6495    0.0000 H   0  0  0  0  0  0  0  0  0  0  0  0
  -23.1873   -2.2621    0.0000 H   0  0  0  0  0  0  0  0  0  0  0  0
  -23.3989   -1.0947    0.0000 H   0  0  0  0  0  0  0  0  0  0  0  0
  -22.5276    0.7138    0.0000 H   0  0  0  0  0  0  0  0  0  0  0  0
  -21.4828    1.2758    0.0000 H   0  0  0  0  0  0  0  0  0  0  0  0
  -19.6203    1.1383    0.0000 H   0  0  0  0  0  0  0  0  0  0  0  0
  -18.1252   -1.4571    0.0000 H   0  0  0  0  0  0  0  0  0  0  0  0
  -16.2622   -1.2249    0.0000 H   0  0  0  0  0  0  0  0  0  0  0  0
  -17.4648    2.0253    0.0000 H   0  0  0  0  0  0  0  0  0  0  0  0
  -15.8349    4.0984    0.0000 H   0  0  0  0  0  0  0  0  0  0  0  0
  -17.2261    2.9809    0.0000 H   0  0  0  0  0  0  0  0  0  0  0  0
  -12.8186    3.0826    0.0000 H   0  0  0  0  0  0  0  0  0  0  0  0
  -13.7168    1.5407    0.0000 H   0  0  0  0  0  0  0  0  0  0  0  0
  -13.8611    3.6553    0.0000 H   0  0  0  0  0  0  0  0  0  0  0  0
  -12.9479    0.2821    0.0000 H   0  0  0  0  0  0  0  0  0  0  0  0
  -11.8939   -0.7436    0.0000 H   0  0  0  0  0  0  0  0  0  0  0  0
  -11.4854   -1.2164    0.0000 H   0  0  0  0  0  0  0  0  0  0  0  0
  -10.4695   -1.7358    0.0000 H   0  0  0  0  0  0  0  0  0  0  0  0
   -9.9051   -1.9639    0.0000 H   0  0  0  0  0  0  0  0  0  0  0  0
   -8.4565   -2.2177    0.0000 H   0  0  0  0  0  0  0  0  0  0  0  0
   -7.3637   -2.4272    0.0000 H   0  0  0  0  0  0  0  0  0  0  0  0
  -12.8042   -0.8063    0.0000 H   0  0  0  0  0  0  0  0  0  0  0  0
  -14.0389   -0.4606    0.0000 H   0  0  0  0  0  0  0  0  0  0  0  0
  -14.5086    1.2803    0.0000 H   0  0  0  0  0  0  0  0  0  0  0  0
  -14.1946    5.3091    0.0000 H   0  0  0  0  0  0  0  0  0  0  0  0
  -13.7553    5.9688    0.0000 H   0  0  0  0  0  0  0  0  0  0  0  0
  -14.3121    6.7729    0.0000 H   0  0  0  0  0  0  0  0  0  0  0  0
  -12.9420   10.2903    0.0000 H   0  0  0  0  0  0  0  0  0  0  0  0
  -11.3289   10.0304    0.0000 H   0  0  0  0  0  0  0  0  0  0  0  0
  -10.9635    8.3232    0.0000 H   0  0  0  0  0  0  0  0  0  0  0  0
  -15.6464    9.0476    0.0000 H   0  0  0  0  0  0  0  0  0  0  0  0
  -14.9602    7.2454    0.0000 H   0  0  0  0  0  0  0  0  0  0  0  0
  -15.1541   10.9834    0.0000 H   0  0  0  0  0  0  0  0  0  0  0  0
  -13.2602   11.3463    0.0000 H   0  0  0  0  0  0  0  0  0  0  0  0
  -12.4969    9.9017    0.0000 H   0  0  0  0  0  0  0  0  0  0  0  0
  -10.8295    9.8612    0.0000 H   0  0  0  0  0  0  0  0  0  0  0  0
  -10.0398    9.9291    0.0000 H   0  0  0  0  0  0  0  0  0  0  0  0
   -7.2210   11.4244    0.0000 H   0  0  0  0  0  0  0  0  0  0  0  0
   -6.8907    9.9846    0.0000 H   0  0  0  0  0  0  0  0  0  0  0  0
  -10.3882   10.5596    0.0000 H   0  0  0  0  0  0  0  0  0  0  0  0
   -9.5576   14.2419    0.0000 H   0  0  0  0  0  0  0  0  0  0  0  0
   -7.7777   14.1149    0.0000 H   0  0  0  0  0  0  0  0  0  0  0  0
   -7.3788   12.3756    0.0000 H   0  0  0  0  0  0  0  0  0  0  0  0
  -10.7399   13.8251    0.0000 H   0  0  0  0  0  0  0  0  0  0  0  0
  -12.0467   12.6100    0.0000 H   0  0  0  0  0  0  0  0  0  0  0  0
  -11.0995   10.9303    0.0000 H   0  0  0  0  0  0  0  0  0  0  0  0
   -5.3377   10.1473    0.0000 H   0  0  0  0  0  0  0  0  0  0  0  0
   -4.4440    9.4845    0.0000 H   0  0  0  0  0  0  0  0  0  0  0  0
   -1.6827    8.4042    0.0000 H   0  0  0  0  0  0  0  0  0  0  0  0
   -2.6201    7.0660    0.0000 H   0  0  0  0  0  0  0  0  0  0  0  0
   -1.5246    5.9532    0.0000 H   0  0  0  0  0  0  0  0  0  0  0  0
   -2.0400    1.4005    0.0000 H   0  0  0  0  0  0  0  0  0  0  0  0
   -1.4927    2.5889    0.0000 H   0  0  0  0  0  0  0  0  0  0  0  0
   -2.9234   -0.0938    0.0000 H   0  0  0  0  0  0  0  0  0  0  0  0
   -2.2152    0.8008    0.0000 H   0  0  0  0  0  0  0  0  0  0  0  0
   -4.5541   -1.3686    0.0000 H   0  0  0  0  0  0  0  0  0  0  0  0
   -3.3419   -0.5358    0.0000 H   0  0  0  0  0  0  0  0  0  0  0  0
   -5.4611   -2.0132    0.0000 H   0  0  0  0  0  0  0  0  0  0  0  0
   -0.0284    4.4854    0.0000 H   0  0  0  0  0  0  0  0  0  0  0  0
   -0.7193    6.1307    0.0000 H   0  0  0  0  0  0  0  0  0  0  0  0
   -2.1961    6.1623    0.0000 H   0  0  0  0  0  0  0  0  0  0  0  0
    0.1114    5.3596    0.0000 H   0  0  0  0  0  0  0  0  0  0  0  0
    0.0599    1.9687    0.0000 H   0  0  0  0  0  0  0  0  0  0  0  0
    3.1264    0.8800    0.0000 H   0  0  0  0  0  0  0  0  0  0  0  0
    3.2491    2.6603    0.0000 H   0  0  0  0  0  0  0  0  0  0  0  0
    3.6441   -0.9570    0.0000 H   0  0  0  0  0  0  0  0  0  0  0  0
    1.4844   -3.4034    0.0000 H   0  0  0  0  0  0  0  0  0  0  0  0
   -1.5097   -2.1054    0.0000 H   0  0  0  0  0  0  0  0  0  0  0  0
    3.7779    1.4049    0.0000 H   0  0  0  0  0  0  0  0  0  0  0  0
    4.1328    4.7776    0.0000 H   0  0  0  0  0  0  0  0  0  0  0  0
    6.6543    6.0382    0.0000 H   0  0  0  0  0  0  0  0  0  0  0  0
    4.8060    5.4885    0.0000 H   0  0  0  0  0  0  0  0  0  0  0  0
    8.5480    5.4025    0.0000 H   0  0  0  0  0  0  0  0  0  0  0  0
    8.7684    3.4868    0.0000 H   0  0  0  0  0  0  0  0  0  0  0  0
    7.6361    2.8181    0.0000 H   0  0  0  0  0  0  0  0  0  0  0  0
    7.8915    4.8921    0.0000 H   0  0  0  0  0  0  0  0  0  0  0  0
    7.7150    1.6351    0.0000 H   0  0  0  0  0  0  0  0  0  0  0  0
   11.0167    0.5590    0.0000 H   0  0  0  0  0  0  0  0  0  0  0  0
   11.0293    2.1928    0.0000 H   0  0  0  0  0  0  0  0  0  0  0  0
    8.1370   -1.0798    0.0000 H   0  0  0  0  0  0  0  0  0  0  0  0
    7.8252    0.6771    0.0000 H   0  0  0  0  0  0  0  0  0  0  0  0
   11.3136   -2.0221    0.0000 H   0  0  0  0  0  0  0  0  0  0  0  0
   11.2183   -0.2402    0.0000 H   0  0  0  0  0  0  0  0  0  0  0  0
    7.9751   -2.7431    0.0000 H   0  0  0  0  0  0  0  0  0  0  0  0
   10.6556   -6.3576    0.0000 H   0  0  0  0  0  0  0  0  0  0  0  0
    8.2719   -5.3242    0.0000 H   0  0  0  0  0  0  0  0  0  0  0  0
   12.7425   -4.8100    0.0000 H   0  0  0  0  0  0  0  0  0  0  0  0
   12.4456   -2.2289    0.0000 H   0  0  0  0  0  0  0  0  0  0  0  0
   11.5581    0.9375    0.0000 H   0  0  0  0  0  0  0  0  0  0  0  0
   11.9130    4.3101    0.0000 H   0  0  0  0  0  0  0  0  0  0  0  0
   14.2623    5.6332    0.0000 H   0  0  0  0  0  0  0  0  0  0  0  0
   12.5862    5.0210    0.0000 H   0  0  0  0  0  0  0  0  0  0  0  0
   16.5485    3.0193    0.0000 H   0  0  0  0  0  0  0  0  0  0  0  0
   15.4163    2.3506    0.0000 H   0  0  0  0  0  0  0  0  0  0  0  0
   16.9248    6.3113    0.0000 H   0  0  0  0  0  0  0  0  0  0  0  0
   15.1866    5.9080    0.0000 H   0  0  0  0  0  0  0  0  0  0  0  0
   18.5499    3.2949    0.0000 H   0  0  0  0  0  0  0  0  0  0  0  0
   21.3088    6.4162    0.0000 H   0  0  0  0  0  0  0  0  0  0  0  0
   20.5475    3.8400    0.0000 H   0  0  0  0  0  0  0  0  0  0  0  0
   19.4223    8.2025    0.0000 H   0  0  0  0  0  0  0  0  0  0  0  0
   16.9320    7.4620    0.0000 H   0  0  0  0  0  0  0  0  0  0  0  0
   15.8495    4.3805    0.0000 H   0  0  0  0  0  0  0  0  0  0  0  0
   15.4952    1.1676    0.0000 H   0  0  0  0  0  0  0  0  0  0  0  0
   18.6868   -0.0549    0.0000 H   0  0  0  0  0  0  0  0  0  0  0  0
   18.8094    1.7253    0.0000 H   0  0  0  0  0  0  0  0  0  0  0  0
   17.8421   -1.6630    0.0000 H   0  0  0  0  0  0  0  0  0  0  0  0
   15.9172   -1.5473    0.0000 H   0  0  0  0  0  0  0  0  0  0  0  0
   15.6054    0.2097    0.0000 H   0  0  0  0  0  0  0  0  0  0  0  0
   19.3383    0.4700    0.0000 H   0  0  0  0  0  0  0  0  0  0  0  0
   19.6932    3.8427    0.0000 H   0  0  0  0  0  0  0  0  0  0  0  0
   22.2147    5.1032    0.0000 H   0  0  0  0  0  0  0  0  0  0  0  0
   20.2036    4.2261    0.0000 H   0  0  0  0  0  0  0  0  0  0  0  0
   24.2187    2.4054    0.0000 H   0  0  0  0  0  0  0  0  0  0  0  0
   23.1965    1.8832    0.0000 H   0  0  0  0  0  0  0  0  0  0  0  0
   26.5987    5.2081    0.0000 H   0  0  0  0  0  0  0  0  0  0  0  0
   26.8190    3.2924    0.0000 H   0  0  0  0  0  0  0  0  0  0  0  0
   25.1651    2.6778    0.0000 H   0  0  0  0  0  0  0  0  0  0  0  0
   23.6297    3.9130    0.0000 H   0  0  0  0  0  0  0  0  0  0  0  0
   23.2754    0.7001    0.0000 H   0  0  0  0  0  0  0  0  0  0  0  0
   26.6685   -0.2172    0.0000 H   0  0  0  0  0  0  0  0  0  0  0  0
   26.4818    1.4059    0.0000 H   0  0  0  0  0  0  0  0  0  0  0  0
   23.6974   -2.0148    0.0000 H   0  0  0  0  0  0  0  0  0  0  0  0
   23.3856   -0.2578    0.0000 H   0  0  0  0  0  0  0  0  0  0  0  0
   26.8740   -2.9570    0.0000 H   0  0  0  0  0  0  0  0  0  0  0  0
   26.7787   -1.1751    0.0000 H   0  0  0  0  0  0  0  0  0  0  0  0
   23.5354   -3.6781    0.0000 H   0  0  0  0  0  0  0  0  0  0  0  0
   26.2160   -7.2926    0.0000 H   0  0  0  0  0  0  0  0  0  0  0  0
   23.8323   -6.2591    0.0000 H   0  0  0  0  0  0  0  0  0  0  0  0
   28.3029   -5.7449    0.0000 H   0  0  0  0  0  0  0  0  0  0  0  0
   28.0060   -3.1639    0.0000 H   0  0  0  0  0  0  0  0  0  0  0  0
  1  2  1  0
  2  3  1  0
  3  4  2  0
  4  5  1  0
  5  6  2  0
  6  7  1  0
  7  8  2  0
  7  9  1  0
  9 10  1  0
 10 11  1  0
 11 12  2  0
  9 13  1  0
 13 14  1  0
 14 15  2  0
 15 16  1  0
 16 17  2  0
 17 18  1  0
 16 19  1  0
 14 20  1  0
 20 21  1  0
 21 22  2  0
 22 23  1  0
 23 24  2  0
 24 25  1  0
 25 26  2  0
 25 27  1  0
  1 28  2  0
  1 29  1  0
 29 30  1  0
 30 31  1  0
 31 32  1  0
 32 33  1  0
 33 34  1  0
 34 35  1  0
 35 36  1  0
 36 37  1  0
 37 38  2  0
 37 39  1  0
 39 40  1  0
 40 41  1  0
 41 42  1  0
 42 43  1  0
 43 44  1  0
 44 45  1  0
 45 46  2  3
 45 47  1  0
 40 48  1  0
 48 49  2  0
 48 50  1  0
 50 51  1  0
 51 52  1  0
 52 53  1  0
 53 54  1  0
 54 55  1  0
 55 56  2  0
 55 57  1  0
 57 58  1  0
 58 59  1  0
 59 60  1  0
 60 61  1  0
 61 62  2  0
 61 63  1  0
 58 64  1  0
 64 65  2  0
 64 66  1  0
 67 66  1  6
 67 68  1  0
 68 69  1  0
 69 70  1  0
 70 71  1  0
 67 72  1  0
 67 73  1  0
 73 74  2  0
 73 75  1  0
 75 76  1  0
 76 77  1  0
 77 78  1  0
 77 79  1  0
 79 80  1  0
 76 81  1  0
 81 82  2  0
 81 83  1  0
 83 84  1  0
 84 85  1  0
 85 86  1  0
 86 87  1  0
 86 88  1  0
 84 89  1  0
 89 90  2  0
 89 91  1  0
 91 92  1  0
 92 93  1  0
 93 94  1  0
 94 95  2  0
 94 96  1  0
 92 97  1  0
 97 98  2  0
 97 99  1  0
 99100  1  0
100101  1  0
101102  1  0
102103  1  0
103104  1  0
100105  1  0
100106  1  6
106107  2  0
106108  1  0
108109  1  0
109110  1  0
110111  1  0
111112  2  0
112113  1  0
113114  1  0
114115  2  0
109116  1  0
116117  2  0
116118  1  0
118119  1  0
119120  1  0
120121  1  0
119122  1  0
122123  2  0
122124  1  0
124125  1  0
125126  1  0
126127  1  0
127128  1  0
128129  1  0
129130  1  0
130131  2  3
130132  1  0
125133  1  0
133134  2  0
133135  1  0
135136  1  0
136137  1  0
137138  1  0
138139  1  0
139140  1  0
140141  1  0
141142  2  3
141143  1  0
136144  1  0
144145  2  0
144146  1  0
146147  1  0
147148  1  0
148149  1  0
147150  1  0
150151  2  0
150152  1  0
152153  1  0
153154  1  0
154155  1  0
155156  1  0
156157  1  0
153158  1  0
158159  2  0
158160  1  0
160161  1  0
161162  1  0
162163  1  0
163164  1  0
164165  1  0
165166  1  0
166167  2  3
166168  1  0
161169  1  0
169170  2  0
169171  1  0
  8  3  1  0
 54 50  1  0
115111  1  0
 11  6  1  0
 71104  2  0
 18 13  2  0
 22  9  1  0
 26 21  1  0
  2172  1  0
  4173  1  0
  5174  1  0
  8175  1  0
 15176  1  0
 17177  1  0
 18178  1  0
 19179  1  0
 23180  1  0
 24181  1  0
 26182  1  0
 27183  1  0
 29184  1  0
 30185  1  0
 30186  1  0
 31187  1  0
 31188  1  0
 33189  1  0
 33190  1  0
 34191  1  0
 34192  1  0
 36193  1  0
 36194  1  0
 39195  1  0
 40196  1  6
 41197  1  0
 41198  1  0
 42199  1  0
 42200  1  0
 43201  1  0
 43202  1  0
 44203  1  0
 46204  1  0
 46205  1  0
 47206  1  0
 47207  1  0
 51208  1  0
 51209  1  0
 52210  1  0
 52211  1  0
 53212  1  0
 53213  1  0
 54214  1  0
 57215  1  0
 58216  1  1
 59217  1  0
 59218  1  0
 60219  1  0
 60220  1  0
 66221  1  0
 68222  1  0
 68223  1  0
 69224  1  0
 69225  1  0
 70226  1  0
 70227  1  0
 71228  1  0
 72229  1  0
 72230  1  0
 72231  1  0
 75232  1  0
 76233  1  1
 77234  1  1
 78235  1  0
 78236  1  0
 78237  1  0
 79238  1  0
 79239  1  0
 80240  1  0
 80241  1  0
 80242  1  0
 83243  1  0
 84244  1  1
 85245  1  0
 85246  1  0
 86247  1  0
 87248  1  0
 87249  1  0
 87250  1  0
 88251  1  0
 88252  1  0
 88253  1  0
 91254  1  0
 92255  1  1
 93256  1  0
 93257  1  0
 99258  1  0
101259  1  0
101260  1  0
102261  1  0
102262  1  0
103263  1  0
103264  1  0
104265  1  0
105266  1  0
105267  1  0
105268  1  0
108269  1  0
109270  1  6
110271  1  0
110272  1  0
112273  1  0
113274  1  0
114275  1  0
118276  1  0
119277  1  1
120278  1  0
120279  1  0
121280  1  0
121281  1  0
121282  1  0
124283  1  0
125284  1  6
126285  1  0
126286  1  0
127287  1  0
127288  1  0
128289  1  0
128290  1  0
129291  1  0
131292  1  0
131293  1  0
132294  1  0
132295  1  0
135296  1  0
136297  1  1
137298  1  0
137299  1  0
138300  1  0
138301  1  0
139302  1  0
139303  1  0
140304  1  0
142305  1  0
142306  1  0
143307  1  0
143308  1  0
146309  1  0
147310  1  6
148311  1  0
148312  1  0
149313  1  0
149314  1  0
149315  1  0
152316  1  0
153317  1  1
154318  1  0
154319  1  0
155320  1  0
155321  1  0
157322  1  0
157323  1  0
157324  1  0
160325  1  0
161326  1  6
162327  1  0
162328  1  0
163329  1  0
163330  1  0
164331  1  0
164332  1  0
165333  1  0
167334  1  0
167335  1  0
168336  1  0
168337  1  0
M  CHG  7  46   1  63  -1  96  -1 131   1 142   1 167   1 171  -1
M  END
