
     RDKit          2D

417425  0  0  0  0  0  0  0  0999 V2000
   25.4488   -4.0249    0.0000 C   0  0  0  0  0  0  0  0  0  0  0  0
   26.8293   -3.4382    0.0000 N   0  0  0  0  0  0  0  0  0  0  0  0
   28.0276   -4.3404    0.0000 C   0  0  0  0  0  0  0  0  0  0  0  0
   27.8455   -5.8293    0.0000 C   0  0  0  0  0  0  0  0  0  0  0  0
   29.0438   -6.7315    0.0000 C   0  0  0  0  0  0  0  0  0  0  0  0
   30.4243   -6.1449    0.0000 C   0  0  0  0  0  0  0  0  0  0  0  0
   30.6065   -4.6560    0.0000 C   0  0  0  0  0  0  0  0  0  0  0  0
   29.4081   -3.7537    0.0000 C   0  0  0  0  0  0  0  0  0  0  0  0
   32.0788   -4.3691    0.0000 C   0  0  0  0  0  0  0  0  0  0  0  0
   32.8066   -5.6807    0.0000 O   0  0  0  0  0  0  0  0  0  0  0  0
   31.7840   -6.7782    0.0000 C   0  0  0  0  0  0  0  0  0  0  0  0
   32.0709   -8.2505    0.0000 O   0  0  0  0  0  0  0  0  0  0  0  0
   33.5730   -4.2378    0.0000 C   0  0  0  0  0  0  0  0  0  0  0  0
   34.2064   -2.8780    0.0000 C   0  0  0  0  0  0  0  0  0  0  0  0
   35.7006   -2.7467    0.0000 C   0  0  0  0  0  0  0  0  0  0  0  0
   36.5615   -3.9750    0.0000 C   0  0  0  0  0  0  0  0  0  0  0  0
   35.9282   -5.3348    0.0000 C   0  0  0  0  0  0  0  0  0  0  0  0
   34.4339   -5.4661    0.0000 C   0  0  0  0  0  0  0  0  0  0  0  0
   38.0557   -3.8437    0.0000 O   0  0  0  0  0  0  0  0  0  0  0  0
   33.3455   -1.6497    0.0000 O   0  0  0  0  0  0  0  0  0  0  0  0
   31.8513   -1.7810    0.0000 C   0  0  0  0  0  0  0  0  0  0  0  0
   31.2179   -3.1408    0.0000 C   0  0  0  0  0  0  0  0  0  0  0  0
   30.0192   -2.6376    0.0000 C   0  0  0  0  0  0  0  0  0  0  0  0
   29.5601   -1.9825    0.0000 C   0  0  0  0  0  0  0  0  0  0  0  0
   29.8979   -1.2573    0.0000 C   0  0  0  0  0  0  0  0  0  0  0  0
   30.6948   -1.1872    0.0000 C   0  0  0  0  0  0  0  0  0  0  0  0
   28.6353    0.5443    0.0000 O   0  0  0  0  0  0  0  0  0  0  0  0
   25.2666   -5.5138    0.0000 S   0  0  0  0  0  0  0  0  0  0  0  0
   24.2505   -3.1227    0.0000 N   0  0  0  0  0  0  0  0  0  0  0  0
   22.8699   -3.7093    0.0000 C   0  0  0  0  0  0  0  0  0  0  0  0
   21.6716   -2.8071    0.0000 C   0  0  0  0  0  0  0  0  0  0  0  0
   20.2911   -3.3938    0.0000 C   0  0  0  0  0  0  0  0  0  0  0  0
   20.2915   -4.1910    0.0000 O   0  0  0  0  0  0  0  0  0  0  0  0
   19.0928   -2.4916    0.0000 N   0  0  0  0  0  0  0  0  0  0  0  0
   17.7123   -3.0783    0.0000 C   0  0  0  0  0  0  0  0  0  0  0  0
   18.5298   -4.3359    0.0000 C   0  0  0  0  0  0  0  0  0  0  0  0
   18.8678   -5.7973    0.0000 O   0  0  0  0  0  0  0  0  0  0  0  0
   20.0261   -4.4400    0.0000 C   0  0  0  0  0  0  0  0  0  0  0  0
   16.2144   -3.1574    0.0000 C   0  0  0  0  0  0  0  0  0  0  0  0
   15.8776   -4.6191    0.0000 O   0  0  0  0  0  0  0  0  0  0  0  0
   15.3969   -1.8997    0.0000 N   0  0  0  0  0  0  0  0  0  0  0  0
   13.8990   -1.9789    0.0000 C   0  0  0  0  0  0  0  0  0  0  0  0
   14.2370   -3.4403    0.0000 C   0  0  0  0  0  0  0  0  0  0  0  0
   15.6716   -3.8782    0.0000 C   0  0  0  0  0  0  0  0  0  0  0  0
   16.0097   -5.3397    0.0000 C   0  0  0  0  0  0  0  0  0  0  0  0
   17.4443   -5.7776    0.0000 N   0  0  0  0  0  0  0  0  0  0  0  0
   17.7824   -7.2390    0.0000 C   0  0  0  0  0  0  0  0  0  0  0  0
   19.2170   -7.6770    0.0000 N   0  0  0  0  0  0  0  0  0  0  0  0
   16.6858   -8.2625    0.0000 N   0  0  0  0  0  0  0  0  0  0  0  0
   12.4643   -1.5409    0.0000 C   0  0  0  0  0  0  0  0  0  0  0  0
   11.6479   -2.7993    0.0000 O   0  0  0  0  0  0  0  0  0  0  0  0
   12.1263   -0.0795    0.0000 N   0  0  0  0  0  0  0  0  0  0  0  0
   10.6916    0.3584    0.0000 C   0  0  0  0  0  0  0  0  0  0  0  0
   10.5094   -1.1305    0.0000 C   0  0  0  0  0  0  0  0  0  0  0  0
   11.7078   -2.0327    0.0000 C   0  0  0  0  0  0  0  0  0  0  0  0
   11.5256   -3.5216    0.0000 C   0  0  0  0  0  0  0  0  0  0  0  0
   12.6050   -4.5631    0.0000 N   0  0  0  0  0  0  0  0  0  0  0  0
   10.1451   -4.1082    0.0000 O   0  0  0  0  0  0  0  0  0  0  0  0
    9.4933    1.2607    0.0000 C   0  0  0  0  0  0  0  0  0  0  0  0
    8.4148    0.2181    0.0000 O   0  0  0  0  0  0  0  0  0  0  0  0
    9.6755    2.7496    0.0000 N   0  0  0  0  0  0  0  0  0  0  0  0
    8.4771    3.6518    0.0000 C   0  0  0  0  0  0  0  0  0  0  0  0
    8.1476    2.1884    0.0000 C   0  0  0  0  0  0  0  0  0  0  0  0
    7.4014    0.8872    0.0000 C   0  0  0  0  0  0  0  0  0  0  0  0
    6.3048   -0.1363    0.0000 C   0  0  0  0  0  0  0  0  0  0  0  0
    4.9553   -0.7910    0.0000 C   0  0  0  0  0  0  0  0  0  0  0  0
    9.7924    4.3730    0.0000 C   0  0  0  0  0  0  0  0  0  0  0  0
    8.3607    5.1472    0.0000 C   0  0  0  0  0  0  0  0  0  0  0  0
    9.8221    5.4853    0.0000 O   0  0  0  0  0  0  0  0  0  0  0  0
    7.8086    6.5419    0.0000 N   0  0  0  0  0  0  0  0  0  0  0  0
    6.8699    7.7120    0.0000 C   0  0  0  0  0  0  0  0  0  0  0  0
    7.1261    9.1899    0.0000 C   0  0  0  0  0  0  0  0  0  0  0  0
    8.5341    9.7071    0.0000 C   0  0  0  0  0  0  0  0  0  0  0  0
    8.7903   11.1850    0.0000 C   0  0  0  0  0  0  0  0  0  0  0  0
   10.1984   11.7022    0.0000 N   0  0  0  0  0  0  0  0  0  0  0  0
   10.4545   13.1801    0.0000 C   0  0  0  0  0  0  0  0  0  0  0  0
   11.8626   13.6973    0.0000 N   0  0  0  0  0  0  0  0  0  0  0  0
    9.3026   14.1410    0.0000 N   0  0  0  0  0  0  0  0  0  0  0  0
    5.6281    8.5533    0.0000 C   0  0  0  0  0  0  0  0  0  0  0  0
    6.2750    9.9067    0.0000 O   0  0  0  0  0  0  0  0  0  0  0  0
    4.1935    8.9913    0.0000 N   0  0  0  0  0  0  0  0  0  0  0  0
    2.6935    8.9869    0.0000 C   0  0  0  0  0  0  0  0  0  0  0  0
    1.6977   10.1087    0.0000 C   0  0  0  0  0  0  0  0  0  0  0  0
    2.1713   11.5320    0.0000 C   0  0  0  0  0  0  0  0  0  0  0  0
    1.1755   12.6537    0.0000 C   0  0  0  0  0  0  0  0  0  0  0  0
    1.6491   14.0770    0.0000 N   0  0  0  0  0  0  0  0  0  0  0  0
    0.6533   15.1988    0.0000 C   0  0  0  0  0  0  0  0  0  0  0  0
    1.1268   16.6221    0.0000 N   0  0  0  0  0  0  0  0  0  0  0  0
   -0.8161   14.8973    0.0000 N   0  0  0  0  0  0  0  0  0  0  0  0
    1.2614    8.5406    0.0000 C   0  0  0  0  0  0  0  0  0  0  0  0
    0.6067    9.8901    0.0000 O   0  0  0  0  0  0  0  0  0  0  0  0
    0.0245    7.6920    0.0000 N   0  0  0  0  0  0  0  0  0  0  0  0
   -0.9073    6.5165    0.0000 C   0  0  0  0  0  0  0  0  0  0  0  0
   -2.4052    6.4374    0.0000 C   0  0  0  0  0  0  0  0  0  0  0  0
   -3.2227    7.6951    0.0000 C   0  0  0  0  0  0  0  0  0  0  0  0
   -4.7206    7.6159    0.0000 C   0  0  0  0  0  0  0  0  0  0  0  0
   -5.5381    8.8736    0.0000 N   0  0  0  0  0  0  0  0  0  0  0  0
   -5.5589    6.3720    0.0000 O   0  0  0  0  0  0  0  0  0  0  0  0
   -1.4512    5.1186    0.0000 C   0  0  0  0  0  0  0  0  0  0  0  0
   -2.6992    5.9508    0.0000 O   0  0  0  0  0  0  0  0  0  0  0  0
   -1.5589    3.6225    0.0000 N   0  0  0  0  0  0  0  0  0  0  0  0
   -1.2209    2.1611    0.0000 C   0  0  0  0  0  0  0  0  0  0  0  0
   -0.4671    0.8643    0.0000 C   0  0  0  0  0  0  0  0  0  0  0  0
    0.6354   -0.1528    0.0000 C   0  0  0  0  0  0  0  0  0  0  0  0
    1.9888   -0.7997    0.0000 C   0  0  0  0  0  0  0  0  0  0  0  0
    3.4727   -1.0189    0.0000 C   0  0  0  0  0  0  0  0  0  0  0  0
   -0.8039    0.7202    0.0000 C   0  0  0  0  0  0  0  0  0  0  0  0
   -0.6671   -0.7735    0.0000 C   0  0  0  0  0  0  0  0  0  0  0  0
   -0.8155   -2.2662    0.0000 C   0  0  0  0  0  0  0  0  0  0  0  0
   -1.2437   -3.7038    0.0000 C   0  0  0  0  0  0  0  0  0  0  0  0
   -1.9031    3.4970    0.0000 C   0  0  0  0  0  0  0  0  0  0  0  0
   -0.6380    4.3031    0.0000 O   0  0  0  0  0  0  0  0  0  0  0  0
   -2.8257    4.6797    0.0000 N   0  0  0  0  0  0  0  0  0  0  0  0
   -3.9555    5.6664    0.0000 C   0  0  0  0  0  0  0  0  0  0  0  0
   -3.8546    7.1630    0.0000 C   0  0  0  0  0  0  0  0  0  0  0  0
   -5.1002    7.9987    0.0000 C   0  0  0  0  0  0  0  0  0  0  0  0
   -4.9992    9.4953    0.0000 C   0  0  0  0  0  0  0  0  0  0  0  0
   -6.2448   10.3310    0.0000 N   0  0  0  0  0  0  0  0  0  0  0  0
   -6.1439   11.8276    0.0000 C   0  0  0  0  0  0  0  0  0  0  0  0
   -7.1503   12.9399    0.0000 N   0  0  0  0  0  0  0  0  0  0  0  0
   -4.7973   12.4885    0.0000 N   0  0  0  0  0  0  0  0  0  0  0  0
   -5.2516    6.4214    0.0000 C   0  0  0  0  0  0  0  0  0  0  0  0
   -5.3364    7.9190    0.0000 O   0  0  0  0  0  0  0  0  0  0  0  0
   -6.6672    6.9175    0.0000 N   0  0  0  0  0  0  0  0  0  0  0  0
   -8.1511    7.1368    0.0000 C   0  0  0  0  0  0  0  0  0  0  0  0
   -8.8753    8.4504    0.0000 C   0  0  0  0  0  0  0  0  0  0  0  0
   -8.0998    9.7343    0.0000 C   0  0  0  0  0  0  0  0  0  0  0  0
   -8.8240   11.0479    0.0000 C   0  0  0  0  0  0  0  0  0  0  0  0
   -8.0485   12.3319    0.0000 N   0  0  0  0  0  0  0  0  0  0  0  0
   -8.7727   13.6455    0.0000 C   0  0  0  0  0  0  0  0  0  0  0  0
   -7.9972   14.9295    0.0000 N   0  0  0  0  0  0  0  0  0  0  0  0
  -10.2724   13.6751    0.0000 N   0  0  0  0  0  0  0  0  0  0  0  0
   -9.6497    7.0712    0.0000 C   0  0  0  0  0  0  0  0  0  0  0  0
  -10.0369    8.5204    0.0000 O   0  0  0  0  0  0  0  0  0  0  0  0
  -11.1087    6.7232    0.0000 N   0  0  0  0  0  0  0  0  0  0  0  0
  -12.4756    6.1054    0.0000 C   0  0  0  0  0  0  0  0  0  0  0  0
  -13.7950    6.8190    0.0000 C   0  0  0  0  0  0  0  0  0  0  0  0
  -13.8368    8.3184    0.0000 C   0  0  0  0  0  0  0  0  0  0  0  0
  -15.1562    9.0319    0.0000 C   0  0  0  0  0  0  0  0  0  0  0  0
  -15.1980   10.5313    0.0000 N   0  0  0  0  0  0  0  0  0  0  0  0
  -16.5174   11.2449    0.0000 C   0  0  0  0  0  0  0  0  0  0  0  0
  -16.5592   12.7443    0.0000 N   0  0  0  0  0  0  0  0  0  0  0  0
  -17.7950   10.4590    0.0000 N   0  0  0  0  0  0  0  0  0  0  0  0
  -13.7008    5.2401    0.0000 C   0  0  0  0  0  0  0  0  0  0  0  0
  -14.8101    6.2498    0.0000 O   0  0  0  0  0  0  0  0  0  0  0  0
  -14.7402    4.1585    0.0000 N   0  0  0  0  0  0  0  0  0  0  0  0
  -15.5560    2.8998    0.0000 C   0  0  0  0  0  0  0  0  0  0  0  0
  -17.0518    2.7867    0.0000 C   0  0  0  0  0  0  0  0  0  0  0  0
  -17.8975    4.0255    0.0000 C   0  0  0  0  0  0  0  0  0  0  0  0
  -17.3925    5.4379    0.0000 C   0  0  0  0  0  0  0  0  0  0  0  0
  -18.5797    6.3548    0.0000 N   0  0  0  0  0  0  0  0  0  0  0  0
  -19.8185    5.5090    0.0000 C   0  0  0  0  0  0  0  0  0  0  0  0
  -21.2759    5.8637    0.0000 C   0  0  0  0  0  0  0  0  0  0  0  0
  -22.3118    4.7788    0.0000 C   0  0  0  0  0  0  0  0  0  0  0  0
  -21.8903    3.3392    0.0000 C   0  0  0  0  0  0  0  0  0  0  0  0
  -20.4328    2.9846    0.0000 C   0  0  0  0  0  0  0  0  0  0  0  0
  -19.3969    4.0694    0.0000 C   0  0  0  0  0  0  0  0  0  0  0  0
  -16.1189    1.5094    0.0000 C   0  0  0  0  0  0  0  0  0  0  0  0
  -17.5980    1.7592    0.0000 O   0  0  0  0  0  0  0  0  0  0  0  0
  -16.4085    0.0376    0.0000 N   0  0  0  0  0  0  0  0  0  0  0  0
  -16.4143   -1.4624    0.0000 C   0  0  0  0  0  0  0  0  0  0  0  0
  -17.6115   -2.3661    0.0000 C   0  0  0  0  0  0  0  0  0  0  0  0
  -18.9928   -1.7812    0.0000 C   0  0  0  0  0  0  0  0  0  0  0  0
  -20.1899   -2.6850    0.0000 C   0  0  0  0  0  0  0  0  0  0  0  0
  -21.5712   -2.1001    0.0000 N   0  0  0  0  0  0  0  0  0  0  0  0
  -22.7684   -3.0039    0.0000 C   0  0  0  0  0  0  0  0  0  0  0  0
  -24.1496   -2.4190    0.0000 N   0  0  0  0  0  0  0  0  0  0  0  0
  -22.5843   -4.4925    0.0000 N   0  0  0  0  0  0  0  0  0  0  0  0
  -16.1362   -2.9363    0.0000 C   0  0  0  0  0  0  0  0  0  0  0  0
  -17.5155   -3.5259    0.0000 O   0  0  0  0  0  0  0  0  0  0  0  0
  -15.5841   -4.3310    0.0000 N   0  0  0  0  0  0  0  0  0  0  0  0
  -14.7781   -5.5961    0.0000 C   0  0  0  0  0  0  0  0  0  0  0  0
  -15.2966   -7.0036    0.0000 C   0  0  0  0  0  0  0  0  0  0  0  0
  -16.7748   -7.2583    0.0000 C   0  0  0  0  0  0  0  0  0  0  0  0
  -17.2933   -8.6659    0.0000 C   0  0  0  0  0  0  0  0  0  0  0  0
  -18.7715   -8.9206    0.0000 O   0  0  0  0  0  0  0  0  0  0  0  0
  -16.3336   -9.8187    0.0000 O   0  0  0  0  0  0  0  0  0  0  0  0
  -13.7472   -6.6857    0.0000 C   0  0  0  0  0  0  0  0  0  0  0  0
  -14.5888   -7.9273    0.0000 O   0  0  0  0  0  0  0  0  0  0  0  0
  -12.5287   -7.5605    0.0000 N   0  0  0  0  0  0  0  0  0  0  0  0
  -11.1667   -8.1889    0.0000 C   0  0  0  0  0  0  0  0  0  0  0  0
   -9.7103   -8.5482    0.0000 C   0  0  0  0  0  0  0  0  0  0  0  0
   -8.2123   -8.6254    0.0000 C   0  0  0  0  0  0  0  0  0  0  0  0
   -6.7268   -8.4177    0.0000 C   0  0  0  0  0  0  0  0  0  0  0  0
   -5.3074   -7.9326    0.0000 C   0  0  0  0  0  0  0  0  0  0  0  0
   -4.0054   -7.1877    0.0000 C   0  0  0  0  0  0  0  0  0  0  0  0
   -2.8680   -6.2098    0.0000 C   0  0  0  0  0  0  0  0  0  0  0  0
   -1.9362   -5.0343    0.0000 C   0  0  0  0  0  0  0  0  0  0  0  0
  -12.3346   -9.1302    0.0000 C   0  0  0  0  0  0  0  0  0  0  0  0
  -10.8419   -9.6533    0.0000 C   0  0  0  0  0  0  0  0  0  0  0  0
   -9.5629  -10.4371    0.0000 O   0  0  0  0  0  0  0  0  0  0  0  0
  -11.9477  -10.6668    0.0000 N   0  0  0  0  0  0  0  0  0  0  0  0
  -11.6229  -12.1312    0.0000 C   0  0  0  0  0  0  0  0  0  0  0  0
  -10.8169  -13.3963    0.0000 C   0  0  0  0  0  0  0  0  0  0  0  0
  -11.5094  -14.7268    0.0000 C   0  0  0  0  0  0  0  0  0  0  0  0
  -10.7034  -15.9918    0.0000 C   0  0  0  0  0  0  0  0  0  0  0  0
  -11.2285  -17.3969    0.0000 N   0  0  0  0  0  0  0  0  0  0  0  0
   -9.2048  -15.9263    0.0000 O   0  0  0  0  0  0  0  0  0  0  0  0
  -12.7288  -13.1447    0.0000 C   0  0  0  0  0  0  0  0  0  0  0  0
  -14.1594  -12.6938    0.0000 O   0  0  0  0  0  0  0  0  0  0  0  0
  -12.4040  -14.6091    0.0000 N   0  0  0  0  0  0  0  0  0  0  0  0
  -13.5098  -15.6226    0.0000 C   0  0  0  0  0  0  0  0  0  0  0  0
  -14.8956  -16.1967    0.0000 C   0  0  0  0  0  0  0  0  0  0  0  0
  -16.0857  -15.2837    0.0000 C   0  0  0  0  0  0  0  0  0  0  0  0
  -17.4715  -15.8578    0.0000 C   0  0  0  0  0  0  0  0  0  0  0  0
  -18.6616  -14.9448    0.0000 N   0  0  0  0  0  0  0  0  0  0  0  0
  -20.0474  -15.5189    0.0000 C   0  0  0  0  0  0  0  0  0  0  0  0
  -21.2375  -14.6059    0.0000 N   0  0  0  0  0  0  0  0  0  0  0  0
  -20.2430  -17.0061    0.0000 N   0  0  0  0  0  0  0  0  0  0  0  0
  -13.1851  -17.0870    0.0000 C   0  0  0  0  0  0  0  0  0  0  0  0
  -14.1591  -18.2277    0.0000 O   0  0  0  0  0  0  0  0  0  0  0  0
  -11.8201  -17.7090    0.0000 O   0  0  0  0  0  0  0  0  0  0  0  0
   26.8286   -1.9382    0.0000 H   0  0  0  0  0  0  0  0  0  0  0  0
   26.4650   -6.4160    0.0000 H   0  0  0  0  0  0  0  0  0  0  0  0
   28.8616   -8.2204    0.0000 H   0  0  0  0  0  0  0  0  0  0  0  0
   29.2246   -2.2650    0.0000 H   0  0  0  0  0  0  0  0  0  0  0  0
   36.3340   -1.3869    0.0000 H   0  0  0  0  0  0  0  0  0  0  0  0
   36.7890   -6.5631    0.0000 H   0  0  0  0  0  0  0  0  0  0  0  0
   33.8006   -6.8259    0.0000 H   0  0  0  0  0  0  0  0  0  0  0  0
   38.9166   -5.0720    0.0000 H   0  0  0  0  0  0  0  0  0  0  0  0
   29.0903   -4.6318    0.0000 H   0  0  0  0  0  0  0  0  0  0  0  0
   27.3637   -1.9920    0.0000 H   0  0  0  0  0  0  0  0  0  0  0  0
   31.6237    0.8071    0.0000 H   0  0  0  0  0  0  0  0  0  0  0  0
   29.2686    1.9041    0.0000 H   0  0  0  0  0  0  0  0  0  0  0  0
   24.4326   -1.6338    0.0000 H   0  0  0  0  0  0  0  0  0  0  0  0
   23.6874   -4.9670    0.0000 H   0  0  0  0  0  0  0  0  0  0  0  0
   21.7734   -4.7328    0.0000 H   0  0  0  0  0  0  0  0  0  0  0  0
   22.7682   -1.7837    0.0000 H   0  0  0  0  0  0  0  0  0  0  0  0
   20.8541   -1.5495    0.0000 H   0  0  0  0  0  0  0  0  0  0  0  0
   19.2749   -1.0027    0.0000 H   0  0  0  0  0  0  0  0  0  0  0  0
   17.3742   -1.6169    0.0000 H   0  0  0  0  0  0  0  0  0  0  0  0
   17.3322   -5.2392    0.0000 H   0  0  0  0  0  0  0  0  0  0  0  0
   20.2384   -6.4069    0.0000 H   0  0  0  0  0  0  0  0  0  0  0  0
   20.9700   -5.4066    0.0000 H   0  0  0  0  0  0  0  0  0  0  0  0
   21.4082   -3.6701    0.0000 H   0  0  0  0  0  0  0  0  0  0  0  0
   20.0976   -2.7628    0.0000 H   0  0  0  0  0  0  0  0  0  0  0  0
   16.0773   -0.5629    0.0000 H   0  0  0  0  0  0  0  0  0  0  0  0
   14.0811   -0.4900    0.0000 H   0  0  0  0  0  0  0  0  0  0  0  0
   13.8747   -4.8959    0.0000 H   0  0  0  0  0  0  0  0  0  0  0  0
   12.7599   -3.7014    0.0000 H   0  0  0  0  0  0  0  0  0  0  0  0
   17.1695   -3.7991    0.0000 H   0  0  0  0  0  0  0  0  0  0  0  0
   16.2087   -2.4777    0.0000 H   0  0  0  0  0  0  0  0  0  0  0  0
   15.8275   -6.8286    0.0000 H   0  0  0  0  0  0  0  0  0  0  0  0
   14.5326   -5.6008    0.0000 H   0  0  0  0  0  0  0  0  0  0  0  0
   18.7560   -5.0499    0.0000 H   0  0  0  0  0  0  0  0  0  0  0  0
   19.5550   -9.1384    0.0000 H   0  0  0  0  0  0  0  0  0  0  0  0
   17.0238   -9.7239    0.0000 H   0  0  0  0  0  0  0  0  0  0  0  0
   15.2511   -7.8245    0.0000 H   0  0  0  0  0  0  0  0  0  0  0  0
   13.2229    0.9439    0.0000 H   0  0  0  0  0  0  0  0  0  0  0  0
   11.3720    1.6952    0.0000 H   0  0  0  0  0  0  0  0  0  0  0  0
    9.8290   -2.4673    0.0000 H   0  0  0  0  0  0  0  0  0  0  0  0
    9.0748   -0.6925    0.0000 H   0  0  0  0  0  0  0  0  0  0  0  0
   13.1424   -2.4706    0.0000 H   0  0  0  0  0  0  0  0  0  0  0  0
   12.6915   -0.9002    0.0000 H   0  0  0  0  0  0  0  0  0  0  0  0
   12.5418   -5.9127    0.0000 H   0  0  0  0  0  0  0  0  0  0  0  0
   14.2356   -4.2215    0.0000 H   0  0  0  0  0  0  0  0  0  0  0  0
   11.1172    3.1636    0.0000 H   0  0  0  0  0  0  0  0  0  0  0  0
    9.6463    2.1254    0.0000 H   0  0  0  0  0  0  0  0  0  0  0  0
    8.8721    0.8750    0.0000 H   0  0  0  0  0  0  0  0  0  0  0  0
    8.6515    0.0581    0.0000 H   0  0  0  0  0  0  0  0  0  0  0  0
    8.0528   -0.4640    0.0000 H   0  0  0  0  0  0  0  0  0  0  0  0
    7.6079   -0.8793    0.0000 H   0  0  0  0  0  0  0  0  0  0  0  0
    6.3466   -1.6357    0.0000 H   0  0  0  0  0  0  0  0  0  0  0  0
    5.4016   -2.2231    0.0000 H   0  0  0  0  0  0  0  0  0  0  0  0
   11.1599    3.7567    0.0000 H   0  0  0  0  0  0  0  0  0  0  0  0
   10.7816    5.5005    0.0000 H   0  0  0  0  0  0  0  0  0  0  0  0
    9.1647    5.7354    0.0000 H   0  0  0  0  0  0  0  0  0  0  0  0
    9.1054    7.2957    0.0000 H   0  0  0  0  0  0  0  0  0  0  0  0
    8.3573    7.9065    0.0000 H   0  0  0  0  0  0  0  0  0  0  0  0
    6.6833   10.6231    0.0000 H   0  0  0  0  0  0  0  0  0  0  0  0
    5.6696    9.5486    0.0000 H   0  0  0  0  0  0  0  0  0  0  0  0
   10.0341    9.7114    0.0000 H   0  0  0  0  0  0  0  0  0  0  0  0
    8.9769    8.2739    0.0000 H   0  0  0  0  0  0  0  0  0  0  0  0
    8.5255   12.6615    0.0000 H   0  0  0  0  0  0  0  0  0  0  0  0
    7.3010   11.3635    0.0000 H   0  0  0  0  0  0  0  0  0  0  0  0
   11.3502   10.7413    0.0000 H   0  0  0  0  0  0  0  0  0  0  0  0
   12.1187   15.1752    0.0000 H   0  0  0  0  0  0  0  0  0  0  0  0
    9.5588   15.6189    0.0000 H   0  0  0  0  0  0  0  0  0  0  0  0
    7.8946   13.6238    0.0000 H   0  0  0  0  0  0  0  0  0  0  0  0
    4.4127   10.4752    0.0000 H   0  0  0  0  0  0  0  0  0  0  0  0
    3.4687   10.2710    0.0000 H   0  0  0  0  0  0  0  0  0  0  0  0
    0.3011   10.6561    0.0000 H   0  0  0  0  0  0  0  0  0  0  0  0
    0.5091    9.1936    0.0000 H   0  0  0  0  0  0  0  0  0  0  0  0
    3.1031   12.7074    0.0000 H   0  0  0  0  0  0  0  0  0  0  0  0
    3.5678   10.9846    0.0000 H   0  0  0  0  0  0  0  0  0  0  0  0
   -0.1439   13.3673    0.0000 H   0  0  0  0  0  0  0  0  0  0  0  0
    0.1073   11.6006    0.0000 H   0  0  0  0  0  0  0  0  0  0  0  0
    3.1184   14.3785    0.0000 H   0  0  0  0  0  0  0  0  0  0  0  0
    0.1310   17.7438    0.0000 H   0  0  0  0  0  0  0  0  0  0  0  0
   -1.8119   16.0191    0.0000 H   0  0  0  0  0  0  0  0  0  0  0  0
   -1.2897   13.4740    0.0000 H   0  0  0  0  0  0  0  0  0  0  0  0
   -0.9989    8.7886    0.0000 H   0  0  0  0  0  0  0  0  0  0  0  0
   -1.4279    7.9233    0.0000 H   0  0  0  0  0  0  0  0  0  0  0  0
   -3.8866    6.2022    0.0000 H   0  0  0  0  0  0  0  0  0  0  0  0
   -2.6134    4.9519    0.0000 H   0  0  0  0  0  0  0  0  0  0  0  0
   -3.1970    9.1948    0.0000 H   0  0  0  0  0  0  0  0  0  0  0  0
   -1.9240    8.4456    0.0000 H   0  0  0  0  0  0  0  0  0  0  0  0
   -7.0106    9.1593    0.0000 H   0  0  0  0  0  0  0  0  0  0  0  0
   -5.3820   10.3655    0.0000 H   0  0  0  0  0  0  0  0  0  0  0  0
   -3.0544    3.5061    0.0000 H   0  0  0  0  0  0  0  0  0  0  0  0
   -0.7637   -0.6061    0.0000 H   0  0  0  0  0  0  0  0  0  0  0  0
   -1.9592    0.7106    0.0000 H   0  0  0  0  0  0  0  0  0  0  0  0
    0.7855   -1.6453    0.0000 H   0  0  0  0  0  0  0  0  0  0  0  0
   -0.4431   -1.1953    0.0000 H   0  0  0  0  0  0  0  0  0  0  0  0
    2.3992   -2.2424    0.0000 H   0  0  0  0  0  0  0  0  0  0  0  0
    1.2655   -2.1138    0.0000 H   0  0  0  0  0  0  0  0  0  0  0  0
    3.4770   -2.5189    0.0000 H   0  0  0  0  0  0  0  0  0  0  0  0
    0.3019    1.7337    0.0000 H   0  0  0  0  0  0  0  0  0  0  0  0
    0.5189    0.0129    0.0000 H   0  0  0  0  0  0  0  0  0  0  0  0
    0.8073   -0.4978    0.0000 H   0  0  0  0  0  0  0  0  0  0  0  0
    0.4979   -1.7184    0.0000 H   0  0  0  0  0  0  0  0  0  0  0  0
    0.6845   -2.2745    0.0000 H   0  0  0  0  0  0  0  0  0  0  0  0
    0.2824   -3.2882    0.0000 H   0  0  0  0  0  0  0  0  0  0  0  0
    0.1467   -4.2667    0.0000 H   0  0  0  0  0  0  0  0  0  0  0  0
   -1.8699    5.8357    0.0000 H   0  0  0  0  0  0  0  0  0  0  0  0
   -2.7498    6.5588    0.0000 H   0  0  0  0  0  0  0  0  0  0  0  0
   -3.2478    8.5348    0.0000 H   0  0  0  0  0  0  0  0  0  0  0  0
   -2.4529    6.6288    0.0000 H   0  0  0  0  0  0  0  0  0  0  0  0
   -6.5565    8.3580    0.0000 H   0  0  0  0  0  0  0  0  0  0  0  0
   -6.1583    6.9355    0.0000 H   0  0  0  0  0  0  0  0  0  0  0  0
   -4.2298   10.7829    0.0000 H   0  0  0  0  0  0  0  0  0  0  0  0
   -3.4992    9.4991    0.0000 H   0  0  0  0  0  0  0  0  0  0  0  0
   -7.7113   10.0156    0.0000 H   0  0  0  0  0  0  0  0  0  0  0  0
   -7.2886   14.1599    0.0000 H   0  0  0  0  0  0  0  0  0  0  0  0
   -4.6964   13.9851    0.0000 H   0  0  0  0  0  0  0  0  0  0  0  0
   -3.5517   11.6528    0.0000 H   0  0  0  0  0  0  0  0  0  0  0  0
   -6.4881    8.4068    0.0000 H   0  0  0  0  0  0  0  0  0  0  0  0
   -7.4523    8.4640    0.0000 H   0  0  0  0  0  0  0  0  0  0  0  0
  -10.0051    9.4370    0.0000 H   0  0  0  0  0  0  0  0  0  0  0  0
  -10.2362    7.8196    0.0000 H   0  0  0  0  0  0  0  0  0  0  0  0
   -7.1944   10.9303    0.0000 H   0  0  0  0  0  0  0  0  0  0  0  0
   -6.9700    8.7476    0.0000 H   0  0  0  0  0  0  0  0  0  0  0  0
   -9.9538   12.0346    0.0000 H   0  0  0  0  0  0  0  0  0  0  0  0
  -10.0979   10.2560    0.0000 H   0  0  0  0  0  0  0  0  0  0  0  0
   -6.5862   12.6660    0.0000 H   0  0  0  0  0  0  0  0  0  0  0  0
   -8.7214   16.2431    0.0000 H   0  0  0  0  0  0  0  0  0  0  0  0
  -10.9966   14.9887    0.0000 H   0  0  0  0  0  0  0  0  0  0  0  0
  -11.0479   12.3911    0.0000 H   0  0  0  0  0  0  0  0  0  0  0  0
  -11.4172    8.1912    0.0000 H   0  0  0  0  0  0  0  0  0  0  0  0
  -12.2399    7.5868    0.0000 H   0  0  0  0  0  0  0  0  0  0  0  0
  -15.2789    7.0382    0.0000 H   0  0  0  0  0  0  0  0  0  0  0  0
  -14.5989    5.5526    0.0000 H   0  0  0  0  0  0  0  0  0  0  0  0
  -13.3632    9.7416    0.0000 H   0  0  0  0  0  0  0  0  0  0  0  0
  -12.3439    8.4647    0.0000 H   0  0  0  0  0  0  0  0  0  0  0  0
  -16.6401    9.2511    0.0000 H   0  0  0  0  0  0  0  0  0  0  0  0
  -15.7998    7.6770    0.0000 H   0  0  0  0  0  0  0  0  0  0  0  0
  -13.9203   11.3172    0.0000 H   0  0  0  0  0  0  0  0  0  0  0  0
  -17.8786   13.4578    0.0000 H   0  0  0  0  0  0  0  0  0  0  0  0
  -19.1145   11.1725    0.0000 H   0  0  0  0  0  0  0  0  0  0  0  0
  -17.7533    8.9596    0.0000 H   0  0  0  0  0  0  0  0  0  0  0  0
  -15.7933    5.2267    0.0000 H   0  0  0  0  0  0  0  0  0  0  0  0
  -16.3215    4.1897    0.0000 H   0  0  0  0  0  0  0  0  0  0  0  0
  -18.4837    2.3401    0.0000 H   0  0  0  0  0  0  0  0  0  0  0  0
  -17.0434    1.2867    0.0000 H   0  0  0  0  0  0  0  0  0  0  0  0
  -16.0150    6.0318    0.0000 H   0  0  0  0  0  0  0  0  0  0  0  0
  -18.5358    7.8541    0.0000 H   0  0  0  0  0  0  0  0  0  0  0  0
  -21.6975    7.3032    0.0000 H   0  0  0  0  0  0  0  0  0  0  0  0
  -23.7693    5.1335    0.0000 H   0  0  0  0  0  0  0  0  0  0  0  0
  -22.9261    2.2544    0.0000 H   0  0  0  0  0  0  0  0  0  0  0  0
  -20.0112    1.5450    0.0000 H   0  0  0  0  0  0  0  0  0  0  0  0
  -17.8719    0.3669    0.0000 H   0  0  0  0  0  0  0  0  0  0  0  0
  -17.6639   -0.6325    0.0000 H   0  0  0  0  0  0  0  0  0  0  0  0
  -18.4274   -3.6248    0.0000 H   0  0  0  0  0  0  0  0  0  0  0  0
  -16.7935   -3.6235    0.0000 H   0  0  0  0  0  0  0  0  0  0  0  0
  -20.0907   -0.7592    0.0000 H   0  0  0  0  0  0  0  0  0  0  0  0
  -18.5057   -0.3625    0.0000 H   0  0  0  0  0  0  0  0  0  0  0  0
  -21.0058   -3.9437    0.0000 H   0  0  0  0  0  0  0  0  0  0  0  0
  -19.2248   -3.8333    0.0000 H   0  0  0  0  0  0  0  0  0  0  0  0
  -21.7553   -0.6115    0.0000 H   0  0  0  0  0  0  0  0  0  0  0  0
  -25.3468   -3.3228    0.0000 H   0  0  0  0  0  0  0  0  0  0  0  0
  -23.7814   -5.3963    0.0000 H   0  0  0  0  0  0  0  0  0  0  0  0
  -21.2030   -5.0774    0.0000 H   0  0  0  0  0  0  0  0  0  0  0  0
  -16.9932   -4.8453    0.0000 H   0  0  0  0  0  0  0  0  0  0  0  0
  -16.2779   -5.5735    0.0000 H   0  0  0  0  0  0  0  0  0  0  0  0
  -15.4852   -8.4917    0.0000 H   0  0  0  0  0  0  0  0  0  0  0  0
  -13.9287   -7.6191    0.0000 H   0  0  0  0  0  0  0  0  0  0  0  0
  -18.2510   -6.9921    0.0000 H   0  0  0  0  0  0  0  0  0  0  0  0
  -17.1321   -5.8015    0.0000 H   0  0  0  0  0  0  0  0  0  0  0  0
  -16.8521  -11.2262    0.0000 H   0  0  0  0  0  0  0  0  0  0  0  0
  -13.4361   -8.7549    0.0000 H   0  0  0  0  0  0  0  0  0  0  0  0
   -9.1143   -9.9247    0.0000 H   0  0  0  0  0  0  0  0  0  0  0  0
  -10.3731   -9.8939    0.0000 H   0  0  0  0  0  0  0  0  0  0  0  0
   -7.5239   -9.9581    0.0000 H   0  0  0  0  0  0  0  0  0  0  0  0
   -8.6084  -10.0722    0.0000 H   0  0  0  0  0  0  0  0  0  0  0  0
   -5.7985   -9.5960    0.0000 H   0  0  0  0  0  0  0  0  0  0  0  0
   -7.0233   -9.8881    0.0000 H   0  0  0  0  0  0  0  0  0  0  0  0
   -4.1729   -8.9139    0.0000 H   0  0  0  0  0  0  0  0  0  0  0  0
   -5.3203   -9.4326    0.0000 H   0  0  0  0  0  0  0  0  0  0  0  0
   -2.7058   -7.9366    0.0000 H   0  0  0  0  0  0  0  0  0  0  0  0
   -3.7343   -8.6630    0.0000 H   0  0  0  0  0  0  0  0  0  0  0  0
   -1.4010   -6.5227    0.0000 H   0  0  0  0  0  0  0  0  0  0  0  0
   -2.3225   -7.6071    0.0000 H   0  0  0  0  0  0  0  0  0  0  0  0
   -0.6775   -5.8502    0.0000 H   0  0  0  0  0  0  0  0  0  0  0  0
  -12.4688  -10.6242    0.0000 H   0  0  0  0  0  0  0  0  0  0  0  0
  -13.7540   -9.6153    0.0000 H   0  0  0  0  0  0  0  0  0  0  0  0
  -13.3551   -8.0309    0.0000 H   0  0  0  0  0  0  0  0  0  0  0  0
  -13.4226  -10.3936    0.0000 H   0  0  0  0  0  0  0  0  0  0  0  0
  -10.2372  -11.5571    0.0000 H   0  0  0  0  0  0  0  0  0  0  0  0
   -9.6268  -14.3093    0.0000 H   0  0  0  0  0  0  0  0  0  0  0  0
   -9.7111  -12.3828    0.0000 H   0  0  0  0  0  0  0  0  0  0  0  0
  -12.6152  -15.7403    0.0000 H   0  0  0  0  0  0  0  0  0  0  0  0
  -12.9889  -14.4795    0.0000 H   0  0  0  0  0  0  0  0  0  0  0  0
  -10.5898  -18.5874    0.0000 H   0  0  0  0  0  0  0  0  0  0  0  0
  -12.8471  -17.7914    0.0000 H   0  0  0  0  0  0  0  0  0  0  0  0
  -11.1250  -15.3928    0.0000 H   0  0  0  0  0  0  0  0  0  0  0  0
  -14.1557  -14.2688    0.0000 H   0  0  0  0  0  0  0  0  0  0  0  0
  -15.8697  -17.3375    0.0000 H   0  0  0  0  0  0  0  0  0  0  0  0
  -14.2498  -17.5506    0.0000 H   0  0  0  0  0  0  0  0  0  0  0  0
  -16.8918  -14.0187    0.0000 H   0  0  0  0  0  0  0  0  0  0  0  0
  -15.1117  -14.1430    0.0000 H   0  0  0  0  0  0  0  0  0  0  0  0
  -18.5773  -16.8713    0.0000 H   0  0  0  0  0  0  0  0  0  0  0  0
  -16.8256  -17.2117    0.0000 H   0  0  0  0  0  0  0  0  0  0  0  0
  -18.4659  -13.4576    0.0000 H   0  0  0  0  0  0  0  0  0  0  0  0
  -22.6232  -15.1800    0.0000 H   0  0  0  0  0  0  0  0  0  0  0  0
  -21.6288  -17.5803    0.0000 H   0  0  0  0  0  0  0  0  0  0  0  0
  -19.0529  -17.9192    0.0000 H   0  0  0  0  0  0  0  0  0  0  0  0
  -11.4297  -19.0024    0.0000 H   0  0  0  0  0  0  0  0  0  0  0  0
  1  2  1  0
  2  3  1  0
  3  4  2  0
  4  5  1  0
  5  6  2  0
  6  7  1  0
  7  8  2  0
  7  9  1  0
  9 10  1  0
 10 11  1  0
 11 12  2  0
  9 13  1  0
 13 14  1  0
 14 15  2  0
 15 16  1  0
 16 17  2  0
 17 18  1  0
 16 19  1  0
 14 20  1  0
 20 21  1  0
 21 22  2  0
 22 23  1  0
 23 24  2  0
 24 25  1  0
 25 26  2  0
 25 27  1  0
  1 28  2  0
  1 29  1  0
 29 30  1  0
 30 31  1  0
 31 32  1  0
 32 33  2  0
 32 34  1  0
 34 35  1  0
 35 36  1  0
 36 37  1  0
 36 38  1  0
 35 39  1  0
 39 40  2  0
 39 41  1  0
 41 42  1  0
 42 43  1  0
 43 44  1  0
 44 45  1  0
 45 46  1  0
 46 47  1  0
 47 48  2  3
 47 49  1  0
 42 50  1  0
 50 51  2  0
 50 52  1  0
 52 53  1  0
 53 54  1  0
 54 55  1  0
 55 56  1  0
 56 57  1  0
 56 58  2  0
 53 59  1  0
 59 60  2  0
 59 61  1  0
 62 61  1  1
 62 63  1  0
 63 64  1  0
 64 65  1  0
 65 66  1  0
 62 67  1  0
 62 68  1  0
 68 69  2  0
 68 70  1  0
 70 71  1  0
 71 72  1  0
 72 73  1  0
 73 74  1  0
 74 75  1  0
 75 76  1  0
 76 77  2  3
 76 78  1  0
 71 79  1  0
 79 80  2  0
 79 81  1  0
 81 82  1  0
 82 83  1  0
 83 84  1  0
 84 85  1  0
 85 86  1  0
 86 87  1  0
 87 88  2  3
 87 89  1  0
 82 90  1  0
 90 91  2  0
 90 92  1  0
 92 93  1  0
 93 94  1  0
 94 95  1  0
 95 96  1  0
 96 97  1  0
 96 98  2  0
 93 99  1  0
 99100  2  0
 99101  1  0
101102  1  0
102103  1  0
103104  1  0
104105  1  0
105106  1  0
102107  1  0
107108  1  0
108109  1  0
109110  1  0
102111  1  0
111112  2  0
111113  1  0
113114  1  0
114115  1  0
115116  1  0
116117  1  0
117118  1  0
118119  1  0
119120  2  3
119121  1  0
114122  1  0
122123  2  0
122124  1  0
124125  1  0
125126  1  0
126127  1  0
127128  1  0
128129  1  0
129130  1  0
130131  2  3
130132  1  0
125133  1  0
133134  2  0
133135  1  0
135136  1  0
136137  1  0
137138  1  0
138139  1  0
139140  1  0
140141  1  0
141142  2  3
141143  1  0
136144  1  0
144145  2  0
144146  1  0
146147  1  0
147148  1  0
148149  1  0
149150  2  0
150151  1  0
151152  1  0
152153  2  0
153154  1  0
154155  2  0
155156  1  0
156157  2  0
147158  1  0
158159  2  0
158160  1  0
160161  1  0
161162  1  0
162163  1  0
163164  1  0
164165  1  0
165166  1  0
166167  2  3
166168  1  0
161169  1  0
169170  2  0
169171  1  0
171172  1  0
172173  1  0
173174  1  0
174175  1  0
175176  2  0
175177  1  0
172178  1  0
178179  2  0
178180  1  0
180181  1  0
181182  1  0
182183  1  0
183184  1  0
184185  1  0
185186  1  0
186187  1  0
187188  1  0
181189  1  0
181190  1  1
190191  2  0
190192  1  0
192193  1  0
193194  1  0
194195  1  0
195196  1  0
196197  1  0
196198  2  0
193199  1  0
199200  2  0
199201  1  0
201202  1  0
202203  1  0
203204  1  0
204205  1  0
205206  1  0
206207  1  0
207208  2  3
207209  1  0
202210  1  0
210211  2  0
210212  1  0
  8  3  1  0
157149  1  0
 11  6  1  0
 66106  2  0
157152  1  0
 18 13  2  0
110188  2  0
 22  9  1  0
 26 21  1  0
  2213  1  0
  4214  1  0
  5215  1  0
  8216  1  0
 15217  1  0
 17218  1  0
 18219  1  0
 19220  1  0
 23221  1  0
 24222  1  0
 26223  1  0
 27224  1  0
 29225  1  0
 30226  1  0
 30227  1  0
 31228  1  0
 31229  1  0
 34230  1  0
 35231  1  1
 36232  1  6
 37233  1  0
 38234  1  0
 38235  1  0
 38236  1  0
 41237  1  0
 42238  1  1
 43239  1  0
 43240  1  0
 44241  1  0
 44242  1  0
 45243  1  0
 45244  1  0
 46245  1  0
 48246  1  0
 49247  1  0
 49248  1  0
 52249  1  0
 53250  1  1
 54251  1  0
 54252  1  0
 55253  1  0
 55254  1  0
 57255  1  0
 57256  1  0
 61257  1  0
 63258  1  0
 63259  1  0
 64260  1  0
 64261  1  0
 65262  1  0
 65263  1  0
 66264  1  0
 67265  1  0
 67266  1  0
 67267  1  0
 70268  1  0
 71269  1  6
 72270  1  0
 72271  1  0
 73272  1  0
 73273  1  0
 74274  1  0
 74275  1  0
 75276  1  0
 77277  1  0
 78278  1  0
 78279  1  0
 81280  1  0
 82281  1  6
 83282  1  0
 83283  1  0
 84284  1  0
 84285  1  0
 85286  1  0
 85287  1  0
 86288  1  0
 88289  1  0
 89290  1  0
 89291  1  0
 92292  1  0
 93293  1  6
 94294  1  0
 94295  1  0
 95296  1  0
 95297  1  0
 97298  1  0
 97299  1  0
101300  1  0
103301  1  0
103302  1  0
104303  1  0
104304  1  0
105305  1  0
105306  1  0
106307  1  0
107308  1  0
107309  1  0
108310  1  0
108311  1  0
109312  1  0
109313  1  0
110314  1  0
113315  1  0
114316  1  6
115317  1  0
115318  1  0
116319  1  0
116320  1  0
117321  1  0
117322  1  0
118323  1  0
120324  1  0
121325  1  0
121326  1  0
124327  1  0
125328  1  6
126329  1  0
126330  1  0
127331  1  0
127332  1  0
128333  1  0
128334  1  0
129335  1  0
131336  1  0
132337  1  0
132338  1  0
135339  1  0
136340  1  6
137341  1  0
137342  1  0
138343  1  0
138344  1  0
139345  1  0
139346  1  0
140347  1  0
142348  1  0
143349  1  0
143350  1  0
146351  1  0
147352  1  6
148353  1  0
148354  1  0
150355  1  0
151356  1  0
153357  1  0
154358  1  0
155359  1  0
156360  1  0
160361  1  0
161362  1  6
162363  1  0
162364  1  0
163365  1  0
163366  1  0
164367  1  0
164368  1  0
165369  1  0
167370  1  0
168371  1  0
168372  1  0
171373  1  0
172374  1  6
173375  1  0
173376  1  0
174377  1  0
174378  1  0
177379  1  0
180380  1  0
182381  1  0
182382  1  0
183383  1  0
183384  1  0
184385  1  0
184386  1  0
185387  1  0
185388  1  0
186389  1  0
186390  1  0
187391  1  0
187392  1  0
188393  1  0
189394  1  0
189395  1  0
189396  1  0
192397  1  0
193398  1  1
194399  1  0
194400  1  0
195401  1  0
195402  1  0
197403  1  0
197404  1  0
201405  1  0
202406  1  6
203407  1  0
203408  1  0
204409  1  0
204410  1  0
205411  1  0
205412  1  0
206413  1  0
208414  1  0
209415  1  0
209416  1  0
212417  1  0
M  END
