
     RDKit          2D

414420  0  0  0  0  0  0  0  0999 V2000
  -41.3051   -1.8803    0.0000 C   0  0  0  0  0  0  0  0  0  0  0  0
  -42.5159   -2.7658    0.0000 N   0  0  0  0  0  0  0  0  0  0  0  0
  -43.8881   -2.1601    0.0000 C   0  0  0  0  0  0  0  0  0  0  0  0
  -44.0496   -0.6688    0.0000 C   0  0  0  0  0  0  0  0  0  0  0  0
  -45.4219   -0.0630    0.0000 C   0  0  0  0  0  0  0  0  0  0  0  0
  -46.6326   -0.9486    0.0000 C   0  0  0  0  0  0  0  0  0  0  0  0
  -46.4711   -2.4398    0.0000 C   0  0  0  0  0  0  0  0  0  0  0  0
  -45.0988   -3.0456    0.0000 C   0  0  0  0  0  0  0  0  0  0  0  0
  -47.8394   -3.0543    0.0000 C   0  0  0  0  0  0  0  0  0  0  0  0
  -48.8467   -1.9428    0.0000 O   0  0  0  0  0  0  0  0  0  0  0  0
  -48.1008   -0.6414    0.0000 C   0  0  0  0  0  0  0  0  0  0  0  0
  -48.7153    0.7270    0.0000 O   0  0  0  0  0  0  0  0  0  0  0  0
  -49.2645   -3.5224    0.0000 C   0  0  0  0  0  0  0  0  0  0  0  0
  -49.5717   -4.9906    0.0000 C   0  0  0  0  0  0  0  0  0  0  0  0
  -50.9968   -5.4586    0.0000 C   0  0  0  0  0  0  0  0  0  0  0  0
  -52.1147   -4.4585    0.0000 C   0  0  0  0  0  0  0  0  0  0  0  0
  -51.8076   -2.9903    0.0000 C   0  0  0  0  0  0  0  0  0  0  0  0
  -50.3824   -2.5222    0.0000 C   0  0  0  0  0  0  0  0  0  0  0  0
  -53.5399   -4.9266    0.0000 O   0  0  0  0  0  0  0  0  0  0  0  0
  -48.4538   -5.9907    0.0000 O   0  0  0  0  0  0  0  0  0  0  0  0
  -47.0287   -5.5227    0.0000 C   0  0  0  0  0  0  0  0  0  0  0  0
  -46.7215   -4.0544    0.0000 C   0  0  0  0  0  0  0  0  0  0  0  0
  -45.4398   -4.2716    0.0000 C   0  0  0  0  0  0  0  0  0  0  0  0
  -44.8436   -4.8050    0.0000 C   0  0  0  0  0  0  0  0  0  0  0  0
  -45.0074   -5.5880    0.0000 C   0  0  0  0  0  0  0  0  0  0  0  0
  -45.7675   -5.8376    0.0000 C   0  0  0  0  0  0  0  0  0  0  0  0
  -43.3678   -7.0549    0.0000 O   0  0  0  0  0  0  0  0  0  0  0  0
  -41.4667   -0.3890    0.0000 S   0  0  0  0  0  0  0  0  0  0  0  0
  -39.9329   -2.4860    0.0000 N   0  0  0  0  0  0  0  0  0  0  0  0
  -38.7222   -1.6005    0.0000 C   0  0  0  0  0  0  0  0  0  0  0  0
  -37.3499   -2.2062    0.0000 C   0  0  0  0  0  0  0  0  0  0  0  0
  -36.1392   -1.3207    0.0000 C   0  0  0  0  0  0  0  0  0  0  0  0
  -36.3007    0.1706    0.0000 O   0  0  0  0  0  0  0  0  0  0  0  0
  -34.7670   -1.9264    0.0000 N   0  0  0  0  0  0  0  0  0  0  0  0
  -33.5562   -1.0409    0.0000 C   0  0  0  0  0  0  0  0  0  0  0  0
  -32.7214    0.2053    0.0000 C   0  0  0  0  0  0  0  0  0  0  0  0
  -31.2884    0.6486    0.0000 O   0  0  0  0  0  0  0  0  0  0  0  0
  -32.1840   -1.6466    0.0000 C   0  0  0  0  0  0  0  0  0  0  0  0
  -32.0224   -3.1379    0.0000 O   0  0  0  0  0  0  0  0  0  0  0  0
  -30.9733   -0.7611    0.0000 N   0  0  0  0  0  0  0  0  0  0  0  0
  -29.6010   -1.3668    0.0000 C   0  0  0  0  0  0  0  0  0  0  0  0
  -28.5187   -2.4054    0.0000 C   0  0  0  0  0  0  0  0  0  0  0  0
  -27.2305   -3.1739    0.0000 O   0  0  0  0  0  0  0  0  0  0  0  0
  -28.8769   -3.8620    0.0000 C   0  0  0  0  0  0  0  0  0  0  0  0
  -28.3903   -0.4813    0.0000 C   0  0  0  0  0  0  0  0  0  0  0  0
  -28.5518    1.0100    0.0000 O   0  0  0  0  0  0  0  0  0  0  0  0
  -27.0181   -1.0870    0.0000 N   0  0  0  0  0  0  0  0  0  0  0  0
  -25.8073   -0.2015    0.0000 C   0  0  0  0  0  0  0  0  0  0  0  0
  -24.9725    1.0447    0.0000 C   0  0  0  0  0  0  0  0  0  0  0  0
  -24.4351   -0.8073    0.0000 C   0  0  0  0  0  0  0  0  0  0  0  0
  -24.2735   -2.2985    0.0000 O   0  0  0  0  0  0  0  0  0  0  0  0
  -23.2244    0.0783    0.0000 N   0  0  0  0  0  0  0  0  0  0  0  0
  -21.8521   -0.5275    0.0000 C   0  0  0  0  0  0  0  0  0  0  0  0
  -20.7698   -1.5660    0.0000 C   0  0  0  0  0  0  0  0  0  0  0  0
  -21.1280   -3.0226    0.0000 C   0  0  0  0  0  0  0  0  0  0  0  0
  -20.0457   -4.0612    0.0000 C   0  0  0  0  0  0  0  0  0  0  0  0
  -21.9629   -4.2688    0.0000 C   0  0  0  0  0  0  0  0  0  0  0  0
  -20.6414    0.3581    0.0000 C   0  0  0  0  0  0  0  0  0  0  0  0
  -20.8029    1.8493    0.0000 O   0  0  0  0  0  0  0  0  0  0  0  0
  -19.2692   -0.2477    0.0000 N   0  0  0  0  0  0  0  0  0  0  0  0
  -18.0584    0.6379    0.0000 C   0  0  0  0  0  0  0  0  0  0  0  0
  -17.2236    1.8841    0.0000 C   0  0  0  0  0  0  0  0  0  0  0  0
  -15.7269    1.7842    0.0000 C   0  0  0  0  0  0  0  0  0  0  0  0
  -14.8921    3.0304    0.0000 C   0  0  0  0  0  0  0  0  0  0  0  0
  -13.3954    2.9306    0.0000 N   0  0  0  0  0  0  0  0  0  0  0  0
  -12.5606    4.1768    0.0000 C   0  0  0  0  0  0  0  0  0  0  0  0
  -11.0873    3.8952    0.0000 N   0  0  0  0  0  0  0  0  0  0  0  0
  -13.2224    5.5229    0.0000 N   0  0  0  0  0  0  0  0  0  0  0  0
  -16.6862    0.0321    0.0000 C   0  0  0  0  0  0  0  0  0  0  0  0
  -16.5246   -1.4592    0.0000 O   0  0  0  0  0  0  0  0  0  0  0  0
  -15.4755    0.9177    0.0000 N   0  0  0  0  0  0  0  0  0  0  0  0
  -14.1032    0.3119    0.0000 C   0  0  0  0  0  0  0  0  0  0  0  0
  -13.0209   -0.7266    0.0000 C   0  0  0  0  0  0  0  0  0  0  0  0
  -13.3791   -2.1832    0.0000 C   0  0  0  0  0  0  0  0  0  0  0  0
  -12.2968   -3.2218    0.0000 C   0  0  0  0  0  0  0  0  0  0  0  0
  -12.6551   -4.6784    0.0000 O   0  0  0  0  0  0  0  0  0  0  0  0
  -10.8563   -2.8037    0.0000 O   0  0  0  0  0  0  0  0  0  0  0  0
  -12.8925    1.1974    0.0000 C   0  0  0  0  0  0  0  0  0  0  0  0
  -12.7437    2.2808    0.0000 O   0  0  0  0  0  0  0  0  0  0  0  0
  -11.5203    0.5917    0.0000 N   0  0  0  0  0  0  0  0  0  0  0  0
  -10.3095    1.4772    0.0000 C   0  0  0  0  0  0  0  0  0  0  0  0
   -9.4747    2.7235    0.0000 C   0  0  0  0  0  0  0  0  0  0  0  0
   -7.9780    2.6236    0.0000 C   0  0  0  0  0  0  0  0  0  0  0  0
   -7.1432    3.8698    0.0000 C   0  0  0  0  0  0  0  0  0  0  0  0
   -6.6058    2.0178    0.0000 C   0  0  0  0  0  0  0  0  0  0  0  0
   -8.9373    0.8715    0.0000 C   0  0  0  0  0  0  0  0  0  0  0  0
   -8.7757   -0.6198    0.0000 O   0  0  0  0  0  0  0  0  0  0  0  0
   -7.7266    1.7570    0.0000 N   0  0  0  0  0  0  0  0  0  0  0  0
   -6.3543    1.1513    0.0000 C   0  0  0  0  0  0  0  0  0  0  0  0
   -5.2720    0.1127    0.0000 C   0  0  0  0  0  0  0  0  0  0  0  0
   -5.8051   -1.2893    0.0000 C   0  0  0  0  0  0  0  0  0  0  0  0
   -3.8997   -0.4930    0.0000 C   0  0  0  0  0  0  0  0  0  0  0  0
   -3.7382   -1.9843    0.0000 C   0  0  0  0  0  0  0  0  0  0  0  0
   -5.1436    2.0368    0.0000 C   0  0  0  0  0  0  0  0  0  0  0  0
   -5.1222    3.5367    0.0000 O   0  0  0  0  0  0  0  0  0  0  0  0
   -3.7714    1.4311    0.0000 N   0  0  0  0  0  0  0  0  0  0  0  0
   -2.5606    2.3166    0.0000 C   0  0  0  0  0  0  0  0  0  0  0  0
   -1.7258    3.5628    0.0000 C   0  0  0  0  0  0  0  0  0  0  0  0
   -0.2291    3.4630    0.0000 C   0  0  0  0  0  0  0  0  0  0  0  0
    0.6057    4.7092    0.0000 C   0  0  0  0  0  0  0  0  0  0  0  0
    1.8188    4.7767    0.0000 O   0  0  0  0  0  0  0  0  0  0  0  0
   -0.0561    6.0553    0.0000 O   0  0  0  0  0  0  0  0  0  0  0  0
   -1.1884    1.7109    0.0000 C   0  0  0  0  0  0  0  0  0  0  0  0
   -1.0268    0.2196    0.0000 O   0  0  0  0  0  0  0  0  0  0  0  0
    0.0223    2.5964    0.0000 N   0  0  0  0  0  0  0  0  0  0  0  0
    1.3946    1.9907    0.0000 C   0  0  0  0  0  0  0  0  0  0  0  0
    2.4769    0.9521    0.0000 C   0  0  0  0  0  0  0  0  0  0  0  0
    2.1187   -0.5045    0.0000 C   0  0  0  0  0  0  0  0  0  0  0  0
    3.2010   -1.5430    0.0000 C   0  0  0  0  0  0  0  0  0  0  0  0
    2.8427   -2.9996    0.0000 O   0  0  0  0  0  0  0  0  0  0  0  0
    4.6415   -1.1250    0.0000 O   0  0  0  0  0  0  0  0  0  0  0  0
    2.6053    2.8762    0.0000 C   0  0  0  0  0  0  0  0  0  0  0  0
    2.6227    4.0911    0.0000 O   0  0  0  0  0  0  0  0  0  0  0  0
    3.9775    2.2705    0.0000 N   0  0  0  0  0  0  0  0  0  0  0  0
    5.1883    3.1560    0.0000 C   0  0  0  0  0  0  0  0  0  0  0  0
    6.0231    4.4022    0.0000 C   0  0  0  0  0  0  0  0  0  0  0  0
    7.5198    4.3023    0.0000 C   0  0  0  0  0  0  0  0  0  0  0  0
    8.3546    5.5485    0.0000 C   0  0  0  0  0  0  0  0  0  0  0  0
    8.9978    4.0466    0.0000 C   0  0  0  0  0  0  0  0  0  0  0  0
    6.5605    2.5502    0.0000 C   0  0  0  0  0  0  0  0  0  0  0  0
    6.5391    1.0504    0.0000 O   0  0  0  0  0  0  0  0  0  0  0  0
    7.7712    3.4358    0.0000 N   0  0  0  0  0  0  0  0  0  0  0  0
    9.1435    2.8300    0.0000 C   0  0  0  0  0  0  0  0  0  0  0  0
    9.5973    1.4003    0.0000 C   0  0  0  0  0  0  0  0  0  0  0  0
   10.4524    0.1679    0.0000 C   0  0  0  0  0  0  0  0  0  0  0  0
   11.6327   -0.7577    0.0000 C   0  0  0  0  0  0  0  0  0  0  0  0
   13.0335   -1.2943    0.0000 C   0  0  0  0  0  0  0  0  0  0  0  0
    7.9132    1.9719    0.0000 C   0  0  0  0  0  0  0  0  0  0  0  0
    9.1312    4.3300    0.0000 C   0  0  0  0  0  0  0  0  0  0  0  0
    7.8207    5.0597    0.0000 O   0  0  0  0  0  0  0  0  0  0  0  0
    9.5616    5.7669    0.0000 N   0  0  0  0  0  0  0  0  0  0  0  0
   10.3965    7.0131    0.0000 C   0  0  0  0  0  0  0  0  0  0  0  0
   10.0145    8.4637    0.0000 C   0  0  0  0  0  0  0  0  0  0  0  0
    8.5673    8.8581    0.0000 C   0  0  0  0  0  0  0  0  0  0  0  0
    8.1853   10.3087    0.0000 N   0  0  0  0  0  0  0  0  0  0  0  0
    7.5021    7.8020    0.0000 O   0  0  0  0  0  0  0  0  0  0  0  0
   11.5615    7.9579    0.0000 C   0  0  0  0  0  0  0  0  0  0  0  0
   10.8010    9.2508    0.0000 O   0  0  0  0  0  0  0  0  0  0  0  0
   12.9533    8.5173    0.0000 N   0  0  0  0  0  0  0  0  0  0  0  0
   14.4482    8.6416    0.0000 C   0  0  0  0  0  0  0  0  0  0  0  0
   15.3441    9.8447    0.0000 C   0  0  0  0  0  0  0  0  0  0  0  0
   14.5867   11.1394    0.0000 C   0  0  0  0  0  0  0  0  0  0  0  0
   16.5974   10.6688    0.0000 C   0  0  0  0  0  0  0  0  0  0  0  0
   16.5104   12.1662    0.0000 C   0  0  0  0  0  0  0  0  0  0  0  0
   15.9132    8.3198    0.0000 C   0  0  0  0  0  0  0  0  0  0  0  0
   16.6166    9.6447    0.0000 O   0  0  0  0  0  0  0  0  0  0  0  0
   17.2184    7.5804    0.0000 N   0  0  0  0  0  0  0  0  0  0  0  0
   18.2476    6.4892    0.0000 C   0  0  0  0  0  0  0  0  0  0  0  0
   19.7467    6.5389    0.0000 C   0  0  0  0  0  0  0  0  0  0  0  0
   21.1725    6.0728    0.0000 O   0  0  0  0  0  0  0  0  0  0  0  0
   20.4533    7.8620    0.0000 C   0  0  0  0  0  0  0  0  0  0  0  0
   18.9094    5.1431    0.0000 C   0  0  0  0  0  0  0  0  0  0  0  0
   20.3391    5.5969    0.0000 O   0  0  0  0  0  0  0  0  0  0  0  0
   19.1451    3.6618    0.0000 N   0  0  0  0  0  0  0  0  0  0  0  0
   18.9336    2.1767    0.0000 C   0  0  0  0  0  0  0  0  0  0  0  0
   18.2939    0.8200    0.0000 C   0  0  0  0  0  0  0  0  0  0  0  0
   17.2826   -0.2879    0.0000 C   0  0  0  0  0  0  0  0  0  0  0  0
   15.9898   -1.0485    0.0000 C   0  0  0  0  0  0  0  0  0  0  0  0
   14.5301   -1.3942    0.0000 C   0  0  0  0  0  0  0  0  0  0  0  0
   20.3742    2.5948    0.0000 C   0  0  0  0  0  0  0  0  0  0  0  0
   19.9072    1.0356    0.0000 C   0  0  0  0  0  0  0  0  0  0  0  0
   19.7626   -0.4574    0.0000 O   0  0  0  0  0  0  0  0  0  0  0  0
   21.3822    1.3081    0.0000 N   0  0  0  0  0  0  0  0  0  0  0  0
   22.3557    0.1670    0.0000 C   0  0  0  0  0  0  0  0  0  0  0  0
   22.8803   -1.2383    0.0000 C   0  0  0  0  0  0  0  0  0  0  0  0
   21.9255   -2.3953    0.0000 C   0  0  0  0  0  0  0  0  0  0  0  0
   22.4500   -3.8006    0.0000 N   0  0  0  0  0  0  0  0  0  0  0  0
   20.4462   -2.1469    0.0000 O   0  0  0  0  0  0  0  0  0  0  0  0
   23.8308    0.4395    0.0000 C   0  0  0  0  0  0  0  0  0  0  0  0
   24.3323    1.8532    0.0000 O   0  0  0  0  0  0  0  0  0  0  0  0
   24.8043   -0.7017    0.0000 N   0  0  0  0  0  0  0  0  0  0  0  0
   26.2793   -0.4291    0.0000 C   0  0  0  0  0  0  0  0  0  0  0  0
   27.5722    0.3314    0.0000 C   0  0  0  0  0  0  0  0  0  0  0  0
   28.8773   -0.4079    0.0000 C   0  0  0  0  0  0  0  0  0  0  0  0
   30.1702    0.3527    0.0000 C   0  0  0  0  0  0  0  0  0  0  0  0
   31.5557   -0.2221    0.0000 N   0  0  0  0  0  0  0  0  0  0  0  0
   30.1580    1.8526    0.0000 O   0  0  0  0  0  0  0  0  0  0  0  0
   27.2529   -1.5703    0.0000 C   0  0  0  0  0  0  0  0  0  0  0  0
   26.7514   -2.9840    0.0000 O   0  0  0  0  0  0  0  0  0  0  0  0
   28.7279   -1.2978    0.0000 N   0  0  0  0  0  0  0  0  0  0  0  0
   29.7014   -2.4389    0.0000 C   0  0  0  0  0  0  0  0  0  0  0  0
   30.2260   -3.8442    0.0000 C   0  0  0  0  0  0  0  0  0  0  0  0
   29.2712   -5.0011    0.0000 C   0  0  0  0  0  0  0  0  0  0  0  0
   29.7957   -6.4064    0.0000 C   0  0  0  0  0  0  0  0  0  0  0  0
   28.8410   -7.5633    0.0000 C   0  0  0  0  0  0  0  0  0  0  0  0
   29.3655   -8.9686    0.0000 N   0  0  0  0  0  0  0  0  0  0  0  0
   31.1765   -2.1664    0.0000 C   0  0  0  0  0  0  0  0  0  0  0  0
   31.8466   -0.8244    0.0000 O   0  0  0  0  0  0  0  0  0  0  0  0
   32.1500   -3.3075    0.0000 N   0  0  0  0  0  0  0  0  0  0  0  0
   33.6251   -3.0350    0.0000 C   0  0  0  0  0  0  0  0  0  0  0  0
   34.8156   -2.1225    0.0000 C   0  0  0  0  0  0  0  0  0  0  0  0
   34.5986   -4.1762    0.0000 C   0  0  0  0  0  0  0  0  0  0  0  0
   34.0971   -5.5898    0.0000 O   0  0  0  0  0  0  0  0  0  0  0  0
   36.0736   -3.9036    0.0000 N   0  0  0  0  0  0  0  0  0  0  0  0
   36.7201   -2.5501    0.0000 C   0  0  0  0  0  0  0  0  0  0  0  0
   38.2072   -2.7467    0.0000 C   0  0  0  0  0  0  0  0  0  0  0  0
   38.4797   -4.2218    0.0000 C   0  0  0  0  0  0  0  0  0  0  0  0
   37.1611   -4.9368    0.0000 C   0  0  0  0  0  0  0  0  0  0  0  0
   38.0100   -6.1734    0.0000 C   0  0  0  0  0  0  0  0  0  0  0  0
   39.5086   -6.2397    0.0000 O   0  0  0  0  0  0  0  0  0  0  0  0
   37.3635   -7.5270    0.0000 N   0  0  0  0  0  0  0  0  0  0  0  0
   38.2124   -8.7636    0.0000 C   0  0  0  0  0  0  0  0  0  0  0  0
   39.4331   -9.6354    0.0000 C   0  0  0  0  0  0  0  0  0  0  0  0
   39.2885  -11.1284    0.0000 C   0  0  0  0  0  0  0  0  0  0  0  0
   40.5092  -12.0001    0.0000 C   0  0  0  0  0  0  0  0  0  0  0  0
   38.6420  -12.4819    0.0000 C   0  0  0  0  0  0  0  0  0  0  0  0
   37.5659  -10.1171    0.0000 C   0  0  0  0  0  0  0  0  0  0  0  0
   38.2577  -11.4481    0.0000 O   0  0  0  0  0  0  0  0  0  0  0  0
   36.0705  -10.2340    0.0000 O   0  0  0  0  0  0  0  0  0  0  0  0
  -42.1737   -4.2263    0.0000 H   0  0  0  0  0  0  0  0  0  0  0  0
  -42.8389    0.2168    0.0000 H   0  0  0  0  0  0  0  0  0  0  0  0
  -45.5834    1.4282    0.0000 H   0  0  0  0  0  0  0  0  0  0  0  0
  -44.5812   -4.4535    0.0000 H   0  0  0  0  0  0  0  0  0  0  0  0
  -51.3040   -6.9268    0.0000 H   0  0  0  0  0  0  0  0  0  0  0  0
  -52.9255   -1.9901    0.0000 H   0  0  0  0  0  0  0  0  0  0  0  0
  -50.0752   -1.0540    0.0000 H   0  0  0  0  0  0  0  0  0  0  0  0
  -54.6578   -3.9264    0.0000 H   0  0  0  0  0  0  0  0  0  0  0  0
  -44.9892   -2.1182    0.0000 H   0  0  0  0  0  0  0  0  0  0  0  0
  -42.7070   -4.2957    0.0000 H   0  0  0  0  0  0  0  0  0  0  0  0
  -46.2180   -7.9910    0.0000 H   0  0  0  0  0  0  0  0  0  0  0  0
  -43.6750   -8.5231    0.0000 H   0  0  0  0  0  0  0  0  0  0  0  0
  -39.7713   -3.9773    0.0000 H   0  0  0  0  0  0  0  0  0  0  0  0
  -37.8873   -0.3543    0.0000 H   0  0  0  0  0  0  0  0  0  0  0  0
  -39.8045   -0.5619    0.0000 H   0  0  0  0  0  0  0  0  0  0  0  0
  -36.2676   -3.2448    0.0000 H   0  0  0  0  0  0  0  0  0  0  0  0
  -38.1847   -3.4524    0.0000 H   0  0  0  0  0  0  0  0  0  0  0  0
  -34.6054   -3.4177    0.0000 H   0  0  0  0  0  0  0  0  0  0  0  0
  -34.6386   -0.0023    0.0000 H   0  0  0  0  0  0  0  0  0  0  0  0
  -32.3632    1.6619    0.0000 H   0  0  0  0  0  0  0  0  0  0  0  0
  -34.0937    0.8111    0.0000 H   0  0  0  0  0  0  0  0  0  0  0  0
  -30.3899    1.3517    0.0000 H   0  0  0  0  0  0  0  0  0  0  0  0
  -30.9518    0.7388    0.0000 H   0  0  0  0  0  0  0  0  0  0  0  0
  -30.5815   -2.5020    0.0000 H   0  0  0  0  0  0  0  0  0  0  0  0
  -27.4071   -1.3982    0.0000 H   0  0  0  0  0  0  0  0  0  0  0  0
  -26.8043   -4.4716    0.0000 H   0  0  0  0  0  0  0  0  0  0  0  0
  -27.9293   -5.0247    0.0000 H   0  0  0  0  0  0  0  0  0  0  0  0
  -29.7118   -5.1082    0.0000 H   0  0  0  0  0  0  0  0  0  0  0  0
  -30.3128   -3.4280    0.0000 H   0  0  0  0  0  0  0  0  0  0  0  0
  -26.6759   -2.5475    0.0000 H   0  0  0  0  0  0  0  0  0  0  0  0
  -26.8897    0.8370    0.0000 H   0  0  0  0  0  0  0  0  0  0  0  0
  -23.5395    1.4879    0.0000 H   0  0  0  0  0  0  0  0  0  0  0  0
  -24.6143    2.5013    0.0000 H   0  0  0  0  0  0  0  0  0  0  0  0
  -26.3448    1.6504    0.0000 H   0  0  0  0  0  0  0  0  0  0  0  0
  -23.2029    1.5781    0.0000 H   0  0  0  0  0  0  0  0  0  0  0  0
  -22.8326   -1.6626    0.0000 H   0  0  0  0  0  0  0  0  0  0  0  0
  -19.3975   -2.1718    0.0000 H   0  0  0  0  0  0  0  0  0  0  0  0
  -19.6582   -0.5588    0.0000 H   0  0  0  0  0  0  0  0  0  0  0  0
  -22.5639   -2.5887    0.0000 H   0  0  0  0  0  0  0  0  0  0  0  0
  -20.2238   -5.5506    0.0000 H   0  0  0  0  0  0  0  0  0  0  0  0
  -18.6735   -4.6669    0.0000 H   0  0  0  0  0  0  0  0  0  0  0  0
  -19.0652   -2.9260    0.0000 H   0  0  0  0  0  0  0  0  0  0  0  0
  -21.4701   -5.6856    0.0000 H   0  0  0  0  0  0  0  0  0  0  0  0
  -23.1736   -5.1544    0.0000 H   0  0  0  0  0  0  0  0  0  0  0  0
  -23.0452   -3.2303    0.0000 H   0  0  0  0  0  0  0  0  0  0  0  0
  -18.9270   -1.7081    0.0000 H   0  0  0  0  0  0  0  0  0  0  0  0
  -19.1408    1.6764    0.0000 H   0  0  0  0  0  0  0  0  0  0  0  0
  -17.0456    3.3735    0.0000 H   0  0  0  0  0  0  0  0  0  0  0  0
  -18.5959    2.4898    0.0000 H   0  0  0  0  0  0  0  0  0  0  0  0
  -14.3547    1.1785    0.0000 H   0  0  0  0  0  0  0  0  0  0  0  0
  -15.3593    0.3300    0.0000 H   0  0  0  0  0  0  0  0  0  0  0  0
  -14.5339    4.4870    0.0000 H   0  0  0  0  0  0  0  0  0  0  0  0
  -16.1803    3.7989    0.0000 H   0  0  0  0  0  0  0  0  0  0  0  0
  -12.4275    1.7846    0.0000 H   0  0  0  0  0  0  0  0  0  0  0  0
  -10.2291    5.3231    0.0000 H   0  0  0  0  0  0  0  0  0  0  0  0
  -10.5491    2.6560    0.0000 H   0  0  0  0  0  0  0  0  0  0  0  0
  -12.3876    6.7691    0.0000 H   0  0  0  0  0  0  0  0  0  0  0  0
  -14.7191    5.6227    0.0000 H   0  0  0  0  0  0  0  0  0  0  0  0
  -15.2714    2.4037    0.0000 H   0  0  0  0  0  0  0  0  0  0  0  0
  -15.0837   -0.8233    0.0000 H   0  0  0  0  0  0  0  0  0  0  0  0
  -11.7327   -1.4951    0.0000 H   0  0  0  0  0  0  0  0  0  0  0  0
  -11.9093    0.2805    0.0000 H   0  0  0  0  0  0  0  0  0  0  0  0
  -14.2140   -3.4294    0.0000 H   0  0  0  0  0  0  0  0  0  0  0  0
  -14.8150   -1.7493    0.0000 H   0  0  0  0  0  0  0  0  0  0  0  0
  -11.1781   -0.8688    0.0000 H   0  0  0  0  0  0  0  0  0  0  0  0
  -11.3919    2.5158    0.0000 H   0  0  0  0  0  0  0  0  0  0  0  0
   -9.2967    4.2129    0.0000 H   0  0  0  0  0  0  0  0  0  0  0  0
  -10.9528    2.9791    0.0000 H   0  0  0  0  0  0  0  0  0  0  0  0
   -7.6104    1.1693    0.0000 H   0  0  0  0  0  0  0  0  0  0  0  0
   -5.6668    4.1350    0.0000 H   0  0  0  0  0  0  0  0  0  0  0  0
   -6.7850    5.3264    0.0000 H   0  0  0  0  0  0  0  0  0  0  0  0
   -8.4314    4.6383    0.0000 H   0  0  0  0  0  0  0  0  0  0  0  0
   -6.0882    0.6100    0.0000 H   0  0  0  0  0  0  0  0  0  0  0  0
   -5.1728    2.4611    0.0000 H   0  0  0  0  0  0  0  0  0  0  0  0
   -6.0727    3.4199    0.0000 H   0  0  0  0  0  0  0  0  0  0  0  0
   -7.5225    3.2431    0.0000 H   0  0  0  0  0  0  0  0  0  0  0  0
   -7.3348    0.0161    0.0000 H   0  0  0  0  0  0  0  0  0  0  0  0
   -4.0459    0.9769    0.0000 H   0  0  0  0  0  0  0  0  0  0  0  0
   -4.6905   -2.5275    0.0000 H   0  0  0  0  0  0  0  0  0  0  0  0
   -6.4651   -2.5901    0.0000 H   0  0  0  0  0  0  0  0  0  0  0  0
   -7.0661   -0.9099    0.0000 H   0  0  0  0  0  0  0  0  0  0  0  0
   -2.4031   -0.5929    0.0000 H   0  0  0  0  0  0  0  0  0  0  0  0
   -3.1997    0.8336    0.0000 H   0  0  0  0  0  0  0  0  0  0  0  0
   -2.3660   -2.5900    0.0000 H   0  0  0  0  0  0  0  0  0  0  0  0
   -4.0965   -3.4409    0.0000 H   0  0  0  0  0  0  0  0  0  0  0  0
   -5.2146   -2.2495    0.0000 H   0  0  0  0  0  0  0  0  0  0  0  0
   -3.2538    0.0232    0.0000 H   0  0  0  0  0  0  0  0  0  0  0  0
   -3.6430    3.3552    0.0000 H   0  0  0  0  0  0  0  0  0  0  0  0
   -1.3676    5.0194    0.0000 H   0  0  0  0  0  0  0  0  0  0  0  0
   -3.0981    4.1686    0.0000 H   0  0  0  0  0  0  0  0  0  0  0  0
    1.1431    2.8572    0.0000 H   0  0  0  0  0  0  0  0  0  0  0  0
    0.1385    2.0087    0.0000 H   0  0  0  0  0  0  0  0  0  0  0  0
    0.2264    4.0824    0.0000 H   0  0  0  0  0  0  0  0  0  0  0  0
    0.4141    0.8555    0.0000 H   0  0  0  0  0  0  0  0  0  0  0  0
    3.7651    0.1836    0.0000 H   0  0  0  0  0  0  0  0  0  0  0  0
    3.5885    1.9593    0.0000 H   0  0  0  0  0  0  0  0  0  0  0  0
    1.2838   -1.7507    0.0000 H   0  0  0  0  0  0  0  0  0  0  0  0
    0.6828   -0.0705    0.0000 H   0  0  0  0  0  0  0  0  0  0  0  0
    4.3197    0.8100    0.0000 H   0  0  0  0  0  0  0  0  0  0  0  0
    4.1059    4.1945    0.0000 H   0  0  0  0  0  0  0  0  0  0  0  0
    6.2011    5.8916    0.0000 H   0  0  0  0  0  0  0  0  0  0  0  0
    4.6508    5.0079    0.0000 H   0  0  0  0  0  0  0  0  0  0  0  0
    7.7074    2.8141    0.0000 H   0  0  0  0  0  0  0  0  0  0  0  0
    9.7876    5.9918    0.0000 H   0  0  0  0  0  0  0  0  0  0  0  0
    8.3497    7.0485    0.0000 H   0  0  0  0  0  0  0  0  0  0  0  0
    7.0664    6.3170    0.0000 H   0  0  0  0  0  0  0  0  0  0  0  0
    9.4975    2.2735    0.0000 H   0  0  0  0  0  0  0  0  0  0  0  0
   10.3887    3.5967    0.0000 H   0  0  0  0  0  0  0  0  0  0  0  0
    9.1135    5.1757    0.0000 H   0  0  0  0  0  0  0  0  0  0  0  0
    7.7927    4.9356    0.0000 H   0  0  0  0  0  0  0  0  0  0  0  0
    8.0973    1.3918    0.0000 H   0  0  0  0  0  0  0  0  0  0  0  0
    8.8256    0.1141    0.0000 H   0  0  0  0  0  0  0  0  0  0  0  0
    9.0871   -0.4534    0.0000 H   0  0  0  0  0  0  0  0  0  0  0  0
    9.9193   -1.2341    0.0000 H   0  0  0  0  0  0  0  0  0  0  0  0
   10.3982   -1.6097    0.0000 H   0  0  0  0  0  0  0  0  0  0  0  0
   11.7197   -2.2552    0.0000 H   0  0  0  0  0  0  0  0  0  0  0  0
   12.7116   -2.7594    0.0000 H   0  0  0  0  0  0  0  0  0  0  0  0
    7.9337    0.3061    0.0000 H   0  0  0  0  0  0  0  0  0  0  0  0
    6.7304    1.1184    0.0000 H   0  0  0  0  0  0  0  0  0  0  0  0
    6.8745    2.7835    0.0000 H   0  0  0  0  0  0  0  0  0  0  0  0
    8.2930    6.5673    0.0000 H   0  0  0  0  0  0  0  0  0  0  0  0
    8.9585    7.4400    0.0000 H   0  0  0  0  0  0  0  0  0  0  0  0
   10.1516    9.9574    0.0000 H   0  0  0  0  0  0  0  0  0  0  0  0
   11.4348    8.9460    0.0000 H   0  0  0  0  0  0  0  0  0  0  0  0
    6.7381   10.7031    0.0000 H   0  0  0  0  0  0  0  0  0  0  0  0
    9.2505   11.3648    0.0000 H   0  0  0  0  0  0  0  0  0  0  0  0
   12.6076    9.9769    0.0000 H   0  0  0  0  0  0  0  0  0  0  0  0
   13.5656    9.8545    0.0000 H   0  0  0  0  0  0  0  0  0  0  0  0
   16.6067    9.0349    0.0000 H   0  0  0  0  0  0  0  0  0  0  0  0
   15.4814   12.5447    0.0000 H   0  0  0  0  0  0  0  0  0  0  0  0
   13.7209   12.3133    0.0000 H   0  0  0  0  0  0  0  0  0  0  0  0
   13.4057   10.5569    0.0000 H   0  0  0  0  0  0  0  0  0  0  0  0
   18.0570   11.0145    0.0000 H   0  0  0  0  0  0  0  0  0  0  0  0
   17.3548    9.3740    0.0000 H   0  0  0  0  0  0  0  0  0  0  0  0
   17.7638   12.9903    0.0000 H   0  0  0  0  0  0  0  0  0  0  0  0
   15.9165   13.5436    0.0000 H   0  0  0  0  0  0  0  0  0  0  0  0
   15.0105   12.1840    0.0000 H   0  0  0  0  0  0  0  0  0  0  0  0
   18.1440    8.7608    0.0000 H   0  0  0  0  0  0  0  0  0  0  0  0
   18.6456    7.9354    0.0000 H   0  0  0  0  0  0  0  0  0  0  0  0
   19.9009    5.0468    0.0000 H   0  0  0  0  0  0  0  0  0  0  0  0
   22.4028    6.9309    0.0000 H   0  0  0  0  0  0  0  0  0  0  0  0
   21.9353    8.0940    0.0000 H   0  0  0  0  0  0  0  0  0  0  0  0
   20.6648    9.3470    0.0000 H   0  0  0  0  0  0  0  0  0  0  0  0
   19.0950    8.4984    0.0000 H   0  0  0  0  0  0  0  0  0  0  0  0
   20.6450    3.6740    0.0000 H   0  0  0  0  0  0  0  0  0  0  0  0
   18.8878   -0.5574    0.0000 H   0  0  0  0  0  0  0  0  0  0  0  0
   19.7430    0.4327    0.0000 H   0  0  0  0  0  0  0  0  0  0  0  0
   17.6247   -1.7483    0.0000 H   0  0  0  0  0  0  0  0  0  0  0  0
   18.5532   -1.0851    0.0000 H   0  0  0  0  0  0  0  0  0  0  0  0
   15.7046   -2.5211    0.0000 H   0  0  0  0  0  0  0  0  0  0  0  0
   17.1001   -2.0570    0.0000 H   0  0  0  0  0  0  0  0  0  0  0  0
   14.6544   -2.8890    0.0000 H   0  0  0  0  0  0  0  0  0  0  0  0
   21.6757    1.8490    0.0000 H   0  0  0  0  0  0  0  0  0  0  0  0
   21.4679    3.6213    0.0000 H   0  0  0  0  0  0  0  0  0  0  0  0
   20.0578    4.0610    0.0000 H   0  0  0  0  0  0  0  0  0  0  0  0
   22.0523    2.6501    0.0000 H   0  0  0  0  0  0  0  0  0  0  0  0
   21.0629   -0.5936    0.0000 H   0  0  0  0  0  0  0  0  0  0  0  0
   23.7074   -2.4897    0.0000 H   0  0  0  0  0  0  0  0  0  0  0  0
   24.3188   -0.8132    0.0000 H   0  0  0  0  0  0  0  0  0  0  0  0
   21.4953   -4.9575    0.0000 H   0  0  0  0  0  0  0  0  0  0  0  0
   23.9293   -4.0490    0.0000 H   0  0  0  0  0  0  0  0  0  0  0  0
   24.4789   -2.1659    0.0000 H   0  0  0  0  0  0  0  0  0  0  0  0
   25.7548    0.9762    0.0000 H   0  0  0  0  0  0  0  0  0  0  0  0
   28.5270    1.4883    0.0000 H   0  0  0  0  0  0  0  0  0  0  0  0
   26.5987    1.4726    0.0000 H   0  0  0  0  0  0  0  0  0  0  0  0
   29.8509   -1.5491    0.0000 H   0  0  0  0  0  0  0  0  0  0  0  0
   28.5776   -1.8777    0.0000 H   0  0  0  0  0  0  0  0  0  0  0  0
   32.7682    0.3739    0.0000 H   0  0  0  0  0  0  0  0  0  0  0  0
   31.8924   -1.8537    0.0000 H   0  0  0  0  0  0  0  0  0  0  0  0
   29.5566   -0.0474    0.0000 H   0  0  0  0  0  0  0  0  0  0  0  0
   28.3255   -3.0362    0.0000 H   0  0  0  0  0  0  0  0  0  0  0  0
   31.1995   -4.9854    0.0000 H   0  0  0  0  0  0  0  0  0  0  0  0
   31.6645   -3.4191    0.0000 H   0  0  0  0  0  0  0  0  0  0  0  0
   27.8953   -5.5984    0.0000 H   0  0  0  0  0  0  0  0  0  0  0  0
   28.1658   -3.9872    0.0000 H   0  0  0  0  0  0  0  0  0  0  0  0
   30.9011   -7.4204    0.0000 H   0  0  0  0  0  0  0  0  0  0  0  0
   31.1717   -5.8091    0.0000 H   0  0  0  0  0  0  0  0  0  0  0  0
   27.5481   -8.3239    0.0000 H   0  0  0  0  0  0  0  0  0  0  0  0
   27.7356   -6.5494    0.0000 H   0  0  0  0  0  0  0  0  0  0  0  0
   28.4107  -10.1255    0.0000 H   0  0  0  0  0  0  0  0  0  0  0  0
   30.3390  -10.1098    0.0000 H   0  0  0  0  0  0  0  0  0  0  0  0
   30.7414   -8.3713    0.0000 H   0  0  0  0  0  0  0  0  0  0  0  0
   31.8246   -4.7718    0.0000 H   0  0  0  0  0  0  0  0  0  0  0  0
   33.1005   -1.6297    0.0000 H   0  0  0  0  0  0  0  0  0  0  0  0
   36.4174   -2.3144    0.0000 H   0  0  0  0  0  0  0  0  0  0  0  0
   35.8727   -1.1175    0.0000 H   0  0  0  0  0  0  0  0  0  0  0  0
   33.9444   -1.1333    0.0000 H   0  0  0  0  0  0  0  0  0  0  0  0
   35.3781   -1.8800    0.0000 H   0  0  0  0  0  0  0  0  0  0  0  0
   37.0711   -1.0918    0.0000 H   0  0  0  0  0  0  0  0  0  0  0  0
   38.2473   -1.2473    0.0000 H   0  0  0  0  0  0  0  0  0  0  0  0
   39.7026   -2.6299    0.0000 H   0  0  0  0  0  0  0  0  0  0  0  0
   39.9182   -3.7966    0.0000 H   0  0  0  0  0  0  0  0  0  0  0  0
   39.2177   -5.5277    0.0000 H   0  0  0  0  0  0  0  0  0  0  0  0
   36.0200   -5.9103    0.0000 H   0  0  0  0  0  0  0  0  0  0  0  0
   35.8681   -7.6438    0.0000 H   0  0  0  0  0  0  0  0  0  0  0  0
   39.2829   -7.7129    0.0000 H   0  0  0  0  0  0  0  0  0  0  0  0
   40.9165   -9.8579    0.0000 H   0  0  0  0  0  0  0  0  0  0  0  0
   40.0796   -8.2818    0.0000 H   0  0  0  0  0  0  0  0  0  0  0  0
   37.7953  -11.2714    0.0000 H   0  0  0  0  0  0  0  0  0  0  0  0
   40.5477  -13.4996    0.0000 H   0  0  0  0  0  0  0  0  0  0  0  0
   41.9544  -12.4018    0.0000 H   0  0  0  0  0  0  0  0  0  0  0  0
   41.3159  -10.7355    0.0000 H   0  0  0  0  0  0  0  0  0  0  0  0
   39.3338  -13.8128    0.0000 H   0  0  0  0  0  0  0  0  0  0  0  0
   37.5715  -13.5327    0.0000 H   0  0  0  0  0  0  0  0  0  0  0  0
   37.4213  -11.6102    0.0000 H   0  0  0  0  0  0  0  0  0  0  0  0
  1  2  1  0
  2  3  1  0
  3  4  2  0
  4  5  1  0
  5  6  2  0
  6  7  1  0
  7  8  2  0
  7  9  1  0
  9 10  1  0
 10 11  1  0
 11 12  2  0
  9 13  1  0
 13 14  1  0
 14 15  2  0
 15 16  1  0
 16 17  2  0
 17 18  1  0
 16 19  1  0
 14 20  1  0
 20 21  1  0
 21 22  2  0
 22 23  1  0
 23 24  2  0
 24 25  1  0
 25 26  2  0
 25 27  1  0
  1 28  2  0
  1 29  1  0
 29 30  1  0
 30 31  1  0
 31 32  1  0
 32 33  2  0
 32 34  1  0
 34 35  1  0
 35 36  1  0
 36 37  1  0
 35 38  1  0
 38 39  2  0
 38 40  1  0
 40 41  1  0
 41 42  1  0
 42 43  1  0
 42 44  1  0
 41 45  1  0
 45 46  2  0
 45 47  1  0
 47 48  1  0
 48 49  1  0
 48 50  1  0
 50 51  2  0
 50 52  1  0
 52 53  1  0
 53 54  1  0
 54 55  1  0
 55 56  1  0
 55 57  1  0
 53 58  1  0
 58 59  2  0
 58 60  1  0
 60 61  1  0
 61 62  1  0
 62 63  1  0
 63 64  1  0
 64 65  1  0
 65 66  1  0
 66 67  2  3
 66 68  1  0
 61 69  1  0
 69 70  2  0
 69 71  1  0
 71 72  1  0
 72 73  1  0
 73 74  1  0
 74 75  1  0
 75 76  2  0
 75 77  1  0
 72 78  1  0
 78 79  2  0
 78 80  1  0
 80 81  1  0
 81 82  1  0
 82 83  1  0
 83 84  1  0
 83 85  1  0
 81 86  1  0
 86 87  2  0
 86 88  1  0
 88 89  1  0
 89 90  1  0
 90 91  1  0
 90 92  1  0
 92 93  1  0
 89 94  1  0
 94 95  2  0
 94 96  1  0
 96 97  1  0
 97 98  1  0
 98 99  1  0
 99100  1  0
100101  2  0
100102  1  0
 97103  1  0
103104  2  0
103105  1  0
105106  1  0
106107  1  0
107108  1  0
108109  1  0
109110  2  0
109111  1  0
106112  1  0
112113  2  0
112114  1  0
114115  1  0
115116  1  0
116117  1  0
117118  1  0
117119  1  0
115120  1  0
120121  2  0
120122  1  0
123122  1  6
123124  1  0
124125  1  0
125126  1  0
126127  1  0
123128  1  0
123129  1  0
129130  2  0
129131  1  0
131132  1  0
132133  1  0
133134  1  0
134135  1  0
134136  2  0
132137  1  0
137138  2  0
137139  1  0
139140  1  0
140141  1  0
141142  1  0
141143  1  0
143144  1  0
140145  1  0
145146  2  0
145147  1  0
147148  1  0
148149  1  0
149150  1  0
149151  1  0
148152  1  0
152153  2  0
152154  1  0
154155  1  0
155156  1  0
156157  1  0
157158  1  0
158159  1  0
155160  1  0
155161  1  6
161162  2  0
161163  1  0
163164  1  0
164165  1  0
165166  1  0
166167  1  0
166168  2  0
164169  1  0
169170  2  0
169171  1  0
171172  1  0
172173  1  0
173174  1  0
174175  1  0
175176  1  0
175177  2  0
172178  1  0
178179  2  0
178180  1  0
180181  1  0
181182  1  0
182183  1  0
183184  1  0
184185  1  0
185186  1  0
181187  1  0
187188  2  0
187189  1  0
189190  1  0
190191  1  0
190192  1  0
192193  2  0
192194  1  0
194195  1  0
195196  1  0
196197  1  0
197198  1  0
198199  1  0
199200  2  0
199201  1  0
201202  1  0
202203  1  0
203204  1  0
204205  1  0
204206  1  0
202207  1  0
207208  2  0
207209  1  0
  8  3  1  0
198194  1  0
 11  6  1  0
127159  2  0
 18 13  2  0
 22  9  1  0
 26 21  1  0
  2210  1  0
  4211  1  0
  5212  1  0
  8213  1  0
 15214  1  0
 17215  1  0
 18216  1  0
 19217  1  0
 23218  1  0
 24219  1  0
 26220  1  0
 27221  1  0
 29222  1  0
 30223  1  0
 30224  1  0
 31225  1  0
 31226  1  0
 34227  1  0
 35228  1  1
 36229  1  0
 36230  1  0
 37231  1  0
 40232  1  0
 41233  1  6
 42234  1  1
 43235  1  0
 44236  1  0
 44237  1  0
 44238  1  0
 47239  1  0
 48240  1  1
 49241  1  0
 49242  1  0
 49243  1  0
 52244  1  0
 53245  1  6
 54246  1  0
 54247  1  0
 55248  1  0
 56249  1  0
 56250  1  0
 56251  1  0
 57252  1  0
 57253  1  0
 57254  1  0
 60255  1  0
 61256  1  1
 62257  1  0
 62258  1  0
 63259  1  0
 63260  1  0
 64261  1  0
 64262  1  0
 65263  1  0
 67264  1  0
 67265  1  0
 68266  1  0
 68267  1  0
 71268  1  0
 72269  1  6
 73270  1  0
 73271  1  0
 74272  1  0
 74273  1  0
 80274  1  0
 81275  1  1
 82276  1  0
 82277  1  0
 83278  1  0
 84279  1  0
 84280  1  0
 84281  1  0
 85282  1  0
 85283  1  0
 85284  1  0
 88285  1  0
 89286  1  6
 90287  1  1
 91288  1  0
 91289  1  0
 91290  1  0
 92291  1  0
 92292  1  0
 93293  1  0
 93294  1  0
 93295  1  0
 96296  1  0
 97297  1  1
 98298  1  0
 98299  1  0
 99300  1  0
 99301  1  0
105302  1  0
106303  1  6
107304  1  0
107305  1  0
108306  1  0
108307  1  0
114308  1  0
115309  1  1
116310  1  0
116311  1  0
117312  1  0
118313  1  0
118314  1  0
118315  1  0
119316  1  0
119317  1  0
119318  1  0
122319  1  0
124320  1  0
124321  1  0
125322  1  0
125323  1  0
126324  1  0
126325  1  0
127326  1  0
128327  1  0
128328  1  0
128329  1  0
131330  1  0
132331  1  1
133332  1  0
133333  1  0
135334  1  0
135335  1  0
139336  1  0
140337  1  1
141338  1  6
142339  1  0
142340  1  0
142341  1  0
143342  1  0
143343  1  0
144344  1  0
144345  1  0
144346  1  0
147347  1  0
148348  1  1
149349  1  6
150350  1  0
151351  1  0
151352  1  0
151353  1  0
154354  1  0
156355  1  0
156356  1  0
157357  1  0
157358  1  0
158359  1  0
158360  1  0
159361  1  0
160362  1  0
160363  1  0
160364  1  0
163365  1  0
164366  1  6
165367  1  0
165368  1  0
167369  1  0
167370  1  0
171371  1  0
172372  1  1
173373  1  0
173374  1  0
174375  1  0
174376  1  0
176377  1  0
176378  1  0
180379  1  0
181380  1  6
182381  1  0
182382  1  0
183383  1  0
183384  1  0
184385  1  0
184386  1  0
185387  1  0
185388  1  0
186389  1  0
186390  1  0
186391  1  0
189392  1  0
190393  1  1
191394  1  0
191395  1  0
191396  1  0
195397  1  0
195398  1  0
196399  1  0
196400  1  0
197401  1  0
197402  1  0
198403  1  0
201404  1  0
202405  1  1
203406  1  0
203407  1  0
204408  1  0
205409  1  0
205410  1  0
205411  1  0
206412  1  0
206413  1  0
206414  1  0
M  CHG  6  67   1  77  -1 102  -1 111  -1 186   1 209  -1
M  END
