
     RDKit          2D

305307  0  0  0  0  0  0  0  0999 V2000
  -34.5483   10.6811    0.0000 N   0  0  0  0  0  0  0  0  0  0  0  0
  -33.0810   10.3698    0.0000 C   0  0  0  0  0  0  0  0  0  0  0  0
  -32.6170    8.9433    0.0000 C   0  0  0  0  0  0  0  0  0  0  0  0
  -31.1497    8.6320    0.0000 O   0  0  0  0  0  0  0  0  0  0  0  0
  -30.6856    7.2055    0.0000 C   0  0  0  0  0  0  0  0  0  0  0  0
  -29.2183    6.8942    0.0000 C   0  0  0  0  0  0  0  0  0  0  0  0
  -28.7543    5.4677    0.0000 O   0  0  0  0  0  0  0  0  0  0  0  0
  -27.2870    5.1564    0.0000 C   0  0  0  0  0  0  0  0  0  0  0  0
  -26.8230    3.7299    0.0000 C   0  0  0  0  0  0  0  0  0  0  0  0
  -25.3556    3.4186    0.0000 O   0  0  0  0  0  0  0  0  0  0  0  0
  -24.8916    1.9922    0.0000 C   0  0  0  0  0  0  0  0  0  0  0  0
  -23.4243    1.6808    0.0000 C   0  0  0  0  0  0  0  0  0  0  0  0
  -22.9603    0.2544    0.0000 O   0  0  0  0  0  0  0  0  0  0  0  0
  -21.4930   -0.0570    0.0000 C   0  0  0  0  0  0  0  0  0  0  0  0
  -21.0290   -1.4834    0.0000 C   0  0  0  0  0  0  0  0  0  0  0  0
  -19.5616   -1.7948    0.0000 O   0  0  0  0  0  0  0  0  0  0  0  0
  -19.0976   -3.2212    0.0000 C   0  0  0  0  0  0  0  0  0  0  0  0
  -17.6303   -3.5326    0.0000 C   0  0  0  0  0  0  0  0  0  0  0  0
  -17.1663   -4.9590    0.0000 O   0  0  0  0  0  0  0  0  0  0  0  0
  -15.6990   -5.2704    0.0000 C   0  0  0  0  0  0  0  0  0  0  0  0
  -15.2350   -6.6968    0.0000 C   0  0  0  0  0  0  0  0  0  0  0  0
  -13.7676   -7.0082    0.0000 C   0  0  0  0  0  0  0  0  0  0  0  0
  -12.7643   -5.8932    0.0000 O   0  0  0  0  0  0  0  0  0  0  0  0
  -13.3036   -8.4346    0.0000 N   0  0  0  0  0  0  0  0  0  0  0  0
  -11.8363   -8.7460    0.0000 C   0  0  0  0  0  0  0  0  0  0  0  0
  -12.3977  -10.1370    0.0000 C   0  0  0  0  0  0  0  0  0  0  0  0
  -13.8975  -10.1636    0.0000 C   0  0  0  0  0  0  0  0  0  0  0  0
  -12.4496  -11.6361    0.0000 C   0  0  0  0  0  0  0  0  0  0  0  0
  -13.7738  -12.3407    0.0000 C   0  0  0  0  0  0  0  0  0  0  0  0
  -10.3510   -8.5367    0.0000 C   0  0  0  0  0  0  0  0  0  0  0  0
   -9.5780   -9.8223    0.0000 O   0  0  0  0  0  0  0  0  0  0  0  0
   -9.7895   -7.1458    0.0000 N   0  0  0  0  0  0  0  0  0  0  0  0
   -8.3042   -6.9365    0.0000 C   0  0  0  0  0  0  0  0  0  0  0  0
   -8.3560   -8.4356    0.0000 C   0  0  0  0  0  0  0  0  0  0  0  0
   -7.0837   -9.2301    0.0000 C   0  0  0  0  0  0  0  0  0  0  0  0
   -7.1355  -10.7292    0.0000 C   0  0  0  0  0  0  0  0  0  0  0  0
   -5.8632  -11.5236    0.0000 N   0  0  0  0  0  0  0  0  0  0  0  0
   -8.4597  -11.4338    0.0000 O   0  0  0  0  0  0  0  0  0  0  0  0
   -6.9800   -6.2319    0.0000 C   0  0  0  0  0  0  0  0  0  0  0  0
   -5.7077   -7.0263    0.0000 O   0  0  0  0  0  0  0  0  0  0  0  0
   -6.9282   -4.7328    0.0000 N   0  0  0  0  0  0  0  0  0  0  0  0
   -5.6040   -4.0281    0.0000 C   0  0  0  0  0  0  0  0  0  0  0  0
   -6.5279   -2.8464    0.0000 C   0  0  0  0  0  0  0  0  0  0  0  0
   -8.0132   -3.0557    0.0000 C   0  0  0  0  0  0  0  0  0  0  0  0
   -9.0743   -1.9954    0.0000 O   0  0  0  0  0  0  0  0  0  0  0  0
   -8.7400   -4.3678    0.0000 O   0  0  0  0  0  0  0  0  0  0  0  0
   -4.1187   -3.8188    0.0000 C   0  0  0  0  0  0  0  0  0  0  0  0
   -3.7310   -2.3698    0.0000 O   0  0  0  0  0  0  0  0  0  0  0  0
   -3.1948   -5.0005    0.0000 N   0  0  0  0  0  0  0  0  0  0  0  0
   -1.7094   -4.7913    0.0000 C   0  0  0  0  0  0  0  0  0  0  0  0
   -0.6434   -5.8465    0.0000 C   0  0  0  0  0  0  0  0  0  0  0  0
    0.6031   -6.6809    0.0000 C   0  0  0  0  0  0  0  0  0  0  0  0
    1.9850   -7.2644    0.0000 C   0  0  0  0  0  0  0  0  0  0  0  0
    3.4523   -7.5757    0.0000 C   0  0  0  0  0  0  0  0  0  0  0  0
   -2.3516   -6.1469    0.0000 C   0  0  0  0  0  0  0  0  0  0  0  0
   -2.5565   -3.5534    0.0000 C   0  0  0  0  0  0  0  0  0  0  0  0
   -3.3268   -3.7587    0.0000 O   0  0  0  0  0  0  0  0  0  0  0  0
   -3.1540   -2.1775    0.0000 N   0  0  0  0  0  0  0  0  0  0  0  0
   -3.4803   -0.7134    0.0000 C   0  0  0  0  0  0  0  0  0  0  0  0
   -4.6472   -1.6559    0.0000 C   0  0  0  0  0  0  0  0  0  0  0  0
   -6.0469   -1.1166    0.0000 C   0  0  0  0  0  0  0  0  0  0  0  0
   -7.3200   -1.9099    0.0000 C   0  0  0  0  0  0  0  0  0  0  0  0
   -7.1778   -0.1311    0.0000 C   0  0  0  0  0  0  0  0  0  0  0  0
   -3.5237    0.7860    0.0000 C   0  0  0  0  0  0  0  0  0  0  0  0
   -4.9971    1.0670    0.0000 O   0  0  0  0  0  0  0  0  0  0  0  0
   -3.2825    2.2664    0.0000 N   0  0  0  0  0  0  0  0  0  0  0  0
   -2.7655    3.6745    0.0000 C   0  0  0  0  0  0  0  0  0  0  0  0
   -4.2567    3.5125    0.0000 C   0  0  0  0  0  0  0  0  0  0  0  0
   -1.9913    4.9593    0.0000 C   0  0  0  0  0  0  0  0  0  0  0  0
   -3.1967    5.8521    0.0000 O   0  0  0  0  0  0  0  0  0  0  0  0
   -0.9880    6.0744    0.0000 N   0  0  0  0  0  0  0  0  0  0  0  0
    0.2082    6.9794    0.0000 C   0  0  0  0  0  0  0  0  0  0  0  0
   -1.1339    7.6493    0.0000 C   0  0  0  0  0  0  0  0  0  0  0  0
   -1.2248    9.1465    0.0000 C   0  0  0  0  0  0  0  0  0  0  0  0
    0.0265    9.9739    0.0000 C   0  0  0  0  0  0  0  0  0  0  0  0
   -0.0644   11.4711    0.0000 C   0  0  0  0  0  0  0  0  0  0  0  0
   -1.4065   12.1410    0.0000 C   0  0  0  0  0  0  0  0  0  0  0  0
   -2.6577   11.3137    0.0000 C   0  0  0  0  0  0  0  0  0  0  0  0
   -2.5668    9.8164    0.0000 C   0  0  0  0  0  0  0  0  0  0  0  0
    1.5541    7.6417    0.0000 C   0  0  0  0  0  0  0  0  0  0  0  0
    1.1977    9.0987    0.0000 O   0  0  0  0  0  0  0  0  0  0  0  0
    3.0010    8.0373    0.0000 N   0  0  0  0  0  0  0  0  0  0  0  0
    4.4966    8.1519    0.0000 C   0  0  0  0  0  0  0  0  0  0  0  0
    3.7298    9.4411    0.0000 C   0  0  0  0  0  0  0  0  0  0  0  0
    4.4628   10.7498    0.0000 C   0  0  0  0  0  0  0  0  0  0  0  0
    5.9626   10.7693    0.0000 C   0  0  0  0  0  0  0  0  0  0  0  0
    6.6956   12.0780    0.0000 C   0  0  0  0  0  0  0  0  0  0  0  0
    5.9288   13.3672    0.0000 C   0  0  0  0  0  0  0  0  0  0  0  0
    4.4289   13.3476    0.0000 C   0  0  0  0  0  0  0  0  0  0  0  0
    3.6959   12.0389    0.0000 C   0  0  0  0  0  0  0  0  0  0  0  0
    5.9869    7.9814    0.0000 C   0  0  0  0  0  0  0  0  0  0  0  0
    6.4748    9.3999    0.0000 O   0  0  0  0  0  0  0  0  0  0  0  0
    7.4180    7.5320    0.0000 N   0  0  0  0  0  0  0  0  0  0  0  0
    8.7381    6.8199    0.0000 C   0  0  0  0  0  0  0  0  0  0  0  0
    8.7900    8.3190    0.0000 C   0  0  0  0  0  0  0  0  0  0  0  0
   10.1142    9.0236    0.0000 O   0  0  0  0  0  0  0  0  0  0  0  0
    9.8997    5.8707    0.0000 C   0  0  0  0  0  0  0  0  0  0  0  0
   10.9549    6.9368    0.0000 O   0  0  0  0  0  0  0  0  0  0  0  0
   10.8606    4.7189    0.0000 N   0  0  0  0  0  0  0  0  0  0  0  0
   11.5862    3.4061    0.0000 C   0  0  0  0  0  0  0  0  0  0  0  0
   12.4403    4.6392    0.0000 C   0  0  0  0  0  0  0  0  0  0  0  0
   13.9352    4.5161    0.0000 C   0  0  0  0  0  0  0  0  0  0  0  0
   14.7893    5.7492    0.0000 C   0  0  0  0  0  0  0  0  0  0  0  0
   16.2842    5.6261    0.0000 N   0  0  0  0  0  0  0  0  0  0  0  0
   17.1383    6.8592    0.0000 C   0  0  0  0  0  0  0  0  0  0  0  0
   18.6333    6.7361    0.0000 N   0  0  0  0  0  0  0  0  0  0  0  0
   16.4975    8.2154    0.0000 N   0  0  0  0  0  0  0  0  0  0  0  0
   12.0502    1.9797    0.0000 C   0  0  0  0  0  0  0  0  0  0  0  0
   13.5431    2.1251    0.0000 O   0  0  0  0  0  0  0  0  0  0  0  0
   12.2359    0.4912    0.0000 N   0  0  0  0  0  0  0  0  0  0  0  0
   12.1365   -1.0055    0.0000 C   0  0  0  0  0  0  0  0  0  0  0  0
   11.7556   -2.4563    0.0000 C   0  0  0  0  0  0  0  0  0  0  0  0
   11.1071   -3.8089    0.0000 C   0  0  0  0  0  0  0  0  0  0  0  0
   10.2143   -5.0143    0.0000 C   0  0  0  0  0  0  0  0  0  0  0  0
    9.1096   -6.0289    0.0000 C   0  0  0  0  0  0  0  0  0  0  0  0
    7.8327   -6.8161    0.0000 C   0  0  0  0  0  0  0  0  0  0  0  0
    6.4300   -7.3475    0.0000 C   0  0  0  0  0  0  0  0  0  0  0  0
    4.9521   -7.6038    0.0000 C   0  0  0  0  0  0  0  0  0  0  0  0
   13.3790   -1.8458    0.0000 C   0  0  0  0  0  0  0  0  0  0  0  0
   13.5216   -0.4299    0.0000 C   0  0  0  0  0  0  0  0  0  0  0  0
   13.8956    1.0227    0.0000 O   0  0  0  0  0  0  0  0  0  0  0  0
   14.7127   -1.3417    0.0000 N   0  0  0  0  0  0  0  0  0  0  0  0
   16.0979   -0.7661    0.0000 C   0  0  0  0  0  0  0  0  0  0  0  0
   17.2026    0.2485    0.0000 C   0  0  0  0  0  0  0  0  0  0  0  0
   18.6337   -0.2009    0.0000 C   0  0  0  0  0  0  0  0  0  0  0  0
   19.7385    0.8137    0.0000 C   0  0  0  0  0  0  0  0  0  0  0  0
   19.8248   -1.1127    0.0000 C   0  0  0  0  0  0  0  0  0  0  0  0
   17.2889   -1.6779    0.0000 C   0  0  0  0  0  0  0  0  0  0  0  0
   17.0948   -3.1653    0.0000 O   0  0  0  0  0  0  0  0  0  0  0  0
   18.6741   -1.1023    0.0000 N   0  0  0  0  0  0  0  0  0  0  0  0
   19.8652   -2.0141    0.0000 C   0  0  0  0  0  0  0  0  0  0  0  0
   20.6726   -3.2783    0.0000 C   0  0  0  0  0  0  0  0  0  0  0  0
   19.9814   -4.6096    0.0000 C   0  0  0  0  0  0  0  0  0  0  0  0
   20.7888   -5.8737    0.0000 C   0  0  0  0  0  0  0  0  0  0  0  0
   20.0977   -7.2050    0.0000 N   0  0  0  0  0  0  0  0  0  0  0  0
   22.2873   -5.8066    0.0000 O   0  0  0  0  0  0  0  0  0  0  0  0
   21.2503   -1.4385    0.0000 C   0  0  0  0  0  0  0  0  0  0  0  0
   21.6243    0.0141    0.0000 O   0  0  0  0  0  0  0  0  0  0  0  0
   22.4414   -2.3503    0.0000 N   0  0  0  0  0  0  0  0  0  0  0  0
   23.8266   -1.7747    0.0000 C   0  0  0  0  0  0  0  0  0  0  0  0
   24.9313   -0.7601    0.0000 C   0  0  0  0  0  0  0  0  0  0  0  0
   26.3624   -1.2095    0.0000 C   0  0  0  0  0  0  0  0  0  0  0  0
   27.4672   -0.1949    0.0000 N   0  0  0  0  0  0  0  0  0  0  0  0
   26.8648   -2.6229    0.0000 O   0  0  0  0  0  0  0  0  0  0  0  0
   25.0176   -2.6865    0.0000 C   0  0  0  0  0  0  0  0  0  0  0  0
   26.4626   -2.2840    0.0000 O   0  0  0  0  0  0  0  0  0  0  0  0
   24.8235   -4.1739    0.0000 O   0  0  0  0  0  0  0  0  0  0  0  0
  -35.0123   12.1076    0.0000 H   0  0  0  0  0  0  0  0  0  0  0  0
  -35.5516    9.5661    0.0000 H   0  0  0  0  0  0  0  0  0  0  0  0
  -33.0292   11.8689    0.0000 H   0  0  0  0  0  0  0  0  0  0  0  0
  -31.5957   10.5790    0.0000 H   0  0  0  0  0  0  0  0  0  0  0  0
  -34.1023    8.7341    0.0000 H   0  0  0  0  0  0  0  0  0  0  0  0
  -32.8512    7.4617    0.0000 H   0  0  0  0  0  0  0  0  0  0  0  0
  -32.1344    6.8168    0.0000 H   0  0  0  0  0  0  0  0  0  0  0  0
  -30.7375    5.7064    0.0000 H   0  0  0  0  0  0  0  0  0  0  0  0
  -29.1665    8.3933    0.0000 H   0  0  0  0  0  0  0  0  0  0  0  0
  -27.7696    7.2829    0.0000 H   0  0  0  0  0  0  0  0  0  0  0  0
  -27.0528    6.6380    0.0000 H   0  0  0  0  0  0  0  0  0  0  0  0
  -25.8017    5.3656    0.0000 H   0  0  0  0  0  0  0  0  0  0  0  0
  -28.3083    3.5207    0.0000 H   0  0  0  0  0  0  0  0  0  0  0  0
  -27.0572    2.2483    0.0000 H   0  0  0  0  0  0  0  0  0  0  0  0
  -26.3404    1.6034    0.0000 H   0  0  0  0  0  0  0  0  0  0  0  0
  -24.9435    0.4930    0.0000 H   0  0  0  0  0  0  0  0  0  0  0  0
  -23.3725    3.1799    0.0000 H   0  0  0  0  0  0  0  0  0  0  0  0
  -21.9756    2.0695    0.0000 H   0  0  0  0  0  0  0  0  0  0  0  0
  -21.2588    1.4246    0.0000 H   0  0  0  0  0  0  0  0  0  0  0  0
  -20.0076    0.1522    0.0000 H   0  0  0  0  0  0  0  0  0  0  0  0
  -22.5143   -1.6927    0.0000 H   0  0  0  0  0  0  0  0  0  0  0  0
  -21.2632   -2.9650    0.0000 H   0  0  0  0  0  0  0  0  0  0  0  0
  -20.5464   -3.6100    0.0000 H   0  0  0  0  0  0  0  0  0  0  0  0
  -19.1495   -4.7203    0.0000 H   0  0  0  0  0  0  0  0  0  0  0  0
  -17.5785   -2.0335    0.0000 H   0  0  0  0  0  0  0  0  0  0  0  0
  -16.1816   -3.1439    0.0000 H   0  0  0  0  0  0  0  0  0  0  0  0
  -15.4648   -3.7888    0.0000 H   0  0  0  0  0  0  0  0  0  0  0  0
  -14.2136   -5.0611    0.0000 H   0  0  0  0  0  0  0  0  0  0  0  0
  -16.7203   -6.9061    0.0000 H   0  0  0  0  0  0  0  0  0  0  0  0
  -15.2868   -8.1959    0.0000 H   0  0  0  0  0  0  0  0  0  0  0  0
  -14.4354   -9.4191    0.0000 H   0  0  0  0  0  0  0  0  0  0  0  0
  -11.7845   -7.2469    0.0000 H   0  0  0  0  0  0  0  0  0  0  0  0
  -10.9304  -10.4483    0.0000 H   0  0  0  0  0  0  0  0  0  0  0  0
  -14.6322  -11.6588    0.0000 H   0  0  0  0  0  0  0  0  0  0  0  0
  -15.3504  -10.0349    0.0000 H   0  0  0  0  0  0  0  0  0  0  0  0
  -14.3720   -8.9282    0.0000 H   0  0  0  0  0  0  0  0  0  0  0  0
  -11.9856  -13.0625    0.0000 H   0  0  0  0  0  0  0  0  0  0  0  0
  -10.9642  -11.4268    0.0000 H   0  0  0  0  0  0  0  0  0  0  0  0
  -13.8256  -13.8398    0.0000 H   0  0  0  0  0  0  0  0  0  0  0  0
  -15.2591  -12.5500    0.0000 H   0  0  0  0  0  0  0  0  0  0  0  0
  -14.5691  -11.0690    0.0000 H   0  0  0  0  0  0  0  0  0  0  0  0
  -10.7134   -5.9641    0.0000 H   0  0  0  0  0  0  0  0  0  0  0  0
   -8.7682   -5.5101    0.0000 H   0  0  0  0  0  0  0  0  0  0  0  0
   -8.7437   -9.8846    0.0000 H   0  0  0  0  0  0  0  0  0  0  0  0
   -9.8551   -8.4886    0.0000 H   0  0  0  0  0  0  0  0  0  0  0  0
   -5.6164   -9.5414    0.0000 H   0  0  0  0  0  0  0  0  0  0  0  0
   -6.5223   -7.8391    0.0000 H   0  0  0  0  0  0  0  0  0  0  0  0
   -5.9150  -13.0227    0.0000 H   0  0  0  0  0  0  0  0  0  0  0  0
   -4.5390  -10.8190    0.0000 H   0  0  0  0  0  0  0  0  0  0  0  0
   -8.3549   -4.2698    0.0000 H   0  0  0  0  0  0  0  0  0  0  0  0
   -5.1400   -5.4545    0.0000 H   0  0  0  0  0  0  0  0  0  0  0  0
   -7.1623   -1.4872    0.0000 H   0  0  0  0  0  0  0  0  0  0  0  0
   -5.0279   -2.8460    0.0000 H   0  0  0  0  0  0  0  0  0  0  0  0
   -3.9216   -6.3127    0.0000 H   0  0  0  0  0  0  0  0  0  0  0  0
   -1.0173   -7.2991    0.0000 H   0  0  0  0  0  0  0  0  0  0  0  0
   -1.9924   -6.5024    0.0000 H   0  0  0  0  0  0  0  0  0  0  0  0
    0.5108   -8.1781    0.0000 H   0  0  0  0  0  0  0  0  0  0  0  0
   -0.5974   -7.5803    0.0000 H   0  0  0  0  0  0  0  0  0  0  0  0
    2.3576   -8.7174    0.0000 H   0  0  0  0  0  0  0  0  0  0  0  0
    0.9764   -8.3747    0.0000 H   0  0  0  0  0  0  0  0  0  0  0  0
    3.2818   -9.0660    0.0000 H   0  0  0  0  0  0  0  0  0  0  0  0
   -3.5957   -6.6737    0.0000 H   0  0  0  0  0  0  0  0  0  0  0  0
   -2.1382   -7.7144    0.0000 H   0  0  0  0  0  0  0  0  0  0  0  0
   -0.8157   -6.8245    0.0000 H   0  0  0  0  0  0  0  0  0  0  0  0
   -4.4258   -2.9729    0.0000 H   0  0  0  0  0  0  0  0  0  0  0  0
   -4.7564    0.0750    0.0000 H   0  0  0  0  0  0  0  0  0  0  0  0
   -5.2590   -3.0255    0.0000 H   0  0  0  0  0  0  0  0  0  0  0  0
   -3.6450   -2.7719    0.0000 H   0  0  0  0  0  0  0  0  0  0  0  0
   -5.6067    0.3173    0.0000 H   0  0  0  0  0  0  0  0  0  0  0  0
   -8.6135   -1.5199    0.0000 H   0  0  0  0  0  0  0  0  0  0  0  0
   -8.4576   -3.0092    0.0000 H   0  0  0  0  0  0  0  0  0  0  0  0
   -5.9539   -2.8854    0.0000 H   0  0  0  0  0  0  0  0  0  0  0  0
   -8.6454   -0.4411    0.0000 H   0  0  0  0  0  0  0  0  0  0  0  0
   -7.9033    1.1817    0.0000 H   0  0  0  0  0  0  0  0  0  0  0  0
   -6.0109    0.8114    0.0000 H   0  0  0  0  0  0  0  0  0  0  0  0
   -4.7689    2.4676    0.0000 H   0  0  0  0  0  0  0  0  0  0  0  0
   -3.5728    4.9387    0.0000 H   0  0  0  0  0  0  0  0  0  0  0  0
   -5.1426    4.7229    0.0000 H   0  0  0  0  0  0  0  0  0  0  0  0
   -5.6732    3.0192    0.0000 H   0  0  0  0  0  0  0  0  0  0  0  0
   -4.1991    2.0136    0.0000 H   0  0  0  0  0  0  0  0  0  0  0  0
   -2.1297    7.0472    0.0000 H   0  0  0  0  0  0  0  0  0  0  0  0
    0.2125    8.4794    0.0000 H   0  0  0  0  0  0  0  0  0  0  0  0
   -2.5922    8.0002    0.0000 H   0  0  0  0  0  0  0  0  0  0  0  0
   -1.8958    6.3572    0.0000 H   0  0  0  0  0  0  0  0  0  0  0  0
    1.4402    9.4726    0.0000 H   0  0  0  0  0  0  0  0  0  0  0  0
    1.1868   12.2985    0.0000 H   0  0  0  0  0  0  0  0  0  0  0  0
   -1.4974   13.6383    0.0000 H   0  0  0  0  0  0  0  0  0  0  0  0
   -3.9998   11.9836    0.0000 H   0  0  0  0  0  0  0  0  0  0  0  0
   -3.8181    8.9891    0.0000 H   0  0  0  0  0  0  0  0  0  0  0  0
    2.5665    9.4730    0.0000 H   0  0  0  0  0  0  0  0  0  0  0  0
    5.3112    9.4115    0.0000 H   0  0  0  0  0  0  0  0  0  0  0  0
    2.6926   10.5247    0.0000 H   0  0  0  0  0  0  0  0  0  0  0  0
    2.3902    8.7661    0.0000 H   0  0  0  0  0  0  0  0  0  0  0  0
    6.8809    9.5833    0.0000 H   0  0  0  0  0  0  0  0  0  0  0  0
    8.1955   12.0976    0.0000 H   0  0  0  0  0  0  0  0  0  0  0  0
    6.6618   14.6759    0.0000 H   0  0  0  0  0  0  0  0  0  0  0  0
    3.6620   14.6368    0.0000 H   0  0  0  0  0  0  0  0  0  0  0  0
    2.1960   12.0194    0.0000 H   0  0  0  0  0  0  0  0  0  0  0  0
    7.8286    8.9747    0.0000 H   0  0  0  0  0  0  0  0  0  0  0  0
   10.1044    7.4391    0.0000 H   0  0  0  0  0  0  0  0  0  0  0  0
    8.5033    9.7913    0.0000 H   0  0  0  0  0  0  0  0  0  0  0  0
    7.2982    8.4753    0.0000 H   0  0  0  0  0  0  0  0  0  0  0  0
   10.1660   10.5227    0.0000 H   0  0  0  0  0  0  0  0  0  0  0  0
   11.9860    5.7106    0.0000 H   0  0  0  0  0  0  0  0  0  0  0  0
   13.0327    3.0091    0.0000 H   0  0  0  0  0  0  0  0  0  0  0  0
   12.8211    6.0900    0.0000 H   0  0  0  0  0  0  0  0  0  0  0  0
   11.2698    5.5773    0.0000 H   0  0  0  0  0  0  0  0  0  0  0  0
   15.2979    3.8891    0.0000 H   0  0  0  0  0  0  0  0  0  0  0  0
   13.9168    3.0162    0.0000 H   0  0  0  0  0  0  0  0  0  0  0  0
   15.1701    7.2000    0.0000 H   0  0  0  0  0  0  0  0  0  0  0  0
   13.5132    6.5376    0.0000 H   0  0  0  0  0  0  0  0  0  0  0  0
   16.9251    4.2699    0.0000 H   0  0  0  0  0  0  0  0  0  0  0  0
   19.4874    7.9692    0.0000 H   0  0  0  0  0  0  0  0  0  0  0  0
   19.2741    5.3798    0.0000 H   0  0  0  0  0  0  0  0  0  0  0  0
   17.3516    9.4485    0.0000 H   0  0  0  0  0  0  0  0  0  0  0  0
   15.0025    8.3385    0.0000 H   0  0  0  0  0  0  0  0  0  0  0  0
   13.7188    0.7170    0.0000 H   0  0  0  0  0  0  0  0  0  0  0  0
   13.2507   -2.3346    0.0000 H   0  0  0  0  0  0  0  0  0  0  0  0
   12.6795   -3.6381    0.0000 H   0  0  0  0  0  0  0  0  0  0  0  0
   12.5671   -4.1529    0.0000 H   0  0  0  0  0  0  0  0  0  0  0  0
   11.9483   -5.0508    0.0000 H   0  0  0  0  0  0  0  0  0  0  0  0
   11.6475   -5.4569    0.0000 H   0  0  0  0  0  0  0  0  0  0  0  0
   10.8053   -6.3930    0.0000 H   0  0  0  0  0  0  0  0  0  0  0  0
   10.4331   -6.7348    0.0000 H   0  0  0  0  0  0  0  0  0  0  0  0
    9.4290   -7.4945    0.0000 H   0  0  0  0  0  0  0  0  0  0  0  0
    8.9988   -7.7598    0.0000 H   0  0  0  0  0  0  0  0  0  0  0  0
    7.8690   -8.3157    0.0000 H   0  0  0  0  0  0  0  0  0  0  0  0
    7.3964   -8.4947    0.0000 H   0  0  0  0  0  0  0  0  0  0  0  0
    6.0033   -8.7855    0.0000 H   0  0  0  0  0  0  0  0  0  0  0  0
    5.0667   -9.0994    0.0000 H   0  0  0  0  0  0  0  0  0  0  0  0
   13.3825   -3.5117    0.0000 H   0  0  0  0  0  0  0  0  0  0  0  0
   14.5740   -2.6822    0.0000 H   0  0  0  0  0  0  0  0  0  0  0  0
   14.2975   -0.9004    0.0000 H   0  0  0  0  0  0  0  0  0  0  0  0
   14.7014   -2.8417    0.0000 H   0  0  0  0  0  0  0  0  0  0  0  0
   15.2905    0.4981    0.0000 H   0  0  0  0  0  0  0  0  0  0  0  0
   17.7263    1.6541    0.0000 H   0  0  0  0  0  0  0  0  0  0  0  0
   16.0116    1.1603    0.0000 H   0  0  0  0  0  0  0  0  0  0  0  0
   18.6487   -1.7008    0.0000 H   0  0  0  0  0  0  0  0  0  0  0  0
   21.2358    0.7239    0.0000 H   0  0  0  0  0  0  0  0  0  0  0  0
   20.4296    2.1450    0.0000 H   0  0  0  0  0  0  0  0  0  0  0  0
   18.6675    1.8639    0.0000 H   0  0  0  0  0  0  0  0  0  0  0  0
   19.9964   -2.6029    0.0000 H   0  0  0  0  0  0  0  0  0  0  0  0
   21.3219   -1.0193    0.0000 H   0  0  0  0  0  0  0  0  0  0  0  0
   20.6730    0.1244    0.0000 H   0  0  0  0  0  0  0  0  0  0  0  0
   19.2224    0.2939    0.0000 H   0  0  0  0  0  0  0  0  0  0  0  0
   18.6450   -2.8865    0.0000 H   0  0  0  0  0  0  0  0  0  0  0  0
   21.7436   -4.3285    0.0000 H   0  0  0  0  0  0  0  0  0  0  0  0
   22.0676   -2.7271    0.0000 H   0  0  0  0  0  0  0  0  0  0  0  0
   18.8767   -5.6242    0.0000 H   0  0  0  0  0  0  0  0  0  0  0  0
   18.6881   -3.8498    0.0000 H   0  0  0  0  0  0  0  0  0  0  0  0
   20.9051   -8.4692    0.0000 H   0  0  0  0  0  0  0  0  0  0  0  0
   18.5992   -7.2722    0.0000 H   0  0  0  0  0  0  0  0  0  0  0  0
   22.4301   -3.8503    0.0000 H   0  0  0  0  0  0  0  0  0  0  0  0
   23.0192   -0.5105    0.0000 H   0  0  0  0  0  0  0  0  0  0  0  0
   25.6225    0.5712    0.0000 H   0  0  0  0  0  0  0  0  0  0  0  0
   23.7403    0.1517    0.0000 H   0  0  0  0  0  0  0  0  0  0  0  0
   28.8983   -0.6443    0.0000 H   0  0  0  0  0  0  0  0  0  0  0  0
   27.1409    1.2692    0.0000 H   0  0  0  0  0  0  0  0  0  0  0  0
  1  2  1  0
  2  3  1  0
  3  4  1  0
  4  5  1  0
  5  6  1  0
  6  7  1  0
  7  8  1  0
  8  9  1  0
  9 10  1  0
 10 11  1  0
 11 12  1  0
 12 13  1  0
 13 14  1  0
 14 15  1  0
 15 16  1  0
 16 17  1  0
 17 18  1  0
 18 19  1  0
 19 20  1  0
 20 21  1  0
 21 22  1  0
 22 23  2  0
 22 24  1  0
 24 25  1  0
 25 26  1  0
 26 27  1  0
 26 28  1  0
 28 29  1  0
 25 30  1  0
 30 31  2  0
 30 32  1  0
 32 33  1  0
 33 34  1  0
 34 35  1  0
 35 36  1  0
 36 37  1  0
 36 38  2  0
 33 39  1  0
 39 40  2  0
 39 41  1  0
 41 42  1  0
 42 43  1  0
 43 44  1  0
 44 45  2  0
 44 46  1  0
 42 47  1  0
 47 48  2  0
 47 49  1  0
 50 49  1  6
 50 51  1  0
 51 52  1  0
 52 53  1  0
 53 54  1  0
 50 55  1  0
 50 56  1  0
 56 57  2  0
 56 58  1  0
 58 59  1  0
 59 60  1  0
 60 61  1  0
 61 62  1  0
 61 63  1  0
 59 64  1  0
 64 65  2  0
 64 66  1  0
 66 67  1  0
 67 68  1  0
 67 69  1  0
 69 70  2  0
 69 71  1  0
 71 72  1  0
 72 73  1  0
 73 74  1  0
 74 75  2  0
 75 76  1  0
 76 77  2  0
 77 78  1  0
 78 79  2  0
 72 80  1  0
 80 81  2  0
 80 82  1  0
 82 83  1  0
 83 84  1  0
 84 85  1  0
 85 86  2  0
 86 87  1  0
 87 88  2  0
 88 89  1  0
 89 90  2  0
 83 91  1  0
 91 92  2  0
 91 93  1  0
 93 94  1  0
 94 95  1  0
 95 96  1  0
 94 97  1  0
 97 98  2  0
 97 99  1  0
 99100  1  0
100101  1  0
101102  1  0
102103  1  0
103104  1  0
104105  1  0
105106  2  3
105107  1  0
100108  1  0
108109  2  0
108110  1  0
110111  1  0
111112  1  0
112113  1  0
113114  1  0
114115  1  0
115116  1  0
116117  1  0
117118  1  0
111119  1  0
111120  1  1
120121  2  0
120122  1  0
122123  1  0
123124  1  0
124125  1  0
125126  1  0
125127  1  0
123128  1  0
128129  2  0
128130  1  0
130131  1  0
131132  1  0
132133  1  0
133134  1  0
134135  1  0
134136  2  0
131137  1  0
137138  2  0
137139  1  0
139140  1  0
140141  1  0
141142  1  0
142143  1  0
142144  2  0
140145  1  0
145146  2  0
145147  1  0
 79 74  1  0
 90 85  1  0
 54118  2  0
  1148  1  0
  1149  1  0
  2150  1  0
  2151  1  0
  3152  1  0
  3153  1  0
  5154  1  0
  5155  1  0
  6156  1  0
  6157  1  0
  8158  1  0
  8159  1  0
  9160  1  0
  9161  1  0
 11162  1  0
 11163  1  0
 12164  1  0
 12165  1  0
 14166  1  0
 14167  1  0
 15168  1  0
 15169  1  0
 17170  1  0
 17171  1  0
 18172  1  0
 18173  1  0
 20174  1  0
 20175  1  0
 21176  1  0
 21177  1  0
 24178  1  0
 25179  1  6
 26180  1  1
 27181  1  0
 27182  1  0
 27183  1  0
 28184  1  0
 28185  1  0
 29186  1  0
 29187  1  0
 29188  1  0
 32189  1  0
 33190  1  6
 34191  1  0
 34192  1  0
 35193  1  0
 35194  1  0
 37195  1  0
 37196  1  0
 41197  1  0
 42198  1  1
 43199  1  0
 43200  1  0
 49201  1  0
 51202  1  0
 51203  1  0
 52204  1  0
 52205  1  0
 53206  1  0
 53207  1  0
 54208  1  0
 55209  1  0
 55210  1  0
 55211  1  0
 58212  1  0
 59213  1  1
 60214  1  0
 60215  1  0
 61216  1  0
 62217  1  0
 62218  1  0
 62219  1  0
 63220  1  0
 63221  1  0
 63222  1  0
 66223  1  0
 67224  1  1
 68225  1  0
 68226  1  0
 68227  1  0
 71228  1  0
 72229  1  1
 73230  1  0
 73231  1  0
 75232  1  0
 76233  1  0
 77234  1  0
 78235  1  0
 79236  1  0
 82237  1  0
 83238  1  1
 84239  1  0
 84240  1  0
 86241  1  0
 87242  1  0
 88243  1  0
 89244  1  0
 90245  1  0
 93246  1  0
 94247  1  1
 95248  1  0
 95249  1  0
 96250  1  0
 99251  1  0
100252  1  1
101253  1  0
101254  1  0
102255  1  0
102256  1  0
103257  1  0
103258  1  0
104259  1  0
106260  1  0
106261  1  0
107262  1  0
107263  1  0
110264  1  0
112265  1  0
112266  1  0
113267  1  0
113268  1  0
114269  1  0
114270  1  0
115271  1  0
115272  1  0
116273  1  0
116274  1  0
117275  1  0
117276  1  0
118277  1  0
119278  1  0
119279  1  0
119280  1  0
122281  1  0
123282  1  1
124283  1  0
124284  1  0
125285  1  0
126286  1  0
126287  1  0
126288  1  0
127289  1  0
127290  1  0
127291  1  0
130292  1  0
131293  1  6
132294  1  0
132295  1  0
133296  1  0
133297  1  0
135298  1  0
135299  1  0
139300  1  0
140301  1  1
141302  1  0
141303  1  0
143304  1  0
143305  1  0
M  CHG  3  46  -1 106   1 147  -1
M  END
