
     RDKit          2D

340345  0  0  0  0  0  0  0  0999 V2000
  -20.1798   -1.3458    0.0000 C   0  0  0  0  0  0  0  0  0  0  0  0
  -20.9500   -2.6329    0.0000 N   0  0  0  0  0  0  0  0  0  0  0  0
  -22.4498   -2.6095    0.0000 C   0  0  0  0  0  0  0  0  0  0  0  0
  -23.1795   -1.2989    0.0000 C   0  0  0  0  0  0  0  0  0  0  0  0
  -24.6793   -1.2755    0.0000 C   0  0  0  0  0  0  0  0  0  0  0  0
  -25.4495   -2.5627    0.0000 C   0  0  0  0  0  0  0  0  0  0  0  0
  -24.7198   -3.8733    0.0000 C   0  0  0  0  0  0  0  0  0  0  0  0
  -23.2200   -3.8967    0.0000 C   0  0  0  0  0  0  0  0  0  0  0  0
  -25.7408   -4.9722    0.0000 C   0  0  0  0  0  0  0  0  0  0  0  0
  -27.1014   -4.3408    0.0000 O   0  0  0  0  0  0  0  0  0  0  0  0
  -26.9214   -2.8517    0.0000 C   0  0  0  0  0  0  0  0  0  0  0  0
  -28.0203   -1.8307    0.0000 O   0  0  0  0  0  0  0  0  0  0  0  0
  -26.8710   -5.9584    0.0000 C   0  0  0  0  0  0  0  0  0  0  0  0
  -26.5821   -7.4303    0.0000 C   0  0  0  0  0  0  0  0  0  0  0  0
  -27.7123   -8.4165    0.0000 C   0  0  0  0  0  0  0  0  0  0  0  0
  -29.1315   -7.9308    0.0000 C   0  0  0  0  0  0  0  0  0  0  0  0
  -29.4205   -6.4589    0.0000 C   0  0  0  0  0  0  0  0  0  0  0  0
  -28.2902   -5.4727    0.0000 C   0  0  0  0  0  0  0  0  0  0  0  0
  -30.2618   -8.9170    0.0000 O   0  0  0  0  0  0  0  0  0  0  0  0
  -25.1629   -7.9160    0.0000 O   0  0  0  0  0  0  0  0  0  0  0  0
  -24.0327   -6.9299    0.0000 C   0  0  0  0  0  0  0  0  0  0  0  0
  -24.3216   -5.4580    0.0000 C   0  0  0  0  0  0  0  0  0  0  0  0
  -23.0565   -5.1587    0.0000 C   0  0  0  0  0  0  0  0  0  0  0  0
  -22.2996   -5.4177    0.0000 C   0  0  0  0  0  0  0  0  0  0  0  0
  -22.1455   -6.2027    0.0000 C   0  0  0  0  0  0  0  0  0  0  0  0
  -22.7483   -6.7287    0.0000 C   0  0  0  0  0  0  0  0  0  0  0  0
  -20.0641   -6.9151    0.0000 O   0  0  0  0  0  0  0  0  0  0  0  0
  -21.0638   -0.1339    0.0000 S   0  0  0  0  0  0  0  0  0  0  0  0
  -18.6800   -1.3692    0.0000 N   0  0  0  0  0  0  0  0  0  0  0  0
  -17.9099   -0.0820    0.0000 C   0  0  0  0  0  0  0  0  0  0  0  0
  -16.4100   -0.1054    0.0000 C   0  0  0  0  0  0  0  0  0  0  0  0
  -15.6399    1.1818    0.0000 C   0  0  0  0  0  0  0  0  0  0  0  0
  -16.1846    1.7638    0.0000 O   0  0  0  0  0  0  0  0  0  0  0  0
  -14.1400    1.1584    0.0000 N   0  0  0  0  0  0  0  0  0  0  0  0
  -13.3699    2.4456    0.0000 C   0  0  0  0  0  0  0  0  0  0  0  0
  -14.7712    2.9805    0.0000 C   0  0  0  0  0  0  0  0  0  0  0  0
  -15.9352    2.0344    0.0000 C   0  0  0  0  0  0  0  0  0  0  0  0
  -17.3366    2.5693    0.0000 C   0  0  0  0  0  0  0  0  0  0  0  0
  -18.5005    1.6232    0.0000 N   0  0  0  0  0  0  0  0  0  0  0  0
  -19.9019    2.1582    0.0000 C   0  0  0  0  0  0  0  0  0  0  0  0
  -21.0659    1.2120    0.0000 N   0  0  0  0  0  0  0  0  0  0  0  0
  -20.1393    3.6393    0.0000 N   0  0  0  0  0  0  0  0  0  0  0  0
  -12.2059    3.3917    0.0000 C   0  0  0  0  0  0  0  0  0  0  0  0
  -12.7946    4.7713    0.0000 O   0  0  0  0  0  0  0  0  0  0  0  0
  -10.8045    2.8567    0.0000 N   0  0  0  0  0  0  0  0  0  0  0  0
   -9.6406    3.8029    0.0000 C   0  0  0  0  0  0  0  0  0  0  0  0
  -10.7744    4.7849    0.0000 C   0  0  0  0  0  0  0  0  0  0  0  0
  -12.1918    4.2939    0.0000 C   0  0  0  0  0  0  0  0  0  0  0  0
  -13.3257    5.2759    0.0000 C   0  0  0  0  0  0  0  0  0  0  0  0
  -14.7431    4.7849    0.0000 N   0  0  0  0  0  0  0  0  0  0  0  0
  -15.8770    5.7669    0.0000 C   0  0  0  0  0  0  0  0  0  0  0  0
  -17.2943    5.2759    0.0000 N   0  0  0  0  0  0  0  0  0  0  0  0
  -15.5935    7.2399    0.0000 N   0  0  0  0  0  0  0  0  0  0  0  0
   -8.2232    4.2938    0.0000 C   0  0  0  0  0  0  0  0  0  0  0  0
   -8.3045    5.7916    0.0000 O   0  0  0  0  0  0  0  0  0  0  0  0
   -7.0893    3.3119    0.0000 N   0  0  0  0  0  0  0  0  0  0  0  0
   -5.6719    3.8028    0.0000 C   0  0  0  0  0  0  0  0  0  0  0  0
   -6.4016    5.1134    0.0000 C   0  0  0  0  0  0  0  0  0  0  0  0
   -7.9014    5.1368    0.0000 C   0  0  0  0  0  0  0  0  0  0  0  0
   -8.6310    6.4474    0.0000 C   0  0  0  0  0  0  0  0  0  0  0  0
  -10.1308    6.4708    0.0000 N   0  0  0  0  0  0  0  0  0  0  0  0
  -10.8605    7.7814    0.0000 C   0  0  0  0  0  0  0  0  0  0  0  0
  -12.3603    7.8048    0.0000 N   0  0  0  0  0  0  0  0  0  0  0  0
  -10.0903    9.0686    0.0000 N   0  0  0  0  0  0  0  0  0  0  0  0
   -4.1721    3.7794    0.0000 C   0  0  0  0  0  0  0  0  0  0  0  0
   -3.7363    5.2147    0.0000 O   0  0  0  0  0  0  0  0  0  0  0  0
   -3.4425    2.4688    0.0000 N   0  0  0  0  0  0  0  0  0  0  0  0
   -1.9427    2.4454    0.0000 C   0  0  0  0  0  0  0  0  0  0  0  0
   -2.1800    3.9265    0.0000 C   0  0  0  0  0  0  0  0  0  0  0  0
   -3.5814    4.4615    0.0000 C   0  0  0  0  0  0  0  0  0  0  0  0
   -3.8188    5.9426    0.0000 C   0  0  0  0  0  0  0  0  0  0  0  0
   -5.2202    6.4776    0.0000 N   0  0  0  0  0  0  0  0  0  0  0  0
   -5.4576    7.9587    0.0000 C   0  0  0  0  0  0  0  0  0  0  0  0
   -6.8589    8.4936    0.0000 N   0  0  0  0  0  0  0  0  0  0  0  0
   -4.2936    8.9048    0.0000 N   0  0  0  0  0  0  0  0  0  0  0  0
   -0.5413    1.9105    0.0000 C   0  0  0  0  0  0  0  0  0  0  0  0
    0.3591    3.1102    0.0000 O   0  0  0  0  0  0  0  0  0  0  0  0
   -0.3039    0.4294    0.0000 N   0  0  0  0  0  0  0  0  0  0  0  0
    1.0975   -0.1056    0.0000 C   0  0  0  0  0  0  0  0  0  0  0  0
    0.9545    1.3876    0.0000 C   0  0  0  0  0  0  0  0  0  0  0  0
    1.0967    2.8808    0.0000 C   0  0  0  0  0  0  0  0  0  0  0  0
    1.5189    4.3202    0.0000 C   0  0  0  0  0  0  0  0  0  0  0  0
    2.2059    5.6536    0.0000 C   0  0  0  0  0  0  0  0  0  0  0  0
   -0.0042   -1.1236    0.0000 C   0  0  0  0  0  0  0  0  0  0  0  0
    1.5204   -1.5447    0.0000 C   0  0  0  0  0  0  0  0  0  0  0  0
    0.2064   -2.2681    0.0000 O   0  0  0  0  0  0  0  0  0  0  0  0
    2.2081   -2.8778    0.0000 N   0  0  0  0  0  0  0  0  0  0  0  0
    3.1357   -4.0566    0.0000 C   0  0  0  0  0  0  0  0  0  0  0  0
    2.7593   -5.5086    0.0000 C   0  0  0  0  0  0  0  0  0  0  0  0
    1.3137   -5.9087    0.0000 C   0  0  0  0  0  0  0  0  0  0  0  0
    0.9373   -7.3607    0.0000 C   0  0  0  0  0  0  0  0  0  0  0  0
   -0.5083   -7.7608    0.0000 N   0  0  0  0  0  0  0  0  0  0  0  0
   -0.8847   -9.2129    0.0000 C   0  0  0  0  0  0  0  0  0  0  0  0
   -2.3303   -9.6130    0.0000 N   0  0  0  0  0  0  0  0  0  0  0  0
    0.1847  -10.2648    0.0000 N   0  0  0  0  0  0  0  0  0  0  0  0
    4.2696   -5.0386    0.0000 C   0  0  0  0  0  0  0  0  0  0  0  0
    3.5553   -6.3576    0.0000 O   0  0  0  0  0  0  0  0  0  0  0  0
    5.5688   -5.7883    0.0000 N   0  0  0  0  0  0  0  0  0  0  0  0
    6.9864   -6.2785    0.0000 C   0  0  0  0  0  0  0  0  0  0  0  0
    7.4549   -7.7035    0.0000 C   0  0  0  0  0  0  0  0  0  0  0  0
    6.4550   -8.8216    0.0000 C   0  0  0  0  0  0  0  0  0  0  0  0
    6.9234  -10.2466    0.0000 C   0  0  0  0  0  0  0  0  0  0  0  0
    5.9236  -11.3648    0.0000 N   0  0  0  0  0  0  0  0  0  0  0  0
    6.3920  -12.7898    0.0000 C   0  0  0  0  0  0  0  0  0  0  0  0
    5.3921  -13.9079    0.0000 N   0  0  0  0  0  0  0  0  0  0  0  0
    7.8603  -13.0966    0.0000 N   0  0  0  0  0  0  0  0  0  0  0  0
    8.4712   -6.4916    0.0000 C   0  0  0  0  0  0  0  0  0  0  0  0
    8.5834   -7.9874    0.0000 O   0  0  0  0  0  0  0  0  0  0  0  0
    9.9695   -6.4198    0.0000 N   0  0  0  0  0  0  0  0  0  0  0  0
   11.4271   -6.0658    0.0000 C   0  0  0  0  0  0  0  0  0  0  0  0
   12.5916   -7.0113    0.0000 C   0  0  0  0  0  0  0  0  0  0  0  0
   12.3550   -8.4925    0.0000 C   0  0  0  0  0  0  0  0  0  0  0  0
   13.5194   -9.4380    0.0000 C   0  0  0  0  0  0  0  0  0  0  0  0
   13.2828  -10.9193    0.0000 N   0  0  0  0  0  0  0  0  0  0  0  0
   14.4473  -11.8648    0.0000 C   0  0  0  0  0  0  0  0  0  0  0  0
   14.2107  -13.3460    0.0000 N   0  0  0  0  0  0  0  0  0  0  0  0
   15.8484  -11.3291    0.0000 N   0  0  0  0  0  0  0  0  0  0  0  0
   12.7914   -5.4423    0.0000 C   0  0  0  0  0  0  0  0  0  0  0  0
   13.6945   -6.6400    0.0000 O   0  0  0  0  0  0  0  0  0  0  0  0
   14.0130   -4.5719    0.0000 N   0  0  0  0  0  0  0  0  0  0  0  0
   15.0479   -3.4860    0.0000 C   0  0  0  0  0  0  0  0  0  0  0  0
   16.5387   -3.6519    0.0000 C   0  0  0  0  0  0  0  0  0  0  0  0
   17.1404   -5.0259    0.0000 C   0  0  0  0  0  0  0  0  0  0  0  0
   18.6312   -5.1918    0.0000 C   0  0  0  0  0  0  0  0  0  0  0  0
   19.2330   -6.5658    0.0000 N   0  0  0  0  0  0  0  0  0  0  0  0
   20.7238   -6.7316    0.0000 C   0  0  0  0  0  0  0  0  0  0  0  0
   21.3255   -8.1056    0.0000 N   0  0  0  0  0  0  0  0  0  0  0  0
   21.6128   -5.5235    0.0000 N   0  0  0  0  0  0  0  0  0  0  0  0
   15.8585   -2.2239    0.0000 C   0  0  0  0  0  0  0  0  0  0  0  0
   17.2657   -2.7433    0.0000 O   0  0  0  0  0  0  0  0  0  0  0  0
   16.4156   -0.8312    0.0000 N   0  0  0  0  0  0  0  0  0  0  0  0
   16.6991    0.6417    0.0000 C   0  0  0  0  0  0  0  0  0  0  0  0
   18.0429    1.3082    0.0000 C   0  0  0  0  0  0  0  0  0  0  0  0
   19.2920    0.4776    0.0000 C   0  0  0  0  0  0  0  0  0  0  0  0
   20.6358    1.1441    0.0000 C   0  0  0  0  0  0  0  0  0  0  0  0
   21.8849    0.3135    0.0000 N   0  0  0  0  0  0  0  0  0  0  0  0
   23.2287    0.9800    0.0000 C   0  0  0  0  0  0  0  0  0  0  0  0
   24.4778    0.1494    0.0000 N   0  0  0  0  0  0  0  0  0  0  0  0
   23.3235    2.4770    0.0000 N   0  0  0  0  0  0  0  0  0  0  0  0
   16.6987    2.1417    0.0000 C   0  0  0  0  0  0  0  0  0  0  0  0
   18.1633    2.4657    0.0000 O   0  0  0  0  0  0  0  0  0  0  0  0
   16.4145    3.6146    0.0000 N   0  0  0  0  0  0  0  0  0  0  0  0
   15.8566    5.0070    0.0000 C   0  0  0  0  0  0  0  0  0  0  0  0
   16.6268    6.2941    0.0000 C   0  0  0  0  0  0  0  0  0  0  0  0
   18.1266    6.2707    0.0000 C   0  0  0  0  0  0  0  0  0  0  0  0
   18.8968    7.5579    0.0000 C   0  0  0  0  0  0  0  0  0  0  0  0
   20.3966    7.5345    0.0000 N   0  0  0  0  0  0  0  0  0  0  0  0
   21.1668    8.8217    0.0000 C   0  0  0  0  0  0  0  0  0  0  0  0
   22.6666    8.7983    0.0000 N   0  0  0  0  0  0  0  0  0  0  0  0
   20.4371   10.1323    0.0000 N   0  0  0  0  0  0  0  0  0  0  0  0
   15.0453    6.2686    0.0000 C   0  0  0  0  0  0  0  0  0  0  0  0
   16.1023    7.3330    0.0000 O   0  0  0  0  0  0  0  0  0  0  0  0
   14.0099    7.3540    0.0000 N   0  0  0  0  0  0  0  0  0  0  0  0
   12.7878    8.2237    0.0000 C   0  0  0  0  0  0  0  0  0  0  0  0
   11.4232    8.8465    0.0000 C   0  0  0  0  0  0  0  0  0  0  0  0
    9.9654    9.1997    0.0000 C   0  0  0  0  0  0  0  0  0  0  0  0
    8.4671    9.2707    0.0000 C   0  0  0  0  0  0  0  0  0  0  0  0
    6.9824    9.0569    0.0000 C   0  0  0  0  0  0  0  0  0  0  0  0
    5.5650    8.5659    0.0000 C   0  0  0  0  0  0  0  0  0  0  0  0
    4.2662    7.8155    0.0000 C   0  0  0  0  0  0  0  0  0  0  0  0
    3.1328    6.8329    0.0000 C   0  0  0  0  0  0  0  0  0  0  0  0
   14.1098    8.9325    0.0000 C   0  0  0  0  0  0  0  0  0  0  0  0
   12.7398    9.7230    0.0000 C   0  0  0  0  0  0  0  0  0  0  0  0
   13.9083   10.6636    0.0000 O   0  0  0  0  0  0  0  0  0  0  0  0
   11.6281   10.7300    0.0000 O   0  0  0  0  0  0  0  0  0  0  0  0
  -20.0661   -3.8448    0.0000 H   0  0  0  0  0  0  0  0  0  0  0  0
  -22.4093   -0.0118    0.0000 H   0  0  0  0  0  0  0  0  0  0  0  0
  -25.4089    0.0350    0.0000 H   0  0  0  0  0  0  0  0  0  0  0  0
  -22.1949   -4.9918    0.0000 H   0  0  0  0  0  0  0  0  0  0  0  0
  -27.4234   -9.8884    0.0000 H   0  0  0  0  0  0  0  0  0  0  0  0
  -30.8396   -5.9731    0.0000 H   0  0  0  0  0  0  0  0  0  0  0  0
  -28.5792   -4.0008    0.0000 H   0  0  0  0  0  0  0  0  0  0  0  0
  -31.6809   -8.4312    0.0000 H   0  0  0  0  0  0  0  0  0  0  0  0
  -23.4803   -2.9999    0.0000 H   0  0  0  0  0  0  0  0  0  0  0  0
  -20.5302   -4.1164    0.0000 H   0  0  0  0  0  0  0  0  0  0  0  0
  -22.3246   -8.8875    0.0000 H   0  0  0  0  0  0  0  0  0  0  0  0
  -19.7752   -8.3870    0.0000 H   0  0  0  0  0  0  0  0  0  0  0  0
  -17.9504   -2.6797    0.0000 H   0  0  0  0  0  0  0  0  0  0  0  0
  -19.3112    0.4530    0.0000 H   0  0  0  0  0  0  0  0  0  0  0  0
  -17.9912    1.4158    0.0000 H   0  0  0  0  0  0  0  0  0  0  0  0
  -16.6935   -1.5784    0.0000 H   0  0  0  0  0  0  0  0  0  0  0  0
  -15.0087   -0.6403    0.0000 H   0  0  0  0  0  0  0  0  0  0  0  0
  -13.4104   -0.1522    0.0000 H   0  0  0  0  0  0  0  0  0  0  0  0
  -12.2360    1.4636    0.0000 H   0  0  0  0  0  0  0  0  0  0  0  0
  -15.7770    4.0934    0.0000 H   0  0  0  0  0  0  0  0  0  0  0  0
  -14.3354    4.4158    0.0000 H   0  0  0  0  0  0  0  0  0  0  0  0
  -16.7054    0.7472    0.0000 H   0  0  0  0  0  0  0  0  0  0  0  0
  -15.0726    0.8072    0.0000 H   0  0  0  0  0  0  0  0  0  0  0  0
  -18.4704    3.5513    0.0000 H   0  0  0  0  0  0  0  0  0  0  0  0
  -16.7290    3.9408    0.0000 H   0  0  0  0  0  0  0  0  0  0  0  0
  -18.6286    0.1287    0.0000 H   0  0  0  0  0  0  0  0  0  0  0  0
  -22.4672    1.7470    0.0000 H   0  0  0  0  0  0  0  0  0  0  0  0
  -21.0108   -0.2870    0.0000 H   0  0  0  0  0  0  0  0  0  0  0  0
  -21.5406    4.1742    0.0000 H   0  0  0  0  0  0  0  0  0  0  0  0
  -18.9753    4.5854    0.0000 H   0  0  0  0  0  0  0  0  0  0  0  0
  -10.5671    1.3756    0.0000 H   0  0  0  0  0  0  0  0  0  0  0  0
   -8.9109    2.4923    0.0000 H   0  0  0  0  0  0  0  0  0  0  0  0
  -11.3389    6.1746    0.0000 H   0  0  0  0  0  0  0  0  0  0  0  0
   -9.8740    5.9845    0.0000 H   0  0  0  0  0  0  0  0  0  0  0  0
  -13.3558    3.3478    0.0000 H   0  0  0  0  0  0  0  0  0  0  0  0
  -11.8010    2.8457    0.0000 H   0  0  0  0  0  0  0  0  0  0  0  0
  -14.0553    6.5865    0.0000 H   0  0  0  0  0  0  0  0  0  0  0  0
  -12.2857    6.3568    0.0000 H   0  0  0  0  0  0  0  0  0  0  0  0
  -15.3746    3.4243    0.0000 H   0  0  0  0  0  0  0  0  0  0  0  0
  -18.4282    6.2579    0.0000 H   0  0  0  0  0  0  0  0  0  0  0  0
  -17.5778    3.8030    0.0000 H   0  0  0  0  0  0  0  0  0  0  0  0
  -16.7273    8.2219    0.0000 H   0  0  0  0  0  0  0  0  0  0  0  0
  -14.1761    7.7308    0.0000 H   0  0  0  0  0  0  0  0  0  0  0  0
   -7.3728    1.8389    0.0000 H   0  0  0  0  0  0  0  0  0  0  0  0
   -5.4345    2.3217    0.0000 H   0  0  0  0  0  0  0  0  0  0  0  0
   -6.4567    6.6124    0.0000 H   0  0  0  0  0  0  0  0  0  0  0  0
   -5.1451    5.9328    0.0000 H   0  0  0  0  0  0  0  0  0  0  0  0
   -9.3188    4.6458    0.0000 H   0  0  0  0  0  0  0  0  0  0  0  0
   -8.0294    3.6423    0.0000 H   0  0  0  0  0  0  0  0  0  0  0  0
   -8.8684    7.9285    0.0000 H   0  0  0  0  0  0  0  0  0  0  0  0
   -7.2841    7.1075    0.0000 H   0  0  0  0  0  0  0  0  0  0  0  0
  -11.1896    5.4082    0.0000 H   0  0  0  0  0  0  0  0  0  0  0  0
  -13.0899    9.1154    0.0000 H   0  0  0  0  0  0  0  0  0  0  0  0
  -13.1305    6.5176    0.0000 H   0  0  0  0  0  0  0  0  0  0  0  0
  -10.8200   10.3791    0.0000 H   0  0  0  0  0  0  0  0  0  0  0  0
   -8.5905    9.0452    0.0000 H   0  0  0  0  0  0  0  0  0  0  0  0
   -4.2127    1.1817    0.0000 H   0  0  0  0  0  0  0  0  0  0  0  0
   -2.2261    0.9725    0.0000 H   0  0  0  0  0  0  0  0  0  0  0  0
   -1.7191    5.3540    0.0000 H   0  0  0  0  0  0  0  0  0  0  0  0
   -0.6802    3.9031    0.0000 H   0  0  0  0  0  0  0  0  0  0  0  0
   -5.0812    4.4849    0.0000 H   0  0  0  0  0  0  0  0  0  0  0  0
   -4.2129    3.1009    0.0000 H   0  0  0  0  0  0  0  0  0  0  0  0
   -3.5353    7.4156    0.0000 H   0  0  0  0  0  0  0  0  0  0  0  0
   -2.3273    6.1022    0.0000 H   0  0  0  0  0  0  0  0  0  0  0  0
   -6.5785    5.8412    0.0000 H   0  0  0  0  0  0  0  0  0  0  0  0
   -7.0963    9.9747    0.0000 H   0  0  0  0  0  0  0  0  0  0  0  0
   -8.0229    7.5475    0.0000 H   0  0  0  0  0  0  0  0  0  0  0  0
   -4.5310   10.3859    0.0000 H   0  0  0  0  0  0  0  0  0  0  0  0
   -2.8922    8.3698    0.0000 H   0  0  0  0  0  0  0  0  0  0  0  0
   -1.5745   -0.3678    0.0000 H   0  0  0  0  0  0  0  0  0  0  0  0
   -0.4735    0.9283    0.0000 H   0  0  0  0  0  0  0  0  0  0  0  0
   -0.2144    2.3276    0.0000 H   0  0  0  0  0  0  0  0  0  0  0  0
   -0.4033    2.8829    0.0000 H   0  0  0  0  0  0  0  0  0  0  0  0
   -0.0055    3.8983    0.0000 H   0  0  0  0  0  0  0  0  0  0  0  0
    0.0418    4.0593    0.0000 H   0  0  0  0  0  0  0  0  0  0  0  0
    0.6292    5.5279    0.0000 H   0  0  0  0  0  0  0  0  0  0  0  0
    0.9438    6.4643    0.0000 H   0  0  0  0  0  0  0  0  0  0  0  0
   -1.4802   -0.8566    0.0000 H   0  0  0  0  0  0  0  0  0  0  0  0
   -0.8486   -2.3634    0.0000 H   0  0  0  0  0  0  0  0  0  0  0  0
    0.9345   -2.2936    0.0000 H   0  0  0  0  0  0  0  0  0  0  0  0
    0.8570   -3.5292    0.0000 H   0  0  0  0  0  0  0  0  0  0  0  0
    1.6410   -4.1830    0.0000 H   0  0  0  0  0  0  0  0  0  0  0  0
    2.9023   -7.0018    0.0000 H   0  0  0  0  0  0  0  0  0  0  0  0
    4.1815   -5.9854    0.0000 H   0  0  0  0  0  0  0  0  0  0  0  0
   -0.1816   -5.7902    0.0000 H   0  0  0  0  0  0  0  0  0  0  0  0
    0.8136   -4.4945    0.0000 H   0  0  0  0  0  0  0  0  0  0  0  0
    1.0803   -8.8539    0.0000 H   0  0  0  0  0  0  0  0  0  0  0  0
    2.4071   -7.6606    0.0000 H   0  0  0  0  0  0  0  0  0  0  0  0
   -1.5776   -6.7089    0.0000 H   0  0  0  0  0  0  0  0  0  0  0  0
   -2.7067  -11.0650    0.0000 H   0  0  0  0  0  0  0  0  0  0  0  0
   -3.3996   -8.5610    0.0000 H   0  0  0  0  0  0  0  0  0  0  0  0
   -0.1917  -11.7168    0.0000 H   0  0  0  0  0  0  0  0  0  0  0  0
    1.6303   -9.8647    0.0000 H   0  0  0  0  0  0  0  0  0  0  0  0
    4.7843   -7.0668    0.0000 H   0  0  0  0  0  0  0  0  0  0  0  0
    5.7973   -7.1929    0.0000 H   0  0  0  0  0  0  0  0  0  0  0  0
    8.3824   -8.8823    0.0000 H   0  0  0  0  0  0  0  0  0  0  0  0
    8.9091   -7.3357    0.0000 H   0  0  0  0  0  0  0  0  0  0  0  0
    5.1330   -9.5304    0.0000 H   0  0  0  0  0  0  0  0  0  0  0  0
    5.2698   -7.9023    0.0000 H   0  0  0  0  0  0  0  0  0  0  0  0
    7.8510  -11.4255    0.0000 H   0  0  0  0  0  0  0  0  0  0  0  0
    8.3219   -9.7043    0.0000 H   0  0  0  0  0  0  0  0  0  0  0  0
    4.4553  -11.0580    0.0000 H   0  0  0  0  0  0  0  0  0  0  0  0
    5.8606  -15.3329    0.0000 H   0  0  0  0  0  0  0  0  0  0  0  0
    3.9238  -13.6011    0.0000 H   0  0  0  0  0  0  0  0  0  0  0  0
    8.3287  -14.5216    0.0000 H   0  0  0  0  0  0  0  0  0  0  0  0
    8.8601  -11.9784    0.0000 H   0  0  0  0  0  0  0  0  0  0  0  0
   10.0008   -7.9195    0.0000 H   0  0  0  0  0  0  0  0  0  0  0  0
   10.9211   -7.4779    0.0000 H   0  0  0  0  0  0  0  0  0  0  0  0
   14.0092   -7.5015    0.0000 H   0  0  0  0  0  0  0  0  0  0  0  0
   13.6161   -5.9157    0.0000 H   0  0  0  0  0  0  0  0  0  0  0  0
   11.6260   -9.8035    0.0000 H   0  0  0  0  0  0  0  0  0  0  0  0
   10.8609   -8.3599    0.0000 H   0  0  0  0  0  0  0  0  0  0  0  0
   14.9371   -9.9283    0.0000 H   0  0  0  0  0  0  0  0  0  0  0  0
   14.4028   -8.2257    0.0000 H   0  0  0  0  0  0  0  0  0  0  0  0
   11.8818  -11.4550    0.0000 H   0  0  0  0  0  0  0  0  0  0  0  0
   15.3752  -14.2915    0.0000 H   0  0  0  0  0  0  0  0  0  0  0  0
   12.8096  -13.8817    0.0000 H   0  0  0  0  0  0  0  0  0  0  0  0
   17.0129  -12.2746    0.0000 H   0  0  0  0  0  0  0  0  0  0  0  0
   16.0850   -9.8479    0.0000 H   0  0  0  0  0  0  0  0  0  0  0  0
   14.8501   -5.8166    0.0000 H   0  0  0  0  0  0  0  0  0  0  0  0
   15.3856   -4.9475    0.0000 H   0  0  0  0  0  0  0  0  0  0  0  0
   17.9963   -3.2979    0.0000 H   0  0  0  0  0  0  0  0  0  0  0  0
   16.8082   -2.1763    0.0000 H   0  0  0  0  0  0  0  0  0  0  0  0
   17.2360   -6.5228    0.0000 H   0  0  0  0  0  0  0  0  0  0  0  0
   15.8118   -5.7221    0.0000 H   0  0  0  0  0  0  0  0  0  0  0  0
   20.0889   -4.8377    0.0000 H   0  0  0  0  0  0  0  0  0  0  0  0
   18.7189   -3.6943    0.0000 H   0  0  0  0  0  0  0  0  0  0  0  0
   18.3439   -7.7739    0.0000 H   0  0  0  0  0  0  0  0  0  0  0  0
   22.8164   -8.2715    0.0000 H   0  0  0  0  0  0  0  0  0  0  0  0
   20.4365   -9.3138    0.0000 H   0  0  0  0  0  0  0  0  0  0  0  0
   23.1036   -5.6893    0.0000 H   0  0  0  0  0  0  0  0  0  0  0  0
   21.0111   -4.1495    0.0000 H   0  0  0  0  0  0  0  0  0  0  0  0
   17.7928   -1.4257    0.0000 H   0  0  0  0  0  0  0  0  0  0  0  0
   17.7734   -0.4051    0.0000 H   0  0  0  0  0  0  0  0  0  0  0  0
   19.0778    2.3941    0.0000 H   0  0  0  0  0  0  0  0  0  0  0  0
   17.4719    2.6953    0.0000 H   0  0  0  0  0  0  0  0  0  0  0  0
   20.1817   -0.7300    0.0000 H   0  0  0  0  0  0  0  0  0  0  0  0
   18.5507   -0.8264    0.0000 H   0  0  0  0  0  0  0  0  0  0  0  0
   21.6707    2.2300    0.0000 H   0  0  0  0  0  0  0  0  0  0  0  0
   19.9000    2.4512    0.0000 H   0  0  0  0  0  0  0  0  0  0  0  0
   21.7902   -1.1835    0.0000 H   0  0  0  0  0  0  0  0  0  0  0  0
   25.8216    0.8159    0.0000 H   0  0  0  0  0  0  0  0  0  0  0  0
   24.3830   -1.3476    0.0000 H   0  0  0  0  0  0  0  0  0  0  0  0
   24.6673    3.1435    0.0000 H   0  0  0  0  0  0  0  0  0  0  0  0
   22.0744    3.3076    0.0000 H   0  0  0  0  0  0  0  0  0  0  0  0
   17.8944    3.8590    0.0000 H   0  0  0  0  0  0  0  0  0  0  0  0
   17.3263    4.7071    0.0000 H   0  0  0  0  0  0  0  0  0  0  0  0
   16.9103    7.7671    0.0000 H   0  0  0  0  0  0  0  0  0  0  0  0
   15.3965    7.1523    0.0000 H   0  0  0  0  0  0  0  0  0  0  0  0
   19.5280    5.7358    0.0000 H   0  0  0  0  0  0  0  0  0  0  0  0
   18.2079    4.7729    0.0000 H   0  0  0  0  0  0  0  0  0  0  0  0
   19.1803    9.0309    0.0000 H   0  0  0  0  0  0  0  0  0  0  0  0
   17.5711    8.2597    0.0000 H   0  0  0  0  0  0  0  0  0  0  0  0
   21.1262    6.2239    0.0000 H   0  0  0  0  0  0  0  0  0  0  0  0
   23.4368   10.0855    0.0000 H   0  0  0  0  0  0  0  0  0  0  0  0
   23.3962    7.4877    0.0000 H   0  0  0  0  0  0  0  0  0  0  0  0
   21.2073   11.4194    0.0000 H   0  0  0  0  0  0  0  0  0  0  0  0
   18.9373   10.1557    0.0000 H   0  0  0  0  0  0  0  0  0  0  0  0
   15.1228    8.3597    0.0000 H   0  0  0  0  0  0  0  0  0  0  0  0
   11.0923   10.3095    0.0000 H   0  0  0  0  0  0  0  0  0  0  0  0
   12.3236   10.0462    0.0000 H   0  0  0  0  0  0  0  0  0  0  0  0
    9.5356   10.6369    0.0000 H   0  0  0  0  0  0  0  0  0  0  0  0
   10.6225   10.5481    0.0000 H   0  0  0  0  0  0  0  0  0  0  0  0
    7.7731   10.6005    0.0000 H   0  0  0  0  0  0  0  0  0  0  0  0
    9.0308   10.6608    0.0000 H   0  0  0  0  0  0  0  0  0  0  0  0
    6.0493   10.2313    0.0000 H   0  0  0  0  0  0  0  0  0  0  0  0
    7.2728   10.5285    0.0000 H   0  0  0  0  0  0  0  0  0  0  0  0
    4.4265    9.5425    0.0000 H   0  0  0  0  0  0  0  0  0  0  0  0
    5.5717   10.0659    0.0000 H   0  0  0  0  0  0  0  0  0  0  0  0
    2.8825    8.3947    0.0000 H   0  0  0  0  0  0  0  0  0  0  0  0
    3.9889    9.2897    0.0000 H   0  0  0  0  0  0  0  0  0  0  0  0
    2.0469    7.8678    0.0000 H   0  0  0  0  0  0  0  0  0  0  0  0
   14.3394   10.4148    0.0000 H   0  0  0  0  0  0  0  0  0  0  0  0
   15.5573    9.3257    0.0000 H   0  0  0  0  0  0  0  0  0  0  0  0
   14.9091    7.6632    0.0000 H   0  0  0  0  0  0  0  0  0  0  0  0
  1  2  1  0
  2  3  1  0
  3  4  2  0
  4  5  1  0
  5  6  2  0
  6  7  1  0
  7  8  2  0
  7  9  1  0
  9 10  1  0
 10 11  1  0
 11 12  2  0
  9 13  1  0
 13 14  1  0
 14 15  2  0
 15 16  1  0
 16 17  2  0
 17 18  1  0
 16 19  1  0
 14 20  1  0
 20 21  1  0
 21 22  2  0
 22 23  1  0
 23 24  2  0
 24 25  1  0
 25 26  2  0
 25 27  1  0
  1 28  2  0
  1 29  1  0
 29 30  1  0
 30 31  1  0
 31 32  1  0
 32 33  2  0
 32 34  1  0
 34 35  1  0
 35 36  1  0
 36 37  1  0
 37 38  1  0
 38 39  1  0
 39 40  1  0
 40 41  2  3
 40 42  1  0
 35 43  1  0
 43 44  2  0
 43 45  1  0
 45 46  1  0
 46 47  1  0
 47 48  1  0
 48 49  1  0
 49 50  1  0
 50 51  1  0
 51 52  2  3
 51 53  1  0
 46 54  1  0
 54 55  2  0
 54 56  1  0
 56 57  1  0
 57 58  1  0
 58 59  1  0
 59 60  1  0
 60 61  1  0
 61 62  1  0
 62 63  2  3
 62 64  1  0
 57 65  1  0
 65 66  2  0
 65 67  1  0
 67 68  1  0
 68 69  1  0
 69 70  1  0
 70 71  1  0
 71 72  1  0
 72 73  1  0
 73 74  2  3
 73 75  1  0
 68 76  1  0
 76 77  2  0
 76 78  1  0
 79 78  1  6
 79 80  1  0
 80 81  1  0
 81 82  1  0
 82 83  1  0
 79 84  1  0
 79 85  1  0
 85 86  2  0
 85 87  1  0
 87 88  1  0
 88 89  1  0
 89 90  1  0
 90 91  1  0
 91 92  1  0
 92 93  1  0
 93 94  2  3
 93 95  1  0
 88 96  1  0
 96 97  2  0
 96 98  1  0
 98 99  1  0
 99100  1  0
100101  1  0
101102  1  0
102103  1  0
103104  1  0
104105  2  3
104106  1  0
 99107  1  0
107108  2  0
107109  1  0
109110  1  0
110111  1  0
111112  1  0
112113  1  0
113114  1  0
114115  1  0
115116  2  3
115117  1  0
110118  1  0
118119  2  0
118120  1  0
120121  1  0
121122  1  0
122123  1  0
123124  1  0
124125  1  0
125126  1  0
126127  2  3
126128  1  0
121129  1  0
129130  2  0
129131  1  0
131132  1  0
132133  1  0
133134  1  0
134135  1  0
135136  1  0
136137  1  0
137138  2  3
137139  1  0
132140  1  0
140141  2  0
140142  1  0
142143  1  0
143144  1  0
144145  1  0
145146  1  0
146147  1  0
147148  1  0
148149  2  3
148150  1  0
143151  1  0
151152  2  0
151153  1  0
153154  1  0
154155  1  0
155156  1  0
156157  1  0
157158  1  0
158159  1  0
159160  1  0
160161  1  0
154162  1  0
154163  1  1
163164  2  0
163165  1  0
  8  3  1  0
 11  6  1  0
 83161  2  0
 18 13  2  0
 22  9  1  0
 26 21  1  0
  2166  1  0
  4167  1  0
  5168  1  0
  8169  1  0
 15170  1  0
 17171  1  0
 18172  1  0
 19173  1  0
 23174  1  0
 24175  1  0
 26176  1  0
 27177  1  0
 29178  1  0
 30179  1  0
 30180  1  0
 31181  1  0
 31182  1  0
 34183  1  0
 35184  1  1
 36185  1  0
 36186  1  0
 37187  1  0
 37188  1  0
 38189  1  0
 38190  1  0
 39191  1  0
 41192  1  0
 41193  1  0
 42194  1  0
 42195  1  0
 45196  1  0
 46197  1  1
 47198  1  0
 47199  1  0
 48200  1  0
 48201  1  0
 49202  1  0
 49203  1  0
 50204  1  0
 52205  1  0
 52206  1  0
 53207  1  0
 53208  1  0
 56209  1  0
 57210  1  1
 58211  1  0
 58212  1  0
 59213  1  0
 59214  1  0
 60215  1  0
 60216  1  0
 61217  1  0
 63218  1  0
 63219  1  0
 64220  1  0
 64221  1  0
 67222  1  0
 68223  1  1
 69224  1  0
 69225  1  0
 70226  1  0
 70227  1  0
 71228  1  0
 71229  1  0
 72230  1  0
 74231  1  0
 74232  1  0
 75233  1  0
 75234  1  0
 78235  1  0
 80236  1  0
 80237  1  0
 81238  1  0
 81239  1  0
 82240  1  0
 82241  1  0
 83242  1  0
 84243  1  0
 84244  1  0
 84245  1  0
 87246  1  0
 88247  1  6
 89248  1  0
 89249  1  0
 90250  1  0
 90251  1  0
 91252  1  0
 91253  1  0
 92254  1  0
 94255  1  0
 94256  1  0
 95257  1  0
 95258  1  0
 98259  1  0
 99260  1  6
100261  1  0
100262  1  0
101263  1  0
101264  1  0
102265  1  0
102266  1  0
103267  1  0
105268  1  0
105269  1  0
106270  1  0
106271  1  0
109272  1  0
110273  1  6
111274  1  0
111275  1  0
112276  1  0
112277  1  0
113278  1  0
113279  1  0
114280  1  0
116281  1  0
116282  1  0
117283  1  0
117284  1  0
120285  1  0
121286  1  6
122287  1  0
122288  1  0
123289  1  0
123290  1  0
124291  1  0
124292  1  0
125293  1  0
127294  1  0
127295  1  0
128296  1  0
128297  1  0
131298  1  0
132299  1  6
133300  1  0
133301  1  0
134302  1  0
134303  1  0
135304  1  0
135305  1  0
136306  1  0
138307  1  0
138308  1  0
139309  1  0
139310  1  0
142311  1  0
143312  1  6
144313  1  0
144314  1  0
145315  1  0
145316  1  0
146317  1  0
146318  1  0
147319  1  0
149320  1  0
149321  1  0
150322  1  0
150323  1  0
153324  1  0
155325  1  0
155326  1  0
156327  1  0
156328  1  0
157329  1  0
157330  1  0
158331  1  0
158332  1  0
159333  1  0
159334  1  0
160335  1  0
160336  1  0
161337  1  0
162338  1  0
162339  1  0
162340  1  0
M  CHG  8  41   1  52   1  63   1  74   1  94   1 105   1 116   1 127   1
M  CHG  3 138   1 149   1 165  -1
M  END
