
     RDKit          2D

364366  0  0  0  0  0  0  0  0999 V2000
  -26.0569   -6.8288    0.0000 N   0  0  0  0  0  0  0  0  0  0  0  0
  -25.1479   -5.6356    0.0000 C   0  0  0  0  0  0  0  0  0  0  0  0
  -25.7267   -4.2518    0.0000 C   0  0  0  0  0  0  0  0  0  0  0  0
  -24.8177   -3.0586    0.0000 C   0  0  0  0  0  0  0  0  0  0  0  0
  -23.3299   -3.2492    0.0000 O   0  0  0  0  0  0  0  0  0  0  0  0
  -25.3965   -1.6748    0.0000 N   0  0  0  0  0  0  0  0  0  0  0  0
  -24.4875   -0.4816    0.0000 C   0  0  0  0  0  0  0  0  0  0  0  0
  -25.8204    0.2064    0.0000 C   0  0  0  0  0  0  0  0  0  0  0  0
  -26.8376    1.3088    0.0000 O   0  0  0  0  0  0  0  0  0  0  0  0
  -27.0827   -0.6039    0.0000 C   0  0  0  0  0  0  0  0  0  0  0  0
  -23.2252    0.3287    0.0000 C   0  0  0  0  0  0  0  0  0  0  0  0
  -23.4779    1.8073    0.0000 O   0  0  0  0  0  0  0  0  0  0  0  0
  -21.8923   -0.3593    0.0000 N   0  0  0  0  0  0  0  0  0  0  0  0
  -20.6300    0.4511    0.0000 C   0  0  0  0  0  0  0  0  0  0  0  0
  -21.6472    1.5535    0.0000 C   0  0  0  0  0  0  0  0  0  0  0  0
  -21.2011    2.9856    0.0000 C   0  0  0  0  0  0  0  0  0  0  0  0
  -22.2183    4.0880    0.0000 C   0  0  0  0  0  0  0  0  0  0  0  0
  -21.7722    5.5201    0.0000 N   0  0  0  0  0  0  0  0  0  0  0  0
  -22.7894    6.6225    0.0000 C   0  0  0  0  0  0  0  0  0  0  0  0
  -22.3433    8.0546    0.0000 N   0  0  0  0  0  0  0  0  0  0  0  0
  -24.2527    6.2928    0.0000 N   0  0  0  0  0  0  0  0  0  0  0  0
  -19.1667    0.7808    0.0000 C   0  0  0  0  0  0  0  0  0  0  0  0
  -18.8985    2.2566    0.0000 O   0  0  0  0  0  0  0  0  0  0  0  0
  -18.1495   -0.3216    0.0000 N   0  0  0  0  0  0  0  0  0  0  0  0
  -16.6862    0.0081    0.0000 C   0  0  0  0  0  0  0  0  0  0  0  0
  -17.2650    1.3919    0.0000 C   0  0  0  0  0  0  0  0  0  0  0  0
  -16.3560    2.5851    0.0000 C   0  0  0  0  0  0  0  0  0  0  0  0
  -16.9348    3.9689    0.0000 C   0  0  0  0  0  0  0  0  0  0  0  0
  -16.0258    5.1621    0.0000 N   0  0  0  0  0  0  0  0  0  0  0  0
  -18.4226    4.1596    0.0000 O   0  0  0  0  0  0  0  0  0  0  0  0
  -15.1983   -0.1825    0.0000 C   0  0  0  0  0  0  0  0  0  0  0  0
  -14.4416    1.1126    0.0000 O   0  0  0  0  0  0  0  0  0  0  0  0
  -14.6195   -1.5664    0.0000 N   0  0  0  0  0  0  0  0  0  0  0  0
  -13.1317   -1.7570    0.0000 C   0  0  0  0  0  0  0  0  0  0  0  0
  -13.2023   -0.2587    0.0000 C   0  0  0  0  0  0  0  0  0  0  0  0
  -11.7988   -2.4450    0.0000 C   0  0  0  0  0  0  0  0  0  0  0  0
  -10.5365   -1.6347    0.0000 O   0  0  0  0  0  0  0  0  0  0  0  0
  -11.7282   -3.9433    0.0000 N   0  0  0  0  0  0  0  0  0  0  0  0
  -10.3953   -4.6313    0.0000 C   0  0  0  0  0  0  0  0  0  0  0  0
  -11.3043   -5.8245    0.0000 C   0  0  0  0  0  0  0  0  0  0  0  0
  -12.7921   -5.6339    0.0000 C   0  0  0  0  0  0  0  0  0  0  0  0
  -13.7011   -6.8271    0.0000 C   0  0  0  0  0  0  0  0  0  0  0  0
  -15.1890   -6.6364    0.0000 N   0  0  0  0  0  0  0  0  0  0  0  0
  -16.0980   -7.8296    0.0000 C   0  0  0  0  0  0  0  0  0  0  0  0
  -17.5858   -7.6390    0.0000 N   0  0  0  0  0  0  0  0  0  0  0  0
  -15.5192   -9.2135    0.0000 N   0  0  0  0  0  0  0  0  0  0  0  0
   -8.9074   -4.8220    0.0000 C   0  0  0  0  0  0  0  0  0  0  0  0
   -8.5016   -6.2660    0.0000 O   0  0  0  0  0  0  0  0  0  0  0  0
   -7.9984   -3.6288    0.0000 N   0  0  0  0  0  0  0  0  0  0  0  0
   -6.5106   -3.8194    0.0000 C   0  0  0  0  0  0  0  0  0  0  0  0
   -6.9567   -5.2516    0.0000 C   0  0  0  0  0  0  0  0  0  0  0  0
   -5.9395   -6.3540    0.0000 C   0  0  0  0  0  0  0  0  0  0  0  0
   -6.3856   -7.7861    0.0000 C   0  0  0  0  0  0  0  0  0  0  0  0
   -5.3684   -8.8885    0.0000 N   0  0  0  0  0  0  0  0  0  0  0  0
   -5.8145  -10.3206    0.0000 C   0  0  0  0  0  0  0  0  0  0  0  0
   -4.7973  -11.4230    0.0000 N   0  0  0  0  0  0  0  0  0  0  0  0
   -7.2778  -10.6504    0.0000 N   0  0  0  0  0  0  0  0  0  0  0  0
   -5.0473   -3.4897    0.0000 C   0  0  0  0  0  0  0  0  0  0  0  0
   -4.0301   -4.5921    0.0000 O   0  0  0  0  0  0  0  0  0  0  0  0
   -4.6012   -2.0576    0.0000 N   0  0  0  0  0  0  0  0  0  0  0  0
   -3.1378   -1.7279    0.0000 C   0  0  0  0  0  0  0  0  0  0  0  0
   -3.7167   -0.3440    0.0000 C   0  0  0  0  0  0  0  0  0  0  0  0
   -5.2045   -0.1534    0.0000 C   0  0  0  0  0  0  0  0  0  0  0  0
   -6.1010    1.0492    0.0000 N   0  0  0  0  0  0  0  0  0  0  0  0
   -6.1135   -1.3466    0.0000 O   0  0  0  0  0  0  0  0  0  0  0  0
   -1.6500   -1.9185    0.0000 C   0  0  0  0  0  0  0  0  0  0  0  0
   -0.8932   -0.6234    0.0000 O   0  0  0  0  0  0  0  0  0  0  0  0
   -1.0712   -3.3023    0.0000 N   0  0  0  0  0  0  0  0  0  0  0  0
    0.4166   -3.4930    0.0000 C   0  0  0  0  0  0  0  0  0  0  0  0
    1.1660   -4.7924    0.0000 C   0  0  0  0  0  0  0  0  0  0  0  0
    2.1477   -5.9265    0.0000 C   0  0  0  0  0  0  0  0  0  0  0  0
    3.3263   -6.8543    0.0000 C   0  0  0  0  0  0  0  0  0  0  0  0
    4.6592   -7.5423    0.0000 C   0  0  0  0  0  0  0  0  0  0  0  0
    6.0983   -7.9657    0.0000 C   0  0  0  0  0  0  0  0  0  0  0  0
    7.5914   -8.1090    0.0000 C   0  0  0  0  0  0  0  0  0  0  0  0
    9.0847   -7.9672    0.0000 C   0  0  0  0  0  0  0  0  0  0  0  0
   -0.5608   -4.6307    0.0000 C   0  0  0  0  0  0  0  0  0  0  0  0
   -0.0732   -2.0752    0.0000 C   0  0  0  0  0  0  0  0  0  0  0  0
   -0.8704   -2.0697    0.0000 O   0  0  0  0  0  0  0  0  0  0  0  0
   -0.2860   -0.5904    0.0000 N   0  0  0  0  0  0  0  0  0  0  0  0
   -0.2138    0.9079    0.0000 C   0  0  0  0  0  0  0  0  0  0  0  0
   -1.5883    0.3072    0.0000 C   0  0  0  0  0  0  0  0  0  0  0  0
   -2.7958    1.1972    0.0000 C   0  0  0  0  0  0  0  0  0  0  0  0
   -4.1702    0.5965    0.0000 C   0  0  0  0  0  0  0  0  0  0  0  0
   -5.3777    1.4864    0.0000 N   0  0  0  0  0  0  0  0  0  0  0  0
   -6.7522    0.8857    0.0000 C   0  0  0  0  0  0  0  0  0  0  0  0
   -8.0591    1.6219    0.0000 N   0  0  0  0  0  0  0  0  0  0  0  0
   -6.9192   -0.6049    0.0000 N   0  0  0  0  0  0  0  0  0  0  0  0
    0.1405    2.3654    0.0000 C   0  0  0  0  0  0  0  0  0  0  0  0
   -1.2063    3.0258    0.0000 O   0  0  0  0  0  0  0  0  0  0  0  0
    0.7643    3.7296    0.0000 N   0  0  0  0  0  0  0  0  0  0  0  0
    1.6350    4.9510    0.0000 C   0  0  0  0  0  0  0  0  0  0  0  0
    0.1540    5.1887    0.0000 C   0  0  0  0  0  0  0  0  0  0  0  0
   -0.3806    6.5902    0.0000 C   0  0  0  0  0  0  0  0  0  0  0  0
   -1.8617    6.8280    0.0000 C   0  0  0  0  0  0  0  0  0  0  0  0
   -2.3963    8.2295    0.0000 N   0  0  0  0  0  0  0  0  0  0  0  0
   -3.8773    8.4672    0.0000 C   0  0  0  0  0  0  0  0  0  0  0  0
   -4.4119    9.8687    0.0000 N   0  0  0  0  0  0  0  0  0  0  0  0
   -4.8237    7.3035    0.0000 N   0  0  0  0  0  0  0  0  0  0  0  0
    2.7212    5.9856    0.0000 C   0  0  0  0  0  0  0  0  0  0  0  0
    1.9452    7.2693    0.0000 O   0  0  0  0  0  0  0  0  0  0  0  0
    3.9835    6.7959    0.0000 N   0  0  0  0  0  0  0  0  0  0  0  0
    5.3763    7.3527    0.0000 C   0  0  0  0  0  0  0  0  0  0  0  0
    4.2589    8.3534    0.0000 C   0  0  0  0  0  0  0  0  0  0  0  0
    4.5668    9.8214    0.0000 C   0  0  0  0  0  0  0  0  0  0  0  0
    3.4495   10.8222    0.0000 C   0  0  0  0  0  0  0  0  0  0  0  0
    3.7574   12.2902    0.0000 N   0  0  0  0  0  0  0  0  0  0  0  0
    2.6400   13.2909    0.0000 C   0  0  0  0  0  0  0  0  0  0  0  0
    2.9480   14.7590    0.0000 N   0  0  0  0  0  0  0  0  0  0  0  0
    1.2147   12.8236    0.0000 N   0  0  0  0  0  0  0  0  0  0  0  0
    6.8493    7.6358    0.0000 C   0  0  0  0  0  0  0  0  0  0  0  0
    6.8906    9.1353    0.0000 O   0  0  0  0  0  0  0  0  0  0  0  0
    8.3493    7.6351    0.0000 N   0  0  0  0  0  0  0  0  0  0  0  0
    9.8221    7.3504    0.0000 C   0  0  0  0  0  0  0  0  0  0  0  0
    9.4231    8.7964    0.0000 C   0  0  0  0  0  0  0  0  0  0  0  0
   10.4758    9.8649    0.0000 C   0  0  0  0  0  0  0  0  0  0  0  0
   11.9591    9.6413    0.0000 C   0  0  0  0  0  0  0  0  0  0  0  0
   12.6301   10.9828    0.0000 N   0  0  0  0  0  0  0  0  0  0  0  0
   11.5616   12.0356    0.0000 C   0  0  0  0  0  0  0  0  0  0  0  0
   11.6290   13.5341    0.0000 C   0  0  0  0  0  0  0  0  0  0  0  0
   10.3649   14.3416    0.0000 C   0  0  0  0  0  0  0  0  0  0  0  0
    9.0335   13.6507    0.0000 C   0  0  0  0  0  0  0  0  0  0  0  0
    8.9661   12.1523    0.0000 C   0  0  0  0  0  0  0  0  0  0  0  0
   10.2302   11.3447    0.0000 C   0  0  0  0  0  0  0  0  0  0  0  0
   11.2143    6.7922    0.0000 C   0  0  0  0  0  0  0  0  0  0  0  0
   12.0597    8.0313    0.0000 O   0  0  0  0  0  0  0  0  0  0  0  0
   12.4758    5.9807    0.0000 N   0  0  0  0  0  0  0  0  0  0  0  0
   13.5609    4.9450    0.0000 C   0  0  0  0  0  0  0  0  0  0  0  0
   14.0070    6.3771    0.0000 C   0  0  0  0  0  0  0  0  0  0  0  0
   15.4703    6.7068    0.0000 C   0  0  0  0  0  0  0  0  0  0  0  0
   15.9164    8.1390    0.0000 C   0  0  0  0  0  0  0  0  0  0  0  0
   17.3797    8.4687    0.0000 N   0  0  0  0  0  0  0  0  0  0  0  0
   17.8258    9.9008    0.0000 C   0  0  0  0  0  0  0  0  0  0  0  0
   19.2891   10.2306    0.0000 N   0  0  0  0  0  0  0  0  0  0  0  0
   16.8086   11.0032    0.0000 N   0  0  0  0  0  0  0  0  0  0  0  0
   14.4304    3.7227    0.0000 C   0  0  0  0  0  0  0  0  0  0  0  0
   15.8114    4.3080    0.0000 O   0  0  0  0  0  0  0  0  0  0  0  0
   15.0528    2.3579    0.0000 N   0  0  0  0  0  0  0  0  0  0  0  0
   15.4057    0.9000    0.0000 C   0  0  0  0  0  0  0  0  0  0  0  0
   16.5553    1.8636    0.0000 C   0  0  0  0  0  0  0  0  0  0  0  0
   17.9645    1.3499    0.0000 C   0  0  0  0  0  0  0  0  0  0  0  0
   19.1141    2.3135    0.0000 C   0  0  0  0  0  0  0  0  0  0  0  0
   20.5234    1.7998    0.0000 O   0  0  0  0  0  0  0  0  0  0  0  0
   18.8544    3.7908    0.0000 O   0  0  0  0  0  0  0  0  0  0  0  0
   15.4763   -0.5983    0.0000 C   0  0  0  0  0  0  0  0  0  0  0  0
   16.9546   -0.8525    0.0000 O   0  0  0  0  0  0  0  0  0  0  0  0
   15.2621   -2.0829    0.0000 N   0  0  0  0  0  0  0  0  0  0  0  0
   14.7708   -3.5002    0.0000 C   0  0  0  0  0  0  0  0  0  0  0  0
   14.0201   -4.7988    0.0000 C   0  0  0  0  0  0  0  0  0  0  0  0
   13.0373   -5.9320    0.0000 C   0  0  0  0  0  0  0  0  0  0  0  0
   11.8577   -6.8586    0.0000 C   0  0  0  0  0  0  0  0  0  0  0  0
   10.5241   -7.5453    0.0000 C   0  0  0  0  0  0  0  0  0  0  0  0
   15.7471   -4.6389    0.0000 C   0  0  0  0  0  0  0  0  0  0  0  0
   16.2588   -3.3110    0.0000 C   0  0  0  0  0  0  0  0  0  0  0  0
   17.0033   -2.0089    0.0000 O   0  0  0  0  0  0  0  0  0  0  0  0
   17.1666   -4.5051    0.0000 N   0  0  0  0  0  0  0  0  0  0  0  0
   18.6547   -4.3160    0.0000 C   0  0  0  0  0  0  0  0  0  0  0  0
   19.9883   -3.6293    0.0000 C   0  0  0  0  0  0  0  0  0  0  0  0
   21.2497   -4.4409    0.0000 C   0  0  0  0  0  0  0  0  0  0  0  0
   22.5833   -3.7543    0.0000 C   0  0  0  0  0  0  0  0  0  0  0  0
   23.9343   -4.4060    0.0000 N   0  0  0  0  0  0  0  0  0  0  0  0
   22.6555   -2.2560    0.0000 O   0  0  0  0  0  0  0  0  0  0  0  0
   19.5625   -5.5101    0.0000 C   0  0  0  0  0  0  0  0  0  0  0  0
   18.9823   -6.8934    0.0000 O   0  0  0  0  0  0  0  0  0  0  0  0
   21.0505   -5.3210    0.0000 N   0  0  0  0  0  0  0  0  0  0  0  0
   21.9583   -6.5151    0.0000 C   0  0  0  0  0  0  0  0  0  0  0  0
   22.4030   -7.9476    0.0000 C   0  0  0  0  0  0  0  0  0  0  0  0
   21.3846   -9.0490    0.0000 C   0  0  0  0  0  0  0  0  0  0  0  0
   21.8293  -10.4816    0.0000 C   0  0  0  0  0  0  0  0  0  0  0  0
   20.8110  -11.5830    0.0000 N   0  0  0  0  0  0  0  0  0  0  0  0
   21.2556  -13.0156    0.0000 C   0  0  0  0  0  0  0  0  0  0  0  0
   20.2373  -14.1169    0.0000 N   0  0  0  0  0  0  0  0  0  0  0  0
   22.7186  -13.3468    0.0000 N   0  0  0  0  0  0  0  0  0  0  0  0
   23.4463   -6.3259    0.0000 C   0  0  0  0  0  0  0  0  0  0  0  0
   24.4929   -7.4005    0.0000 O   0  0  0  0  0  0  0  0  0  0  0  0
   24.1908   -5.0237    0.0000 O   0  0  0  0  0  0  0  0  0  0  0  0
  -25.4781   -8.2126    0.0000 H   0  0  0  0  0  0  0  0  0  0  0  0
  -27.5447   -6.6381    0.0000 H   0  0  0  0  0  0  0  0  0  0  0  0
  -24.1307   -6.7380    0.0000 H   0  0  0  0  0  0  0  0  0  0  0  0
  -23.8856   -4.8253    0.0000 H   0  0  0  0  0  0  0  0  0  0  0  0
  -26.9890   -5.0621    0.0000 H   0  0  0  0  0  0  0  0  0  0  0  0
  -26.7439   -3.1494    0.0000 H   0  0  0  0  0  0  0  0  0  0  0  0
  -26.8965   -1.6669    0.0000 H   0  0  0  0  0  0  0  0  0  0  0  0
  -23.4703   -1.5840    0.0000 H   0  0  0  0  0  0  0  0  0  0  0  0
  -24.9114    1.3996    0.0000 H   0  0  0  0  0  0  0  0  0  0  0  0
  -28.3302    1.1599    0.0000 H   0  0  0  0  0  0  0  0  0  0  0  0
  -28.4895   -0.0835    0.0000 H   0  0  0  0  0  0  0  0  0  0  0  0
  -27.9917   -1.7971    0.0000 H   0  0  0  0  0  0  0  0  0  0  0  0
  -26.5282   -1.9977    0.0000 H   0  0  0  0  0  0  0  0  0  0  0  0
  -21.8217   -1.8576    0.0000 H   0  0  0  0  0  0  0  0  0  0  0  0
  -20.0512   -0.9328    0.0000 H   0  0  0  0  0  0  0  0  0  0  0  0
  -22.9801    2.2415    0.0000 H   0  0  0  0  0  0  0  0  0  0  0  0
  -22.8179    0.6157    0.0000 H   0  0  0  0  0  0  0  0  0  0  0  0
  -20.2921    4.1788    0.0000 H   0  0  0  0  0  0  0  0  0  0  0  0
  -19.8682    2.2976    0.0000 H   0  0  0  0  0  0  0  0  0  0  0  0
  -23.5512    4.7760    0.0000 H   0  0  0  0  0  0  0  0  0  0  0  0
  -23.2660    3.0145    0.0000 H   0  0  0  0  0  0  0  0  0  0  0  0
  -20.3089    5.8498    0.0000 H   0  0  0  0  0  0  0  0  0  0  0  0
  -23.3605    9.1570    0.0000 H   0  0  0  0  0  0  0  0  0  0  0  0
  -20.8800    8.3844    0.0000 H   0  0  0  0  0  0  0  0  0  0  0  0
  -25.2700    7.3952    0.0000 H   0  0  0  0  0  0  0  0  0  0  0  0
  -24.6989    4.8607    0.0000 H   0  0  0  0  0  0  0  0  0  0  0  0
  -18.5956   -1.7537    0.0000 H   0  0  0  0  0  0  0  0  0  0  0  0
  -16.6156   -1.4902    0.0000 H   0  0  0  0  0  0  0  0  0  0  0  0
  -18.1403    2.6101    0.0000 H   0  0  0  0  0  0  0  0  0  0  0  0
  -18.6859    0.9111    0.0000 H   0  0  0  0  0  0  0  0  0  0  0  0
  -15.0937    3.3954    0.0000 H   0  0  0  0  0  0  0  0  0  0  0  0
  -15.3388    1.4827    0.0000 H   0  0  0  0  0  0  0  0  0  0  0  0
  -16.6046    6.5460    0.0000 H   0  0  0  0  0  0  0  0  0  0  0  0
  -14.5380    4.9715    0.0000 H   0  0  0  0  0  0  0  0  0  0  0  0
  -15.5285   -2.7595    0.0000 H   0  0  0  0  0  0  0  0  0  0  0  0
  -13.5778   -3.1891    0.0000 H   0  0  0  0  0  0  0  0  0  0  0  0
  -14.4414    0.5867    0.0000 H   0  0  0  0  0  0  0  0  0  0  0  0
  -12.7562    1.1735    0.0000 H   0  0  0  0  0  0  0  0  0  0  0  0
  -11.7145   -0.4493    0.0000 H   0  0  0  0  0  0  0  0  0  0  0  0
  -13.0798   -4.5938    0.0000 H   0  0  0  0  0  0  0  0  0  0  0  0
   -9.9492   -3.1992    0.0000 H   0  0  0  0  0  0  0  0  0  0  0  0
  -11.5725   -7.3004    0.0000 H   0  0  0  0  0  0  0  0  0  0  0  0
   -9.9714   -6.5125    0.0000 H   0  0  0  0  0  0  0  0  0  0  0  0
  -14.1250   -4.9459    0.0000 H   0  0  0  0  0  0  0  0  0  0  0  0
  -12.8890   -4.1370    0.0000 H   0  0  0  0  0  0  0  0  0  0  0  0
  -14.1472   -8.2592    0.0000 H   0  0  0  0  0  0  0  0  0  0  0  0
  -12.4620   -7.6724    0.0000 H   0  0  0  0  0  0  0  0  0  0  0  0
  -15.7678   -5.2526    0.0000 H   0  0  0  0  0  0  0  0  0  0  0  0
  -18.4948   -8.8322    0.0000 H   0  0  0  0  0  0  0  0  0  0  0  0
  -18.1646   -6.2552    0.0000 H   0  0  0  0  0  0  0  0  0  0  0  0
  -16.4282  -10.4066    0.0000 H   0  0  0  0  0  0  0  0  0  0  0  0
  -14.0313   -9.4041    0.0000 H   0  0  0  0  0  0  0  0  0  0  0  0
   -8.5772   -2.2450    0.0000 H   0  0  0  0  0  0  0  0  0  0  0  0
   -6.5812   -2.3211    0.0000 H   0  0  0  0  0  0  0  0  0  0  0  0
   -7.8657   -6.4448    0.0000 H   0  0  0  0  0  0  0  0  0  0  0  0
   -8.4165   -4.9065    0.0000 H   0  0  0  0  0  0  0  0  0  0  0  0
   -4.6066   -7.0420    0.0000 H   0  0  0  0  0  0  0  0  0  0  0  0
   -5.0305   -5.1608    0.0000 H   0  0  0  0  0  0  0  0  0  0  0  0
   -7.2946   -8.9793    0.0000 H   0  0  0  0  0  0  0  0  0  0  0  0
   -7.7924   -7.2657    0.0000 H   0  0  0  0  0  0  0  0  0  0  0  0
   -3.9050   -8.5588    0.0000 H   0  0  0  0  0  0  0  0  0  0  0  0
   -5.2434  -12.8552    0.0000 H   0  0  0  0  0  0  0  0  0  0  0  0
   -3.3339  -11.0933    0.0000 H   0  0  0  0  0  0  0  0  0  0  0  0
   -7.7239  -12.0825    0.0000 H   0  0  0  0  0  0  0  0  0  0  0  0
   -8.2950   -9.5480    0.0000 H   0  0  0  0  0  0  0  0  0  0  0  0
   -5.9459   -1.3930    0.0000 H   0  0  0  0  0  0  0  0  0  0  0  0
   -3.0672   -3.2262    0.0000 H   0  0  0  0  0  0  0  0  0  0  0  0
   -4.1477    1.0927    0.0000 H   0  0  0  0  0  0  0  0  0  0  0  0
   -2.2699   -0.7400    0.0000 H   0  0  0  0  0  0  0  0  0  0  0  0
   -7.3078    1.2757    0.0000 H   0  0  0  0  0  0  0  0  0  0  0  0
   -5.0510    2.5629    0.0000 H   0  0  0  0  0  0  0  0  0  0  0  0
   -2.1189   -4.3758    0.0000 H   0  0  0  0  0  0  0  0  0  0  0  0
    0.4215   -6.0946    0.0000 H   0  0  0  0  0  0  0  0  0  0  0  0
   -0.3084   -5.0685    0.0000 H   0  0  0  0  0  0  0  0  0  0  0  0
    1.6631   -7.3461    0.0000 H   0  0  0  0  0  0  0  0  0  0  0  0
    0.7523   -6.4767    0.0000 H   0  0  0  0  0  0  0  0  0  0  0  0
    3.1191   -8.3399    0.0000 H   0  0  0  0  0  0  0  0  0  0  0  0
    2.0602   -7.6587    0.0000 H   0  0  0  0  0  0  0  0  0  0  0  0
    4.7369   -9.0403    0.0000 H   0  0  0  0  0  0  0  0  0  0  0  0
    3.5682   -8.5718    0.0000 H   0  0  0  0  0  0  0  0  0  0  0  0
    6.4581   -9.4219    0.0000 H   0  0  0  0  0  0  0  0  0  0  0  0
    5.2218   -9.1829    0.0000 H   0  0  0  0  0  0  0  0  0  0  0  0
    8.3816   -9.3840    0.0000 H   0  0  0  0  0  0  0  0  0  0  0  0
    6.9611   -9.4702    0.0000 H   0  0  0  0  0  0  0  0  0  0  0  0
    9.3678   -9.4402    0.0000 H   0  0  0  0  0  0  0  0  0  0  0  0
   -1.8999   -4.8101    0.0000 H   0  0  0  0  0  0  0  0  0  0  0  0
   -0.7692   -6.1989    0.0000 H   0  0  0  0  0  0  0  0  0  0  0  0
    0.7414   -5.6901    0.0000 H   0  0  0  0  0  0  0  0  0  0  0  0
   -1.7227   -1.0214    0.0000 H   0  0  0  0  0  0  0  0  0  0  0  0
   -1.2363    2.0055    0.0000 H   0  0  0  0  0  0  0  0  0  0  0  0
   -2.5402   -0.8521    0.0000 H   0  0  0  0  0  0  0  0  0  0  0  0
   -0.9165   -1.0340    0.0000 H   0  0  0  0  0  0  0  0  0  0  0  0
   -3.6260    2.4464    0.0000 H   0  0  0  0  0  0  0  0  0  0  0  0
   -1.9923    2.4638    0.0000 H   0  0  0  0  0  0  0  0  0  0  0  0
   -5.5550    0.0199    0.0000 H   0  0  0  0  0  0  0  0  0  0  0  0
   -3.1939   -0.5423    0.0000 H   0  0  0  0  0  0  0  0  0  0  0  0
   -5.0302    2.9456    0.0000 H   0  0  0  0  0  0  0  0  0  0  0  0
   -9.3341    1.1750    0.0000 H   0  0  0  0  0  0  0  0  0  0  0  0
   -7.7926    3.2664    0.0000 H   0  0  0  0  0  0  0  0  0  0  0  0
   -8.2936   -1.2056    0.0000 H   0  0  0  0  0  0  0  0  0  0  0  0
   -5.9629   -1.7606    0.0000 H   0  0  0  0  0  0  0  0  0  0  0  0
   -0.6161    4.3163    0.0000 H   0  0  0  0  0  0  0  0  0  0  0  0
    1.3683    6.4271    0.0000 H   0  0  0  0  0  0  0  0  0  0  0  0
   -1.3190    4.9056    0.0000 H   0  0  0  0  0  0  0  0  0  0  0  0
   -0.1866    3.7279    0.0000 H   0  0  0  0  0  0  0  0  0  0  0  0
   -0.4037    8.0901    0.0000 H   0  0  0  0  0  0  0  0  0  0  0  0
    0.9801    7.2214    0.0000 H   0  0  0  0  0  0  0  0  0  0  0  0
   -3.3347    6.5448    0.0000 H   0  0  0  0  0  0  0  0  0  0  0  0
   -2.0216    5.3365    0.0000 H   0  0  0  0  0  0  0  0  0  0  0  0
   -1.4499    9.3932    0.0000 H   0  0  0  0  0  0  0  0  0  0  0  0
   -5.8930   10.1065    0.0000 H   0  0  0  0  0  0  0  0  0  0  0  0
   -3.4655   11.0325    0.0000 H   0  0  0  0  0  0  0  0  0  0  0  0
   -6.3048    7.5412    0.0000 H   0  0  0  0  0  0  0  0  0  0  0  0
   -4.2891    5.9020    0.0000 H   0  0  0  0  0  0  0  0  0  0  0  0
    3.1393    8.0358    0.0000 H   0  0  0  0  0  0  0  0  0  0  0  0
    5.9499    8.7387    0.0000 H   0  0  0  0  0  0  0  0  0  0  0  0
    2.8666    8.9116    0.0000 H   0  0  0  0  0  0  0  0  0  0  0  0
    3.1826    7.3086    0.0000 H   0  0  0  0  0  0  0  0  0  0  0  0
    5.3583   11.0956    0.0000 H   0  0  0  0  0  0  0  0  0  0  0  0
    6.0528    9.6167    0.0000 H   0  0  0  0  0  0  0  0  0  0  0  0
    2.0572   11.3804    0.0000 H   0  0  0  0  0  0  0  0  0  0  0  0
    2.5086    9.6540    0.0000 H   0  0  0  0  0  0  0  0  0  0  0  0
    5.1827   12.7575    0.0000 H   0  0  0  0  0  0  0  0  0  0  0  0
    1.8306   15.7597    0.0000 H   0  0  0  0  0  0  0  0  0  0  0  0
    4.3733   15.2263    0.0000 H   0  0  0  0  0  0  0  0  0  0  0  0
    0.0973   13.8243    0.0000 H   0  0  0  0  0  0  0  0  0  0  0  0
    0.9067   11.3556    0.0000 H   0  0  0  0  0  0  0  0  0  0  0  0
    8.3096    9.1345    0.0000 H   0  0  0  0  0  0  0  0  0  0  0  0
   10.9405    8.3500    0.0000 H   0  0  0  0  0  0  0  0  0  0  0  0
    8.7091   10.1156    0.0000 H   0  0  0  0  0  0  0  0  0  0  0  0
    7.9528    8.4993    0.0000 H   0  0  0  0  0  0  0  0  0  0  0  0
   12.8071    8.4040    0.0000 H   0  0  0  0  0  0  0  0  0  0  0  0
   14.1099   11.2285    0.0000 H   0  0  0  0  0  0  0  0  0  0  0  0
   12.9604   14.2249    0.0000 H   0  0  0  0  0  0  0  0  0  0  0  0
   10.4323   15.8401    0.0000 H   0  0  0  0  0  0  0  0  0  0  0  0
    7.7695   14.4583    0.0000 H   0  0  0  0  0  0  0  0  0  0  0  0
    7.6347   11.4614    0.0000 H   0  0  0  0  0  0  0  0  0  0  0  0
   13.2531    7.2636    0.0000 H   0  0  0  0  0  0  0  0  0  0  0  0
   15.0599    4.9989    0.0000 H   0  0  0  0  0  0  0  0  0  0  0  0
   13.9364    7.8755    0.0000 H   0  0  0  0  0  0  0  0  0  0  0  0
   12.6095    6.9221    0.0000 H   0  0  0  0  0  0  0  0  0  0  0  0
   16.9581    6.5162    0.0000 H   0  0  0  0  0  0  0  0  0  0  0  0
   15.9014    5.2701    0.0000 H   0  0  0  0  0  0  0  0  0  0  0  0
   15.8458    9.6373    0.0000 H   0  0  0  0  0  0  0  0  0  0  0  0
   14.4629    8.5096    0.0000 H   0  0  0  0  0  0  0  0  0  0  0  0
   18.3969    7.3663    0.0000 H   0  0  0  0  0  0  0  0  0  0  0  0
   19.7352   11.6627    0.0000 H   0  0  0  0  0  0  0  0  0  0  0  0
   20.3063    9.1282    0.0000 H   0  0  0  0  0  0  0  0  0  0  0  0
   17.2547   12.4354    0.0000 H   0  0  0  0  0  0  0  0  0  0  0  0
   15.3453   10.6735    0.0000 H   0  0  0  0  0  0  0  0  0  0  0  0
   16.4003    3.0170    0.0000 H   0  0  0  0  0  0  0  0  0  0  0  0
   16.6959    0.1350    0.0000 H   0  0  0  0  0  0  0  0  0  0  0  0
   17.4586    3.0611    0.0000 H   0  0  0  0  0  0  0  0  0  0  0  0
   15.6743    3.0776    0.0000 H   0  0  0  0  0  0  0  0  0  0  0  0
   19.1131    0.3851    0.0000 H   0  0  0  0  0  0  0  0  0  0  0  0
   17.5504   -0.0918    0.0000 H   0  0  0  0  0  0  0  0  0  0  0  0
   16.7520   -2.2570    0.0000 H   0  0  0  0  0  0  0  0  0  0  0  0
   15.4942   -5.0765    0.0000 H   0  0  0  0  0  0  0  0  0  0  0  0
   14.5990   -6.1827    0.0000 H   0  0  0  0  0  0  0  0  0  0  0  0
   14.3545   -6.6495    0.0000 H   0  0  0  0  0  0  0  0  0  0  0  0
   13.5204   -7.3520    0.0000 H   0  0  0  0  0  0  0  0  0  0  0  0
   13.1230   -7.6642    0.0000 H   0  0  0  0  0  0  0  0  0  0  0  0
   11.8808   -8.3584    0.0000 H   0  0  0  0  0  0  0  0  0  0  0  0
   11.0809   -8.9381    0.0000 H   0  0  0  0  0  0  0  0  0  0  0  0
   15.3103   -6.2466    0.0000 H   0  0  0  0  0  0  0  0  0  0  0  0
   16.6786   -5.7613    0.0000 H   0  0  0  0  0  0  0  0  0  0  0  0
   16.8828   -3.9698    0.0000 H   0  0  0  0  0  0  0  0  0  0  0  0
   16.7593   -5.9488    0.0000 H   0  0  0  0  0  0  0  0  0  0  0  0
   18.2100   -2.8834    0.0000 H   0  0  0  0  0  0  0  0  0  0  0  0
   21.0066   -2.5280    0.0000 H   0  0  0  0  0  0  0  0  0  0  0  0
   19.0804   -2.4352    0.0000 H   0  0  0  0  0  0  0  0  0  0  0  0
   22.1575   -5.6350    0.0000 H   0  0  0  0  0  0  0  0  0  0  0  0
   20.8678   -5.8915    0.0000 H   0  0  0  0  0  0  0  0  0  0  0  0
   25.1784   -3.8792    0.0000 H   0  0  0  0  0  0  0  0  0  0  0  0
   24.1787   -6.0540    0.0000 H   0  0  0  0  0  0  0  0  0  0  0  0
   21.9482   -4.1192    0.0000 H   0  0  0  0  0  0  0  0  0  0  0  0
   20.5510   -7.0341    0.0000 H   0  0  0  0  0  0  0  0  0  0  0  0
   23.4496   -9.0222    0.0000 H   0  0  0  0  0  0  0  0  0  0  0  0
   23.8103   -7.4287    0.0000 H   0  0  0  0  0  0  0  0  0  0  0  0
   20.0510   -9.7357    0.0000 H   0  0  0  0  0  0  0  0  0  0  0  0
   20.3380   -7.9745    0.0000 H   0  0  0  0  0  0  0  0  0  0  0  0
   22.7371  -11.6757    0.0000 H   0  0  0  0  0  0  0  0  0  0  0  0
   23.2367   -9.9626    0.0000 H   0  0  0  0  0  0  0  0  0  0  0  0
   19.3480  -11.2518    0.0000 H   0  0  0  0  0  0  0  0  0  0  0  0
   20.6820  -15.5495    0.0000 H   0  0  0  0  0  0  0  0  0  0  0  0
   18.7743  -13.7857    0.0000 H   0  0  0  0  0  0  0  0  0  0  0  0
   23.1633  -14.7793    0.0000 H   0  0  0  0  0  0  0  0  0  0  0  0
   23.7369  -12.2454    0.0000 H   0  0  0  0  0  0  0  0  0  0  0  0
  1  2  1  0
  2  3  1  0
  3  4  1  0
  4  5  2  0
  4  6  1  0
  6  7  1  0
  7  8  1  0
  8  9  1  0
  8 10  1  0
  7 11  1  0
 11 12  2  0
 11 13  1  0
 13 14  1  0
 14 15  1  0
 15 16  1  0
 16 17  1  0
 17 18  1  0
 18 19  1  0
 19 20  2  3
 19 21  1  0
 14 22  1  0
 22 23  2  0
 22 24  1  0
 24 25  1  0
 25 26  1  0
 26 27  1  0
 27 28  1  0
 28 29  1  0
 28 30  2  0
 25 31  1  0
 31 32  2  0
 31 33  1  0
 33 34  1  0
 34 35  1  0
 34 36  1  0
 36 37  2  0
 36 38  1  0
 38 39  1  0
 39 40  1  0
 40 41  1  0
 41 42  1  0
 42 43  1  0
 43 44  1  0
 44 45  2  3
 44 46  1  0
 39 47  1  0
 47 48  2  0
 47 49  1  0
 49 50  1  0
 50 51  1  0
 51 52  1  0
 52 53  1  0
 53 54  1  0
 54 55  1  0
 55 56  2  3
 55 57  1  0
 50 58  1  0
 58 59  2  0
 58 60  1  0
 60 61  1  0
 61 62  1  0
 62 63  1  0
 63 64  1  0
 63 65  2  0
 61 66  1  0
 66 67  2  0
 66 68  1  0
 69 68  1  1
 69 70  1  0
 70 71  1  0
 71 72  1  0
 72 73  1  0
 73 74  1  0
 74 75  1  0
 75 76  1  0
 69 77  1  0
 69 78  1  0
 78 79  2  0
 78 80  1  0
 80 81  1  0
 81 82  1  0
 82 83  1  0
 83 84  1  0
 84 85  1  0
 85 86  1  0
 86 87  2  3
 86 88  1  0
 81 89  1  0
 89 90  2  0
 89 91  1  0
 91 92  1  0
 92 93  1  0
 93 94  1  0
 94 95  1  0
 95 96  1  0
 96 97  1  0
 97 98  2  3
 97 99  1  0
 92100  1  0
100101  2  0
100102  1  0
102103  1  0
103104  1  0
104105  1  0
105106  1  0
106107  1  0
107108  1  0
108109  2  3
108110  1  0
103111  1  0
111112  2  0
111113  1  0
113114  1  0
114115  1  0
115116  1  0
116117  2  0
117118  1  0
118119  1  0
119120  2  0
120121  1  0
121122  2  0
122123  1  0
123124  2  0
114125  1  0
125126  2  0
125127  1  0
127128  1  0
128129  1  0
129130  1  0
130131  1  0
131132  1  0
132133  1  0
133134  2  3
133135  1  0
128136  1  0
136137  2  0
136138  1  0
138139  1  0
139140  1  0
140141  1  0
141142  1  0
142143  2  0
142144  1  0
139145  1  0
145146  2  0
145147  1  0
147148  1  0
148149  1  0
149150  1  0
150151  1  0
151152  1  0
148153  1  0
148154  1  6
154155  2  0
154156  1  0
156157  1  0
157158  1  0
158159  1  0
159160  1  0
160161  1  0
160162  2  0
157163  1  0
163164  2  0
163165  1  0
165166  1  0
166167  1  0
167168  1  0
168169  1  0
169170  1  0
170171  1  0
171172  2  3
171173  1  0
166174  1  0
174175  2  0
174176  1  0
124116  1  0
124119  1  0
 76152  2  0
  1177  1  0
  1178  1  0
  2179  1  0
  2180  1  0
  3181  1  0
  3182  1  0
  6183  1  0
  7184  1  1
  8185  1  6
  9186  1  0
 10187  1  0
 10188  1  0
 10189  1  0
 13190  1  0
 14191  1  1
 15192  1  0
 15193  1  0
 16194  1  0
 16195  1  0
 17196  1  0
 17197  1  0
 18198  1  0
 20199  1  0
 20200  1  0
 21201  1  0
 21202  1  0
 24203  1  0
 25204  1  1
 26205  1  0
 26206  1  0
 27207  1  0
 27208  1  0
 29209  1  0
 29210  1  0
 33211  1  0
 34212  1  1
 35213  1  0
 35214  1  0
 35215  1  0
 38216  1  0
 39217  1  6
 40218  1  0
 40219  1  0
 41220  1  0
 41221  1  0
 42222  1  0
 42223  1  0
 43224  1  0
 45225  1  0
 45226  1  0
 46227  1  0
 46228  1  0
 49229  1  0
 50230  1  6
 51231  1  0
 51232  1  0
 52233  1  0
 52234  1  0
 53235  1  0
 53236  1  0
 54237  1  0
 56238  1  0
 56239  1  0
 57240  1  0
 57241  1  0
 60242  1  0
 61243  1  1
 62244  1  0
 62245  1  0
 64246  1  0
 64247  1  0
 68248  1  0
 70249  1  0
 70250  1  0
 71251  1  0
 71252  1  0
 72253  1  0
 72254  1  0
 73255  1  0
 73256  1  0
 74257  1  0
 74258  1  0
 75259  1  0
 75260  1  0
 76261  1  0
 77262  1  0
 77263  1  0
 77264  1  0
 80265  1  0
 81266  1  1
 82267  1  0
 82268  1  0
 83269  1  0
 83270  1  0
 84271  1  0
 84272  1  0
 85273  1  0
 87274  1  0
 87275  1  0
 88276  1  0
 88277  1  0
 91278  1  0
 92279  1  1
 93280  1  0
 93281  1  0
 94282  1  0
 94283  1  0
 95284  1  0
 95285  1  0
 96286  1  0
 98287  1  0
 98288  1  0
 99289  1  0
 99290  1  0
102291  1  0
103292  1  1
104293  1  0
104294  1  0
105295  1  0
105296  1  0
106297  1  0
106298  1  0
107299  1  0
109300  1  0
109301  1  0
110302  1  0
110303  1  0
113304  1  0
114305  1  1
115306  1  0
115307  1  0
117308  1  0
118309  1  0
120310  1  0
121311  1  0
122312  1  0
123313  1  0
127314  1  0
128315  1  1
129316  1  0
129317  1  0
130318  1  0
130319  1  0
131320  1  0
131321  1  0
132322  1  0
134323  1  0
134324  1  0
135325  1  0
135326  1  0
138327  1  0
139328  1  1
140329  1  0
140330  1  0
141331  1  0
141332  1  0
147333  1  0
149334  1  0
149335  1  0
150336  1  0
150337  1  0
151338  1  0
151339  1  0
152340  1  0
153341  1  0
153342  1  0
153343  1  0
156344  1  0
157345  1  1
158346  1  0
158347  1  0
159348  1  0
159349  1  0
161350  1  0
161351  1  0
165352  1  0
166353  1  6
167354  1  0
167355  1  0
168356  1  0
168357  1  0
169358  1  0
169359  1  0
170360  1  0
172361  1  0
172362  1  0
173363  1  0
173364  1  0
M  CHG  8  20   1  45   1  56   1  87   1  98   1 109   1 134   1 144  -1
M  CHG  2 172   1 176  -1
M  END
