
     RDKit          2D

412412  0  0  0  0  0  0  0  0999 V2000
  -33.3668    8.9307    0.0000 N   0  0  0  0  0  0  0  0  0  0  0  0
  -33.8799    7.5212    0.0000 C   0  0  0  0  0  0  0  0  0  0  0  0
  -35.3571    7.2607    0.0000 C   0  0  0  0  0  0  0  0  0  0  0  0
  -35.8702    5.8512    0.0000 C   0  0  0  0  0  0  0  0  0  0  0  0
  -34.9061    4.7021    0.0000 O   0  0  0  0  0  0  0  0  0  0  0  0
  -37.3474    5.5908    0.0000 N   0  0  0  0  0  0  0  0  0  0  0  0
  -37.8605    4.1813    0.0000 C   0  0  0  0  0  0  0  0  0  0  0  0
  -39.1595    4.9313    0.0000 C   0  0  0  0  0  0  0  0  0  0  0  0
  -39.3423    6.4202    0.0000 O   0  0  0  0  0  0  0  0  0  0  0  0
  -37.8606    2.6813    0.0000 C   0  0  0  0  0  0  0  0  0  0  0  0
  -39.1033    2.1539    0.0000 O   0  0  0  0  0  0  0  0  0  0  0  0
  -36.5616    1.9312    0.0000 N   0  0  0  0  0  0  0  0  0  0  0  0
  -36.5616    0.4312    0.0000 C   0  0  0  0  0  0  0  0  0  0  0  0
  -38.0388    0.6918    0.0000 C   0  0  0  0  0  0  0  0  0  0  0  0
  -39.0030   -0.4573    0.0000 C   0  0  0  0  0  0  0  0  0  0  0  0
  -40.4803   -0.1967    0.0000 C   0  0  0  0  0  0  0  0  0  0  0  0
  -41.4445   -1.3457    0.0000 O   0  0  0  0  0  0  0  0  0  0  0  0
  -40.9932    1.2128    0.0000 O   0  0  0  0  0  0  0  0  0  0  0  0
  -36.0486   -0.9783    0.0000 C   0  0  0  0  0  0  0  0  0  0  0  0
  -37.0360   -1.8989    0.0000 O   0  0  0  0  0  0  0  0  0  0  0  0
  -34.5714   -1.2389    0.0000 N   0  0  0  0  0  0  0  0  0  0  0  0
  -34.0585   -2.6484    0.0000 C   0  0  0  0  0  0  0  0  0  0  0  0
  -35.5357   -2.9088    0.0000 C   0  0  0  0  0  0  0  0  0  0  0  0
  -36.0488   -4.3183    0.0000 C   0  0  0  0  0  0  0  0  0  0  0  0
  -37.5260   -4.5788    0.0000 C   0  0  0  0  0  0  0  0  0  0  0  0
  -38.0391   -5.9883    0.0000 O   0  0  0  0  0  0  0  0  0  0  0  0
  -38.4901   -3.4296    0.0000 O   0  0  0  0  0  0  0  0  0  0  0  0
  -33.0943   -3.7975    0.0000 C   0  0  0  0  0  0  0  0  0  0  0  0
  -33.6460   -4.8801    0.0000 O   0  0  0  0  0  0  0  0  0  0  0  0
  -31.6171   -3.5371    0.0000 N   0  0  0  0  0  0  0  0  0  0  0  0
  -30.6530   -4.6862    0.0000 C   0  0  0  0  0  0  0  0  0  0  0  0
  -31.9521   -5.4362    0.0000 C   0  0  0  0  0  0  0  0  0  0  0  0
  -31.9521   -6.9362    0.0000 C   0  0  0  0  0  0  0  0  0  0  0  0
  -33.2512   -7.6861    0.0000 C   0  0  0  0  0  0  0  0  0  0  0  0
  -31.4391   -8.3457    0.0000 C   0  0  0  0  0  0  0  0  0  0  0  0
  -29.3540   -5.4363    0.0000 C   0  0  0  0  0  0  0  0  0  0  0  0
  -29.5186   -6.7762    0.0000 O   0  0  0  0  0  0  0  0  0  0  0  0
  -28.0549   -4.6863    0.0000 N   0  0  0  0  0  0  0  0  0  0  0  0
  -26.7559   -5.4364    0.0000 C   0  0  0  0  0  0  0  0  0  0  0  0
  -27.7201   -6.5854    0.0000 C   0  0  0  0  0  0  0  0  0  0  0  0
  -27.2072   -7.9950    0.0000 C   0  0  0  0  0  0  0  0  0  0  0  0
  -25.2787   -5.6969    0.0000 C   0  0  0  0  0  0  0  0  0  0  0  0
  -24.9414   -7.1585    0.0000 O   0  0  0  0  0  0  0  0  0  0  0  0
  -24.3145   -4.5479    0.0000 N   0  0  0  0  0  0  0  0  0  0  0  0
  -22.8373   -4.8084    0.0000 C   0  0  0  0  0  0  0  0  0  0  0  0
  -23.3504   -6.2179    0.0000 C   0  0  0  0  0  0  0  0  0  0  0  0
  -21.3600   -4.5480    0.0000 C   0  0  0  0  0  0  0  0  0  0  0  0
  -20.3959   -5.6971    0.0000 O   0  0  0  0  0  0  0  0  0  0  0  0
  -20.8470   -3.1385    0.0000 N   0  0  0  0  0  0  0  0  0  0  0  0
  -19.3697   -2.8781    0.0000 C   0  0  0  0  0  0  0  0  0  0  0  0
  -19.8827   -1.4685    0.0000 C   0  0  0  0  0  0  0  0  0  0  0  0
  -21.3599   -1.2080    0.0000 C   0  0  0  0  0  0  0  0  0  0  0  0
  -21.8729    0.2016    0.0000 C   0  0  0  0  0  0  0  0  0  0  0  0
  -23.3501    0.4621    0.0000 O   0  0  0  0  0  0  0  0  0  0  0  0
  -20.9087    1.3506    0.0000 O   0  0  0  0  0  0  0  0  0  0  0  0
  -17.8925   -3.1386    0.0000 C   0  0  0  0  0  0  0  0  0  0  0  0
  -16.9283   -1.9896    0.0000 O   0  0  0  0  0  0  0  0  0  0  0  0
  -17.3796   -4.5482    0.0000 N   0  0  0  0  0  0  0  0  0  0  0  0
  -15.9024   -4.8087    0.0000 C   0  0  0  0  0  0  0  0  0  0  0  0
  -16.4154   -6.2182    0.0000 C   0  0  0  0  0  0  0  0  0  0  0  0
  -14.4251   -4.5483    0.0000 C   0  0  0  0  0  0  0  0  0  0  0  0
  -13.6083   -5.8063    0.0000 O   0  0  0  0  0  0  0  0  0  0  0  0
  -13.9121   -3.1388    0.0000 N   0  0  0  0  0  0  0  0  0  0  0  0
  -12.4348   -2.8783    0.0000 C   0  0  0  0  0  0  0  0  0  0  0  0
  -11.2621   -3.8136    0.0000 C   0  0  0  0  0  0  0  0  0  0  0  0
   -9.8658   -4.3617    0.0000 C   0  0  0  0  0  0  0  0  0  0  0  0
   -8.3700   -4.4739    0.0000 C   0  0  0  0  0  0  0  0  0  0  0  0
   -6.9076   -4.1401    0.0000 C   0  0  0  0  0  0  0  0  0  0  0  0
  -12.9795   -4.2760    0.0000 C   0  0  0  0  0  0  0  0  0  0  0  0
  -13.2798   -1.6390    0.0000 C   0  0  0  0  0  0  0  0  0  0  0  0
  -14.7005   -2.1201    0.0000 O   0  0  0  0  0  0  0  0  0  0  0  0
  -13.7218   -0.2056    0.0000 N   0  0  0  0  0  0  0  0  0  0  0  0
  -13.7218    1.2944    0.0000 C   0  0  0  0  0  0  0  0  0  0  0  0
  -15.0891    0.6776    0.0000 C   0  0  0  0  0  0  0  0  0  0  0  0
  -16.3069    1.5532    0.0000 C   0  0  0  0  0  0  0  0  0  0  0  0
  -17.6742    0.9363    0.0000 N   0  0  0  0  0  0  0  0  0  0  0  0
  -16.1575    3.0458    0.0000 O   0  0  0  0  0  0  0  0  0  0  0  0
  -13.2796    2.7278    0.0000 C   0  0  0  0  0  0  0  0  0  0  0  0
  -14.6310    3.3786    0.0000 O   0  0  0  0  0  0  0  0  0  0  0  0
  -12.4346    3.9671    0.0000 N   0  0  0  0  0  0  0  0  0  0  0  0
  -11.2618    4.9023    0.0000 C   0  0  0  0  0  0  0  0  0  0  0  0
  -12.5965    5.5866    0.0000 C   0  0  0  0  0  0  0  0  0  0  0  0
  -12.6713    7.0848    0.0000 C   0  0  0  0  0  0  0  0  0  0  0  0
  -14.0060    7.7692    0.0000 C   0  0  0  0  0  0  0  0  0  0  0  0
  -12.2291    8.5181    0.0000 C   0  0  0  0  0  0  0  0  0  0  0  0
   -9.8654    5.4502    0.0000 C   0  0  0  0  0  0  0  0  0  0  0  0
  -10.1992    6.9126    0.0000 O   0  0  0  0  0  0  0  0  0  0  0  0
   -8.3696    5.5623    0.0000 N   0  0  0  0  0  0  0  0  0  0  0  0
   -6.9072    5.2284    0.0000 C   0  0  0  0  0  0  0  0  0  0  0  0
   -7.2044    6.6987    0.0000 C   0  0  0  0  0  0  0  0  0  0  0  0
   -6.0797    7.6912    0.0000 S   0  0  0  0  0  0  0  0  0  0  0  0
   -5.6082    4.4784    0.0000 C   0  0  0  0  0  0  0  0  0  0  0  0
   -4.6730    5.6511    0.0000 O   0  0  0  0  0  0  0  0  0  0  0  0
   -4.5880    3.3788    0.0000 N   0  0  0  0  0  0  0  0  0  0  0  0
   -3.9373    2.0273    0.0000 C   0  0  0  0  0  0  0  0  0  0  0  0
   -3.7137    0.5440    0.0000 C   0  0  0  0  0  0  0  0  0  0  0  0
   -3.9374   -0.9392    0.0000 C   0  0  0  0  0  0  0  0  0  0  0  0
   -4.5883   -2.2906    0.0000 C   0  0  0  0  0  0  0  0  0  0  0  0
   -5.6086   -3.3902    0.0000 C   0  0  0  0  0  0  0  0  0  0  0  0
   -2.4546    1.8000    0.0000 C   0  0  0  0  0  0  0  0  0  0  0  0
   -2.9730    3.1763    0.0000 C   0  0  0  0  0  0  0  0  0  0  0  0
   -3.3104    4.6379    0.0000 O   0  0  0  0  0  0  0  0  0  0  0  0
   -1.4958    2.9158    0.0000 N   0  0  0  0  0  0  0  0  0  0  0  0
   -0.5316    4.0648    0.0000 C   0  0  0  0  0  0  0  0  0  0  0  0
   -0.0185    5.4743    0.0000 C   0  0  0  0  0  0  0  0  0  0  0  0
    1.4587    5.7347    0.0000 C   0  0  0  0  0  0  0  0  0  0  0  0
    1.9718    7.1442    0.0000 C   0  0  0  0  0  0  0  0  0  0  0  0
    2.9359    5.4742    0.0000 C   0  0  0  0  0  0  0  0  0  0  0  0
    0.9456    3.8043    0.0000 C   0  0  0  0  0  0  0  0  0  0  0  0
    1.4586    2.3947    0.0000 O   0  0  0  0  0  0  0  0  0  0  0  0
    1.9098    4.9533    0.0000 N   0  0  0  0  0  0  0  0  0  0  0  0
    3.3870    4.6928    0.0000 C   0  0  0  0  0  0  0  0  0  0  0  0
    4.6860    3.9427    0.0000 C   0  0  0  0  0  0  0  0  0  0  0  0
    4.6860    2.4427    0.0000 C   0  0  0  0  0  0  0  0  0  0  0  0
    5.9850    1.6927    0.0000 C   0  0  0  0  0  0  0  0  0  0  0  0
    4.1729    1.0332    0.0000 C   0  0  0  0  0  0  0  0  0  0  0  0
    4.3513    5.8418    0.0000 C   0  0  0  0  0  0  0  0  0  0  0  0
    4.0139    7.3034    0.0000 O   0  0  0  0  0  0  0  0  0  0  0  0
    5.8285    5.5813    0.0000 N   0  0  0  0  0  0  0  0  0  0  0  0
    6.7927    6.7303    0.0000 C   0  0  0  0  0  0  0  0  0  0  0  0
    7.3058    8.1398    0.0000 C   0  0  0  0  0  0  0  0  0  0  0  0
    8.7830    8.4002    0.0000 C   0  0  0  0  0  0  0  0  0  0  0  0
    9.2961    9.8097    0.0000 C   0  0  0  0  0  0  0  0  0  0  0  0
   10.7733   10.0701    0.0000 O   0  0  0  0  0  0  0  0  0  0  0  0
    8.3320   10.9588    0.0000 O   0  0  0  0  0  0  0  0  0  0  0  0
    8.2699    6.4697    0.0000 C   0  0  0  0  0  0  0  0  0  0  0  0
    9.3670    7.4927    0.0000 O   0  0  0  0  0  0  0  0  0  0  0  0
    8.7829    5.0602    0.0000 N   0  0  0  0  0  0  0  0  0  0  0  0
   10.2601    4.7997    0.0000 C   0  0  0  0  0  0  0  0  0  0  0  0
   11.7373    5.0601    0.0000 C   0  0  0  0  0  0  0  0  0  0  0  0
   12.2504    6.4696    0.0000 C   0  0  0  0  0  0  0  0  0  0  0  0
   13.7276    6.7300    0.0000 N   0  0  0  0  0  0  0  0  0  0  0  0
   11.2862    7.6187    0.0000 O   0  0  0  0  0  0  0  0  0  0  0  0
   10.7730    3.3901    0.0000 C   0  0  0  0  0  0  0  0  0  0  0  0
    9.8088    2.2411    0.0000 O   0  0  0  0  0  0  0  0  0  0  0  0
   12.2502    3.1296    0.0000 N   0  0  0  0  0  0  0  0  0  0  0  0
   12.7632    1.7200    0.0000 C   0  0  0  0  0  0  0  0  0  0  0  0
   12.7632    0.2200    0.0000 C   0  0  0  0  0  0  0  0  0  0  0  0
   14.2404    1.4595    0.0000 C   0  0  0  0  0  0  0  0  0  0  0  0
   15.2046    2.6085    0.0000 O   0  0  0  0  0  0  0  0  0  0  0  0
   14.7534    0.0499    0.0000 N   0  0  0  0  0  0  0  0  0  0  0  0
   16.2306   -0.2106    0.0000 C   0  0  0  0  0  0  0  0  0  0  0  0
   17.7078    0.0498    0.0000 C   0  0  0  0  0  0  0  0  0  0  0  0
   18.0453    1.5113    0.0000 C   0  0  0  0  0  0  0  0  0  0  0  0
   19.1850   -0.2107    0.0000 C   0  0  0  0  0  0  0  0  0  0  0  0
   20.1492    0.9383    0.0000 C   0  0  0  0  0  0  0  0  0  0  0  0
   16.7436   -1.6202    0.0000 C   0  0  0  0  0  0  0  0  0  0  0  0
   15.7793   -2.7692    0.0000 O   0  0  0  0  0  0  0  0  0  0  0  0
   18.2208   -1.8807    0.0000 N   0  0  0  0  0  0  0  0  0  0  0  0
   18.7337   -3.2903    0.0000 C   0  0  0  0  0  0  0  0  0  0  0  0
   18.7337   -4.7903    0.0000 C   0  0  0  0  0  0  0  0  0  0  0  0
   20.0327   -5.5403    0.0000 C   0  0  0  0  0  0  0  0  0  0  0  0
   20.0326   -7.0403    0.0000 C   0  0  0  0  0  0  0  0  0  0  0  0
   21.3316   -7.7904    0.0000 N   0  0  0  0  0  0  0  0  0  0  0  0
   18.7336   -7.7903    0.0000 O   0  0  0  0  0  0  0  0  0  0  0  0
   20.2109   -3.5508    0.0000 C   0  0  0  0  0  0  0  0  0  0  0  0
   21.1752   -2.4018    0.0000 O   0  0  0  0  0  0  0  0  0  0  0  0
   20.7239   -4.9604    0.0000 N   0  0  0  0  0  0  0  0  0  0  0  0
   22.2011   -5.2209    0.0000 C   0  0  0  0  0  0  0  0  0  0  0  0
   23.5001   -5.9709    0.0000 C   0  0  0  0  0  0  0  0  0  0  0  0
   23.5001   -7.4709    0.0000 C   0  0  0  0  0  0  0  0  0  0  0  0
   24.7991   -8.2210    0.0000 O   0  0  0  0  0  0  0  0  0  0  0  0
   22.2010   -8.2209    0.0000 O   0  0  0  0  0  0  0  0  0  0  0  0
   23.1653   -4.0719    0.0000 C   0  0  0  0  0  0  0  0  0  0  0  0
   22.6524   -2.6623    0.0000 O   0  0  0  0  0  0  0  0  0  0  0  0
   24.6425   -4.3324    0.0000 N   0  0  0  0  0  0  0  0  0  0  0  0
   25.6068   -3.1834    0.0000 C   0  0  0  0  0  0  0  0  0  0  0  0
   26.1199   -1.7739    0.0000 C   0  0  0  0  0  0  0  0  0  0  0  0
   26.1199   -0.2739    0.0000 O   0  0  0  0  0  0  0  0  0  0  0  0
   27.5543   -1.3353    0.0000 C   0  0  0  0  0  0  0  0  0  0  0  0
   27.0840   -3.4439    0.0000 C   0  0  0  0  0  0  0  0  0  0  0  0
   27.5969   -4.8535    0.0000 O   0  0  0  0  0  0  0  0  0  0  0  0
   28.0482   -2.2949    0.0000 N   0  0  0  0  0  0  0  0  0  0  0  0
   29.5254   -2.5554    0.0000 C   0  0  0  0  0  0  0  0  0  0  0  0
   30.8244   -3.3055    0.0000 C   0  0  0  0  0  0  0  0  0  0  0  0
   30.8243   -4.8055    0.0000 C   0  0  0  0  0  0  0  0  0  0  0  0
   30.4896   -1.4064    0.0000 C   0  0  0  0  0  0  0  0  0  0  0  0
   29.9767    0.0032    0.0000 O   0  0  0  0  0  0  0  0  0  0  0  0
   31.9668   -1.6669    0.0000 N   0  0  0  0  0  0  0  0  0  0  0  0
   32.9311   -0.5179    0.0000 C   0  0  0  0  0  0  0  0  0  0  0  0
   33.4441    0.8916    0.0000 C   0  0  0  0  0  0  0  0  0  0  0  0
   34.9214    1.1520    0.0000 C   0  0  0  0  0  0  0  0  0  0  0  0
   35.4345    2.5616    0.0000 C   0  0  0  0  0  0  0  0  0  0  0  0
   36.9117    2.8220    0.0000 N   0  0  0  0  0  0  0  0  0  0  0  0
   37.4248    4.2315    0.0000 C   0  0  0  0  0  0  0  0  0  0  0  0
   38.9020    4.4919    0.0000 N   0  0  0  0  0  0  0  0  0  0  0  0
   36.4606    5.3806    0.0000 N   0  0  0  0  0  0  0  0  0  0  0  0
   34.4083   -0.7784    0.0000 C   0  0  0  0  0  0  0  0  0  0  0  0
   34.9212   -2.1880    0.0000 O   0  0  0  0  0  0  0  0  0  0  0  0
   35.3725    0.3706    0.0000 N   0  0  0  0  0  0  0  0  0  0  0  0
   36.8497    0.1101    0.0000 C   0  0  0  0  0  0  0  0  0  0  0  0
   38.3269    0.3705    0.0000 C   0  0  0  0  0  0  0  0  0  0  0  0
   38.8400    1.7800    0.0000 C   0  0  0  0  0  0  0  0  0  0  0  0
   40.3172    2.0404    0.0000 C   0  0  0  0  0  0  0  0  0  0  0  0
   40.8303    3.4499    0.0000 O   0  0  0  0  0  0  0  0  0  0  0  0
   41.2814    0.8913    0.0000 O   0  0  0  0  0  0  0  0  0  0  0  0
   37.3627   -1.2995    0.0000 C   0  0  0  0  0  0  0  0  0  0  0  0
   36.3984   -2.4485    0.0000 O   0  0  0  0  0  0  0  0  0  0  0  0
   38.8399   -1.5600    0.0000 N   0  0  0  0  0  0  0  0  0  0  0  0
   39.3528   -2.9696    0.0000 C   0  0  0  0  0  0  0  0  0  0  0  0
   39.3528   -4.4696    0.0000 C   0  0  0  0  0  0  0  0  0  0  0  0
   40.6518   -5.2196    0.0000 C   0  0  0  0  0  0  0  0  0  0  0  0
   40.6517   -6.7196    0.0000 C   0  0  0  0  0  0  0  0  0  0  0  0
   41.9507   -7.4697    0.0000 N   0  0  0  0  0  0  0  0  0  0  0  0
   39.3527   -7.4696    0.0000 O   0  0  0  0  0  0  0  0  0  0  0  0
   40.8300   -3.2301    0.0000 C   0  0  0  0  0  0  0  0  0  0  0  0
   41.5110   -4.5666    0.0000 O   0  0  0  0  0  0  0  0  0  0  0  0
   41.7943   -2.0811    0.0000 O   0  0  0  0  0  0  0  0  0  0  0  0
  -31.8896    9.1911    0.0000 H   0  0  0  0  0  0  0  0  0  0  0  0
  -34.3309   10.0798    0.0000 H   0  0  0  0  0  0  0  0  0  0  0  0
  -32.4027    7.2606    0.0000 H   0  0  0  0  0  0  0  0  0  0  0  0
  -33.8799    6.0212    0.0000 H   0  0  0  0  0  0  0  0  0  0  0  0
  -35.3570    8.7607    0.0000 H   0  0  0  0  0  0  0  0  0  0  0  0
  -36.8343    7.5213    0.0000 H   0  0  0  0  0  0  0  0  0  0  0  0
  -38.1643    6.8489    0.0000 H   0  0  0  0  0  0  0  0  0  0  0  0
  -36.3833    3.9208    0.0000 H   0  0  0  0  0  0  0  0  0  0  0  0
  -40.6367    5.1919    0.0000 H   0  0  0  0  0  0  0  0  0  0  0  0
  -39.6726    3.5218    0.0000 H   0  0  0  0  0  0  0  0  0  0  0  0
  -40.4585    7.1814    0.0000 H   0  0  0  0  0  0  0  0  0  0  0  0
  -35.2625    2.6812    0.0000 H   0  0  0  0  0  0  0  0  0  0  0  0
  -35.0844    0.6917    0.0000 H   0  0  0  0  0  0  0  0  0  0  0  0
  -39.2815    1.2193    0.0000 H   0  0  0  0  0  0  0  0  0  0  0  0
  -37.9245    1.7793    0.0000 H   0  0  0  0  0  0  0  0  0  0  0  0
  -39.5161   -1.8668    0.0000 H   0  0  0  0  0  0  0  0  0  0  0  0
  -37.7040   -1.2073    0.0000 H   0  0  0  0  0  0  0  0  0  0  0  0
  -33.6072   -0.0898    0.0000 H   0  0  0  0  0  0  0  0  0  0  0  0
  -32.7594   -1.8985    0.0000 H   0  0  0  0  0  0  0  0  0  0  0  0
  -36.8838   -2.8382    0.0000 H   0  0  0  0  0  0  0  0  0  0  0  0
  -35.8003   -1.8478    0.0000 H   0  0  0  0  0  0  0  0  0  0  0  0
  -36.0488   -5.8183    0.0000 H   0  0  0  0  0  0  0  0  0  0  0  0
  -34.5716   -4.5789    0.0000 H   0  0  0  0  0  0  0  0  0  0  0  0
  -31.1040   -2.1276    0.0000 H   0  0  0  0  0  0  0  0  0  0  0  0
  -29.6888   -3.5372    0.0000 H   0  0  0  0  0  0  0  0  0  0  0  0
  -33.1486   -5.6471    0.0000 H   0  0  0  0  0  0  0  0  0  0  0  0
  -32.5635   -4.5296    0.0000 H   0  0  0  0  0  0  0  0  0  0  0  0
  -30.4749   -6.6757    0.0000 H   0  0  0  0  0  0  0  0  0  0  0  0
  -33.4341   -9.1749    0.0000 H   0  0  0  0  0  0  0  0  0  0  0  0
  -34.7284   -7.9465    0.0000 H   0  0  0  0  0  0  0  0  0  0  0  0
  -33.9321   -6.3496    0.0000 H   0  0  0  0  0  0  0  0  0  0  0  0
  -32.2561   -9.6037    0.0000 H   0  0  0  0  0  0  0  0  0  0  0  0
  -30.4750   -9.4948    0.0000 H   0  0  0  0  0  0  0  0  0  0  0  0
  -30.2700   -7.6708    0.0000 H   0  0  0  0  0  0  0  0  0  0  0  0
  -28.0548   -3.1863    0.0000 H   0  0  0  0  0  0  0  0  0  0  0  0
  -26.2428   -4.0269    0.0000 H   0  0  0  0  0  0  0  0  0  0  0  0
  -28.9181   -7.4881    0.0000 H   0  0  0  0  0  0  0  0  0  0  0  0
  -28.8123   -5.7919    0.0000 H   0  0  0  0  0  0  0  0  0  0  0  0
  -28.1714   -9.1440    0.0000 H   0  0  0  0  0  0  0  0  0  0  0  0
  -26.2430   -9.1441    0.0000 H   0  0  0  0  0  0  0  0  0  0  0  0
  -25.9081   -7.2450    0.0000 H   0  0  0  0  0  0  0  0  0  0  0  0
  -24.8274   -3.1383    0.0000 H   0  0  0  0  0  0  0  0  0  0  0  0
  -22.8372   -3.3084    0.0000 H   0  0  0  0  0  0  0  0  0  0  0  0
  -24.7848   -6.6565    0.0000 H   0  0  0  0  0  0  0  0  0  0  0  0
  -23.3504   -7.7179    0.0000 H   0  0  0  0  0  0  0  0  0  0  0  0
  -21.8732   -6.4785    0.0000 H   0  0  0  0  0  0  0  0  0  0  0  0
  -21.9440   -2.1155    0.0000 H   0  0  0  0  0  0  0  0  0  0  0  0
  -19.3698   -4.3781    0.0000 H   0  0  0  0  0  0  0  0  0  0  0  0
  -19.8826    0.0315    0.0000 H   0  0  0  0  0  0  0  0  0  0  0  0
  -18.3848   -1.3901    0.0000 H   0  0  0  0  0  0  0  0  0  0  0  0
  -22.8371   -1.4684    0.0000 H   0  0  0  0  0  0  0  0  0  0  0  0
  -21.8976   -2.6083    0.0000 H   0  0  0  0  0  0  0  0  0  0  0  0
  -18.4767   -5.5711    0.0000 H   0  0  0  0  0  0  0  0  0  0  0  0
  -15.9023   -3.3087    0.0000 H   0  0  0  0  0  0  0  0  0  0  0  0
  -17.8499   -6.6567    0.0000 H   0  0  0  0  0  0  0  0  0  0  0  0
  -16.4155   -7.7182    0.0000 H   0  0  0  0  0  0  0  0  0  0  0  0
  -14.9382   -6.4787    0.0000 H   0  0  0  0  0  0  0  0  0  0  0  0
  -15.0091   -2.1157    0.0000 H   0  0  0  0  0  0  0  0  0  0  0  0
  -11.1874   -5.3118    0.0000 H   0  0  0  0  0  0  0  0  0  0  0  0
  -12.5036   -4.6555    0.0000 H   0  0  0  0  0  0  0  0  0  0  0  0
   -9.5285   -5.8233    0.0000 H   0  0  0  0  0  0  0  0  0  0  0  0
  -10.8040   -5.5321    0.0000 H   0  0  0  0  0  0  0  0  0  0  0  0
   -7.4644   -5.6696    0.0000 H   0  0  0  0  0  0  0  0  0  0  0  0
   -8.9215   -5.8688    0.0000 H   0  0  0  0  0  0  0  0  0  0  0  0
   -6.3597   -5.5365    0.0000 H   0  0  0  0  0  0  0  0  0  0  0  0
  -14.0994   -5.0316    0.0000 H   0  0  0  0  0  0  0  0  0  0  0  0
  -12.4694   -5.7735    0.0000 H   0  0  0  0  0  0  0  0  0  0  0  0
  -11.4805   -5.0316    0.0000 H   0  0  0  0  0  0  0  0  0  0  0  0
  -15.2051   -0.4291    0.0000 H   0  0  0  0  0  0  0  0  0  0  0  0
  -14.8464    2.2870    0.0000 H   0  0  0  0  0  0  0  0  0  0  0  0
  -16.1629   -0.3698    0.0000 H   0  0  0  0  0  0  0  0  0  0  0  0
  -14.5691   -0.7295    0.0000 H   0  0  0  0  0  0  0  0  0  0  0  0
  -18.8921    1.8120    0.0000 H   0  0  0  0  0  0  0  0  0  0  0  0
  -17.6406   -0.5633    0.0000 H   0  0  0  0  0  0  0  0  0  0  0  0
  -13.5341    4.9874    0.0000 H   0  0  0  0  0  0  0  0  0  0  0  0
  -11.0049    6.3801    0.0000 H   0  0  0  0  0  0  0  0  0  0  0  0
  -14.0965    5.5904    0.0000 H   0  0  0  0  0  0  0  0  0  0  0  0
  -13.3724    4.3029    0.0000 H   0  0  0  0  0  0  0  0  0  0  0  0
  -11.1713    7.0810    0.0000 H   0  0  0  0  0  0  0  0  0  0  0  0
  -14.2628    9.2470    0.0000 H   0  0  0  0  0  0  0  0  0  0  0  0
  -15.4944    7.9557    0.0000 H   0  0  0  0  0  0  0  0  0  0  0  0
  -14.6196    6.4004    0.0000 H   0  0  0  0  0  0  0  0  0  0  0  0
  -13.1076    9.7339    0.0000 H   0  0  0  0  0  0  0  0  0  0  0  0
  -11.3233    9.7138    0.0000 H   0  0  0  0  0  0  0  0  0  0  0  0
  -10.8943    7.8338    0.0000 H   0  0  0  0  0  0  0  0  0  0  0  0
   -8.2575    7.0581    0.0000 H   0  0  0  0  0  0  0  0  0  0  0  0
   -5.6893    6.1040    0.0000 H   0  0  0  0  0  0  0  0  0  0  0  0
   -7.9865    7.9787    0.0000 H   0  0  0  0  0  0  0  0  0  0  0  0
   -8.6918    6.5049    0.0000 H   0  0  0  0  0  0  0  0  0  0  0  0
   -6.3769    9.1615    0.0000 H   0  0  0  0  0  0  0  0  0  0  0  0
   -3.4609    4.3685    0.0000 H   0  0  0  0  0  0  0  0  0  0  0  0
   -2.3639    1.1981    0.0000 H   0  0  0  0  0  0  0  0  0  0  0  0
   -2.4537   -0.2699    0.0000 H   0  0  0  0  0  0  0  0  0  0  0  0
   -2.4547   -0.7121    0.0000 H   0  0  0  0  0  0  0  0  0  0  0  0
   -2.8404   -1.9622    0.0000 H   0  0  0  0  0  0  0  0  0  0  0  0
   -3.1045   -2.5106    0.0000 H   0  0  0  0  0  0  0  0  0  0  0  0
   -4.0057   -3.6729    0.0000 H   0  0  0  0  0  0  0  0  0  0  0  0
   -4.6734   -4.5630    0.0000 H   0  0  0  0  0  0  0  0  0  0  0  0
   -1.2401    2.3920    0.0000 H   0  0  0  0  0  0  0  0  0  0  0  0
   -1.4128    0.6094    0.0000 H   0  0  0  0  0  0  0  0  0  0  0  0
   -2.5498    0.1240    0.0000 H   0  0  0  0  0  0  0  0  0  0  0  0
   -0.8149    1.5792    0.0000 H   0  0  0  0  0  0  0  0  0  0  0  0
   -1.8306    4.8148    0.0000 H   0  0  0  0  0  0  0  0  0  0  0  0
   -0.2013    6.9631    0.0000 H   0  0  0  0  0  0  0  0  0  0  0  0
   -1.4957    5.7348    0.0000 H   0  0  0  0  0  0  0  0  0  0  0  0
    2.1630    4.4104    0.0000 H   0  0  0  0  0  0  0  0  0  0  0  0
    3.3421    7.7544    0.0000 H   0  0  0  0  0  0  0  0  0  0  0  0
    1.9719    8.6442    0.0000 H   0  0  0  0  0  0  0  0  0  0  0  0
    0.5374    7.5829    0.0000 H   0  0  0  0  0  0  0  0  0  0  0  0
    3.7747    4.2306    0.0000 H   0  0  0  0  0  0  0  0  0  0  0  0
    4.2216    6.2468    0.0000 H   0  0  0  0  0  0  0  0  0  0  0  0
    3.1188    6.9630    0.0000 H   0  0  0  0  0  0  0  0  0  0  0  0
    1.7532    6.4451    0.0000 H   0  0  0  0  0  0  0  0  0  0  0  0
    2.7060    3.3563    0.0000 H   0  0  0  0  0  0  0  0  0  0  0  0
    6.1632    3.6822    0.0000 H   0  0  0  0  0  0  0  0  0  0  0  0
    5.6703    5.0747    0.0000 H   0  0  0  0  0  0  0  0  0  0  0  0
    3.1880    2.5212    0.0000 H   0  0  0  0  0  0  0  0  0  0  0  0
    6.1678    0.2038    0.0000 H   0  0  0  0  0  0  0  0  0  0  0  0
    7.4622    1.4321    0.0000 H   0  0  0  0  0  0  0  0  0  0  0  0
    6.6661    3.0291    0.0000 H   0  0  0  0  0  0  0  0  0  0  0  0
    4.9898   -0.2249    0.0000 H   0  0  0  0  0  0  0  0  0  0  0  0
    3.2087   -0.1158    0.0000 H   0  0  0  0  0  0  0  0  0  0  0  0
    2.8739    1.7832    0.0000 H   0  0  0  0  0  0  0  0  0  0  0  0
    6.5094    4.2447    0.0000 H   0  0  0  0  0  0  0  0  0  0  0  0
    5.4937    7.4803    0.0000 H   0  0  0  0  0  0  0  0  0  0  0  0
    7.3058    9.6398    0.0000 H   0  0  0  0  0  0  0  0  0  0  0  0
    5.8286    8.4003    0.0000 H   0  0  0  0  0  0  0  0  0  0  0  0
   10.2602    8.1397    0.0000 H   0  0  0  0  0  0  0  0  0  0  0  0
    9.3206    6.9999    0.0000 H   0  0  0  0  0  0  0  0  0  0  0  0
    7.8186    3.9112    0.0000 H   0  0  0  0  0  0  0  0  0  0  0  0
   10.2601    6.2997    0.0000 H   0  0  0  0  0  0  0  0  0  0  0  0
   13.2352    4.9815    0.0000 H   0  0  0  0  0  0  0  0  0  0  0  0
   12.1002    3.6046    0.0000 H   0  0  0  0  0  0  0  0  0  0  0  0
   14.2407    8.1395    0.0000 H   0  0  0  0  0  0  0  0  0  0  0  0
   14.6917    5.5809    0.0000 H   0  0  0  0  0  0  0  0  0  0  0  0
   13.3473    4.1525    0.0000 H   0  0  0  0  0  0  0  0  0  0  0  0
   11.2860    1.4596    0.0000 H   0  0  0  0  0  0  0  0  0  0  0  0
   13.7070   -0.9458    0.0000 H   0  0  0  0  0  0  0  0  0  0  0  0
   12.2501   -1.1895    0.0000 H   0  0  0  0  0  0  0  0  0  0  0  0
   11.2860    0.4805    0.0000 H   0  0  0  0  0  0  0  0  0  0  0  0
   13.9364   -1.2081    0.0000 H   0  0  0  0  0  0  0  0  0  0  0  0
   16.0478    1.2782    0.0000 H   0  0  0  0  0  0  0  0  0  0  0  0
   18.0707   -1.4056    0.0000 H   0  0  0  0  0  0  0  0  0  0  0  0
   19.6604    1.9196    0.0000 H   0  0  0  0  0  0  0  0  0  0  0  0
   18.2210    2.9593    0.0000 H   0  0  0  0  0  0  0  0  0  0  0  0
   16.7865    1.8980    0.0000 H   0  0  0  0  0  0  0  0  0  0  0  0
   20.4840   -0.9608    0.0000 H   0  0  0  0  0  0  0  0  0  0  0  0
   19.0282   -1.7025    0.0000 H   0  0  0  0  0  0  0  0  0  0  0  0
   21.6264    0.6778    0.0000 H   0  0  0  0  0  0  0  0  0  0  0  0
   20.6623    2.3478    0.0000 H   0  0  0  0  0  0  0  0  0  0  0  0
   19.0703    1.9804    0.0000 H   0  0  0  0  0  0  0  0  0  0  0  0
   19.4344   -0.9991    0.0000 H   0  0  0  0  0  0  0  0  0  0  0  0
   17.2565   -3.5507    0.0000 H   0  0  0  0  0  0  0  0  0  0  0  0
   18.2206   -6.1998    0.0000 H   0  0  0  0  0  0  0  0  0  0  0  0
   17.2565   -4.5297    0.0000 H   0  0  0  0  0  0  0  0  0  0  0  0
   21.4671   -5.9790    0.0000 H   0  0  0  0  0  0  0  0  0  0  0  0
   21.1476   -4.5368    0.0000 H   0  0  0  0  0  0  0  0  0  0  0  0
   21.3316   -9.2904    0.0000 H   0  0  0  0  0  0  0  0  0  0  0  0
   22.6307   -7.0404    0.0000 H   0  0  0  0  0  0  0  0  0  0  0  0
   20.0664   -6.3086    0.0000 H   0  0  0  0  0  0  0  0  0  0  0  0
   21.8637   -6.6824    0.0000 H   0  0  0  0  0  0  0  0  0  0  0  0
   24.9345   -6.4096    0.0000 H   0  0  0  0  0  0  0  0  0  0  0  0
   24.3390   -4.7275    0.0000 H   0  0  0  0  0  0  0  0  0  0  0  0
   25.3235   -5.6689    0.0000 H   0  0  0  0  0  0  0  0  0  0  0  0
   24.3078   -2.4333    0.0000 H   0  0  0  0  0  0  0  0  0  0  0  0
   24.6427   -1.5133    0.0000 H   0  0  0  0  0  0  0  0  0  0  0  0
   27.3179    0.6289    0.0000 H   0  0  0  0  0  0  0  0  0  0  0  0
   28.2782   -0.1770    0.0000 H   0  0  0  0  0  0  0  0  0  0  0  0
   29.0743   -1.7740    0.0000 H   0  0  0  0  0  0  0  0  0  0  0  0
   28.3014   -2.8378    0.0000 H   0  0  0  0  0  0  0  0  0  0  0  0
   27.7109   -0.8333    0.0000 H   0  0  0  0  0  0  0  0  0  0  0  0
   28.8443   -3.8919    0.0000 H   0  0  0  0  0  0  0  0  0  0  0  0
   32.2588   -3.7441    0.0000 H   0  0  0  0  0  0  0  0  0  0  0  0
   31.6633   -2.0620    0.0000 H   0  0  0  0  0  0  0  0  0  0  0  0
   32.1234   -5.5555    0.0000 H   0  0  0  0  0  0  0  0  0  0  0  0
   30.3113   -6.2150    0.0000 H   0  0  0  0  0  0  0  0  0  0  0  0
   29.3264   -4.7269    0.0000 H   0  0  0  0  0  0  0  0  0  0  0  0
   32.6478   -3.0034    0.0000 H   0  0  0  0  0  0  0  0  0  0  0  0
   31.6320    0.2322    0.0000 H   0  0  0  0  0  0  0  0  0  0  0  0
   33.2614    2.3805    0.0000 H   0  0  0  0  0  0  0  0  0  0  0  0
   31.9669    1.1522    0.0000 H   0  0  0  0  0  0  0  0  0  0  0  0
   36.4193    1.0735    0.0000 H   0  0  0  0  0  0  0  0  0  0  0  0
   35.6257   -0.1723    0.0000 H   0  0  0  0  0  0  0  0  0  0  0  0
   35.4345    4.0616    0.0000 H   0  0  0  0  0  0  0  0  0  0  0  0
   34.0000    3.0002    0.0000 H   0  0  0  0  0  0  0  0  0  0  0  0
   37.7286    1.5639    0.0000 H   0  0  0  0  0  0  0  0  0  0  0  0
   39.4151    5.9014    0.0000 H   0  0  0  0  0  0  0  0  0  0  0  0
   39.8661    3.3428    0.0000 H   0  0  0  0  0  0  0  0  0  0  0  0
   36.9737    6.7901    0.0000 H   0  0  0  0  0  0  0  0  0  0  0  0
   34.9834    5.1202    0.0000 H   0  0  0  0  0  0  0  0  0  0  0  0
   35.2158    1.8624    0.0000 H   0  0  0  0  0  0  0  0  0  0  0  0
   36.8497    1.6101    0.0000 H   0  0  0  0  0  0  0  0  0  0  0  0
   39.8249    0.2920    0.0000 H   0  0  0  0  0  0  0  0  0  0  0  0
   38.6898   -1.0850    0.0000 H   0  0  0  0  0  0  0  0  0  0  0  0
   38.8401    3.2800    0.0000 H   0  0  0  0  0  0  0  0  0  0  0  0
   37.3437    1.6754    0.0000 H   0  0  0  0  0  0  0  0  0  0  0  0
   39.9370   -0.5371    0.0000 H   0  0  0  0  0  0  0  0  0  0  0  0
   37.8756   -3.2300    0.0000 H   0  0  0  0  0  0  0  0  0  0  0  0
   38.8397   -5.8791    0.0000 H   0  0  0  0  0  0  0  0  0  0  0  0
   37.8756   -4.2090    0.0000 H   0  0  0  0  0  0  0  0  0  0  0  0
   42.1290   -5.4802    0.0000 H   0  0  0  0  0  0  0  0  0  0  0  0
   41.6360   -4.0877    0.0000 H   0  0  0  0  0  0  0  0  0  0  0  0
   41.9507   -8.9697    0.0000 H   0  0  0  0  0  0  0  0  0  0  0  0
   43.2498   -6.7197    0.0000 H   0  0  0  0  0  0  0  0  0  0  0  0
  1  2  1  0
  2  3  1  0
  3  4  1  0
  4  5  2  0
  4  6  1  0
  6  7  1  0
  7  8  1  0
  8  9  1  0
  7 10  1  0
 10 11  2  0
 10 12  1  0
 12 13  1  0
 13 14  1  0
 14 15  1  0
 15 16  1  0
 16 17  2  0
 16 18  1  0
 13 19  1  0
 19 20  2  0
 19 21  1  0
 21 22  1  0
 22 23  1  0
 23 24  1  0
 24 25  1  0
 25 26  2  0
 25 27  1  0
 22 28  1  0
 28 29  2  0
 28 30  1  0
 30 31  1  0
 31 32  1  0
 32 33  1  0
 33 34  1  0
 33 35  1  0
 31 36  1  0
 36 37  2  0
 36 38  1  0
 38 39  1  0
 39 40  1  0
 40 41  1  0
 39 42  1  0
 42 43  2  0
 42 44  1  0
 44 45  1  0
 45 46  1  0
 45 47  1  0
 47 48  2  0
 47 49  1  0
 49 50  1  0
 50 51  1  0
 51 52  1  0
 52 53  1  0
 53 54  2  0
 53 55  1  0
 50 56  1  0
 56 57  2  0
 56 58  1  0
 58 59  1  0
 59 60  1  0
 59 61  1  0
 61 62  2  0
 61 63  1  0
 64 63  1  6
 64 65  1  0
 65 66  1  0
 66 67  1  0
 67 68  1  0
 64 69  1  0
 64 70  1  0
 70 71  2  0
 70 72  1  0
 72 73  1  0
 73 74  1  0
 74 75  1  0
 75 76  1  0
 75 77  2  0
 73 78  1  0
 78 79  2  0
 78 80  1  0
 80 81  1  0
 81 82  1  0
 82 83  1  0
 83 84  1  0
 83 85  1  0
 81 86  1  0
 86 87  2  0
 86 88  1  0
 88 89  1  0
 89 90  1  0
 90 91  1  0
 89 92  1  0
 92 93  2  0
 92 94  1  0
 94 95  1  0
 95 96  1  0
 96 97  1  0
 97 98  1  0
 98 99  1  0
 95100  1  0
 95101  1  6
101102  2  0
101103  1  0
103104  1  0
104105  1  0
105106  1  0
106107  1  0
106108  1  0
104109  1  0
109110  2  0
109111  1  0
111112  1  0
112113  1  0
113114  1  0
114115  1  0
114116  1  0
112117  1  0
117118  2  0
117119  1  0
119120  1  0
120121  1  0
121122  1  0
122123  1  0
123124  2  0
123125  1  0
120126  1  0
126127  2  0
126128  1  0
128129  1  0
129130  1  0
130131  1  0
131132  1  0
131133  2  0
129134  1  0
134135  2  0
134136  1  0
136137  1  0
137138  1  0
137139  1  0
139140  2  0
139141  1  0
141142  1  0
142143  1  0
143144  1  0
143145  1  0
145146  1  0
142147  1  0
147148  2  0
147149  1  0
149150  1  0
150151  1  0
151152  1  0
152153  1  0
153154  1  0
153155  2  0
150156  1  0
156157  2  0
156158  1  0
158159  1  0
159160  1  0
160161  1  0
161162  2  0
161163  1  0
159164  1  0
164165  2  0
164166  1  0
166167  1  0
167168  1  0
168169  1  0
168170  1  0
167171  1  0
171172  2  0
171173  1  0
173174  1  0
174175  1  0
175176  1  0
174177  1  0
177178  2  0
177179  1  0
179180  1  0
180181  1  0
181182  1  0
182183  1  0
183184  1  0
184185  1  0
185186  2  3
185187  1  0
180188  1  0
188189  2  0
188190  1  0
190191  1  0
191192  1  0
192193  1  0
193194  1  0
194195  2  0
194196  1  0
191197  1  0
197198  2  0
197199  1  0
199200  1  0
200201  1  0
201202  1  0
202203  1  0
203204  1  0
203205  2  0
200206  1  0
206207  2  0
206208  1  0
 68 99  2  0
  1209  1  0
  1210  1  0
  2211  1  0
  2212  1  0
  3213  1  0
  3214  1  0
  6215  1  0
  7216  1  6
  8217  1  0
  8218  1  0
  9219  1  0
 12220  1  0
 13221  1  6
 14222  1  0
 14223  1  0
 15224  1  0
 15225  1  0
 21226  1  0
 22227  1  6
 23228  1  0
 23229  1  0
 24230  1  0
 24231  1  0
 30232  1  0
 31233  1  6
 32234  1  0
 32235  1  0
 33236  1  0
 34237  1  0
 34238  1  0
 34239  1  0
 35240  1  0
 35241  1  0
 35242  1  0
 38243  1  0
 39244  1  6
 40245  1  0
 40246  1  0
 41247  1  0
 41248  1  0
 41249  1  0
 44250  1  0
 45251  1  6
 46252  1  0
 46253  1  0
 46254  1  0
 49255  1  0
 50256  1  1
 51257  1  0
 51258  1  0
 52259  1  0
 52260  1  0
 58261  1  0
 59262  1  6
 60263  1  0
 60264  1  0
 60265  1  0
 63266  1  0
 65267  1  0
 65268  1  0
 66269  1  0
 66270  1  0
 67271  1  0
 67272  1  0
 68273  1  0
 69274  1  0
 69275  1  0
 69276  1  0
 72277  1  0
 73278  1  1
 74279  1  0
 74280  1  0
 76281  1  0
 76282  1  0
 80283  1  0
 81284  1  1
 82285  1  0
 82286  1  0
 83287  1  0
 84288  1  0
 84289  1  0
 84290  1  0
 85291  1  0
 85292  1  0
 85293  1  0
 88294  1  0
 89295  1  1
 90296  1  0
 90297  1  0
 91298  1  0
 94299  1  0
 96300  1  0
 96301  1  0
 97302  1  0
 97303  1  0
 98304  1  0
 98305  1  0
 99306  1  0
100307  1  0
100308  1  0
100309  1  0
103310  1  0
104311  1  1
105312  1  0
105313  1  0
106314  1  0
107315  1  0
107316  1  0
107317  1  0
108318  1  0
108319  1  0
108320  1  0
111321  1  0
112322  1  6
113323  1  0
113324  1  0
114325  1  0
115326  1  0
115327  1  0
115328  1  0
116329  1  0
116330  1  0
116331  1  0
119332  1  0
120333  1  1
121334  1  0
121335  1  0
122336  1  0
122337  1  0
128338  1  0
129339  1  1
130340  1  0
130341  1  0
132342  1  0
132343  1  0
136344  1  0
137345  1  6
138346  1  0
138347  1  0
138348  1  0
141349  1  0
142350  1  1
143351  1  6
144352  1  0
144353  1  0
144354  1  0
145355  1  0
145356  1  0
146357  1  0
146358  1  0
146359  1  0
149360  1  0
150361  1  6
151362  1  0
151363  1  0
152364  1  0
152365  1  0
154366  1  0
154367  1  0
158368  1  0
159369  1  6
160370  1  0
160371  1  0
166372  1  0
167373  1  1
168374  1  1
169375  1  0
170376  1  0
170377  1  0
170378  1  0
173379  1  0
174380  1  6
175381  1  0
175382  1  0
176383  1  0
176384  1  0
176385  1  0
179386  1  0
180387  1  1
181388  1  0
181389  1  0
182390  1  0
182391  1  0
183392  1  0
183393  1  0
184394  1  0
186395  1  0
186396  1  0
187397  1  0
187398  1  0
190399  1  0
191400  1  1
192401  1  0
192402  1  0
193403  1  0
193404  1  0
199405  1  0
200406  1  6
201407  1  0
201408  1  0
202409  1  0
202410  1  0
204411  1  0
204412  1  0
M  CHG  8  18  -1  27  -1  55  -1 125  -1 163  -1 186   1 196  -1 208  -1
M  END
