
     RDKit          2D

181183  0  0  0  0  0  0  0  0999 V2000
  -15.3772    1.0822    0.0000 N   0  0  0  0  0  0  0  0  0  0  0  0
  -13.9211    0.7216    0.0000 C   0  0  0  0  0  0  0  0  0  0  0  0
  -12.8808    1.8023    0.0000 C   0  0  0  0  0  0  0  0  0  0  0  0
  -11.4248    1.4417    0.0000 C   0  0  0  0  0  0  0  0  0  0  0  0
  -11.0091    0.0004    0.0000 O   0  0  0  0  0  0  0  0  0  0  0  0
  -10.3845    2.5223    0.0000 N   0  0  0  0  0  0  0  0  0  0  0  0
   -8.9285    2.1617    0.0000 C   0  0  0  0  0  0  0  0  0  0  0  0
   -8.8262    3.6582    0.0000 C   0  0  0  0  0  0  0  0  0  0  0  0
   -7.4791    4.3179    0.0000 C   0  0  0  0  0  0  0  0  0  0  0  0
   -7.3768    5.8144    0.0000 C   0  0  0  0  0  0  0  0  0  0  0  0
   -6.0296    6.4741    0.0000 N   0  0  0  0  0  0  0  0  0  0  0  0
   -5.9274    7.9706    0.0000 C   0  0  0  0  0  0  0  0  0  0  0  0
   -4.5802    8.6303    0.0000 N   0  0  0  0  0  0  0  0  0  0  0  0
   -7.1722    8.8074    0.0000 N   0  0  0  0  0  0  0  0  0  0  0  0
   -7.6837    1.3249    0.0000 C   0  0  0  0  0  0  0  0  0  0  0  0
   -6.3365    1.9845    0.0000 O   0  0  0  0  0  0  0  0  0  0  0  0
   -7.7860   -0.1716    0.0000 N   0  0  0  0  0  0  0  0  0  0  0  0
   -6.5411   -1.0085    0.0000 C   0  0  0  0  0  0  0  0  0  0  0  0
   -7.5814   -2.0891    0.0000 C   0  0  0  0  0  0  0  0  0  0  0  0
   -9.0374   -1.7285    0.0000 C   0  0  0  0  0  0  0  0  0  0  0  0
  -10.0777   -2.8092    0.0000 C   0  0  0  0  0  0  0  0  0  0  0  0
  -11.5337   -2.4486    0.0000 C   0  0  0  0  0  0  0  0  0  0  0  0
  -12.5740   -3.5292    0.0000 N   0  0  0  0  0  0  0  0  0  0  0  0
   -5.0851   -1.3691    0.0000 C   0  0  0  0  0  0  0  0  0  0  0  0
   -4.0448   -0.2884    0.0000 O   0  0  0  0  0  0  0  0  0  0  0  0
   -4.6694   -2.8103    0.0000 N   0  0  0  0  0  0  0  0  0  0  0  0
   -3.2133   -3.1709    0.0000 C   0  0  0  0  0  0  0  0  0  0  0  0
   -3.8213   -4.5422    0.0000 C   0  0  0  0  0  0  0  0  0  0  0  0
   -5.3128   -4.7013    0.0000 C   0  0  0  0  0  0  0  0  0  0  0  0
   -6.1964   -3.4892    0.0000 C   0  0  0  0  0  0  0  0  0  0  0  0
   -7.6879   -3.6483    0.0000 C   0  0  0  0  0  0  0  0  0  0  0  0
   -8.2959   -5.0196    0.0000 C   0  0  0  0  0  0  0  0  0  0  0  0
   -7.4123   -6.2317    0.0000 C   0  0  0  0  0  0  0  0  0  0  0  0
   -5.9208   -6.0726    0.0000 C   0  0  0  0  0  0  0  0  0  0  0  0
   -1.7218   -3.0118    0.0000 C   0  0  0  0  0  0  0  0  0  0  0  0
   -0.9926   -4.3226    0.0000 O   0  0  0  0  0  0  0  0  0  0  0  0
   -1.1139   -1.6405    0.0000 N   0  0  0  0  0  0  0  0  0  0  0  0
    0.3777   -1.4814    0.0000 C   0  0  0  0  0  0  0  0  0  0  0  0
   -0.3808   -0.1873    0.0000 C   0  0  0  0  0  0  0  0  0  0  0  0
   -0.7242    1.2729    0.0000 C   0  0  0  0  0  0  0  0  0  0  0  0
   -0.6219    2.7694    0.0000 C   0  0  0  0  0  0  0  0  0  0  0  0
   -0.0830    4.1693    0.0000 C   0  0  0  0  0  0  0  0  0  0  0  0
   -0.0907   -2.9064    0.0000 C   0  0  0  0  0  0  0  0  0  0  0  0
    1.4839   -2.4944    0.0000 C   0  0  0  0  0  0  0  0  0  0  0  0
    0.6471   -3.7393    0.0000 O   0  0  0  0  0  0  0  0  0  0  0  0
    2.8396   -3.1364    0.0000 N   0  0  0  0  0  0  0  0  0  0  0  0
    4.3243   -3.3502    0.0000 C   0  0  0  0  0  0  0  0  0  0  0  0
    5.1464   -4.6049    0.0000 C   0  0  0  0  0  0  0  0  0  0  0  0
    4.4708   -5.9441    0.0000 C   0  0  0  0  0  0  0  0  0  0  0  0
    5.2929   -7.1988    0.0000 C   0  0  0  0  0  0  0  0  0  0  0  0
    4.6173   -8.5381    0.0000 N   0  0  0  0  0  0  0  0  0  0  0  0
    5.4394   -9.7928    0.0000 C   0  0  0  0  0  0  0  0  0  0  0  0
    4.7638  -11.1320    0.0000 N   0  0  0  0  0  0  0  0  0  0  0  0
    6.9370   -9.7082    0.0000 N   0  0  0  0  0  0  0  0  0  0  0  0
    5.8060   -3.1169    0.0000 C   0  0  0  0  0  0  0  0  0  0  0  0
    6.2576   -4.5473    0.0000 O   0  0  0  0  0  0  0  0  0  0  0  0
    7.1532   -2.4572    0.0000 N   0  0  0  0  0  0  0  0  0  0  0  0
    8.2461   -1.4298    0.0000 C   0  0  0  0  0  0  0  0  0  0  0  0
    9.7396   -1.5694    0.0000 C   0  0  0  0  0  0  0  0  0  0  0  0
   10.3654   -2.9325    0.0000 C   0  0  0  0  0  0  0  0  0  0  0  0
   11.8589   -3.0721    0.0000 C   0  0  0  0  0  0  0  0  0  0  0  0
   10.4873   -4.4276    0.0000 C   0  0  0  0  0  0  0  0  0  0  0  0
    8.9875   -0.1259    0.0000 C   0  0  0  0  0  0  0  0  0  0  0  0
   10.3874   -0.6647    0.0000 O   0  0  0  0  0  0  0  0  0  0  0  0
    9.3117    1.3387    0.0000 N   0  0  0  0  0  0  0  0  0  0  0  0
    9.1898    2.8337    0.0000 C   0  0  0  0  0  0  0  0  0  0  0  0
   10.2301    3.9144    0.0000 C   0  0  0  0  0  0  0  0  0  0  0  0
   11.6861    3.5538    0.0000 C   0  0  0  0  0  0  0  0  0  0  0  0
   12.1019    2.1125    0.0000 C   0  0  0  0  0  0  0  0  0  0  0  0
   13.5579    1.7519    0.0000 C   0  0  0  0  0  0  0  0  0  0  0  0
   14.5982    2.8326    0.0000 C   0  0  0  0  0  0  0  0  0  0  0  0
   14.1824    4.2738    0.0000 C   0  0  0  0  0  0  0  0  0  0  0  0
   12.7264    4.6344    0.0000 C   0  0  0  0  0  0  0  0  0  0  0  0
    8.6327    4.2264    0.0000 C   0  0  0  0  0  0  0  0  0  0  0  0
    9.9268    4.9849    0.0000 O   0  0  0  0  0  0  0  0  0  0  0  0
    7.6898    5.3930    0.0000 N   0  0  0  0  0  0  0  0  0  0  0  0
    6.4449    6.2298    0.0000 C   0  0  0  0  0  0  0  0  0  0  0  0
    5.0087    6.6626    0.0000 C   0  0  0  0  0  0  0  0  0  0  0  0
    3.5087    6.6527    0.0000 C   0  0  0  0  0  0  0  0  0  0  0  0
    2.0783    6.2012    0.0000 C   0  0  0  0  0  0  0  0  0  0  0  0
    0.8445    5.3481    0.0000 C   0  0  0  0  0  0  0  0  0  0  0  0
    7.7197    7.0204    0.0000 C   0  0  0  0  0  0  0  0  0  0  0  0
    6.2486    7.7169    0.0000 C   0  0  0  0  0  0  0  0  0  0  0  0
    7.3181    8.7687    0.0000 O   0  0  0  0  0  0  0  0  0  0  0  0
    5.0426    8.6089    0.0000 O   0  0  0  0  0  0  0  0  0  0  0  0
  -16.4174    0.0016    0.0000 H   0  0  0  0  0  0  0  0  0  0  0  0
  -15.7929    2.5235    0.0000 H   0  0  0  0  0  0  0  0  0  0  0  0
  -14.5291   -0.6496    0.0000 H   0  0  0  0  0  0  0  0  0  0  0  0
  -12.6763   -0.1152    0.0000 H   0  0  0  0  0  0  0  0  0  0  0  0
  -14.1257    2.6391    0.0000 H   0  0  0  0  0  0  0  0  0  0  0  0
  -12.2729    3.1735    0.0000 H   0  0  0  0  0  0  0  0  0  0  0  0
  -10.7705    3.4276    0.0000 H   0  0  0  0  0  0  0  0  0  0  0  0
   -9.5365    0.7904    0.0000 H   0  0  0  0  0  0  0  0  0  0  0  0
   -9.4145    5.0380    0.0000 H   0  0  0  0  0  0  0  0  0  0  0  0
   -9.8103    3.6739    0.0000 H   0  0  0  0  0  0  0  0  0  0  0  0
   -5.9876    4.4770    0.0000 H   0  0  0  0  0  0  0  0  0  0  0  0
   -7.0634    2.8767    0.0000 H   0  0  0  0  0  0  0  0  0  0  0  0
   -7.7925    7.2556    0.0000 H   0  0  0  0  0  0  0  0  0  0  0  0
   -8.8766    5.8383    0.0000 H   0  0  0  0  0  0  0  0  0  0  0  0
   -4.7848    5.6372    0.0000 H   0  0  0  0  0  0  0  0  0  0  0  0
   -4.4779   10.1268    0.0000 H   0  0  0  0  0  0  0  0  0  0  0  0
   -3.3353    7.7934    0.0000 H   0  0  0  0  0  0  0  0  0  0  0  0
   -7.0699   10.3039    0.0000 H   0  0  0  0  0  0  0  0  0  0  0  0
   -8.5194    8.1477    0.0000 H   0  0  0  0  0  0  0  0  0  0  0  0
   -8.5393   -0.4323    0.0000 H   0  0  0  0  0  0  0  0  0  0  0  0
   -5.9331    0.3628    0.0000 H   0  0  0  0  0  0  0  0  0  0  0  0
   -8.0869   -2.9335    0.0000 H   0  0  0  0  0  0  0  0  0  0  0  0
   -6.1710   -2.5999    0.0000 H   0  0  0  0  0  0  0  0  0  0  0  0
  -10.1710   -0.7462    0.0000 H   0  0  0  0  0  0  0  0  0  0  0  0
   -8.9925   -0.8439    0.0000 H   0  0  0  0  0  0  0  0  0  0  0  0
  -10.5139   -4.2443    0.0000 H   0  0  0  0  0  0  0  0  0  0  0  0
   -8.9441   -3.7915    0.0000 H   0  0  0  0  0  0  0  0  0  0  0  0
  -12.7786   -1.6117    0.0000 H   0  0  0  0  0  0  0  0  0  0  0  0
  -11.0974   -1.0134    0.0000 H   0  0  0  0  0  0  0  0  0  0  0  0
  -14.0300   -3.1686    0.0000 H   0  0  0  0  0  0  0  0  0  0  0  0
  -13.1819   -4.9005    0.0000 H   0  0  0  0  0  0  0  0  0  0  0  0
  -11.4404   -4.5115    0.0000 H   0  0  0  0  0  0  0  0  0  0  0  0
   -5.9402   -3.6071    0.0000 H   0  0  0  0  0  0  0  0  0  0  0  0
   -3.1111   -1.6744    0.0000 H   0  0  0  0  0  0  0  0  0  0  0  0
   -3.9236   -6.0387    0.0000 H   0  0  0  0  0  0  0  0  0  0  0  0
   -2.3653   -4.9028    0.0000 H   0  0  0  0  0  0  0  0  0  0  0  0
   -5.5885   -2.1179    0.0000 H   0  0  0  0  0  0  0  0  0  0  0  0
   -8.5715   -2.4362    0.0000 H   0  0  0  0  0  0  0  0  0  0  0  0
   -9.7874   -5.1787    0.0000 H   0  0  0  0  0  0  0  0  0  0  0  0
   -8.0203   -7.6030    0.0000 H   0  0  0  0  0  0  0  0  0  0  0  0
   -5.0372   -7.2847    0.0000 H   0  0  0  0  0  0  0  0  0  0  0  0
   -2.2645   -0.6782    0.0000 H   0  0  0  0  0  0  0  0  0  0  0  0
   -1.5187   -1.1646    0.0000 H   0  0  0  0  0  0  0  0  0  0  0  0
   -1.8530    0.1003    0.0000 H   0  0  0  0  0  0  0  0  0  0  0  0
   -2.0996    0.6744    0.0000 H   0  0  0  0  0  0  0  0  0  0  0  0
   -2.1227    1.8152    0.0000 H   0  0  0  0  0  0  0  0  0  0  0  0
   -2.0812    2.4224    0.0000 H   0  0  0  0  0  0  0  0  0  0  0  0
   -1.6763    3.8363    0.0000 H   0  0  0  0  0  0  0  0  0  0  0  0
   -1.3870    4.9107    0.0000 H   0  0  0  0  0  0  0  0  0  0  0  0
   -1.4411   -3.5594    0.0000 H   0  0  0  0  0  0  0  0  0  0  0  0
    0.1389   -4.3887    0.0000 H   0  0  0  0  0  0  0  0  0  0  0  0
    1.2981   -3.4731    0.0000 H   0  0  0  0  0  0  0  0  0  0  0  0
    2.4069   -4.5726    0.0000 H   0  0  0  0  0  0  0  0  0  0  0  0
    3.3705   -4.5079    0.0000 H   0  0  0  0  0  0  0  0  0  0  0  0
    6.4485   -5.3495    0.0000 H   0  0  0  0  0  0  0  0  0  0  0  0
    6.4554   -3.8724    0.0000 H   0  0  0  0  0  0  0  0  0  0  0  0
    3.3779   -6.9716    0.0000 H   0  0  0  0  0  0  0  0  0  0  0  0
    3.1687   -5.1994    0.0000 H   0  0  0  0  0  0  0  0  0  0  0  0
    6.4945   -8.0967    0.0000 H   0  0  0  0  0  0  0  0  0  0  0  0
    6.5028   -6.3122    0.0000 H   0  0  0  0  0  0  0  0  0  0  0  0
    3.1197   -8.6227    0.0000 H   0  0  0  0  0  0  0  0  0  0  0  0
    5.5859  -12.3867    0.0000 H   0  0  0  0  0  0  0  0  0  0  0  0
    3.2662  -11.2166    0.0000 H   0  0  0  0  0  0  0  0  0  0  0  0
    7.7591  -10.9628    0.0000 H   0  0  0  0  0  0  0  0  0  0  0  0
    7.6125   -8.3689    0.0000 H   0  0  0  0  0  0  0  0  0  0  0  0
    8.0063   -3.6910    0.0000 H   0  0  0  0  0  0  0  0  0  0  0  0
    8.5565   -2.8973    0.0000 H   0  0  0  0  0  0  0  0  0  0  0  0
   11.1336   -1.0156    0.0000 H   0  0  0  0  0  0  0  0  0  0  0  0
    9.9830   -0.0893    0.0000 H   0  0  0  0  0  0  0  0  0  0  0  0
    8.9714   -3.4863    0.0000 H   0  0  0  0  0  0  0  0  0  0  0  0
   12.6463   -4.3488    0.0000 H   0  0  0  0  0  0  0  0  0  0  0  0
   13.3101   -2.6925    0.0000 H   0  0  0  0  0  0  0  0  0  0  0  0
   11.9202   -1.5734    0.0000 H   0  0  0  0  0  0  0  0  0  0  0  0
   11.7547   -5.2300    0.0000 H   0  0  0  0  0  0  0  0  0  0  0  0
   10.0906   -5.8742    0.0000 H   0  0  0  0  0  0  0  0  0  0  0  0
    8.9938   -4.2880    0.0000 H   0  0  0  0  0  0  0  0  0  0  0  0
   10.7846    1.0547    0.0000 H   0  0  0  0  0  0  0  0  0  0  0  0
   10.6027    2.3299    0.0000 H   0  0  0  0  0  0  0  0  0  0  0  0
   10.8381    5.2856    0.0000 H   0  0  0  0  0  0  0  0  0  0  0  0
    9.2247    5.0276    0.0000 H   0  0  0  0  0  0  0  0  0  0  0  0
   11.2010    0.9131    0.0000 H   0  0  0  0  0  0  0  0  0  0  0  0
   13.9736    0.3107    0.0000 H   0  0  0  0  0  0  0  0  0  0  0  0
   16.0542    2.4720    0.0000 H   0  0  0  0  0  0  0  0  0  0  0  0
   15.2227    5.3544    0.0000 H   0  0  0  0  0  0  0  0  0  0  0  0
   12.3107    6.0756    0.0000 H   0  0  0  0  0  0  0  0  0  0  0  0
    8.7028    6.4992    0.0000 H   0  0  0  0  0  0  0  0  0  0  0  0
    4.3828    8.0258    0.0000 H   0  0  0  0  0  0  0  0  0  0  0  0
    5.6908    7.9985    0.0000 H   0  0  0  0  0  0  0  0  0  0  0  0
    2.6526    7.8844    0.0000 H   0  0  0  0  0  0  0  0  0  0  0  0
    3.7668    8.1304    0.0000 H   0  0  0  0  0  0  0  0  0  0  0  0
    0.7932    6.9750    0.0000 H   0  0  0  0  0  0  0  0  0  0  0  0
    2.0721    7.7012    0.0000 H   0  0  0  0  0  0  0  0  0  0  0  0
   -0.1830    6.4410    0.0000 H   0  0  0  0  0  0  0  0  0  0  0  0
    7.8556    8.5142    0.0000 H   0  0  0  0  0  0  0  0  0  0  0  0
    9.1880    7.3272    0.0000 H   0  0  0  0  0  0  0  0  0  0  0  0
    8.5973    5.8039    0.0000 H   0  0  0  0  0  0  0  0  0  0  0  0
  1  2  1  0
  2  3  1  0
  3  4  1  0
  4  5  2  0
  4  6  1  0
  6  7  1  0
  7  8  1  0
  8  9  1  0
  9 10  1  0
 10 11  1  0
 11 12  1  0
 12 13  2  3
 12 14  1  0
  7 15  1  0
 15 16  2  0
 15 17  1  0
 17 18  1  0
 18 19  1  0
 19 20  1  0
 20 21  1  0
 21 22  1  0
 22 23  1  0
 18 24  1  0
 24 25  2  0
 24 26  1  0
 26 27  1  0
 27 28  1  0
 28 29  1  0
 29 30  2  0
 30 31  1  0
 31 32  2  0
 32 33  1  0
 33 34  2  0
 27 35  1  0
 35 36  2  0
 35 37  1  0
 38 37  1  1
 38 39  1  0
 39 40  1  0
 40 41  1  0
 41 42  1  0
 38 43  1  0
 38 44  1  0
 44 45  2  0
 44 46  1  0
 46 47  1  0
 47 48  1  0
 48 49  1  0
 49 50  1  0
 50 51  1  0
 51 52  1  0
 52 53  2  3
 52 54  1  0
 47 55  1  0
 55 56  2  0
 55 57  1  0
 57 58  1  0
 58 59  1  0
 59 60  1  0
 60 61  1  0
 60 62  1  0
 58 63  1  0
 63 64  2  0
 63 65  1  0
 65 66  1  0
 66 67  1  0
 67 68  1  0
 68 69  2  0
 69 70  1  0
 70 71  2  0
 71 72  1  0
 72 73  2  0
 66 74  1  0
 74 75  2  0
 74 76  1  0
 76 77  1  0
 77 78  1  0
 78 79  1  0
 79 80  1  0
 80 81  1  0
 77 82  1  0
 77 83  1  1
 83 84  2  0
 83 85  1  0
 34 29  1  0
 73 68  1  0
 42 81  2  0
  1 86  1  0
  1 87  1  0
  2 88  1  0
  2 89  1  0
  3 90  1  0
  3 91  1  0
  6 92  1  0
  7 93  1  1
  8 94  1  0
  8 95  1  0
  9 96  1  0
  9 97  1  0
 10 98  1  0
 10 99  1  0
 11100  1  0
 13101  1  0
 13102  1  0
 14103  1  0
 14104  1  0
 17105  1  0
 18106  1  6
 19107  1  0
 19108  1  0
 20109  1  0
 20110  1  0
 21111  1  0
 21112  1  0
 22113  1  0
 22114  1  0
 23115  1  0
 23116  1  0
 23117  1  0
 26118  1  0
 27119  1  6
 28120  1  0
 28121  1  0
 30122  1  0
 31123  1  0
 32124  1  0
 33125  1  0
 34126  1  0
 37127  1  0
 39128  1  0
 39129  1  0
 40130  1  0
 40131  1  0
 41132  1  0
 41133  1  0
 42134  1  0
 43135  1  0
 43136  1  0
 43137  1  0
 46138  1  0
 47139  1  6
 48140  1  0
 48141  1  0
 49142  1  0
 49143  1  0
 50144  1  0
 50145  1  0
 51146  1  0
 53147  1  0
 53148  1  0
 54149  1  0
 54150  1  0
 57151  1  0
 58152  1  6
 59153  1  0
 59154  1  0
 60155  1  0
 61156  1  0
 61157  1  0
 61158  1  0
 62159  1  0
 62160  1  0
 62161  1  0
 65162  1  0
 66163  1  6
 67164  1  0
 67165  1  0
 69166  1  0
 70167  1  0
 71168  1  0
 72169  1  0
 73170  1  0
 76171  1  0
 78172  1  0
 78173  1  0
 79174  1  0
 79175  1  0
 80176  1  0
 80177  1  0
 81178  1  0
 82179  1  0
 82180  1  0
 82181  1  0
M  CHG  4  13   1  23   1  53   1  85  -1
M  END
