
     RDKit          2D

404411  0  0  0  0  0  0  0  0999 V2000
  -30.9293   -4.1904    0.0000 C   0  0  0  0  0  0  0  0  0  0  0  0
  -31.9161   -5.3201    0.0000 N   0  0  0  0  0  0  0  0  0  0  0  0
  -33.3879   -5.0304    0.0000 C   0  0  0  0  0  0  0  0  0  0  0  0
  -33.8728   -3.6110    0.0000 C   0  0  0  0  0  0  0  0  0  0  0  0
  -35.3446   -3.3212    0.0000 C   0  0  0  0  0  0  0  0  0  0  0  0
  -36.3314   -4.4509    0.0000 C   0  0  0  0  0  0  0  0  0  0  0  0
  -35.8464   -5.8704    0.0000 C   0  0  0  0  0  0  0  0  0  0  0  0
  -34.3747   -6.1601    0.0000 C   0  0  0  0  0  0  0  0  0  0  0  0
  -37.0465   -6.7702    0.0000 C   0  0  0  0  0  0  0  0  0  0  0  0
  -38.2732   -5.9069    0.0000 O   0  0  0  0  0  0  0  0  0  0  0  0
  -37.8312   -4.4735    0.0000 C   0  0  0  0  0  0  0  0  0  0  0  0
  -38.7311   -3.2734    0.0000 O   0  0  0  0  0  0  0  0  0  0  0  0
  -38.3341   -7.5397    0.0000 C   0  0  0  0  0  0  0  0  0  0  0  0
  -38.3115   -9.0395    0.0000 C   0  0  0  0  0  0  0  0  0  0  0  0
  -39.5991   -9.8090    0.0000 C   0  0  0  0  0  0  0  0  0  0  0  0
  -40.9093   -9.0787    0.0000 C   0  0  0  0  0  0  0  0  0  0  0  0
  -40.9319   -7.5788    0.0000 C   0  0  0  0  0  0  0  0  0  0  0  0
  -39.6443   -6.8094    0.0000 C   0  0  0  0  0  0  0  0  0  0  0  0
  -42.1969   -9.8482    0.0000 O   0  0  0  0  0  0  0  0  0  0  0  0
  -37.0013   -9.7699    0.0000 O   0  0  0  0  0  0  0  0  0  0  0  0
  -35.7137   -9.0004    0.0000 C   0  0  0  0  0  0  0  0  0  0  0  0
  -35.7363   -7.5006    0.0000 C   0  0  0  0  0  0  0  0  0  0  0  0
  -34.4382   -7.4310    0.0000 C   0  0  0  0  0  0  0  0  0  0  0  0
  -33.7394   -7.8205    0.0000 C   0  0  0  0  0  0  0  0  0  0  0  0
  -33.7274   -8.6204    0.0000 C   0  0  0  0  0  0  0  0  0  0  0  0
  -34.4141   -9.0308    0.0000 C   0  0  0  0  0  0  0  0  0  0  0  0
  -31.8058   -9.6916    0.0000 O   0  0  0  0  0  0  0  0  0  0  0  0
  -31.4143   -2.7710    0.0000 S   0  0  0  0  0  0  0  0  0  0  0  0
  -29.4576   -4.4801    0.0000 N   0  0  0  0  0  0  0  0  0  0  0  0
  -28.4708   -3.3504    0.0000 C   0  0  0  0  0  0  0  0  0  0  0  0
  -26.9990   -3.6402    0.0000 C   0  0  0  0  0  0  0  0  0  0  0  0
  -26.0122   -2.5105    0.0000 C   0  0  0  0  0  0  0  0  0  0  0  0
  -26.4972   -1.0910    0.0000 O   0  0  0  0  0  0  0  0  0  0  0  0
  -24.5405   -2.8002    0.0000 N   0  0  0  0  0  0  0  0  0  0  0  0
  -23.5537   -1.6705    0.0000 C   0  0  0  0  0  0  0  0  0  0  0  0
  -23.0128   -0.2714    0.0000 C   0  0  0  0  0  0  0  0  0  0  0  0
  -22.9830    1.2283    0.0000 O   0  0  0  0  0  0  0  0  0  0  0  0
  -21.5699    0.1387    0.0000 C   0  0  0  0  0  0  0  0  0  0  0  0
  -22.0819   -1.9602    0.0000 C   0  0  0  0  0  0  0  0  0  0  0  0
  -21.5970   -3.3797    0.0000 O   0  0  0  0  0  0  0  0  0  0  0  0
  -21.0951   -0.8305    0.0000 N   0  0  0  0  0  0  0  0  0  0  0  0
  -19.6234   -1.1202    0.0000 C   0  0  0  0  0  0  0  0  0  0  0  0
  -18.3395   -1.8959    0.0000 C   0  0  0  0  0  0  0  0  0  0  0  0
  -18.3693   -3.3956    0.0000 C   0  0  0  0  0  0  0  0  0  0  0  0
  -17.0853   -4.1712    0.0000 C   0  0  0  0  0  0  0  0  0  0  0  0
  -17.1151   -5.6709    0.0000 N   0  0  0  0  0  0  0  0  0  0  0  0
  -15.8312   -6.4465    0.0000 C   0  0  0  0  0  0  0  0  0  0  0  0
  -15.8610   -7.9462    0.0000 N   0  0  0  0  0  0  0  0  0  0  0  0
  -14.5175   -5.7224    0.0000 N   0  0  0  0  0  0  0  0  0  0  0  0
  -18.6366    0.0095    0.0000 C   0  0  0  0  0  0  0  0  0  0  0  0
  -19.1216    1.4289    0.0000 O   0  0  0  0  0  0  0  0  0  0  0  0
  -17.1648   -0.2803    0.0000 N   0  0  0  0  0  0  0  0  0  0  0  0
  -16.1781    0.8495    0.0000 C   0  0  0  0  0  0  0  0  0  0  0  0
  -15.6372    2.2485    0.0000 C   0  0  0  0  0  0  0  0  0  0  0  0
  -14.1551    2.4796    0.0000 C   0  0  0  0  0  0  0  0  0  0  0  0
  -13.6142    3.8787    0.0000 C   0  0  0  0  0  0  0  0  0  0  0  0
  -12.2321    4.4616    0.0000 N   0  0  0  0  0  0  0  0  0  0  0  0
  -14.8100    4.7843    0.0000 O   0  0  0  0  0  0  0  0  0  0  0  0
  -14.7063    0.5597    0.0000 C   0  0  0  0  0  0  0  0  0  0  0  0
  -14.3980   -0.9082    0.0000 O   0  0  0  0  0  0  0  0  0  0  0  0
  -13.7195    1.6894    0.0000 N   0  0  0  0  0  0  0  0  0  0  0  0
  -12.2478    1.3997    0.0000 C   0  0  0  0  0  0  0  0  0  0  0  0
  -11.4912    0.1045    0.0000 C   0  0  0  0  0  0  0  0  0  0  0  0
  -10.3864   -0.9101    0.0000 C   0  0  0  0  0  0  0  0  0  0  0  0
   -9.0317   -1.5541    0.0000 C   0  0  0  0  0  0  0  0  0  0  0  0
   -7.5473   -1.7701    0.0000 C   0  0  0  0  0  0  0  0  0  0  0  0
  -13.2597    0.2924    0.0000 C   0  0  0  0  0  0  0  0  0  0  0  0
  -12.5890    2.8604    0.0000 C   0  0  0  0  0  0  0  0  0  0  0  0
  -13.3536    3.0858    0.0000 O   0  0  0  0  0  0  0  0  0  0  0  0
  -12.4845    4.3567    0.0000 N   0  0  0  0  0  0  0  0  0  0  0  0
  -11.9436    5.7558    0.0000 C   0  0  0  0  0  0  0  0  0  0  0  0
  -12.6347    7.0871    0.0000 C   0  0  0  0  0  0  0  0  0  0  0  0
  -14.1332    7.1543    0.0000 C   0  0  0  0  0  0  0  0  0  0  0  0
  -14.8243    8.4856    0.0000 C   0  0  0  0  0  0  0  0  0  0  0  0
  -16.3228    8.5527    0.0000 N   0  0  0  0  0  0  0  0  0  0  0  0
  -17.0139    9.8840    0.0000 C   0  0  0  0  0  0  0  0  0  0  0  0
  -18.5124    9.9512    0.0000 N   0  0  0  0  0  0  0  0  0  0  0  0
  -16.2065   11.1482    0.0000 N   0  0  0  0  0  0  0  0  0  0  0  0
  -11.0144    6.9333    0.0000 C   0  0  0  0  0  0  0  0  0  0  0  0
  -12.0402    8.0277    0.0000 O   0  0  0  0  0  0  0  0  0  0  0  0
   -9.7793    7.7846    0.0000 N   0  0  0  0  0  0  0  0  0  0  0  0
   -8.3482    8.2340    0.0000 C   0  0  0  0  0  0  0  0  0  0  0  0
   -7.7383    9.6044    0.0000 C   0  0  0  0  0  0  0  0  0  0  0  0
   -8.6201   10.8178    0.0000 C   0  0  0  0  0  0  0  0  0  0  0  0
   -8.0101   12.1882    0.0000 C   0  0  0  0  0  0  0  0  0  0  0  0
   -8.8919   13.4016    0.0000 N   0  0  0  0  0  0  0  0  0  0  0  0
   -8.2819   14.7720    0.0000 C   0  0  0  0  0  0  0  0  0  0  0  0
   -9.1637   15.9855    0.0000 N   0  0  0  0  0  0  0  0  0  0  0  0
   -6.7902   14.9290    0.0000 N   0  0  0  0  0  0  0  0  0  0  0  0
   -6.8482    8.2416    0.0000 C   0  0  0  0  0  0  0  0  0  0  0  0
   -6.6322    9.7260    0.0000 O   0  0  0  0  0  0  0  0  0  0  0  0
   -5.4126    7.8068    0.0000 N   0  0  0  0  0  0  0  0  0  0  0  0
   -4.1690    6.9682    0.0000 C   0  0  0  0  0  0  0  0  0  0  0  0
   -2.7173    7.3457    0.0000 C   0  0  0  0  0  0  0  0  0  0  0  0
   -2.3184    8.7917    0.0000 C   0  0  0  0  0  0  0  0  0  0  0  0
   -0.8667    9.1692    0.0000 C   0  0  0  0  0  0  0  0  0  0  0  0
   -0.4678   10.6152    0.0000 N   0  0  0  0  0  0  0  0  0  0  0  0
    0.1861    8.1007    0.0000 O   0  0  0  0  0  0  0  0  0  0  0  0
   -3.2278    5.8002    0.0000 C   0  0  0  0  0  0  0  0  0  0  0  0
   -1.9326    6.5568    0.0000 O   0  0  0  0  0  0  0  0  0  0  0  0
   -2.6727    4.4067    0.0000 N   0  0  0  0  0  0  0  0  0  0  0  0
   -2.5530    2.9115    0.0000 C   0  0  0  0  0  0  0  0  0  0  0  0
   -2.8793    1.4474    0.0000 C   0  0  0  0  0  0  0  0  0  0  0  0
   -3.6227    0.1446    0.0000 C   0  0  0  0  0  0  0  0  0  0  0  0
   -4.7171   -0.8813    0.0000 C   0  0  0  0  0  0  0  0  0  0  0  0
   -6.0652   -1.5390    0.0000 C   0  0  0  0  0  0  0  0  0  0  0  0
   -1.2393    3.6355    0.0000 C   0  0  0  0  0  0  0  0  0  0  0  0
   -1.3527    2.0119    0.0000 C   0  0  0  0  0  0  0  0  0  0  0  0
   -1.1659    0.5235    0.0000 O   0  0  0  0  0  0  0  0  0  0  0  0
    0.0265    2.6015    0.0000 N   0  0  0  0  0  0  0  0  0  0  0  0
    1.2268    1.7019    0.0000 C   0  0  0  0  0  0  0  0  0  0  0  0
    2.0470    0.4461    0.0000 C   0  0  0  0  0  0  0  0  0  0  0  0
    1.3695   -0.8922    0.0000 C   0  0  0  0  0  0  0  0  0  0  0  0
    2.1898   -2.1481    0.0000 C   0  0  0  0  0  0  0  0  0  0  0  0
    1.5122   -3.4864    0.0000 N   0  0  0  0  0  0  0  0  0  0  0  0
    2.3325   -4.7423    0.0000 C   0  0  0  0  0  0  0  0  0  0  0  0
    1.6550   -6.0805    0.0000 N   0  0  0  0  0  0  0  0  0  0  0  0
    3.8302   -4.6599    0.0000 N   0  0  0  0  0  0  0  0  0  0  0  0
    2.6061    2.2916    0.0000 C   0  0  0  0  0  0  0  0  0  0  0  0
    2.7850    3.7809    0.0000 O   0  0  0  0  0  0  0  0  0  0  0  0
    3.8063    1.3920    0.0000 N   0  0  0  0  0  0  0  0  0  0  0  0
    5.1856    1.9817    0.0000 C   0  0  0  0  0  0  0  0  0  0  0  0
    6.2799    3.0075    0.0000 C   0  0  0  0  0  0  0  0  0  0  0  0
    7.7155    2.5727    0.0000 C   0  0  0  0  0  0  0  0  0  0  0  0
    8.8099    3.5985    0.0000 C   0  0  0  0  0  0  0  0  0  0  0  0
   10.2455    3.1637    0.0000 N   0  0  0  0  0  0  0  0  0  0  0  0
   11.3399    4.1896    0.0000 C   0  0  0  0  0  0  0  0  0  0  0  0
   12.7118    3.5830    0.0000 N   0  0  0  0  0  0  0  0  0  0  0  0
   10.9987    5.6502    0.0000 N   0  0  0  0  0  0  0  0  0  0  0  0
    6.3859    1.0821    0.0000 C   0  0  0  0  0  0  0  0  0  0  0  0
    6.2069   -0.4072    0.0000 O   0  0  0  0  0  0  0  0  0  0  0  0
    7.7651    1.6718    0.0000 N   0  0  0  0  0  0  0  0  0  0  0  0
    8.9654    0.7721    0.0000 C   0  0  0  0  0  0  0  0  0  0  0  0
    9.7856   -0.4837    0.0000 C   0  0  0  0  0  0  0  0  0  0  0  0
    9.1081   -1.8220    0.0000 C   0  0  0  0  0  0  0  0  0  0  0  0
    9.9283   -3.0779    0.0000 C   0  0  0  0  0  0  0  0  0  0  0  0
    9.2508   -4.4162    0.0000 N   0  0  0  0  0  0  0  0  0  0  0  0
   10.0710   -5.6720    0.0000 C   0  0  0  0  0  0  0  0  0  0  0  0
    9.3935   -7.0103    0.0000 N   0  0  0  0  0  0  0  0  0  0  0  0
   11.5688   -5.5896    0.0000 N   0  0  0  0  0  0  0  0  0  0  0  0
   10.3446    1.3618    0.0000 C   0  0  0  0  0  0  0  0  0  0  0  0
   10.8786    2.7636    0.0000 O   0  0  0  0  0  0  0  0  0  0  0  0
   11.5449    0.4622    0.0000 N   0  0  0  0  0  0  0  0  0  0  0  0
   12.9242    1.0519    0.0000 C   0  0  0  0  0  0  0  0  0  0  0  0
   14.0185    2.0777    0.0000 C   0  0  0  0  0  0  0  0  0  0  0  0
   15.4541    1.6429    0.0000 C   0  0  0  0  0  0  0  0  0  0  0  0
   15.9461    0.2259    0.0000 C   0  0  0  0  0  0  0  0  0  0  0  0
   17.4458    0.2560    0.0000 N   0  0  0  0  0  0  0  0  0  0  0  0
   17.8807    1.6916    0.0000 C   0  0  0  0  0  0  0  0  0  0  0  0
   19.2385    2.3290    0.0000 C   0  0  0  0  0  0  0  0  0  0  0  0
   19.3653    3.8237    0.0000 C   0  0  0  0  0  0  0  0  0  0  0  0
   18.1344    4.6808    0.0000 C   0  0  0  0  0  0  0  0  0  0  0  0
   16.7766    4.0434    0.0000 C   0  0  0  0  0  0  0  0  0  0  0  0
   16.6497    2.5487    0.0000 C   0  0  0  0  0  0  0  0  0  0  0  0
   14.1244    0.1523    0.0000 C   0  0  0  0  0  0  0  0  0  0  0  0
   13.9455   -1.3370    0.0000 O   0  0  0  0  0  0  0  0  0  0  0  0
   15.5037    0.7420    0.0000 N   0  0  0  0  0  0  0  0  0  0  0  0
   16.7040   -0.1576    0.0000 C   0  0  0  0  0  0  0  0  0  0  0  0
   17.5242   -1.4135    0.0000 C   0  0  0  0  0  0  0  0  0  0  0  0
   16.8467   -2.7518    0.0000 C   0  0  0  0  0  0  0  0  0  0  0  0
   17.6669   -4.0077    0.0000 C   0  0  0  0  0  0  0  0  0  0  0  0
   16.9894   -5.3459    0.0000 N   0  0  0  0  0  0  0  0  0  0  0  0
   17.8096   -6.6018    0.0000 C   0  0  0  0  0  0  0  0  0  0  0  0
   17.1321   -7.9401    0.0000 N   0  0  0  0  0  0  0  0  0  0  0  0
   19.3073   -6.5194    0.0000 N   0  0  0  0  0  0  0  0  0  0  0  0
   18.0832    0.4320    0.0000 C   0  0  0  0  0  0  0  0  0  0  0  0
   18.6172    1.8338    0.0000 O   0  0  0  0  0  0  0  0  0  0  0  0
   19.2835   -0.4676    0.0000 N   0  0  0  0  0  0  0  0  0  0  0  0
   20.6627    0.1221    0.0000 C   0  0  0  0  0  0  0  0  0  0  0  0
   21.7571    1.1480    0.0000 C   0  0  0  0  0  0  0  0  0  0  0  0
   23.1927    0.7131    0.0000 C   0  0  0  0  0  0  0  0  0  0  0  0
   24.2871    1.7390    0.0000 C   0  0  0  0  0  0  0  0  0  0  0  0
   25.7649    1.4824    0.0000 O   0  0  0  0  0  0  0  0  0  0  0  0
   23.9458    3.1996    0.0000 O   0  0  0  0  0  0  0  0  0  0  0  0
   21.8630   -0.7775    0.0000 C   0  0  0  0  0  0  0  0  0  0  0  0
   21.6841   -2.2668    0.0000 O   0  0  0  0  0  0  0  0  0  0  0  0
   23.2422   -0.1878    0.0000 N   0  0  0  0  0  0  0  0  0  0  0  0
   24.4425   -1.0874    0.0000 C   0  0  0  0  0  0  0  0  0  0  0  0
   25.2628   -2.3433    0.0000 C   0  0  0  0  0  0  0  0  0  0  0  0
   24.5853   -3.6816    0.0000 C   0  0  0  0  0  0  0  0  0  0  0  0
   25.4055   -4.9374    0.0000 C   0  0  0  0  0  0  0  0  0  0  0  0
   24.7280   -6.2757    0.0000 N   0  0  0  0  0  0  0  0  0  0  0  0
   25.5482   -7.5316    0.0000 C   0  0  0  0  0  0  0  0  0  0  0  0
   24.8707   -8.8699    0.0000 N   0  0  0  0  0  0  0  0  0  0  0  0
   27.0459   -7.4492    0.0000 N   0  0  0  0  0  0  0  0  0  0  0  0
   25.8218   -0.4977    0.0000 C   0  0  0  0  0  0  0  0  0  0  0  0
   26.1809    0.9586    0.0000 O   0  0  0  0  0  0  0  0  0  0  0  0
   27.0221   -1.3973    0.0000 N   0  0  0  0  0  0  0  0  0  0  0  0
   28.4013   -0.8077    0.0000 C   0  0  0  0  0  0  0  0  0  0  0  0
   29.4957    0.2182    0.0000 C   0  0  0  0  0  0  0  0  0  0  0  0
   30.9313   -0.2166    0.0000 C   0  0  0  0  0  0  0  0  0  0  0  0
   32.0256    0.8092    0.0000 C   0  0  0  0  0  0  0  0  0  0  0  0
   33.5035    0.5526    0.0000 N   0  0  0  0  0  0  0  0  0  0  0  0
   31.6844    2.2699    0.0000 O   0  0  0  0  0  0  0  0  0  0  0  0
   29.6016   -1.7073    0.0000 C   0  0  0  0  0  0  0  0  0  0  0  0
   29.4227   -3.1966    0.0000 O   0  0  0  0  0  0  0  0  0  0  0  0
   30.9808   -1.1176    0.0000 N   0  0  0  0  0  0  0  0  0  0  0  0
   32.1811   -2.0172    0.0000 C   0  0  0  0  0  0  0  0  0  0  0  0
   33.0013   -3.2731    0.0000 C   0  0  0  0  0  0  0  0  0  0  0  0
   32.3238   -4.6114    0.0000 C   0  0  0  0  0  0  0  0  0  0  0  0
   33.1440   -5.8672    0.0000 C   0  0  0  0  0  0  0  0  0  0  0  0
   32.4665   -7.2055    0.0000 N   0  0  0  0  0  0  0  0  0  0  0  0
   33.2868   -8.4614    0.0000 C   0  0  0  0  0  0  0  0  0  0  0  0
   32.6092   -9.7997    0.0000 N   0  0  0  0  0  0  0  0  0  0  0  0
   34.7845   -8.3790    0.0000 N   0  0  0  0  0  0  0  0  0  0  0  0
   33.5603   -1.4275    0.0000 C   0  0  0  0  0  0  0  0  0  0  0  0
   34.8613   -2.1741    0.0000 O   0  0  0  0  0  0  0  0  0  0  0  0
   33.9195    0.0289    0.0000 O   0  0  0  0  0  0  0  0  0  0  0  0
  -31.2617   -6.6699    0.0000 H   0  0  0  0  0  0  0  0  0  0  0  0
  -32.8860   -2.4812    0.0000 H   0  0  0  0  0  0  0  0  0  0  0  0
  -35.8295   -1.9018    0.0000 H   0  0  0  0  0  0  0  0  0  0  0  0
  -33.5606   -7.4200    0.0000 H   0  0  0  0  0  0  0  0  0  0  0  0
  -39.5765  -11.3089    0.0000 H   0  0  0  0  0  0  0  0  0  0  0  0
  -42.2421   -6.8485    0.0000 H   0  0  0  0  0  0  0  0  0  0  0  0
  -39.6669   -5.3095    0.0000 H   0  0  0  0  0  0  0  0  0  0  0  0
  -43.5071   -9.1178    0.0000 H   0  0  0  0  0  0  0  0  0  0  0  0
  -34.4713   -5.2313    0.0000 H   0  0  0  0  0  0  0  0  0  0  0  0
  -31.7668   -6.8546    0.0000 H   0  0  0  0  0  0  0  0  0  0  0  0
  -34.3809  -11.2306    0.0000 H   0  0  0  0  0  0  0  0  0  0  0  0
  -31.7832  -11.1914    0.0000 H   0  0  0  0  0  0  0  0  0  0  0  0
  -28.9726   -5.8996    0.0000 H   0  0  0  0  0  0  0  0  0  0  0  0
  -27.9299   -1.9514    0.0000 H   0  0  0  0  0  0  0  0  0  0  0  0
  -29.7547   -2.5748    0.0000 H   0  0  0  0  0  0  0  0  0  0  0  0
  -25.7151   -4.4158    0.0000 H   0  0  0  0  0  0  0  0  0  0  0  0
  -27.5399   -5.0392    0.0000 H   0  0  0  0  0  0  0  0  0  0  0  0
  -24.0555   -4.2196    0.0000 H   0  0  0  0  0  0  0  0  0  0  0  0
  -24.8376   -0.8949    0.0000 H   0  0  0  0  0  0  0  0  0  0  0  0
  -24.4845    0.0183    0.0000 H   0  0  0  0  0  0  0  0  0  0  0  0
  -24.2669    2.0039    0.0000 H   0  0  0  0  0  0  0  0  0  0  0  0
  -20.9898    1.3588    0.0000 H   0  0  0  0  0  0  0  0  0  0  0  0
  -20.0589   -0.3300    0.0000 H   0  0  0  0  0  0  0  0  0  0  0  0
  -20.8528   -1.3783    0.0000 H   0  0  0  0  0  0  0  0  0  0  0  0
  -21.4035    0.6375    0.0000 H   0  0  0  0  0  0  0  0  0  0  0  0
  -20.3308   -2.4429    0.0000 H   0  0  0  0  0  0  0  0  0  0  0  0
  -16.8677   -2.1856    0.0000 H   0  0  0  0  0  0  0  0  0  0  0  0
  -17.4761   -0.6692    0.0000 H   0  0  0  0  0  0  0  0  0  0  0  0
  -18.9101   -4.7946    0.0000 H   0  0  0  0  0  0  0  0  0  0  0  0
  -19.8653   -3.2874    0.0000 H   0  0  0  0  0  0  0  0  0  0  0  0
  -15.6136   -4.4609    0.0000 H   0  0  0  0  0  0  0  0  0  0  0  0
  -16.3779   -2.8485    0.0000 H   0  0  0  0  0  0  0  0  0  0  0  0
  -18.4288   -6.3950    0.0000 H   0  0  0  0  0  0  0  0  0  0  0  0
  -14.5771   -8.7219    0.0000 H   0  0  0  0  0  0  0  0  0  0  0  0
  -13.2336   -6.4981    0.0000 H   0  0  0  0  0  0  0  0  0  0  0  0
  -14.4878   -4.2227    0.0000 H   0  0  0  0  0  0  0  0  0  0  0  0
  -16.5105   -1.6300    0.0000 H   0  0  0  0  0  0  0  0  0  0  0  0
  -17.4620    1.6251    0.0000 H   0  0  0  0  0  0  0  0  0  0  0  0
  -15.6074    3.7482    0.0000 H   0  0  0  0  0  0  0  0  0  0  0  0
  -17.1089    2.5383    0.0000 H   0  0  0  0  0  0  0  0  0  0  0  0
  -12.6569    2.5547    0.0000 H   0  0  0  0  0  0  0  0  0  0  0  0
  -13.6453    1.0689    0.0000 H   0  0  0  0  0  0  0  0  0  0  0  0
  -11.3568    5.3227    0.0000 H   0  0  0  0  0  0  0  0  0  0  0  0
  -11.1909    2.9419    0.0000 H   0  0  0  0  0  0  0  0  0  0  0  0
  -14.0278    3.1574    0.0000 H   0  0  0  0  0  0  0  0  0  0  0  0
  -12.9527   -0.2331    0.0000 H   0  0  0  0  0  0  0  0  0  0  0  0
  -11.9616   -1.3198    0.0000 H   0  0  0  0  0  0  0  0  0  0  0  0
  -11.5820   -1.8160    0.0000 H   0  0  0  0  0  0  0  0  0  0  0  0
  -10.5987   -2.3950    0.0000 H   0  0  0  0  0  0  0  0  0  0  0  0
  -10.0490   -2.6563    0.0000 H   0  0  0  0  0  0  0  0  0  0  0  0
   -8.6180   -2.9959    0.0000 H   0  0  0  0  0  0  0  0  0  0  0  0
   -7.5396   -3.2701    0.0000 H   0  0  0  0  0  0  0  0  0  0  0  0
  -12.8740   -1.3282    0.0000 H   0  0  0  0  0  0  0  0  0  0  0  0
  -14.2263   -0.7999    0.0000 H   0  0  0  0  0  0  0  0  0  0  0  0
  -14.4512    0.8562    0.0000 H   0  0  0  0  0  0  0  0  0  0  0  0
  -13.8979    4.8591    0.0000 H   0  0  0  0  0  0  0  0  0  0  0  0
  -13.4201    5.4915    0.0000 H   0  0  0  0  0  0  0  0  0  0  0  0
  -12.6460    8.5871    0.0000 H   0  0  0  0  0  0  0  0  0  0  0  0
  -11.3549    7.8695    0.0000 H   0  0  0  0  0  0  0  0  0  0  0  0
  -15.5643    6.7048    0.0000 H   0  0  0  0  0  0  0  0  0  0  0  0
  -14.3048    5.6641    0.0000 H   0  0  0  0  0  0  0  0  0  0  0  0
  -15.0184    9.9730    0.0000 H   0  0  0  0  0  0  0  0  0  0  0  0
  -13.4587    9.1061    0.0000 H   0  0  0  0  0  0  0  0  0  0  0  0
  -17.1302    7.2885    0.0000 H   0  0  0  0  0  0  0  0  0  0  0  0
  -19.2035   11.2825    0.0000 H   0  0  0  0  0  0  0  0  0  0  0  0
  -16.8976   12.4795    0.0000 H   0  0  0  0  0  0  0  0  0  0  0  0
  -14.7080   11.0810    0.0000 H   0  0  0  0  0  0  0  0  0  0  0  0
  -10.4370    9.1327    0.0000 H   0  0  0  0  0  0  0  0  0  0  0  0
   -9.4755    9.2236    0.0000 H   0  0  0  0  0  0  0  0  0  0  0  0
   -6.5726   10.5485    0.0000 H   0  0  0  0  0  0  0  0  0  0  0  0
   -6.3286    9.0916    0.0000 H   0  0  0  0  0  0  0  0  0  0  0  0
   -9.8637   11.6565    0.0000 H   0  0  0  0  0  0  0  0  0  0  0  0
   -9.7857    9.8738    0.0000 H   0  0  0  0  0  0  0  0  0  0  0  0
   -6.9682   13.2673    0.0000 H   0  0  0  0  0  0  0  0  0  0  0  0
   -6.6735   11.5074    0.0000 H   0  0  0  0  0  0  0  0  0  0  0  0
  -10.3837   13.2447    0.0000 H   0  0  0  0  0  0  0  0  0  0  0  0
   -8.5538   17.3558    0.0000 H   0  0  0  0  0  0  0  0  0  0  0  0
   -6.1802   16.2994    0.0000 H   0  0  0  0  0  0  0  0  0  0  0  0
   -5.9084   13.7155    0.0000 H   0  0  0  0  0  0  0  0  0  0  0  0
   -4.7687    9.1616    0.0000 H   0  0  0  0  0  0  0  0  0  0  0  0
   -4.0982    8.4665    0.0000 H   0  0  0  0  0  0  0  0  0  0  0  0
   -1.2240    7.2039    0.0000 H   0  0  0  0  0  0  0  0  0  0  0  0
   -2.2393    5.9239    0.0000 H   0  0  0  0  0  0  0  0  0  0  0  0
   -2.4381   10.2869    0.0000 H   0  0  0  0  0  0  0  0  0  0  0  0
   -3.7833    9.1144    0.0000 H   0  0  0  0  0  0  0  0  0  0  0  0
    0.9839   10.9927    0.0000 H   0  0  0  0  0  0  0  0  0  0  0  0
   -1.5206   11.6836    0.0000 H   0  0  0  0  0  0  0  0  0  0  0  0
   -1.2120    4.7479    0.0000 H   0  0  0  0  0  0  0  0  0  0  0  0
   -1.9975    0.2340    0.0000 H   0  0  0  0  0  0  0  0  0  0  0  0
   -1.3805    1.3876    0.0000 H   0  0  0  0  0  0  0  0  0  0  0  0
   -2.9683   -1.2052    0.0000 H   0  0  0  0  0  0  0  0  0  0  0  0
   -2.2081   -0.3543    0.0000 H   0  0  0  0  0  0  0  0  0  0  0  0
   -4.6720   -2.3806    0.0000 H   0  0  0  0  0  0  0  0  0  0  0  0
   -3.4124   -1.6214    0.0000 H   0  0  0  0  0  0  0  0  0  0  0  0
   -5.6158   -2.9701    0.0000 H   0  0  0  0  0  0  0  0  0  0  0  0
    0.1941    3.1936    0.0000 H   0  0  0  0  0  0  0  0  0  0  0  0
   -0.3976    4.8771    0.0000 H   0  0  0  0  0  0  0  0  0  0  0  0
   -1.8699    4.9966    0.0000 H   0  0  0  0  0  0  0  0  0  0  0  0
    0.3857    4.0579    0.0000 H   0  0  0  0  0  0  0  0  0  0  0  0
    0.0156    0.8171    0.0000 H   0  0  0  0  0  0  0  0  0  0  0  0
    3.2473   -0.4536    0.0000 H   0  0  0  0  0  0  0  0  0  0  0  0
    3.3571    1.1766    0.0000 H   0  0  0  0  0  0  0  0  0  0  0  0
    0.2752   -1.9181    0.0000 H   0  0  0  0  0  0  0  0  0  0  0  0
    0.0685   -0.1456    0.0000 H   0  0  0  0  0  0  0  0  0  0  0  0
    3.3901   -3.0477    0.0000 H   0  0  0  0  0  0  0  0  0  0  0  0
    3.4010   -1.2633    0.0000 H   0  0  0  0  0  0  0  0  0  0  0  0
    0.0145   -3.5688    0.0000 H   0  0  0  0  0  0  0  0  0  0  0  0
    2.4752   -7.3364    0.0000 H   0  0  0  0  0  0  0  0  0  0  0  0
    4.6504   -5.9157    0.0000 H   0  0  0  0  0  0  0  0  0  0  0  0
    4.5077   -3.3216    0.0000 H   0  0  0  0  0  0  0  0  0  0  0  0
    3.8103   -0.1080    0.0000 H   0  0  0  0  0  0  0  0  0  0  0  0
    4.3654    3.2376    0.0000 H   0  0  0  0  0  0  0  0  0  0  0  0
    6.7893    4.4184    0.0000 H   0  0  0  0  0  0  0  0  0  0  0  0
    5.0797    3.9071    0.0000 H   0  0  0  0  0  0  0  0  0  0  0  0
    8.9158    1.6731    0.0000 H   0  0  0  0  0  0  0  0  0  0  0  0
    7.7458    1.0730    0.0000 H   0  0  0  0  0  0  0  0  0  0  0  0
    9.4874    4.9368    0.0000 H   0  0  0  0  0  0  0  0  0  0  0  0
    7.7282    4.6378    0.0000 H   0  0  0  0  0  0  0  0  0  0  0  0
   10.9300    1.8290    0.0000 H   0  0  0  0  0  0  0  0  0  0  0  0
   13.8698    4.7806    0.0000 H   0  0  0  0  0  0  0  0  0  0  0  0
   12.0930    6.6761    0.0000 H   0  0  0  0  0  0  0  0  0  0  0  0
    9.5631    6.0851    0.0000 H   0  0  0  0  0  0  0  0  0  0  0  0
    8.2991    3.0735    0.0000 H   0  0  0  0  0  0  0  0  0  0  0  0
    7.7541   -0.1126    0.0000 H   0  0  0  0  0  0  0  0  0  0  0  0
   10.9859   -1.3833    0.0000 H   0  0  0  0  0  0  0  0  0  0  0  0
   11.0957    0.2468    0.0000 H   0  0  0  0  0  0  0  0  0  0  0  0
    8.0137   -2.8478    0.0000 H   0  0  0  0  0  0  0  0  0  0  0  0
    7.8071   -1.0754    0.0000 H   0  0  0  0  0  0  0  0  0  0  0  0
   11.1286   -3.9775    0.0000 H   0  0  0  0  0  0  0  0  0  0  0  0
   11.1396   -2.1931    0.0000 H   0  0  0  0  0  0  0  0  0  0  0  0
    7.7531   -4.4986    0.0000 H   0  0  0  0  0  0  0  0  0  0  0  0
   10.2138   -8.2662    0.0000 H   0  0  0  0  0  0  0  0  0  0  0  0
   12.3890   -6.8455    0.0000 H   0  0  0  0  0  0  0  0  0  0  0  0
   12.2463   -4.2514    0.0000 H   0  0  0  0  0  0  0  0  0  0  0  0
   11.5489   -1.0378    0.0000 H   0  0  0  0  0  0  0  0  0  0  0  0
   12.1039    2.3078    0.0000 H   0  0  0  0  0  0  0  0  0  0  0  0
   14.6960    3.4160    0.0000 H   0  0  0  0  0  0  0  0  0  0  0  0
   12.7175    2.8243    0.0000 H   0  0  0  0  0  0  0  0  0  0  0  0
   14.9453   -0.8914    0.0000 H   0  0  0  0  0  0  0  0  0  0  0  0
   18.4907   -0.8203    0.0000 H   0  0  0  0  0  0  0  0  0  0  0  0
   20.4694    1.4719    0.0000 H   0  0  0  0  0  0  0  0  0  0  0  0
   20.7231    4.4611    0.0000 H   0  0  0  0  0  0  0  0  0  0  0  0
   18.2612    6.1755    0.0000 H   0  0  0  0  0  0  0  0  0  0  0  0
   15.5456    4.9005    0.0000 H   0  0  0  0  0  0  0  0  0  0  0  0
   16.0377    2.1437    0.0000 H   0  0  0  0  0  0  0  0  0  0  0  0
   15.6096   -1.1835    0.0000 H   0  0  0  0  0  0  0  0  0  0  0  0
   18.7245   -2.3131    0.0000 H   0  0  0  0  0  0  0  0  0  0  0  0
   18.9136   -0.8481    0.0000 H   0  0  0  0  0  0  0  0  0  0  0  0
   15.7523   -3.7776    0.0000 H   0  0  0  0  0  0  0  0  0  0  0  0
   15.5457   -2.0052    0.0000 H   0  0  0  0  0  0  0  0  0  0  0  0
   18.8672   -4.9073    0.0000 H   0  0  0  0  0  0  0  0  0  0  0  0
   18.8782   -3.1229    0.0000 H   0  0  0  0  0  0  0  0  0  0  0  0
   15.4917   -5.4283    0.0000 H   0  0  0  0  0  0  0  0  0  0  0  0
   17.9523   -9.1960    0.0000 H   0  0  0  0  0  0  0  0  0  0  0  0
   20.1276   -7.7753    0.0000 H   0  0  0  0  0  0  0  0  0  0  0  0
   19.9849   -5.1812    0.0000 H   0  0  0  0  0  0  0  0  0  0  0  0
   19.2874   -1.9676    0.0000 H   0  0  0  0  0  0  0  0  0  0  0  0
   19.6955    1.2687    0.0000 H   0  0  0  0  0  0  0  0  0  0  0  0
   22.4346    2.4862    0.0000 H   0  0  0  0  0  0  0  0  0  0  0  0
   20.6754    2.1872    0.0000 H   0  0  0  0  0  0  0  0  0  0  0  0
   24.3930   -0.1865    0.0000 H   0  0  0  0  0  0  0  0  0  0  0  0
   23.2229   -0.7866    0.0000 H   0  0  0  0  0  0  0  0  0  0  0  0
   25.0402    4.2255    0.0000 H   0  0  0  0  0  0  0  0  0  0  0  0
   23.7762    1.2139    0.0000 H   0  0  0  0  0  0  0  0  0  0  0  0
   23.2313   -1.9722    0.0000 H   0  0  0  0  0  0  0  0  0  0  0  0
   26.4631   -3.2429    0.0000 H   0  0  0  0  0  0  0  0  0  0  0  0
   26.5728   -1.6127    0.0000 H   0  0  0  0  0  0  0  0  0  0  0  0
   23.4909   -4.7074    0.0000 H   0  0  0  0  0  0  0  0  0  0  0  0
   23.2843   -2.9350    0.0000 H   0  0  0  0  0  0  0  0  0  0  0  0
   26.6058   -5.8371    0.0000 H   0  0  0  0  0  0  0  0  0  0  0  0
   26.6167   -4.0527    0.0000 H   0  0  0  0  0  0  0  0  0  0  0  0
   23.2302   -6.3581    0.0000 H   0  0  0  0  0  0  0  0  0  0  0  0
   25.6909  -10.1258    0.0000 H   0  0  0  0  0  0  0  0  0  0  0  0
   27.8661   -8.7051    0.0000 H   0  0  0  0  0  0  0  0  0  0  0  0
   27.7234   -6.1109    0.0000 H   0  0  0  0  0  0  0  0  0  0  0  0
   27.0260   -2.8973    0.0000 H   0  0  0  0  0  0  0  0  0  0  0  0
   27.5811    0.4482    0.0000 H   0  0  0  0  0  0  0  0  0  0  0  0
   30.1732    1.5565    0.0000 H   0  0  0  0  0  0  0  0  0  0  0  0
   28.2954    1.1178    0.0000 H   0  0  0  0  0  0  0  0  0  0  0  0
   32.1316   -1.1163    0.0000 H   0  0  0  0  0  0  0  0  0  0  0  0
   30.9615   -1.7163    0.0000 H   0  0  0  0  0  0  0  0  0  0  0  0
   34.5556    1.4002    0.0000 H   0  0  0  0  0  0  0  0  0  0  0  0
   34.1901   -0.9653    0.0000 H   0  0  0  0  0  0  0  0  0  0  0  0
   31.5148    0.2841    0.0000 H   0  0  0  0  0  0  0  0  0  0  0  0
   30.9699   -2.9020    0.0000 H   0  0  0  0  0  0  0  0  0  0  0  0
   34.3023   -4.0197    0.0000 H   0  0  0  0  0  0  0  0  0  0  0  0
   34.2126   -2.3883    0.0000 H   0  0  0  0  0  0  0  0  0  0  0  0
   31.2295   -5.6372    0.0000 H   0  0  0  0  0  0  0  0  0  0  0  0
   31.0228   -3.8648    0.0000 H   0  0  0  0  0  0  0  0  0  0  0  0
   34.3443   -6.7668    0.0000 H   0  0  0  0  0  0  0  0  0  0  0  0
   34.3553   -4.9824    0.0000 H   0  0  0  0  0  0  0  0  0  0  0  0
   30.9688   -7.2879    0.0000 H   0  0  0  0  0  0  0  0  0  0  0  0
   33.4295  -11.0555    0.0000 H   0  0  0  0  0  0  0  0  0  0  0  0
   35.6047   -9.6349    0.0000 H   0  0  0  0  0  0  0  0  0  0  0  0
   35.4620   -7.0407    0.0000 H   0  0  0  0  0  0  0  0  0  0  0  0
   35.1185    0.6515    0.0000 H   0  0  0  0  0  0  0  0  0  0  0  0
  1  2  1  0
  2  3  1  0
  3  4  2  0
  4  5  1  0
  5  6  2  0
  6  7  1  0
  7  8  2  0
  7  9  1  0
  9 10  1  0
 10 11  1  0
 11 12  2  0
  9 13  1  0
 13 14  1  0
 14 15  2  0
 15 16  1  0
 16 17  2  0
 17 18  1  0
 16 19  1  0
 14 20  1  0
 20 21  1  0
 21 22  2  0
 22 23  1  0
 23 24  2  0
 24 25  1  0
 25 26  2  0
 25 27  1  0
  1 28  2  0
  1 29  1  0
 29 30  1  0
 30 31  1  0
 31 32  1  0
 32 33  2  0
 32 34  1  0
 34 35  1  0
 35 36  1  0
 36 37  1  0
 36 38  1  0
 35 39  1  0
 39 40  2  0
 39 41  1  0
 41 42  1  0
 42 43  1  0
 43 44  1  0
 44 45  1  0
 45 46  1  0
 46 47  1  0
 47 48  2  3
 47 49  1  0
 42 50  1  0
 50 51  2  0
 50 52  1  0
 52 53  1  0
 53 54  1  0
 54 55  1  0
 55 56  1  0
 56 57  1  0
 56 58  2  0
 53 59  1  0
 59 60  2  0
 59 61  1  0
 62 61  1  6
 62 63  1  0
 63 64  1  0
 64 65  1  0
 65 66  1  0
 62 67  1  0
 62 68  1  0
 68 69  2  0
 68 70  1  0
 70 71  1  0
 71 72  1  0
 72 73  1  0
 73 74  1  0
 74 75  1  0
 75 76  1  0
 76 77  2  3
 76 78  1  0
 71 79  1  0
 79 80  2  0
 79 81  1  0
 81 82  1  0
 82 83  1  0
 83 84  1  0
 84 85  1  0
 85 86  1  0
 86 87  1  0
 87 88  2  3
 87 89  1  0
 82 90  1  0
 90 91  2  0
 90 92  1  0
 92 93  1  0
 93 94  1  0
 94 95  1  0
 95 96  1  0
 96 97  1  0
 96 98  2  0
 93 99  1  0
 99100  2  0
 99101  1  0
101102  1  0
102103  1  0
103104  1  0
104105  1  0
105106  1  0
102107  1  0
102108  1  6
108109  2  0
108110  1  0
110111  1  0
111112  1  0
112113  1  0
113114  1  0
114115  1  0
115116  1  0
116117  2  3
116118  1  0
111119  1  0
119120  2  0
119121  1  0
121122  1  0
122123  1  0
123124  1  0
124125  1  0
125126  1  0
126127  1  0
127128  2  3
127129  1  0
122130  1  0
130131  2  0
130132  1  0
132133  1  0
133134  1  0
134135  1  0
135136  1  0
136137  1  0
137138  1  0
138139  2  3
138140  1  0
133141  1  0
141142  2  0
141143  1  0
143144  1  0
144145  1  0
145146  1  0
146147  2  0
147148  1  0
148149  1  0
149150  2  0
150151  1  0
151152  2  0
152153  1  0
153154  2  0
144155  1  0
155156  2  0
155157  1  0
157158  1  0
158159  1  0
159160  1  0
160161  1  0
161162  1  0
162163  1  0
163164  2  3
163165  1  0
158166  1  0
166167  2  0
166168  1  0
168169  1  0
169170  1  0
170171  1  0
171172  1  0
172173  2  0
172174  1  0
169175  1  0
175176  2  0
175177  1  0
177178  1  0
178179  1  0
179180  1  0
180181  1  0
181182  1  0
182183  1  0
183184  2  3
183185  1  0
178186  1  0
186187  2  0
186188  1  0
188189  1  0
189190  1  0
190191  1  0
191192  1  0
192193  1  0
192194  2  0
189195  1  0
195196  2  0
195197  1  0
197198  1  0
198199  1  0
199200  1  0
200201  1  0
201202  1  0
202203  1  0
203204  2  3
203205  1  0
198206  1  0
206207  2  0
206208  1  0
  8  3  1  0
154146  1  0
 11  6  1  0
 66106  2  0
154149  1  0
 18 13  2  0
 22  9  1  0
 26 21  1  0
  2209  1  0
  4210  1  0
  5211  1  0
  8212  1  0
 15213  1  0
 17214  1  0
 18215  1  0
 19216  1  0
 23217  1  0
 24218  1  0
 26219  1  0
 27220  1  0
 29221  1  0
 30222  1  0
 30223  1  0
 31224  1  0
 31225  1  0
 34226  1  0
 35227  1  1
 36228  1  1
 37229  1  0
 38230  1  0
 38231  1  0
 38232  1  0
 41233  1  0
 42234  1  6
 43235  1  0
 43236  1  0
 44237  1  0
 44238  1  0
 45239  1  0
 45240  1  0
 46241  1  0
 48242  1  0
 49243  1  0
 49244  1  0
 52245  1  0
 53246  1  1
 54247  1  0
 54248  1  0
 55249  1  0
 55250  1  0
 57251  1  0
 57252  1  0
 61253  1  0
 63254  1  0
 63255  1  0
 64256  1  0
 64257  1  0
 65258  1  0
 65259  1  0
 66260  1  0
 67261  1  0
 67262  1  0
 67263  1  0
 70264  1  0
 71265  1  1
 72266  1  0
 72267  1  0
 73268  1  0
 73269  1  0
 74270  1  0
 74271  1  0
 75272  1  0
 77273  1  0
 78274  1  0
 78275  1  0
 81276  1  0
 82277  1  1
 83278  1  0
 83279  1  0
 84280  1  0
 84281  1  0
 85282  1  0
 85283  1  0
 86284  1  0
 88285  1  0
 89286  1  0
 89287  1  0
 92288  1  0
 93289  1  1
 94290  1  0
 94291  1  0
 95292  1  0
 95293  1  0
 97294  1  0
 97295  1  0
101296  1  0
103297  1  0
103298  1  0
104299  1  0
104300  1  0
105301  1  0
105302  1  0
106303  1  0
107304  1  0
107305  1  0
107306  1  0
110307  1  0
111308  1  6
112309  1  0
112310  1  0
113311  1  0
113312  1  0
114313  1  0
114314  1  0
115315  1  0
117316  1  0
118317  1  0
118318  1  0
121319  1  0
122320  1  1
123321  1  0
123322  1  0
124323  1  0
124324  1  0
125325  1  0
125326  1  0
126327  1  0
128328  1  0
129329  1  0
129330  1  0
132331  1  0
133332  1  6
134333  1  0
134334  1  0
135335  1  0
135336  1  0
136337  1  0
136338  1  0
137339  1  0
139340  1  0
140341  1  0
140342  1  0
143343  1  0
144344  1  1
145345  1  0
145346  1  0
147347  1  0
148348  1  0
150349  1  0
151350  1  0
152351  1  0
153352  1  0
157353  1  0
158354  1  6
159355  1  0
159356  1  0
160357  1  0
160358  1  0
161359  1  0
161360  1  0
162361  1  0
164362  1  0
165363  1  0
165364  1  0
168365  1  0
169366  1  1
170367  1  0
170368  1  0
171369  1  0
171370  1  0
174371  1  0
177372  1  0
178373  1  6
179374  1  0
179375  1  0
180376  1  0
180377  1  0
181378  1  0
181379  1  0
182380  1  0
184381  1  0
185382  1  0
185383  1  0
188384  1  0
189385  1  1
190386  1  0
190387  1  0
191388  1  0
191389  1  0
193390  1  0
193391  1  0
197392  1  0
198393  1  6
199394  1  0
199395  1  0
200396  1  0
200397  1  0
201398  1  0
201399  1  0
202400  1  0
204401  1  0
205402  1  0
205403  1  0
208404  1  0
M  END
