
     RDKit          2D

267268  0  0  0  0  0  0  0  0999 V2000
  -20.6376   -1.8802    0.0000 N   0  0  0  0  0  0  0  0  0  0  0  0
  -19.2594   -2.4725    0.0000 C   0  0  0  0  0  0  0  0  0  0  0  0
  -19.0833   -3.9621    0.0000 C   0  0  0  0  0  0  0  0  0  0  0  0
  -17.7052   -4.5544    0.0000 C   0  0  0  0  0  0  0  0  0  0  0  0
  -16.5032   -3.6571    0.0000 O   0  0  0  0  0  0  0  0  0  0  0  0
  -17.5290   -6.0440    0.0000 N   0  0  0  0  0  0  0  0  0  0  0  0
  -16.1509   -6.6363    0.0000 C   0  0  0  0  0  0  0  0  0  0  0  0
  -16.9735   -7.8906    0.0000 C   0  0  0  0  0  0  0  0  0  0  0  0
  -18.4711   -7.8054    0.0000 C   0  0  0  0  0  0  0  0  0  0  0  0
  -19.2936   -9.0598    0.0000 N   0  0  0  0  0  0  0  0  0  0  0  0
  -19.3043   -6.5582    0.0000 O   0  0  0  0  0  0  0  0  0  0  0  0
  -14.6533   -6.7215    0.0000 C   0  0  0  0  0  0  0  0  0  0  0  0
  -14.1466   -8.1333    0.0000 O   0  0  0  0  0  0  0  0  0  0  0  0
  -13.8307   -5.4672    0.0000 N   0  0  0  0  0  0  0  0  0  0  0  0
  -12.3332   -5.5524    0.0000 C   0  0  0  0  0  0  0  0  0  0  0  0
  -12.6771   -7.0124    0.0000 C   0  0  0  0  0  0  0  0  0  0  0  0
  -11.5847   -8.0403    0.0000 C   0  0  0  0  0  0  0  0  0  0  0  0
  -11.9287   -9.5003    0.0000 C   0  0  0  0  0  0  0  0  0  0  0  0
  -10.8362  -10.5282    0.0000 N   0  0  0  0  0  0  0  0  0  0  0  0
  -13.3651   -9.9325    0.0000 O   0  0  0  0  0  0  0  0  0  0  0  0
  -10.8968   -5.1202    0.0000 C   0  0  0  0  0  0  0  0  0  0  0  0
   -9.8043   -6.1481    0.0000 O   0  0  0  0  0  0  0  0  0  0  0  0
  -10.5528   -3.6602    0.0000 N   0  0  0  0  0  0  0  0  0  0  0  0
   -9.1164   -3.2281    0.0000 C   0  0  0  0  0  0  0  0  0  0  0  0
   -9.7914   -1.8885    0.0000 C   0  0  0  0  0  0  0  0  0  0  0  0
  -11.2890   -1.8033    0.0000 C   0  0  0  0  0  0  0  0  0  0  0  0
  -11.9640   -0.4638    0.0000 C   0  0  0  0  0  0  0  0  0  0  0  0
  -12.7254   -2.2355    0.0000 C   0  0  0  0  0  0  0  0  0  0  0  0
   -7.6188   -3.3133    0.0000 C   0  0  0  0  0  0  0  0  0  0  0  0
   -7.1121   -4.7251    0.0000 O   0  0  0  0  0  0  0  0  0  0  0  0
   -6.7962   -2.0589    0.0000 N   0  0  0  0  0  0  0  0  0  0  0  0
   -5.2987   -2.1441    0.0000 C   0  0  0  0  0  0  0  0  0  0  0  0
   -4.4595   -3.3875    0.0000 C   0  0  0  0  0  0  0  0  0  0  0  0
   -3.4002   -4.4495    0.0000 C   0  0  0  0  0  0  0  0  0  0  0  0
   -2.1591   -5.2919    0.0000 C   0  0  0  0  0  0  0  0  0  0  0  0
   -0.7810   -5.8841    0.0000 C   0  0  0  0  0  0  0  0  0  0  0  0
    0.6843   -6.2049    0.0000 C   0  0  0  0  0  0  0  0  0  0  0  0
    2.1838   -6.2425    0.0000 C   0  0  0  0  0  0  0  0  0  0  0  0
    3.6634   -5.9957    0.0000 C   0  0  0  0  0  0  0  0  0  0  0  0
   -6.1935   -3.3480    0.0000 C   0  0  0  0  0  0  0  0  0  0  0  0
   -5.8873   -0.7645    0.0000 C   0  0  0  0  0  0  0  0  0  0  0  0
   -7.3615   -1.0417    0.0000 O   0  0  0  0  0  0  0  0  0  0  0  0
   -6.2043    0.7017    0.0000 N   0  0  0  0  0  0  0  0  0  0  0  0
   -6.2380    2.2013    0.0000 C   0  0  0  0  0  0  0  0  0  0  0  0
   -7.5667    1.5051    0.0000 C   0  0  0  0  0  0  0  0  0  0  0  0
   -8.8339    2.3077    0.0000 C   0  0  0  0  0  0  0  0  0  0  0  0
   -8.7725    3.8064    0.0000 C   0  0  0  0  0  0  0  0  0  0  0  0
  -10.0397    4.6090    0.0000 N   0  0  0  0  0  0  0  0  0  0  0  0
   -9.9783    6.1077    0.0000 C   0  0  0  0  0  0  0  0  0  0  0  0
  -11.2455    6.9103    0.0000 N   0  0  0  0  0  0  0  0  0  0  0  0
   -8.6496    6.8039    0.0000 N   0  0  0  0  0  0  0  0  0  0  0  0
   -5.9874    3.6802    0.0000 C   0  0  0  0  0  0  0  0  0  0  0  0
   -7.4725    3.8908    0.0000 O   0  0  0  0  0  0  0  0  0  0  0  0
   -5.4613    5.0849    0.0000 N   0  0  0  0  0  0  0  0  0  0  0  0
   -4.6790    6.3647    0.0000 C   0  0  0  0  0  0  0  0  0  0  0  0
   -6.1731    6.4974    0.0000 C   0  0  0  0  0  0  0  0  0  0  0  0
   -6.8053    7.8577    0.0000 O   0  0  0  0  0  0  0  0  0  0  0  0
   -3.6685    7.4733    0.0000 C   0  0  0  0  0  0  0  0  0  0  0  0
   -4.6761    8.5846    0.0000 O   0  0  0  0  0  0  0  0  0  0  0  0
   -2.4666    8.3707    0.0000 N   0  0  0  0  0  0  0  0  0  0  0  0
   -1.1165    9.0244    0.0000 C   0  0  0  0  0  0  0  0  0  0  0  0
   -2.3017    9.9438    0.0000 C   0  0  0  0  0  0  0  0  0  0  0  0
   -2.0981   11.4299    0.0000 C   0  0  0  0  0  0  0  0  0  0  0  0
   -0.7092   11.9966    0.0000 C   0  0  0  0  0  0  0  0  0  0  0  0
   -0.5056   13.4827    0.0000 C   0  0  0  0  0  0  0  0  0  0  0  0
   -1.6908   14.4021    0.0000 C   0  0  0  0  0  0  0  0  0  0  0  0
   -3.0796   13.8354    0.0000 C   0  0  0  0  0  0  0  0  0  0  0  0
   -3.2833   12.3493    0.0000 C   0  0  0  0  0  0  0  0  0  0  0  0
    0.3329    9.4107    0.0000 C   0  0  0  0  0  0  0  0  0  0  0  0
    0.2683   10.9093    0.0000 O   0  0  0  0  0  0  0  0  0  0  0  0
    1.8292    9.5158    0.0000 N   0  0  0  0  0  0  0  0  0  0  0  0
    3.3184    9.3357    0.0000 C   0  0  0  0  0  0  0  0  0  0  0  0
    2.8184   10.7500    0.0000 C   0  0  0  0  0  0  0  0  0  0  0  0
    3.7931   11.8901    0.0000 C   0  0  0  0  0  0  0  0  0  0  0  0
    3.2932   13.3043    0.0000 C   0  0  0  0  0  0  0  0  0  0  0  0
    4.2679   14.4444    0.0000 N   0  0  0  0  0  0  0  0  0  0  0  0
    3.7679   15.8586    0.0000 C   0  0  0  0  0  0  0  0  0  0  0  0
    4.7427   16.9987    0.0000 N   0  0  0  0  0  0  0  0  0  0  0  0
    2.2932   16.1327    0.0000 N   0  0  0  0  0  0  0  0  0  0  0  0
    4.7466    8.8772    0.0000 C   0  0  0  0  0  0  0  0  0  0  0  0
    5.5024   10.1728    0.0000 O   0  0  0  0  0  0  0  0  0  0  0  0
    6.0622    8.1566    0.0000 N   0  0  0  0  0  0  0  0  0  0  0  0
    7.2176    7.2000    0.0000 C   0  0  0  0  0  0  0  0  0  0  0  0
    7.5616    8.6601    0.0000 C   0  0  0  0  0  0  0  0  0  0  0  0
    8.1711    6.0421    0.0000 C   0  0  0  0  0  0  0  0  0  0  0  0
    9.4144    6.8813    0.0000 O   0  0  0  0  0  0  0  0  0  0  0  0
    8.8883    4.7247    0.0000 N   0  0  0  0  0  0  0  0  0  0  0  0
    9.3432    3.2953    0.0000 C   0  0  0  0  0  0  0  0  0  0  0  0
   10.4219    4.3376    0.0000 C   0  0  0  0  0  0  0  0  0  0  0  0
   11.8639    3.9245    0.0000 C   0  0  0  0  0  0  0  0  0  0  0  0
   12.9426    4.9668    0.0000 C   0  0  0  0  0  0  0  0  0  0  0  0
   13.0777    3.0432    0.0000 C   0  0  0  0  0  0  0  0  0  0  0  0
    9.5193    1.8057    0.0000 C   0  0  0  0  0  0  0  0  0  0  0  0
   11.0118    1.6564    0.0000 O   0  0  0  0  0  0  0  0  0  0  0  0
    9.4103    0.3096    0.0000 N   0  0  0  0  0  0  0  0  0  0  0  0
    9.0202   -1.1387    0.0000 C   0  0  0  0  0  0  0  0  0  0  0  0
    8.3631   -2.4871    0.0000 C   0  0  0  0  0  0  0  0  0  0  0  0
    7.4626   -3.6868    0.0000 C   0  0  0  0  0  0  0  0  0  0  0  0
    6.3513   -4.6943    0.0000 C   0  0  0  0  0  0  0  0  0  0  0  0
    5.0695   -5.4734    0.0000 C   0  0  0  0  0  0  0  0  0  0  0  0
   10.0745   -2.2058    0.0000 C   0  0  0  0  0  0  0  0  0  0  0  0
   10.4912   -0.8451    0.0000 C   0  0  0  0  0  0  0  0  0  0  0  0
   11.1420    0.5064    0.0000 O   0  0  0  0  0  0  0  0  0  0  0  0
   11.4810   -1.9722    0.0000 N   0  0  0  0  0  0  0  0  0  0  0  0
   12.9520   -1.6786    0.0000 C   0  0  0  0  0  0  0  0  0  0  0  0
   14.2338   -0.8995    0.0000 C   0  0  0  0  0  0  0  0  0  0  0  0
   15.5494   -1.6201    0.0000 C   0  0  0  0  0  0  0  0  0  0  0  0
   15.6643   -2.4089    0.0000 O   0  0  0  0  0  0  0  0  0  0  0  0
   16.8312   -0.8411    0.0000 O   0  0  0  0  0  0  0  0  0  0  0  0
   13.9418   -2.8056    0.0000 C   0  0  0  0  0  0  0  0  0  0  0  0
   14.7367   -2.7460    0.0000 O   0  0  0  0  0  0  0  0  0  0  0  0
   13.4606   -4.2264    0.0000 N   0  0  0  0  0  0  0  0  0  0  0  0
   14.4504   -5.3534    0.0000 C   0  0  0  0  0  0  0  0  0  0  0  0
   15.7659   -6.0740    0.0000 C   0  0  0  0  0  0  0  0  0  0  0  0
   15.7997   -7.5737    0.0000 C   0  0  0  0  0  0  0  0  0  0  0  0
   17.1153   -8.2942    0.0000 C   0  0  0  0  0  0  0  0  0  0  0  0
   17.3316   -9.7786    0.0000 N   0  0  0  0  0  0  0  0  0  0  0  0
   18.3971   -7.5152    0.0000 O   0  0  0  0  0  0  0  0  0  0  0  0
   13.9692   -6.7742    0.0000 C   0  0  0  0  0  0  0  0  0  0  0  0
   12.4982   -7.0678    0.0000 O   0  0  0  0  0  0  0  0  0  0  0  0
   14.9590   -7.9013    0.0000 N   0  0  0  0  0  0  0  0  0  0  0  0
   14.4778   -9.3220    0.0000 C   0  0  0  0  0  0  0  0  0  0  0  0
   13.5397  -10.4924    0.0000 C   0  0  0  0  0  0  0  0  0  0  0  0
   14.0843  -11.8901    0.0000 C   0  0  0  0  0  0  0  0  0  0  0  0
   12.2578  -11.2715    0.0000 C   0  0  0  0  0  0  0  0  0  0  0  0
   10.9423  -10.5509    0.0000 C   0  0  0  0  0  0  0  0  0  0  0  0
   15.4676  -10.4491    0.0000 C   0  0  0  0  0  0  0  0  0  0  0  0
   15.1631  -11.9178    0.0000 O   0  0  0  0  0  0  0  0  0  0  0  0
   16.9634  -10.3369    0.0000 O   0  0  0  0  0  0  0  0  0  0  0  0
  -20.8137   -0.3906    0.0000 H   0  0  0  0  0  0  0  0  0  0  0  0
  -21.8395   -2.7776    0.0000 H   0  0  0  0  0  0  0  0  0  0  0  0
  -18.9155   -1.0125    0.0000 H   0  0  0  0  0  0  0  0  0  0  0  0
  -17.7619   -2.5577    0.0000 H   0  0  0  0  0  0  0  0  0  0  0  0
  -20.5809   -3.8769    0.0000 H   0  0  0  0  0  0  0  0  0  0  0  0
  -19.4273   -5.4222    0.0000 H   0  0  0  0  0  0  0  0  0  0  0  0
  -18.8314   -6.7882    0.0000 H   0  0  0  0  0  0  0  0  0  0  0  0
  -15.8069   -5.1763    0.0000 H   0  0  0  0  0  0  0  0  0  0  0  0
  -17.3174   -9.3507    0.0000 H   0  0  0  0  0  0  0  0  0  0  0  0
  -15.5954   -8.4829    0.0000 H   0  0  0  0  0  0  0  0  0  0  0  0
  -20.7912   -8.9746    0.0000 H   0  0  0  0  0  0  0  0  0  0  0  0
  -18.6186  -10.3993    0.0000 H   0  0  0  0  0  0  0  0  0  0  0  0
  -14.5057   -4.1276    0.0000 H   0  0  0  0  0  0  0  0  0  0  0  0
  -12.6896   -4.0953    0.0000 H   0  0  0  0  0  0  0  0  0  0  0  0
  -13.3407   -8.3577    0.0000 H   0  0  0  0  0  0  0  0  0  0  0  0
  -14.1576   -6.7712    0.0000 H   0  0  0  0  0  0  0  0  0  0  0  0
  -10.2066   -8.6326    0.0000 H   0  0  0  0  0  0  0  0  0  0  0  0
  -10.7621   -6.7860    0.0000 H   0  0  0  0  0  0  0  0  0  0  0  0
  -11.1802  -11.9883    0.0000 H   0  0  0  0  0  0  0  0  0  0  0  0
   -9.3998  -10.0961    0.0000 H   0  0  0  0  0  0  0  0  0  0  0  0
  -11.7624   -2.7731    0.0000 H   0  0  0  0  0  0  0  0  0  0  0  0
   -8.9403   -4.7177    0.0000 H   0  0  0  0  0  0  0  0  0  0  0  0
   -9.7846   -0.3885    0.0000 H   0  0  0  0  0  0  0  0  0  0  0  0
   -8.3550   -1.4564    0.0000 H   0  0  0  0  0  0  0  0  0  0  0  0
  -11.6585   -3.2571    0.0000 H   0  0  0  0  0  0  0  0  0  0  0  0
  -13.4400   -0.1967    0.0000 H   0  0  0  0  0  0  0  0  0  0  0  0
  -12.1401    1.0258    0.0000 H   0  0  0  0  0  0  0  0  0  0  0  0
  -10.5910    0.1402    0.0000 H   0  0  0  0  0  0  0  0  0  0  0  0
  -13.2447   -3.6427    0.0000 H   0  0  0  0  0  0  0  0  0  0  0  0
  -14.2230   -2.1503    0.0000 H   0  0  0  0  0  0  0  0  0  0  0  0
  -13.0818   -0.7784    0.0000 H   0  0  0  0  0  0  0  0  0  0  0  0
   -7.6295   -0.8117    0.0000 H   0  0  0  0  0  0  0  0  0  0  0  0
   -5.1103   -4.7389    0.0000 H   0  0  0  0  0  0  0  0  0  0  0  0
   -5.9107   -3.7669    0.0000 H   0  0  0  0  0  0  0  0  0  0  0  0
   -3.7835   -5.8997    0.0000 H   0  0  0  0  0  0  0  0  0  0  0  0
   -4.7534   -5.0968    0.0000 H   0  0  0  0  0  0  0  0  0  0  0  0
   -2.2610   -6.7884    0.0000 H   0  0  0  0  0  0  0  0  0  0  0  0
   -3.3653   -6.1835    0.0000 H   0  0  0  0  0  0  0  0  0  0  0  0
   -0.5978   -7.3729    0.0000 H   0  0  0  0  0  0  0  0  0  0  0  0
   -1.7967   -6.9880    0.0000 H   0  0  0  0  0  0  0  0  0  0  0  0
    1.1459   -7.6321    0.0000 H   0  0  0  0  0  0  0  0  0  0  0  0
   -0.1041   -7.4810    0.0000 H   0  0  0  0  0  0  0  0  0  0  0  0
    3.0620   -7.4586    0.0000 H   0  0  0  0  0  0  0  0  0  0  0  0
    1.6512   -7.6448    0.0000 H   0  0  0  0  0  0  0  0  0  0  0  0
    4.0497   -7.4451    0.0000 H   0  0  0  0  0  0  0  0  0  0  0  0
   -7.4734   -3.7806    0.0000 H   0  0  0  0  0  0  0  0  0  0  0  0
   -6.0975   -4.9271    0.0000 H   0  0  0  0  0  0  0  0  0  0  0  0
   -4.8198   -4.3129    0.0000 H   0  0  0  0  0  0  0  0  0  0  0  0
   -7.6613    0.3452    0.0000 H   0  0  0  0  0  0  0  0  0  0  0  0
   -7.3353    3.2240    0.0000 H   0  0  0  0  0  0  0  0  0  0  0  0
   -8.7047    0.5279    0.0000 H   0  0  0  0  0  0  0  0  0  0  0  0
   -6.9650    0.1311    0.0000 H   0  0  0  0  0  0  0  0  0  0  0  0
  -10.2992    2.6284    0.0000 H   0  0  0  0  0  0  0  0  0  0  0  0
   -9.4043    0.9203    0.0000 H   0  0  0  0  0  0  0  0  0  0  0  0
   -8.2022    5.1938    0.0000 H   0  0  0  0  0  0  0  0  0  0  0  0
   -7.3072    3.4857    0.0000 H   0  0  0  0  0  0  0  0  0  0  0  0
  -11.3684    3.9128    0.0000 H   0  0  0  0  0  0  0  0  0  0  0  0
  -11.1841    8.4091    0.0000 H   0  0  0  0  0  0  0  0  0  0  0  0
  -12.5742    6.2141    0.0000 H   0  0  0  0  0  0  0  0  0  0  0  0
   -8.7713    8.2990    0.0000 H   0  0  0  0  0  0  0  0  0  0  0  0
   -7.6143    5.7185    0.0000 H   0  0  0  0  0  0  0  0  0  0  0  0
   -6.9287    5.3963    0.0000 H   0  0  0  0  0  0  0  0  0  0  0  0
   -5.2236    7.7624    0.0000 H   0  0  0  0  0  0  0  0  0  0  0  0
   -7.6225    6.1111    0.0000 H   0  0  0  0  0  0  0  0  0  0  0  0
   -6.4098    5.0162    0.0000 H   0  0  0  0  0  0  0  0  0  0  0  0
   -8.2721    8.1715    0.0000 H   0  0  0  0  0  0  0  0  0  0  0  0
   -3.3960    9.5480    0.0000 H   0  0  0  0  0  0  0  0  0  0  0  0
   -0.8190   10.4946    0.0000 H   0  0  0  0  0  0  0  0  0  0  0  0
   -3.6633   10.5730    0.0000 H   0  0  0  0  0  0  0  0  0  0  0  0
   -3.3016    8.8256    0.0000 H   0  0  0  0  0  0  0  0  0  0  0  0
    0.5792   11.2285    0.0000 H   0  0  0  0  0  0  0  0  0  0  0  0
    0.8832   14.0494    0.0000 H   0  0  0  0  0  0  0  0  0  0  0  0
   -1.4872   15.8882    0.0000 H   0  0  0  0  0  0  0  0  0  0  0  0
   -4.2648   14.7548    0.0000 H   0  0  0  0  0  0  0  0  0  0  0  0
   -4.6721   11.7825    0.0000 H   0  0  0  0  0  0  0  0  0  0  0  0
    1.6838   11.0087    0.0000 H   0  0  0  0  0  0  0  0  0  0  0  0
    4.4869   10.2763    0.0000 H   0  0  0  0  0  0  0  0  0  0  0  0
    1.8649   11.9079    0.0000 H   0  0  0  0  0  0  0  0  0  0  0  0
    1.3727   10.3499    0.0000 H   0  0  0  0  0  0  0  0  0  0  0  0
    5.0991   12.6281    0.0000 H   0  0  0  0  0  0  0  0  0  0  0  0
    4.9985   10.9973    0.0000 H   0  0  0  0  0  0  0  0  0  0  0  0
    2.3396   14.4622    0.0000 H   0  0  0  0  0  0  0  0  0  0  0  0
    1.9070   12.7310    0.0000 H   0  0  0  0  0  0  0  0  0  0  0  0
    5.7427   14.1703    0.0000 H   0  0  0  0  0  0  0  0  0  0  0  0
    4.2427   18.4130    0.0000 H   0  0  0  0  0  0  0  0  0  0  0  0
    6.2174   16.7246    0.0000 H   0  0  0  0  0  0  0  0  0  0  0  0
    1.7932   17.5469    0.0000 H   0  0  0  0  0  0  0  0  0  0  0  0
    1.3184   14.9926    0.0000 H   0  0  0  0  0  0  0  0  0  0  0  0
    6.7470    9.4911    0.0000 H   0  0  0  0  0  0  0  0  0  0  0  0
    8.6785    7.5402    0.0000 H   0  0  0  0  0  0  0  0  0  0  0  0
    8.9980    9.0922    0.0000 H   0  0  0  0  0  0  0  0  0  0  0  0
    7.5683   10.1601    0.0000 H   0  0  0  0  0  0  0  0  0  0  0  0
    6.1291    9.1051    0.0000 H   0  0  0  0  0  0  0  0  0  0  0  0
   10.1859    5.4771    0.0000 H   0  0  0  0  0  0  0  0  0  0  0  0
   10.6841    2.6232    0.0000 H   0  0  0  0  0  0  0  0  0  0  0  0
   11.0790    5.6860    0.0000 H   0  0  0  0  0  0  0  0  0  0  0  0
    9.4574    5.4864    0.0000 H   0  0  0  0  0  0  0  0  0  0  0  0
   11.5525    2.4572    0.0000 H   0  0  0  0  0  0  0  0  0  0  0  0
   14.4242    4.7327    0.0000 H   0  0  0  0  0  0  0  0  0  0  0  0
   13.5998    6.3152    0.0000 H   0  0  0  0  0  0  0  0  0  0  0  0
   11.8453    5.9896    0.0000 H   0  0  0  0  0  0  0  0  0  0  0  0
   14.5120    3.4821    0.0000 H   0  0  0  0  0  0  0  0  0  0  0  0
   13.9168    1.7999    0.0000 H   0  0  0  0  0  0  0  0  0  0  0  0
   11.9989    2.0009    0.0000 H   0  0  0  0  0  0  0  0  0  0  0  0
   10.9088    0.2411    0.0000 H   0  0  0  0  0  0  0  0  0  0  0  0
    9.8530   -2.6601    0.0000 H   0  0  0  0  0  0  0  0  0  0  0  0
    9.0381   -3.8267    0.0000 H   0  0  0  0  0  0  0  0  0  0  0  0
    8.8272   -4.3096    0.0000 H   0  0  0  0  0  0  0  0  0  0  0  0
    8.0447   -5.0692    0.0000 H   0  0  0  0  0  0  0  0  0  0  0  0
    7.6703   -5.4087    0.0000 H   0  0  0  0  0  0  0  0  0  0  0  0
    6.4801   -6.1888    0.0000 H   0  0  0  0  0  0  0  0  0  0  0  0
    5.7232   -6.8234    0.0000 H   0  0  0  0  0  0  0  0  0  0  0  0
    9.7521   -3.8403    0.0000 H   0  0  0  0  0  0  0  0  0  0  0  0
   11.0828   -3.2597    0.0000 H   0  0  0  0  0  0  0  0  0  0  0  0
   11.1601   -1.4582    0.0000 H   0  0  0  0  0  0  0  0  0  0  0  0
   11.1766   -3.4410    0.0000 H   0  0  0  0  0  0  0  0  0  0  0  0
   12.4074   -0.2809    0.0000 H   0  0  0  0  0  0  0  0  0  0  0  0
   15.1719    0.2710    0.0000 H   0  0  0  0  0  0  0  0  0  0  0  0
   13.2440    0.2276    0.0000 H   0  0  0  0  0  0  0  0  0  0  0  0
   11.9896   -4.5200    0.0000 H   0  0  0  0  0  0  0  0  0  0  0  0
   15.3884   -4.1830    0.0000 H   0  0  0  0  0  0  0  0  0  0  0  0
   17.2486   -6.3012    0.0000 H   0  0  0  0  0  0  0  0  0  0  0  0
   16.2471   -4.6533    0.0000 H   0  0  0  0  0  0  0  0  0  0  0  0
   15.3185   -8.9944    0.0000 H   0  0  0  0  0  0  0  0  0  0  0  0
   14.3839   -8.0693    0.0000 H   0  0  0  0  0  0  0  0  0  0  0  0
   18.4646  -10.5144    0.0000 H   0  0  0  0  0  0  0  0  0  0  0  0
   16.2492  -11.0450    0.0000 H   0  0  0  0  0  0  0  0  0  0  0  0
   16.4573   -7.9723    0.0000 H   0  0  0  0  0  0  0  0  0  0  0  0
   13.1622   -8.6014    0.0000 H   0  0  0  0  0  0  0  0  0  0  0  0
   12.6947   -9.2531    0.0000 H   0  0  0  0  0  0  0  0  0  0  0  0
   13.2959  -13.1662    0.0000 H   0  0  0  0  0  0  0  0  0  0  0  0
   15.0741  -13.0172    0.0000 H   0  0  0  0  0  0  0  0  0  0  0  0
   15.5818  -11.8042    0.0000 H   0  0  0  0  0  0  0  0  0  0  0  0
   11.3198  -12.4419    0.0000 H   0  0  0  0  0  0  0  0  0  0  0  0
   13.1029  -12.5108    0.0000 H   0  0  0  0  0  0  0  0  0  0  0  0
    9.6604  -11.3299    0.0000 H   0  0  0  0  0  0  0  0  0  0  0  0
    9.9525   -9.4238    0.0000 H   0  0  0  0  0  0  0  0  0  0  0  0
   11.7307   -9.2748    0.0000 H   0  0  0  0  0  0  0  0  0  0  0  0
  1  2  1  0
  2  3  1  0
  3  4  1  0
  4  5  2  0
  4  6  1  0
  6  7  1  0
  7  8  1  0
  8  9  1  0
  9 10  1  0
  9 11  2  0
  7 12  1  0
 12 13  2  0
 12 14  1  0
 14 15  1  0
 15 16  1  0
 16 17  1  0
 17 18  1  0
 18 19  1  0
 18 20  2  0
 15 21  1  0
 21 22  2  0
 21 23  1  0
 23 24  1  0
 24 25  1  0
 25 26  1  0
 26 27  1  0
 26 28  1  0
 24 29  1  0
 29 30  2  0
 29 31  1  0
 32 31  1  1
 32 33  1  0
 33 34  1  0
 34 35  1  0
 35 36  1  0
 36 37  1  0
 37 38  1  0
 38 39  1  0
 32 40  1  0
 32 41  1  0
 41 42  2  0
 41 43  1  0
 43 44  1  0
 44 45  1  0
 45 46  1  0
 46 47  1  0
 47 48  1  0
 48 49  1  0
 49 50  2  3
 49 51  1  0
 44 52  1  0
 52 53  2  0
 52 54  1  0
 54 55  1  0
 55 56  1  0
 56 57  1  0
 55 58  1  0
 58 59  2  0
 58 60  1  0
 60 61  1  0
 61 62  1  0
 62 63  1  0
 63 64  2  0
 64 65  1  0
 65 66  2  0
 66 67  1  0
 67 68  2  0
 61 69  1  0
 69 70  2  0
 69 71  1  0
 71 72  1  0
 72 73  1  0
 73 74  1  0
 74 75  1  0
 75 76  1  0
 76 77  1  0
 77 78  2  3
 77 79  1  0
 72 80  1  0
 80 81  2  0
 80 82  1  0
 82 83  1  0
 83 84  1  0
 83 85  1  0
 85 86  2  0
 85 87  1  0
 87 88  1  0
 88 89  1  0
 89 90  1  0
 90 91  1  0
 90 92  1  0
 88 93  1  0
 93 94  2  0
 93 95  1  0
 95 96  1  0
 96 97  1  0
 97 98  1  0
 98 99  1  0
 99100  1  0
 96101  1  0
 96102  1  6
102103  2  0
102104  1  0
104105  1  0
105106  1  0
106107  1  0
107108  2  0
107109  1  0
105110  1  0
110111  2  0
110112  1  0
112113  1  0
113114  1  0
114115  1  0
115116  1  0
116117  1  0
116118  2  0
113119  1  0
119120  2  0
119121  1  0
121122  1  0
122123  1  0
123124  1  0
123125  1  0
125126  1  0
122127  1  0
127128  2  0
127129  1  0
 68 63  1  0
 39100  2  0
  1130  1  0
  1131  1  0
  2132  1  0
  2133  1  0
  3134  1  0
  3135  1  0
  6136  1  0
  7137  1  6
  8138  1  0
  8139  1  0
 10140  1  0
 10141  1  0
 14142  1  0
 15143  1  6
 16144  1  0
 16145  1  0
 17146  1  0
 17147  1  0
 19148  1  0
 19149  1  0
 23150  1  0
 24151  1  1
 25152  1  0
 25153  1  0
 26154  1  0
 27155  1  0
 27156  1  0
 27157  1  0
 28158  1  0
 28159  1  0
 28160  1  0
 31161  1  0
 33162  1  0
 33163  1  0
 34164  1  0
 34165  1  0
 35166  1  0
 35167  1  0
 36168  1  0
 36169  1  0
 37170  1  0
 37171  1  0
 38172  1  0
 38173  1  0
 39174  1  0
 40175  1  0
 40176  1  0
 40177  1  0
 43178  1  0
 44179  1  1
 45180  1  0
 45181  1  0
 46182  1  0
 46183  1  0
 47184  1  0
 47185  1  0
 48186  1  0
 50187  1  0
 50188  1  0
 51189  1  0
 51190  1  0
 54191  1  0
 55192  1  1
 56193  1  0
 56194  1  0
 57195  1  0
 60196  1  0
 61197  1  1
 62198  1  0
 62199  1  0
 64200  1  0
 65201  1  0
 66202  1  0
 67203  1  0
 68204  1  0
 71205  1  0
 72206  1  1
 73207  1  0
 73208  1  0
 74209  1  0
 74210  1  0
 75211  1  0
 75212  1  0
 76213  1  0
 78214  1  0
 78215  1  0
 79216  1  0
 79217  1  0
 82218  1  0
 83219  1  1
 84220  1  0
 84221  1  0
 84222  1  0
 87223  1  0
 88224  1  1
 89225  1  0
 89226  1  0
 90227  1  0
 91228  1  0
 91229  1  0
 91230  1  0
 92231  1  0
 92232  1  0
 92233  1  0
 95234  1  0
 97235  1  0
 97236  1  0
 98237  1  0
 98238  1  0
 99239  1  0
 99240  1  0
100241  1  0
101242  1  0
101243  1  0
101244  1  0
104245  1  0
105246  1  1
106247  1  0
106248  1  0
112249  1  0
113250  1  1
114251  1  0
114252  1  0
115253  1  0
115254  1  0
117255  1  0
117256  1  0
121257  1  0
122258  1  6
123259  1  6
124260  1  0
124261  1  0
124262  1  0
125263  1  0
125264  1  0
126265  1  0
126266  1  0
126267  1  0
M  CHG  4  50   1  78   1 109  -1 129  -1
M  END
