
     RDKit          2D

292298  0  0  0  0  0  0  0  0999 V2000
  -23.9009   -2.2481    0.0000 C   0  0  0  0  0  0  0  0  0  0  0  0
  -25.0212   -3.2456    0.0000 N   0  0  0  0  0  0  0  0  0  0  0  0
  -26.4452   -2.7741    0.0000 C   0  0  0  0  0  0  0  0  0  0  0  0
  -26.7489   -1.3052    0.0000 C   0  0  0  0  0  0  0  0  0  0  0  0
  -28.1729   -0.8338    0.0000 C   0  0  0  0  0  0  0  0  0  0  0  0
  -29.2932   -1.8313    0.0000 C   0  0  0  0  0  0  0  0  0  0  0  0
  -28.9894   -3.3002    0.0000 C   0  0  0  0  0  0  0  0  0  0  0  0
  -27.5654   -3.7716    0.0000 C   0  0  0  0  0  0  0  0  0  0  0  0
  -30.2926   -4.0430    0.0000 C   0  0  0  0  0  0  0  0  0  0  0  0
  -31.4017   -3.0331    0.0000 O   0  0  0  0  0  0  0  0  0  0  0  0
  -30.7841   -1.6662    0.0000 C   0  0  0  0  0  0  0  0  0  0  0  0
  -31.5268   -0.3630    0.0000 O   0  0  0  0  0  0  0  0  0  0  0  0
  -31.6663   -4.6455    0.0000 C   0  0  0  0  0  0  0  0  0  0  0  0
  -31.8313   -6.1364    0.0000 C   0  0  0  0  0  0  0  0  0  0  0  0
  -33.2050   -6.7389    0.0000 C   0  0  0  0  0  0  0  0  0  0  0  0
  -34.4136   -5.8505    0.0000 C   0  0  0  0  0  0  0  0  0  0  0  0
  -34.2486   -4.3596    0.0000 C   0  0  0  0  0  0  0  0  0  0  0  0
  -32.8749   -3.7571    0.0000 C   0  0  0  0  0  0  0  0  0  0  0  0
  -35.7873   -6.4530    0.0000 O   0  0  0  0  0  0  0  0  0  0  0  0
  -30.6227   -7.0248    0.0000 O   0  0  0  0  0  0  0  0  0  0  0  0
  -29.2490   -6.4223    0.0000 C   0  0  0  0  0  0  0  0  0  0  0  0
  -29.0840   -4.9314    0.0000 C   0  0  0  0  0  0  0  0  0  0  0  0
  -27.7873   -5.0246    0.0000 C   0  0  0  0  0  0  0  0  0  0  0  0
  -27.1427   -5.4984    0.0000 C   0  0  0  0  0  0  0  0  0  0  0  0
  -27.2308   -6.2936    0.0000 C   0  0  0  0  0  0  0  0  0  0  0  0
  -27.9634   -6.6149    0.0000 C   0  0  0  0  0  0  0  0  0  0  0  0
  -25.4581   -7.5966    0.0000 O   0  0  0  0  0  0  0  0  0  0  0  0
  -24.2046   -0.7791    0.0000 S   0  0  0  0  0  0  0  0  0  0  0  0
  -22.4769   -2.7195    0.0000 N   0  0  0  0  0  0  0  0  0  0  0  0
  -21.3567   -1.7220    0.0000 C   0  0  0  0  0  0  0  0  0  0  0  0
  -19.9327   -2.1934    0.0000 C   0  0  0  0  0  0  0  0  0  0  0  0
  -18.8124   -1.1959    0.0000 C   0  0  0  0  0  0  0  0  0  0  0  0
  -19.1161    0.2730    0.0000 O   0  0  0  0  0  0  0  0  0  0  0  0
  -17.3884   -1.6673    0.0000 N   0  0  0  0  0  0  0  0  0  0  0  0
  -16.2681   -0.6698    0.0000 C   0  0  0  0  0  0  0  0  0  0  0  0
  -15.5566    0.6507    0.0000 C   0  0  0  0  0  0  0  0  0  0  0  0
  -14.0573    0.6947    0.0000 C   0  0  0  0  0  0  0  0  0  0  0  0
  -13.2694   -0.5817    0.0000 C   0  0  0  0  0  0  0  0  0  0  0  0
  -11.7701   -0.5377    0.0000 C   0  0  0  0  0  0  0  0  0  0  0  0
  -11.0585    0.7828    0.0000 C   0  0  0  0  0  0  0  0  0  0  0  0
  -11.8464    2.0592    0.0000 C   0  0  0  0  0  0  0  0  0  0  0  0
  -13.3457    2.0152    0.0000 C   0  0  0  0  0  0  0  0  0  0  0  0
  -14.8442   -1.1413    0.0000 C   0  0  0  0  0  0  0  0  0  0  0  0
  -14.7217   -2.6362    0.0000 O   0  0  0  0  0  0  0  0  0  0  0  0
  -13.7239   -0.1438    0.0000 N   0  0  0  0  0  0  0  0  0  0  0  0
  -12.2999   -0.6152    0.0000 C   0  0  0  0  0  0  0  0  0  0  0  0
  -11.1230   -1.5452    0.0000 C   0  0  0  0  0  0  0  0  0  0  0  0
  -11.3400   -3.0294    0.0000 C   0  0  0  0  0  0  0  0  0  0  0  0
  -10.1631   -3.9595    0.0000 N   0  0  0  0  0  0  0  0  0  0  0  0
  -12.7339   -3.5836    0.0000 O   0  0  0  0  0  0  0  0  0  0  0  0
  -11.1796    0.3823    0.0000 C   0  0  0  0  0  0  0  0  0  0  0  0
  -11.1189    1.8811    0.0000 O   0  0  0  0  0  0  0  0  0  0  0  0
   -9.7556   -0.0891    0.0000 N   0  0  0  0  0  0  0  0  0  0  0  0
   -8.6354    0.9084    0.0000 C   0  0  0  0  0  0  0  0  0  0  0  0
   -7.9238    2.2289    0.0000 C   0  0  0  0  0  0  0  0  0  0  0  0
   -6.4410    2.4554    0.0000 C   0  0  0  0  0  0  0  0  0  0  0  0
   -7.7068    3.7131    0.0000 C   0  0  0  0  0  0  0  0  0  0  0  0
   -6.3909    4.4331    0.0000 C   0  0  0  0  0  0  0  0  0  0  0  0
   -7.2114    0.4370    0.0000 C   0  0  0  0  0  0  0  0  0  0  0  0
   -7.0890   -1.0580    0.0000 O   0  0  0  0  0  0  0  0  0  0  0  0
   -6.0911    1.4345    0.0000 N   0  0  0  0  0  0  0  0  0  0  0  0
   -4.6671    0.9631    0.0000 C   0  0  0  0  0  0  0  0  0  0  0  0
   -4.0784   -0.4166    0.0000 C   0  0  0  0  0  0  0  0  0  0  0  0
   -3.1091   -1.5614    0.0000 C   0  0  0  0  0  0  0  0  0  0  0  0
   -1.8455   -2.3696    0.0000 C   0  0  0  0  0  0  0  0  0  0  0  0
   -0.3997   -2.7694    0.0000 C   0  0  0  0  0  0  0  0  0  0  0  0
   -5.8095   -0.0090    0.0000 C   0  0  0  0  0  0  0  0  0  0  0  0
   -4.8231    2.4549    0.0000 C   0  0  0  0  0  0  0  0  0  0  0  0
   -6.3021    2.7052    0.0000 O   0  0  0  0  0  0  0  0  0  0  0  0
   -4.5324    3.9265    0.0000 N   0  0  0  0  0  0  0  0  0  0  0  0
   -3.8208    5.2470    0.0000 C   0  0  0  0  0  0  0  0  0  0  0  0
   -4.3401    6.6542    0.0000 C   0  0  0  0  0  0  0  0  0  0  0  0
   -3.3810    7.8076    0.0000 C   0  0  0  0  0  0  0  0  0  0  0  0
   -3.9003    9.2148    0.0000 O   0  0  0  0  0  0  0  0  0  0  0  0
   -1.9099    8.1004    0.0000 O   0  0  0  0  0  0  0  0  0  0  0  0
   -2.7517    6.2991    0.0000 C   0  0  0  0  0  0  0  0  0  0  0  0
   -3.3128    7.6902    0.0000 O   0  0  0  0  0  0  0  0  0  0  0  0
   -1.4199    6.9893    0.0000 N   0  0  0  0  0  0  0  0  0  0  0  0
    0.0561    7.2563    0.0000 C   0  0  0  0  0  0  0  0  0  0  0  0
    0.8326    8.5397    0.0000 C   0  0  0  0  0  0  0  0  0  0  0  0
    0.1094    9.8538    0.0000 C   0  0  0  0  0  0  0  0  0  0  0  0
    0.8858   11.1372    0.0000 C   0  0  0  0  0  0  0  0  0  0  0  0
    0.1626   12.4514    0.0000 N   0  0  0  0  0  0  0  0  0  0  0  0
    0.9391   13.7348    0.0000 C   0  0  0  0  0  0  0  0  0  0  0  0
    0.2159   15.0489    0.0000 N   0  0  0  0  0  0  0  0  0  0  0  0
    2.4388   13.7040    0.0000 N   0  0  0  0  0  0  0  0  0  0  0  0
    1.5453    7.0764    0.0000 C   0  0  0  0  0  0  0  0  0  0  0  0
    1.9451    8.5221    0.0000 O   0  0  0  0  0  0  0  0  0  0  0  0
    2.9153    6.4655    0.0000 N   0  0  0  0  0  0  0  0  0  0  0  0
    4.0443    5.4780    0.0000 C   0  0  0  0  0  0  0  0  0  0  0  0
    5.5318    5.6711    0.0000 C   0  0  0  0  0  0  0  0  0  0  0  0
    5.9353    7.1158    0.0000 C   0  0  0  0  0  0  0  0  0  0  0  0
    6.9957    5.3438    0.0000 C   0  0  0  0  0  0  0  0  0  0  0  0
    8.0111    6.4479    0.0000 C   0  0  0  0  0  0  0  0  0  0  0  0
    4.8321    4.2015    0.0000 C   0  0  0  0  0  0  0  0  0  0  0  0
    6.2732    4.6177    0.0000 O   0  0  0  0  0  0  0  0  0  0  0  0
    5.2087    2.7496    0.0000 N   0  0  0  0  0  0  0  0  0  0  0  0
    5.1406    1.2511    0.0000 C   0  0  0  0  0  0  0  0  0  0  0  0
    4.6338   -0.1607    0.0000 C   0  0  0  0  0  0  0  0  0  0  0  0
    3.7334   -1.3604    0.0000 C   0  0  0  0  0  0  0  0  0  0  0  0
    2.5194   -2.2414    0.0000 C   0  0  0  0  0  0  0  0  0  0  0  0
    1.0996   -2.7254    0.0000 C   0  0  0  0  0  0  0  0  0  0  0  0
    6.5344    1.8053    0.0000 C   0  0  0  0  0  0  0  0  0  0  0  0
    6.2190    0.2085    0.0000 C   0  0  0  0  0  0  0  0  0  0  0  0
    6.2182   -1.2915    0.0000 O   0  0  0  0  0  0  0  0  0  0  0  0
    7.6611    0.6212    0.0000 N   0  0  0  0  0  0  0  0  0  0  0  0
    8.7396   -0.4214    0.0000 C   0  0  0  0  0  0  0  0  0  0  0  0
    9.3964   -1.7700    0.0000 C   0  0  0  0  0  0  0  0  0  0  0  0
    8.5569   -3.0130    0.0000 C   0  0  0  0  0  0  0  0  0  0  0  0
    9.2137   -4.3616    0.0000 C   0  0  0  0  0  0  0  0  0  0  0  0
    8.3742   -5.6047    0.0000 O   0  0  0  0  0  0  0  0  0  0  0  0
   10.7100   -4.4671    0.0000 O   0  0  0  0  0  0  0  0  0  0  0  0
   10.1817   -0.0087    0.0000 C   0  0  0  0  0  0  0  0  0  0  0  0
   10.5454    1.4465    0.0000 O   0  0  0  0  0  0  0  0  0  0  0  0
   11.2601   -1.0513    0.0000 N   0  0  0  0  0  0  0  0  0  0  0  0
   12.7022   -0.6387    0.0000 C   0  0  0  0  0  0  0  0  0  0  0  0
   13.9162    0.2423    0.0000 C   0  0  0  0  0  0  0  0  0  0  0  0
   15.2862   -0.3685    0.0000 C   0  0  0  0  0  0  0  0  0  0  0  0
   16.5002    0.5125    0.0000 C   0  0  0  0  0  0  0  0  0  0  0  0
   16.3647   -1.4111    0.0000 C   0  0  0  0  0  0  0  0  0  0  0  0
   13.7807   -1.6813    0.0000 C   0  0  0  0  0  0  0  0  0  0  0  0
   13.4170   -3.1365    0.0000 O   0  0  0  0  0  0  0  0  0  0  0  0
   15.2228   -1.2686    0.0000 N   0  0  0  0  0  0  0  0  0  0  0  0
   16.3012   -2.3112    0.0000 C   0  0  0  0  0  0  0  0  0  0  0  0
   17.7433   -1.8985    0.0000 C   0  0  0  0  0  0  0  0  0  0  0  0
   18.2817   -0.4985    0.0000 O   0  0  0  0  0  0  0  0  0  0  0  0
   18.8218   -2.9411    0.0000 N   0  0  0  0  0  0  0  0  0  0  0  0
   20.2639   -2.5285    0.0000 C   0  0  0  0  0  0  0  0  0  0  0  0
   21.4779   -1.6475    0.0000 C   0  0  0  0  0  0  0  0  0  0  0  0
   22.3174   -0.4044    0.0000 O   0  0  0  0  0  0  0  0  0  0  0  0
   22.9121   -2.0868    0.0000 C   0  0  0  0  0  0  0  0  0  0  0  0
   21.3423   -3.5711    0.0000 C   0  0  0  0  0  0  0  0  0  0  0  0
   20.9786   -5.0263    0.0000 O   0  0  0  0  0  0  0  0  0  0  0  0
   22.7844   -3.1584    0.0000 N   0  0  0  0  0  0  0  0  0  0  0  0
   23.8629   -4.2010    0.0000 C   0  0  0  0  0  0  0  0  0  0  0  0
   24.5197   -5.5496    0.0000 C   0  0  0  0  0  0  0  0  0  0  0  0
   23.6802   -6.7927    0.0000 C   0  0  0  0  0  0  0  0  0  0  0  0
   24.3370   -8.1412    0.0000 C   0  0  0  0  0  0  0  0  0  0  0  0
   22.4662   -7.6737    0.0000 C   0  0  0  0  0  0  0  0  0  0  0  0
   25.3050   -3.7884    0.0000 C   0  0  0  0  0  0  0  0  0  0  0  0
   25.6687   -2.3331    0.0000 O   0  0  0  0  0  0  0  0  0  0  0  0
   26.3834   -4.8309    0.0000 N   0  0  0  0  0  0  0  0  0  0  0  0
   27.8255   -4.4183    0.0000 C   0  0  0  0  0  0  0  0  0  0  0  0
   29.0396   -3.5373    0.0000 C   0  0  0  0  0  0  0  0  0  0  0  0
   30.4095   -4.1481    0.0000 C   0  0  0  0  0  0  0  0  0  0  0  0
   29.8790   -2.2942    0.0000 C   0  0  0  0  0  0  0  0  0  0  0  0
   29.2222   -0.9456    0.0000 C   0  0  0  0  0  0  0  0  0  0  0  0
   28.9040   -5.4609    0.0000 C   0  0  0  0  0  0  0  0  0  0  0  0
   30.3856   -5.2271    0.0000 O   0  0  0  0  0  0  0  0  0  0  0  0
   28.5403   -6.9161    0.0000 O   0  0  0  0  0  0  0  0  0  0  0  0
  -24.5407   -4.6665    0.0000 H   0  0  0  0  0  0  0  0  0  0  0  0
  -25.6286   -0.3077    0.0000 H   0  0  0  0  0  0  0  0  0  0  0  0
  -28.4766    0.6352    0.0000 H   0  0  0  0  0  0  0  0  0  0  0  0
  -26.9153   -5.1234    0.0000 H   0  0  0  0  0  0  0  0  0  0  0  0
  -33.3701   -8.2298    0.0000 H   0  0  0  0  0  0  0  0  0  0  0  0
  -35.4572   -3.4712    0.0000 H   0  0  0  0  0  0  0  0  0  0  0  0
  -32.7098   -2.2662    0.0000 H   0  0  0  0  0  0  0  0  0  0  0  0
  -36.9959   -5.5646    0.0000 H   0  0  0  0  0  0  0  0  0  0  0  0
  -27.5453   -2.8380    0.0000 H   0  0  0  0  0  0  0  0  0  0  0  0
  -25.0648   -4.7867    0.0000 H   0  0  0  0  0  0  0  0  0  0  0  0
  -28.2055   -8.8016    0.0000 H   0  0  0  0  0  0  0  0  0  0  0  0
  -25.6232   -9.0874    0.0000 H   0  0  0  0  0  0  0  0  0  0  0  0
  -22.1732   -4.1884    0.0000 H   0  0  0  0  0  0  0  0  0  0  0  0
  -20.6451   -0.4015    0.0000 H   0  0  0  0  0  0  0  0  0  0  0  0
  -22.5335   -0.7919    0.0000 H   0  0  0  0  0  0  0  0  0  0  0  0
  -18.7558   -3.1234    0.0000 H   0  0  0  0  0  0  0  0  0  0  0  0
  -20.6442   -3.5139    0.0000 H   0  0  0  0  0  0  0  0  0  0  0  0
  -17.0847   -3.1363    0.0000 H   0  0  0  0  0  0  0  0  0  0  0  0
  -17.4450    0.2602    0.0000 H   0  0  0  0  0  0  0  0  0  0  0  0
  -15.3396    2.1349    0.0000 H   0  0  0  0  0  0  0  0  0  0  0  0
  -16.9806    1.1221    0.0000 H   0  0  0  0  0  0  0  0  0  0  0  0
  -13.8147   -1.9791    0.0000 H   0  0  0  0  0  0  0  0  0  0  0  0
  -10.6968   -1.5856    0.0000 H   0  0  0  0  0  0  0  0  0  0  0  0
   -9.5592    0.8268    0.0000 H   0  0  0  0  0  0  0  0  0  0  0  0
  -11.1348    3.3797    0.0000 H   0  0  0  0  0  0  0  0  0  0  0  0
  -14.1335    3.2917    0.0000 H   0  0  0  0  0  0  0  0  0  0  0  0
  -13.6632    1.3550    0.0000 H   0  0  0  0  0  0  0  0  0  0  0  0
  -13.0114   -1.9357    0.0000 H   0  0  0  0  0  0  0  0  0  0  0  0
   -9.7671   -2.1867    0.0000 H   0  0  0  0  0  0  0  0  0  0  0  0
  -10.1131   -0.4361    0.0000 H   0  0  0  0  0  0  0  0  0  0  0  0
  -10.3801   -5.4437    0.0000 H   0  0  0  0  0  0  0  0  0  0  0  0
   -8.7693   -3.4053    0.0000 H   0  0  0  0  0  0  0  0  0  0  0  0
   -9.2751   -1.5101    0.0000 H   0  0  0  0  0  0  0  0  0  0  0  0
   -9.8123    1.8384    0.0000 H   0  0  0  0  0  0  0  0  0  0  0  0
   -9.3478    2.7003    0.0000 H   0  0  0  0  0  0  0  0  0  0  0  0
   -5.6908    3.5968    0.0000 H   0  0  0  0  0  0  0  0  0  0  0  0
   -4.8851    2.1695    0.0000 H   0  0  0  0  0  0  0  0  0  0  0  0
   -6.0308    0.8276    0.0000 H   0  0  0  0  0  0  0  0  0  0  0  0
   -8.0106    5.1820    0.0000 H   0  0  0  0  0  0  0  0  0  0  0  0
   -9.2062    3.6691    0.0000 H   0  0  0  0  0  0  0  0  0  0  0  0
   -6.4238    5.7837    0.0000 H   0  0  0  0  0  0  0  0  0  0  0  0
   -4.8688    4.6728    0.0000 H   0  0  0  0  0  0  0  0  0  0  0  0
   -6.0092    2.7984    0.0000 H   0  0  0  0  0  0  0  0  0  0  0  0
   -6.5716    2.8554    0.0000 H   0  0  0  0  0  0  0  0  0  0  0  0
   -5.5706   -0.5689    0.0000 H   0  0  0  0  0  0  0  0  0  0  0  0
   -4.7232   -1.7709    0.0000 H   0  0  0  0  0  0  0  0  0  0  0  0
   -4.4085   -2.3107    0.0000 H   0  0  0  0  0  0  0  0  0  0  0  0
   -3.5054   -3.0081    0.0000 H   0  0  0  0  0  0  0  0  0  0  0  0
   -2.9926   -3.3360    0.0000 H   0  0  0  0  0  0  0  0  0  0  0  0
   -1.6153   -3.8518    0.0000 H   0  0  0  0  0  0  0  0  0  0  0  0
   -0.5797   -4.2586    0.0000 H   0  0  0  0  0  0  0  0  0  0  0  0
   -5.6294   -1.6652    0.0000 H   0  0  0  0  0  0  0  0  0  0  0  0
   -6.9051   -0.9720    0.0000 H   0  0  0  0  0  0  0  0  0  0  0  0
   -6.9212    0.6992    0.0000 H   0  0  0  0  0  0  0  0  0  0  0  0
   -5.7796    4.7598    0.0000 H   0  0  0  0  0  0  0  0  0  0  0  0
   -5.3171    5.3524    0.0000 H   0  0  0  0  0  0  0  0  0  0  0  0
   -5.3094    7.7990    0.0000 H   0  0  0  0  0  0  0  0  0  0  0  0
   -5.7802    6.2345    0.0000 H   0  0  0  0  0  0  0  0  0  0  0  0
   -1.7273    8.4575    0.0000 H   0  0  0  0  0  0  0  0  0  0  0  0
   -0.9386    8.3790    0.0000 H   0  0  0  0  0  0  0  0  0  0  0  0
    2.1071    9.3307    0.0000 H   0  0  0  0  0  0  0  0  0  0  0  0
    2.1670    7.8547    0.0000 H   0  0  0  0  0  0  0  0  0  0  0  0
   -1.0197   10.8414    0.0000 H   0  0  0  0  0  0  0  0  0  0  0  0
   -1.1651    9.0629    0.0000 H   0  0  0  0  0  0  0  0  0  0  0  0
    2.0544   12.0777    0.0000 H   0  0  0  0  0  0  0  0  0  0  0  0
    2.1269   10.2947    0.0000 H   0  0  0  0  0  0  0  0  0  0  0  0
   -1.3370   12.4821    0.0000 H   0  0  0  0  0  0  0  0  0  0  0  0
    0.9924   16.3323    0.0000 H   0  0  0  0  0  0  0  0  0  0  0  0
   -1.2838   15.0797    0.0000 H   0  0  0  0  0  0  0  0  0  0  0  0
    3.2153   14.9874    0.0000 H   0  0  0  0  0  0  0  0  0  0  0  0
    3.1620   12.3899    0.0000 H   0  0  0  0  0  0  0  0  0  0  0  0
    3.7235    7.7292    0.0000 H   0  0  0  0  0  0  0  0  0  0  0  0
    4.3019    6.9557    0.0000 H   0  0  0  0  0  0  0  0  0  0  0  0
    5.8283    4.2007    0.0000 H   0  0  0  0  0  0  0  0  0  0  0  0
    7.5673    7.4504    0.0000 H   0  0  0  0  0  0  0  0  0  0  0  0
    6.1765    8.5543    0.0000 H   0  0  0  0  0  0  0  0  0  0  0  0
    4.6953    7.5592    0.0000 H   0  0  0  0  0  0  0  0  0  0  0  0
    8.2593    4.5356    0.0000 H   0  0  0  0  0  0  0  0  0  0  0  0
    6.5923    3.8991    0.0000 H   0  0  0  0  0  0  0  0  0  0  0  0
    9.4749    6.1206    0.0000 H   0  0  0  0  0  0  0  0  0  0  0  0
    8.5876    7.8327    0.0000 H   0  0  0  0  0  0  0  0  0  0  0  0
    6.9806    7.5379    0.0000 H   0  0  0  0  0  0  0  0  0  0  0  0
    6.7006    2.9055    0.0000 H   0  0  0  0  0  0  0  0  0  0  0  0
    5.3570   -1.4748    0.0000 H   0  0  0  0  0  0  0  0  0  0  0  0
    6.1134   -0.4073    0.0000 H   0  0  0  0  0  0  0  0  0  0  0  0
    4.2139   -2.7813    0.0000 H   0  0  0  0  0  0  0  0  0  0  0  0
    5.0745   -2.0322    0.0000 H   0  0  0  0  0  0  0  0  0  0  0  0
    2.3766   -3.7346    0.0000 H   0  0  0  0  0  0  0  0  0  0  0  0
    3.7213   -3.1388    0.0000 H   0  0  0  0  0  0  0  0  0  0  0  0
    1.3666   -4.2014    0.0000 H   0  0  0  0  0  0  0  0  0  0  0  0
    7.9014    1.1877    0.0000 H   0  0  0  0  0  0  0  0  0  0  0  0
    7.5248    2.9319    0.0000 H   0  0  0  0  0  0  0  0  0  0  0  0
    6.0789    3.2345    0.0000 H   0  0  0  0  0  0  0  0  0  0  0  0
    8.1995    2.0212    0.0000 H   0  0  0  0  0  0  0  0  0  0  0  0
    7.4272   -1.1478    0.0000 H   0  0  0  0  0  0  0  0  0  0  0  0
   10.3397   -2.9362    0.0000 H   0  0  0  0  0  0  0  0  0  0  0  0
   10.7875   -1.2089    0.0000 H   0  0  0  0  0  0  0  0  0  0  0  0
    7.3429   -3.8940    0.0000 H   0  0  0  0  0  0  0  0  0  0  0  0
    7.3594   -2.1097    0.0000 H   0  0  0  0  0  0  0  0  0  0  0  0
   11.0765   -2.5401    0.0000 H   0  0  0  0  0  0  0  0  0  0  0  0
   12.0454    0.7099    0.0000 H   0  0  0  0  0  0  0  0  0  0  0  0
   14.5979    1.5785    0.0000 H   0  0  0  0  0  0  0  0  0  0  0  0
   12.8378    1.2849    0.0000 H   0  0  0  0  0  0  0  0  0  0  0  0
   15.1288   -1.8603    0.0000 H   0  0  0  0  0  0  0  0  0  0  0  0
   17.9773    0.2512    0.0000 H   0  0  0  0  0  0  0  0  0  0  0  0
   17.3397    1.7555    0.0000 H   0  0  0  0  0  0  0  0  0  0  0  0
   15.5569    1.6787    0.0000 H   0  0  0  0  0  0  0  0  0  0  0  0
   16.3639   -2.9111    0.0000 H   0  0  0  0  0  0  0  0  0  0  0  0
   17.8417   -1.6723    0.0000 H   0  0  0  0  0  0  0  0  0  0  0  0
   17.3494   -0.2796    0.0000 H   0  0  0  0  0  0  0  0  0  0  0  0
   15.9278    0.0554    0.0000 H   0  0  0  0  0  0  0  0  0  0  0  0
   16.9580   -3.6598    0.0000 H   0  0  0  0  0  0  0  0  0  0  0  0
   15.0872   -3.1922    0.0000 H   0  0  0  0  0  0  0  0  0  0  0  0
   18.4581   -4.3964    0.0000 H   0  0  0  0  0  0  0  0  0  0  0  0
   19.6071   -1.1799    0.0000 H   0  0  0  0  0  0  0  0  0  0  0  0
   20.3995   -0.6049    0.0000 H   0  0  0  0  0  0  0  0  0  0  0  0
   21.6606    0.9442    0.0000 H   0  0  0  0  0  0  0  0  0  0  0  0
   24.0619   -1.3773    0.0000 H   0  0  0  0  0  0  0  0  0  0  0  0
   23.9263   -3.3009    0.0000 H   0  0  0  0  0  0  0  0  0  0  0  0
   22.6904   -3.7501    0.0000 H   0  0  0  0  0  0  0  0  0  0  0  0
   23.3228   -1.7584    0.0000 H   0  0  0  0  0  0  0  0  0  0  0  0
   22.5505   -4.9275    0.0000 H   0  0  0  0  0  0  0  0  0  0  0  0
   25.5981   -6.5921    0.0000 H   0  0  0  0  0  0  0  0  0  0  0  0
   25.9108   -4.9885    0.0000 H   0  0  0  0  0  0  0  0  0  0  0  0
   22.4827   -5.8893    0.0000 H   0  0  0  0  0  0  0  0  0  0  0  0
   23.6553   -9.4774    0.0000 H   0  0  0  0  0  0  0  0  0  0  0  0
   25.4154   -9.1838    0.0000 H   0  0  0  0  0  0  0  0  0  0  0  0
   25.6494   -7.4148    0.0000 H   0  0  0  0  0  0  0  0  0  0  0  0
   22.4391   -9.1734    0.0000 H   0  0  0  0  0  0  0  0  0  0  0  0
   21.0241   -8.0863    0.0000 H   0  0  0  0  0  0  0  0  0  0  0  0
   21.8094   -6.3251    0.0000 H   0  0  0  0  0  0  0  0  0  0  0  0
   26.1998   -6.3197    0.0000 H   0  0  0  0  0  0  0  0  0  0  0  0
   27.1687   -3.0697    0.0000 H   0  0  0  0  0  0  0  0  0  0  0  0
   27.8421   -2.6339    0.0000 H   0  0  0  0  0  0  0  0  0  0  0  0
   31.7219   -3.4217    0.0000 H   0  0  0  0  0  0  0  0  0  0  0  0
   31.4880   -5.1907    0.0000 H   0  0  0  0  0  0  0  0  0  0  0  0
   30.0714   -5.6095    0.0000 H   0  0  0  0  0  0  0  0  0  0  0  0
   31.0931   -1.4132    0.0000 H   0  0  0  0  0  0  0  0  0  0  0  0
   31.0765   -3.1975    0.0000 H   0  0  0  0  0  0  0  0  0  0  0  0
   30.0617    0.2975    0.0000 H   0  0  0  0  0  0  0  0  0  0  0  0
   28.1438    0.0970    0.0000 H   0  0  0  0  0  0  0  0  0  0  0  0
   27.9099   -1.6721    0.0000 H   0  0  0  0  0  0  0  0  0  0  0  0
  1  2  1  0
  2  3  1  0
  3  4  2  0
  4  5  1  0
  5  6  2  0
  6  7  1  0
  7  8  2  0
  7  9  1  0
  9 10  1  0
 10 11  1  0
 11 12  2  0
  9 13  1  0
 13 14  1  0
 14 15  2  0
 15 16  1  0
 16 17  2  0
 17 18  1  0
 16 19  1  0
 14 20  1  0
 20 21  1  0
 21 22  2  0
 22 23  1  0
 23 24  2  0
 24 25  1  0
 25 26  2  0
 25 27  1  0
  1 28  2  0
  1 29  1  0
 29 30  1  0
 30 31  1  0
 31 32  1  0
 32 33  2  0
 32 34  1  0
 34 35  1  0
 35 36  1  0
 36 37  1  0
 37 38  2  0
 38 39  1  0
 39 40  2  0
 40 41  1  0
 41 42  2  0
 35 43  1  0
 43 44  2  0
 43 45  1  0
 45 46  1  0
 46 47  1  0
 47 48  1  0
 48 49  1  0
 48 50  2  0
 46 51  1  0
 51 52  2  0
 51 53  1  0
 53 54  1  0
 54 55  1  0
 55 56  1  0
 55 57  1  0
 57 58  1  0
 54 59  1  0
 59 60  2  0
 59 61  1  0
 62 61  1  6
 62 63  1  0
 63 64  1  0
 64 65  1  0
 65 66  1  0
 62 67  1  0
 62 68  1  0
 68 69  2  0
 68 70  1  0
 70 71  1  0
 71 72  1  0
 72 73  1  0
 73 74  2  0
 73 75  1  0
 71 76  1  0
 76 77  2  0
 76 78  1  0
 78 79  1  0
 79 80  1  0
 80 81  1  0
 81 82  1  0
 82 83  1  0
 83 84  1  0
 84 85  2  3
 84 86  1  0
 79 87  1  0
 87 88  2  0
 87 89  1  0
 89 90  1  0
 90 91  1  0
 91 92  1  0
 91 93  1  0
 93 94  1  0
 90 95  1  0
 95 96  2  0
 95 97  1  0
 97 98  1  0
 98 99  1  0
 99100  1  0
100101  1  0
101102  1  0
 98103  1  0
 98104  1  6
104105  2  0
104106  1  0
106107  1  0
107108  1  0
108109  1  0
109110  1  0
110111  2  0
110112  1  0
107113  1  0
113114  2  0
113115  1  0
115116  1  0
116117  1  0
117118  1  0
118119  1  0
118120  1  0
116121  1  0
121122  2  0
121123  1  0
123124  1  0
124125  1  0
125126  2  0
125127  1  0
127128  1  0
128129  1  0
129130  1  0
129131  1  0
128132  1  0
132133  2  0
132134  1  0
134135  1  0
135136  1  0
136137  1  0
137138  1  0
137139  1  0
135140  1  0
140141  2  0
140142  1  0
142143  1  0
143144  1  0
144145  1  0
144146  1  0
146147  1  0
143148  1  0
148149  2  0
148150  1  0
  8  3  1  0
 42 37  1  0
 11  6  1  0
 66102  2  0
 18 13  2  0
 22  9  1  0
 26 21  1  0
  2151  1  0
  4152  1  0
  5153  1  0
  8154  1  0
 15155  1  0
 17156  1  0
 18157  1  0
 19158  1  0
 23159  1  0
 24160  1  0
 26161  1  0
 27162  1  0
 29163  1  0
 30164  1  0
 30165  1  0
 31166  1  0
 31167  1  0
 34168  1  0
 35169  1  1
 36170  1  0
 36171  1  0
 38172  1  0
 39173  1  0
 40174  1  0
 41175  1  0
 42176  1  0
 45177  1  0
 46178  1  6
 47179  1  0
 47180  1  0
 49181  1  0
 49182  1  0
 53183  1  0
 54184  1  1
 55185  1  1
 56186  1  0
 56187  1  0
 56188  1  0
 57189  1  0
 57190  1  0
 58191  1  0
 58192  1  0
 58193  1  0
 61194  1  0
 63195  1  0
 63196  1  0
 64197  1  0
 64198  1  0
 65199  1  0
 65200  1  0
 66201  1  0
 67202  1  0
 67203  1  0
 67204  1  0
 70205  1  0
 71206  1  1
 72207  1  0
 72208  1  0
 78209  1  0
 79210  1  1
 80211  1  0
 80212  1  0
 81213  1  0
 81214  1  0
 82215  1  0
 82216  1  0
 83217  1  0
 85218  1  0
 85219  1  0
 86220  1  0
 86221  1  0
 89222  1  0
 90223  1  1
 91224  1  6
 92225  1  0
 92226  1  0
 92227  1  0
 93228  1  0
 93229  1  0
 94230  1  0
 94231  1  0
 94232  1  0
 97233  1  0
 99234  1  0
 99235  1  0
100236  1  0
100237  1  0
101238  1  0
101239  1  0
102240  1  0
103241  1  0
103242  1  0
103243  1  0
106244  1  0
107245  1  6
108246  1  0
108247  1  0
109248  1  0
109249  1  0
115250  1  0
116251  1  1
117252  1  0
117253  1  0
118254  1  0
119255  1  0
119256  1  0
119257  1  0
120258  1  0
120259  1  0
120260  1  0
123261  1  0
124262  1  0
124263  1  0
127264  1  0
128265  1  1
129266  1  1
130267  1  0
131268  1  0
131269  1  0
131270  1  0
134271  1  0
135272  1  6
136273  1  0
136274  1  0
137275  1  0
138276  1  0
138277  1  0
138278  1  0
139279  1  0
139280  1  0
139281  1  0
142282  1  0
143283  1  1
144284  1  1
145285  1  0
145286  1  0
145287  1  0
146288  1  0
146289  1  0
147290  1  0
147291  1  0
147292  1  0
M  CHG  4  75  -1  85   1 112  -1 150  -1
M  END
