
     RDKit          2D

268270  0  0  0  0  0  0  0  0999 V2000
    3.0291  -15.4070    0.0000 N   0  0  0  0  0  0  0  0  0  0  0  0
    3.8827  -14.1736    0.0000 C   0  0  0  0  0  0  0  0  0  0  0  0
    5.3777  -14.2961    0.0000 C   0  0  0  0  0  0  0  0  0  0  0  0
    6.2313  -13.0626    0.0000 C   0  0  0  0  0  0  0  0  0  0  0  0
    5.5899  -11.7067    0.0000 O   0  0  0  0  0  0  0  0  0  0  0  0
    7.7263  -13.1852    0.0000 N   0  0  0  0  0  0  0  0  0  0  0  0
    8.5799  -11.9517    0.0000 C   0  0  0  0  0  0  0  0  0  0  0  0
    9.6464  -13.0065    0.0000 C   0  0  0  0  0  0  0  0  0  0  0  0
    9.2661  -14.4575    0.0000 C   0  0  0  0  0  0  0  0  0  0  0  0
   10.3326  -15.5124    0.0000 C   0  0  0  0  0  0  0  0  0  0  0  0
    9.9523  -16.9634    0.0000 O   0  0  0  0  0  0  0  0  0  0  0  0
   11.7793  -15.1162    0.0000 O   0  0  0  0  0  0  0  0  0  0  0  0
    8.9602  -10.5007    0.0000 C   0  0  0  0  0  0  0  0  0  0  0  0
   10.4069  -10.1045    0.0000 O   0  0  0  0  0  0  0  0  0  0  0  0
    7.8937   -9.4459    0.0000 N   0  0  0  0  0  0  0  0  0  0  0  0
    8.2740   -7.9949    0.0000 C   0  0  0  0  0  0  0  0  0  0  0  0
    6.7790   -7.8724    0.0000 C   0  0  0  0  0  0  0  0  0  0  0  0
    5.9254   -9.1058    0.0000 C   0  0  0  0  0  0  0  0  0  0  0  0
    4.4304   -8.9833    0.0000 N   0  0  0  0  0  0  0  0  0  0  0  0
    6.3967  -10.5299    0.0000 O   0  0  0  0  0  0  0  0  0  0  0  0
    9.1276   -6.7615    0.0000 C   0  0  0  0  0  0  0  0  0  0  0  0
    8.5430   -5.8373    0.0000 O   0  0  0  0  0  0  0  0  0  0  0  0
   10.6226   -6.8840    0.0000 N   0  0  0  0  0  0  0  0  0  0  0  0
   11.4022   -8.1655    0.0000 C   0  0  0  0  0  0  0  0  0  0  0  0
   12.8619   -7.8200    0.0000 C   0  0  0  0  0  0  0  0  0  0  0  0
   12.9844   -6.3250    0.0000 C   0  0  0  0  0  0  0  0  0  0  0  0
   11.6004   -5.7465    0.0000 C   0  0  0  0  0  0  0  0  0  0  0  0
   10.3670   -4.8929    0.0000 C   0  0  0  0  0  0  0  0  0  0  0  0
    9.6933   -5.3191    0.0000 O   0  0  0  0  0  0  0  0  0  0  0  0
   10.4895   -3.3980    0.0000 N   0  0  0  0  0  0  0  0  0  0  0  0
    9.2561   -2.5443    0.0000 C   0  0  0  0  0  0  0  0  0  0  0  0
    8.6296   -3.9073    0.0000 C   0  0  0  0  0  0  0  0  0  0  0  0
    9.4967   -5.1313    0.0000 C   0  0  0  0  0  0  0  0  0  0  0  0
    8.8703   -6.4942    0.0000 C   0  0  0  0  0  0  0  0  0  0  0  0
    9.8801   -7.6033    0.0000 O   0  0  0  0  0  0  0  0  0  0  0  0
    7.3709   -6.4500    0.0000 O   0  0  0  0  0  0  0  0  0  0  0  0
    8.3890   -1.3204    0.0000 C   0  0  0  0  0  0  0  0  0  0  0  0
    6.9734   -1.8166    0.0000 O   0  0  0  0  0  0  0  0  0  0  0  0
    9.0154    0.0426    0.0000 N   0  0  0  0  0  0  0  0  0  0  0  0
    8.1483    1.2665    0.0000 C   0  0  0  0  0  0  0  0  0  0  0  0
    7.4367   -0.0539    0.0000 C   0  0  0  0  0  0  0  0  0  0  0  0
    6.4880   -1.2158    0.0000 C   0  0  0  0  0  0  0  0  0  0  0  0
    5.3366   -2.1772    0.0000 C   0  0  0  0  0  0  0  0  0  0  0  0
    4.0241   -2.9033    0.0000 C   0  0  0  0  0  0  0  0  0  0  0  0
    2.5978   -3.3679    0.0000 C   0  0  0  0  0  0  0  0  0  0  0  0
    1.1094   -3.5541    0.0000 C   0  0  0  0  0  0  0  0  0  0  0  0
   -0.3873   -3.4553    0.0000 C   0  0  0  0  0  0  0  0  0  0  0  0
    9.6300    1.4999    0.0000 C   0  0  0  0  0  0  0  0  0  0  0  0
    8.5972    2.6978    0.0000 C   0  0  0  0  0  0  0  0  0  0  0  0
   10.0916    2.5682    0.0000 O   0  0  0  0  0  0  0  0  0  0  0  0
    8.7671    4.1882    0.0000 N   0  0  0  0  0  0  0  0  0  0  0  0
    8.6519    5.6837    0.0000 C   0  0  0  0  0  0  0  0  0  0  0  0
    9.7722    6.6811    0.0000 C   0  0  0  0  0  0  0  0  0  0  0  0
   11.1281    6.0396    0.0000 C   0  0  0  0  0  0  0  0  0  0  0  0
   10.4838    8.0016    0.0000 C   0  0  0  0  0  0  0  0  0  0  0  0
   11.9832    8.0455    0.0000 C   0  0  0  0  0  0  0  0  0  0  0  0
    8.2557    7.1305    0.0000 C   0  0  0  0  0  0  0  0  0  0  0  0
    9.6582    7.6624    0.0000 O   0  0  0  0  0  0  0  0  0  0  0  0
    7.5929    8.4761    0.0000 N   0  0  0  0  0  0  0  0  0  0  0  0
    6.6874    9.6719    0.0000 C   0  0  0  0  0  0  0  0  0  0  0  0
    7.0906   11.1167    0.0000 C   0  0  0  0  0  0  0  0  0  0  0  0
    8.5434   11.4899    0.0000 C   0  0  0  0  0  0  0  0  0  0  0  0
    8.9467   12.9347    0.0000 C   0  0  0  0  0  0  0  0  0  0  0  0
   10.0363   11.3437    0.0000 C   0  0  0  0  0  0  0  0  0  0  0  0
    5.5719   10.6748    0.0000 C   0  0  0  0  0  0  0  0  0  0  0  0
    6.3106   11.9803    0.0000 O   0  0  0  0  0  0  0  0  0  0  0  0
    4.2868   11.4485    0.0000 N   0  0  0  0  0  0  0  0  0  0  0  0
    2.8785   11.9649    0.0000 C   0  0  0  0  0  0  0  0  0  0  0  0
    2.4366   13.3984    0.0000 C   0  0  0  0  0  0  0  0  0  0  0  0
    3.4571   14.4978    0.0000 C   0  0  0  0  0  0  0  0  0  0  0  0
    3.0152   15.9312    0.0000 O   0  0  0  0  0  0  0  0  0  0  0  0
    4.9194   14.1637    0.0000 O   0  0  0  0  0  0  0  0  0  0  0  0
    1.3979   12.2055    0.0000 C   0  0  0  0  0  0  0  0  0  0  0  0
    1.3136   13.7032    0.0000 O   0  0  0  0  0  0  0  0  0  0  0  0
   -0.1014   12.1616    0.0000 N   0  0  0  0  0  0  0  0  0  0  0  0
   -1.5654   11.8347    0.0000 C   0  0  0  0  0  0  0  0  0  0  0  0
   -2.7121   12.8017    0.0000 C   0  0  0  0  0  0  0  0  0  0  0  0
   -2.4480   14.2783    0.0000 C   0  0  0  0  0  0  0  0  0  0  0  0
   -3.5947   15.2452    0.0000 C   0  0  0  0  0  0  0  0  0  0  0  0
   -3.3306   16.7218    0.0000 O   0  0  0  0  0  0  0  0  0  0  0  0
   -5.0055   14.7356    0.0000 O   0  0  0  0  0  0  0  0  0  0  0  0
   -2.9410   11.2367    0.0000 C   0  0  0  0  0  0  0  0  0  0  0  0
   -3.8217   12.4509    0.0000 O   0  0  0  0  0  0  0  0  0  0  0  0
   -4.1786   10.3891    0.0000 N   0  0  0  0  0  0  0  0  0  0  0  0
   -5.2334    9.3226    0.0000 C   0  0  0  0  0  0  0  0  0  0  0  0
   -6.7208    9.5161    0.0000 C   0  0  0  0  0  0  0  0  0  0  0  0
   -7.2970   10.9011    0.0000 C   0  0  0  0  0  0  0  0  0  0  0  0
   -8.7561   11.2490    0.0000 C   0  0  0  0  0  0  0  0  0  0  0  0
   -8.8760   12.7442    0.0000 N   0  0  0  0  0  0  0  0  0  0  0  0
   -7.4911   13.3204    0.0000 C   0  0  0  0  0  0  0  0  0  0  0  0
   -6.5152   12.1812    0.0000 N   0  0  0  0  0  0  0  0  0  0  0  0
   -6.0673    8.0758    0.0000 C   0  0  0  0  0  0  0  0  0  0  0  0
   -7.4647    8.6212    0.0000 O   0  0  0  0  0  0  0  0  0  0  0  0
   -6.6502    6.6937    0.0000 N   0  0  0  0  0  0  0  0  0  0  0  0
   -6.9610    5.2262    0.0000 C   0  0  0  0  0  0  0  0  0  0  0  0
   -8.3169    4.5848    0.0000 C   0  0  0  0  0  0  0  0  0  0  0  0
   -9.5504    5.4384    0.0000 C   0  0  0  0  0  0  0  0  0  0  0  0
   -6.9884    3.7265    0.0000 C   0  0  0  0  0  0  0  0  0  0  0  0
   -8.4588    3.4298    0.0000 O   0  0  0  0  0  0  0  0  0  0  0  0
   -6.7316    2.2486    0.0000 N   0  0  0  0  0  0  0  0  0  0  0  0
   -6.1997    0.8461    0.0000 C   0  0  0  0  0  0  0  0  0  0  0  0
   -5.4119   -0.4304    0.0000 C   0  0  0  0  0  0  0  0  0  0  0  0
   -4.3969   -1.5348    0.0000 C   0  0  0  0  0  0  0  0  0  0  0  0
   -3.1911   -2.4271    0.0000 C   0  0  0  0  0  0  0  0  0  0  0  0
   -1.8383   -3.0751    0.0000 C   0  0  0  0  0  0  0  0  0  0  0  0
   -7.6925    0.9923    0.0000 C   0  0  0  0  0  0  0  0  0  0  0  0
   -6.9936   -0.4265    0.0000 C   0  0  0  0  0  0  0  0  0  0  0  0
   -6.6297   -1.8817    0.0000 O   0  0  0  0  0  0  0  0  0  0  0  0
   -8.4927   -0.3753    0.0000 N   0  0  0  0  0  0  0  0  0  0  0  0
   -9.2867   -1.6479    0.0000 C   0  0  0  0  0  0  0  0  0  0  0  0
   -9.5975   -3.1154    0.0000 C   0  0  0  0  0  0  0  0  0  0  0  0
  -11.0237   -3.5800    0.0000 C   0  0  0  0  0  0  0  0  0  0  0  0
  -11.3345   -5.0474    0.0000 C   0  0  0  0  0  0  0  0  0  0  0  0
  -12.7608   -5.5120    0.0000 N   0  0  0  0  0  0  0  0  0  0  0  0
  -13.0715   -6.9794    0.0000 C   0  0  0  0  0  0  0  0  0  0  0  0
  -14.5438   -7.2667    0.0000 N   0  0  0  0  0  0  0  0  0  0  0  0
  -11.9561   -7.9823    0.0000 N   0  0  0  0  0  0  0  0  0  0  0  0
  -10.7858   -1.5967    0.0000 C   0  0  0  0  0  0  0  0  0  0  0  0
  -11.4910   -0.2728    0.0000 O   0  0  0  0  0  0  0  0  0  0  0  0
  -11.5798   -2.8694    0.0000 N   0  0  0  0  0  0  0  0  0  0  0  0
  -13.0789   -2.8181    0.0000 C   0  0  0  0  0  0  0  0  0  0  0  0
  -14.4701   -2.2572    0.0000 C   0  0  0  0  0  0  0  0  0  0  0  0
  -14.6799   -0.7720    0.0000 C   0  0  0  0  0  0  0  0  0  0  0  0
  -13.8728   -4.0908    0.0000 C   0  0  0  0  0  0  0  0  0  0  0  0
  -13.5090   -5.5460    0.0000 O   0  0  0  0  0  0  0  0  0  0  0  0
  -15.3719   -4.0395    0.0000 N   0  0  0  0  0  0  0  0  0  0  0  0
  -16.1659   -5.3122    0.0000 C   0  0  0  0  0  0  0  0  0  0  0  0
  -16.4767   -6.7796    0.0000 C   0  0  0  0  0  0  0  0  0  0  0  0
  -17.9029   -7.2442    0.0000 C   0  0  0  0  0  0  0  0  0  0  0  0
  -18.2137   -8.7116    0.0000 S   0  0  0  0  0  0  0  0  0  0  0  0
  -19.6400   -9.1762    0.0000 C   0  0  0  0  0  0  0  0  0  0  0  0
  -17.6650   -5.2609    0.0000 C   0  0  0  0  0  0  0  0  0  0  0  0
  -18.6082   -6.4273    0.0000 O   0  0  0  0  0  0  0  0  0  0  0  0
  -18.3702   -3.9370    0.0000 O   0  0  0  0  0  0  0  0  0  0  0  0
    1.5342  -15.2845    0.0000 H   0  0  0  0  0  0  0  0  0  0  0  0
    3.6705  -16.7629    0.0000 H   0  0  0  0  0  0  0  0  0  0  0  0
    2.5198  -13.5471    0.0000 H   0  0  0  0  0  0  0  0  0  0  0  0
    4.2630  -12.7226    0.0000 H   0  0  0  0  0  0  0  0  0  0  0  0
    4.9975  -15.7471    0.0000 H   0  0  0  0  0  0  0  0  0  0  0  0
    6.7407  -14.9225    0.0000 H   0  0  0  0  0  0  0  0  0  0  0  0
    8.1976  -14.6092    0.0000 H   0  0  0  0  0  0  0  0  0  0  0  0
    7.2170  -11.3253    0.0000 H   0  0  0  0  0  0  0  0  0  0  0  0
   11.0093  -13.6330    0.0000 H   0  0  0  0  0  0  0  0  0  0  0  0
   10.5000  -11.7731    0.0000 H   0  0  0  0  0  0  0  0  0  0  0  0
    8.4125  -15.6910    0.0000 H   0  0  0  0  0  0  0  0  0  0  0  0
    7.7692  -14.3612    0.0000 H   0  0  0  0  0  0  0  0  0  0  0  0
    6.5061  -10.0155    0.0000 H   0  0  0  0  0  0  0  0  0  0  0  0
    9.4448   -8.9325    0.0000 H   0  0  0  0  0  0  0  0  0  0  0  0
    5.4161   -7.2459    0.0000 H   0  0  0  0  0  0  0  0  0  0  0  0
    6.9795   -6.3859    0.0000 H   0  0  0  0  0  0  0  0  0  0  0  0
    3.5768  -10.2167    0.0000 H   0  0  0  0  0  0  0  0  0  0  0  0
    3.7890   -7.6273    0.0000 H   0  0  0  0  0  0  0  0  0  0  0  0
   11.8983   -9.5811    0.0000 H   0  0  0  0  0  0  0  0  0  0  0  0
   10.1345   -8.9674    0.0000 H   0  0  0  0  0  0  0  0  0  0  0  0
   14.3615   -7.7856    0.0000 H   0  0  0  0  0  0  0  0  0  0  0  0
   13.0528   -9.3078    0.0000 H   0  0  0  0  0  0  0  0  0  0  0  0
   13.4150   -4.8882    0.0000 H   0  0  0  0  0  0  0  0  0  0  0  0
   14.4584   -6.6032    0.0000 H   0  0  0  0  0  0  0  0  0  0  0  0
   12.3204   -4.4306    0.0000 H   0  0  0  0  0  0  0  0  0  0  0  0
   11.8455   -2.7566    0.0000 H   0  0  0  0  0  0  0  0  0  0  0  0
   10.3109   -1.4779    0.0000 H   0  0  0  0  0  0  0  0  0  0  0  0
    7.5748   -4.9737    0.0000 H   0  0  0  0  0  0  0  0  0  0  0  0
    7.3962   -3.0537    0.0000 H   0  0  0  0  0  0  0  0  0  0  0  0
   10.4870   -6.2580    0.0000 H   0  0  0  0  0  0  0  0  0  0  0  0
   10.7782   -4.3517    0.0000 H   0  0  0  0  0  0  0  0  0  0  0  0
   10.5148   -0.0016    0.0000 H   0  0  0  0  0  0  0  0  0  0  0  0
    8.8789   -0.4664    0.0000 H   0  0  0  0  0  0  0  0  0  0  0  0
    7.8853   -1.4852    0.0000 H   0  0  0  0  0  0  0  0  0  0  0  0
    7.7334   -2.0518    0.0000 H   0  0  0  0  0  0  0  0  0  0  0  0
    6.8381   -2.6744    0.0000 H   0  0  0  0  0  0  0  0  0  0  0  0
    6.7093   -2.7819    0.0000 H   0  0  0  0  0  0  0  0  0  0  0  0
    5.5865   -3.6562    0.0000 H   0  0  0  0  0  0  0  0  0  0  0  0
    5.1442   -3.9009    0.0000 H   0  0  0  0  0  0  0  0  0  0  0  0
    3.9895   -4.4029    0.0000 H   0  0  0  0  0  0  0  0  0  0  0  0
    3.5090   -4.5594    0.0000 H   0  0  0  0  0  0  0  0  0  0  0  0
    2.2801   -4.8338    0.0000 H   0  0  0  0  0  0  0  0  0  0  0  0
    1.7786   -4.8966    0.0000 H   0  0  0  0  0  0  0  0  0  0  0  0
    0.3562   -4.8513    0.0000 H   0  0  0  0  0  0  0  0  0  0  0  0
   -0.6279   -4.9359    0.0000 H   0  0  0  0  0  0  0  0  0  0  0  0
   10.7082    0.4570    0.0000 H   0  0  0  0  0  0  0  0  0  0  0  0
   11.0213    2.0606    0.0000 H   0  0  0  0  0  0  0  0  0  0  0  0
    9.5007    2.9943    0.0000 H   0  0  0  0  0  0  0  0  0  0  0  0
   10.2523    3.9781    0.0000 H   0  0  0  0  0  0  0  0  0  0  0  0
    9.9643    4.9574    0.0000 H   0  0  0  0  0  0  0  0  0  0  0  0
    8.8554    7.8684    0.0000 H   0  0  0  0  0  0  0  0  0  0  0  0
   12.4499    7.0535    0.0000 H   0  0  0  0  0  0  0  0  0  0  0  0
   12.3730    5.2795    0.0000 H   0  0  0  0  0  0  0  0  0  0  0  0
   10.8252    4.7562    0.0000 H   0  0  0  0  0  0  0  0  0  0  0  0
   10.7009    9.4858    0.0000 H   0  0  0  0  0  0  0  0  0  0  0  0
    9.1280    8.6432    0.0000 H   0  0  0  0  0  0  0  0  0  0  0  0
   12.6948    9.3660    0.0000 H   0  0  0  0  0  0  0  0  0  0  0  0
   13.4071    7.5740    0.0000 H   0  0  0  0  0  0  0  0  0  0  0  0
   12.1317    6.5529    0.0000 H   0  0  0  0  0  0  0  0  0  0  0  0
    8.8694    9.2638    0.0000 H   0  0  0  0  0  0  0  0  0  0  0  0
    8.1841    9.7705    0.0000 H   0  0  0  0  0  0  0  0  0  0  0  0
    6.9754   12.6123    0.0000 H   0  0  0  0  0  0  0  0  0  0  0  0
    5.6775   11.6198    0.0000 H   0  0  0  0  0  0  0  0  0  0  0  0
    9.0171   10.0666    0.0000 H   0  0  0  0  0  0  0  0  0  0  0  0
   10.3432   13.4822    0.0000 H   0  0  0  0  0  0  0  0  0  0  0  0
    8.8314   14.4302    0.0000 H   0  0  0  0  0  0  0  0  0  0  0  0
    7.4828   13.2618    0.0000 H   0  0  0  0  0  0  0  0  0  0  0  0
   11.0515   12.4479    0.0000 H   0  0  0  0  0  0  0  0  0  0  0  0
   11.3891   10.6957    0.0000 H   0  0  0  0  0  0  0  0  0  0  0  0
    9.6330    9.8989    0.0000 H   0  0  0  0  0  0  0  0  0  0  0  0
    4.9348   12.8013    0.0000 H   0  0  0  0  0  0  0  0  0  0  0  0
    3.9666   12.9974    0.0000 H   0  0  0  0  0  0  0  0  0  0  0  0
    1.6837   14.6957    0.0000 H   0  0  0  0  0  0  0  0  0  0  0  0
    0.9759   13.0576    0.0000 H   0  0  0  0  0  0  0  0  0  0  0  0
   -0.1048   13.6616    0.0000 H   0  0  0  0  0  0  0  0  0  0  0  0
   -1.0332   13.2371    0.0000 H   0  0  0  0  0  0  0  0  0  0  0  0
   -4.0469   13.4860    0.0000 H   0  0  0  0  0  0  0  0  0  0  0  0
   -3.7567   11.7253    0.0000 H   0  0  0  0  0  0  0  0  0  0  0  0
   -1.6948   15.5755    0.0000 H   0  0  0  0  0  0  0  0  0  0  0  0
   -0.9566   14.1179    0.0000 H   0  0  0  0  0  0  0  0  0  0  0  0
   -5.1399   11.5405    0.0000 H   0  0  0  0  0  0  0  0  0  0  0  0
   -5.7205   10.7413    0.0000 H   0  0  0  0  0  0  0  0  0  0  0  0
   -8.2137    9.3701    0.0000 H   0  0  0  0  0  0  0  0  0  0  0  0
   -7.0177    8.0458    0.0000 H   0  0  0  0  0  0  0  0  0  0  0  0
   -9.8952   10.2731    0.0000 H   0  0  0  0  0  0  0  0  0  0  0  0
  -10.1562   13.5260    0.0000 H   0  0  0  0  0  0  0  0  0  0  0  0
   -7.1432   14.7794    0.0000 H   0  0  0  0  0  0  0  0  0  0  0  0
   -8.0161    7.3137    0.0000 H   0  0  0  0  0  0  0  0  0  0  0  0
   -8.0157    6.2929    0.0000 H   0  0  0  0  0  0  0  0  0  0  0  0
   -9.4939    3.6549    0.0000 H   0  0  0  0  0  0  0  0  0  0  0  0
   -7.7718    3.1874    0.0000 H   0  0  0  0  0  0  0  0  0  0  0  0
  -10.9063    4.7971    0.0000 H   0  0  0  0  0  0  0  0  0  0  0  0
  -10.4175    6.6624    0.0000 H   0  0  0  0  0  0  0  0  0  0  0  0
   -8.7850    6.7285    0.0000 H   0  0  0  0  0  0  0  0  0  0  0  0
   -8.2158    2.0318    0.0000 H   0  0  0  0  0  0  0  0  0  0  0  0
   -5.9507   -1.8303    0.0000 H   0  0  0  0  0  0  0  0  0  0  0  0
   -6.8275   -0.9266    0.0000 H   0  0  0  0  0  0  0  0  0  0  0  0
   -4.8390   -2.9681    0.0000 H   0  0  0  0  0  0  0  0  0  0  0  0
   -5.6929   -2.2899    0.0000 H   0  0  0  0  0  0  0  0  0  0  0  0
   -3.1710   -3.9269    0.0000 H   0  0  0  0  0  0  0  0  0  0  0  0
   -4.4327   -3.2688    0.0000 H   0  0  0  0  0  0  0  0  0  0  0  0
   -2.3548   -4.4833    0.0000 H   0  0  0  0  0  0  0  0  0  0  0  0
   -8.8348    0.0201    0.0000 H   0  0  0  0  0  0  0  0  0  0  0  0
   -9.0453    1.6403    0.0000 H   0  0  0  0  0  0  0  0  0  0  0  0
   -7.6509    2.4918    0.0000 H   0  0  0  0  0  0  0  0  0  0  0  0
   -9.3540    0.8528    0.0000 H   0  0  0  0  0  0  0  0  0  0  0  0
   -7.8955   -2.2088    0.0000 H   0  0  0  0  0  0  0  0  0  0  0  0
   -9.2081   -4.5640    0.0000 H   0  0  0  0  0  0  0  0  0  0  0  0
   -8.0984   -3.1666    0.0000 H   0  0  0  0  0  0  0  0  0  0  0  0
  -12.5228   -3.5287    0.0000 H   0  0  0  0  0  0  0  0  0  0  0  0
  -11.9064   -2.3672    0.0000 H   0  0  0  0  0  0  0  0  0  0  0  0
  -11.1247   -6.5327    0.0000 H   0  0  0  0  0  0  0  0  0  0  0  0
   -9.8528   -5.2810    0.0000 H   0  0  0  0  0  0  0  0  0  0  0  0
  -14.0857   -4.8088    0.0000 H   0  0  0  0  0  0  0  0  0  0  0  0
  -14.8086   -8.9115    0.0000 H   0  0  0  0  0  0  0  0  0  0  0  0
  -15.5046   -6.3169    0.0000 H   0  0  0  0  0  0  0  0  0  0  0  0
  -12.2669   -9.4498    0.0000 H   0  0  0  0  0  0  0  0  0  0  0  0
  -10.5299   -7.5177    0.0000 H   0  0  0  0  0  0  0  0  0  0  0  0
  -11.2159   -4.3245    0.0000 H   0  0  0  0  0  0  0  0  0  0  0  0
  -12.5915   -1.3995    0.0000 H   0  0  0  0  0  0  0  0  0  0  0  0
  -15.9518   -2.0236    0.0000 H   0  0  0  0  0  0  0  0  0  0  0  0
  -15.1267   -3.6058    0.0000 H   0  0  0  0  0  0  0  0  0  0  0  0
  -16.0711   -0.2111    0.0000 H   0  0  0  0  0  0  0  0  0  0  0  0
  -14.3691    0.6955    0.0000 H   0  0  0  0  0  0  0  0  0  0  0  0
  -13.1857   -0.6401    0.0000 H   0  0  0  0  0  0  0  0  0  0  0  0
  -16.2332   -2.8114    0.0000 H   0  0  0  0  0  0  0  0  0  0  0  0
  -14.7747   -5.8731    0.0000 H   0  0  0  0  0  0  0  0  0  0  0  0
  -16.2668   -8.2649    0.0000 H   0  0  0  0  0  0  0  0  0  0  0  0
  -15.0097   -6.4666    0.0000 H   0  0  0  0  0  0  0  0  0  0  0  0
  -19.3846   -7.0106    0.0000 H   0  0  0  0  0  0  0  0  0  0  0  0
  -18.6312   -5.9328    0.0000 H   0  0  0  0  0  0  0  0  0  0  0  0
  -19.9508  -10.6437    0.0000 H   0  0  0  0  0  0  0  0  0  0  0  0
  -21.1391   -9.1250    0.0000 H   0  0  0  0  0  0  0  0  0  0  0  0
  -20.0293   -7.7276    0.0000 H   0  0  0  0  0  0  0  0  0  0  0  0
  1  2  1  0
  2  3  1  0
  3  4  1  0
  4  5  2  0
  4  6  1  0
  6  7  1  0
  7  8  1  0
  8  9  1  0
  9 10  1  0
 10 11  2  0
 10 12  1  0
  7 13  1  0
 13 14  2  0
 13 15  1  0
 15 16  1  0
 16 17  1  0
 17 18  1  0
 18 19  1  0
 18 20  2  0
 16 21  1  0
 21 22  2  0
 21 23  1  0
 23 24  1  0
 24 25  1  0
 25 26  1  0
 26 27  1  0
 27 28  1  0
 28 29  2  0
 28 30  1  0
 30 31  1  0
 31 32  1  0
 32 33  1  0
 33 34  1  0
 34 35  2  0
 34 36  1  0
 31 37  1  0
 37 38  2  0
 37 39  1  0
 40 39  1  6
 40 41  1  0
 41 42  1  0
 42 43  1  0
 43 44  1  0
 44 45  1  0
 45 46  1  0
 46 47  1  0
 40 48  1  0
 40 49  1  0
 49 50  2  0
 49 51  1  0
 51 52  1  0
 52 53  1  0
 53 54  1  0
 53 55  1  0
 55 56  1  0
 52 57  1  0
 57 58  2  0
 57 59  1  0
 59 60  1  0
 60 61  1  0
 61 62  1  0
 62 63  1  0
 62 64  1  0
 60 65  1  0
 65 66  2  0
 65 67  1  0
 67 68  1  0
 68 69  1  0
 69 70  1  0
 70 71  2  0
 70 72  1  0
 68 73  1  0
 73 74  2  0
 73 75  1  0
 75 76  1  0
 76 77  1  0
 77 78  1  0
 78 79  1  0
 79 80  2  0
 79 81  1  0
 76 82  1  0
 82 83  2  0
 82 84  1  0
 84 85  1  0
 85 86  1  0
 86 87  1  0
 87 88  2  0
 88 89  1  0
 89 90  1  0
 90 91  2  0
 85 92  1  0
 92 93  2  0
 92 94  1  0
 94 95  1  0
 95 96  1  0
 96 97  1  0
 95 98  1  0
 98 99  2  0
 98100  1  0
100101  1  0
101102  1  0
102103  1  0
103104  1  0
104105  1  0
101106  1  0
101107  1  1
107108  2  0
107109  1  0
109110  1  0
110111  1  0
111112  1  0
112113  1  0
113114  1  0
114115  1  0
115116  2  3
115117  1  0
110118  1  0
118119  2  0
118120  1  0
120121  1  0
121122  1  0
122123  1  0
121124  1  0
124125  2  0
124126  1  0
126127  1  0
127128  1  0
128129  1  0
129130  1  0
130131  1  0
127132  1  0
132133  2  0
132134  1  0
 27 23  1  0
 91 87  1  0
 47105  2  0
  1135  1  0
  1136  1  0
  2137  1  0
  2138  1  0
  3139  1  0
  3140  1  0
  6141  1  0
  7142  1  6
  8143  1  0
  8144  1  0
  9145  1  0
  9146  1  0
 15147  1  0
 16148  1  1
 17149  1  0
 17150  1  0
 19151  1  0
 19152  1  0
 24153  1  0
 24154  1  0
 25155  1  0
 25156  1  0
 26157  1  0
 26158  1  0
 27159  1  0
 30160  1  0
 31161  1  1
 32162  1  0
 32163  1  0
 33164  1  0
 33165  1  0
 39166  1  0
 41167  1  0
 41168  1  0
 42169  1  0
 42170  1  0
 43171  1  0
 43172  1  0
 44173  1  0
 44174  1  0
 45175  1  0
 45176  1  0
 46177  1  0
 46178  1  0
 47179  1  0
 48180  1  0
 48181  1  0
 48182  1  0
 51183  1  0
 52184  1  6
 53185  1  1
 54186  1  0
 54187  1  0
 54188  1  0
 55189  1  0
 55190  1  0
 56191  1  0
 56192  1  0
 56193  1  0
 59194  1  0
 60195  1  6
 61196  1  0
 61197  1  0
 62198  1  0
 63199  1  0
 63200  1  0
 63201  1  0
 64202  1  0
 64203  1  0
 64204  1  0
 67205  1  0
 68206  1  6
 69207  1  0
 69208  1  0
 75209  1  0
 76210  1  6
 77211  1  0
 77212  1  0
 78213  1  0
 78214  1  0
 84215  1  0
 85216  1  6
 86217  1  0
 86218  1  0
 88219  1  0
 89220  1  0
 90221  1  0
 94222  1  0
 95223  1  6
 96224  1  0
 96225  1  0
 97226  1  0
 97227  1  0
 97228  1  0
100229  1  0
102230  1  0
102231  1  0
103232  1  0
103233  1  0
104234  1  0
104235  1  0
105236  1  0
106237  1  0
106238  1  0
106239  1  0
109240  1  0
110241  1  1
111242  1  0
111243  1  0
112244  1  0
112245  1  0
113246  1  0
113247  1  0
114248  1  0
116249  1  0
116250  1  0
117251  1  0
117252  1  0
120253  1  0
121254  1  6
122255  1  0
122256  1  0
123257  1  0
123258  1  0
123259  1  0
126260  1  0
127261  1  1
128262  1  0
128263  1  0
129264  1  0
129265  1  0
131266  1  0
131267  1  0
131268  1  0
M  CHG  6  12  -1  36  -1  72  -1  81  -1 116   1 134  -1
M  END
