
     RDKit          2D

329342  0  0  0  0  0  0  0  0999 V2000
  -24.4899    0.0327    0.0000 C   0  0  0  0  0  0  0  0  0  0  0  0
  -25.6803   -0.8801    0.0000 N   0  0  0  0  0  0  0  0  0  0  0  0
  -27.0659   -0.3056    0.0000 C   0  0  0  0  0  0  0  0  0  0  0  0
  -27.2612    1.1816    0.0000 C   0  0  0  0  0  0  0  0  0  0  0  0
  -28.6468    1.7561    0.0000 C   0  0  0  0  0  0  0  0  0  0  0  0
  -29.8371    0.8434    0.0000 C   0  0  0  0  0  0  0  0  0  0  0  0
  -29.6419   -0.6438    0.0000 C   0  0  0  0  0  0  0  0  0  0  0  0
  -28.2562   -1.2183    0.0000 C   0  0  0  0  0  0  0  0  0  0  0  0
  -30.9960   -1.2891    0.0000 C   0  0  0  0  0  0  0  0  0  0  0  0
  -32.0281   -0.2007    0.0000 O   0  0  0  0  0  0  0  0  0  0  0  0
  -31.3119    1.1173    0.0000 C   0  0  0  0  0  0  0  0  0  0  0  0
  -31.9572    2.4714    0.0000 O   0  0  0  0  0  0  0  0  0  0  0  0
  -32.4101   -1.7894    0.0000 C   0  0  0  0  0  0  0  0  0  0  0  0
  -32.6839   -3.2642    0.0000 C   0  0  0  0  0  0  0  0  0  0  0  0
  -34.0981   -3.7644    0.0000 C   0  0  0  0  0  0  0  0  0  0  0  0
  -35.2383   -2.7898    0.0000 C   0  0  0  0  0  0  0  0  0  0  0  0
  -34.9645   -1.3150    0.0000 C   0  0  0  0  0  0  0  0  0  0  0  0
  -33.5504   -0.8148    0.0000 C   0  0  0  0  0  0  0  0  0  0  0  0
  -36.6525   -3.2901    0.0000 O   0  0  0  0  0  0  0  0  0  0  0  0
  -31.5437   -4.2387    0.0000 O   0  0  0  0  0  0  0  0  0  0  0  0
  -30.1295   -3.7385    0.0000 C   0  0  0  0  0  0  0  0  0  0  0  0
  -29.8557   -2.2637    0.0000 C   0  0  0  0  0  0  0  0  0  0  0  0
  -28.5693   -2.4517    0.0000 C   0  0  0  0  0  0  0  0  0  0  0  0
  -27.9612   -2.9715    0.0000 C   0  0  0  0  0  0  0  0  0  0  0  0
  -28.1072   -3.7580    0.0000 C   0  0  0  0  0  0  0  0  0  0  0  0
  -28.8615   -4.0248    0.0000 C   0  0  0  0  0  0  0  0  0  0  0  0
  -26.4348   -5.1874    0.0000 O   0  0  0  0  0  0  0  0  0  0  0  0
  -24.6852    1.5199    0.0000 S   0  0  0  0  0  0  0  0  0  0  0  0
  -23.1043   -0.5418    0.0000 N   0  0  0  0  0  0  0  0  0  0  0  0
  -21.9140    0.3709    0.0000 C   0  0  0  0  0  0  0  0  0  0  0  0
  -20.5283   -0.2036    0.0000 C   0  0  0  0  0  0  0  0  0  0  0  0
  -19.3380    0.7091    0.0000 C   0  0  0  0  0  0  0  0  0  0  0  0
  -19.5333    2.1964    0.0000 O   0  0  0  0  0  0  0  0  0  0  0  0
  -17.9524    0.1346    0.0000 N   0  0  0  0  0  0  0  0  0  0  0  0
  -16.7620    1.0474    0.0000 C   0  0  0  0  0  0  0  0  0  0  0  0
  -15.9557    2.3122    0.0000 C   0  0  0  0  0  0  0  0  0  0  0  0
  -14.5330    2.7878    0.0000 O   0  0  0  0  0  0  0  0  0  0  0  0
  -15.3764    0.4729    0.0000 C   0  0  0  0  0  0  0  0  0  0  0  0
  -15.1811   -1.0144    0.0000 O   0  0  0  0  0  0  0  0  0  0  0  0
  -14.1861    1.3856    0.0000 N   0  0  0  0  0  0  0  0  0  0  0  0
  -12.8004    0.8111    0.0000 C   0  0  0  0  0  0  0  0  0  0  0  0
  -11.6949   -0.2026    0.0000 C   0  0  0  0  0  0  0  0  0  0  0  0
  -12.0200   -1.6670    0.0000 O   0  0  0  0  0  0  0  0  0  0  0  0
  -11.6101    1.7239    0.0000 C   0  0  0  0  0  0  0  0  0  0  0  0
  -11.8054    3.2111    0.0000 O   0  0  0  0  0  0  0  0  0  0  0  0
  -10.2245    1.1494    0.0000 N   0  0  0  0  0  0  0  0  0  0  0  0
   -9.0341    2.0621    0.0000 C   0  0  0  0  0  0  0  0  0  0  0  0
   -8.2278    3.3269    0.0000 C   0  0  0  0  0  0  0  0  0  0  0  0
   -6.7323    3.4441    0.0000 C   0  0  0  0  0  0  0  0  0  0  0  0
   -7.6485    1.4876    0.0000 C   0  0  0  0  0  0  0  0  0  0  0  0
   -7.6360   -0.0123    0.0000 O   0  0  0  0  0  0  0  0  0  0  0  0
   -6.4582    2.4003    0.0000 N   0  0  0  0  0  0  0  0  0  0  0  0
   -5.0726    1.8259    0.0000 C   0  0  0  0  0  0  0  0  0  0  0  0
   -3.9670    0.8121    0.0000 C   0  0  0  0  0  0  0  0  0  0  0  0
   -4.2921   -0.6522    0.0000 C   0  0  0  0  0  0  0  0  0  0  0  0
   -5.7229   -1.1028    0.0000 C   0  0  0  0  0  0  0  0  0  0  0  0
   -6.0480   -2.5671    0.0000 C   0  0  0  0  0  0  0  0  0  0  0  0
   -4.9425   -3.5809    0.0000 C   0  0  0  0  0  0  0  0  0  0  0  0
   -3.5117   -3.1303    0.0000 C   0  0  0  0  0  0  0  0  0  0  0  0
   -3.1866   -1.6660    0.0000 C   0  0  0  0  0  0  0  0  0  0  0  0
   -3.8822    2.7386    0.0000 C   0  0  0  0  0  0  0  0  0  0  0  0
   -4.0775    4.2258    0.0000 O   0  0  0  0  0  0  0  0  0  0  0  0
   -2.4966    2.1641    0.0000 N   0  0  0  0  0  0  0  0  0  0  0  0
   -1.3062    3.0768    0.0000 C   0  0  0  0  0  0  0  0  0  0  0  0
   -0.4999    4.3416    0.0000 C   0  0  0  0  0  0  0  0  0  0  0  0
    0.9987    4.2757    0.0000 C   0  0  0  0  0  0  0  0  0  0  0  0
    1.6909    2.9450    0.0000 C   0  0  0  0  0  0  0  0  0  0  0  0
    3.1894    2.8790    0.0000 C   0  0  0  0  0  0  0  0  0  0  0  0
    3.9958    4.1438    0.0000 C   0  0  0  0  0  0  0  0  0  0  0  0
    5.4943    4.0779    0.0000 O   0  0  0  0  0  0  0  0  0  0  0  0
    3.3036    5.4746    0.0000 C   0  0  0  0  0  0  0  0  0  0  0  0
    1.8051    5.5405    0.0000 C   0  0  0  0  0  0  0  0  0  0  0  0
    0.0794    2.5023    0.0000 C   0  0  0  0  0  0  0  0  0  0  0  0
   -0.0910    1.0120    0.0000 O   0  0  0  0  0  0  0  0  0  0  0  0
    1.2697    3.4151    0.0000 N   0  0  0  0  0  0  0  0  0  0  0  0
    2.6553    2.8406    0.0000 C   0  0  0  0  0  0  0  0  0  0  0  0
    3.1414    1.4215    0.0000 C   0  0  0  0  0  0  0  0  0  0  0  0
    4.0242    0.2088    0.0000 C   0  0  0  0  0  0  0  0  0  0  0  0
    5.2252   -0.6898    0.0000 C   0  0  0  0  0  0  0  0  0  0  0  0
    6.6378   -1.1946    0.0000 C   0  0  0  0  0  0  0  0  0  0  0  0
    1.5618    1.8139    0.0000 C   0  0  0  0  0  0  0  0  0  0  0  0
    2.6091    4.3399    0.0000 C   0  0  0  0  0  0  0  0  0  0  0  0
    1.2824    5.0397    0.0000 O   0  0  0  0  0  0  0  0  0  0  0  0
    3.0069    5.7862    0.0000 N   0  0  0  0  0  0  0  0  0  0  0  0
    3.8132    7.0510    0.0000 C   0  0  0  0  0  0  0  0  0  0  0  0
    3.3985    8.4925    0.0000 C   0  0  0  0  0  0  0  0  0  0  0  0
    1.9427    8.8541    0.0000 C   0  0  0  0  0  0  0  0  0  0  0  0
    1.5279   10.2956    0.0000 C   0  0  0  0  0  0  0  0  0  0  0  0
    0.0722   10.6571    0.0000 C   0  0  0  0  0  0  0  0  0  0  0  0
   -0.9689    9.5772    0.0000 C   0  0  0  0  0  0  0  0  0  0  0  0
   -2.4246    9.9388    0.0000 O   0  0  0  0  0  0  0  0  0  0  0  0
   -0.5541    8.1357    0.0000 C   0  0  0  0  0  0  0  0  0  0  0  0
    0.9017    7.7741    0.0000 C   0  0  0  0  0  0  0  0  0  0  0  0
    4.9566    8.0219    0.0000 C   0  0  0  0  0  0  0  0  0  0  0  0
    4.1669    9.2972    0.0000 O   0  0  0  0  0  0  0  0  0  0  0  0
    6.3354    8.6127    0.0000 N   0  0  0  0  0  0  0  0  0  0  0  0
    7.8270    8.7709    0.0000 C   0  0  0  0  0  0  0  0  0  0  0  0
    8.6954    9.9939    0.0000 C   0  0  0  0  0  0  0  0  0  0  0  0
    8.0704   11.3575    0.0000 C   0  0  0  0  0  0  0  0  0  0  0  0
    8.9389   12.5805    0.0000 C   0  0  0  0  0  0  0  0  0  0  0  0
    8.3139   13.9441    0.0000 C   0  0  0  0  0  0  0  0  0  0  0  0
    6.8205   14.0847    0.0000 C   0  0  0  0  0  0  0  0  0  0  0  0
    5.9521   12.8617    0.0000 C   0  0  0  0  0  0  0  0  0  0  0  0
    6.5770   11.4981    0.0000 C   0  0  0  0  0  0  0  0  0  0  0  0
    9.2990    8.4823    0.0000 C   0  0  0  0  0  0  0  0  0  0  0  0
    9.8037    9.8948    0.0000 O   0  0  0  0  0  0  0  0  0  0  0  0
   10.6205    7.7727    0.0000 N   0  0  0  0  0  0  0  0  0  0  0  0
   11.6742    6.7051    0.0000 C   0  0  0  0  0  0  0  0  0  0  0  0
   13.1718    6.7887    0.0000 C   0  0  0  0  0  0  0  0  0  0  0  0
   13.8483    8.1275    0.0000 C   0  0  0  0  0  0  0  0  0  0  0  0
   13.1628    9.4617    0.0000 C   0  0  0  0  0  0  0  0  0  0  0  0
   14.2198   10.5260    0.0000 N   0  0  0  0  0  0  0  0  0  0  0  0
   15.5586    9.8495    0.0000 C   0  0  0  0  0  0  0  0  0  0  0  0
   15.3290    8.3672    0.0000 N   0  0  0  0  0  0  0  0  0  0  0  0
   12.3663    5.3743    0.0000 C   0  0  0  0  0  0  0  0  0  0  0  0
   13.7854    5.8604    0.0000 O   0  0  0  0  0  0  0  0  0  0  0  0
   12.6355    3.8987    0.0000 N   0  0  0  0  0  0  0  0  0  0  0  0
   12.4578    2.4093    0.0000 C   0  0  0  0  0  0  0  0  0  0  0  0
   11.8489    1.0384    0.0000 C   0  0  0  0  0  0  0  0  0  0  0  0
   10.8630   -0.0921    0.0000 C   0  0  0  0  0  0  0  0  0  0  0  0
    9.5877   -0.8818    0.0000 C   0  0  0  0  0  0  0  0  0  0  0  0
    8.1363   -1.2605    0.0000 C   0  0  0  0  0  0  0  0  0  0  0  0
   13.8885    2.8598    0.0000 C   0  0  0  0  0  0  0  0  0  0  0  0
   13.4569    1.2905    0.0000 C   0  0  0  0  0  0  0  0  0  0  0  0
   13.3463   -0.2055    0.0000 O   0  0  0  0  0  0  0  0  0  0  0  0
   14.9254    1.5963    0.0000 N   0  0  0  0  0  0  0  0  0  0  0  0
   15.9245    0.4775    0.0000 C   0  0  0  0  0  0  0  0  0  0  0  0
   16.4808   -0.9155    0.0000 C   0  0  0  0  0  0  0  0  0  0  0  0
   15.4158   -1.9718    0.0000 C   0  0  0  0  0  0  0  0  0  0  0  0
   17.3930    0.7834    0.0000 C   0  0  0  0  0  0  0  0  0  0  0  0
   17.8624    2.2081    0.0000 O   0  0  0  0  0  0  0  0  0  0  0  0
   18.3922   -0.3354    0.0000 N   0  0  0  0  0  0  0  0  0  0  0  0
   19.8846   -0.1847    0.0000 C   0  0  0  0  0  0  0  0  0  0  0  0
   20.4891   -1.5575    0.0000 C   0  0  0  0  0  0  0  0  0  0  0  0
   19.3703   -2.5566    0.0000 C   0  0  0  0  0  0  0  0  0  0  0  0
   18.0743   -1.8013    0.0000 C   0  0  0  0  0  0  0  0  0  0  0  0
   17.4586   -3.1691    0.0000 C   0  0  0  0  0  0  0  0  0  0  0  0
   18.1804   -4.4841    0.0000 O   0  0  0  0  0  0  0  0  0  0  0  0
   15.9662   -3.3199    0.0000 N   0  0  0  0  0  0  0  0  0  0  0  0
   15.3505   -4.6877    0.0000 C   0  0  0  0  0  0  0  0  0  0  0  0
   15.2398   -6.1836    0.0000 C   0  0  0  0  0  0  0  0  0  0  0  0
   13.8889   -6.8356    0.0000 C   0  0  0  0  0  0  0  0  0  0  0  0
   12.6488   -5.9918    0.0000 C   0  0  0  0  0  0  0  0  0  0  0  0
   11.2979   -6.6438    0.0000 C   0  0  0  0  0  0  0  0  0  0  0  0
   11.1872   -8.1397    0.0000 C   0  0  0  0  0  0  0  0  0  0  0  0
    9.8363   -8.7918    0.0000 O   0  0  0  0  0  0  0  0  0  0  0  0
   12.4273   -8.9836    0.0000 C   0  0  0  0  0  0  0  0  0  0  0  0
   13.7782   -8.3315    0.0000 C   0  0  0  0  0  0  0  0  0  0  0  0
   13.8581   -4.8384    0.0000 C   0  0  0  0  0  0  0  0  0  0  0  0
   13.3020   -3.4453    0.0000 O   0  0  0  0  0  0  0  0  0  0  0  0
   13.2424   -6.2062    0.0000 N   0  0  0  0  0  0  0  0  0  0  0  0
   11.7500   -6.3569    0.0000 C   0  0  0  0  0  0  0  0  0  0  0  0
   10.2961   -5.9881    0.0000 C   0  0  0  0  0  0  0  0  0  0  0  0
    9.8885   -4.5445    0.0000 C   0  0  0  0  0  0  0  0  0  0  0  0
   10.9349   -3.4698    0.0000 C   0  0  0  0  0  0  0  0  0  0  0  0
   10.5273   -2.0262    0.0000 C   0  0  0  0  0  0  0  0  0  0  0  0
    9.0734   -1.6574    0.0000 C   0  0  0  0  0  0  0  0  0  0  0  0
    8.0270   -2.7321    0.0000 C   0  0  0  0  0  0  0  0  0  0  0  0
    8.4345   -4.1757    0.0000 C   0  0  0  0  0  0  0  0  0  0  0  0
   11.1343   -7.7247    0.0000 C   0  0  0  0  0  0  0  0  0  0  0  0
   11.6905   -9.1178    0.0000 O   0  0  0  0  0  0  0  0  0  0  0  0
    9.6419   -7.8754    0.0000 N   0  0  0  0  0  0  0  0  0  0  0  0
    9.0262   -9.2432    0.0000 C   0  0  0  0  0  0  0  0  0  0  0  0
    8.9155  -10.7391    0.0000 C   0  0  0  0  0  0  0  0  0  0  0  0
    7.5646  -11.3912    0.0000 C   0  0  0  0  0  0  0  0  0  0  0  0
    7.4539  -12.8871    0.0000 C   0  0  0  0  0  0  0  0  0  0  0  0
    6.1926  -13.6990    0.0000 O   0  0  0  0  0  0  0  0  0  0  0  0
    8.6940  -13.7310    0.0000 O   0  0  0  0  0  0  0  0  0  0  0  0
    7.5338   -9.3939    0.0000 C   0  0  0  0  0  0  0  0  0  0  0  0
    6.6571   -8.1768    0.0000 O   0  0  0  0  0  0  0  0  0  0  0  0
    6.9181  -10.7618    0.0000 N   0  0  0  0  0  0  0  0  0  0  0  0
    5.4257  -10.9125    0.0000 C   0  0  0  0  0  0  0  0  0  0  0  0
    3.9718  -10.5437    0.0000 C   0  0  0  0  0  0  0  0  0  0  0  0
    3.5642   -9.1001    0.0000 C   0  0  0  0  0  0  0  0  0  0  0  0
    2.1102   -8.7313    0.0000 C   0  0  0  0  0  0  0  0  0  0  0  0
    3.6749   -7.6042    0.0000 C   0  0  0  0  0  0  0  0  0  0  0  0
    4.8100  -12.2803    0.0000 C   0  0  0  0  0  0  0  0  0  0  0  0
    3.3471  -12.6118    0.0000 O   0  0  0  0  0  0  0  0  0  0  0  0
    5.5318  -13.5952    0.0000 O   0  0  0  0  0  0  0  0  0  0  0  0
  -25.3052   -2.3324    0.0000 H   0  0  0  0  0  0  0  0  0  0  0  0
  -26.0708    2.0944    0.0000 H   0  0  0  0  0  0  0  0  0  0  0  0
  -28.8421    3.2434    0.0000 H   0  0  0  0  0  0  0  0  0  0  0  0
  -27.7069   -2.6141    0.0000 H   0  0  0  0  0  0  0  0  0  0  0  0
  -34.3719   -5.2392    0.0000 H   0  0  0  0  0  0  0  0  0  0  0  0
  -36.1048   -0.3405    0.0000 H   0  0  0  0  0  0  0  0  0  0  0  0
  -33.2765    0.6600    0.0000 H   0  0  0  0  0  0  0  0  0  0  0  0
  -37.7928   -2.3155    0.0000 H   0  0  0  0  0  0  0  0  0  0  0  0
  -28.1677   -0.2887    0.0000 H   0  0  0  0  0  0  0  0  0  0  0  0
  -25.8367   -2.4139    0.0000 H   0  0  0  0  0  0  0  0  0  0  0  0
  -29.2631   -6.1878    0.0000 H   0  0  0  0  0  0  0  0  0  0  0  0
  -26.7087   -6.6622    0.0000 H   0  0  0  0  0  0  0  0  0  0  0  0
  -22.9090   -2.0291    0.0000 H   0  0  0  0  0  0  0  0  0  0  0  0
  -21.1076    1.6357    0.0000 H   0  0  0  0  0  0  0  0  0  0  0  0
  -23.0195    1.3847    0.0000 H   0  0  0  0  0  0  0  0  0  0  0  0
  -19.4228   -1.2174    0.0000 H   0  0  0  0  0  0  0  0  0  0  0  0
  -21.3347   -1.4684    0.0000 H   0  0  0  0  0  0  0  0  0  0  0  0
  -17.7571   -1.3526    0.0000 H   0  0  0  0  0  0  0  0  0  0  0  0
  -17.8676    2.0611    0.0000 H   0  0  0  0  0  0  0  0  0  0  0  0
  -15.6305    3.7765    0.0000 H   0  0  0  0  0  0  0  0  0  0  0  0
  -17.3413    2.8867    0.0000 H   0  0  0  0  0  0  0  0  0  0  0  0
  -13.6507    3.5111    0.0000 H   0  0  0  0  0  0  0  0  0  0  0  0
  -14.1986    2.8856    0.0000 H   0  0  0  0  0  0  0  0  0  0  0  0
  -13.6068   -0.4537    0.0000 H   0  0  0  0  0  0  0  0  0  0  0  0
  -10.3896   -0.9417    0.0000 H   0  0  0  0  0  0  0  0  0  0  0  0
  -10.6064    0.8295    0.0000 H   0  0  0  0  0  0  0  0  0  0  0  0
  -10.9145   -2.6807    0.0000 H   0  0  0  0  0  0  0  0  0  0  0  0
   -9.8494   -0.3030    0.0000 H   0  0  0  0  0  0  0  0  0  0  0  0
  -10.1397    3.0759    0.0000 H   0  0  0  0  0  0  0  0  0  0  0  0
   -7.9026    4.7913    0.0000 H   0  0  0  0  0  0  0  0  0  0  0  0
   -9.6134    3.9014    0.0000 H   0  0  0  0  0  0  0  0  0  0  0  0
   -5.9228    4.5258    0.0000 H   0  0  0  0  0  0  0  0  0  0  0  0
   -5.3436    2.6865    0.0000 H   0  0  0  0  0  0  0  0  0  0  0  0
   -6.3287    1.8154    0.0000 H   0  0  0  0  0  0  0  0  0  0  0  0
   -6.4707    3.9003    0.0000 H   0  0  0  0  0  0  0  0  0  0  0  0
   -5.8789    0.5610    0.0000 H   0  0  0  0  0  0  0  0  0  0  0  0
   -2.6617    0.0730    0.0000 H   0  0  0  0  0  0  0  0  0  0  0  0
   -2.8785    1.8442    0.0000 H   0  0  0  0  0  0  0  0  0  0  0  0
   -6.9438   -0.2314    0.0000 H   0  0  0  0  0  0  0  0  0  0  0  0
   -7.4788   -3.0177    0.0000 H   0  0  0  0  0  0  0  0  0  0  0  0
   -5.2676   -5.0452    0.0000 H   0  0  0  0  0  0  0  0  0  0  0  0
   -2.4062   -4.1441    0.0000 H   0  0  0  0  0  0  0  0  0  0  0  0
   -1.7558   -1.2154    0.0000 H   0  0  0  0  0  0  0  0  0  0  0  0
   -2.1215    0.7118    0.0000 H   0  0  0  0  0  0  0  0  0  0  0  0
   -2.4118    4.0906    0.0000 H   0  0  0  0  0  0  0  0  0  0  0  0
   -0.1747    5.8060    0.0000 H   0  0  0  0  0  0  0  0  0  0  0  0
   -1.8855    4.9161    0.0000 H   0  0  0  0  0  0  0  0  0  0  0  0
    0.6024    1.9129    0.0000 H   0  0  0  0  0  0  0  0  0  0  0  0
    4.1830    1.7553    0.0000 H   0  0  0  0  0  0  0  0  0  0  0  0
    6.1865    2.7471    0.0000 H   0  0  0  0  0  0  0  0  0  0  0  0
    4.3921    6.5067    0.0000 H   0  0  0  0  0  0  0  0  0  0  0  0
    0.8115    6.6642    0.0000 H   0  0  0  0  0  0  0  0  0  0  0  0
    1.2572    4.9150    0.0000 H   0  0  0  0  0  0  0  0  0  0  0  0
    1.6584    1.1965    0.0000 H   0  0  0  0  0  0  0  0  0  0  0  0
    2.3991    0.1181    0.0000 H   0  0  0  0  0  0  0  0  0  0  0  0
    2.6734   -0.4433    0.0000 H   0  0  0  0  0  0  0  0  0  0  0  0
    3.5230   -1.2050    0.0000 H   0  0  0  0  0  0  0  0  0  0  0  0
    4.0103   -1.5696    0.0000 H   0  0  0  0  0  0  0  0  0  0  0  0
    5.3461   -2.1850    0.0000 H   0  0  0  0  0  0  0  0  0  0  0  0
    6.1719   -2.6204    0.0000 H   0  0  0  0  0  0  0  0  0  0  0  0
    1.5406    0.3140    0.0000 H   0  0  0  0  0  0  0  0  0  0  0  0
    0.3670    0.9070    0.0000 H   0  0  0  0  0  0  0  0  0  0  0  0
    0.4612    2.8331    0.0000 H   0  0  0  0  0  0  0  0  0  0  0  0
    1.6360    6.3950    0.0000 H   0  0  0  0  0  0  0  0  0  0  0  0
    2.3287    7.2658    0.0000 H   0  0  0  0  0  0  0  0  0  0  0  0
    3.5017    9.9889    0.0000 H   0  0  0  0  0  0  0  0  0  0  0  0
    4.8075    9.0069    0.0000 H   0  0  0  0  0  0  0  0  0  0  0  0
    2.5689   11.3755    0.0000 H   0  0  0  0  0  0  0  0  0  0  0  0
   -0.3426   12.0987    0.0000 H   0  0  0  0  0  0  0  0  0  0  0  0
   -3.4656    8.8588    0.0000 H   0  0  0  0  0  0  0  0  0  0  0  0
   -1.5951    7.0557    0.0000 H   0  0  0  0  0  0  0  0  0  0  0  0
    0.9553    6.2751    0.0000 H   0  0  0  0  0  0  0  0  0  0  0  0
    5.7826   10.0071    0.0000 H   0  0  0  0  0  0  0  0  0  0  0  0
    7.0693   10.0655    0.0000 H   0  0  0  0  0  0  0  0  0  0  0  0
    9.9298   10.8462    0.0000 H   0  0  0  0  0  0  0  0  0  0  0  0
    9.9761    9.2130    0.0000 H   0  0  0  0  0  0  0  0  0  0  0  0
   10.4323   12.4400    0.0000 H   0  0  0  0  0  0  0  0  0  0  0  0
    9.1823   15.1672    0.0000 H   0  0  0  0  0  0  0  0  0  0  0  0
    6.1955   15.4483    0.0000 H   0  0  0  0  0  0  0  0  0  0  0  0
    4.4587   13.0022    0.0000 H   0  0  0  0  0  0  0  0  0  0  0  0
    5.5660   10.3900    0.0000 H   0  0  0  0  0  0  0  0  0  0  0  0
   11.3661    9.0743    0.0000 H   0  0  0  0  0  0  0  0  0  0  0  0
   12.2140    8.1046    0.0000 H   0  0  0  0  0  0  0  0  0  0  0  0
   14.6078    6.3550    0.0000 H   0  0  0  0  0  0  0  0  0  0  0  0
   13.3598    5.3005    0.0000 H   0  0  0  0  0  0  0  0  0  0  0  0
   11.7195    9.8703    0.0000 H   0  0  0  0  0  0  0  0  0  0  0  0
   13.9801   12.0067    0.0000 H   0  0  0  0  0  0  0  0  0  0  0  0
   16.8928   10.5350    0.0000 H   0  0  0  0  0  0  0  0  0  0  0  0
   14.1348    3.9449    0.0000 H   0  0  0  0  0  0  0  0  0  0  0  0
   12.4739   -0.3252    0.0000 H   0  0  0  0  0  0  0  0  0  0  0  0
   13.3065    0.6840    0.0000 H   0  0  0  0  0  0  0  0  0  0  0  0
   11.7338   -1.3135    0.0000 H   0  0  0  0  0  0  0  0  0  0  0  0
   12.2354   -0.6976    0.0000 H   0  0  0  0  0  0  0  0  0  0  0  0
    8.9856   -2.2557    0.0000 H   0  0  0  0  0  0  0  0  0  0  0  0
   10.9249   -1.5615    0.0000 H   0  0  0  0  0  0  0  0  0  0  0  0
    8.6507   -2.6695    0.0000 H   0  0  0  0  0  0  0  0  0  0  0  0
   15.2065    2.1437    0.0000 H   0  0  0  0  0  0  0  0  0  0  0  0
   14.9587    3.9109    0.0000 H   0  0  0  0  0  0  0  0  0  0  0  0
   13.5389    4.3185    0.0000 H   0  0  0  0  0  0  0  0  0  0  0  0
   15.5649    2.9532    0.0000 H   0  0  0  0  0  0  0  0  0  0  0  0
   14.5625   -0.1508    0.0000 H   0  0  0  0  0  0  0  0  0  0  0  0
   17.1795   -2.2428    0.0000 H   0  0  0  0  0  0  0  0  0  0  0  0
   17.9093   -0.4579    0.0000 H   0  0  0  0  0  0  0  0  0  0  0  0
   15.7551   -3.5800    0.0000 H   0  0  0  0  0  0  0  0  0  0  0  0
   14.2772   -2.8834    0.0000 H   0  0  0  0  0  0  0  0  0  0  0  0
   14.4244   -1.1051    0.0000 H   0  0  0  0  0  0  0  0  0  0  0  0
   19.5787    1.2838    0.0000 H   0  0  0  0  0  0  0  0  0  0  0  0
   21.3130    0.2730    0.0000 H   0  0  0  0  0  0  0  0  0  0  0  0
   21.7912   -0.8128    0.0000 H   0  0  0  0  0  0  0  0  0  0  0  0
   21.3658   -2.7746    0.0000 H   0  0  0  0  0  0  0  0  0  0  0  0
   20.4809   -3.5649    0.0000 H   0  0  0  0  0  0  0  0  0  0  0  0
   18.6378   -3.8656    0.0000 H   0  0  0  0  0  0  0  0  0  0  0  0
   16.5784   -1.6907    0.0000 H   0  0  0  0  0  0  0  0  0  0  0  0
   14.9477   -2.2187    0.0000 H   0  0  0  0  0  0  0  0  0  0  0  0
   16.8045   -5.0565    0.0000 H   0  0  0  0  0  0  0  0  0  0  0  0
   15.6474   -7.6271    0.0000 H   0  0  0  0  0  0  0  0  0  0  0  0
   16.7322   -6.0329    0.0000 H   0  0  0  0  0  0  0  0  0  0  0  0
   12.7595   -4.4959    0.0000 H   0  0  0  0  0  0  0  0  0  0  0  0
    9.8905   -6.1251    0.0000 H   0  0  0  0  0  0  0  0  0  0  0  0
    9.9088  -10.2900    0.0000 H   0  0  0  0  0  0  0  0  0  0  0  0
   12.3166  -10.4795    0.0000 H   0  0  0  0  0  0  0  0  0  0  0  0
   15.0183   -9.1754    0.0000 H   0  0  0  0  0  0  0  0  0  0  0  0
   13.7986   -7.5993    0.0000 H   0  0  0  0  0  0  0  0  0  0  0  0
   11.8608   -4.8610    0.0000 H   0  0  0  0  0  0  0  0  0  0  0  0
    8.7964   -5.9557    0.0000 H   0  0  0  0  0  0  0  0  0  0  0  0
    9.8266   -7.4127    0.0000 H   0  0  0  0  0  0  0  0  0  0  0  0
   12.4349   -3.4758    0.0000 H   0  0  0  0  0  0  0  0  0  0  0  0
   11.8027   -1.2366    0.0000 H   0  0  0  0  0  0  0  0  0  0  0  0
    8.6658   -0.2138    0.0000 H   0  0  0  0  0  0  0  0  0  0  0  0
    6.5389   -2.5433    0.0000 H   0  0  0  0  0  0  0  0  0  0  0  0
    7.3882   -5.2504    0.0000 H   0  0  0  0  0  0  0  0  0  0  0  0
    8.6234   -6.7743    0.0000 H   0  0  0  0  0  0  0  0  0  0  0  0
   10.4802   -9.6121    0.0000 H   0  0  0  0  0  0  0  0  0  0  0  0
    9.3231  -12.1827    0.0000 H   0  0  0  0  0  0  0  0  0  0  0  0
   10.4151  -10.7715    0.0000 H   0  0  0  0  0  0  0  0  0  0  0  0
    6.0722  -11.5419    0.0000 H   0  0  0  0  0  0  0  0  0  0  0  0
    6.5269  -10.3081    0.0000 H   0  0  0  0  0  0  0  0  0  0  0  0
    8.5833  -15.2269    0.0000 H   0  0  0  0  0  0  0  0  0  0  0  0
    7.4743  -12.1548    0.0000 H   0  0  0  0  0  0  0  0  0  0  0  0
    5.7180   -9.4412    0.0000 H   0  0  0  0  0  0  0  0  0  0  0  0
    2.5089  -10.8752    0.0000 H   0  0  0  0  0  0  0  0  0  0  0  0
    3.6795  -12.0149    0.0000 H   0  0  0  0  0  0  0  0  0  0  0  0
    5.0271   -8.7686    0.0000 H   0  0  0  0  0  0  0  0  0  0  0  0
    1.5297   -7.3481    0.0000 H   0  0  0  0  0  0  0  0  0  0  0  0
    0.6178   -8.8820    0.0000 H   0  0  0  0  0  0  0  0  0  0  0  0
    1.8180  -10.2025    0.0000 H   0  0  0  0  0  0  0  0  0  0  0  0
    2.5469   -6.6154    0.0000 H   0  0  0  0  0  0  0  0  0  0  0  0
    4.2906   -6.2364    0.0000 H   0  0  0  0  0  0  0  0  0  0  0  0
    5.1289   -7.9730    0.0000 H   0  0  0  0  0  0  0  0  0  0  0  0
    5.0711  -14.8652    0.0000 H   0  0  0  0  0  0  0  0  0  0  0  0
  1  2  1  0
  2  3  1  0
  3  4  2  0
  4  5  1  0
  5  6  2  0
  6  7  1  0
  7  8  2  0
  7  9  1  0
  9 10  1  0
 10 11  1  0
 11 12  2  0
  9 13  1  0
 13 14  1  0
 14 15  2  0
 15 16  1  0
 16 17  2  0
 17 18  1  0
 16 19  1  0
 14 20  1  0
 20 21  1  0
 21 22  2  0
 22 23  1  0
 23 24  2  0
 24 25  1  0
 25 26  2  0
 25 27  1  0
  1 28  2  0
  1 29  1  0
 29 30  1  0
 30 31  1  0
 31 32  1  0
 32 33  2  0
 32 34  1  0
 34 35  1  0
 35 36  1  0
 36 37  1  0
 35 38  1  0
 38 39  2  0
 38 40  1  0
 40 41  1  0
 41 42  1  0
 42 43  1  0
 41 44  1  0
 44 45  2  0
 44 46  1  0
 46 47  1  0
 47 48  1  0
 48 49  1  0
 47 50  1  0
 50 51  2  0
 50 52  1  0
 52 53  1  0
 53 54  1  0
 54 55  1  0
 55 56  2  0
 56 57  1  0
 57 58  2  0
 58 59  1  0
 59 60  2  0
 53 61  1  0
 61 62  2  0
 61 63  1  0
 63 64  1  0
 64 65  1  0
 65 66  1  0
 66 67  2  0
 67 68  1  0
 68 69  2  0
 69 70  1  0
 69 71  1  0
 71 72  2  0
 64 73  1  0
 73 74  2  0
 73 75  1  0
 76 75  1  6
 76 77  1  0
 77 78  1  0
 78 79  1  0
 79 80  1  0
 76 81  1  0
 76 82  1  0
 82 83  2  0
 82 84  1  0
 84 85  1  0
 85 86  1  0
 86 87  1  0
 87 88  2  0
 88 89  1  0
 89 90  2  0
 90 91  1  0
 90 92  1  0
 92 93  2  0
 85 94  1  0
 94 95  2  0
 94 96  1  0
 96 97  1  0
 97 98  1  0
 98 99  1  0
 99100  2  0
100101  1  0
101102  2  0
102103  1  0
103104  2  0
 97105  1  0
105106  2  0
105107  1  0
107108  1  0
108109  1  0
109110  1  0
110111  2  0
111112  1  0
112113  1  0
113114  2  0
108115  1  0
115116  2  0
115117  1  0
117118  1  0
118119  1  0
119120  1  0
120121  1  0
121122  1  0
118123  1  0
118124  1  6
124125  2  0
124126  1  0
126127  1  0
127128  1  0
128129  1  0
127130  1  0
130131  2  0
130132  1  0
132133  1  0
133134  1  0
134135  1  0
135136  1  0
136137  1  0
137138  2  0
137139  1  0
139140  1  0
140141  1  0
141142  1  0
142143  2  0
143144  1  0
144145  2  0
145146  1  0
145147  1  0
147148  2  0
140149  1  0
149150  2  0
149151  1  0
151152  1  0
152153  1  0
153154  1  0
154155  2  0
155156  1  0
156157  2  0
157158  1  0
158159  2  0
152160  1  0
160161  2  0
160162  1  0
162163  1  0
163164  1  0
164165  1  0
165166  1  0
166167  2  0
166168  1  0
163169  1  0
169170  2  0
169171  1  0
171172  1  0
172173  1  0
173174  1  0
174175  1  0
174176  1  0
172177  1  0
177178  2  0
177179  1  0
  8  3  1  0
 60 55  1  0
 72 66  1  0
 93 87  1  0
104 99  1  0
114110  1  0
136132  1  0
148142  1  0
159154  1  0
 11  6  1  0
 80122  2  0
 18 13  2  0
 22  9  1  0
 26 21  1  0
  2180  1  0
  4181  1  0
  5182  1  0
  8183  1  0
 15184  1  0
 17185  1  0
 18186  1  0
 19187  1  0
 23188  1  0
 24189  1  0
 26190  1  0
 27191  1  0
 29192  1  0
 30193  1  0
 30194  1  0
 31195  1  0
 31196  1  0
 34197  1  0
 35198  1  1
 36199  1  0
 36200  1  0
 37201  1  0
 40202  1  0
 41203  1  6
 42204  1  0
 42205  1  0
 43206  1  0
 46207  1  0
 47208  1  1
 48209  1  0
 48210  1  0
 49211  1  0
 49212  1  0
 49213  1  0
 52214  1  0
 53215  1  6
 54216  1  0
 54217  1  0
 56218  1  0
 57219  1  0
 58220  1  0
 59221  1  0
 60222  1  0
 63223  1  0
 64224  1  1
 65225  1  0
 65226  1  0
 67227  1  0
 68228  1  0
 70229  1  0
 71230  1  0
 72231  1  0
 75232  1  0
 77233  1  0
 77234  1  0
 78235  1  0
 78236  1  0
 79237  1  0
 79238  1  0
 80239  1  0
 81240  1  0
 81241  1  0
 81242  1  0
 84243  1  0
 85244  1  1
 86245  1  0
 86246  1  0
 88247  1  0
 89248  1  0
 91249  1  0
 92250  1  0
 93251  1  0
 96252  1  0
 97253  1  1
 98254  1  0
 98255  1  0
100256  1  0
101257  1  0
102258  1  0
103259  1  0
104260  1  0
107261  1  0
108262  1  1
109263  1  0
109264  1  0
111265  1  0
112266  1  0
113267  1  0
117268  1  0
119269  1  0
119270  1  0
120271  1  0
120272  1  0
121273  1  0
121274  1  0
122275  1  0
123276  1  0
123277  1  0
123278  1  0
126279  1  0
127280  1  6
128281  1  0
128282  1  0
129283  1  0
129284  1  0
129285  1  0
133286  1  0
133287  1  0
134288  1  0
134289  1  0
135290  1  0
135291  1  0
136292  1  0
139293  1  0
140294  1  1
141295  1  0
141296  1  0
143297  1  0
144298  1  0
146299  1  0
147300  1  0
148301  1  0
151302  1  0
152303  1  6
153304  1  0
153305  1  0
155306  1  0
156307  1  0
157308  1  0
158309  1  0
159310  1  0
162311  1  0
163312  1  1
164313  1  0
164314  1  0
165315  1  0
165316  1  0
168317  1  0
171318  1  0
172319  1  6
173320  1  0
173321  1  0
174322  1  0
175323  1  0
175324  1  0
175325  1  0
176326  1  0
176327  1  0
176328  1  0
179329  1  0
M  END
