
     RDKit          2D

323331  0  0  0  0  0  0  0  0999 V2000
  -26.0343    0.4054    0.0000 C   0  0  0  0  0  0  0  0  0  0  0  0
  -27.3279   -0.3538    0.0000 N   0  0  0  0  0  0  0  0  0  0  0  0
  -28.6323    0.3869    0.0000 C   0  0  0  0  0  0  0  0  0  0  0  0
  -28.6429    1.8869    0.0000 C   0  0  0  0  0  0  0  0  0  0  0  0
  -29.9473    2.6276    0.0000 C   0  0  0  0  0  0  0  0  0  0  0  0
  -31.2409    1.8684    0.0000 C   0  0  0  0  0  0  0  0  0  0  0  0
  -31.2303    0.3684    0.0000 C   0  0  0  0  0  0  0  0  0  0  0  0
  -29.9260   -0.3723    0.0000 C   0  0  0  0  0  0  0  0  0  0  0  0
  -32.6535   -0.1052    0.0000 C   0  0  0  0  0  0  0  0  0  0  0  0
  -33.5438    1.1020    0.0000 O   0  0  0  0  0  0  0  0  0  0  0  0
  -32.6708    2.3218    0.0000 C   0  0  0  0  0  0  0  0  0  0  0  0
  -33.1444    3.7450    0.0000 O   0  0  0  0  0  0  0  0  0  0  0  0
  -34.1185   -0.4275    0.0000 C   0  0  0  0  0  0  0  0  0  0  0  0
  -34.5719   -1.8573    0.0000 C   0  0  0  0  0  0  0  0  0  0  0  0
  -36.0369   -2.1796    0.0000 C   0  0  0  0  0  0  0  0  0  0  0  0
  -37.0484   -1.0721    0.0000 C   0  0  0  0  0  0  0  0  0  0  0  0
  -36.5951    0.3578    0.0000 C   0  0  0  0  0  0  0  0  0  0  0  0
  -35.1301    0.6801    0.0000 C   0  0  0  0  0  0  0  0  0  0  0  0
  -38.5134   -1.3944    0.0000 O   0  0  0  0  0  0  0  0  0  0  0  0
  -33.5603   -2.9649    0.0000 O   0  0  0  0  0  0  0  0  0  0  0  0
  -32.0953   -2.6426    0.0000 C   0  0  0  0  0  0  0  0  0  0  0  0
  -31.6419   -1.2128    0.0000 C   0  0  0  0  0  0  0  0  0  0  0  0
  -30.3886   -1.5577    0.0000 C   0  0  0  0  0  0  0  0  0  0  0  0
  -29.8490   -2.1484    0.0000 C   0  0  0  0  0  0  0  0  0  0  0  0
  -30.0908   -2.9110    0.0000 C   0  0  0  0  0  0  0  0  0  0  0  0
  -30.8722   -3.0829    0.0000 C   0  0  0  0  0  0  0  0  0  0  0  0
  -28.6072   -4.5354    0.0000 O   0  0  0  0  0  0  0  0  0  0  0  0
  -26.0449    1.9053    0.0000 S   0  0  0  0  0  0  0  0  0  0  0  0
  -24.7299   -0.3354    0.0000 N   0  0  0  0  0  0  0  0  0  0  0  0
  -23.4363    0.4238    0.0000 C   0  0  0  0  0  0  0  0  0  0  0  0
  -22.1319   -0.3169    0.0000 C   0  0  0  0  0  0  0  0  0  0  0  0
  -20.8382    0.4423    0.0000 C   0  0  0  0  0  0  0  0  0  0  0  0
  -20.8489    1.9423    0.0000 O   0  0  0  0  0  0  0  0  0  0  0  0
  -19.5339   -0.2985    0.0000 N   0  0  0  0  0  0  0  0  0  0  0  0
  -18.2402    0.4608    0.0000 C   0  0  0  0  0  0  0  0  0  0  0  0
  -17.2842    1.6166    0.0000 C   0  0  0  0  0  0  0  0  0  0  0  0
  -15.8052    1.3667    0.0000 C   0  0  0  0  0  0  0  0  0  0  0  0
  -14.8492    2.5226    0.0000 C   0  0  0  0  0  0  0  0  0  0  0  0
  -13.3702    2.2726    0.0000 C   0  0  0  0  0  0  0  0  0  0  0  0
  -12.4142    3.4285    0.0000 N   0  0  0  0  0  0  0  0  0  0  0  0
  -16.9359   -0.2800    0.0000 C   0  0  0  0  0  0  0  0  0  0  0  0
  -16.9252   -1.7800    0.0000 O   0  0  0  0  0  0  0  0  0  0  0  0
  -15.6422    0.4792    0.0000 N   0  0  0  0  0  0  0  0  0  0  0  0
  -14.3379   -0.2615    0.0000 C   0  0  0  0  0  0  0  0  0  0  0  0
  -13.3656   -1.4037    0.0000 C   0  0  0  0  0  0  0  0  0  0  0  0
  -13.8686   -2.8169    0.0000 C   0  0  0  0  0  0  0  0  0  0  0  0
  -12.8962   -3.9591    0.0000 C   0  0  0  0  0  0  0  0  0  0  0  0
  -13.3992   -5.3722    0.0000 N   0  0  0  0  0  0  0  0  0  0  0  0
  -11.4209   -3.6881    0.0000 O   0  0  0  0  0  0  0  0  0  0  0  0
  -13.0442    0.4977    0.0000 C   0  0  0  0  0  0  0  0  0  0  0  0
  -12.7586    1.6786    0.0000 O   0  0  0  0  0  0  0  0  0  0  0  0
  -11.7399   -0.2431    0.0000 N   0  0  0  0  0  0  0  0  0  0  0  0
  -10.4462    0.5161    0.0000 C   0  0  0  0  0  0  0  0  0  0  0  0
   -9.4902    1.6720    0.0000 C   0  0  0  0  0  0  0  0  0  0  0  0
   -8.0112    1.4221    0.0000 C   0  0  0  0  0  0  0  0  0  0  0  0
   -7.0552    2.5780    0.0000 C   0  0  0  0  0  0  0  0  0  0  0  0
   -5.5762    2.3280    0.0000 C   0  0  0  0  0  0  0  0  0  0  0  0
   -4.6202    3.4839    0.0000 N   0  0  0  0  0  0  0  0  0  0  0  0
   -9.1419   -0.2246    0.0000 C   0  0  0  0  0  0  0  0  0  0  0  0
   -9.1312   -1.7246    0.0000 O   0  0  0  0  0  0  0  0  0  0  0  0
   -7.8482    0.5346    0.0000 N   0  0  0  0  0  0  0  0  0  0  0  0
   -6.5439   -0.2061    0.0000 C   0  0  0  0  0  0  0  0  0  0  0  0
   -5.5715   -1.3483    0.0000 C   0  0  0  0  0  0  0  0  0  0  0  0
   -6.0745   -2.7615    0.0000 C   0  0  0  0  0  0  0  0  0  0  0  0
   -5.1022   -3.9037    0.0000 C   0  0  0  0  0  0  0  0  0  0  0  0
   -5.6052   -5.3168    0.0000 N   0  0  0  0  0  0  0  0  0  0  0  0
   -4.6329   -6.4590    0.0000 C   0  0  0  0  0  0  0  0  0  0  0  0
   -5.1359   -7.8721    0.0000 N   0  0  0  0  0  0  0  0  0  0  0  0
   -3.1576   -6.1880    0.0000 N   0  0  0  0  0  0  0  0  0  0  0  0
   -5.2502    0.5531    0.0000 C   0  0  0  0  0  0  0  0  0  0  0  0
   -4.9646    1.7340    0.0000 O   0  0  0  0  0  0  0  0  0  0  0  0
   -3.9458   -0.1877    0.0000 N   0  0  0  0  0  0  0  0  0  0  0  0
   -2.6522    0.5715    0.0000 C   0  0  0  0  0  0  0  0  0  0  0  0
   -1.6962    1.7274    0.0000 C   0  0  0  0  0  0  0  0  0  0  0  0
   -0.2172    1.4775    0.0000 C   0  0  0  0  0  0  0  0  0  0  0  0
    0.7388    2.6333    0.0000 C   0  0  0  0  0  0  0  0  0  0  0  0
    2.2179    2.3834    0.0000 C   0  0  0  0  0  0  0  0  0  0  0  0
    3.1739    3.5393    0.0000 N   0  0  0  0  0  0  0  0  0  0  0  0
   -1.3478   -0.1692    0.0000 C   0  0  0  0  0  0  0  0  0  0  0  0
   -1.5201   -1.6593    0.0000 O   0  0  0  0  0  0  0  0  0  0  0  0
   -0.0542    0.5900    0.0000 N   0  0  0  0  0  0  0  0  0  0  0  0
    1.2502   -0.1508    0.0000 C   0  0  0  0  0  0  0  0  0  0  0  0
    2.2225   -1.2929    0.0000 C   0  0  0  0  0  0  0  0  0  0  0  0
    1.7195   -2.7061    0.0000 C   0  0  0  0  0  0  0  0  0  0  0  0
    0.2442   -2.9771    0.0000 C   0  0  0  0  0  0  0  0  0  0  0  0
   -0.2588   -4.3902    0.0000 C   0  0  0  0  0  0  0  0  0  0  0  0
    0.7135   -5.5324    0.0000 C   0  0  0  0  0  0  0  0  0  0  0  0
    2.1888   -5.2614    0.0000 C   0  0  0  0  0  0  0  0  0  0  0  0
    2.6918   -3.8483    0.0000 C   0  0  0  0  0  0  0  0  0  0  0  0
    2.5439    0.6085    0.0000 C   0  0  0  0  0  0  0  0  0  0  0  0
    2.8295    1.7894    0.0000 O   0  0  0  0  0  0  0  0  0  0  0  0
    3.8482   -0.1323    0.0000 N   0  0  0  0  0  0  0  0  0  0  0  0
    5.1419    0.6269    0.0000 C   0  0  0  0  0  0  0  0  0  0  0  0
    6.0979    1.7828    0.0000 C   0  0  0  0  0  0  0  0  0  0  0  0
    7.5211    2.2566    0.0000 O   0  0  0  0  0  0  0  0  0  0  0  0
    6.4462   -0.1138    0.0000 C   0  0  0  0  0  0  0  0  0  0  0  0
    6.2739   -1.6039    0.0000 O   0  0  0  0  0  0  0  0  0  0  0  0
    7.7399    0.6454    0.0000 N   0  0  0  0  0  0  0  0  0  0  0  0
    9.0442   -0.0954    0.0000 C   0  0  0  0  0  0  0  0  0  0  0  0
    9.3519   -1.5635    0.0000 C   0  0  0  0  0  0  0  0  0  0  0  0
   10.0786   -2.8757    0.0000 C   0  0  0  0  0  0  0  0  0  0  0  0
   11.1598   -3.9154    0.0000 C   0  0  0  0  0  0  0  0  0  0  0  0
   12.4994   -4.5902    0.0000 C   0  0  0  0  0  0  0  0  0  0  0  0
    7.7338   -0.8253    0.0000 C   0  0  0  0  0  0  0  0  0  0  0  0
    9.1829    1.3982    0.0000 C   0  0  0  0  0  0  0  0  0  0  0  0
    8.4000    1.8124    0.0000 O   0  0  0  0  0  0  0  0  0  0  0  0
    9.7558    2.7845    0.0000 N   0  0  0  0  0  0  0  0  0  0  0  0
   10.7118    3.9404    0.0000 C   0  0  0  0  0  0  0  0  0  0  0  0
   10.4777    5.4220    0.0000 C   0  0  0  0  0  0  0  0  0  0  0  0
    9.0775    5.9601    0.0000 C   0  0  0  0  0  0  0  0  0  0  0  0
    8.8434    7.4417    0.0000 C   0  0  0  0  0  0  0  0  0  0  0  0
    7.4432    7.9798    0.0000 C   0  0  0  0  0  0  0  0  0  0  0  0
    6.2771    7.0363    0.0000 C   0  0  0  0  0  0  0  0  0  0  0  0
    6.5112    5.5546    0.0000 C   0  0  0  0  0  0  0  0  0  0  0  0
    7.9114    5.0166    0.0000 C   0  0  0  0  0  0  0  0  0  0  0  0
   11.9660    4.7632    0.0000 C   0  0  0  0  0  0  0  0  0  0  0  0
   11.3393    6.1260    0.0000 O   0  0  0  0  0  0  0  0  0  0  0  0
   13.4070    5.1797    0.0000 N   0  0  0  0  0  0  0  0  0  0  0  0
   14.9068    5.1529    0.0000 C   0  0  0  0  0  0  0  0  0  0  0  0
   15.9192    6.2597    0.0000 C   0  0  0  0  0  0  0  0  0  0  0  0
   15.4669    7.6899    0.0000 C   0  0  0  0  0  0  0  0  0  0  0  0
   16.4793    8.7967    0.0000 C   0  0  0  0  0  0  0  0  0  0  0  0
   16.0270   10.2269    0.0000 C   0  0  0  0  0  0  0  0  0  0  0  0
   14.5622   10.5503    0.0000 C   0  0  0  0  0  0  0  0  0  0  0  0
   13.5498    9.4435    0.0000 C   0  0  0  0  0  0  0  0  0  0  0  0
   14.0021    8.0133    0.0000 C   0  0  0  0  0  0  0  0  0  0  0  0
   16.3320    4.6853    0.0000 C   0  0  0  0  0  0  0  0  0  0  0  0
   17.0068    6.0250    0.0000 O   0  0  0  0  0  0  0  0  0  0  0  0
   17.5561    3.8184    0.0000 N   0  0  0  0  0  0  0  0  0  0  0  0
   18.4703    2.6292    0.0000 C   0  0  0  0  0  0  0  0  0  0  0  0
   19.9668    2.5277    0.0000 C   0  0  0  0  0  0  0  0  0  0  0  0
   20.8030    3.7730    0.0000 C   0  0  0  0  0  0  0  0  0  0  0  0
   22.2996    3.6716    0.0000 C   0  0  0  0  0  0  0  0  0  0  0  0
   23.1357    4.9169    0.0000 C   0  0  0  0  0  0  0  0  0  0  0  0
   24.6323    4.8154    0.0000 N   0  0  0  0  0  0  0  0  0  0  0  0
   18.9933    1.2233    0.0000 C   0  0  0  0  0  0  0  0  0  0  0  0
   20.4614    1.5310    0.0000 O   0  0  0  0  0  0  0  0  0  0  0  0
   19.0787   -0.2743    0.0000 N   0  0  0  0  0  0  0  0  0  0  0  0
   18.7189   -1.7305    0.0000 C   0  0  0  0  0  0  0  0  0  0  0  0
   17.9459   -3.0159    0.0000 C   0  0  0  0  0  0  0  0  0  0  0  0
   16.8283   -4.0164    0.0000 C   0  0  0  0  0  0  0  0  0  0  0  0
   15.4655   -4.6431    0.0000 C   0  0  0  0  0  0  0  0  0  0  0  0
   13.9785   -4.8402    0.0000 C   0  0  0  0  0  0  0  0  0  0  0  0
   20.1943   -1.4595    0.0000 C   0  0  0  0  0  0  0  0  0  0  0  0
   19.5727   -2.9638    0.0000 C   0  0  0  0  0  0  0  0  0  0  0  0
   19.2787   -4.4347    0.0000 O   0  0  0  0  0  0  0  0  0  0  0  0
   21.0677   -2.8411    0.0000 N   0  0  0  0  0  0  0  0  0  0  0  0
   21.9214   -4.0744    0.0000 C   0  0  0  0  0  0  0  0  0  0  0  0
   22.3019   -5.5253    0.0000 C   0  0  0  0  0  0  0  0  0  0  0  0
   21.2356   -6.5803    0.0000 C   0  0  0  0  0  0  0  0  0  0  0  0
   21.6160   -8.0313    0.0000 C   0  0  0  0  0  0  0  0  0  0  0  0
   19.8727   -7.2069    0.0000 C   0  0  0  0  0  0  0  0  0  0  0  0
   23.4164   -3.9517    0.0000 C   0  0  0  0  0  0  0  0  0  0  0  0
   24.0576   -2.5956    0.0000 O   0  0  0  0  0  0  0  0  0  0  0  0
   24.2702   -5.1850    0.0000 N   0  0  0  0  0  0  0  0  0  0  0  0
   25.7651   -5.0623    0.0000 C   0  0  0  0  0  0  0  0  0  0  0  0
   27.1280   -4.4356    0.0000 C   0  0  0  0  0  0  0  0  0  0  0  0
   28.3521   -5.3026    0.0000 C   0  0  0  0  0  0  0  0  0  0  0  0
   26.6189   -6.2956    0.0000 C   0  0  0  0  0  0  0  0  0  0  0  0
   28.1177   -6.3560    0.0000 O   0  0  0  0  0  0  0  0  0  0  0  0
   25.9777   -7.6516    0.0000 O   0  0  0  0  0  0  0  0  0  0  0  0
  -27.1345   -1.8413    0.0000 H   0  0  0  0  0  0  0  0  0  0  0  0
  -27.3493    2.6461    0.0000 H   0  0  0  0  0  0  0  0  0  0  0  0
  -29.9579    4.1276    0.0000 H   0  0  0  0  0  0  0  0  0  0  0  0
  -29.6538   -1.4314    0.0000 H   0  0  0  0  0  0  0  0  0  0  0  0
  -36.4902   -3.6095    0.0000 H   0  0  0  0  0  0  0  0  0  0  0  0
  -37.6067    1.4653    0.0000 H   0  0  0  0  0  0  0  0  0  0  0  0
  -34.6767    2.1099    0.0000 H   0  0  0  0  0  0  0  0  0  0  0  0
  -39.5250   -0.2868    0.0000 H   0  0  0  0  0  0  0  0  0  0  0  0
  -29.7236    0.5394    0.0000 H   0  0  0  0  0  0  0  0  0  0  0  0
  -27.6721   -1.8567    0.0000 H   0  0  0  0  0  0  0  0  0  0  0  0
  -31.5371   -5.1800    0.0000 H   0  0  0  0  0  0  0  0  0  0  0  0
  -29.0605   -5.9653    0.0000 H   0  0  0  0  0  0  0  0  0  0  0  0
  -24.7193   -1.8353    0.0000 H   0  0  0  0  0  0  0  0  0  0  0  0
  -22.4803    1.5797    0.0000 H   0  0  0  0  0  0  0  0  0  0  0  0
  -24.4086    1.5660    0.0000 H   0  0  0  0  0  0  0  0  0  0  0  0
  -21.1596   -1.4591    0.0000 H   0  0  0  0  0  0  0  0  0  0  0  0
  -23.0879   -1.4728    0.0000 H   0  0  0  0  0  0  0  0  0  0  0  0
  -19.5232   -1.7984    0.0000 H   0  0  0  0  0  0  0  0  0  0  0  0
  -19.2126    1.6029    0.0000 H   0  0  0  0  0  0  0  0  0  0  0  0
  -16.9573    3.0806    0.0000 H   0  0  0  0  0  0  0  0  0  0  0  0
  -18.5886    2.3574    0.0000 H   0  0  0  0  0  0  0  0  0  0  0  0
  -14.6009    0.4725    0.0000 H   0  0  0  0  0  0  0  0  0  0  0  0
  -15.5857   -0.1172    0.0000 H   0  0  0  0  0  0  0  0  0  0  0  0
  -14.5222    3.9865    0.0000 H   0  0  0  0  0  0  0  0  0  0  0  0
  -16.0535    3.4168    0.0000 H   0  0  0  0  0  0  0  0  0  0  0  0
  -11.9853    1.6964    0.0000 H   0  0  0  0  0  0  0  0  0  0  0  0
  -13.6972    0.8087    0.0000 H   0  0  0  0  0  0  0  0  0  0  0  0
  -10.9767    3.0001    0.0000 H   0  0  0  0  0  0  0  0  0  0  0  0
  -11.9112    4.8416    0.0000 H   0  0  0  0  0  0  0  0  0  0  0  0
  -13.6185    4.3227    0.0000 H   0  0  0  0  0  0  0  0  0  0  0  0
  -15.2896    1.9372    0.0000 H   0  0  0  0  0  0  0  0  0  0  0  0
  -15.4276   -1.2923    0.0000 H   0  0  0  0  0  0  0  0  0  0  0  0
  -12.1613   -2.2979    0.0000 H   0  0  0  0  0  0  0  0  0  0  0  0
  -12.1583   -0.5135    0.0000 H   0  0  0  0  0  0  0  0  0  0  0  0
  -14.8246   -3.9728    0.0000 H   0  0  0  0  0  0  0  0  0  0  0  0
  -15.2535   -2.2406    0.0000 H   0  0  0  0  0  0  0  0  0  0  0  0
  -12.4269   -6.5144    0.0000 H   0  0  0  0  0  0  0  0  0  0  0  0
  -14.8746   -5.6432    0.0000 H   0  0  0  0  0  0  0  0  0  0  0  0
  -11.5465   -1.7305    0.0000 H   0  0  0  0  0  0  0  0  0  0  0  0
  -11.2720    1.7683    0.0000 H   0  0  0  0  0  0  0  0  0  0  0  0
   -9.1632    3.1360    0.0000 H   0  0  0  0  0  0  0  0  0  0  0  0
  -10.8751    2.2483    0.0000 H   0  0  0  0  0  0  0  0  0  0  0  0
   -6.8069    0.5278    0.0000 H   0  0  0  0  0  0  0  0  0  0  0  0
   -7.7917   -0.0618    0.0000 H   0  0  0  0  0  0  0  0  0  0  0  0
   -6.7282    4.0419    0.0000 H   0  0  0  0  0  0  0  0  0  0  0  0
   -8.2595    3.4722    0.0000 H   0  0  0  0  0  0  0  0  0  0  0  0
   -4.1913    1.7518    0.0000 H   0  0  0  0  0  0  0  0  0  0  0  0
   -5.9032    0.8641    0.0000 H   0  0  0  0  0  0  0  0  0  0  0  0
   -3.1827    3.0555    0.0000 H   0  0  0  0  0  0  0  0  0  0  0  0
   -4.1172    4.8970    0.0000 H   0  0  0  0  0  0  0  0  0  0  0  0
   -5.8245    4.3781    0.0000 H   0  0  0  0  0  0  0  0  0  0  0  0
   -7.4956    1.9926    0.0000 H   0  0  0  0  0  0  0  0  0  0  0  0
   -7.6336   -1.2369    0.0000 H   0  0  0  0  0  0  0  0  0  0  0  0
   -4.2672   -2.0891    0.0000 H   0  0  0  0  0  0  0  0  0  0  0  0
   -4.3643   -0.4581    0.0000 H   0  0  0  0  0  0  0  0  0  0  0  0
   -7.0305   -3.9174    0.0000 H   0  0  0  0  0  0  0  0  0  0  0  0
   -7.4594   -2.1852    0.0000 H   0  0  0  0  0  0  0  0  0  0  0  0
   -3.7979   -4.6444    0.0000 H   0  0  0  0  0  0  0  0  0  0  0  0
   -4.0125   -2.8729    0.0000 H   0  0  0  0  0  0  0  0  0  0  0  0
   -7.0805   -5.5878    0.0000 H   0  0  0  0  0  0  0  0  0  0  0  0
   -4.1636   -9.0143    0.0000 H   0  0  0  0  0  0  0  0  0  0  0  0
   -6.6112   -8.1431    0.0000 H   0  0  0  0  0  0  0  0  0  0  0  0
   -2.1852   -7.3302    0.0000 H   0  0  0  0  0  0  0  0  0  0  0  0
   -2.6546   -4.7749    0.0000 H   0  0  0  0  0  0  0  0  0  0  0  0
   -3.7524   -1.6752    0.0000 H   0  0  0  0  0  0  0  0  0  0  0  0
   -3.4780    1.8237    0.0000 H   0  0  0  0  0  0  0  0  0  0  0  0
   -1.3692    3.1913    0.0000 H   0  0  0  0  0  0  0  0  0  0  0  0
   -3.0811    2.3037    0.0000 H   0  0  0  0  0  0  0  0  0  0  0  0
    0.9872    0.5832    0.0000 H   0  0  0  0  0  0  0  0  0  0  0  0
    0.0023   -0.0064    0.0000 H   0  0  0  0  0  0  0  0  0  0  0  0
    1.0658    4.0973    0.0000 H   0  0  0  0  0  0  0  0  0  0  0  0
   -0.4655    3.5276    0.0000 H   0  0  0  0  0  0  0  0  0  0  0  0
    3.6028    1.8071    0.0000 H   0  0  0  0  0  0  0  0  0  0  0  0
    1.8909    0.9195    0.0000 H   0  0  0  0  0  0  0  0  0  0  0  0
    4.6114    3.1109    0.0000 H   0  0  0  0  0  0  0  0  0  0  0  0
    3.6769    4.9524    0.0000 H   0  0  0  0  0  0  0  0  0  0  0  0
    1.9695    4.4335    0.0000 H   0  0  0  0  0  0  0  0  0  0  0  0
    0.2984    2.0480    0.0000 H   0  0  0  0  0  0  0  0  0  0  0  0
    0.2942   -1.3066    0.0000 H   0  0  0  0  0  0  0  0  0  0  0  0
    3.4268   -2.1872    0.0000 H   0  0  0  0  0  0  0  0  0  0  0  0
    3.4298   -0.4027    0.0000 H   0  0  0  0  0  0  0  0  0  0  0  0
   -0.8601   -1.9619    0.0000 H   0  0  0  0  0  0  0  0  0  0  0  0
   -1.7341   -4.6612    0.0000 H   0  0  0  0  0  0  0  0  0  0  0  0
    0.2105   -6.9455    0.0000 H   0  0  0  0  0  0  0  0  0  0  0  0
    3.1611   -6.4036    0.0000 H   0  0  0  0  0  0  0  0  0  0  0  0
    4.1671   -3.5773    0.0000 H   0  0  0  0  0  0  0  0  0  0  0  0
    4.0416   -1.6198    0.0000 H   0  0  0  0  0  0  0  0  0  0  0  0
    4.3160    1.8791    0.0000 H   0  0  0  0  0  0  0  0  0  0  0  0
    6.6009    3.1960    0.0000 H   0  0  0  0  0  0  0  0  0  0  0  0
    4.7129    2.3590    0.0000 H   0  0  0  0  0  0  0  0  0  0  0  0
    8.4727    2.8088    0.0000 H   0  0  0  0  0  0  0  0  0  0  0  0
    7.7292    2.1453    0.0000 H   0  0  0  0  0  0  0  0  0  0  0  0
    7.8586   -1.4210    0.0000 H   0  0  0  0  0  0  0  0  0  0  0  0
    8.4547   -2.7656    0.0000 H   0  0  0  0  0  0  0  0  0  0  0  0
    8.6577   -3.3565    0.0000 H   0  0  0  0  0  0  0  0  0  0  0  0
    9.4071   -4.2170    0.0000 H   0  0  0  0  0  0  0  0  0  0  0  0
    9.8458   -4.6389    0.0000 H   0  0  0  0  0  0  0  0  0  0  0  0
   11.0957   -5.4140    0.0000 H   0  0  0  0  0  0  0  0  0  0  0  0
   12.0318   -6.0154    0.0000 H   0  0  0  0  0  0  0  0  0  0  0  0
    7.5866   -2.4848    0.0000 H   0  0  0  0  0  0  0  0  0  0  0  0
    6.4711   -1.5555    0.0000 H   0  0  0  0  0  0  0  0  0  0  0  0
    6.9003    0.1958    0.0000 H   0  0  0  0  0  0  0  0  0  0  0  0
    8.4703    3.5576    0.0000 H   0  0  0  0  0  0  0  0  0  0  0  0
    9.2650    4.3364    0.0000 H   0  0  0  0  0  0  0  0  0  0  0  0
   10.7644    6.8944    0.0000 H   0  0  0  0  0  0  0  0  0  0  0  0
   11.9393    5.7590    0.0000 H   0  0  0  0  0  0  0  0  0  0  0  0
   10.0095    8.3853    0.0000 H   0  0  0  0  0  0  0  0  0  0  0  0
    7.2091    9.4614    0.0000 H   0  0  0  0  0  0  0  0  0  0  0  0
    4.8770    7.5743    0.0000 H   0  0  0  0  0  0  0  0  0  0  0  0
    5.3452    4.6111    0.0000 H   0  0  0  0  0  0  0  0  0  0  0  0
    7.9632    3.5175    0.0000 H   0  0  0  0  0  0  0  0  0  0  0  0
   13.0301    6.6316    0.0000 H   0  0  0  0  0  0  0  0  0  0  0  0
   14.3143    6.5310    0.0000 H   0  0  0  0  0  0  0  0  0  0  0  0
   17.2491    6.9535    0.0000 H   0  0  0  0  0  0  0  0  0  0  0  0
   17.0939    5.3271    0.0000 H   0  0  0  0  0  0  0  0  0  0  0  0
   17.9440    8.4733    0.0000 H   0  0  0  0  0  0  0  0  0  0  0  0
   17.0394   11.3337    0.0000 H   0  0  0  0  0  0  0  0  0  0  0  0
   14.1099   11.9805    0.0000 H   0  0  0  0  0  0  0  0  0  0  0  0
   12.0851    9.7669    0.0000 H   0  0  0  0  0  0  0  0  0  0  0  0
   12.8624    7.0382    0.0000 H   0  0  0  0  0  0  0  0  0  0  0  0
   18.5958    4.8996    0.0000 H   0  0  0  0  0  0  0  0  0  0  0  0
   19.0118    4.0280    0.0000 H   0  0  0  0  0  0  0  0  0  0  0  0
   21.2542    1.7578    0.0000 H   0  0  0  0  0  0  0  0  0  0  0  0
   19.9701    1.0277    0.0000 H   0  0  0  0  0  0  0  0  0  0  0  0
   20.9826    5.2622    0.0000 H   0  0  0  0  0  0  0  0  0  0  0  0
   19.5156    4.5429    0.0000 H   0  0  0  0  0  0  0  0  0  0  0  0
   23.5869    2.9017    0.0000 H   0  0  0  0  0  0  0  0  0  0  0  0
   22.1200    2.1824    0.0000 H   0  0  0  0  0  0  0  0  0  0  0  0
   23.4955    6.3731    0.0000 H   0  0  0  0  0  0  0  0  0  0  0  0
   21.8483    5.6868    0.0000 H   0  0  0  0  0  0  0  0  0  0  0  0
   25.4684    6.0608    0.0000 H   0  0  0  0  0  0  0  0  0  0  0  0
   26.0039    4.2082    0.0000 H   0  0  0  0  0  0  0  0  0  0  0  0
   24.4527    3.3262    0.0000 H   0  0  0  0  0  0  0  0  0  0  0  0
   20.5723   -0.4130    0.0000 H   0  0  0  0  0  0  0  0  0  0  0  0
   18.3982   -4.4461    0.0000 H   0  0  0  0  0  0  0  0  0  0  0  0
   19.3487   -3.5471    0.0000 H   0  0  0  0  0  0  0  0  0  0  0  0
   17.0217   -5.5039    0.0000 H   0  0  0  0  0  0  0  0  0  0  0  0
   18.0122   -4.9375    0.0000 H   0  0  0  0  0  0  0  0  0  0  0  0
   15.0335   -6.0795    0.0000 H   0  0  0  0  0  0  0  0  0  0  0  0
   16.4687   -5.7582    0.0000 H   0  0  0  0  0  0  0  0  0  0  0  0
   13.9517   -6.3399    0.0000 H   0  0  0  0  0  0  0  0  0  0  0  0
   21.4141   -2.3325    0.0000 H   0  0  0  0  0  0  0  0  0  0  0  0
   21.3857   -0.5483    0.0000 H   0  0  0  0  0  0  0  0  0  0  0  0
   20.0269    0.0311    0.0000 H   0  0  0  0  0  0  0  0  0  0  0  0
   21.8694   -1.5733    0.0000 H   0  0  0  0  0  0  0  0  0  0  0  0
   20.4924   -4.5302    0.0000 H   0  0  0  0  0  0  0  0  0  0  0  0
   23.1557   -6.7587    0.0000 H   0  0  0  0  0  0  0  0  0  0  0  0
   23.7759   -5.2471    0.0000 H   0  0  0  0  0  0  0  0  0  0  0  0
   20.2378   -5.4603    0.0000 H   0  0  0  0  0  0  0  0  0  0  0  0
   20.6862   -9.2083    0.0000 H   0  0  0  0  0  0  0  0  0  0  0  0
   22.4698   -9.2646    0.0000 H   0  0  0  0  0  0  0  0  0  0  0  0
   23.0451   -7.5754    0.0000 H   0  0  0  0  0  0  0  0  0  0  0  0
   19.5530   -8.6725    0.0000 H   0  0  0  0  0  0  0  0  0  0  0  0
   18.3778   -7.3297    0.0000 H   0  0  0  0  0  0  0  0  0  0  0  0
   19.4923   -5.7560    0.0000 H   0  0  0  0  0  0  0  0  0  0  0  0
   23.7990   -6.6091    0.0000 H   0  0  0  0  0  0  0  0  0  0  0  0
   25.3847   -3.6113    0.0000 H   0  0  0  0  0  0  0  0  0  0  0  0
   28.1943   -3.3807    0.0000 H   0  0  0  0  0  0  0  0  0  0  0  0
   26.2742   -3.2023    0.0000 H   0  0  0  0  0  0  0  0  0  0  0  0
   29.7149   -4.6759    0.0000 H   0  0  0  0  0  0  0  0  0  0  0  0
   29.2059   -6.5359    0.0000 H   0  0  0  0  0  0  0  0  0  0  0  0
   27.7348   -6.6697    0.0000 H   0  0  0  0  0  0  0  0  0  0  0  0
  1  2  1  0
  2  3  1  0
  3  4  2  0
  4  5  1  0
  5  6  2  0
  6  7  1  0
  7  8  2  0
  7  9  1  0
  9 10  1  0
 10 11  1  0
 11 12  2  0
  9 13  1  0
 13 14  1  0
 14 15  2  0
 15 16  1  0
 16 17  2  0
 17 18  1  0
 16 19  1  0
 14 20  1  0
 20 21  1  0
 21 22  2  0
 22 23  1  0
 23 24  2  0
 24 25  1  0
 25 26  2  0
 25 27  1  0
  1 28  2  0
  1 29  1  0
 29 30  1  0
 30 31  1  0
 31 32  1  0
 32 33  2  0
 32 34  1  0
 34 35  1  0
 35 36  1  0
 36 37  1  0
 37 38  1  0
 38 39  1  0
 39 40  1  0
 35 41  1  0
 41 42  2  0
 41 43  1  0
 43 44  1  0
 44 45  1  0
 45 46  1  0
 46 47  1  0
 47 48  1  0
 47 49  2  0
 44 50  1  0
 50 51  2  0
 50 52  1  0
 52 53  1  0
 53 54  1  0
 54 55  1  0
 55 56  1  0
 56 57  1  0
 57 58  1  0
 53 59  1  0
 59 60  2  0
 59 61  1  0
 61 62  1  0
 62 63  1  0
 63 64  1  0
 64 65  1  0
 65 66  1  0
 66 67  1  0
 67 68  2  3
 67 69  1  0
 62 70  1  0
 70 71  2  0
 70 72  1  0
 72 73  1  0
 73 74  1  0
 74 75  1  0
 75 76  1  0
 76 77  1  0
 77 78  1  0
 73 79  1  0
 79 80  2  0
 79 81  1  0
 81 82  1  0
 82 83  1  0
 83 84  1  0
 84 85  2  0
 85 86  1  0
 86 87  2  0
 87 88  1  0
 88 89  2  0
 82 90  1  0
 90 91  2  0
 90 92  1  0
 92 93  1  0
 93 94  1  0
 94 95  1  0
 93 96  1  0
 96 97  2  0
 96 98  1  0
 99 98  1  6
 99100  1  0
100101  1  0
101102  1  0
102103  1  0
 99104  1  0
 99105  1  0
105106  2  0
105107  1  0
107108  1  0
108109  1  0
109110  1  0
110111  2  0
111112  1  0
112113  2  0
113114  1  0
114115  2  0
108116  1  0
116117  2  0
116118  1  0
118119  1  0
119120  1  0
120121  1  0
121122  2  0
122123  1  0
123124  2  0
124125  1  0
125126  2  0
119127  1  0
127128  2  0
127129  1  0
129130  1  0
130131  1  0
131132  1  0
132133  1  0
133134  1  0
134135  1  0
130136  1  0
136137  2  0
136138  1  0
138139  1  0
139140  1  0
140141  1  0
141142  1  0
142143  1  0
139144  1  0
139145  1  6
145146  2  0
145147  1  0
147148  1  0
148149  1  0
149150  1  0
150151  1  0
150152  1  0
148153  1  0
153154  2  0
153155  1  0
155156  1  0
156157  1  0
157158  1  0
156159  1  0
159160  2  0
159161  1  0
  8  3  1  0
 89 84  1  0
115110  1  0
126121  1  0
 11  6  1  0
103143  2  0
 18 13  2  0
 22  9  1  0
 26 21  1  0
  2162  1  0
  4163  1  0
  5164  1  0
  8165  1  0
 15166  1  0
 17167  1  0
 18168  1  0
 19169  1  0
 23170  1  0
 24171  1  0
 26172  1  0
 27173  1  0
 29174  1  0
 30175  1  0
 30176  1  0
 31177  1  0
 31178  1  0
 34179  1  0
 35180  1  1
 36181  1  0
 36182  1  0
 37183  1  0
 37184  1  0
 38185  1  0
 38186  1  0
 39187  1  0
 39188  1  0
 40189  1  0
 40190  1  0
 40191  1  0
 43192  1  0
 44193  1  6
 45194  1  0
 45195  1  0
 46196  1  0
 46197  1  0
 48198  1  0
 48199  1  0
 52200  1  0
 53201  1  1
 54202  1  0
 54203  1  0
 55204  1  0
 55205  1  0
 56206  1  0
 56207  1  0
 57208  1  0
 57209  1  0
 58210  1  0
 58211  1  0
 58212  1  0
 61213  1  0
 62214  1  6
 63215  1  0
 63216  1  0
 64217  1  0
 64218  1  0
 65219  1  0
 65220  1  0
 66221  1  0
 68222  1  0
 68223  1  0
 69224  1  0
 69225  1  0
 72226  1  0
 73227  1  1
 74228  1  0
 74229  1  0
 75230  1  0
 75231  1  0
 76232  1  0
 76233  1  0
 77234  1  0
 77235  1  0
 78236  1  0
 78237  1  0
 78238  1  0
 81239  1  0
 82240  1  6
 83241  1  0
 83242  1  0
 85243  1  0
 86244  1  0
 87245  1  0
 88246  1  0
 89247  1  0
 92248  1  0
 93249  1  1
 94250  1  0
 94251  1  0
 95252  1  0
 98253  1  0
100254  1  0
100255  1  0
101256  1  0
101257  1  0
102258  1  0
102259  1  0
103260  1  0
104261  1  0
104262  1  0
104263  1  0
107264  1  0
108265  1  1
109266  1  0
109267  1  0
111268  1  0
112269  1  0
113270  1  0
114271  1  0
115272  1  0
118273  1  0
119274  1  1
120275  1  0
120276  1  0
122277  1  0
123278  1  0
124279  1  0
125280  1  0
126281  1  0
129282  1  0
130283  1  1
131284  1  0
131285  1  0
132286  1  0
132287  1  0
133288  1  0
133289  1  0
134290  1  0
134291  1  0
135292  1  0
135293  1  0
135294  1  0
138295  1  0
140296  1  0
140297  1  0
141298  1  0
141299  1  0
142300  1  0
142301  1  0
143302  1  0
144303  1  0
144304  1  0
144305  1  0
147306  1  0
148307  1  6
149308  1  0
149309  1  0
150310  1  0
151311  1  0
151312  1  0
151313  1  0
152314  1  0
152315  1  0
152316  1  0
155317  1  0
156318  1  1
157319  1  0
157320  1  0
158321  1  0
158322  1  0
158323  1  0
M  CHG  6  40   1  58   1  68   1  78   1 135   1 161  -1
M  END
