
     RDKit          2D

258259  0  0  0  0  0  0  0  0999 V2000
   12.1317   14.3649    0.0000 N   0  0  0  0  0  0  0  0  0  0  0  0
   11.3635   13.0765    0.0000 C   0  0  0  0  0  0  0  0  0  0  0  0
    9.8637   13.0976    0.0000 C   0  0  0  0  0  0  0  0  0  0  0  0
    9.0955   11.8092    0.0000 C   0  0  0  0  0  0  0  0  0  0  0  0
    9.8271   10.4998    0.0000 O   0  0  0  0  0  0  0  0  0  0  0  0
    7.5956   11.8303    0.0000 N   0  0  0  0  0  0  0  0  0  0  0  0
    6.8274   10.5419    0.0000 C   0  0  0  0  0  0  0  0  0  0  0  0
    5.6920   11.5222    0.0000 C   0  0  0  0  0  0  0  0  0  0  0  0
    5.9732   12.9956    0.0000 C   0  0  0  0  0  0  0  0  0  0  0  0
    4.8378   13.9758    0.0000 N   0  0  0  0  0  0  0  0  0  0  0  0
    7.3192   13.6577    0.0000 O   0  0  0  0  0  0  0  0  0  0  0  0
    6.5462    9.0685    0.0000 C   0  0  0  0  0  0  0  0  0  0  0  0
    5.0801    8.7517    0.0000 O   0  0  0  0  0  0  0  0  0  0  0  0
    7.6816    8.0883    0.0000 N   0  0  0  0  0  0  0  0  0  0  0  0
    7.4004    6.6149    0.0000 C   0  0  0  0  0  0  0  0  0  0  0  0
    5.9982    7.1477    0.0000 C   0  0  0  0  0  0  0  0  0  0  0  0
    4.8357    6.1997    0.0000 C   0  0  0  0  0  0  0  0  0  0  0  0
    3.4335    6.7325    0.0000 C   0  0  0  0  0  0  0  0  0  0  0  0
    2.2710    5.7846    0.0000 O   0  0  0  0  0  0  0  0  0  0  0  0
    3.1939    8.2132    0.0000 O   0  0  0  0  0  0  0  0  0  0  0  0
    7.6401    5.1342    0.0000 C   0  0  0  0  0  0  0  0  0  0  0  0
    6.4776    4.1862    0.0000 O   0  0  0  0  0  0  0  0  0  0  0  0
    9.0423    4.6014    0.0000 N   0  0  0  0  0  0  0  0  0  0  0  0
    9.2820    3.1206    0.0000 C   0  0  0  0  0  0  0  0  0  0  0  0
   10.6986    3.6138    0.0000 C   0  0  0  0  0  0  0  0  0  0  0  0
   10.9798    5.0872    0.0000 C   0  0  0  0  0  0  0  0  0  0  0  0
   12.3964    5.5804    0.0000 C   0  0  0  0  0  0  0  0  0  0  0  0
   10.7401    6.5679    0.0000 C   0  0  0  0  0  0  0  0  0  0  0  0
    9.0008    1.6472    0.0000 C   0  0  0  0  0  0  0  0  0  0  0  0
   10.2472    0.8127    0.0000 O   0  0  0  0  0  0  0  0  0  0  0  0
    7.5842    1.1541    0.0000 N   0  0  0  0  0  0  0  0  0  0  0  0
    7.3030   -0.3193    0.0000 C   0  0  0  0  0  0  0  0  0  0  0  0
    8.8028   -0.3404    0.0000 C   0  0  0  0  0  0  0  0  0  0  0  0
    9.5345   -1.6499    0.0000 C   0  0  0  0  0  0  0  0  0  0  0  0
   11.0343   -1.6710    0.0000 C   0  0  0  0  0  0  0  0  0  0  0  0
   11.7660   -2.9804    0.0000 C   0  0  0  0  0  0  0  0  0  0  0  0
   13.2659   -3.0015    0.0000 N   0  0  0  0  0  0  0  0  0  0  0  0
    6.5348   -1.6077    0.0000 C   0  0  0  0  0  0  0  0  0  0  0  0
    7.2665   -2.9172    0.0000 O   0  0  0  0  0  0  0  0  0  0  0  0
    5.0349   -1.5866    0.0000 N   0  0  0  0  0  0  0  0  0  0  0  0
    4.2667   -2.8750    0.0000 C   0  0  0  0  0  0  0  0  0  0  0  0
    3.1313   -1.8948    0.0000 C   0  0  0  0  0  0  0  0  0  0  0  0
    3.4126   -0.4214    0.0000 C   0  0  0  0  0  0  0  0  0  0  0  0
    2.2771    0.5589    0.0000 C   0  0  0  0  0  0  0  0  0  0  0  0
    2.5584    2.0323    0.0000 N   0  0  0  0  0  0  0  0  0  0  0  0
    1.4230    3.0125    0.0000 C   0  0  0  0  0  0  0  0  0  0  0  0
    1.7042    4.4859    0.0000 N   0  0  0  0  0  0  0  0  0  0  0  0
    0.0063    2.5193    0.0000 N   0  0  0  0  0  0  0  0  0  0  0  0
    3.9855   -4.3484    0.0000 C   0  0  0  0  0  0  0  0  0  0  0  0
    3.2064   -4.5168    0.0000 O   0  0  0  0  0  0  0  0  0  0  0  0
    5.1209   -5.3286    0.0000 N   0  0  0  0  0  0  0  0  0  0  0  0
    4.8397   -6.8020    0.0000 C   0  0  0  0  0  0  0  0  0  0  0  0
    3.4375   -6.2693    0.0000 C   0  0  0  0  0  0  0  0  0  0  0  0
    3.0192   -4.8288    0.0000 O   0  0  0  0  0  0  0  0  0  0  0  0
    5.0794   -8.2828    0.0000 C   0  0  0  0  0  0  0  0  0  0  0  0
    3.7221   -8.9212    0.0000 O   0  0  0  0  0  0  0  0  0  0  0  0
    6.4816   -8.8156    0.0000 N   0  0  0  0  0  0  0  0  0  0  0  0
    6.7213  -10.2963    0.0000 C   0  0  0  0  0  0  0  0  0  0  0  0
    7.4530  -11.6057    0.0000 C   0  0  0  0  0  0  0  0  0  0  0  0
    8.9528  -11.6268    0.0000 C   0  0  0  0  0  0  0  0  0  0  0  0
    9.6845  -12.9363    0.0000 C   0  0  0  0  0  0  0  0  0  0  0  0
   11.1843  -12.9574    0.0000 C   0  0  0  0  0  0  0  0  0  0  0  0
   11.9525  -11.6690    0.0000 C   0  0  0  0  0  0  0  0  0  0  0  0
   11.2209  -10.3595    0.0000 C   0  0  0  0  0  0  0  0  0  0  0  0
    9.7210  -10.3385    0.0000 C   0  0  0  0  0  0  0  0  0  0  0  0
    5.2215  -10.2752    0.0000 C   0  0  0  0  0  0  0  0  0  0  0  0
    4.4533  -11.5636    0.0000 O   0  0  0  0  0  0  0  0  0  0  0  0
    4.4898   -8.9658    0.0000 N   0  0  0  0  0  0  0  0  0  0  0  0
    2.9899   -8.9447    0.0000 C   0  0  0  0  0  0  0  0  0  0  0  0
    1.5733   -9.4379    0.0000 C   0  0  0  0  0  0  0  0  0  0  0  0
    0.4379   -8.4576    0.0000 C   0  0  0  0  0  0  0  0  0  0  0  0
    0.7191   -6.9842    0.0000 C   0  0  0  0  0  0  0  0  0  0  0  0
   -0.4163   -6.0040    0.0000 C   0  0  0  0  0  0  0  0  0  0  0  0
   -1.8329   -6.4971    0.0000 C   0  0  0  0  0  0  0  0  0  0  0  0
   -2.1141   -7.9706    0.0000 C   0  0  0  0  0  0  0  0  0  0  0  0
   -0.9787   -8.9508    0.0000 C   0  0  0  0  0  0  0  0  0  0  0  0
    2.2583   -7.6352    0.0000 C   0  0  0  0  0  0  0  0  0  0  0  0
    2.8637   -6.2628    0.0000 O   0  0  0  0  0  0  0  0  0  0  0  0
    0.7584   -7.6141    0.0000 N   0  0  0  0  0  0  0  0  0  0  0  0
    0.0267   -6.3047    0.0000 C   0  0  0  0  0  0  0  0  0  0  0  0
   -0.0307   -4.8058    0.0000 C   0  0  0  0  0  0  0  0  0  0  0  0
   -1.4731   -6.2836    0.0000 C   0  0  0  0  0  0  0  0  0  0  0  0
   -2.5302   -7.3478    0.0000 O   0  0  0  0  0  0  0  0  0  0  0  0
   -2.2048   -4.9742    0.0000 N   0  0  0  0  0  0  0  0  0  0  0  0
   -3.7046   -4.9531    0.0000 C   0  0  0  0  0  0  0  0  0  0  0  0
   -5.1212   -5.4463    0.0000 C   0  0  0  0  0  0  0  0  0  0  0  0
   -6.2566   -4.4660    0.0000 C   0  0  0  0  0  0  0  0  0  0  0  0
   -7.6733   -4.9592    0.0000 C   0  0  0  0  0  0  0  0  0  0  0  0
   -6.9883   -3.1566    0.0000 C   0  0  0  0  0  0  0  0  0  0  0  0
   -4.4363   -3.6436    0.0000 C   0  0  0  0  0  0  0  0  0  0  0  0
   -3.6681   -2.3553    0.0000 O   0  0  0  0  0  0  0  0  0  0  0  0
   -5.9362   -3.6226    0.0000 N   0  0  0  0  0  0  0  0  0  0  0  0
   -6.6678   -2.3131    0.0000 C   0  0  0  0  0  0  0  0  0  0  0  0
   -6.9075   -0.8324    0.0000 C   0  0  0  0  0  0  0  0  0  0  0  0
   -5.7450    0.1156    0.0000 C   0  0  0  0  0  0  0  0  0  0  0  0
   -5.9847    1.5963    0.0000 C   0  0  0  0  0  0  0  0  0  0  0  0
   -4.8222    2.5442    0.0000 N   0  0  0  0  0  0  0  0  0  0  0  0
   -5.0619    4.0249    0.0000 C   0  0  0  0  0  0  0  0  0  0  0  0
   -3.8994    4.9729    0.0000 N   0  0  0  0  0  0  0  0  0  0  0  0
   -6.4641    4.5577    0.0000 N   0  0  0  0  0  0  0  0  0  0  0  0
   -8.1677   -2.2920    0.0000 C   0  0  0  0  0  0  0  0  0  0  0  0
   -9.0872   -3.4772    0.0000 O   0  0  0  0  0  0  0  0  0  0  0  0
   -8.8993   -0.9826    0.0000 N   0  0  0  0  0  0  0  0  0  0  0  0
  -10.3992   -0.9615    0.0000 C   0  0  0  0  0  0  0  0  0  0  0  0
  -11.8158   -1.4547    0.0000 C   0  0  0  0  0  0  0  0  0  0  0  0
  -12.9512   -0.4744    0.0000 C   0  0  0  0  0  0  0  0  0  0  0  0
  -14.3678   -0.9676    0.0000 O   0  0  0  0  0  0  0  0  0  0  0  0
  -13.0349    1.0232    0.0000 O   0  0  0  0  0  0  0  0  0  0  0  0
  -11.1309    0.3480    0.0000 C   0  0  0  0  0  0  0  0  0  0  0  0
  -10.3627    1.6363    0.0000 O   0  0  0  0  0  0  0  0  0  0  0  0
  -12.6307    0.3690    0.0000 N   0  0  0  0  0  0  0  0  0  0  0  0
  -13.3624    1.6785    0.0000 C   0  0  0  0  0  0  0  0  0  0  0  0
  -13.6021    3.1592    0.0000 C   0  0  0  0  0  0  0  0  0  0  0  0
  -15.0043    3.6920    0.0000 C   0  0  0  0  0  0  0  0  0  0  0  0
  -15.2440    5.1727    0.0000 C   0  0  0  0  0  0  0  0  0  0  0  0
  -16.5707    5.8725    0.0000 N   0  0  0  0  0  0  0  0  0  0  0  0
  -14.0815    6.1207    0.0000 O   0  0  0  0  0  0  0  0  0  0  0  0
  -14.8622    1.6996    0.0000 C   0  0  0  0  0  0  0  0  0  0  0  0
  -15.6304    0.4112    0.0000 O   0  0  0  0  0  0  0  0  0  0  0  0
  -15.5939    3.0090    0.0000 N   0  0  0  0  0  0  0  0  0  0  0  0
  -17.0938    3.0301    0.0000 C   0  0  0  0  0  0  0  0  0  0  0  0
  -18.5104    2.5369    0.0000 C   0  0  0  0  0  0  0  0  0  0  0  0
  -19.6458    3.5172    0.0000 C   0  0  0  0  0  0  0  0  0  0  0  0
  -19.6729    1.5890    0.0000 C   0  0  0  0  0  0  0  0  0  0  0  0
  -19.4332    0.1083    0.0000 C   0  0  0  0  0  0  0  0  0  0  0  0
  -17.8254    4.3395    0.0000 C   0  0  0  0  0  0  0  0  0  0  0  0
  -19.3115    4.5433    0.0000 O   0  0  0  0  0  0  0  0  0  0  0  0
  -17.2200    5.7119    0.0000 O   0  0  0  0  0  0  0  0  0  0  0  0
   13.6315   14.3438    0.0000 H   0  0  0  0  0  0  0  0  0  0  0  0
   11.4000   15.6743    0.0000 H   0  0  0  0  0  0  0  0  0  0  0  0
   12.7657   12.5437    0.0000 H   0  0  0  0  0  0  0  0  0  0  0  0
   11.0823   11.6031    0.0000 H   0  0  0  0  0  0  0  0  0  0  0  0
   10.1449   14.5710    0.0000 H   0  0  0  0  0  0  0  0  0  0  0  0
    8.4615   13.6304    0.0000 H   0  0  0  0  0  0  0  0  0  0  0  0
    7.0290   13.2192    0.0000 H   0  0  0  0  0  0  0  0  0  0  0  0
    8.2296   10.0091    0.0000 H   0  0  0  0  0  0  0  0  0  0  0  0
    4.2898   12.0549    0.0000 H   0  0  0  0  0  0  0  0  0  0  0  0
    4.9238   10.2338    0.0000 H   0  0  0  0  0  0  0  0  0  0  0  0
    5.1190   15.4492    0.0000 H   0  0  0  0  0  0  0  0  0  0  0  0
    3.4212   13.4826    0.0000 H   0  0  0  0  0  0  0  0  0  0  0  0
    9.0982    8.5815    0.0000 H   0  0  0  0  0  0  0  0  0  0  0  0
    8.8865    6.4111    0.0000 H   0  0  0  0  0  0  0  0  0  0  0  0
    4.7518    7.9822    0.0000 H   0  0  0  0  0  0  0  0  0  0  0  0
    6.4318    8.5836    0.0000 H   0  0  0  0  0  0  0  0  0  0  0  0
    4.0675    4.9114    0.0000 H   0  0  0  0  0  0  0  0  0  0  0  0
    5.9711    5.2195    0.0000 H   0  0  0  0  0  0  0  0  0  0  0  0
   10.0806    5.6839    0.0000 H   0  0  0  0  0  0  0  0  0  0  0  0
    7.7821    3.1417    0.0000 H   0  0  0  0  0  0  0  0  0  0  0  0
   12.1847    3.4101    0.0000 H   0  0  0  0  0  0  0  0  0  0  0  0
   10.9383    2.1331    0.0000 H   0  0  0  0  0  0  0  0  0  0  0  0
    9.5872    5.6445    0.0000 H   0  0  0  0  0  0  0  0  0  0  0  0
   12.8551    7.0085    0.0000 H   0  0  0  0  0  0  0  0  0  0  0  0
   13.8963    5.5593    0.0000 H   0  0  0  0  0  0  0  0  0  0  0  0
   12.8148    4.1399    0.0000 H   0  0  0  0  0  0  0  0  0  0  0  0
   11.7784    7.6505    0.0000 H   0  0  0  0  0  0  0  0  0  0  0  0
   10.0084    7.8774    0.0000 H   0  0  0  0  0  0  0  0  0  0  0  0
    9.3942    5.9058    0.0000 H   0  0  0  0  0  0  0  0  0  0  0  0
    6.4488    2.1343    0.0000 H   0  0  0  0  0  0  0  0  0  0  0  0
    5.9008    0.2134    0.0000 H   0  0  0  0  0  0  0  0  0  0  0  0
   10.2194    0.1527    0.0000 H   0  0  0  0  0  0  0  0  0  0  0  0
    8.9286    1.1543    0.0000 H   0  0  0  0  0  0  0  0  0  0  0  0
    9.5919   -3.1488    0.0000 H   0  0  0  0  0  0  0  0  0  0  0  0
    8.1179   -2.1430    0.0000 H   0  0  0  0  0  0  0  0  0  0  0  0
   12.3803   -1.0088    0.0000 H   0  0  0  0  0  0  0  0  0  0  0  0
   10.9769   -0.1721    0.0000 H   0  0  0  0  0  0  0  0  0  0  0  0
   12.0057   -4.4611    0.0000 H   0  0  0  0  0  0  0  0  0  0  0  0
   10.4201   -3.6426    0.0000 H   0  0  0  0  0  0  0  0  0  0  0  0
   13.9975   -4.3109    0.0000 H   0  0  0  0  0  0  0  0  0  0  0  0
   14.6825   -2.5083    0.0000 H   0  0  0  0  0  0  0  0  0  0  0  0
   13.2085   -1.5026    0.0000 H   0  0  0  0  0  0  0  0  0  0  0  0
    4.4683   -0.1978    0.0000 H   0  0  0  0  0  0  0  0  0  0  0  0
    5.6689   -3.4078    0.0000 H   0  0  0  0  0  0  0  0  0  0  0  0
    1.6747   -1.5369    0.0000 H   0  0  0  0  0  0  0  0  0  0  0  0
    2.3632   -3.1831    0.0000 H   0  0  0  0  0  0  0  0  0  0  0  0
    4.1807    0.8670    0.0000 H   0  0  0  0  0  0  0  0  0  0  0  0
    4.9125   -0.4161    0.0000 H   0  0  0  0  0  0  0  0  0  0  0  0
    0.8750    1.0917    0.0000 H   0  0  0  0  0  0  0  0  0  0  0  0
    1.3576   -0.6263    0.0000 H   0  0  0  0  0  0  0  0  0  0  0  0
    3.9750    2.5254    0.0000 H   0  0  0  0  0  0  0  0  0  0  0  0
    0.5688    5.4661    0.0000 H   0  0  0  0  0  0  0  0  0  0  0  0
    3.1208    4.9791    0.0000 H   0  0  0  0  0  0  0  0  0  0  0  0
   -1.1291    3.4996    0.0000 H   0  0  0  0  0  0  0  0  0  0  0  0
   -0.2749    1.0459    0.0000 H   0  0  0  0  0  0  0  0  0  0  0  0
    6.5376   -4.8355    0.0000 H   0  0  0  0  0  0  0  0  0  0  0  0
    6.3396   -6.8231    0.0000 H   0  0  0  0  0  0  0  0  0  0  0  0
    1.9874   -5.8859    0.0000 H   0  0  0  0  0  0  0  0  0  0  0  0
    3.1563   -7.7427    0.0000 H   0  0  0  0  0  0  0  0  0  0  0  0
    1.7349   -4.4092    0.0000 H   0  0  0  0  0  0  0  0  0  0  0  0
    7.6441   -7.8676    0.0000 H   0  0  0  0  0  0  0  0  0  0  0  0
    8.1379   -9.8031    0.0000 H   0  0  0  0  0  0  0  0  0  0  0  0
    6.0364  -12.0989    0.0000 H   0  0  0  0  0  0  0  0  0  0  0  0
    7.6927  -13.0865    0.0000 H   0  0  0  0  0  0  0  0  0  0  0  0
    8.9163  -14.2246    0.0000 H   0  0  0  0  0  0  0  0  0  0  0  0
   11.9160  -14.2668    0.0000 H   0  0  0  0  0  0  0  0  0  0  0  0
   13.4524  -11.6901    0.0000 H   0  0  0  0  0  0  0  0  0  0  0  0
   11.9890   -9.0712    0.0000 H   0  0  0  0  0  0  0  0  0  0  0  0
    8.9893   -9.0290    0.0000 H   0  0  0  0  0  0  0  0  0  0  0  0
    4.9234   -7.5298    0.0000 H   0  0  0  0  0  0  0  0  0  0  0  0
    3.2296  -10.4254    0.0000 H   0  0  0  0  0  0  0  0  0  0  0  0
    0.4108  -10.3858    0.0000 H   0  0  0  0  0  0  0  0  0  0  0  0
    2.3050  -10.7473    0.0000 H   0  0  0  0  0  0  0  0  0  0  0  0
    1.9743   -6.1629    0.0000 H   0  0  0  0  0  0  0  0  0  0  0  0
   -0.3168   -4.5073    0.0000 H   0  0  0  0  0  0  0  0  0  0  0  0
   -2.9683   -5.5169    0.0000 H   0  0  0  0  0  0  0  0  0  0  0  0
   -3.5307   -8.4637    0.0000 H   0  0  0  0  0  0  0  0  0  0  0  0
   -1.2599  -10.4242    0.0000 H   0  0  0  0  0  0  0  0  0  0  0  0
   -0.2987   -8.6784    0.0000 H   0  0  0  0  0  0  0  0  0  0  0  0
    1.3727   -5.6425    0.0000 H   0  0  0  0  0  0  0  0  0  0  0  0
   -1.3254   -3.7574    0.0000 H   0  0  0  0  0  0  0  0  0  0  0  0
    0.0683   -3.3506    0.0000 H   0  0  0  0  0  0  0  0  0  0  0  0
    1.2723   -5.0054    0.0000 H   0  0  0  0  0  0  0  0  0  0  0  0
   -1.5994   -3.6018    0.0000 H   0  0  0  0  0  0  0  0  0  0  0  0
   -3.4649   -6.4338    0.0000 H   0  0  0  0  0  0  0  0  0  0  0  0
   -6.1595   -6.5288    0.0000 H   0  0  0  0  0  0  0  0  0  0  0  0
   -4.3896   -6.7557    0.0000 H   0  0  0  0  0  0  0  0  0  0  0  0
   -5.6754   -3.0832    0.0000 H   0  0  0  0  0  0  0  0  0  0  0  0
   -9.0121   -4.2828    0.0000 H   0  0  0  0  0  0  0  0  0  0  0  0
   -8.8358   -5.9071    0.0000 H   0  0  0  0  0  0  0  0  0  0  0  0
   -7.1067   -6.3481    0.0000 H   0  0  0  0  0  0  0  0  0  0  0  0
   -6.5547   -1.7206    0.0000 H   0  0  0  0  0  0  0  0  0  0  0  0
   -8.3996   -2.6485    0.0000 H   0  0  0  0  0  0  0  0  0  0  0  0
   -8.2577   -3.9557    0.0000 H   0  0  0  0  0  0  0  0  0  0  0  0
   -6.9933   -4.6868    0.0000 H   0  0  0  0  0  0  0  0  0  0  0  0
   -5.2017   -1.9963    0.0000 H   0  0  0  0  0  0  0  0  0  0  0  0
   -7.6392    0.4771    0.0000 H   0  0  0  0  0  0  0  0  0  0  0  0
   -8.4068   -0.7850    0.0000 H   0  0  0  0  0  0  0  0  0  0  0  0
   -4.3284    0.6087    0.0000 H   0  0  0  0  0  0  0  0  0  0  0  0
   -4.8592   -1.0949    0.0000 H   0  0  0  0  0  0  0  0  0  0  0  0
   -6.7164    2.9057    0.0000 H   0  0  0  0  0  0  0  0  0  0  0  0
   -7.4509    1.2795    0.0000 H   0  0  0  0  0  0  0  0  0  0  0  0
   -3.4200    2.0114    0.0000 H   0  0  0  0  0  0  0  0  0  0  0  0
   -4.1391    6.4536    0.0000 H   0  0  0  0  0  0  0  0  0  0  0  0
   -2.4972    4.4401    0.0000 H   0  0  0  0  0  0  0  0  0  0  0  0
   -6.7038    6.0385    0.0000 H   0  0  0  0  0  0  0  0  0  0  0  0
   -7.6266    3.6098    0.0000 H   0  0  0  0  0  0  0  0  0  0  0  0
   -8.2939    0.3898    0.0000 H   0  0  0  0  0  0  0  0  0  0  0  0
  -10.1595   -2.4422    0.0000 H   0  0  0  0  0  0  0  0  0  0  0  0
  -12.9783   -2.4026    0.0000 H   0  0  0  0  0  0  0  0  0  0  0  0
  -11.0841   -2.7641    0.0000 H   0  0  0  0  0  0  0  0  0  0  0  0
  -13.6878   -0.6952    0.0000 H   0  0  0  0  0  0  0  0  0  0  0  0
  -11.9458    2.1717    0.0000 H   0  0  0  0  0  0  0  0  0  0  0  0
  -13.3209    4.6326    0.0000 H   0  0  0  0  0  0  0  0  0  0  0  0
  -12.1022    3.1381    0.0000 H   0  0  0  0  0  0  0  0  0  0  0  0
  -16.5041    3.7131    0.0000 H   0  0  0  0  0  0  0  0  0  0  0  0
  -15.9444    2.5232    0.0000 H   0  0  0  0  0  0  0  0  0  0  0  0
  -16.8858    7.1862    0.0000 H   0  0  0  0  0  0  0  0  0  0  0  0
  -18.1260    5.2754    0.0000 H   0  0  0  0  0  0  0  0  0  0  0  0
  -15.1603    4.4450    0.0000 H   0  0  0  0  0  0  0  0  0  0  0  0
  -16.8541    1.5494    0.0000 H   0  0  0  0  0  0  0  0  0  0  0  0
  -17.6245    1.3264    0.0000 H   0  0  0  0  0  0  0  0  0  0  0  0
  -21.1119    3.2003    0.0000 H   0  0  0  0  0  0  0  0  0  0  0  0
  -20.3774    4.8266    0.0000 H   0  0  0  0  0  0  0  0  0  0  0  0
  -19.0645    4.9000    0.0000 H   0  0  0  0  0  0  0  0  0  0  0  0
  -21.0895    1.0958    0.0000 H   0  0  0  0  0  0  0  0  0  0  0  0
  -20.5587    2.7995    0.0000 H   0  0  0  0  0  0  0  0  0  0  0  0
  -20.5957   -0.8397    0.0000 H   0  0  0  0  0  0  0  0  0  0  0  0
  -18.7015   -1.2012    0.0000 H   0  0  0  0  0  0  0  0  0  0  0  0
  -17.9670    0.4251    0.0000 H   0  0  0  0  0  0  0  0  0  0  0  0
  1  2  1  0
  2  3  1  0
  3  4  1  0
  4  5  2  0
  4  6  1  0
  6  7  1  0
  7  8  1  0
  8  9  1  0
  9 10  1  0
  9 11  2  0
  7 12  1  0
 12 13  2  0
 12 14  1  0
 14 15  1  0
 15 16  1  0
 16 17  1  0
 17 18  1  0
 18 19  2  0
 18 20  1  0
 15 21  1  0
 21 22  2  0
 21 23  1  0
 23 24  1  0
 24 25  1  0
 25 26  1  0
 26 27  1  0
 26 28  1  0
 24 29  1  0
 29 30  2  0
 29 31  1  0
 31 32  1  0
 32 33  1  0
 33 34  1  0
 34 35  1  0
 35 36  1  0
 36 37  1  0
 32 38  1  0
 38 39  2  0
 38 40  1  0
 40 41  1  0
 41 42  1  0
 42 43  1  0
 43 44  1  0
 44 45  1  0
 45 46  1  0
 46 47  2  3
 46 48  1  0
 41 49  1  0
 49 50  2  0
 49 51  1  0
 51 52  1  0
 52 53  1  0
 53 54  1  0
 52 55  1  0
 55 56  2  0
 55 57  1  0
 57 58  1  0
 58 59  1  0
 59 60  1  0
 60 61  2  0
 61 62  1  0
 62 63  2  0
 63 64  1  0
 64 65  2  0
 58 66  1  0
 66 67  2  0
 66 68  1  0
 68 69  1  0
 69 70  1  0
 70 71  1  0
 71 72  2  0
 72 73  1  0
 73 74  2  0
 74 75  1  0
 75 76  2  0
 69 77  1  0
 77 78  2  0
 77 79  1  0
 79 80  1  0
 80 81  1  0
 80 82  1  0
 82 83  2  0
 82 84  1  0
 84 85  1  0
 85 86  1  0
 86 87  1  0
 87 88  1  0
 87 89  1  0
 85 90  1  0
 90 91  2  0
 90 92  1  0
 92 93  1  0
 93 94  1  0
 94 95  1  0
 95 96  1  0
 96 97  1  0
 97 98  1  0
 98 99  2  3
 98100  1  0
 93101  1  0
101102  2  0
101103  1  0
103104  1  0
104105  1  0
105106  1  0
106107  2  0
106108  1  0
104109  1  0
109110  2  0
109111  1  0
111112  1  0
112113  1  0
113114  1  0
114115  1  0
115116  1  0
115117  2  0
112118  1  0
118119  2  0
118120  1  0
120121  1  0
121122  1  0
122123  1  0
122124  1  0
124125  1  0
121126  1  0
126127  2  0
126128  1  0
 65 60  1  0
 76 71  1  0
  1129  1  0
  1130  1  0
  2131  1  0
  2132  1  0
  3133  1  0
  3134  1  0
  6135  1  0
  7136  1  6
  8137  1  0
  8138  1  0
 10139  1  0
 10140  1  0
 14141  1  0
 15142  1  6
 16143  1  0
 16144  1  0
 17145  1  0
 17146  1  0
 23147  1  0
 24148  1  1
 25149  1  0
 25150  1  0
 26151  1  0
 27152  1  0
 27153  1  0
 27154  1  0
 28155  1  0
 28156  1  0
 28157  1  0
 31158  1  0
 32159  1  1
 33160  1  0
 33161  1  0
 34162  1  0
 34163  1  0
 35164  1  0
 35165  1  0
 36166  1  0
 36167  1  0
 37168  1  0
 37169  1  0
 37170  1  0
 40171  1  0
 41172  1  6
 42173  1  0
 42174  1  0
 43175  1  0
 43176  1  0
 44177  1  0
 44178  1  0
 45179  1  0
 47180  1  0
 47181  1  0
 48182  1  0
 48183  1  0
 51184  1  0
 52185  1  6
 53186  1  0
 53187  1  0
 54188  1  0
 57189  1  0
 58190  1  1
 59191  1  0
 59192  1  0
 61193  1  0
 62194  1  0
 63195  1  0
 64196  1  0
 65197  1  0
 68198  1  0
 69199  1  1
 70200  1  0
 70201  1  0
 72202  1  0
 73203  1  0
 74204  1  0
 75205  1  0
 76206  1  0
 79207  1  0
 80208  1  6
 81209  1  0
 81210  1  0
 81211  1  0
 84212  1  0
 85213  1  1
 86214  1  0
 86215  1  0
 87216  1  0
 88217  1  0
 88218  1  0
 88219  1  0
 89220  1  0
 89221  1  0
 89222  1  0
 92223  1  0
 93224  1  6
 94225  1  0
 94226  1  0
 95227  1  0
 95228  1  0
 96229  1  0
 96230  1  0
 97231  1  0
 99232  1  0
 99233  1  0
100234  1  0
100235  1  0
103236  1  0
104237  1  1
105238  1  0
105239  1  0
111240  1  0
112241  1  6
113242  1  0
113243  1  0
114244  1  0
114245  1  0
116246  1  0
116247  1  0
120248  1  0
121249  1  1
122250  1  1
123251  1  0
123252  1  0
123253  1  0
124254  1  0
124255  1  0
125256  1  0
125257  1  0
125258  1  0
M  CHG  6  20  -1  37   1  47   1  99   1 108  -1 128  -1
M  END
