
     RDKit          2D

457462  0  0  0  0  0  0  0  0999 V2000
   47.5008   -6.3887    0.0000 C   0  0  0  0  0  0  0  0  0  0  0  0
   48.9498   -6.0008    0.0000 N   0  0  0  0  0  0  0  0  0  0  0  0
   50.0102   -7.0616    0.0000 C   0  0  0  0  0  0  0  0  0  0  0  0
   49.6217   -8.5104    0.0000 C   0  0  0  0  0  0  0  0  0  0  0  0
   50.6821   -9.5713    0.0000 C   0  0  0  0  0  0  0  0  0  0  0  0
   52.1311   -9.1834    0.0000 C   0  0  0  0  0  0  0  0  0  0  0  0
   52.5196   -7.7346    0.0000 C   0  0  0  0  0  0  0  0  0  0  0  0
   51.4592   -6.6737    0.0000 C   0  0  0  0  0  0  0  0  0  0  0  0
   54.0176   -7.6564    0.0000 C   0  0  0  0  0  0  0  0  0  0  0  0
   54.5548   -9.0569    0.0000 O   0  0  0  0  0  0  0  0  0  0  0  0
   53.3889  -10.0006    0.0000 C   0  0  0  0  0  0  0  0  0  0  0  0
   53.4671  -11.4986    0.0000 O   0  0  0  0  0  0  0  0  0  0  0  0
   55.5155   -7.7352    0.0000 C   0  0  0  0  0  0  0  0  0  0  0  0
   56.3327   -6.4774    0.0000 C   0  0  0  0  0  0  0  0  0  0  0  0
   57.8307   -6.5562    0.0000 C   0  0  0  0  0  0  0  0  0  0  0  0
   58.5114   -7.8928    0.0000 C   0  0  0  0  0  0  0  0  0  0  0  0
   57.6941   -9.1507    0.0000 C   0  0  0  0  0  0  0  0  0  0  0  0
   56.1962   -9.0719    0.0000 C   0  0  0  0  0  0  0  0  0  0  0  0
   60.0093   -7.9717    0.0000 O   0  0  0  0  0  0  0  0  0  0  0  0
   55.6520   -5.1407    0.0000 O   0  0  0  0  0  0  0  0  0  0  0  0
   54.1541   -5.0619    0.0000 C   0  0  0  0  0  0  0  0  0  0  0  0
   53.3369   -6.3197    0.0000 C   0  0  0  0  0  0  0  0  0  0  0  0
   52.2203   -5.6539    0.0000 C   0  0  0  0  0  0  0  0  0  0  0  0
   51.8573   -4.9411    0.0000 C   0  0  0  0  0  0  0  0  0  0  0  0
   52.2931   -4.2702    0.0000 C   0  0  0  0  0  0  0  0  0  0  0  0
   53.0920   -4.3122    0.0000 C   0  0  0  0  0  0  0  0  0  0  0  0
   51.2947   -2.3098    0.0000 O   0  0  0  0  0  0  0  0  0  0  0  0
   47.1123   -7.8375    0.0000 S   0  0  0  0  0  0  0  0  0  0  0  0
   46.4404   -5.3278    0.0000 N   0  0  0  0  0  0  0  0  0  0  0  0
   44.9914   -5.7157    0.0000 C   0  0  0  0  0  0  0  0  0  0  0  0
   43.9309   -4.6548    0.0000 C   0  0  0  0  0  0  0  0  0  0  0  0
   42.4820   -5.0428    0.0000 C   0  0  0  0  0  0  0  0  0  0  0  0
   42.0934   -6.4916    0.0000 O   0  0  0  0  0  0  0  0  0  0  0  0
   41.4215   -3.9819    0.0000 N   0  0  0  0  0  0  0  0  0  0  0  0
   39.9726   -4.3698    0.0000 C   0  0  0  0  0  0  0  0  0  0  0  0
   38.7437   -5.2299    0.0000 C   0  0  0  0  0  0  0  0  0  0  0  0
   37.2473   -5.1251    0.0000 O   0  0  0  0  0  0  0  0  0  0  0  0
   38.9121   -3.3089    0.0000 C   0  0  0  0  0  0  0  0  0  0  0  0
   39.3007   -1.8601    0.0000 O   0  0  0  0  0  0  0  0  0  0  0  0
   37.4632   -3.6969    0.0000 N   0  0  0  0  0  0  0  0  0  0  0  0
   36.4027   -2.6360    0.0000 C   0  0  0  0  0  0  0  0  0  0  0  0
   35.7691   -1.2764    0.0000 C   0  0  0  0  0  0  0  0  0  0  0  0
   36.6297   -0.0478    0.0000 C   0  0  0  0  0  0  0  0  0  0  0  0
   35.9960    1.3117    0.0000 C   0  0  0  0  0  0  0  0  0  0  0  0
   36.8567    2.5403    0.0000 O   0  0  0  0  0  0  0  0  0  0  0  0
   34.5018    1.4428    0.0000 O   0  0  0  0  0  0  0  0  0  0  0  0
   34.9537   -3.0239    0.0000 C   0  0  0  0  0  0  0  0  0  0  0  0
   34.5652   -4.4727    0.0000 O   0  0  0  0  0  0  0  0  0  0  0  0
   33.8933   -1.9630    0.0000 N   0  0  0  0  0  0  0  0  0  0  0  0
   32.4443   -2.3510    0.0000 C   0  0  0  0  0  0  0  0  0  0  0  0
   31.2154   -3.2111    0.0000 C   0  0  0  0  0  0  0  0  0  0  0  0
   29.8561   -2.5769    0.0000 C   0  0  0  0  0  0  0  0  0  0  0  0
   28.6272   -3.4370    0.0000 C   0  0  0  0  0  0  0  0  0  0  0  0
   27.4717   -3.0613    0.0000 O   0  0  0  0  0  0  0  0  0  0  0  0
   28.7576   -4.9313    0.0000 O   0  0  0  0  0  0  0  0  0  0  0  0
   31.3839   -1.2901    0.0000 C   0  0  0  0  0  0  0  0  0  0  0  0
   31.7724    0.1587    0.0000 O   0  0  0  0  0  0  0  0  0  0  0  0
   29.9349   -1.6780    0.0000 N   0  0  0  0  0  0  0  0  0  0  0  0
   28.8745   -0.6171    0.0000 C   0  0  0  0  0  0  0  0  0  0  0  0
   28.2408    0.7425    0.0000 C   0  0  0  0  0  0  0  0  0  0  0  0
   29.1015    1.9710    0.0000 C   0  0  0  0  0  0  0  0  0  0  0  0
   28.4678    3.3306    0.0000 C   0  0  0  0  0  0  0  0  0  0  0  0
   30.3304    2.8311    0.0000 C   0  0  0  0  0  0  0  0  0  0  0  0
   27.4255   -1.0051    0.0000 C   0  0  0  0  0  0  0  0  0  0  0  0
   26.9701   -2.1315    0.0000 O   0  0  0  0  0  0  0  0  0  0  0  0
   26.3651    0.0558    0.0000 N   0  0  0  0  0  0  0  0  0  0  0  0
   24.9161   -0.3321    0.0000 C   0  0  0  0  0  0  0  0  0  0  0  0
   23.6872   -1.1922    0.0000 C   0  0  0  0  0  0  0  0  0  0  0  0
   22.2607   -0.7284    0.0000 C   0  0  0  0  0  0  0  0  0  0  0  0
   23.8557    0.7288    0.0000 C   0  0  0  0  0  0  0  0  0  0  0  0
   24.2442    2.1776    0.0000 O   0  0  0  0  0  0  0  0  0  0  0  0
   22.4067    0.3408    0.0000 N   0  0  0  0  0  0  0  0  0  0  0  0
   21.3463    1.4017    0.0000 C   0  0  0  0  0  0  0  0  0  0  0  0
   20.7126    2.7613    0.0000 C   0  0  0  0  0  0  0  0  0  0  0  0
   19.8973    1.0138    0.0000 C   0  0  0  0  0  0  0  0  0  0  0  0
   19.5088   -0.4350    0.0000 O   0  0  0  0  0  0  0  0  0  0  0  0
   18.8369    2.0747    0.0000 N   0  0  0  0  0  0  0  0  0  0  0  0
   17.3879    1.6867    0.0000 C   0  0  0  0  0  0  0  0  0  0  0  0
   16.1590    0.8266    0.0000 C   0  0  0  0  0  0  0  0  0  0  0  0
   14.7996    1.4608    0.0000 C   0  0  0  0  0  0  0  0  0  0  0  0
   13.5707    0.6007    0.0000 C   0  0  0  0  0  0  0  0  0  0  0  0
   12.5798    1.0631    0.0000 O   0  0  0  0  0  0  0  0  0  0  0  0
   13.7012   -0.8936    0.0000 O   0  0  0  0  0  0  0  0  0  0  0  0
   16.3274    2.7476    0.0000 C   0  0  0  0  0  0  0  0  0  0  0  0
   16.7160    4.1964    0.0000 O   0  0  0  0  0  0  0  0  0  0  0  0
   14.8785    2.3597    0.0000 N   0  0  0  0  0  0  0  0  0  0  0  0
   13.8180    3.4206    0.0000 C   0  0  0  0  0  0  0  0  0  0  0  0
   13.1844    4.7802    0.0000 C   0  0  0  0  0  0  0  0  0  0  0  0
   12.3691    3.0327    0.0000 C   0  0  0  0  0  0  0  0  0  0  0  0
   12.0858    1.9765    0.0000 O   0  0  0  0  0  0  0  0  0  0  0  0
   11.3086    4.0935    0.0000 N   0  0  0  0  0  0  0  0  0  0  0  0
    9.8597    3.7056    0.0000 C   0  0  0  0  0  0  0  0  0  0  0  0
    9.1918    2.3625    0.0000 C   0  0  0  0  0  0  0  0  0  0  0  0
    8.1576    1.2759    0.0000 C   0  0  0  0  0  0  0  0  0  0  0  0
    6.8492    0.5425    0.0000 C   0  0  0  0  0  0  0  0  0  0  0  0
    5.3827    0.2273    0.0000 C   0  0  0  0  0  0  0  0  0  0  0  0
   10.9437    2.6688    0.0000 C   0  0  0  0  0  0  0  0  0  0  0  0
   10.1020    5.1859    0.0000 C   0  0  0  0  0  0  0  0  0  0  0  0
   11.5619    5.5304    0.0000 O   0  0  0  0  0  0  0  0  0  0  0  0
    9.8973    6.6719    0.0000 N   0  0  0  0  0  0  0  0  0  0  0  0
    9.2636    8.0315    0.0000 C   0  0  0  0  0  0  0  0  0  0  0  0
    9.8637    9.4062    0.0000 C   0  0  0  0  0  0  0  0  0  0  0  0
   11.3543    9.5738    0.0000 C   0  0  0  0  0  0  0  0  0  0  0  0
   11.9545   10.9485    0.0000 N   0  0  0  0  0  0  0  0  0  0  0  0
   12.2448    8.3667    0.0000 O   0  0  0  0  0  0  0  0  0  0  0  0
    8.2574    9.1439    0.0000 C   0  0  0  0  0  0  0  0  0  0  0  0
    9.2074   10.3047    0.0000 O   0  0  0  0  0  0  0  0  0  0  0  0
    6.9679    9.9103    0.0000 N   0  0  0  0  0  0  0  0  0  0  0  0
    5.5099   10.2626    0.0000 C   0  0  0  0  0  0  0  0  0  0  0  0
    4.8093   11.5889    0.0000 C   0  0  0  0  0  0  0  0  0  0  0  0
    5.6076   12.8588    0.0000 C   0  0  0  0  0  0  0  0  0  0  0  0
    4.9070   14.1851    0.0000 C   0  0  0  0  0  0  0  0  0  0  0  0
    6.7921   13.7791    0.0000 C   0  0  0  0  0  0  0  0  0  0  0  0
    4.0128   10.1694    0.0000 C   0  0  0  0  0  0  0  0  0  0  0  0
    3.6976   11.6359    0.0000 O   0  0  0  0  0  0  0  0  0  0  0  0
    2.6096    9.6392    0.0000 N   0  0  0  0  0  0  0  0  0  0  0  0
    1.4251    8.7189    0.0000 C   0  0  0  0  0  0  0  0  0  0  0  0
   -0.0487    8.9980    0.0000 C   0  0  0  0  0  0  0  0  0  0  0  0
   -0.5438   10.4140    0.0000 S   0  0  0  0  0  0  0  0  0  0  0  0
    0.5645    7.4903    0.0000 C   0  0  0  0  0  0  0  0  0  0  0  0
   -0.7786    8.1582    0.0000 O   0  0  0  0  0  0  0  0  0  0  0  0
    0.1043    6.0627    0.0000 N   0  0  0  0  0  0  0  0  0  0  0  0
    0.0852    4.5628    0.0000 C   0  0  0  0  0  0  0  0  0  0  0  0
    0.5092    3.1240    0.0000 C   0  0  0  0  0  0  0  0  0  0  0  0
    1.3384    1.8740    0.0000 C   0  0  0  0  0  0  0  0  0  0  0  0
    2.4992    0.9240    0.0000 C   0  0  0  0  0  0  0  0  0  0  0  0
    3.8884    0.3583    0.0000 C   0  0  0  0  0  0  0  0  0  0  0  0
   -1.2741    5.1970    0.0000 C   0  0  0  0  0  0  0  0  0  0  0  0
   -1.0519    3.5846    0.0000 C   0  0  0  0  0  0  0  0  0  0  0  0
   -1.1383    2.0871    0.0000 O   0  0  0  0  0  0  0  0  0  0  0  0
   -2.4676    4.0803    0.0000 N   0  0  0  0  0  0  0  0  0  0  0  0
   -3.6048    3.1021    0.0000 C   0  0  0  0  0  0  0  0  0  0  0  0
   -4.3388    1.7940    0.0000 C   0  0  0  0  0  0  0  0  0  0  0  0
   -5.8387    1.7756    0.0000 C   0  0  0  0  0  0  0  0  0  0  0  0
   -6.5727    0.4675    0.0000 C   0  0  0  0  0  0  0  0  0  0  0  0
   -7.2544    2.2713    0.0000 C   0  0  0  0  0  0  0  0  0  0  0  0
   -5.0205    3.5978    0.0000 C   0  0  0  0  0  0  0  0  0  0  0  0
   -5.2991    5.0717    0.0000 O   0  0  0  0  0  0  0  0  0  0  0  0
   -6.1577    2.6196    0.0000 N   0  0  0  0  0  0  0  0  0  0  0  0
   -7.5734    3.1154    0.0000 C   0  0  0  0  0  0  0  0  0  0  0  0
   -8.7342    4.0654    0.0000 C   0  0  0  0  0  0  0  0  0  0  0  0
   -8.4919    5.5457    0.0000 C   0  0  0  0  0  0  0  0  0  0  0  0
   -9.6527    6.4957    0.0000 C   0  0  0  0  0  0  0  0  0  0  0  0
   -7.7578    6.8538    0.0000 C   0  0  0  0  0  0  0  0  0  0  0  0
   -8.7106    2.1372    0.0000 C   0  0  0  0  0  0  0  0  0  0  0  0
   -8.6137    0.6403    0.0000 O   0  0  0  0  0  0  0  0  0  0  0  0
  -10.1263    2.6329    0.0000 N   0  0  0  0  0  0  0  0  0  0  0  0
  -11.2634    1.6547    0.0000 C   0  0  0  0  0  0  0  0  0  0  0  0
  -11.9975    0.3465    0.0000 C   0  0  0  0  0  0  0  0  0  0  0  0
  -13.4974    0.3282    0.0000 C   0  0  0  0  0  0  0  0  0  0  0  0
  -14.2314   -0.9800    0.0000 C   0  0  0  0  0  0  0  0  0  0  0  0
  -15.4354   -1.1429    0.0000 O   0  0  0  0  0  0  0  0  0  0  0  0
  -13.4655   -2.2697    0.0000 O   0  0  0  0  0  0  0  0  0  0  0  0
  -12.6792    2.1504    0.0000 C   0  0  0  0  0  0  0  0  0  0  0  0
  -12.9577    3.6243    0.0000 O   0  0  0  0  0  0  0  0  0  0  0  0
  -13.8163    1.1722    0.0000 N   0  0  0  0  0  0  0  0  0  0  0  0
  -15.2321    1.6679    0.0000 C   0  0  0  0  0  0  0  0  0  0  0  0
  -16.3929    2.6179    0.0000 C   0  0  0  0  0  0  0  0  0  0  0  0
  -16.1505    4.0982    0.0000 C   0  0  0  0  0  0  0  0  0  0  0  0
  -17.3113    5.0482    0.0000 N   0  0  0  0  0  0  0  0  0  0  0  0
  -14.7474    4.6285    0.0000 O   0  0  0  0  0  0  0  0  0  0  0  0
  -16.3692    0.6897    0.0000 C   0  0  0  0  0  0  0  0  0  0  0  0
  -16.2908   -0.5228    0.0000 O   0  0  0  0  0  0  0  0  0  0  0  0
  -17.7849    1.1854    0.0000 N   0  0  0  0  0  0  0  0  0  0  0  0
  -18.9221    0.2072    0.0000 C   0  0  0  0  0  0  0  0  0  0  0  0
  -19.6561   -1.1009    0.0000 C   0  0  0  0  0  0  0  0  0  0  0  0
  -20.3378    0.7029    0.0000 C   0  0  0  0  0  0  0  0  0  0  0  0
  -20.6164    2.1768    0.0000 O   0  0  0  0  0  0  0  0  0  0  0  0
  -21.4750   -0.2753    0.0000 N   0  0  0  0  0  0  0  0  0  0  0  0
  -22.8907    0.2205    0.0000 C   0  0  0  0  0  0  0  0  0  0  0  0
  -24.0515    1.1705    0.0000 C   0  0  0  0  0  0  0  0  0  0  0  0
  -23.6305    2.6102    0.0000 C   0  0  0  0  0  0  0  0  0  0  0  0
  -25.4672    1.6662    0.0000 C   0  0  0  0  0  0  0  0  0  0  0  0
  -25.7458    3.1401    0.0000 C   0  0  0  0  0  0  0  0  0  0  0  0
  -24.0279   -0.7577    0.0000 C   0  0  0  0  0  0  0  0  0  0  0  0
  -23.7493   -2.2316    0.0000 O   0  0  0  0  0  0  0  0  0  0  0  0
  -25.4436   -0.2620    0.0000 N   0  0  0  0  0  0  0  0  0  0  0  0
  -26.5807   -1.2402    0.0000 C   0  0  0  0  0  0  0  0  0  0  0  0
  -27.3148   -2.5484    0.0000 C   0  0  0  0  0  0  0  0  0  0  0  0
  -28.8147   -2.5667    0.0000 C   0  0  0  0  0  0  0  0  0  0  0  0
  -29.5487   -3.8749    0.0000 C   0  0  0  0  0  0  0  0  0  0  0  0
  -31.0351   -4.0760    0.0000 N   0  0  0  0  0  0  0  0  0  0  0  0
  -28.7828   -5.1646    0.0000 O   0  0  0  0  0  0  0  0  0  0  0  0
  -27.9965   -0.7445    0.0000 C   0  0  0  0  0  0  0  0  0  0  0  0
  -28.2750    0.7294    0.0000 O   0  0  0  0  0  0  0  0  0  0  0  0
  -29.1336   -1.7227    0.0000 N   0  0  0  0  0  0  0  0  0  0  0  0
  -30.5493   -1.2270    0.0000 C   0  0  0  0  0  0  0  0  0  0  0  0
  -31.7101   -0.2770    0.0000 C   0  0  0  0  0  0  0  0  0  0  0  0
  -31.4678    1.2033    0.0000 C   0  0  0  0  0  0  0  0  0  0  0  0
  -32.6286    2.1533    0.0000 O   0  0  0  0  0  0  0  0  0  0  0  0
  -30.0647    1.7336    0.0000 O   0  0  0  0  0  0  0  0  0  0  0  0
  -31.6865   -2.2052    0.0000 C   0  0  0  0  0  0  0  0  0  0  0  0
  -31.6159   -3.2964    0.0000 O   0  0  0  0  0  0  0  0  0  0  0  0
  -33.1022   -1.7095    0.0000 N   0  0  0  0  0  0  0  0  0  0  0  0
  -34.2394   -2.6877    0.0000 C   0  0  0  0  0  0  0  0  0  0  0  0
  -34.9734   -3.9958    0.0000 C   0  0  0  0  0  0  0  0  0  0  0  0
  -35.2158   -5.4761    0.0000 O   0  0  0  0  0  0  0  0  0  0  0  0
  -36.4599   -4.1969    0.0000 C   0  0  0  0  0  0  0  0  0  0  0  0
  -35.6551   -2.1920    0.0000 C   0  0  0  0  0  0  0  0  0  0  0  0
  -35.9337   -0.7181    0.0000 O   0  0  0  0  0  0  0  0  0  0  0  0
  -36.7923   -3.1702    0.0000 N   0  0  0  0  0  0  0  0  0  0  0  0
  -38.2080   -2.6744    0.0000 C   0  0  0  0  0  0  0  0  0  0  0  0
  -39.3688   -1.7244    0.0000 C   0  0  0  0  0  0  0  0  0  0  0  0
  -39.1265   -0.2441    0.0000 C   0  0  0  0  0  0  0  0  0  0  0  0
  -39.3452   -3.6526    0.0000 C   0  0  0  0  0  0  0  0  0  0  0  0
  -39.0666   -5.1265    0.0000 O   0  0  0  0  0  0  0  0  0  0  0  0
  -40.7609   -3.1569    0.0000 N   0  0  0  0  0  0  0  0  0  0  0  0
  -41.8980   -4.1351    0.0000 C   0  0  0  0  0  0  0  0  0  0  0  0
  -42.6321   -5.4433    0.0000 C   0  0  0  0  0  0  0  0  0  0  0  0
  -44.1319   -5.4616    0.0000 C   0  0  0  0  0  0  0  0  0  0  0  0
  -44.8660   -6.7698    0.0000 C   0  0  0  0  0  0  0  0  0  0  0  0
  -46.3659   -6.7882    0.0000 N   0  0  0  0  0  0  0  0  0  0  0  0
  -47.0999   -8.0963    0.0000 C   0  0  0  0  0  0  0  0  0  0  0  0
  -48.5908   -7.9317    0.0000 N   0  0  0  0  0  0  0  0  0  0  0  0
  -46.3340   -9.3860    0.0000 N   0  0  0  0  0  0  0  0  0  0  0  0
  -43.3138   -3.6394    0.0000 C   0  0  0  0  0  0  0  0  0  0  0  0
  -43.5923   -2.1655    0.0000 O   0  0  0  0  0  0  0  0  0  0  0  0
  -44.4509   -4.6176    0.0000 N   0  0  0  0  0  0  0  0  0  0  0  0
  -45.8666   -4.1219    0.0000 C   0  0  0  0  0  0  0  0  0  0  0  0
  -47.0274   -3.1719    0.0000 C   0  0  0  0  0  0  0  0  0  0  0  0
  -46.7851   -1.6916    0.0000 C   0  0  0  0  0  0  0  0  0  0  0  0
  -47.9459   -0.7415    0.0000 C   0  0  0  0  0  0  0  0  0  0  0  0
  -47.7036    0.7387    0.0000 O   0  0  0  0  0  0  0  0  0  0  0  0
  -49.3490   -1.2718    0.0000 O   0  0  0  0  0  0  0  0  0  0  0  0
  -47.0038   -5.1001    0.0000 C   0  0  0  0  0  0  0  0  0  0  0  0
  -47.0668   -6.1918    0.0000 O   0  0  0  0  0  0  0  0  0  0  0  0
  -48.4195   -4.6044    0.0000 N   0  0  0  0  0  0  0  0  0  0  0  0
  -49.5567   -5.5826    0.0000 C   0  0  0  0  0  0  0  0  0  0  0  0
  -50.2907   -6.8907    0.0000 C   0  0  0  0  0  0  0  0  0  0  0  0
  -51.7906   -6.9091    0.0000 C   0  0  0  0  0  0  0  0  0  0  0  0
  -52.5246   -8.2172    0.0000 C   0  0  0  0  0  0  0  0  0  0  0  0
  -54.0245   -8.2356    0.0000 N   0  0  0  0  0  0  0  0  0  0  0  0
  -51.7587   -9.5070    0.0000 O   0  0  0  0  0  0  0  0  0  0  0  0
  -50.9724   -5.0869    0.0000 C   0  0  0  0  0  0  0  0  0  0  0  0
  -52.2203   -5.9191    0.0000 O   0  0  0  0  0  0  0  0  0  0  0  0
  -51.2510   -3.6129    0.0000 O   0  0  0  0  0  0  0  0  0  0  0  0
   49.1588   -4.5154    0.0000 H   0  0  0  0  0  0  0  0  0  0  0  0
   48.1727   -8.8984    0.0000 H   0  0  0  0  0  0  0  0  0  0  0  0
   50.2936  -11.0201    0.0000 H   0  0  0  0  0  0  0  0  0  0  0  0
   51.4829   -5.3239    0.0000 H   0  0  0  0  0  0  0  0  0  0  0  0
   58.6479   -5.2984    0.0000 H   0  0  0  0  0  0  0  0  0  0  0  0
   58.3748  -10.4873    0.0000 H   0  0  0  0  0  0  0  0  0  0  0  0
   55.3790  -10.3297    0.0000 H   0  0  0  0  0  0  0  0  0  0  0  0
   60.6900   -9.3083    0.0000 H   0  0  0  0  0  0  0  0  0  0  0  0
   51.0217   -7.4988    0.0000 H   0  0  0  0  0  0  0  0  0  0  0  0
   49.6811   -4.6435    0.0000 H   0  0  0  0  0  0  0  0  0  0  0  0
   54.2906   -2.4674    0.0000 H   0  0  0  0  0  0  0  0  0  0  0  0
   52.1120   -1.0520    0.0000 H   0  0  0  0  0  0  0  0  0  0  0  0
   46.8289   -3.8790    0.0000 H   0  0  0  0  0  0  0  0  0  0  0  0
   43.7625   -6.5758    0.0000 H   0  0  0  0  0  0  0  0  0  0  0  0
   45.6250   -7.0753    0.0000 H   0  0  0  0  0  0  0  0  0  0  0  0
   43.2973   -3.2953    0.0000 H   0  0  0  0  0  0  0  0  0  0  0  0
   45.1599   -3.7947    0.0000 H   0  0  0  0  0  0  0  0  0  0  0  0
   41.8101   -2.5331    0.0000 H   0  0  0  0  0  0  0  0  0  0  0  0
   40.6062   -5.7294    0.0000 H   0  0  0  0  0  0  0  0  0  0  0  0
   37.8830   -6.4585    0.0000 H   0  0  0  0  0  0  0  0  0  0  0  0
   39.8041   -6.2908    0.0000 H   0  0  0  0  0  0  0  0  0  0  0  0
   36.1554   -5.4558    0.0000 H   0  0  0  0  0  0  0  0  0  0  0  0
   36.9009   -5.0875    0.0000 H   0  0  0  0  0  0  0  0  0  0  0  0
   37.7273   -1.9321    0.0000 H   0  0  0  0  0  0  0  0  0  0  0  0
   34.8459   -0.0942    0.0000 H   0  0  0  0  0  0  0  0  0  0  0  0
   34.3686   -1.8136    0.0000 H   0  0  0  0  0  0  0  0  0  0  0  0
   37.8586    0.8123    0.0000 H   0  0  0  0  0  0  0  0  0  0  0  0
   37.8115   -0.9716    0.0000 H   0  0  0  0  0  0  0  0  0  0  0  0
   33.8681    2.8024    0.0000 H   0  0  0  0  0  0  0  0  0  0  0  0
   34.1023   -0.4777    0.0000 H   0  0  0  0  0  0  0  0  0  0  0  0
   33.0780   -3.7106    0.0000 H   0  0  0  0  0  0  0  0  0  0  0  0
   30.3548   -4.4396    0.0000 H   0  0  0  0  0  0  0  0  0  0  0  0
   32.2759   -4.2720    0.0000 H   0  0  0  0  0  0  0  0  0  0  0  0
   28.7957   -1.5160    0.0000 H   0  0  0  0  0  0  0  0  0  0  0  0
   30.0391   -1.0881    0.0000 H   0  0  0  0  0  0  0  0  0  0  0  0
   27.5287   -5.7914    0.0000 H   0  0  0  0  0  0  0  0  0  0  0  0
   29.2074   -2.9898    0.0000 H   0  0  0  0  0  0  0  0  0  0  0  0
   30.1991    0.0868    0.0000 H   0  0  0  0  0  0  0  0  0  0  0  0
   27.1804    1.8033    0.0000 H   0  0  0  0  0  0  0  0  0  0  0  0
   26.8403    0.2053    0.0000 H   0  0  0  0  0  0  0  0  0  0  0  0
   30.2833    1.0473    0.0000 H   0  0  0  0  0  0  0  0  0  0  0  0
   29.1723    4.6549    0.0000 H   0  0  0  0  0  0  0  0  0  0  0  0
   27.4074    4.3915    0.0000 H   0  0  0  0  0  0  0  0  0  0  0  0
   27.1432    2.6267    0.0000 H   0  0  0  0  0  0  0  0  0  0  0  0
   30.3831    4.3302    0.0000 H   0  0  0  0  0  0  0  0  0  0  0  0
   31.7793    3.2190    0.0000 H   0  0  0  0  0  0  0  0  0  0  0  0
   30.9640    1.4715    0.0000 H   0  0  0  0  0  0  0  0  0  0  0  0
   26.5741    1.5412    0.0000 H   0  0  0  0  0  0  0  0  0  0  0  0
   25.5498   -1.6917    0.0000 H   0  0  0  0  0  0  0  0  0  0  0  0
   22.8266   -2.4208    0.0000 H   0  0  0  0  0  0  0  0  0  0  0  0
   24.7476   -2.2531    0.0000 H   0  0  0  0  0  0  0  0  0  0  0  0
   21.0990   -1.4181    0.0000 H   0  0  0  0  0  0  0  0  0  0  0  0
   21.2674    0.5029    0.0000 H   0  0  0  0  0  0  0  0  0  0  0  0
   22.5108    0.9308    0.0000 H   0  0  0  0  0  0  0  0  0  0  0  0
   21.8445   -1.0498    0.0000 H   0  0  0  0  0  0  0  0  0  0  0  0
   22.5752    2.2618    0.0000 H   0  0  0  0  0  0  0  0  0  0  0  0
   21.5732    3.9899    0.0000 H   0  0  0  0  0  0  0  0  0  0  0  0
   19.7894    3.9435    0.0000 H   0  0  0  0  0  0  0  0  0  0  0  0
   19.3121    2.2241    0.0000 H   0  0  0  0  0  0  0  0  0  0  0  0
   19.0459    3.5600    0.0000 H   0  0  0  0  0  0  0  0  0  0  0  0
   18.0215    0.3272    0.0000 H   0  0  0  0  0  0  0  0  0  0  0  0
   15.2984   -0.4019    0.0000 H   0  0  0  0  0  0  0  0  0  0  0  0
   17.2194   -0.2342    0.0000 H   0  0  0  0  0  0  0  0  0  0  0  0
   13.7392    2.5217    0.0000 H   0  0  0  0  0  0  0  0  0  0  0  0
   14.9826    2.9496    0.0000 H   0  0  0  0  0  0  0  0  0  0  0  0
   12.4723   -1.7537    0.0000 H   0  0  0  0  0  0  0  0  0  0  0  0
   14.1509    1.0480    0.0000 H   0  0  0  0  0  0  0  0  0  0  0  0
   15.0469    4.2807    0.0000 H   0  0  0  0  0  0  0  0  0  0  0  0
   14.0450    6.0087    0.0000 H   0  0  0  0  0  0  0  0  0  0  0  0
   12.4122    6.0661    0.0000 H   0  0  0  0  0  0  0  0  0  0  0  0
   11.8598    4.0763    0.0000 H   0  0  0  0  0  0  0  0  0  0  0  0
   11.6972    5.5423    0.0000 H   0  0  0  0  0  0  0  0  0  0  0  0
   10.6726    2.1238    0.0000 H   0  0  0  0  0  0  0  0  0  0  0  0
    9.7568    0.9730    0.0000 H   0  0  0  0  0  0  0  0  0  0  0  0
    9.4113    0.4524    0.0000 H   0  0  0  0  0  0  0  0  0  0  0  0
    8.4692   -0.1913    0.0000 H   0  0  0  0  0  0  0  0  0  0  0  0
    7.9383   -0.4890    0.0000 H   0  0  0  0  0  0  0  0  0  0  0  0
    6.5334   -0.9239    0.0000 H   0  0  0  0  0  0  0  0  0  0  0  0
    5.4758   -1.2699    0.0000 H   0  0  0  0  0  0  0  0  0  0  0  0
   10.6677    1.0259    0.0000 H   0  0  0  0  0  0  0  0  0  0  0  0
   12.0986    1.7780    0.0000 H   0  0  0  0  0  0  0  0  0  0  0  0
   12.0946    3.3113    0.0000 H   0  0  0  0  0  0  0  0  0  0  0  0
   11.3361    7.0958    0.0000 H   0  0  0  0  0  0  0  0  0  0  0  0
   10.7635    8.0498    0.0000 H   0  0  0  0  0  0  0  0  0  0  0  0
    9.9575   10.9032    0.0000 H   0  0  0  0  0  0  0  0  0  0  0  0
    8.5343   10.1008    0.0000 H   0  0  0  0  0  0  0  0  0  0  0  0
   13.4451   11.1162    0.0000 H   0  0  0  0  0  0  0  0  0  0  0  0
   11.0640   12.1556    0.0000 H   0  0  0  0  0  0  0  0  0  0  0  0
    7.5336   11.2995    0.0000 H   0  0  0  0  0  0  0  0  0  0  0  0
    6.5682   11.3256    0.0000 H   0  0  0  0  0  0  0  0  0  0  0  0
    3.5828   12.4525    0.0000 H   0  0  0  0  0  0  0  0  0  0  0  0
    3.4373   10.9826    0.0000 H   0  0  0  0  0  0  0  0  0  0  0  0
    6.8340   11.9952    0.0000 H   0  0  0  0  0  0  0  0  0  0  0  0
    5.5445   15.5429    0.0000 H   0  0  0  0  0  0  0  0  0  0  0  0
    3.7949   15.1918    0.0000 H   0  0  0  0  0  0  0  0  0  0  0  0
    3.6191   13.4161    0.0000 H   0  0  0  0  0  0  0  0  0  0  0  0
    6.7700   15.2789    0.0000 H   0  0  0  0  0  0  0  0  0  0  0  0
    8.2199   14.2388    0.0000 H   0  0  0  0  0  0  0  0  0  0  0  0
    7.4927   12.4528    0.0000 H   0  0  0  0  0  0  0  0  0  0  0  0
    1.8762   10.9476    0.0000 H   0  0  0  0  0  0  0  0  0  0  0  0
    1.0735   10.1771    0.0000 H   0  0  0  0  0  0  0  0  0  0  0  0
   -1.5290    8.7563    0.0000 H   0  0  0  0  0  0  0  0  0  0  0  0
   -0.4300    7.5473    0.0000 H   0  0  0  0  0  0  0  0  0  0  0  0
   -2.0176   10.6931    0.0000 H   0  0  0  0  0  0  0  0  0  0  0  0
   -1.3760    6.3050    0.0000 H   0  0  0  0  0  0  0  0  0  0  0  0
   -0.2891    1.8540    0.0000 H   0  0  0  0  0  0  0  0  0  0  0  0
   -0.9822    2.9637    0.0000 H   0  0  0  0  0  0  0  0  0  0  0  0
    0.7761    0.4833    0.0000 H   0  0  0  0  0  0  0  0  0  0  0  0
   -0.0395    1.2812    0.0000 H   0  0  0  0  0  0  0  0  0  0  0  0
    2.5550   -0.5750    0.0000 H   0  0  0  0  0  0  0  0  0  0  0  0
    1.2472    0.0978    0.0000 H   0  0  0  0  0  0  0  0  0  0  0  0
    3.5361   -1.0997    0.0000 H   0  0  0  0  0  0  0  0  0  0  0  0
   -2.6746    4.6598    0.0000 H   0  0  0  0  0  0  0  0  0  0  0  0
   -2.1973    6.3792    0.0000 H   0  0  0  0  0  0  0  0  0  0  0  0
   -0.7363    6.5973    0.0000 H   0  0  0  0  0  0  0  0  0  0  0  0
   -2.9238    5.5093    0.0000 H   0  0  0  0  0  0  0  0  0  0  0  0
   -2.4440    2.1521    0.0000 H   0  0  0  0  0  0  0  0  0  0  0  0
   -4.3989    0.2952    0.0000 H   0  0  0  0  0  0  0  0  0  0  0  0
   -2.9231    1.2983    0.0000 H   0  0  0  0  0  0  0  0  0  0  0  0
   -6.3198    3.1963    0.0000 H   0  0  0  0  0  0  0  0  0  0  0  0
   -8.0236    0.0867    0.0000 H   0  0  0  0  0  0  0  0  0  0  0  0
   -6.8151   -1.0128    0.0000 H   0  0  0  0  0  0  0  0  0  0  0  0
   -5.2280   -0.1971    0.0000 H   0  0  0  0  0  0  0  0  0  0  0  0
   -7.8814    3.6340    0.0000 H   0  0  0  0  0  0  0  0  0  0  0  0
   -8.6481    1.7165    0.0000 H   0  0  0  0  0  0  0  0  0  0  0  0
   -7.6754    0.8316    0.0000 H   0  0  0  0  0  0  0  0  0  0  0  0
   -6.2440    1.1221    0.0000 H   0  0  0  0  0  0  0  0  0  0  0  0
   -6.6854    4.3243    0.0000 H   0  0  0  0  0  0  0  0  0  0  0  0
  -10.1499    4.5611    0.0000 H   0  0  0  0  0  0  0  0  0  0  0  0
   -9.8883    3.1073    0.0000 H   0  0  0  0  0  0  0  0  0  0  0  0
   -7.0263    5.2262    0.0000 H   0  0  0  0  0  0  0  0  0  0  0  0
   -9.5926    7.9945    0.0000 H   0  0  0  0  0  0  0  0  0  0  0  0
  -11.0684    6.9914    0.0000 H   0  0  0  0  0  0  0  0  0  0  0  0
  -10.5407    5.2868    0.0000 H   0  0  0  0  0  0  0  0  0  0  0  0
   -8.3608    8.2273    0.0000 H   0  0  0  0  0  0  0  0  0  0  0  0
   -6.6207    7.8320    0.0000 H   0  0  0  0  0  0  0  0  0  0  0  0
   -6.5970    5.9038    0.0000 H   0  0  0  0  0  0  0  0  0  0  0  0
  -10.5824    4.0618    0.0000 H   0  0  0  0  0  0  0  0  0  0  0  0
  -10.1026    0.7047    0.0000 H   0  0  0  0  0  0  0  0  0  0  0  0
  -12.2398   -1.1338    0.0000 H   0  0  0  0  0  0  0  0  0  0  0  0
  -10.5817   -0.1492    0.0000 H   0  0  0  0  0  0  0  0  0  0  0  0
  -14.9131    0.8239    0.0000 H   0  0  0  0  0  0  0  0  0  0  0  0
  -13.9785    1.7489    0.0000 H   0  0  0  0  0  0  0  0  0  0  0  0
  -14.1995   -3.5779    0.0000 H   0  0  0  0  0  0  0  0  0  0  0  0
  -13.9027   -0.3253    0.0000 H   0  0  0  0  0  0  0  0  0  0  0  0
  -14.4980    2.9760    0.0000 H   0  0  0  0  0  0  0  0  0  0  0  0
  -17.7376    3.2825    0.0000 H   0  0  0  0  0  0  0  0  0  0  0  0
  -17.4216    1.5263    0.0000 H   0  0  0  0  0  0  0  0  0  0  0  0
  -17.0690    6.5285    0.0000 H   0  0  0  0  0  0  0  0  0  0  0  0
  -18.7145    4.5180    0.0000 H   0  0  0  0  0  0  0  0  0  0  0  0
  -18.2411    2.6144    0.0000 H   0  0  0  0  0  0  0  0  0  0  0  0
  -17.7613   -0.7428    0.0000 H   0  0  0  0  0  0  0  0  0  0  0  0
  -21.0497   -1.6557    0.0000 H   0  0  0  0  0  0  0  0  0  0  0  0
  -19.8985   -2.5812    0.0000 H   0  0  0  0  0  0  0  0  0  0  0  0
  -18.2404   -1.5966    0.0000 H   0  0  0  0  0  0  0  0  0  0  0  0
  -21.3782   -1.7721    0.0000 H   0  0  0  0  0  0  0  0  0  0  0  0
  -22.0027    1.4294    0.0000 H   0  0  0  0  0  0  0  0  0  0  0  0
  -25.0802    0.0788    0.0000 H   0  0  0  0  0  0  0  0  0  0  0  0
  -24.8392    3.7567    0.0000 H   0  0  0  0  0  0  0  0  0  0  0  0
  -23.0751    3.9589    0.0000 H   0  0  0  0  0  0  0  0  0  0  0  0
  -22.3436    2.3313    0.0000 H   0  0  0  0  0  0  0  0  0  0  0  0
  -26.9671    1.6478    0.0000 H   0  0  0  0  0  0  0  0  0  0  0  0
  -26.0606    0.2885    0.0000 H   0  0  0  0  0  0  0  0  0  0  0  0
  -27.1615    3.6358    0.0000 H   0  0  0  0  0  0  0  0  0  0  0  0
  -25.5034    4.6204    0.0000 H   0  0  0  0  0  0  0  0  0  0  0  0
  -24.2949    3.5209    0.0000 H   0  0  0  0  0  0  0  0  0  0  0  0
  -26.0705    1.1007    0.0000 H   0  0  0  0  0  0  0  0  0  0  0  0
  -25.4199   -2.1902    0.0000 H   0  0  0  0  0  0  0  0  0  0  0  0
  -27.5571   -4.0287    0.0000 H   0  0  0  0  0  0  0  0  0  0  0  0
  -25.8990   -3.0441    0.0000 H   0  0  0  0  0  0  0  0  0  0  0  0
  -30.2304   -2.0710    0.0000 H   0  0  0  0  0  0  0  0  0  0  0  0
  -29.2958   -1.1460    0.0000 H   0  0  0  0  0  0  0  0  0  0  0  0
  -31.7826   -5.2014    0.0000 H   0  0  0  0  0  0  0  0  0  0  0  0
  -32.1476   -2.8358    0.0000 H   0  0  0  0  0  0  0  0  0  0  0  0
  -29.2200   -3.2202    0.0000 H   0  0  0  0  0  0  0  0  0  0  0  0
  -29.8153    0.0811    0.0000 H   0  0  0  0  0  0  0  0  0  0  0  0
  -33.0549    0.3876    0.0000 H   0  0  0  0  0  0  0  0  0  0  0  0
  -32.7389   -1.3686    0.0000 H   0  0  0  0  0  0  0  0  0  0  0  0
  -29.8223    3.2139    0.0000 H   0  0  0  0  0  0  0  0  0  0  0  0
  -33.5584   -0.2805    0.0000 H   0  0  0  0  0  0  0  0  0  0  0  0
  -33.0786   -3.6377    0.0000 H   0  0  0  0  0  0  0  0  0  0  0  0
  -33.5577   -4.4915    0.0000 H   0  0  0  0  0  0  0  0  0  0  0  0
  -36.5438   -6.1735    0.0000 H   0  0  0  0  0  0  0  0  0  0  0  0
  -37.3613   -5.2231    0.0000 H   0  0  0  0  0  0  0  0  0  0  0  0
  -37.8890   -3.5185    0.0000 H   0  0  0  0  0  0  0  0  0  0  0  0
  -36.9544   -2.5934    0.0000 H   0  0  0  0  0  0  0  0  0  0  0  0
  -36.6955   -4.6670    0.0000 H   0  0  0  0  0  0  0  0  0  0  0  0
  -37.3200   -1.4655    0.0000 H   0  0  0  0  0  0  0  0  0  0  0  0
  -40.7135   -1.0598    0.0000 H   0  0  0  0  0  0  0  0  0  0  0  0
  -40.3975   -2.8161    0.0000 H   0  0  0  0  0  0  0  0  0  0  0  0
  -40.2873    0.7059    0.0000 H   0  0  0  0  0  0  0  0  0  0  0  0
  -38.3924    1.0640    0.0000 H   0  0  0  0  0  0  0  0  0  0  0  0
  -37.6609   -0.5636    0.0000 H   0  0  0  0  0  0  0  0  0  0  0  0
  -41.2170   -1.7280    0.0000 H   0  0  0  0  0  0  0  0  0  0  0  0
  -40.7372   -5.0851    0.0000 H   0  0  0  0  0  0  0  0  0  0  0  0
  -42.6922   -6.9420    0.0000 H   0  0  0  0  0  0  0  0  0  0  0  0
  -41.2163   -5.9390    0.0000 H   0  0  0  0  0  0  0  0  0  0  0  0
  -45.5477   -4.9659    0.0000 H   0  0  0  0  0  0  0  0  0  0  0  0
  -44.6131   -4.0409    0.0000 H   0  0  0  0  0  0  0  0  0  0  0  0
  -45.1083   -8.2501    0.0000 H   0  0  0  0  0  0  0  0  0  0  0  0
  -43.5212   -7.4344    0.0000 H   0  0  0  0  0  0  0  0  0  0  0  0
  -47.4210   -5.7221    0.0000 H   0  0  0  0  0  0  0  0  0  0  0  0
  -49.3338   -9.4228    0.0000 H   0  0  0  0  0  0  0  0  0  0  0  0
  -47.0680  -10.6942    0.0000 H   0  0  0  0  0  0  0  0  0  0  0  0
  -44.8341   -9.3677    0.0000 H   0  0  0  0  0  0  0  0  0  0  0  0
  -44.5373   -6.1151    0.0000 H   0  0  0  0  0  0  0  0  0  0  0  0
  -44.9786   -2.9130    0.0000 H   0  0  0  0  0  0  0  0  0  0  0  0
  -48.3722   -2.5073    0.0000 H   0  0  0  0  0  0  0  0  0  0  0  0
  -48.0562   -4.2635    0.0000 H   0  0  0  0  0  0  0  0  0  0  0  0
  -46.0511   -0.3834    0.0000 H   0  0  0  0  0  0  0  0  0  0  0  0
  -45.3195   -2.0110    0.0000 H   0  0  0  0  0  0  0  0  0  0  0  0
  -50.5098   -0.3218    0.0000 H   0  0  0  0  0  0  0  0  0  0  0  0
  -48.8757   -3.1754    0.0000 H   0  0  0  0  0  0  0  0  0  0  0  0
  -48.3959   -6.5326    0.0000 H   0  0  0  0  0  0  0  0  0  0  0  0
  -50.5331   -8.3710    0.0000 H   0  0  0  0  0  0  0  0  0  0  0  0
  -48.8251   -7.2101    0.0000 H   0  0  0  0  0  0  0  0  0  0  0  0
  -53.2063   -6.4134    0.0000 H   0  0  0  0  0  0  0  0  0  0  0  0
  -52.0950   -5.4403    0.0000 H   0  0  0  0  0  0  0  0  0  0  0  0
  -54.7585   -9.5437    0.0000 H   0  0  0  0  0  0  0  0  0  0  0  0
  -54.7904   -6.9459    0.0000 H   0  0  0  0  0  0  0  0  0  0  0  0
  -52.6667   -3.1172    0.0000 H   0  0  0  0  0  0  0  0  0  0  0  0
  1  2  1  0
  2  3  1  0
  3  4  2  0
  4  5  1  0
  5  6  2  0
  6  7  1  0
  7  8  2  0
  7  9  1  0
  9 10  1  0
 10 11  1  0
 11 12  2  0
  9 13  1  0
 13 14  1  0
 14 15  2  0
 15 16  1  0
 16 17  2  0
 17 18  1  0
 16 19  1  0
 14 20  1  0
 20 21  1  0
 21 22  2  0
 22 23  1  0
 23 24  2  0
 24 25  1  0
 25 26  2  0
 25 27  1  0
  1 28  2  0
  1 29  1  0
 29 30  1  0
 30 31  1  0
 31 32  1  0
 32 33  2  0
 32 34  1  0
 34 35  1  0
 35 36  1  0
 36 37  1  0
 35 38  1  0
 38 39  2  0
 38 40  1  0
 40 41  1  0
 41 42  1  0
 42 43  1  0
 43 44  1  0
 44 45  2  0
 44 46  1  0
 41 47  1  0
 47 48  2  0
 47 49  1  0
 49 50  1  0
 50 51  1  0
 51 52  1  0
 52 53  1  0
 53 54  2  0
 53 55  1  0
 50 56  1  0
 56 57  2  0
 56 58  1  0
 58 59  1  0
 59 60  1  0
 60 61  1  0
 61 62  1  0
 61 63  1  0
 59 64  1  0
 64 65  2  0
 64 66  1  0
 66 67  1  0
 67 68  1  0
 68 69  1  0
 67 70  1  0
 70 71  2  0
 70 72  1  0
 72 73  1  0
 73 74  1  0
 73 75  1  0
 75 76  2  0
 75 77  1  0
 77 78  1  0
 78 79  1  0
 79 80  1  0
 80 81  1  0
 81 82  2  0
 81 83  1  0
 78 84  1  0
 84 85  2  0
 84 86  1  0
 86 87  1  0
 87 88  1  0
 87 89  1  0
 89 90  2  0
 89 91  1  0
 92 91  1  1
 92 93  1  0
 93 94  1  0
 94 95  1  0
 95 96  1  0
 92 97  1  0
 92 98  1  0
 98 99  2  0
 98100  1  0
100101  1  0
101102  1  0
102103  1  0
103104  1  0
103105  2  0
101106  1  0
106107  2  0
106108  1  0
108109  1  0
109110  1  0
110111  1  0
111112  1  0
111113  1  0
109114  1  0
114115  2  0
114116  1  0
116117  1  0
117118  1  0
118119  1  0
117120  1  0
120121  2  0
120122  1  0
122123  1  0
123124  1  0
124125  1  0
125126  1  0
126127  1  0
123128  1  0
123129  1  1
129130  2  0
129131  1  0
131132  1  0
132133  1  0
133134  1  0
134135  1  0
134136  1  0
132137  1  0
137138  2  0
137139  1  0
139140  1  0
140141  1  0
141142  1  0
142143  1  0
142144  1  0
140145  1  0
145146  2  0
145147  1  0
147148  1  0
148149  1  0
149150  1  0
150151  1  0
151152  2  0
151153  1  0
148154  1  0
154155  2  0
154156  1  0
156157  1  0
157158  1  0
158159  1  0
159160  1  0
159161  2  0
157162  1  0
162163  2  0
162164  1  0
164165  1  0
165166  1  0
165167  1  0
167168  2  0
167169  1  0
169170  1  0
170171  1  0
171172  1  0
171173  1  0
173174  1  0
170175  1  0
175176  2  0
175177  1  0
177178  1  0
178179  1  0
179180  1  0
180181  1  0
181182  1  0
181183  2  0
178184  1  0
184185  2  0
184186  1  0
186187  1  0
187188  1  0
188189  1  0
189190  2  0
189191  1  0
187192  1  0
192193  2  0
192194  1  0
194195  1  0
195196  1  0
196197  1  0
196198  1  0
195199  1  0
199200  2  0
199201  1  0
201202  1  0
202203  1  0
203204  1  0
202205  1  0
205206  2  0
205207  1  0
207208  1  0
208209  1  0
209210  1  0
210211  1  0
211212  1  0
212213  1  0
213214  2  3
213215  1  0
208216  1  0
216217  2  0
216218  1  0
218219  1  0
219220  1  0
220221  1  0
221222  1  0
222223  2  0
222224  1  0
219225  1  0
225226  2  0
225227  1  0
227228  1  0
228229  1  0
229230  1  0
230231  1  0
231232  1  0
231233  2  0
228234  1  0
234235  2  0
234236  1  0
  8  3  1  0
 11  6  1  0
 96127  2  0
 18 13  2  0
 22  9  1  0
 26 21  1  0
  2237  1  0
  4238  1  0
  5239  1  0
  8240  1  0
 15241  1  0
 17242  1  0
 18243  1  0
 19244  1  0
 23245  1  0
 24246  1  0
 26247  1  0
 27248  1  0
 29249  1  0
 30250  1  0
 30251  1  0
 31252  1  0
 31253  1  0
 34254  1  0
 35255  1  1
 36256  1  0
 36257  1  0
 37258  1  0
 40259  1  0
 41260  1  6
 42261  1  0
 42262  1  0
 43263  1  0
 43264  1  0
 46265  1  0
 49266  1  0
 50267  1  1
 51268  1  0
 51269  1  0
 52270  1  0
 52271  1  0
 55272  1  0
 58273  1  0
 59274  1  6
 60275  1  0
 60276  1  0
 61277  1  0
 62278  1  0
 62279  1  0
 62280  1  0
 63281  1  0
 63282  1  0
 63283  1  0
 66284  1  0
 67285  1  1
 68286  1  0
 68287  1  0
 69288  1  0
 69289  1  0
 69290  1  0
 72291  1  0
 73292  1  6
 74293  1  0
 74294  1  0
 74295  1  0
 77296  1  0
 78297  1  1
 79298  1  0
 79299  1  0
 80300  1  0
 80301  1  0
 83302  1  0
 86303  1  0
 87304  1  6
 88305  1  0
 88306  1  0
 88307  1  0
 91308  1  0
 93309  1  0
 93310  1  0
 94311  1  0
 94312  1  0
 95313  1  0
 95314  1  0
 96315  1  0
 97316  1  0
 97317  1  0
 97318  1  0
100319  1  0
101320  1  6
102321  1  0
102322  1  0
104323  1  0
104324  1  0
108325  1  0
109326  1  6
110327  1  0
110328  1  0
111329  1  0
112330  1  0
112331  1  0
112332  1  0
113333  1  0
113334  1  0
113335  1  0
116336  1  0
117337  1  6
118338  1  0
118339  1  0
119340  1  0
122341  1  0
124342  1  0
124343  1  0
125344  1  0
125345  1  0
126346  1  0
126347  1  0
127348  1  0
128349  1  0
128350  1  0
128351  1  0
131352  1  0
132353  1  1
133354  1  0
133355  1  0
134356  1  0
135357  1  0
135358  1  0
135359  1  0
136360  1  0
136361  1  0
136362  1  0
139363  1  0
140364  1  6
141365  1  0
141366  1  0
142367  1  0
143368  1  0
143369  1  0
143370  1  0
144371  1  0
144372  1  0
144373  1  0
147374  1  0
148375  1  1
149376  1  0
149377  1  0
150378  1  0
150379  1  0
153380  1  0
156381  1  0
157382  1  6
158383  1  0
158384  1  0
160385  1  0
160386  1  0
164387  1  0
165388  1  1
166389  1  0
166390  1  0
166391  1  0
169392  1  0
170393  1  6
171394  1  1
172395  1  0
172396  1  0
172397  1  0
173398  1  0
173399  1  0
174400  1  0
174401  1  0
174402  1  0
177403  1  0
178404  1  1
179405  1  0
179406  1  0
180407  1  0
180408  1  0
182409  1  0
182410  1  0
186411  1  0
187412  1  6
188413  1  0
188414  1  0
191415  1  0
194416  1  0
195417  1  1
196418  1  1
197419  1  0
198420  1  0
198421  1  0
198422  1  0
201423  1  0
202424  1  6
203425  1  0
203426  1  0
204427  1  0
204428  1  0
204429  1  0
207430  1  0
208431  1  1
209432  1  0
209433  1  0
210434  1  0
210435  1  0
211436  1  0
211437  1  0
212438  1  0
214439  1  0
215440  1  0
215441  1  0
218442  1  0
219443  1  6
220444  1  0
220445  1  0
221446  1  0
221447  1  0
224448  1  0
227449  1  0
228450  1  1
229451  1  0
229452  1  0
230453  1  0
230454  1  0
232455  1  0
232456  1  0
236457  1  0
M  END
