
     RDKit          2D

310318  0  0  0  0  0  0  0  0999 V2000
   27.1604   -3.7113    0.0000 C   0  0  0  0  0  0  0  0  0  0  0  0
   28.6259   -3.3916    0.0000 N   0  0  0  0  0  0  0  0  0  0  0  0
   29.6355   -4.5009    0.0000 C   0  0  0  0  0  0  0  0  0  0  0  0
   29.1797   -5.9299    0.0000 C   0  0  0  0  0  0  0  0  0  0  0  0
   30.1893   -7.0393    0.0000 C   0  0  0  0  0  0  0  0  0  0  0  0
   31.6549   -6.7195    0.0000 C   0  0  0  0  0  0  0  0  0  0  0  0
   32.1107   -5.2905    0.0000 C   0  0  0  0  0  0  0  0  0  0  0  0
   31.1011   -4.1812    0.0000 C   0  0  0  0  0  0  0  0  0  0  0  0
   33.6107   -5.2824    0.0000 C   0  0  0  0  0  0  0  0  0  0  0  0
   34.0819   -6.7065    0.0000 O   0  0  0  0  0  0  0  0  0  0  0  0
   32.8731   -7.5947    0.0000 C   0  0  0  0  0  0  0  0  0  0  0  0
   32.8811   -9.0947    0.0000 O   0  0  0  0  0  0  0  0  0  0  0  0
   35.1033   -5.4312    0.0000 C   0  0  0  0  0  0  0  0  0  0  0  0
   35.9785   -4.2130    0.0000 C   0  0  0  0  0  0  0  0  0  0  0  0
   37.4711   -4.3618    0.0000 C   0  0  0  0  0  0  0  0  0  0  0  0
   38.0885   -5.7288    0.0000 C   0  0  0  0  0  0  0  0  0  0  0  0
   37.2134   -6.9470    0.0000 C   0  0  0  0  0  0  0  0  0  0  0  0
   35.7208   -6.7982    0.0000 C   0  0  0  0  0  0  0  0  0  0  0  0
   39.5811   -5.8776    0.0000 O   0  0  0  0  0  0  0  0  0  0  0  0
   35.3610   -2.8460    0.0000 O   0  0  0  0  0  0  0  0  0  0  0  0
   33.8684   -2.6972    0.0000 C   0  0  0  0  0  0  0  0  0  0  0  0
   32.9933   -3.9154    0.0000 C   0  0  0  0  0  0  0  0  0  0  0  0
   31.9091   -3.1981    0.0000 C   0  0  0  0  0  0  0  0  0  0  0  0
   31.5798   -2.4690    0.0000 C   0  0  0  0  0  0  0  0  0  0  0  0
   32.0465   -1.8193    0.0000 C   0  0  0  0  0  0  0  0  0  0  0  0
   32.8426   -1.8986    0.0000 C   0  0  0  0  0  0  0  0  0  0  0  0
   31.1409    0.1857    0.0000 O   0  0  0  0  0  0  0  0  0  0  0  0
   26.7045   -5.1403    0.0000 S   0  0  0  0  0  0  0  0  0  0  0  0
   26.1507   -2.6020    0.0000 N   0  0  0  0  0  0  0  0  0  0  0  0
   24.6852   -2.9217    0.0000 C   0  0  0  0  0  0  0  0  0  0  0  0
   23.6755   -1.8124    0.0000 C   0  0  0  0  0  0  0  0  0  0  0  0
   22.2100   -2.1321    0.0000 C   0  0  0  0  0  0  0  0  0  0  0  0
   21.7541   -3.5612    0.0000 O   0  0  0  0  0  0  0  0  0  0  0  0
   21.2003   -1.0228    0.0000 N   0  0  0  0  0  0  0  0  0  0  0  0
   19.7348   -1.3425    0.0000 C   0  0  0  0  0  0  0  0  0  0  0  0
   18.4670   -2.1442    0.0000 C   0  0  0  0  0  0  0  0  0  0  0  0
   17.5499   -3.3312    0.0000 O   0  0  0  0  0  0  0  0  0  0  0  0
   17.0638   -1.6142    0.0000 C   0  0  0  0  0  0  0  0  0  0  0  0
   18.7251   -0.2332    0.0000 C   0  0  0  0  0  0  0  0  0  0  0  0
   19.3518    1.1296    0.0000 O   0  0  0  0  0  0  0  0  0  0  0  0
   17.2596   -0.5529    0.0000 N   0  0  0  0  0  0  0  0  0  0  0  0
   16.2499    0.5564    0.0000 C   0  0  0  0  0  0  0  0  0  0  0  0
   15.6806    1.9441    0.0000 C   0  0  0  0  0  0  0  0  0  0  0  0
   16.5977    3.1311    0.0000 C   0  0  0  0  0  0  0  0  0  0  0  0
   18.0842    2.9303    0.0000 C   0  0  0  0  0  0  0  0  0  0  0  0
   19.0014    4.1172    0.0000 C   0  0  0  0  0  0  0  0  0  0  0  0
   18.4320    5.5050    0.0000 C   0  0  0  0  0  0  0  0  0  0  0  0
   19.3492    6.6919    0.0000 O   0  0  0  0  0  0  0  0  0  0  0  0
   16.9455    5.7058    0.0000 C   0  0  0  0  0  0  0  0  0  0  0  0
   16.0284    4.5188    0.0000 C   0  0  0  0  0  0  0  0  0  0  0  0
   14.7844    0.2366    0.0000 C   0  0  0  0  0  0  0  0  0  0  0  0
   14.5061   -1.2373    0.0000 O   0  0  0  0  0  0  0  0  0  0  0  0
   13.7748    1.3460    0.0000 N   0  0  0  0  0  0  0  0  0  0  0  0
   12.3092    1.0262    0.0000 C   0  0  0  0  0  0  0  0  0  0  0  0
   11.5792   -0.2842    0.0000 C   0  0  0  0  0  0  0  0  0  0  0  0
   10.4954   -1.3212    0.0000 C   0  0  0  0  0  0  0  0  0  0  0  0
    9.1541   -1.9926    0.0000 C   0  0  0  0  0  0  0  0  0  0  0  0
    7.6745   -2.2389    0.0000 C   0  0  0  0  0  0  0  0  0  0  0  0
   13.3436   -0.0601    0.0000 C   0  0  0  0  0  0  0  0  0  0  0  0
   12.6205    2.4936    0.0000 C   0  0  0  0  0  0  0  0  0  0  0  0
   14.0950    2.7694    0.0000 O   0  0  0  0  0  0  0  0  0  0  0  0
   12.4855    3.9875    0.0000 N   0  0  0  0  0  0  0  0  0  0  0  0
   11.9162    5.3752    0.0000 C   0  0  0  0  0  0  0  0  0  0  0  0
   10.9631    6.5335    0.0000 C   0  0  0  0  0  0  0  0  0  0  0  0
   11.9663    7.6486    0.0000 O   0  0  0  0  0  0  0  0  0  0  0  0
    9.7109    7.3594    0.0000 N   0  0  0  0  0  0  0  0  0  0  0  0
    8.2709    7.7795    0.0000 C   0  0  0  0  0  0  0  0  0  0  0  0
    7.6331    9.1371    0.0000 C   0  0  0  0  0  0  0  0  0  0  0  0
    6.7711    7.7565    0.0000 C   0  0  0  0  0  0  0  0  0  0  0  0
    6.5248    9.2361    0.0000 O   0  0  0  0  0  0  0  0  0  0  0  0
    5.3447    7.2924    0.0000 N   0  0  0  0  0  0  0  0  0  0  0  0
    4.1184    6.4285    0.0000 C   0  0  0  0  0  0  0  0  0  0  0  0
    2.6593    6.7763    0.0000 C   0  0  0  0  0  0  0  0  0  0  0  0
    2.2310    8.2139    0.0000 C   0  0  0  0  0  0  0  0  0  0  0  0
    3.2617    9.3036    0.0000 C   0  0  0  0  0  0  0  0  0  0  0  0
    2.8334   10.7411    0.0000 C   0  0  0  0  0  0  0  0  0  0  0  0
    1.3742   11.0889    0.0000 C   0  0  0  0  0  0  0  0  0  0  0  0
    0.3435    9.9992    0.0000 C   0  0  0  0  0  0  0  0  0  0  0  0
    0.7718    8.5617    0.0000 C   0  0  0  0  0  0  0  0  0  0  0  0
    3.2013    5.2416    0.0000 C   0  0  0  0  0  0  0  0  0  0  0  0
    1.8909    5.9716    0.0000 O   0  0  0  0  0  0  0  0  0  0  0  0
    2.6748    3.8370    0.0000 N   0  0  0  0  0  0  0  0  0  0  0  0
    2.5856    2.3397    0.0000 C   0  0  0  0  0  0  0  0  0  0  0  0
    2.9418    0.8826    0.0000 C   0  0  0  0  0  0  0  0  0  0  0  0
    3.7116   -0.4048    0.0000 C   0  0  0  0  0  0  0  0  0  0  0  0
    4.8267   -1.4081    0.0000 C   0  0  0  0  0  0  0  0  0  0  0  0
    6.1880   -2.0381    0.0000 C   0  0  0  0  0  0  0  0  0  0  0  0
    1.2574    3.0368    0.0000 C   0  0  0  0  0  0  0  0  0  0  0  0
    1.4039    1.4157    0.0000 C   0  0  0  0  0  0  0  0  0  0  0  0
    1.2476   -0.0761    0.0000 O   0  0  0  0  0  0  0  0  0  0  0  0
    0.0130    1.9771    0.0000 N   0  0  0  0  0  0  0  0  0  0  0  0
   -1.1687    1.0532    0.0000 C   0  0  0  0  0  0  0  0  0  0  0  0
   -1.9631   -0.2192    0.0000 C   0  0  0  0  0  0  0  0  0  0  0  0
   -3.4622   -0.1674    0.0000 C   0  0  0  0  0  0  0  0  0  0  0  0
   -4.2566   -1.4398    0.0000 N   0  0  0  0  0  0  0  0  0  0  0  0
   -3.9959    0.4248    0.0000 O   0  0  0  0  0  0  0  0  0  0  0  0
   -2.5597    1.6146    0.0000 C   0  0  0  0  0  0  0  0  0  0  0  0
   -2.7690    3.0999    0.0000 O   0  0  0  0  0  0  0  0  0  0  0  0
   -3.7414    0.6906    0.0000 N   0  0  0  0  0  0  0  0  0  0  0  0
   -5.1324    1.2520    0.0000 C   0  0  0  0  0  0  0  0  0  0  0  0
   -6.2474    2.2553    0.0000 C   0  0  0  0  0  0  0  0  0  0  0  0
   -7.6739    1.7912    0.0000 C   0  0  0  0  0  0  0  0  0  0  0  0
   -8.7890    2.7945    0.0000 C   0  0  0  0  0  0  0  0  0  0  0  0
   -8.8555    0.8673    0.0000 C   0  0  0  0  0  0  0  0  0  0  0  0
   -6.3140    0.3281    0.0000 C   0  0  0  0  0  0  0  0  0  0  0  0
   -6.2873   -1.1717    0.0000 O   0  0  0  0  0  0  0  0  0  0  0  0
   -7.7050    0.8895    0.0000 N   0  0  0  0  0  0  0  0  0  0  0  0
   -8.8867   -0.0345    0.0000 C   0  0  0  0  0  0  0  0  0  0  0  0
   -9.6811   -1.3068    0.0000 C   0  0  0  0  0  0  0  0  0  0  0  0
  -11.1802   -1.2551    0.0000 C   0  0  0  0  0  0  0  0  0  0  0  0
  -11.8849    0.0691    0.0000 C   0  0  0  0  0  0  0  0  0  0  0  0
  -13.3840    0.1209    0.0000 C   0  0  0  0  0  0  0  0  0  0  0  0
  -14.1784   -1.1515    0.0000 C   0  0  0  0  0  0  0  0  0  0  0  0
  -13.4737   -2.4756    0.0000 C   0  0  0  0  0  0  0  0  0  0  0  0
  -11.9746   -2.5274    0.0000 C   0  0  0  0  0  0  0  0  0  0  0  0
  -10.2777    0.5269    0.0000 C   0  0  0  0  0  0  0  0  0  0  0  0
  -10.6665    1.9756    0.0000 O   0  0  0  0  0  0  0  0  0  0  0  0
  -11.4593   -0.3970    0.0000 N   0  0  0  0  0  0  0  0  0  0  0  0
  -12.8503    0.1644    0.0000 C   0  0  0  0  0  0  0  0  0  0  0  0
  -13.9654    1.1676    0.0000 C   0  0  0  0  0  0  0  0  0  0  0  0
  -13.6541    2.6350    0.0000 C   0  0  0  0  0  0  0  0  0  0  0  0
  -14.7692    3.6383    0.0000 C   0  0  0  0  0  0  0  0  0  0  0  0
  -14.4579    5.1056    0.0000 N   0  0  0  0  0  0  0  0  0  0  0  0
  -16.1956    3.1742    0.0000 O   0  0  0  0  0  0  0  0  0  0  0  0
  -14.0320   -0.7596    0.0000 C   0  0  0  0  0  0  0  0  0  0  0  0
  -14.1883   -2.2514    0.0000 O   0  0  0  0  0  0  0  0  0  0  0  0
  -15.4230   -0.1982    0.0000 N   0  0  0  0  0  0  0  0  0  0  0  0
  -16.6046   -1.1221    0.0000 C   0  0  0  0  0  0  0  0  0  0  0  0
  -17.3990   -2.3945    0.0000 C   0  0  0  0  0  0  0  0  0  0  0  0
  -18.8171   -2.8835    0.0000 O   0  0  0  0  0  0  0  0  0  0  0  0
  -17.9956   -0.5607    0.0000 C   0  0  0  0  0  0  0  0  0  0  0  0
  -18.2050    0.9246    0.0000 O   0  0  0  0  0  0  0  0  0  0  0  0
  -19.1773   -1.4847    0.0000 N   0  0  0  0  0  0  0  0  0  0  0  0
  -20.5683   -0.9233    0.0000 C   0  0  0  0  0  0  0  0  0  0  0  0
  -21.6834    0.0800    0.0000 C   0  0  0  0  0  0  0  0  0  0  0  0
  -21.3721    1.5473    0.0000 C   0  0  0  0  0  0  0  0  0  0  0  0
  -21.7500   -1.8472    0.0000 C   0  0  0  0  0  0  0  0  0  0  0  0
  -21.5406   -3.3325    0.0000 O   0  0  0  0  0  0  0  0  0  0  0  0
  -23.1409   -1.2858    0.0000 N   0  0  0  0  0  0  0  0  0  0  0  0
  -24.3226   -2.2098    0.0000 C   0  0  0  0  0  0  0  0  0  0  0  0
  -25.1170   -3.4821    0.0000 C   0  0  0  0  0  0  0  0  0  0  0  0
  -26.6161   -3.4304    0.0000 C   0  0  0  0  0  0  0  0  0  0  0  0
  -27.4105   -4.7027    0.0000 C   0  0  0  0  0  0  0  0  0  0  0  0
  -28.9096   -4.6509    0.0000 N   0  0  0  0  0  0  0  0  0  0  0  0
  -29.7040   -5.9233    0.0000 C   0  0  0  0  0  0  0  0  0  0  0  0
  -31.1856   -5.6892    0.0000 N   0  0  0  0  0  0  0  0  0  0  0  0
  -28.9993   -7.2475    0.0000 N   0  0  0  0  0  0  0  0  0  0  0  0
  -25.7136   -1.6484    0.0000 C   0  0  0  0  0  0  0  0  0  0  0  0
  -25.9229   -0.1631    0.0000 O   0  0  0  0  0  0  0  0  0  0  0  0
  -26.8953   -2.5723    0.0000 N   0  0  0  0  0  0  0  0  0  0  0  0
  -28.2863   -2.0109    0.0000 C   0  0  0  0  0  0  0  0  0  0  0  0
  -29.4014   -1.0077    0.0000 C   0  0  0  0  0  0  0  0  0  0  0  0
  -29.0900    0.4597    0.0000 C   0  0  0  0  0  0  0  0  0  0  0  0
  -30.2051    1.4630    0.0000 C   0  0  0  0  0  0  0  0  0  0  0  0
  -29.8938    2.9303    0.0000 O   0  0  0  0  0  0  0  0  0  0  0  0
  -31.6315    0.9989    0.0000 O   0  0  0  0  0  0  0  0  0  0  0  0
  -29.4679   -2.9349    0.0000 C   0  0  0  0  0  0  0  0  0  0  0  0
  -29.6242   -4.4267    0.0000 O   0  0  0  0  0  0  0  0  0  0  0  0
  -30.8589   -2.3735    0.0000 N   0  0  0  0  0  0  0  0  0  0  0  0
  -32.0406   -3.2974    0.0000 C   0  0  0  0  0  0  0  0  0  0  0  0
  -32.8350   -4.5698    0.0000 C   0  0  0  0  0  0  0  0  0  0  0  0
  -34.3341   -4.5180    0.0000 C   0  0  0  0  0  0  0  0  0  0  0  0
  -33.4316   -2.7360    0.0000 C   0  0  0  0  0  0  0  0  0  0  0  0
  -34.7170   -3.5090    0.0000 O   0  0  0  0  0  0  0  0  0  0  0  0
  -33.6409   -1.2507    0.0000 O   0  0  0  0  0  0  0  0  0  0  0  0
   28.9042   -1.9176    0.0000 H   0  0  0  0  0  0  0  0  0  0  0  0
   27.7141   -6.2497    0.0000 H   0  0  0  0  0  0  0  0  0  0  0  0
   29.7335   -8.4683    0.0000 H   0  0  0  0  0  0  0  0  0  0  0  0
   31.1976   -2.6843    0.0000 H   0  0  0  0  0  0  0  0  0  0  0  0
   38.3462   -3.1435    0.0000 H   0  0  0  0  0  0  0  0  0  0  0  0
   37.8308   -8.3141    0.0000 H   0  0  0  0  0  0  0  0  0  0  0  0
   34.8456   -8.0165    0.0000 H   0  0  0  0  0  0  0  0  0  0  0  0
   40.1986   -7.2446    0.0000 H   0  0  0  0  0  0  0  0  0  0  0  0
   30.6255   -4.9848    0.0000 H   0  0  0  0  0  0  0  0  0  0  0  0
   29.4199   -2.0700    0.0000 H   0  0  0  0  0  0  0  0  0  0  0  0
   34.1261   -0.1119    0.0000 H   0  0  0  0  0  0  0  0  0  0  0  0
   32.0161    1.4039    0.0000 H   0  0  0  0  0  0  0  0  0  0  0  0
   26.6066   -1.1729    0.0000 H   0  0  0  0  0  0  0  0  0  0  0  0
   23.4174   -3.7234    0.0000 H   0  0  0  0  0  0  0  0  0  0  0  0
   25.2545   -4.3094    0.0000 H   0  0  0  0  0  0  0  0  0  0  0  0
   23.1062   -0.4246    0.0000 H   0  0  0  0  0  0  0  0  0  0  0  0
   24.9433   -1.0107    0.0000 H   0  0  0  0  0  0  0  0  0  0  0  0
   21.6562    0.4062    0.0000 H   0  0  0  0  0  0  0  0  0  0  0  0
   20.3042   -2.7303    0.0000 H   0  0  0  0  0  0  0  0  0  0  0  0
   19.4767   -3.2535    0.0000 H   0  0  0  0  0  0  0  0  0  0  0  0
   18.1192   -4.7189    0.0000 H   0  0  0  0  0  0  0  0  0  0  0  0
   15.8710   -2.2488    0.0000 H   0  0  0  0  0  0  0  0  0  0  0  0
   16.1292   -0.3378    0.0000 H   0  0  0  0  0  0  0  0  0  0  0  0
   17.3912    0.0315    0.0000 H   0  0  0  0  0  0  0  0  0  0  0  0
   16.6329   -1.9158    0.0000 H   0  0  0  0  0  0  0  0  0  0  0  0
   17.5177    1.3581    0.0000 H   0  0  0  0  0  0  0  0  0  0  0  0
   14.9694    3.2648    0.0000 H   0  0  0  0  0  0  0  0  0  0  0  0
   14.3245    1.3029    0.0000 H   0  0  0  0  0  0  0  0  0  0  0  0
   18.8185    1.6223    0.0000 H   0  0  0  0  0  0  0  0  0  0  0  0
   20.4879    3.9164    0.0000 H   0  0  0  0  0  0  0  0  0  0  0  0
   18.7798    8.0797    0.0000 H   0  0  0  0  0  0  0  0  0  0  0  0
   16.3761    7.0935    0.0000 H   0  0  0  0  0  0  0  0  0  0  0  0
   14.5774    4.8993    0.0000 H   0  0  0  0  0  0  0  0  0  0  0  0
   14.2306    2.7750    0.0000 H   0  0  0  0  0  0  0  0  0  0  0  0
   13.0473   -0.5919    0.0000 H   0  0  0  0  0  0  0  0  0  0  0  0
   12.0787   -1.6986    0.0000 H   0  0  0  0  0  0  0  0  0  0  0  0
   11.7093   -2.2024    0.0000 H   0  0  0  0  0  0  0  0  0  0  0  0
   10.7381   -2.8014    0.0000 H   0  0  0  0  0  0  0  0  0  0  0  0
   10.1938   -3.0739    0.0000 H   0  0  0  0  0  0  0  0  0  0  0  0
    8.7701   -3.4426    0.0000 H   0  0  0  0  0  0  0  0  0  0  0  0
    7.6975   -3.7387    0.0000 H   0  0  0  0  0  0  0  0  0  0  0  0
   12.9910   -1.6883    0.0000 H   0  0  0  0  0  0  0  0  0  0  0  0
   14.3322   -1.1325    0.0000 H   0  0  0  0  0  0  0  0  0  0  0  0
   14.5233    0.5278    0.0000 H   0  0  0  0  0  0  0  0  0  0  0  0
   13.8883    4.5186    0.0000 H   0  0  0  0  0  0  0  0  0  0  0  0
   12.5799    6.7204    0.0000 H   0  0  0  0  0  0  0  0  0  0  0  0
   13.4153    5.3234    0.0000 H   0  0  0  0  0  0  0  0  0  0  0  0
   10.3409    8.7206    0.0000 H   0  0  0  0  0  0  0  0  0  0  0  0
    9.2461    8.9192    0.0000 H   0  0  0  0  0  0  0  0  0  0  0  0
    8.4899   10.3683    0.0000 H   0  0  0  0  0  0  0  0  0  0  0  0
    6.5694   10.1947    0.0000 H   0  0  0  0  0  0  0  0  0  0  0  0
    6.2342    8.5956    0.0000 H   0  0  0  0  0  0  0  0  0  0  0  0
    4.8417    8.7056    0.0000 H   0  0  0  0  0  0  0  0  0  0  0  0
    3.8353    7.9016    0.0000 H   0  0  0  0  0  0  0  0  0  0  0  0
    1.1692    6.6041    0.0000 H   0  0  0  0  0  0  0  0  0  0  0  0
    2.2105    5.3450    0.0000 H   0  0  0  0  0  0  0  0  0  0  0  0
    4.7524    9.1362    0.0000 H   0  0  0  0  0  0  0  0  0  0  0  0
    3.8641   11.8309    0.0000 H   0  0  0  0  0  0  0  0  0  0  0  0
    0.9459   12.5265    0.0000 H   0  0  0  0  0  0  0  0  0  0  0  0
   -1.1156   10.3470    0.0000 H   0  0  0  0  0  0  0  0  0  0  0  0
   -0.2589    7.4719    0.0000 H   0  0  0  0  0  0  0  0  0  0  0  0
    1.2074    4.1483    0.0000 H   0  0  0  0  0  0  0  0  0  0  0  0
    2.0849   -0.3486    0.0000 H   0  0  0  0  0  0  0  0  0  0  0  0
    1.4445    0.7922    0.0000 H   0  0  0  0  0  0  0  0  0  0  0  0
    3.0849   -1.7676    0.0000 H   0  0  0  0  0  0  0  0  0  0  0  0
    2.3075   -0.9325    0.0000 H   0  0  0  0  0  0  0  0  0  0  0  0
    4.8123   -2.9080    0.0000 H   0  0  0  0  0  0  0  0  0  0  0  0
    3.5374   -2.1748    0.0000 H   0  0  0  0  0  0  0  0  0  0  0  0
    5.7679   -3.4781    0.0000 H   0  0  0  0  0  0  0  0  0  0  0  0
   -0.1667    2.5657    0.0000 H   0  0  0  0  0  0  0  0  0  0  0  0
    0.3905    4.2609    0.0000 H   0  0  0  0  0  0  0  0  0  0  0  0
    1.8601    4.4104    0.0000 H   0  0  0  0  0  0  0  0  0  0  0  0
   -0.3759    3.4258    0.0000 H   0  0  0  0  0  0  0  0  0  0  0  0
   -0.0536    0.0499    0.0000 H   0  0  0  0  0  0  0  0  0  0  0  0
   -2.2744   -1.6865    0.0000 H   0  0  0  0  0  0  0  0  0  0  0  0
   -0.5721   -0.7806    0.0000 H   0  0  0  0  0  0  0  0  0  0  0  0
   -5.7509   -1.5711    0.0000 H   0  0  0  0  0  0  0  0  0  0  0  0
   -3.5519   -2.7639    0.0000 H   0  0  0  0  0  0  0  0  0  0  0  0
   -3.8977   -0.8012    0.0000 H   0  0  0  0  0  0  0  0  0  0  0  0
   -4.3380    2.5244    0.0000 H   0  0  0  0  0  0  0  0  0  0  0  0
   -6.7855    3.6555    0.0000 H   0  0  0  0  0  0  0  0  0  0  0  0
   -5.0658    3.1792    0.0000 H   0  0  0  0  0  0  0  0  0  0  0  0
   -7.6735    0.2912    0.0000 H   0  0  0  0  0  0  0  0  0  0  0  0
  -10.2853    2.6894    0.0000 H   0  0  0  0  0  0  0  0  0  0  0  0
   -9.4937    4.1187    0.0000 H   0  0  0  0  0  0  0  0  0  0  0  0
   -7.7287    3.8556    0.0000 H   0  0  0  0  0  0  0  0  0  0  0  0
  -10.1677    1.5940    0.0000 H   0  0  0  0  0  0  0  0  0  0  0  0
   -9.6499   -0.4051    0.0000 H   0  0  0  0  0  0  0  0  0  0  0  0
   -7.6265    0.0074    0.0000 H   0  0  0  0  0  0  0  0  0  0  0  0
   -8.2675    2.2800    0.0000 H   0  0  0  0  0  0  0  0  0  0  0  0
   -7.9022   -1.1662    0.0000 H   0  0  0  0  0  0  0  0  0  0  0  0
   -9.9924   -2.7742    0.0000 H   0  0  0  0  0  0  0  0  0  0  0  0
   -8.2901   -1.8682    0.0000 H   0  0  0  0  0  0  0  0  0  0  0  0
  -11.4220    1.4959    0.0000 H   0  0  0  0  0  0  0  0  0  0  0  0
  -14.3882    1.2352    0.0000 H   0  0  0  0  0  0  0  0  0  0  0  0
  -15.6775   -1.0997    0.0000 H   0  0  0  0  0  0  0  0  0  0  0  0
  -14.2681   -3.7480    0.0000 H   0  0  0  0  0  0  0  0  0  0  0  0
  -11.2699   -3.8516    0.0000 H   0  0  0  0  0  0  0  0  0  0  0  0
  -11.6156   -1.8889    0.0000 H   0  0  0  0  0  0  0  0  0  0  0  0
  -11.9067    1.3304    0.0000 H   0  0  0  0  0  0  0  0  0  0  0  0
  -15.2776    1.8944    0.0000 H   0  0  0  0  0  0  0  0  0  0  0  0
  -15.0441    0.1253    0.0000 H   0  0  0  0  0  0  0  0  0  0  0  0
  -12.8597    3.9074    0.0000 H   0  0  0  0  0  0  0  0  0  0  0  0
  -12.2051    2.2473    0.0000 H   0  0  0  0  0  0  0  0  0  0  0  0
  -15.5730    6.1089    0.0000 H   0  0  0  0  0  0  0  0  0  0  0  0
  -13.0315    5.5697    0.0000 H   0  0  0  0  0  0  0  0  0  0  0  0
  -15.8118    1.2505    0.0000 H   0  0  0  0  0  0  0  0  0  0  0  0
  -15.4896   -2.1254    0.0000 H   0  0  0  0  0  0  0  0  0  0  0  0
  -17.7104   -3.8618    0.0000 H   0  0  0  0  0  0  0  0  0  0  0  0
  -16.0081   -2.9559    0.0000 H   0  0  0  0  0  0  0  0  0  0  0  0
  -19.6926   -3.6151    0.0000 H   0  0  0  0  0  0  0  0  0  0  0  0
  -19.1506   -2.9844    0.0000 H   0  0  0  0  0  0  0  0  0  0  0  0
  -19.6247    0.2428    0.0000 H   0  0  0  0  0  0  0  0  0  0  0  0
  -22.9956    0.8068    0.0000 H   0  0  0  0  0  0  0  0  0  0  0  0
  -22.7621   -0.9623    0.0000 H   0  0  0  0  0  0  0  0  0  0  0  0
  -22.4872    2.5506    0.0000 H   0  0  0  0  0  0  0  0  0  0  0  0
  -20.5777    2.8197    0.0000 H   0  0  0  0  0  0  0  0  0  0  0  0
  -19.9230    1.1597    0.0000 H   0  0  0  0  0  0  0  0  0  0  0  0
  -23.5298    0.1629    0.0000 H   0  0  0  0  0  0  0  0  0  0  0  0
  -23.2075   -3.2130    0.0000 H   0  0  0  0  0  0  0  0  0  0  0  0
  -25.2471   -4.9765    0.0000 H   0  0  0  0  0  0  0  0  0  0  0  0
  -23.7260   -4.0435    0.0000 H   0  0  0  0  0  0  0  0  0  0  0  0
  -28.0071   -2.8690    0.0000 H   0  0  0  0  0  0  0  0  0  0  0  0
  -27.0303   -1.9887    0.0000 H   0  0  0  0  0  0  0  0  0  0  0  0
  -27.7218   -6.1701    0.0000 H   0  0  0  0  0  0  0  0  0  0  0  0
  -26.0983   -5.4295    0.0000 H   0  0  0  0  0  0  0  0  0  0  0  0
  -29.9138   -3.5367    0.0000 H   0  0  0  0  0  0  0  0  0  0  0  0
  -31.9975   -7.1439    0.0000 H   0  0  0  0  0  0  0  0  0  0  0  0
  -29.7937   -8.5198    0.0000 H   0  0  0  0  0  0  0  0  0  0  0  0
  -27.5002   -7.2993    0.0000 H   0  0  0  0  0  0  0  0  0  0  0  0
  -27.0516   -4.0642    0.0000 H   0  0  0  0  0  0  0  0  0  0  0  0
  -27.3427   -0.8449    0.0000 H   0  0  0  0  0  0  0  0  0  0  0  0
  -30.7135   -0.2809    0.0000 H   0  0  0  0  0  0  0  0  0  0  0  0
  -30.4800   -2.0500    0.0000 H   0  0  0  0  0  0  0  0  0  0  0  0
  -28.2956    1.7321    0.0000 H   0  0  0  0  0  0  0  0  0  0  0  0
  -27.6410    0.0720    0.0000 H   0  0  0  0  0  0  0  0  0  0  0  0
  -32.7466    2.0022    0.0000 H   0  0  0  0  0  0  0  0  0  0  0  0
  -31.2477   -0.9247    0.0000 H   0  0  0  0  0  0  0  0  0  0  0  0
  -30.9255   -4.3007    0.0000 H   0  0  0  0  0  0  0  0  0  0  0  0
  -33.1463   -6.0371    0.0000 H   0  0  0  0  0  0  0  0  0  0  0  0
  -31.3859   -4.9574    0.0000 H   0  0  0  0  0  0  0  0  0  0  0  0
  -35.1285   -5.7904    0.0000 H   0  0  0  0  0  0  0  0  0  0  0  0
  -35.7251   -3.9566    0.0000 H   0  0  0  0  0  0  0  0  0  0  0  0
  -34.5694   -3.0366    0.0000 H   0  0  0  0  0  0  0  0  0  0  0  0
  -35.0319   -0.6893    0.0000 H   0  0  0  0  0  0  0  0  0  0  0  0
  1  2  1  0
  2  3  1  0
  3  4  2  0
  4  5  1  0
  5  6  2  0
  6  7  1  0
  7  8  2  0
  7  9  1  0
  9 10  1  0
 10 11  1  0
 11 12  2  0
  9 13  1  0
 13 14  1  0
 14 15  2  0
 15 16  1  0
 16 17  2  0
 17 18  1  0
 16 19  1  0
 14 20  1  0
 20 21  1  0
 21 22  2  0
 22 23  1  0
 23 24  2  0
 24 25  1  0
 25 26  2  0
 25 27  1  0
  1 28  2  0
  1 29  1  0
 29 30  1  0
 30 31  1  0
 31 32  1  0
 32 33  2  0
 32 34  1  0
 34 35  1  0
 35 36  1  0
 36 37  1  0
 36 38  1  0
 35 39  1  0
 39 40  2  0
 39 41  1  0
 41 42  1  0
 42 43  1  0
 43 44  1  0
 44 45  2  0
 45 46  1  0
 46 47  2  0
 47 48  1  0
 47 49  1  0
 49 50  2  0
 42 51  1  0
 51 52  2  0
 51 53  1  0
 54 53  1  1
 54 55  1  0
 55 56  1  0
 56 57  1  0
 57 58  1  0
 54 59  1  0
 54 60  1  0
 60 61  2  0
 60 62  1  0
 62 63  1  0
 63 64  1  0
 64 65  2  0
 64 66  1  0
 66 67  1  0
 67 68  1  0
 67 69  1  0
 69 70  2  0
 69 71  1  0
 71 72  1  0
 72 73  1  0
 73 74  1  0
 74 75  2  0
 75 76  1  0
 76 77  2  0
 77 78  1  0
 78 79  2  0
 72 80  1  0
 80 81  2  0
 80 82  1  0
 82 83  1  0
 83 84  1  0
 84 85  1  0
 85 86  1  0
 86 87  1  0
 83 88  1  0
 83 89  1  1
 89 90  2  0
 89 91  1  0
 91 92  1  0
 92 93  1  0
 93 94  1  0
 94 95  1  0
 94 96  2  0
 92 97  1  0
 97 98  2  0
 97 99  1  0
 99100  1  0
100101  1  0
101102  1  0
102103  1  0
102104  1  0
100105  1  0
105106  2  0
105107  1  0
107108  1  0
108109  1  0
109110  1  0
110111  2  0
111112  1  0
112113  2  0
113114  1  0
114115  2  0
108116  1  0
116117  2  0
116118  1  0
118119  1  0
119120  1  0
120121  1  0
121122  1  0
122123  1  0
122124  2  0
119125  1  0
125126  2  0
125127  1  0
127128  1  0
128129  1  0
129130  1  0
128131  1  0
131132  2  0
131133  1  0
133134  1  0
134135  1  0
135136  1  0
134137  1  0
137138  2  0
137139  1  0
139140  1  0
140141  1  0
141142  1  0
142143  1  0
143144  1  0
144145  1  0
145146  2  3
145147  1  0
140148  1  0
148149  2  0
148150  1  0
150151  1  0
151152  1  0
152153  1  0
153154  1  0
154155  2  0
154156  1  0
151157  1  0
157158  2  0
157159  1  0
159160  1  0
160161  1  0
161162  1  0
160163  1  0
163164  2  0
163165  1  0
  8  3  1  0
 50 44  1  0
 79 74  1  0
115110  1  0
 11  6  1  0
 58 87  2  0
 18 13  2  0
 22  9  1  0
 26 21  1  0
  2166  1  0
  4167  1  0
  5168  1  0
  8169  1  0
 15170  1  0
 17171  1  0
 18172  1  0
 19173  1  0
 23174  1  0
 24175  1  0
 26176  1  0
 27177  1  0
 29178  1  0
 30179  1  0
 30180  1  0
 31181  1  0
 31182  1  0
 34183  1  0
 35184  1  1
 36185  1  1
 37186  1  0
 38187  1  0
 38188  1  0
 38189  1  0
 41190  1  0
 42191  1  6
 43192  1  0
 43193  1  0
 45194  1  0
 46195  1  0
 48196  1  0
 49197  1  0
 50198  1  0
 53199  1  0
 55200  1  0
 55201  1  0
 56202  1  0
 56203  1  0
 57204  1  0
 57205  1  0
 58206  1  0
 59207  1  0
 59208  1  0
 59209  1  0
 62210  1  0
 63211  1  0
 63212  1  0
 66213  1  0
 67214  1  6
 68215  1  0
 68216  1  0
 68217  1  0
 71218  1  0
 72219  1  6
 73220  1  0
 73221  1  0
 75222  1  0
 76223  1  0
 77224  1  0
 78225  1  0
 79226  1  0
 82227  1  0
 84228  1  0
 84229  1  0
 85230  1  0
 85231  1  0
 86232  1  0
 86233  1  0
 87234  1  0
 88235  1  0
 88236  1  0
 88237  1  0
 91238  1  0
 92239  1  1
 93240  1  0
 93241  1  0
 95242  1  0
 95243  1  0
 99244  1  0
100245  1  6
101246  1  0
101247  1  0
102248  1  0
103249  1  0
103250  1  0
103251  1  0
104252  1  0
104253  1  0
104254  1  0
107255  1  0
108256  1  1
109257  1  0
109258  1  0
111259  1  0
112260  1  0
113261  1  0
114262  1  0
115263  1  0
118264  1  0
119265  1  6
120266  1  0
120267  1  0
121268  1  0
121269  1  0
123270  1  0
123271  1  0
127272  1  0
128273  1  1
129274  1  0
129275  1  0
130276  1  0
133277  1  0
134278  1  6
135279  1  0
135280  1  0
136281  1  0
136282  1  0
136283  1  0
139284  1  0
140285  1  1
141286  1  0
141287  1  0
142288  1  0
142289  1  0
143290  1  0
143291  1  0
144292  1  0
146293  1  0
147294  1  0
147295  1  0
150296  1  0
151297  1  6
152298  1  0
152299  1  0
153300  1  0
153301  1  0
156302  1  0
159303  1  0
160304  1  1
161305  1  0
161306  1  0
162307  1  0
162308  1  0
162309  1  0
165310  1  0
M  END
