
     RDKit          2D

307318  0  0  0  0  0  0  0  0999 V2000
  -26.3687   -3.6020    0.0000 C   0  0  0  0  0  0  0  0  0  0  0  0
  -27.2247   -4.8338    0.0000 N   0  0  0  0  0  0  0  0  0  0  0  0
  -28.7195   -4.7084    0.0000 C   0  0  0  0  0  0  0  0  0  0  0  0
  -29.3582   -3.3512    0.0000 C   0  0  0  0  0  0  0  0  0  0  0  0
  -30.8530   -3.2258    0.0000 C   0  0  0  0  0  0  0  0  0  0  0  0
  -31.7090   -4.4575    0.0000 C   0  0  0  0  0  0  0  0  0  0  0  0
  -31.0702   -5.8147    0.0000 C   0  0  0  0  0  0  0  0  0  0  0  0
  -29.5754   -5.9401    0.0000 C   0  0  0  0  0  0  0  0  0  0  0  0
  -32.1636   -6.8416    0.0000 C   0  0  0  0  0  0  0  0  0  0  0  0
  -33.4781   -6.1191    0.0000 O   0  0  0  0  0  0  0  0  0  0  0  0
  -33.1971   -4.6456    0.0000 C   0  0  0  0  0  0  0  0  0  0  0  0
  -34.2240   -3.5523    0.0000 O   0  0  0  0  0  0  0  0  0  0  0  0
  -33.3583   -7.7486    0.0000 C   0  0  0  0  0  0  0  0  0  0  0  0
  -33.1702   -9.2368    0.0000 C   0  0  0  0  0  0  0  0  0  0  0  0
  -34.3649  -10.1438    0.0000 C   0  0  0  0  0  0  0  0  0  0  0  0
  -35.7478   -9.5626    0.0000 C   0  0  0  0  0  0  0  0  0  0  0  0
  -35.9359   -8.0744    0.0000 C   0  0  0  0  0  0  0  0  0  0  0  0
  -34.7411   -7.1674    0.0000 C   0  0  0  0  0  0  0  0  0  0  0  0
  -36.9425  -10.4696    0.0000 O   0  0  0  0  0  0  0  0  0  0  0  0
  -31.7874   -9.8180    0.0000 O   0  0  0  0  0  0  0  0  0  0  0  0
  -30.5926   -8.9110    0.0000 C   0  0  0  0  0  0  0  0  0  0  0  0
  -30.7807   -7.4228    0.0000 C   0  0  0  0  0  0  0  0  0  0  0  0
  -29.4982   -7.2103    0.0000 C   0  0  0  0  0  0  0  0  0  0  0  0
  -28.7607   -7.5203    0.0000 C   0  0  0  0  0  0  0  0  0  0  0  0
  -28.6604   -8.3139    0.0000 C   0  0  0  0  0  0  0  0  0  0  0  0
  -29.2976   -8.7977    0.0000 C   0  0  0  0  0  0  0  0  0  0  0  0
  -26.6322   -9.1663    0.0000 O   0  0  0  0  0  0  0  0  0  0  0  0
  -27.0075   -2.2448    0.0000 S   0  0  0  0  0  0  0  0  0  0  0  0
  -24.8740   -3.7274    0.0000 N   0  0  0  0  0  0  0  0  0  0  0  0
  -24.0180   -2.4956    0.0000 C   0  0  0  0  0  0  0  0  0  0  0  0
  -22.5233   -2.6210    0.0000 C   0  0  0  0  0  0  0  0  0  0  0  0
  -21.6673   -1.3892    0.0000 C   0  0  0  0  0  0  0  0  0  0  0  0
  -22.3060   -0.0320    0.0000 O   0  0  0  0  0  0  0  0  0  0  0  0
  -20.1725   -1.5146    0.0000 N   0  0  0  0  0  0  0  0  0  0  0  0
  -19.3165   -0.2828    0.0000 C   0  0  0  0  0  0  0  0  0  0  0  0
  -18.9335    1.1674    0.0000 C   0  0  0  0  0  0  0  0  0  0  0  0
  -17.8218   -0.4083    0.0000 C   0  0  0  0  0  0  0  0  0  0  0  0
  -17.3532   -1.8332    0.0000 O   0  0  0  0  0  0  0  0  0  0  0  0
  -16.9658    0.8235    0.0000 N   0  0  0  0  0  0  0  0  0  0  0  0
  -15.4711    0.6981    0.0000 C   0  0  0  0  0  0  0  0  0  0  0  0
  -14.5760   -0.5056    0.0000 C   0  0  0  0  0  0  0  0  0  0  0  0
  -13.3660   -1.3920    0.0000 C   0  0  0  0  0  0  0  0  0  0  0  0
  -11.9484   -1.8824    0.0000 C   0  0  0  0  0  0  0  0  0  0  0  0
  -10.4493   -1.9331    0.0000 C   0  0  0  0  0  0  0  0  0  0  0  0
  -16.3545   -0.5141    0.0000 C   0  0  0  0  0  0  0  0  0  0  0  0
  -15.9715    2.1122    0.0000 C   0  0  0  0  0  0  0  0  0  0  0  0
  -17.4694    2.1929    0.0000 O   0  0  0  0  0  0  0  0  0  0  0  0
  -16.0330    3.6109    0.0000 N   0  0  0  0  0  0  0  0  0  0  0  0
  -15.6499    5.0612    0.0000 C   0  0  0  0  0  0  0  0  0  0  0  0
  -16.4838    6.3080    0.0000 C   0  0  0  0  0  0  0  0  0  0  0  0
  -17.9806    6.2092    0.0000 O   0  0  0  0  0  0  0  0  0  0  0  0
  -14.8564    6.3341    0.0000 C   0  0  0  0  0  0  0  0  0  0  0  0
  -15.9968    7.3085    0.0000 O   0  0  0  0  0  0  0  0  0  0  0  0
  -13.7229    7.3166    0.0000 N   0  0  0  0  0  0  0  0  0  0  0  0
  -12.3502    7.9213    0.0000 C   0  0  0  0  0  0  0  0  0  0  0  0
  -11.8953    9.3507    0.0000 C   0  0  0  0  0  0  0  0  0  0  0  0
  -12.9058   10.4593    0.0000 O   0  0  0  0  0  0  0  0  0  0  0  0
  -10.8603    8.0946    0.0000 C   0  0  0  0  0  0  0  0  0  0  0  0
  -10.8095    9.5937    0.0000 O   0  0  0  0  0  0  0  0  0  0  0  0
   -9.3854    7.8210    0.0000 N   0  0  0  0  0  0  0  0  0  0  0  0
   -8.0568    7.1248    0.0000 C   0  0  0  0  0  0  0  0  0  0  0  0
   -6.6556    7.6603    0.0000 C   0  0  0  0  0  0  0  0  0  0  0  0
   -6.4189    9.1415    0.0000 C   0  0  0  0  0  0  0  0  0  0  0  0
   -5.0177    9.6771    0.0000 C   0  0  0  0  0  0  0  0  0  0  0  0
   -4.7810   11.1583    0.0000 C   0  0  0  0  0  0  0  0  0  0  0  0
   -5.9453   12.1039    0.0000 C   0  0  0  0  0  0  0  0  0  0  0  0
   -7.3465   11.5684    0.0000 C   0  0  0  0  0  0  0  0  0  0  0  0
   -7.5832   10.0872    0.0000 C   0  0  0  0  0  0  0  0  0  0  0  0
   -6.9923    6.0679    0.0000 C   0  0  0  0  0  0  0  0  0  0  0  0
   -5.7886    6.9629    0.0000 O   0  0  0  0  0  0  0  0  0  0  0  0
   -6.2867    4.7442    0.0000 N   0  0  0  0  0  0  0  0  0  0  0  0
   -6.0026    3.2714    0.0000 C   0  0  0  0  0  0  0  0  0  0  0  0
   -6.1652    1.7802    0.0000 C   0  0  0  0  0  0  0  0  0  0  0  0
   -6.7602    0.4033    0.0000 C   0  0  0  0  0  0  0  0  0  0  0  0
   -7.7345   -0.7372    0.0000 C   0  0  0  0  0  0  0  0  0  0  0  0
   -9.0018   -1.5397    0.0000 C   0  0  0  0  0  0  0  0  0  0  0  0
   -4.7769    4.1361    0.0000 C   0  0  0  0  0  0  0  0  0  0  0  0
   -4.7103    2.5099    0.0000 C   0  0  0  0  0  0  0  0  0  0  0  0
   -4.3603    1.0513    0.0000 O   0  0  0  0  0  0  0  0  0  0  0  0
   -3.4046    3.2483    0.0000 N   0  0  0  0  0  0  0  0  0  0  0  0
   -2.1123    2.4867    0.0000 C   0  0  0  0  0  0  0  0  0  0  0  0
   -1.1584    1.3291    0.0000 C   0  0  0  0  0  0  0  0  0  0  0  0
   -1.6839   -0.0758    0.0000 C   0  0  0  0  0  0  0  0  0  0  0  0
   -0.7300   -1.2334    0.0000 O   0  0  0  0  0  0  0  0  0  0  0  0
   -3.1634   -0.3231    0.0000 O   0  0  0  0  0  0  0  0  0  0  0  0
   -0.8066    3.2251    0.0000 C   0  0  0  0  0  0  0  0  0  0  0  0
   -0.7933    4.7251    0.0000 O   0  0  0  0  0  0  0  0  0  0  0  0
    0.4857    2.4636    0.0000 N   0  0  0  0  0  0  0  0  0  0  0  0
    1.7913    3.2020    0.0000 C   0  0  0  0  0  0  0  0  0  0  0  0
    2.7657    4.3424    0.0000 C   0  0  0  0  0  0  0  0  0  0  0  0
    4.2405    4.0688    0.0000 C   0  0  0  0  0  0  0  0  0  0  0  0
    4.7410    2.6548    0.0000 C   0  0  0  0  0  0  0  0  0  0  0  0
    6.2158    2.3812    0.0000 C   0  0  0  0  0  0  0  0  0  0  0  0
    7.1902    3.5216    0.0000 C   0  0  0  0  0  0  0  0  0  0  0  0
    6.6898    4.9357    0.0000 C   0  0  0  0  0  0  0  0  0  0  0  0
    5.2149    5.2093    0.0000 C   0  0  0  0  0  0  0  0  0  0  0  0
    3.0836    2.4405    0.0000 C   0  0  0  0  0  0  0  0  0  0  0  0
    2.7077    0.9883    0.0000 O   0  0  0  0  0  0  0  0  0  0  0  0
    4.3893    3.1789    0.0000 N   0  0  0  0  0  0  0  0  0  0  0  0
    5.6816    2.4173    0.0000 C   0  0  0  0  0  0  0  0  0  0  0  0
    6.6355    1.2597    0.0000 C   0  0  0  0  0  0  0  0  0  0  0  0
    6.1100   -0.1452    0.0000 C   0  0  0  0  0  0  0  0  0  0  0  0
    4.6305   -0.3925    0.0000 C   0  0  0  0  0  0  0  0  0  0  0  0
    4.1049   -1.7974    0.0000 C   0  0  0  0  0  0  0  0  0  0  0  0
    5.0589   -2.9550    0.0000 C   0  0  0  0  0  0  0  0  0  0  0  0
    6.5383   -2.7077    0.0000 C   0  0  0  0  0  0  0  0  0  0  0  0
    7.0639   -1.3028    0.0000 C   0  0  0  0  0  0  0  0  0  0  0  0
    6.9873    3.1557    0.0000 C   0  0  0  0  0  0  0  0  0  0  0  0
    7.3632    4.6079    0.0000 O   0  0  0  0  0  0  0  0  0  0  0  0
    8.2796    2.3942    0.0000 N   0  0  0  0  0  0  0  0  0  0  0  0
    9.5853    3.1326    0.0000 C   0  0  0  0  0  0  0  0  0  0  0  0
   10.5596    4.2731    0.0000 C   0  0  0  0  0  0  0  0  0  0  0  0
   12.0345    3.9994    0.0000 C   0  0  0  0  0  0  0  0  0  0  0  0
   13.1227    5.0318    0.0000 C   0  0  0  0  0  0  0  0  0  0  0  0
   14.4408    4.3158    0.0000 N   0  0  0  0  0  0  0  0  0  0  0  0
   14.1672    2.8410    0.0000 C   0  0  0  0  0  0  0  0  0  0  0  0
   12.6800    2.6454    0.0000 N   0  0  0  0  0  0  0  0  0  0  0  0
   10.8776    2.3711    0.0000 C   0  0  0  0  0  0  0  0  0  0  0  0
   10.8642    0.8711    0.0000 O   0  0  0  0  0  0  0  0  0  0  0  0
   12.1832    3.1095    0.0000 N   0  0  0  0  0  0  0  0  0  0  0  0
   13.4755    2.3479    0.0000 C   0  0  0  0  0  0  0  0  0  0  0  0
   14.4295    1.1903    0.0000 C   0  0  0  0  0  0  0  0  0  0  0  0
   15.6193    0.2770    0.0000 O   0  0  0  0  0  0  0  0  0  0  0  0
   13.9039   -0.2146    0.0000 C   0  0  0  0  0  0  0  0  0  0  0  0
   14.7812    3.0864    0.0000 C   0  0  0  0  0  0  0  0  0  0  0  0
   15.1571    4.5385    0.0000 O   0  0  0  0  0  0  0  0  0  0  0  0
   16.0735    2.3248    0.0000 N   0  0  0  0  0  0  0  0  0  0  0  0
   17.3792    3.0632    0.0000 C   0  0  0  0  0  0  0  0  0  0  0  0
   18.3535    4.2037    0.0000 C   0  0  0  0  0  0  0  0  0  0  0  0
   19.8508    4.2950    0.0000 C   0  0  0  0  0  0  0  0  0  0  0  0
   18.6715    2.3017    0.0000 C   0  0  0  0  0  0  0  0  0  0  0  0
   18.6581    0.8017    0.0000 O   0  0  0  0  0  0  0  0  0  0  0  0
   19.9771    3.0401    0.0000 N   0  0  0  0  0  0  0  0  0  0  0  0
   20.1472    4.5304    0.0000 C   0  0  0  0  0  0  0  0  0  0  0  0
   21.6172    4.8292    0.0000 C   0  0  0  0  0  0  0  0  0  0  0  0
   22.3556    3.5235    0.0000 C   0  0  0  0  0  0  0  0  0  0  0  0
   21.3420    2.4178    0.0000 C   0  0  0  0  0  0  0  0  0  0  0  0
   22.5476    1.5254    0.0000 C   0  0  0  0  0  0  0  0  0  0  0  0
   23.9859    1.9511    0.0000 O   0  0  0  0  0  0  0  0  0  0  0  0
   22.3775    0.0350    0.0000 N   0  0  0  0  0  0  0  0  0  0  0  0
   23.5832   -0.8574    0.0000 C   0  0  0  0  0  0  0  0  0  0  0  0
   25.0213   -1.2837    0.0000 C   0  0  0  0  0  0  0  0  0  0  0  0
   25.3712   -2.7423    0.0000 C   0  0  0  0  0  0  0  0  0  0  0  0
   24.2830   -3.7746    0.0000 C   0  0  0  0  0  0  0  0  0  0  0  0
   24.6329   -5.2333    0.0000 C   0  0  0  0  0  0  0  0  0  0  0  0
   26.0711   -5.6595    0.0000 C   0  0  0  0  0  0  0  0  0  0  0  0
   26.4210   -7.1182    0.0000 O   0  0  0  0  0  0  0  0  0  0  0  0
   27.1593   -4.6272    0.0000 C   0  0  0  0  0  0  0  0  0  0  0  0
   26.8094   -3.1686    0.0000 C   0  0  0  0  0  0  0  0  0  0  0  0
   23.4131   -2.3477    0.0000 C   0  0  0  0  0  0  0  0  0  0  0  0
   21.9748   -2.7735    0.0000 O   0  0  0  0  0  0  0  0  0  0  0  0
   24.6187   -3.2402    0.0000 N   0  0  0  0  0  0  0  0  0  0  0  0
   24.4487   -4.7305    0.0000 C   0  0  0  0  0  0  0  0  0  0  0  0
   23.7791   -6.0728    0.0000 C   0  0  0  0  0  0  0  0  0  0  0  0
   22.2819   -6.1641    0.0000 C   0  0  0  0  0  0  0  0  0  0  0  0
   21.6124   -7.5064    0.0000 N   0  0  0  0  0  0  0  0  0  0  0  0
   21.4542   -4.9131    0.0000 O   0  0  0  0  0  0  0  0  0  0  0  0
   25.6543   -5.6230    0.0000 C   0  0  0  0  0  0  0  0  0  0  0  0
   27.1338   -5.3757    0.0000 O   0  0  0  0  0  0  0  0  0  0  0  0
   25.4842   -7.1133    0.0000 N   0  0  0  0  0  0  0  0  0  0  0  0
   26.6898   -8.0057    0.0000 C   0  0  0  0  0  0  0  0  0  0  0  0
   28.1280   -8.4320    0.0000 C   0  0  0  0  0  0  0  0  0  0  0  0
   28.4779   -9.8906    0.0000 C   0  0  0  0  0  0  0  0  0  0  0  0
   29.9161  -10.3169    0.0000 C   0  0  0  0  0  0  0  0  0  0  0  0
   28.3078  -11.3810    0.0000 C   0  0  0  0  0  0  0  0  0  0  0  0
   26.5198   -9.4961    0.0000 C   0  0  0  0  0  0  0  0  0  0  0  0
   27.6076  -10.5288    0.0000 O   0  0  0  0  0  0  0  0  0  0  0  0
   25.1441  -10.0939    0.0000 O   0  0  0  0  0  0  0  0  0  0  0  0
  -26.4253   -6.1030    0.0000 H   0  0  0  0  0  0  0  0  0  0  0  0
  -28.5022   -2.1194    0.0000 H   0  0  0  0  0  0  0  0  0  0  0  0
  -31.4917   -1.8686    0.0000 H   0  0  0  0  0  0  0  0  0  0  0  0
  -28.6273   -7.1024    0.0000 H   0  0  0  0  0  0  0  0  0  0  0  0
  -34.1768  -11.6319    0.0000 H   0  0  0  0  0  0  0  0  0  0  0  0
  -37.3187   -7.4933    0.0000 H   0  0  0  0  0  0  0  0  0  0  0  0
  -34.9292   -5.6793    0.0000 H   0  0  0  0  0  0  0  0  0  0  0  0
  -38.3253   -9.8884    0.0000 H   0  0  0  0  0  0  0  0  0  0  0  0
  -29.7741   -5.0277    0.0000 H   0  0  0  0  0  0  0  0  0  0  0  0
  -26.9068   -6.3424    0.0000 H   0  0  0  0  0  0  0  0  0  0  0  0
  -29.0217  -10.9803    0.0000 H   0  0  0  0  0  0  0  0  0  0  0  0
  -26.4441  -10.6545    0.0000 H   0  0  0  0  0  0  0  0  0  0  0  0
  -24.2352   -5.0846    0.0000 H   0  0  0  0  0  0  0  0  0  0  0  0
  -23.6349   -1.0453    0.0000 H   0  0  0  0  0  0  0  0  0  0  0  0
  -25.3797   -1.8665    0.0000 H   0  0  0  0  0  0  0  0  0  0  0  0
  -21.1615   -3.2501    0.0000 H   0  0  0  0  0  0  0  0  0  0  0  0
  -22.9063   -4.0713    0.0000 H   0  0  0  0  0  0  0  0  0  0  0  0
  -19.5338   -2.8718    0.0000 H   0  0  0  0  0  0  0  0  0  0  0  0
  -20.6783    0.3462    0.0000 H   0  0  0  0  0  0  0  0  0  0  0  0
  -17.8402    2.1944    0.0000 H   0  0  0  0  0  0  0  0  0  0  0  0
  -19.0695    2.6612    0.0000 H   0  0  0  0  0  0  0  0  0  0  0  0
  -20.4282    1.2928    0.0000 H   0  0  0  0  0  0  0  0  0  0  0  0
  -17.6046    2.1807    0.0000 H   0  0  0  0  0  0  0  0  0  0  0  0
  -15.9913   -1.0026    0.0000 H   0  0  0  0  0  0  0  0  0  0  0  0
  -14.8863   -1.9731    0.0000 H   0  0  0  0  0  0  0  0  0  0  0  0
  -14.4542   -2.4244    0.0000 H   0  0  0  0  0  0  0  0  0  0  0  0
  -13.4130   -2.8913    0.0000 H   0  0  0  0  0  0  0  0  0  0  0  0
  -12.8378   -3.0903    0.0000 H   0  0  0  0  0  0  0  0  0  0  0  0
  -11.3781   -3.2697    0.0000 H   0  0  0  0  0  0  0  0  0  0  0  0
  -10.2760   -3.4231    0.0000 H   0  0  0  0  0  0  0  0  0  0  0  0
  -15.7922   -2.0823    0.0000 H   0  0  0  0  0  0  0  0  0  0  0  0
  -17.1945   -1.7065    0.0000 H   0  0  0  0  0  0  0  0  0  0  0  0
  -17.5395    0.0633    0.0000 H   0  0  0  0  0  0  0  0  0  0  0  0
  -17.5241    3.7736    0.0000 H   0  0  0  0  0  0  0  0  0  0  0  0
  -17.1294    4.8139    0.0000 H   0  0  0  0  0  0  0  0  0  0  0  0
  -16.8410    7.7649    0.0000 H   0  0  0  0  0  0  0  0  0  0  0  0
  -15.2982    7.2269    0.0000 H   0  0  0  0  0  0  0  0  0  0  0  0
  -18.8145    7.4561    0.0000 H   0  0  0  0  0  0  0  0  0  0  0  0
  -14.5255    8.5838    0.0000 H   0  0  0  0  0  0  0  0  0  0  0  0
  -13.4660    8.9238    0.0000 H   0  0  0  0  0  0  0  0  0  0  0  0
  -10.9790   10.5383    0.0000 H   0  0  0  0  0  0  0  0  0  0  0  0
  -10.4377    8.9967    0.0000 H   0  0  0  0  0  0  0  0  0  0  0  0
  -12.4509   11.8887    0.0000 H   0  0  0  0  0  0  0  0  0  0  0  0
   -9.0715    9.2877    0.0000 H   0  0  0  0  0  0  0  0  0  0  0  0
   -7.9687    8.6222    0.0000 H   0  0  0  0  0  0  0  0  0  0  0  0
   -5.1558    7.6844    0.0000 H   0  0  0  0  0  0  0  0  0  0  0  0
   -6.0236    6.3000    0.0000 H   0  0  0  0  0  0  0  0  0  0  0  0
   -3.8534    8.7315    0.0000 H   0  0  0  0  0  0  0  0  0  0  0  0
   -3.3798   11.6939    0.0000 H   0  0  0  0  0  0  0  0  0  0  0  0
   -5.7086   13.5851    0.0000 H   0  0  0  0  0  0  0  0  0  0  0  0
   -8.5109   12.5140    0.0000 H   0  0  0  0  0  0  0  0  0  0  0  0
   -9.0392    9.7264    0.0000 H   0  0  0  0  0  0  0  0  0  0  0  0
   -4.8727    5.2447    0.0000 H   0  0  0  0  0  0  0  0  0  0  0  0
   -5.1548    0.6716    0.0000 H   0  0  0  0  0  0  0  0  0  0  0  0
   -4.6690    1.8864    0.0000 H   0  0  0  0  0  0  0  0  0  0  0  0
   -5.9607   -0.8659    0.0000 H   0  0  0  0  0  0  0  0  0  0  0  0
   -5.2991    0.0637    0.0000 H   0  0  0  0  0  0  0  0  0  0  0  0
   -7.5242   -2.2223    0.0000 H   0  0  0  0  0  0  0  0  0  0  0  0
   -6.3561   -1.3287    0.0000 H   0  0  0  0  0  0  0  0  0  0  0  0
   -8.3970   -2.9124    0.0000 H   0  0  0  0  0  0  0  0  0  0  0  0
   -3.3035    3.8553    0.0000 H   0  0  0  0  0  0  0  0  0  0  0  0
   -4.0775    5.4631    0.0000 H   0  0  0  0  0  0  0  0  0  0  0  0
   -5.5540    5.4192    0.0000 H   0  0  0  0  0  0  0  0  0  0  0  0
   -3.2085    4.7354    0.0000 H   0  0  0  0  0  0  0  0  0  0  0  0
   -3.0867    1.3463    0.0000 H   0  0  0  0  0  0  0  0  0  0  0  0
    0.0315    0.4157    0.0000 H   0  0  0  0  0  0  0  0  0  0  0  0
    0.0630    2.1999    0.0000 H   0  0  0  0  0  0  0  0  0  0  0  0
    0.6553    0.9732    0.0000 H   0  0  0  0  0  0  0  0  0  0  0  0
    0.8374    4.3596    0.0000 H   0  0  0  0  0  0  0  0  0  0  0  0
    3.2913    5.7474    0.0000 H   0  0  0  0  0  0  0  0  0  0  0  0
    1.4734    5.1040    0.0000 H   0  0  0  0  0  0  0  0  0  0  0  0
    3.7666    1.5143    0.0000 H   0  0  0  0  0  0  0  0  0  0  0  0
    7.0436    1.1302    0.0000 H   0  0  0  0  0  0  0  0  0  0  0  0
    8.6650    3.2480    0.0000 H   0  0  0  0  0  0  0  0  0  0  0  0
    7.6641    6.0761    0.0000 H   0  0  0  0  0  0  0  0  0  0  0  0
    4.7145    6.6233    0.0000 H   0  0  0  0  0  0  0  0  0  0  0  0
    4.7652    4.6310    0.0000 H   0  0  0  0  0  0  0  0  0  0  0  0
    4.7072    1.2769    0.0000 H   0  0  0  0  0  0  0  0  0  0  0  0
    7.8254    0.3464    0.0000 H   0  0  0  0  0  0  0  0  0  0  0  0
    7.8569    2.1305    0.0000 H   0  0  0  0  0  0  0  0  0  0  0  0
    3.4248    0.4999    0.0000 H   0  0  0  0  0  0  0  0  0  0  0  0
    2.6255   -2.0447    0.0000 H   0  0  0  0  0  0  0  0  0  0  0  0
    4.5333   -4.3599    0.0000 H   0  0  0  0  0  0  0  0  0  0  0  0
    7.4922   -3.8653    0.0000 H   0  0  0  0  0  0  0  0  0  0  0  0
    8.5434   -1.0555    0.0000 H   0  0  0  0  0  0  0  0  0  0  0  0
    8.4492    0.9038    0.0000 H   0  0  0  0  0  0  0  0  0  0  0  0
    8.6313    4.2902    0.0000 H   0  0  0  0  0  0  0  0  0  0  0  0
   11.0852    5.6780    0.0000 H   0  0  0  0  0  0  0  0  0  0  0  0
    9.2673    5.0346    0.0000 H   0  0  0  0  0  0  0  0  0  0  0  0
   12.9272    6.5190    0.0000 H   0  0  0  0  0  0  0  0  0  0  0  0
   15.7948    4.9613    0.0000 H   0  0  0  0  0  0  0  0  0  0  0  0
   15.3245    1.8867    0.0000 H   0  0  0  0  0  0  0  0  0  0  0  0
   12.5591    4.5616    0.0000 H   0  0  0  0  0  0  0  0  0  0  0  0
   12.3694    1.3348    0.0000 H   0  0  0  0  0  0  0  0  0  0  0  0
   15.7479    1.9057    0.0000 H   0  0  0  0  0  0  0  0  0  0  0  0
   15.8913   -1.0616    0.0000 H   0  0  0  0  0  0  0  0  0  0  0  0
   14.7096   -1.4798    0.0000 H   0  0  0  0  0  0  0  0  0  0  0  0
   12.9295   -1.3550    0.0000 H   0  0  0  0  0  0  0  0  0  0  0  0
   12.5284    0.3838    0.0000 H   0  0  0  0  0  0  0  0  0  0  0  0
   16.2431    0.8344    0.0000 H   0  0  0  0  0  0  0  0  0  0  0  0
   16.4253    4.2208    0.0000 H   0  0  0  0  0  0  0  0  0  0  0  0
   18.8791    5.6086    0.0000 H   0  0  0  0  0  0  0  0  0  0  0  0
   17.0612    4.9652    0.0000 H   0  0  0  0  0  0  0  0  0  0  0  0
   20.8028    5.0705    0.0000 H   0  0  0  0  0  0  0  0  0  0  0  0
   21.3555    3.5093    0.0000 H   0  0  0  0  0  0  0  0  0  0  0  0
   20.1981    2.4751    0.0000 H   0  0  0  0  0  0  0  0  0  0  0  0
   18.6951    4.9063    0.0000 H   0  0  0  0  0  0  0  0  0  0  0  0
   20.0037    6.0235    0.0000 H   0  0  0  0  0  0  0  0  0  0  0  0
   21.1663    6.2599    0.0000 H   0  0  0  0  0  0  0  0  0  0  0  0
   22.9929    5.4271    0.0000 H   0  0  0  0  0  0  0  0  0  0  0  0
   23.5769    4.3944    0.0000 H   0  0  0  0  0  0  0  0  0  0  0  0
   23.4788    2.5294    0.0000 H   0  0  0  0  0  0  0  0  0  0  0  0
   20.5804    1.1255    0.0000 H   0  0  0  0  0  0  0  0  0  0  0  0
   21.0018   -0.5628    0.0000 H   0  0  0  0  0  0  0  0  0  0  0  0
   24.2527    0.4849    0.0000 H   0  0  0  0  0  0  0  0  0  0  0  0
   26.5185   -1.1924    0.0000 H   0  0  0  0  0  0  0  0  0  0  0  0
   25.1914    0.2066    0.0000 H   0  0  0  0  0  0  0  0  0  0  0  0
   22.8036   -3.5269    0.0000 H   0  0  0  0  0  0  0  0  0  0  0  0
   23.8268   -6.4982    0.0000 H   0  0  0  0  0  0  0  0  0  0  0  0
   27.9004   -7.3659    0.0000 H   0  0  0  0  0  0  0  0  0  0  0  0
   28.5975   -5.0535    0.0000 H   0  0  0  0  0  0  0  0  0  0  0  0
   27.8976   -2.1362    0.0000 H   0  0  0  0  0  0  0  0  0  0  0  0
   26.0982   -2.9930    0.0000 H   0  0  0  0  0  0  0  0  0  0  0  0
   23.0105   -4.3042    0.0000 H   0  0  0  0  0  0  0  0  0  0  0  0
   23.4287   -7.5313    0.0000 H   0  0  0  0  0  0  0  0  0  0  0  0
   25.0714   -6.8344    0.0000 H   0  0  0  0  0  0  0  0  0  0  0  0
   20.1152   -7.5977    0.0000 H   0  0  0  0  0  0  0  0  0  0  0  0
   22.4401   -8.7574    0.0000 H   0  0  0  0  0  0  0  0  0  0  0  0
   24.1917   -7.8744    0.0000 H   0  0  0  0  0  0  0  0  0  0  0  0
   27.3594   -6.6635    0.0000 H   0  0  0  0  0  0  0  0  0  0  0  0
   29.6029   -8.1589    0.0000 H   0  0  0  0  0  0  0  0  0  0  0  0
   28.4785   -6.9735    0.0000 H   0  0  0  0  0  0  0  0  0  0  0  0
   27.1129  -10.5125    0.0000 H   0  0  0  0  0  0  0  0  0  0  0  0
   30.4412  -11.7220    0.0000 H   0  0  0  0  0  0  0  0  0  0  0  0
   31.4133  -10.2256    0.0000 H   0  0  0  0  0  0  0  0  0  0  0  0
   30.2665   -8.8584    0.0000 H   0  0  0  0  0  0  0  0  0  0  0  0
   29.3957  -12.4137    0.0000 H   0  0  0  0  0  0  0  0  0  0  0  0
   27.6383  -12.7232    0.0000 H   0  0  0  0  0  0  0  0  0  0  0  0
   26.8697  -10.9547    0.0000 H   0  0  0  0  0  0  0  0  0  0  0  0
  1  2  1  0
  2  3  1  0
  3  4  2  0
  4  5  1  0
  5  6  2  0
  6  7  1  0
  7  8  2  0
  7  9  1  0
  9 10  1  0
 10 11  1  0
 11 12  2  0
  9 13  1  0
 13 14  1  0
 14 15  2  0
 15 16  1  0
 16 17  2  0
 17 18  1  0
 16 19  1  0
 14 20  1  0
 20 21  1  0
 21 22  2  0
 22 23  1  0
 23 24  2  0
 24 25  1  0
 25 26  2  0
 25 27  1  0
  1 28  2  0
  1 29  1  0
 29 30  1  0
 30 31  1  0
 31 32  1  0
 32 33  2  0
 32 34  1  0
 34 35  1  0
 35 36  1  0
 35 37  1  0
 37 38  2  0
 37 39  1  0
 40 39  1  6
 40 41  1  0
 41 42  1  0
 42 43  1  0
 43 44  1  0
 40 45  1  0
 40 46  1  0
 46 47  2  0
 46 48  1  0
 48 49  1  0
 49 50  1  0
 50 51  1  0
 49 52  1  0
 52 53  2  0
 52 54  1  0
 54 55  1  0
 55 56  1  0
 56 57  1  0
 55 58  1  0
 58 59  2  0
 58 60  1  0
 60 61  1  0
 61 62  1  0
 62 63  1  0
 63 64  2  0
 64 65  1  0
 65 66  2  0
 66 67  1  0
 67 68  2  0
 61 69  1  0
 69 70  2  0
 69 71  1  0
 71 72  1  0
 72 73  1  0
 73 74  1  0
 74 75  1  0
 75 76  1  0
 72 77  1  0
 72 78  1  6
 78 79  2  0
 78 80  1  0
 80 81  1  0
 81 82  1  0
 82 83  1  0
 83 84  2  0
 83 85  1  0
 81 86  1  0
 86 87  2  0
 86 88  1  0
 88 89  1  0
 89 90  1  0
 90 91  1  0
 91 92  2  0
 92 93  1  0
 93 94  2  0
 94 95  1  0
 95 96  2  0
 89 97  1  0
 97 98  2  0
 97 99  1  0
 99100  1  0
100101  1  0
101102  1  0
102103  2  0
103104  1  0
104105  2  0
105106  1  0
106107  2  0
100108  1  0
108109  2  0
108110  1  0
110111  1  0
111112  1  0
112113  1  0
113114  2  0
114115  1  0
115116  1  0
116117  2  0
111118  1  0
118119  2  0
118120  1  0
120121  1  0
121122  1  0
122123  1  0
122124  1  0
121125  1  0
125126  2  0
125127  1  0
127128  1  0
128129  1  0
129130  1  0
128131  1  0
131132  2  0
131133  1  0
133134  1  0
134135  1  0
135136  1  0
136137  1  0
137138  1  0
138139  2  0
138140  1  0
140141  1  0
141142  1  0
142143  1  0
143144  2  0
144145  1  0
145146  2  0
146147  1  0
146148  1  0
148149  2  0
141150  1  0
150151  2  0
150152  1  0
152153  1  0
153154  1  0
154155  1  0
155156  1  0
155157  2  0
153158  1  0
158159  2  0
158160  1  0
160161  1  0
161162  1  0
162163  1  0
163164  1  0
163165  1  0
161166  1  0
166167  2  0
166168  1  0
  8  3  1  0
 68 63  1  0
 96 91  1  0
107102  1  0
117113  1  0
137133  1  0
149143  1  0
 11  6  1  0
 44 76  2  0
 18 13  2  0
 22  9  1  0
 26 21  1  0
  2169  1  0
  4170  1  0
  5171  1  0
  8172  1  0
 15173  1  0
 17174  1  0
 18175  1  0
 19176  1  0
 23177  1  0
 24178  1  0
 26179  1  0
 27180  1  0
 29181  1  0
 30182  1  0
 30183  1  0
 31184  1  0
 31185  1  0
 34186  1  0
 35187  1  1
 36188  1  0
 36189  1  0
 36190  1  0
 39191  1  0
 41192  1  0
 41193  1  0
 42194  1  0
 42195  1  0
 43196  1  0
 43197  1  0
 44198  1  0
 45199  1  0
 45200  1  0
 45201  1  0
 48202  1  0
 49203  1  1
 50204  1  0
 50205  1  0
 51206  1  0
 54207  1  0
 55208  1  1
 56209  1  0
 56210  1  0
 57211  1  0
 60212  1  0
 61213  1  1
 62214  1  0
 62215  1  0
 64216  1  0
 65217  1  0
 66218  1  0
 67219  1  0
 68220  1  0
 71221  1  0
 73222  1  0
 73223  1  0
 74224  1  0
 74225  1  0
 75226  1  0
 75227  1  0
 76228  1  0
 77229  1  0
 77230  1  0
 77231  1  0
 80232  1  0
 81233  1  6
 82234  1  0
 82235  1  0
 88236  1  0
 89237  1  1
 90238  1  0
 90239  1  0
 92240  1  0
 93241  1  0
 94242  1  0
 95243  1  0
 96244  1  0
 99245  1  0
100246  1  6
101247  1  0
101248  1  0
103249  1  0
104250  1  0
105251  1  0
106252  1  0
107253  1  0
110254  1  0
111255  1  1
112256  1  0
112257  1  0
114258  1  0
115259  1  0
116260  1  0
120261  1  0
121262  1  6
122263  1  1
123264  1  0
124265  1  0
124266  1  0
124267  1  0
127268  1  0
128269  1  1
129270  1  0
129271  1  0
130272  1  0
130273  1  0
130274  1  0
134275  1  0
134276  1  0
135277  1  0
135278  1  0
136279  1  0
136280  1  0
137281  1  0
140282  1  0
141283  1  1
142284  1  0
142285  1  0
144286  1  0
145287  1  0
147288  1  0
148289  1  0
149290  1  0
152291  1  0
153292  1  1
154293  1  0
154294  1  0
156295  1  0
156296  1  0
160297  1  0
161298  1  1
162299  1  0
162300  1  0
163301  1  0
164302  1  0
164303  1  0
164304  1  0
165305  1  0
165306  1  0
165307  1  0
M  CHG  2  85  -1 168  -1
M  END
