
     RDKit          2D

302309  0  0  0  0  0  0  0  0999 V2000
   20.1574   -3.5930    0.0000 C   0  0  0  0  0  0  0  0  0  0  0  0
   21.5004   -2.9250    0.0000 N   0  0  0  0  0  0  0  0  0  0  0  0
   22.7505   -3.7540    0.0000 C   0  0  0  0  0  0  0  0  0  0  0  0
   22.6575   -5.2511    0.0000 C   0  0  0  0  0  0  0  0  0  0  0  0
   23.9076   -6.0801    0.0000 C   0  0  0  0  0  0  0  0  0  0  0  0
   25.2506   -5.4121    0.0000 C   0  0  0  0  0  0  0  0  0  0  0  0
   25.3435   -3.9149    0.0000 C   0  0  0  0  0  0  0  0  0  0  0  0
   24.0935   -3.0859    0.0000 C   0  0  0  0  0  0  0  0  0  0  0  0
   26.7961   -3.5407    0.0000 C   0  0  0  0  0  0  0  0  0  0  0  0
   27.6009   -4.8065    0.0000 O   0  0  0  0  0  0  0  0  0  0  0  0
   26.6458   -5.9631    0.0000 C   0  0  0  0  0  0  0  0  0  0  0  0
   27.0200   -7.4156    0.0000 O   0  0  0  0  0  0  0  0  0  0  0  0
   28.2798   -3.3203    0.0000 C   0  0  0  0  0  0  0  0  0  0  0  0
   28.8308   -1.9252    0.0000 C   0  0  0  0  0  0  0  0  0  0  0  0
   30.3146   -1.7048    0.0000 C   0  0  0  0  0  0  0  0  0  0  0  0
   31.2473   -2.8795    0.0000 C   0  0  0  0  0  0  0  0  0  0  0  0
   30.6963   -4.2747    0.0000 C   0  0  0  0  0  0  0  0  0  0  0  0
   29.2125   -4.4951    0.0000 C   0  0  0  0  0  0  0  0  0  0  0  0
   32.7310   -2.6592    0.0000 O   0  0  0  0  0  0  0  0  0  0  0  0
   27.8981   -0.7504    0.0000 O   0  0  0  0  0  0  0  0  0  0  0  0
   26.4144   -0.9708    0.0000 C   0  0  0  0  0  0  0  0  0  0  0  0
   25.8634   -2.3659    0.0000 C   0  0  0  0  0  0  0  0  0  0  0  0
   24.6368   -1.9352    0.0000 C   0  0  0  0  0  0  0  0  0  0  0  0
   24.1394   -1.3087    0.0000 C   0  0  0  0  0  0  0  0  0  0  0  0
   24.4332   -0.5646    0.0000 C   0  0  0  0  0  0  0  0  0  0  0  0
   25.2246   -0.4471    0.0000 C   0  0  0  0  0  0  0  0  0  0  0  0
   23.0653    1.1583    0.0000 O   0  0  0  0  0  0  0  0  0  0  0  0
   20.0645   -5.0902    0.0000 S   0  0  0  0  0  0  0  0  0  0  0  0
   18.9073   -2.7640    0.0000 N   0  0  0  0  0  0  0  0  0  0  0  0
   17.5643   -3.4321    0.0000 C   0  0  0  0  0  0  0  0  0  0  0  0
   16.3142   -2.6031    0.0000 C   0  0  0  0  0  0  0  0  0  0  0  0
   14.9712   -3.2711    0.0000 C   0  0  0  0  0  0  0  0  0  0  0  0
   15.1158   -4.0551    0.0000 O   0  0  0  0  0  0  0  0  0  0  0  0
   13.7211   -2.4421    0.0000 N   0  0  0  0  0  0  0  0  0  0  0  0
   12.3781   -3.1102    0.0000 C   0  0  0  0  0  0  0  0  0  0  0  0
   13.2693   -4.3168    0.0000 C   0  0  0  0  0  0  0  0  0  0  0  0
   14.7598   -4.1483    0.0000 C   0  0  0  0  0  0  0  0  0  0  0  0
   15.6509   -5.3549    0.0000 N   0  0  0  0  0  0  0  0  0  0  0  0
   15.6741   -2.9592    0.0000 O   0  0  0  0  0  0  0  0  0  0  0  0
   10.8876   -3.2787    0.0000 C   0  0  0  0  0  0  0  0  0  0  0  0
   10.6388   -4.7579    0.0000 O   0  0  0  0  0  0  0  0  0  0  0  0
    9.9965   -2.0721    0.0000 N   0  0  0  0  0  0  0  0  0  0  0  0
    8.5060   -2.2405    0.0000 C   0  0  0  0  0  0  0  0  0  0  0  0
    8.9307   -3.6791    0.0000 C   0  0  0  0  0  0  0  0  0  0  0  0
   10.3889   -4.0306    0.0000 C   0  0  0  0  0  0  0  0  0  0  0  0
   10.8136   -5.4692    0.0000 C   0  0  0  0  0  0  0  0  0  0  0  0
   12.2182   -5.9958    0.0000 O   0  0  0  0  0  0  0  0  0  0  0  0
    9.7801   -6.5564    0.0000 O   0  0  0  0  0  0  0  0  0  0  0  0
    7.0477   -1.8890    0.0000 C   0  0  0  0  0  0  0  0  0  0  0  0
    6.3080   -3.1939    0.0000 O   0  0  0  0  0  0  0  0  0  0  0  0
    6.6230   -0.4504    0.0000 N   0  0  0  0  0  0  0  0  0  0  0  0
    5.1647   -0.0989    0.0000 C   0  0  0  0  0  0  0  0  0  0  0  0
    5.0718   -1.5961    0.0000 C   0  0  0  0  0  0  0  0  0  0  0  0
    6.3219   -2.4251    0.0000 C   0  0  0  0  0  0  0  0  0  0  0  0
    6.2290   -3.9222    0.0000 C   0  0  0  0  0  0  0  0  0  0  0  0
    7.7801   -2.7766    0.0000 C   0  0  0  0  0  0  0  0  0  0  0  0
    3.9147    0.7301    0.0000 C   0  0  0  0  0  0  0  0  0  0  0  0
    2.7732   -0.2431    0.0000 O   0  0  0  0  0  0  0  0  0  0  0  0
    4.0076    2.2272    0.0000 N   0  0  0  0  0  0  0  0  0  0  0  0
    2.7575    3.0562    0.0000 C   0  0  0  0  0  0  0  0  0  0  0  0
    2.5698    1.5680    0.0000 C   0  0  0  0  0  0  0  0  0  0  0  0
    2.1039    0.1422    0.0000 C   0  0  0  0  0  0  0  0  0  0  0  0
    1.3765   -1.1696    0.0000 C   0  0  0  0  0  0  0  0  0  0  0  0
    0.4140   -2.3201    0.0000 C   0  0  0  0  0  0  0  0  0  0  0  0
   -0.7488   -3.2677    0.0000 C   0  0  0  0  0  0  0  0  0  0  0  0
   -2.0699   -3.9780    0.0000 C   0  0  0  0  0  0  0  0  0  0  0  0
   -3.5016   -4.4255    0.0000 C   0  0  0  0  0  0  0  0  0  0  0  0
    4.0554    3.8082    0.0000 C   0  0  0  0  0  0  0  0  0  0  0  0
    2.6602    4.5531    0.0000 C   0  0  0  0  0  0  0  0  0  0  0  0
    4.1008    4.9710    0.0000 O   0  0  0  0  0  0  0  0  0  0  0  0
    2.2813    6.0044    0.0000 N   0  0  0  0  0  0  0  0  0  0  0  0
    1.6346    7.3579    0.0000 C   0  0  0  0  0  0  0  0  0  0  0  0
    2.3200    8.6922    0.0000 C   0  0  0  0  0  0  0  0  0  0  0  0
    3.8182    8.7657    0.0000 C   0  0  0  0  0  0  0  0  0  0  0  0
    4.5035   10.1000    0.0000 C   0  0  0  0  0  0  0  0  0  0  0  0
    6.0017   10.1736    0.0000 N   0  0  0  0  0  0  0  0  0  0  0  0
    6.6871   11.5079    0.0000 C   0  0  0  0  0  0  0  0  0  0  0  0
    8.1853   11.5814    0.0000 N   0  0  0  0  0  0  0  0  0  0  0  0
    5.8743   12.7685    0.0000 N   0  0  0  0  0  0  0  0  0  0  0  0
    0.7435    8.5645    0.0000 C   0  0  0  0  0  0  0  0  0  0  0  0
    1.7294    9.6949    0.0000 O   0  0  0  0  0  0  0  0  0  0  0  0
   -0.3599    9.5806    0.0000 N   0  0  0  0  0  0  0  0  0  0  0  0
   -1.6357   10.3696    0.0000 C   0  0  0  0  0  0  0  0  0  0  0  0
   -1.7805   11.8626    0.0000 C   0  0  0  0  0  0  0  0  0  0  0  0
   -0.5599   12.7344    0.0000 O   0  0  0  0  0  0  0  0  0  0  0  0
   -3.0377   10.9028    0.0000 C   0  0  0  0  0  0  0  0  0  0  0  0
   -2.8194   12.3868    0.0000 O   0  0  0  0  0  0  0  0  0  0  0  0
   -4.5153   11.1611    0.0000 N   0  0  0  0  0  0  0  0  0  0  0  0
   -6.0151   11.1351    0.0000 C   0  0  0  0  0  0  0  0  0  0  0  0
   -6.9441   12.3128    0.0000 C   0  0  0  0  0  0  0  0  0  0  0  0
   -6.3886   13.7062    0.0000 C   0  0  0  0  0  0  0  0  0  0  0  0
   -4.9042   13.9218    0.0000 C   0  0  0  0  0  0  0  0  0  0  0  0
   -4.3488   15.3152    0.0000 C   0  0  0  0  0  0  0  0  0  0  0  0
   -5.2777   16.4929    0.0000 C   0  0  0  0  0  0  0  0  0  0  0  0
   -6.7622   16.2773    0.0000 C   0  0  0  0  0  0  0  0  0  0  0  0
   -7.3176   14.8839    0.0000 C   0  0  0  0  0  0  0  0  0  0  0  0
   -7.4828   10.8257    0.0000 C   0  0  0  0  0  0  0  0  0  0  0  0
   -8.1015   12.1922    0.0000 O   0  0  0  0  0  0  0  0  0  0  0  0
   -8.8655   10.2442    0.0000 N   0  0  0  0  0  0  0  0  0  0  0  0
  -10.1131    9.4114    0.0000 C   0  0  0  0  0  0  0  0  0  0  0  0
  -11.5313    9.8999    0.0000 C   0  0  0  0  0  0  0  0  0  0  0  0
  -11.8174   11.3724    0.0000 C   0  0  0  0  0  0  0  0  0  0  0  0
  -10.6852   12.3564    0.0000 C   0  0  0  0  0  0  0  0  0  0  0  0
  -10.9713   13.8288    0.0000 C   0  0  0  0  0  0  0  0  0  0  0  0
  -12.3895   14.3173    0.0000 C   0  0  0  0  0  0  0  0  0  0  0  0
  -13.5217   13.3334    0.0000 C   0  0  0  0  0  0  0  0  0  0  0  0
  -13.2356   11.8609    0.0000 C   0  0  0  0  0  0  0  0  0  0  0  0
  -11.1806    8.3576    0.0000 C   0  0  0  0  0  0  0  0  0  0  0  0
  -12.4398    9.1727    0.0000 O   0  0  0  0  0  0  0  0  0  0  0  0
  -12.0294    7.1209    0.0000 N   0  0  0  0  0  0  0  0  0  0  0  0
  -12.6287    5.7458    0.0000 C   0  0  0  0  0  0  0  0  0  0  0  0
  -14.0859    5.3900    0.0000 C   0  0  0  0  0  0  0  0  0  0  0  0
  -12.9570    4.2822    0.0000 C   0  0  0  0  0  0  0  0  0  0  0  0
  -14.4570    4.2871    0.0000 O   0  0  0  0  0  0  0  0  0  0  0  0
  -13.0024    2.7829    0.0000 N   0  0  0  0  0  0  0  0  0  0  0  0
  -12.7632    1.3021    0.0000 C   0  0  0  0  0  0  0  0  0  0  0  0
  -13.7967    0.2149    0.0000 C   0  0  0  0  0  0  0  0  0  0  0  0
  -15.2550    0.5664    0.0000 C   0  0  0  0  0  0  0  0  0  0  0  0
  -16.2885   -0.5207    0.0000 C   0  0  0  0  0  0  0  0  0  0  0  0
  -16.5051    1.3955    0.0000 C   0  0  0  0  0  0  0  0  0  0  0  0
  -12.2481   -0.1067    0.0000 C   0  0  0  0  0  0  0  0  0  0  0  0
  -13.5126   -0.9136    0.0000 O   0  0  0  0  0  0  0  0  0  0  0  0
  -11.4757   -1.3926    0.0000 N   0  0  0  0  0  0  0  0  0  0  0  0
  -10.4739   -2.5090    0.0000 C   0  0  0  0  0  0  0  0  0  0  0  0
   -9.2789   -3.4156    0.0000 C   0  0  0  0  0  0  0  0  0  0  0  0
   -7.9339   -4.0797    0.0000 C   0  0  0  0  0  0  0  0  0  0  0  0
   -6.4876   -4.4773    0.0000 C   0  0  0  0  0  0  0  0  0  0  0  0
   -4.9921   -4.5940    0.0000 C   0  0  0  0  0  0  0  0  0  0  0  0
  -11.9191   -2.9108    0.0000 C   0  0  0  0  0  0  0  0  0  0  0  0
  -10.7556   -3.9823    0.0000 C   0  0  0  0  0  0  0  0  0  0  0  0
   -9.8915   -5.2084    0.0000 O   0  0  0  0  0  0  0  0  0  0  0  0
  -12.1724   -4.4750    0.0000 N   0  0  0  0  0  0  0  0  0  0  0  0
  -12.4541   -5.9483    0.0000 C   0  0  0  0  0  0  0  0  0  0  0  0
  -12.2149   -7.4291    0.0000 C   0  0  0  0  0  0  0  0  0  0  0  0
  -13.3777   -8.3766    0.0000 C   0  0  0  0  0  0  0  0  0  0  0  0
  -13.1385   -9.8574    0.0000 O   0  0  0  0  0  0  0  0  0  0  0  0
  -14.8671   -8.1985    0.0000 O   0  0  0  0  0  0  0  0  0  0  0  0
  -13.8708   -6.4410    0.0000 C   0  0  0  0  0  0  0  0  0  0  0  0
  -15.0059   -5.4604    0.0000 O   0  0  0  0  0  0  0  0  0  0  0  0
  -14.1525   -7.9143    0.0000 N   0  0  0  0  0  0  0  0  0  0  0  0
  -15.5693   -8.4070    0.0000 C   0  0  0  0  0  0  0  0  0  0  0  0
  -17.0692   -8.3854    0.0000 C   0  0  0  0  0  0  0  0  0  0  0  0
  -17.8378   -9.6735    0.0000 C   0  0  0  0  0  0  0  0  0  0  0  0
  -19.3376   -9.6519    0.0000 C   0  0  0  0  0  0  0  0  0  0  0  0
  -20.2575  -10.8368    0.0000 N   0  0  0  0  0  0  0  0  0  0  0  0
  -20.0688   -8.3422    0.0000 O   0  0  0  0  0  0  0  0  0  0  0  0
  -15.8510   -9.8803    0.0000 C   0  0  0  0  0  0  0  0  0  0  0  0
  -14.7159  -10.8609    0.0000 O   0  0  0  0  0  0  0  0  0  0  0  0
  -17.2678  -10.3730    0.0000 N   0  0  0  0  0  0  0  0  0  0  0  0
  -17.5495  -11.8463    0.0000 C   0  0  0  0  0  0  0  0  0  0  0  0
  -17.3103  -13.3271    0.0000 C   0  0  0  0  0  0  0  0  0  0  0  0
  -18.4731  -14.2747    0.0000 C   0  0  0  0  0  0  0  0  0  0  0  0
  -16.5791  -14.6368    0.0000 C   0  0  0  0  0  0  0  0  0  0  0  0
  -15.0792  -14.6584    0.0000 C   0  0  0  0  0  0  0  0  0  0  0  0
  -18.9663  -12.3390    0.0000 C   0  0  0  0  0  0  0  0  0  0  0  0
  -19.4254  -13.7670    0.0000 O   0  0  0  0  0  0  0  0  0  0  0  0
  -20.2124  -11.5041    0.0000 O   0  0  0  0  0  0  0  0  0  0  0  0
   21.4101   -1.4277    0.0000 H   0  0  0  0  0  0  0  0  0  0  0  0
   21.3145   -5.9192    0.0000 H   0  0  0  0  0  0  0  0  0  0  0  0
   23.8147   -7.5773    0.0000 H   0  0  0  0  0  0  0  0  0  0  0  0
   23.8214   -1.6108    0.0000 H   0  0  0  0  0  0  0  0  0  0  0  0
   30.8656   -0.3097    0.0000 H   0  0  0  0  0  0  0  0  0  0  0  0
   31.6290   -5.4494    0.0000 H   0  0  0  0  0  0  0  0  0  0  0  0
   28.6615   -5.8902    0.0000 H   0  0  0  0  0  0  0  0  0  0  0  0
   33.6637   -3.8339    0.0000 H   0  0  0  0  0  0  0  0  0  0  0  0
   23.8287   -3.9814    0.0000 H   0  0  0  0  0  0  0  0  0  0  0  0
   21.9474   -1.4494    0.0000 H   0  0  0  0  0  0  0  0  0  0  0  0
   26.0327    1.5991    0.0000 H   0  0  0  0  0  0  0  0  0  0  0  0
   23.6163    2.5535    0.0000 H   0  0  0  0  0  0  0  0  0  0  0  0
   19.0002   -1.2669    0.0000 H   0  0  0  0  0  0  0  0  0  0  0  0
   18.4554   -4.6387    0.0000 H   0  0  0  0  0  0  0  0  0  0  0  0
   16.6710   -4.6371    0.0000 H   0  0  0  0  0  0  0  0  0  0  0  0
   17.3477   -1.5159    0.0000 H   0  0  0  0  0  0  0  0  0  0  0  0
   15.4231   -1.3965    0.0000 H   0  0  0  0  0  0  0  0  0  0  0  0
   13.8140   -0.9450    0.0000 H   0  0  0  0  0  0  0  0  0  0  0  0
   11.9534   -1.6716    0.0000 H   0  0  0  0  0  0  0  0  0  0  0  0
   13.6940   -5.7554    0.0000 H   0  0  0  0  0  0  0  0  0  0  0  0
   12.0177   -5.1436    0.0000 H   0  0  0  0  0  0  0  0  0  0  0  0
   17.1508   -5.3694    0.0000 H   0  0  0  0  0  0  0  0  0  0  0  0
   15.0516   -6.7300    0.0000 H   0  0  0  0  0  0  0  0  0  0  0  0
   10.5958   -0.6970    0.0000 H   0  0  0  0  0  0  0  0  0  0  0  0
    8.7807   -0.7659    0.0000 H   0  0  0  0  0  0  0  0  0  0  0  0
    8.8378   -5.1763    0.0000 H   0  0  0  0  0  0  0  0  0  0  0  0
    7.5252   -4.2033    0.0000 H   0  0  0  0  0  0  0  0  0  0  0  0
   11.8794   -3.8622    0.0000 H   0  0  0  0  0  0  0  0  0  0  0  0
   10.8413   -2.6005    0.0000 H   0  0  0  0  0  0  0  0  0  0  0  0
   10.2049   -7.9950    0.0000 H   0  0  0  0  0  0  0  0  0  0  0  0
    7.6565    0.6367    0.0000 H   0  0  0  0  0  0  0  0  0  0  0  0
    5.7641    1.2761    0.0000 H   0  0  0  0  0  0  0  0  0  0  0  0
    4.3093   -2.8878    0.0000 H   0  0  0  0  0  0  0  0  0  0  0  0
    3.6136   -1.2446    0.0000 H   0  0  0  0  0  0  0  0  0  0  0  0
    7.2362   -1.2359    0.0000 H   0  0  0  0  0  0  0  0  0  0  0  0
    7.2413   -5.0291    0.0000 H   0  0  0  0  0  0  0  0  0  0  0  0
    5.6296   -5.2973    0.0000 H   0  0  0  0  0  0  0  0  0  0  0  0
    4.7388   -3.7511    0.0000 H   0  0  0  0  0  0  0  0  0  0  0  0
    8.2049   -4.2152    0.0000 H   0  0  0  0  0  0  0  0  0  0  0  0
    9.2671   -2.9738    0.0000 H   0  0  0  0  0  0  0  0  0  0  0  0
    7.6899   -1.2793    0.0000 H   0  0  0  0  0  0  0  0  0  0  0  0
    5.4220    2.7266    0.0000 H   0  0  0  0  0  0  0  0  0  0  0  0
    4.0637    1.7033    0.0000 H   0  0  0  0  0  0  0  0  0  0  0  0
    3.5044    0.3947    0.0000 H   0  0  0  0  0  0  0  0  0  0  0  0
    3.5670   -0.1885    0.0000 H   0  0  0  0  0  0  0  0  0  0  0  0
    2.9563   -1.0920    0.0000 H   0  0  0  0  0  0  0  0  0  0  0  0
    2.8749   -1.2388    0.0000 H   0  0  0  0  0  0  0  0  0  0  0  0
    2.1428   -2.4591    0.0000 H   0  0  0  0  0  0  0  0  0  0  0  0
    1.8186   -2.8467    0.0000 H   0  0  0  0  0  0  0  0  0  0  0  0
    0.9225   -3.7313    0.0000 H   0  0  0  0  0  0  0  0  0  0  0  0
    0.5307   -4.0506    0.0000 H   0  0  0  0  0  0  0  0  0  0  0  0
   -0.5166   -4.7496    0.0000 H   0  0  0  0  0  0  0  0  0  0  0  0
   -0.9617   -4.9889    0.0000 H   0  0  0  0  0  0  0  0  0  0  0  0
   -2.3047   -5.4595    0.0000 H   0  0  0  0  0  0  0  0  0  0  0  0
   -3.1922   -5.8933    0.0000 H   0  0  0  0  0  0  0  0  0  0  0  0
    5.4371    3.2241    0.0000 H   0  0  0  0  0  0  0  0  0  0  0  0
    5.1510    4.8328    0.0000 H   0  0  0  0  0  0  0  0  0  0  0  0
    3.3960    5.1554    0.0000 H   0  0  0  0  0  0  0  0  0  0  0  0
    3.7424    6.3440    0.0000 H   0  0  0  0  0  0  0  0  0  0  0  0
    3.1206    7.1536    0.0000 H   0  0  0  0  0  0  0  0  0  0  0  0
    2.5077   10.1804    0.0000 H   0  0  0  0  0  0  0  0  0  0  0  0
    1.0368    9.4690    0.0000 H   0  0  0  0  0  0  0  0  0  0  0  0
    5.2512    8.3225    0.0000 H   0  0  0  0  0  0  0  0  0  0  0  0
    3.9962    7.2763    0.0000 H   0  0  0  0  0  0  0  0  0  0  0  0
    4.6912   11.5882    0.0000 H   0  0  0  0  0  0  0  0  0  0  0  0
    3.1352   10.7146    0.0000 H   0  0  0  0  0  0  0  0  0  0  0  0
    6.8146    8.9129    0.0000 H   0  0  0  0  0  0  0  0  0  0  0  0
    8.8707   12.9157    0.0000 H   0  0  0  0  0  0  0  0  0  0  0  0
    6.5596   14.1028    0.0000 H   0  0  0  0  0  0  0  0  0  0  0  0
    4.3761   12.6950    0.0000 H   0  0  0  0  0  0  0  0  0  0  0  0
    0.5467   10.7756    0.0000 H   0  0  0  0  0  0  0  0  0  0  0  0
   -0.3623   11.1623    0.0000 H   0  0  0  0  0  0  0  0  0  0  0  0
   -2.2574   13.2847    0.0000 H   0  0  0  0  0  0  0  0  0  0  0  0
   -3.2799   11.8223    0.0000 H   0  0  0  0  0  0  0  0  0  0  0  0
   -0.7047   14.2274    0.0000 H   0  0  0  0  0  0  0  0  0  0  0  0
   -4.2172   12.6312    0.0000 H   0  0  0  0  0  0  0  0  0  0  0  0
   -5.3724   12.4904    0.0000 H   0  0  0  0  0  0  0  0  0  0  0  0
   -8.1141   13.2514    0.0000 H   0  0  0  0  0  0  0  0  0  0  0  0
   -8.1837   11.4683    0.0000 H   0  0  0  0  0  0  0  0  0  0  0  0
   -3.8386   12.8662    0.0000 H   0  0  0  0  0  0  0  0  0  0  0  0
   -2.8644   15.5309    0.0000 H   0  0  0  0  0  0  0  0  0  0  0  0
   -4.7223   17.8863    0.0000 H   0  0  0  0  0  0  0  0  0  0  0  0
   -7.6911   17.4550    0.0000 H   0  0  0  0  0  0  0  0  0  0  0  0
   -8.8020   14.6682    0.0000 H   0  0  0  0  0  0  0  0  0  0  0  0
   -9.4095   11.6420    0.0000 H   0  0  0  0  0  0  0  0  0  0  0  0
  -10.3052   10.8991    0.0000 H   0  0  0  0  0  0  0  0  0  0  0  0
  -13.0231   10.0569    0.0000 H   0  0  0  0  0  0  0  0  0  0  0  0
  -12.1177    8.5193    0.0000 H   0  0  0  0  0  0  0  0  0  0  0  0
   -9.2180   12.0444    0.0000 H   0  0  0  0  0  0  0  0  0  0  0  0
   -9.8391   14.8128    0.0000 H   0  0  0  0  0  0  0  0  0  0  0  0
  -12.6756   15.7898    0.0000 H   0  0  0  0  0  0  0  0  0  0  0  0
  -14.9399   13.8219    0.0000 H   0  0  0  0  0  0  0  0  0  0  0  0
  -14.3678   10.8769    0.0000 H   0  0  0  0  0  0  0  0  0  0  0  0
  -13.3412    7.8482    0.0000 H   0  0  0  0  0  0  0  0  0  0  0  0
  -13.5946    6.8935    0.0000 H   0  0  0  0  0  0  0  0  0  0  0  0
  -15.1226    6.4741    0.0000 H   0  0  0  0  0  0  0  0  0  0  0  0
  -15.4258    4.7156    0.0000 H   0  0  0  0  0  0  0  0  0  0  0  0
  -13.8327    3.9115    0.0000 H   0  0  0  0  0  0  0  0  0  0  0  0
  -14.5000    2.8687    0.0000 H   0  0  0  0  0  0  0  0  0  0  0  0
  -14.1315    1.9167    0.0000 H   0  0  0  0  0  0  0  0  0  0  0  0
  -14.3961   -1.1601    0.0000 H   0  0  0  0  0  0  0  0  0  0  0  0
  -12.7844   -0.8920    0.0000 H   0  0  0  0  0  0  0  0  0  0  0  0
  -15.0061    2.0456    0.0000 H   0  0  0  0  0  0  0  0  0  0  0  0
  -17.7787   -0.3496    0.0000 H   0  0  0  0  0  0  0  0  0  0  0  0
  -16.8878   -1.8958    0.0000 H   0  0  0  0  0  0  0  0  0  0  0  0
  -15.1488   -1.4959    0.0000 H   0  0  0  0  0  0  0  0  0  0  0  0
  -17.9195    0.8961    0.0000 H   0  0  0  0  0  0  0  0  0  0  0  0
  -17.3962    2.6020    0.0000 H   0  0  0  0  0  0  0  0  0  0  0  0
  -15.4715    2.4826    0.0000 H   0  0  0  0  0  0  0  0  0  0  0  0
  -12.7819   -2.1300    0.0000 H   0  0  0  0  0  0  0  0  0  0  0  0
   -9.2767   -4.9156    0.0000 H   0  0  0  0  0  0  0  0  0  0  0  0
  -10.4203   -4.3888    0.0000 H   0  0  0  0  0  0  0  0  0  0  0  0
   -7.8295   -5.5761    0.0000 H   0  0  0  0  0  0  0  0  0  0  0  0
   -8.8706   -5.2514    0.0000 H   0  0  0  0  0  0  0  0  0  0  0  0
   -5.9280   -5.8690    0.0000 H   0  0  0  0  0  0  0  0  0  0  0  0
   -7.3422   -5.7100    0.0000 H   0  0  0  0  0  0  0  0  0  0  0  0
   -4.9661   -6.0937    0.0000 H   0  0  0  0  0  0  0  0  0  0  0  0
  -12.6340   -4.2295    0.0000 H   0  0  0  0  0  0  0  0  0  0  0  0
  -13.4145   -2.7942    0.0000 H   0  0  0  0  0  0  0  0  0  0  0  0
  -12.4208   -1.4972    0.0000 H   0  0  0  0  0  0  0  0  0  0  0  0
  -13.4185   -3.6400    0.0000 H   0  0  0  0  0  0  0  0  0  0  0  0
  -10.9542   -5.9699    0.0000 H   0  0  0  0  0  0  0  0  0  0  0  0
  -11.4836   -8.7388    0.0000 H   0  0  0  0  0  0  0  0  0  0  0  0
  -10.7981   -6.9364    0.0000 H   0  0  0  0  0  0  0  0  0  0  0  0
  -16.0539   -8.5131    0.0000 H   0  0  0  0  0  0  0  0  0  0  0  0
  -13.2885   -9.1404    0.0000 H   0  0  0  0  0  0  0  0  0  0  0  0
  -15.8085   -6.9262    0.0000 H   0  0  0  0  0  0  0  0  0  0  0  0
  -18.4712   -7.8521    0.0000 H   0  0  0  0  0  0  0  0  0  0  0  0
  -16.7875   -6.9121    0.0000 H   0  0  0  0  0  0  0  0  0  0  0  0
  -18.1195  -11.1468    0.0000 H   0  0  0  0  0  0  0  0  0  0  0  0
  -16.8503  -10.8027    0.0000 H   0  0  0  0  0  0  0  0  0  0  0  0
  -21.6061  -10.9185    0.0000 H   0  0  0  0  0  0  0  0  0  0  0  0
  -19.9401  -12.4722    0.0000 H   0  0  0  0  0  0  0  0  0  0  0  0
  -18.6064   -9.6962    0.0000 H   0  0  0  0  0  0  0  0  0  0  0  0
  -16.0496  -11.8679    0.0000 H   0  0  0  0  0  0  0  0  0  0  0  0
  -15.9641  -12.6654    0.0000 H   0  0  0  0  0  0  0  0  0  0  0  0
  -18.4162  -15.7736    0.0000 H   0  0  0  0  0  0  0  0  0  0  0  0
  -19.8899  -14.7674    0.0000 H   0  0  0  0  0  0  0  0  0  0  0  0
  -19.7337  -13.4617    0.0000 H   0  0  0  0  0  0  0  0  0  0  0  0
  -16.3399  -16.1176    0.0000 H   0  0  0  0  0  0  0  0  0  0  0  0
  -17.9252  -15.2985    0.0000 H   0  0  0  0  0  0  0  0  0  0  0  0
  -14.3480  -15.9681    0.0000 H   0  0  0  0  0  0  0  0  0  0  0  0
  -13.6624  -14.1657    0.0000 H   0  0  0  0  0  0  0  0  0  0  0  0
  -15.1361  -13.1595    0.0000 H   0  0  0  0  0  0  0  0  0  0  0  0
  -21.5181  -11.8511    0.0000 H   0  0  0  0  0  0  0  0  0  0  0  0
  1  2  1  0
  2  3  1  0
  3  4  2  0
  4  5  1  0
  5  6  2  0
  6  7  1  0
  7  8  2  0
  7  9  1  0
  9 10  1  0
 10 11  1  0
 11 12  2  0
  9 13  1  0
 13 14  1  0
 14 15  2  0
 15 16  1  0
 16 17  2  0
 17 18  1  0
 16 19  1  0
 14 20  1  0
 20 21  1  0
 21 22  2  0
 22 23  1  0
 23 24  2  0
 24 25  1  0
 25 26  2  0
 25 27  1  0
  1 28  2  0
  1 29  1  0
 29 30  1  0
 30 31  1  0
 31 32  1  0
 32 33  2  0
 32 34  1  0
 34 35  1  0
 35 36  1  0
 36 37  1  0
 37 38  1  0
 37 39  2  0
 35 40  1  0
 40 41  2  0
 40 42  1  0
 42 43  1  0
 43 44  1  0
 44 45  1  0
 45 46  1  0
 46 47  2  0
 46 48  1  0
 43 49  1  0
 49 50  2  0
 49 51  1  0
 51 52  1  0
 52 53  1  0
 53 54  1  0
 54 55  1  0
 54 56  1  0
 52 57  1  0
 57 58  2  0
 57 59  1  0
 60 59  1  6
 60 61  1  0
 61 62  1  0
 62 63  1  0
 63 64  1  0
 64 65  1  0
 65 66  1  0
 66 67  1  0
 60 68  1  0
 60 69  1  0
 69 70  2  0
 69 71  1  0
 71 72  1  0
 72 73  1  0
 73 74  1  0
 74 75  1  0
 75 76  1  0
 76 77  1  0
 77 78  2  3
 77 79  1  0
 72 80  1  0
 80 81  2  0
 80 82  1  0
 82 83  1  0
 83 84  1  0
 84 85  1  0
 83 86  1  0
 86 87  2  0
 86 88  1  0
 88 89  1  0
 89 90  1  0
 90 91  1  0
 91 92  2  0
 92 93  1  0
 93 94  2  0
 94 95  1  0
 95 96  2  0
 89 97  1  0
 97 98  2  0
 97 99  1  0
 99100  1  0
100101  1  0
101102  1  0
102103  2  0
103104  1  0
104105  2  0
105106  1  0
106107  2  0
100108  1  0
108109  2  0
108110  1  0
110111  1  0
111112  1  0
111113  1  0
113114  2  0
113115  1  0
115116  1  0
116117  1  0
117118  1  0
118119  1  0
118120  1  0
116121  1  0
121122  2  0
121123  1  0
123124  1  0
124125  1  0
125126  1  0
126127  1  0
127128  1  0
124129  1  0
124130  1  1
130131  2  0
130132  1  0
132133  1  0
133134  1  0
134135  1  0
135136  2  0
135137  1  0
133138  1  0
138139  2  0
138140  1  0
140141  1  0
141142  1  0
142143  1  0
143144  1  0
144145  1  0
144146  2  0
141147  1  0
147148  2  0
147149  1  0
149150  1  0
150151  1  0
151152  1  0
151153  1  0
153154  1  0
150155  1  0
155156  2  0
155157  1  0
  8  3  1  0
 96 91  1  0
107102  1  0
 11  6  1  0
 67128  2  0
 18 13  2  0
 22  9  1  0
 26 21  1  0
  2158  1  0
  4159  1  0
  5160  1  0
  8161  1  0
 15162  1  0
 17163  1  0
 18164  1  0
 19165  1  0
 23166  1  0
 24167  1  0
 26168  1  0
 27169  1  0
 29170  1  0
 30171  1  0
 30172  1  0
 31173  1  0
 31174  1  0
 34175  1  0
 35176  1  1
 36177  1  0
 36178  1  0
 38179  1  0
 38180  1  0
 42181  1  0
 43182  1  1
 44183  1  0
 44184  1  0
 45185  1  0
 45186  1  0
 48187  1  0
 51188  1  0
 52189  1  1
 53190  1  0
 53191  1  0
 54192  1  0
 55193  1  0
 55194  1  0
 55195  1  0
 56196  1  0
 56197  1  0
 56198  1  0
 59199  1  0
 61200  1  0
 61201  1  0
 62202  1  0
 62203  1  0
 63204  1  0
 63205  1  0
 64206  1  0
 64207  1  0
 65208  1  0
 65209  1  0
 66210  1  0
 66211  1  0
 67212  1  0
 68213  1  0
 68214  1  0
 68215  1  0
 71216  1  0
 72217  1  6
 73218  1  0
 73219  1  0
 74220  1  0
 74221  1  0
 75222  1  0
 75223  1  0
 76224  1  0
 78225  1  0
 79226  1  0
 79227  1  0
 82228  1  0
 83229  1  6
 84230  1  0
 84231  1  0
 85232  1  0
 88233  1  0
 89234  1  6
 90235  1  0
 90236  1  0
 92237  1  0
 93238  1  0
 94239  1  0
 95240  1  0
 96241  1  0
 99242  1  0
100243  1  6
101244  1  0
101245  1  0
103246  1  0
104247  1  0
105248  1  0
106249  1  0
107250  1  0
110251  1  0
111252  1  6
112253  1  0
112254  1  0
112255  1  0
115256  1  0
116257  1  6
117258  1  0
117259  1  0
118260  1  0
119261  1  0
119262  1  0
119263  1  0
120264  1  0
120265  1  0
120266  1  0
123267  1  0
125268  1  0
125269  1  0
126270  1  0
126271  1  0
127272  1  0
127273  1  0
128274  1  0
129275  1  0
129276  1  0
129277  1  0
132278  1  0
133279  1  1
134280  1  0
134281  1  0
137282  1  0
140283  1  0
141284  1  6
142285  1  0
142286  1  0
143287  1  0
143288  1  0
145289  1  0
145290  1  0
149291  1  0
150292  1  1
151293  1  1
152294  1  0
152295  1  0
152296  1  0
153297  1  0
153298  1  0
154299  1  0
154300  1  0
154301  1  0
157302  1  0
M  END
