
     RDKit          2D

268270  0  0  0  0  0  0  0  0999 V2000
  -20.4506   -0.7595    0.0000 N   0  0  0  0  0  0  0  0  0  0  0  0
  -19.0912   -1.3936    0.0000 C   0  0  0  0  0  0  0  0  0  0  0  0
  -18.9607   -2.8879    0.0000 C   0  0  0  0  0  0  0  0  0  0  0  0
  -17.6013   -3.5220    0.0000 C   0  0  0  0  0  0  0  0  0  0  0  0
  -16.3724   -2.6617    0.0000 O   0  0  0  0  0  0  0  0  0  0  0  0
  -17.4707   -5.0163    0.0000 N   0  0  0  0  0  0  0  0  0  0  0  0
  -16.1113   -5.6503    0.0000 C   0  0  0  0  0  0  0  0  0  0  0  0
  -16.9718   -6.8790    0.0000 C   0  0  0  0  0  0  0  0  0  0  0  0
  -18.4660   -6.7481    0.0000 C   0  0  0  0  0  0  0  0  0  0  0  0
  -19.3265   -7.9767    0.0000 N   0  0  0  0  0  0  0  0  0  0  0  0
  -19.2608   -5.4760    0.0000 O   0  0  0  0  0  0  0  0  0  0  0  0
  -14.6170   -5.7812    0.0000 C   0  0  0  0  0  0  0  0  0  0  0  0
  -14.1536   -7.2079    0.0000 O   0  0  0  0  0  0  0  0  0  0  0  0
  -13.7565   -4.5526    0.0000 N   0  0  0  0  0  0  0  0  0  0  0  0
  -12.2622   -4.6835    0.0000 C   0  0  0  0  0  0  0  0  0  0  0  0
  -12.6506   -6.1323    0.0000 C   0  0  0  0  0  0  0  0  0  0  0  0
  -11.5900   -7.1931    0.0000 C   0  0  0  0  0  0  0  0  0  0  0  0
  -11.9784   -8.6419    0.0000 C   0  0  0  0  0  0  0  0  0  0  0  0
  -10.9179   -9.7027    0.0000 C   0  0  0  0  0  0  0  0  0  0  0  0
  -11.3062  -11.1515    0.0000 N   0  0  0  0  0  0  0  0  0  0  0  0
  -10.8133   -4.2954    0.0000 C   0  0  0  0  0  0  0  0  0  0  0  0
   -9.7527   -5.3561    0.0000 O   0  0  0  0  0  0  0  0  0  0  0  0
  -10.4249   -2.8465    0.0000 N   0  0  0  0  0  0  0  0  0  0  0  0
   -8.9760   -2.4584    0.0000 C   0  0  0  0  0  0  0  0  0  0  0  0
   -9.6098   -1.0989    0.0000 C   0  0  0  0  0  0  0  0  0  0  0  0
  -11.1041   -0.9680    0.0000 C   0  0  0  0  0  0  0  0  0  0  0  0
  -11.7379    0.3915    0.0000 C   0  0  0  0  0  0  0  0  0  0  0  0
  -12.5530   -1.3561    0.0000 C   0  0  0  0  0  0  0  0  0  0  0  0
   -7.4817   -2.5893    0.0000 C   0  0  0  0  0  0  0  0  0  0  0  0
   -7.0184   -4.0160    0.0000 O   0  0  0  0  0  0  0  0  0  0  0  0
   -6.6212   -1.3607    0.0000 N   0  0  0  0  0  0  0  0  0  0  0  0
   -5.1270   -1.4916    0.0000 C   0  0  0  0  0  0  0  0  0  0  0  0
   -4.3262   -2.7599    0.0000 C   0  0  0  0  0  0  0  0  0  0  0  0
   -3.2998   -3.8538    0.0000 C   0  0  0  0  0  0  0  0  0  0  0  0
   -2.0850   -4.7337    0.0000 C   0  0  0  0  0  0  0  0  0  0  0  0
   -0.7256   -5.3677    0.0000 C   0  0  0  0  0  0  0  0  0  0  0  0
    0.7293   -5.7331    0.0000 C   0  0  0  0  0  0  0  0  0  0  0  0
    2.2270   -5.8165    0.0000 C   0  0  0  0  0  0  0  0  0  0  0  0
    3.7134   -5.6149    0.0000 C   0  0  0  0  0  0  0  0  0  0  0  0
   -6.0581   -2.6676    0.0000 C   0  0  0  0  0  0  0  0  0  0  0  0
   -5.6732   -0.0946    0.0000 C   0  0  0  0  0  0  0  0  0  0  0  0
   -7.1552   -0.3267    0.0000 O   0  0  0  0  0  0  0  0  0  0  0  0
   -5.9453    1.3806    0.0000 N   0  0  0  0  0  0  0  0  0  0  0  0
   -5.9332    2.8805    0.0000 C   0  0  0  0  0  0  0  0  0  0  0  0
   -7.2825    2.2252    0.0000 C   0  0  0  0  0  0  0  0  0  0  0  0
   -8.5247    3.0661    0.0000 C   0  0  0  0  0  0  0  0  0  0  0  0
   -8.4175    4.5623    0.0000 C   0  0  0  0  0  0  0  0  0  0  0  0
   -9.6597    5.4032    0.0000 N   0  0  0  0  0  0  0  0  0  0  0  0
   -9.5525    6.8993    0.0000 C   0  0  0  0  0  0  0  0  0  0  0  0
  -10.7946    7.7402    0.0000 N   0  0  0  0  0  0  0  0  0  0  0  0
   -8.2032    7.5546    0.0000 N   0  0  0  0  0  0  0  0  0  0  0  0
   -5.6375    4.3511    0.0000 C   0  0  0  0  0  0  0  0  0  0  0  0
   -7.1155    4.6070    0.0000 O   0  0  0  0  0  0  0  0  0  0  0  0
   -5.0689    5.7391    0.0000 N   0  0  0  0  0  0  0  0  0  0  0  0
   -4.2478    6.9944    0.0000 C   0  0  0  0  0  0  0  0  0  0  0  0
   -5.7372    7.1727    0.0000 C   0  0  0  0  0  0  0  0  0  0  0  0
   -6.3275    8.5516    0.0000 O   0  0  0  0  0  0  0  0  0  0  0  0
   -3.2040    8.0717    0.0000 C   0  0  0  0  0  0  0  0  0  0  0  0
   -4.1771    9.2132    0.0000 O   0  0  0  0  0  0  0  0  0  0  0  0
   -1.9752    8.9319    0.0000 N   0  0  0  0  0  0  0  0  0  0  0  0
   -0.6058    9.5441    0.0000 C   0  0  0  0  0  0  0  0  0  0  0  0
   -1.7624   10.4992    0.0000 C   0  0  0  0  0  0  0  0  0  0  0  0
   -1.5135   11.9784    0.0000 C   0  0  0  0  0  0  0  0  0  0  0  0
   -0.1080   12.5025    0.0000 C   0  0  0  0  0  0  0  0  0  0  0  0
    0.1409   13.9817    0.0000 C   0  0  0  0  0  0  0  0  0  0  0  0
   -1.0157   14.9368    0.0000 C   0  0  0  0  0  0  0  0  0  0  0  0
   -2.4212   14.4128    0.0000 C   0  0  0  0  0  0  0  0  0  0  0  0
   -2.6700   12.9336    0.0000 C   0  0  0  0  0  0  0  0  0  0  0  0
    0.8547    9.8860    0.0000 C   0  0  0  0  0  0  0  0  0  0  0  0
    0.8359   11.3859    0.0000 O   0  0  0  0  0  0  0  0  0  0  0  0
    2.3536    9.9453    0.0000 N   0  0  0  0  0  0  0  0  0  0  0  0
    3.8365    9.7199    0.0000 C   0  0  0  0  0  0  0  0  0  0  0  0
    3.3799   11.1487    0.0000 C   0  0  0  0  0  0  0  0  0  0  0  0
    4.3890   12.2586    0.0000 C   0  0  0  0  0  0  0  0  0  0  0  0
    5.8547   11.9396    0.0000 C   0  0  0  0  0  0  0  0  0  0  0  0
    6.8638   13.0494    0.0000 C   0  0  0  0  0  0  0  0  0  0  0  0
    6.4072   14.4782    0.0000 C   0  0  0  0  0  0  0  0  0  0  0  0
    4.9416   14.7972    0.0000 C   0  0  0  0  0  0  0  0  0  0  0  0
    3.9325   13.6874    0.0000 C   0  0  0  0  0  0  0  0  0  0  0  0
    5.2500    9.2179    0.0000 C   0  0  0  0  0  0  0  0  0  0  0  0
    6.0451   10.4899    0.0000 O   0  0  0  0  0  0  0  0  0  0  0  0
    6.5430    8.4575    0.0000 N   0  0  0  0  0  0  0  0  0  0  0  0
    7.6687    7.4662    0.0000 C   0  0  0  0  0  0  0  0  0  0  0  0
    8.0571    8.9150    0.0000 C   0  0  0  0  0  0  0  0  0  0  0  0
    8.5865    6.2797    0.0000 C   0  0  0  0  0  0  0  0  0  0  0  0
    9.8548    7.0805    0.0000 O   0  0  0  0  0  0  0  0  0  0  0  0
    9.2631    4.9410    0.0000 N   0  0  0  0  0  0  0  0  0  0  0  0
    9.6741    3.4984    0.0000 C   0  0  0  0  0  0  0  0  0  0  0  0
   10.7841    4.5072    0.0000 C   0  0  0  0  0  0  0  0  0  0  0  0
   12.2128    4.0504    0.0000 C   0  0  0  0  0  0  0  0  0  0  0  0
   13.3229    5.0593    0.0000 C   0  0  0  0  0  0  0  0  0  0  0  0
   13.3992    3.1324    0.0000 C   0  0  0  0  0  0  0  0  0  0  0  0
    9.8047    2.0041    0.0000 C   0  0  0  0  0  0  0  0  0  0  0  0
   11.2920    1.8093    0.0000 O   0  0  0  0  0  0  0  0  0  0  0  0
    9.6501    0.5120    0.0000 N   0  0  0  0  0  0  0  0  0  0  0  0
    9.2160   -0.9238    0.0000 C   0  0  0  0  0  0  0  0  0  0  0  0
    8.5179   -2.2514    0.0000 C   0  0  0  0  0  0  0  0  0  0  0  0
    7.5812   -3.4230    0.0000 C   0  0  0  0  0  0  0  0  0  0  0  0
    6.4398   -4.3962    0.0000 C   0  0  0  0  0  0  0  0  0  0  0  0
    5.1347   -5.1357    0.0000 C   0  0  0  0  0  0  0  0  0  0  0  0
   10.2371   -2.0225    0.0000 C   0  0  0  0  0  0  0  0  0  0  0  0
   10.6952   -0.6752    0.0000 C   0  0  0  0  0  0  0  0  0  0  0  0
   11.3869    0.6558    0.0000 O   0  0  0  0  0  0  0  0  0  0  0  0
   11.6501   -1.8319    0.0000 N   0  0  0  0  0  0  0  0  0  0  0  0
   13.1294   -1.5833    0.0000 C   0  0  0  0  0  0  0  0  0  0  0  0
   14.4344   -0.8438    0.0000 C   0  0  0  0  0  0  0  0  0  0  0  0
   15.7274   -1.6042    0.0000 C   0  0  0  0  0  0  0  0  0  0  0  0
   15.8182   -2.3962    0.0000 O   0  0  0  0  0  0  0  0  0  0  0  0
   17.0324   -0.8647    0.0000 O   0  0  0  0  0  0  0  0  0  0  0  0
   14.0843   -2.7401    0.0000 C   0  0  0  0  0  0  0  0  0  0  0  0
   14.8807   -2.7048    0.0000 O   0  0  0  0  0  0  0  0  0  0  0  0
   13.5600   -4.1455    0.0000 N   0  0  0  0  0  0  0  0  0  0  0  0
   14.5149   -5.3023    0.0000 C   0  0  0  0  0  0  0  0  0  0  0  0
   15.8079   -6.0627    0.0000 C   0  0  0  0  0  0  0  0  0  0  0  0
   15.7958   -7.5626    0.0000 C   0  0  0  0  0  0  0  0  0  0  0  0
   17.0888   -8.3230    0.0000 C   0  0  0  0  0  0  0  0  0  0  0  0
   17.2597   -9.8133    0.0000 N   0  0  0  0  0  0  0  0  0  0  0  0
   18.3938   -7.5835    0.0000 O   0  0  0  0  0  0  0  0  0  0  0  0
   13.9906   -6.7076    0.0000 C   0  0  0  0  0  0  0  0  0  0  0  0
   12.5113   -6.9562    0.0000 O   0  0  0  0  0  0  0  0  0  0  0  0
   14.9455   -7.8644    0.0000 N   0  0  0  0  0  0  0  0  0  0  0  0
   14.4211   -9.2698    0.0000 C   0  0  0  0  0  0  0  0  0  0  0  0
   13.4478  -10.4111    0.0000 C   0  0  0  0  0  0  0  0  0  0  0  0
   13.9494  -11.8247    0.0000 C   0  0  0  0  0  0  0  0  0  0  0  0
   12.1427  -11.1506    0.0000 C   0  0  0  0  0  0  0  0  0  0  0  0
   10.8498  -10.3902    0.0000 C   0  0  0  0  0  0  0  0  0  0  0  0
   15.3761  -10.4265    0.0000 C   0  0  0  0  0  0  0  0  0  0  0  0
   15.0269  -11.8854    0.0000 O   0  0  0  0  0  0  0  0  0  0  0  0
   16.8746  -10.3601    0.0000 O   0  0  0  0  0  0  0  0  0  0  0  0
  -20.5812    0.7348    0.0000 H   0  0  0  0  0  0  0  0  0  0  0  0
  -21.6795   -1.6198    0.0000 H   0  0  0  0  0  0  0  0  0  0  0  0
  -18.7029    0.0553    0.0000 H   0  0  0  0  0  0  0  0  0  0  0  0
  -17.5970   -1.5245    0.0000 H   0  0  0  0  0  0  0  0  0  0  0  0
  -20.4549   -2.7570    0.0000 H   0  0  0  0  0  0  0  0  0  0  0  0
  -19.3490   -4.3368    0.0000 H   0  0  0  0  0  0  0  0  0  0  0  0
  -18.7952   -5.7203    0.0000 H   0  0  0  0  0  0  0  0  0  0  0  0
  -15.7229   -4.2015    0.0000 H   0  0  0  0  0  0  0  0  0  0  0  0
  -17.3601   -8.3278    0.0000 H   0  0  0  0  0  0  0  0  0  0  0  0
  -15.6124   -7.5130    0.0000 H   0  0  0  0  0  0  0  0  0  0  0  0
  -20.8208   -7.8459    0.0000 H   0  0  0  0  0  0  0  0  0  0  0  0
  -18.6927   -9.3363    0.0000 H   0  0  0  0  0  0  0  0  0  0  0  0
  -14.3903   -3.1930    0.0000 H   0  0  0  0  0  0  0  0  0  0  0  0
  -12.5740   -3.2162    0.0000 H   0  0  0  0  0  0  0  0  0  0  0  0
  -13.5111   -7.3609    0.0000 H   0  0  0  0  0  0  0  0  0  0  0  0
  -14.1230   -5.8460    0.0000 H   0  0  0  0  0  0  0  0  0  0  0  0
  -10.1635   -7.6567    0.0000 H   0  0  0  0  0  0  0  0  0  0  0  0
  -10.7296   -5.9644    0.0000 H   0  0  0  0  0  0  0  0  0  0  0  0
  -12.9823   -9.7565    0.0000 H   0  0  0  0  0  0  0  0  0  0  0  0
  -13.4050   -8.1783    0.0000 H   0  0  0  0  0  0  0  0  0  0  0  0
   -9.5585  -10.3367    0.0000 H   0  0  0  0  0  0  0  0  0  0  0  0
   -9.9140   -8.5881    0.0000 H   0  0  0  0  0  0  0  0  0  0  0  0
  -10.2457  -12.2123    0.0000 H   0  0  0  0  0  0  0  0  0  0  0  0
  -12.1667  -12.3802    0.0000 H   0  0  0  0  0  0  0  0  0  0  0  0
  -12.7328  -10.6879    0.0000 H   0  0  0  0  0  0  0  0  0  0  0  0
  -11.6069   -1.9229    0.0000 H   0  0  0  0  0  0  0  0  0  0  0  0
   -8.8454   -3.9527    0.0000 H   0  0  0  0  0  0  0  0  0  0  0  0
   -9.5573    0.4002    0.0000 H   0  0  0  0  0  0  0  0  0  0  0  0
   -8.1609   -0.7108    0.0000 H   0  0  0  0  0  0  0  0  0  0  0  0
  -11.5178   -2.4098    0.0000 H   0  0  0  0  0  0  0  0  0  0  0  0
  -13.2050    0.7035    0.0000 H   0  0  0  0  0  0  0  0  0  0  0  0
  -11.8684    1.8858    0.0000 H   0  0  0  0  0  0  0  0  0  0  0  0
  -10.3470    0.9533    0.0000 H   0  0  0  0  0  0  0  0  0  0  0  0
  -13.1151   -2.7468    0.0000 H   0  0  0  0  0  0  0  0  0  0  0  0
  -14.0473   -1.2252    0.0000 H   0  0  0  0  0  0  0  0  0  0  0  0
  -12.8648    0.1111    0.0000 H   0  0  0  0  0  0  0  0  0  0  0  0
   -7.4160   -0.0885    0.0000 H   0  0  0  0  0  0  0  0  0  0  0  0
   -5.0179   -4.0909    0.0000 H   0  0  0  0  0  0  0  0  0  0  0  0
   -5.7883   -3.0949    0.0000 H   0  0  0  0  0  0  0  0  0  0  0  0
   -3.7271   -5.2916    0.0000 H   0  0  0  0  0  0  0  0  0  0  0  0
   -4.6721   -4.4594    0.0000 H   0  0  0  0  0  0  0  0  0  0  0  0
   -2.2325   -6.2264    0.0000 H   0  0  0  0  0  0  0  0  0  0  0  0
   -3.3178   -5.5881    0.0000 H   0  0  0  0  0  0  0  0  0  0  0  0
   -0.5879   -6.8614    0.0000 H   0  0  0  0  0  0  0  0  0  0  0  0
   -1.7744   -6.4400    0.0000 H   0  0  0  0  0  0  0  0  0  0  0  0
    1.1471   -7.1737    0.0000 H   0  0  0  0  0  0  0  0  0  0  0  0
   -0.0977   -6.9845    0.0000 H   0  0  0  0  0  0  0  0  0  0  0  0
    3.0676   -7.0588    0.0000 H   0  0  0  0  0  0  0  0  0  0  0  0
    1.6517   -7.2018    0.0000 H   0  0  0  0  0  0  0  0  0  0  0  0
    4.0553   -7.0754    0.0000 H   0  0  0  0  0  0  0  0  0  0  0  0
   -7.3506   -3.0609    0.0000 H   0  0  0  0  0  0  0  0  0  0  0  0
   -6.0104   -4.2488    0.0000 H   0  0  0  0  0  0  0  0  0  0  0  0
   -4.7145   -3.6739    0.0000 H   0  0  0  0  0  0  0  0  0  0  0  0
   -7.4125    1.0688    0.0000 H   0  0  0  0  0  0  0  0  0  0  0  0
   -6.9988    3.9362    0.0000 H   0  0  0  0  0  0  0  0  0  0  0  0
   -8.4499    1.2832    0.0000 H   0  0  0  0  0  0  0  0  0  0  0  0
   -6.7230    0.8335    0.0000 H   0  0  0  0  0  0  0  0  0  0  0  0
   -9.9795    3.4314    0.0000 H   0  0  0  0  0  0  0  0  0  0  0  0
   -9.1371    1.6968    0.0000 H   0  0  0  0  0  0  0  0  0  0  0  0
   -7.8051    5.9316    0.0000 H   0  0  0  0  0  0  0  0  0  0  0  0
   -6.9627    4.1969    0.0000 H   0  0  0  0  0  0  0  0  0  0  0  0
  -11.0090    4.7479    0.0000 H   0  0  0  0  0  0  0  0  0  0  0  0
  -10.6875    9.2364    0.0000 H   0  0  0  0  0  0  0  0  0  0  0  0
  -12.1439    7.0849    0.0000 H   0  0  0  0  0  0  0  0  0  0  0  0
   -8.2792    9.0527    0.0000 H   0  0  0  0  0  0  0  0  0  0  0  0
   -7.2014    6.4381    0.0000 H   0  0  0  0  0  0  0  0  0  0  0  0
   -6.5260    6.0951    0.0000 H   0  0  0  0  0  0  0  0  0  0  0  0
   -4.7495    8.4080    0.0000 H   0  0  0  0  0  0  0  0  0  0  0  0
   -7.1977    6.8307    0.0000 H   0  0  0  0  0  0  0  0  0  0  0  0
   -6.0189    5.6994    0.0000 H   0  0  0  0  0  0  0  0  0  0  0  0
   -7.7841    8.9100    0.0000 H   0  0  0  0  0  0  0  0  0  0  0  0
   -2.8683   10.1371    0.0000 H   0  0  0  0  0  0  0  0  0  0  0  0
   -0.2636   11.0045    0.0000 H   0  0  0  0  0  0  0  0  0  0  0  0
   -3.1041   11.1697    0.0000 H   0  0  0  0  0  0  0  0  0  0  0  0
   -2.7959    9.4121    0.0000 H   0  0  0  0  0  0  0  0  0  0  0  0
    1.1564   11.6954    0.0000 H   0  0  0  0  0  0  0  0  0  0  0  0
    1.5464   14.5057    0.0000 H   0  0  0  0  0  0  0  0  0  0  0  0
   -0.7668   16.4160    0.0000 H   0  0  0  0  0  0  0  0  0  0  0  0
   -3.5777   15.3679    0.0000 H   0  0  0  0  0  0  0  0  0  0  0  0
   -4.0755   12.4095    0.0000 H   0  0  0  0  0  0  0  0  0  0  0  0
    2.2538   11.4420    0.0000 H   0  0  0  0  0  0  0  0  0  0  0  0
    4.9140   10.7635    0.0000 H   0  0  0  0  0  0  0  0  0  0  0  0
    2.6137   12.4383    0.0000 H   0  0  0  0  0  0  0  0  0  0  0  0
    1.9227   10.7930    0.0000 H   0  0  0  0  0  0  0  0  0  0  0  0
    6.4821   10.5771    0.0000 H   0  0  0  0  0  0  0  0  0  0  0  0
    8.3295   12.7304    0.0000 H   0  0  0  0  0  0  0  0  0  0  0  0
    7.4164   15.5880    0.0000 H   0  0  0  0  0  0  0  0  0  0  0  0
    4.4850   16.2260    0.0000 H   0  0  0  0  0  0  0  0  0  0  0  0
    2.4668   14.0064    0.0000 H   0  0  0  0  0  0  0  0  0  0  0  0
    7.2682    9.7706    0.0000 H   0  0  0  0  0  0  0  0  0  0  0  0
    9.1393    7.7616    0.0000 H   0  0  0  0  0  0  0  0  0  0  0  0
    9.5060    9.3031    0.0000 H   0  0  0  0  0  0  0  0  0  0  0  0
    8.1096   10.4141    0.0000 H   0  0  0  0  0  0  0  0  0  0  0  0
    6.6389    9.4036    0.0000 H   0  0  0  0  0  0  0  0  0  0  0  0
   10.5830    5.6535    0.0000 H   0  0  0  0  0  0  0  0  0  0  0  0
   10.9939    2.7856    0.0000 H   0  0  0  0  0  0  0  0  0  0  0  0
   11.4821    5.8349    0.0000 H   0  0  0  0  0  0  0  0  0  0  0  0
    9.8552    5.6850    0.0000 H   0  0  0  0  0  0  0  0  0  0  0  0
   11.8568    2.5932    0.0000 H   0  0  0  0  0  0  0  0  0  0  0  0
   14.7966    4.7799    0.0000 H   0  0  0  0  0  0  0  0  0  0  0  0
   14.0209    6.3869    0.0000 H   0  0  0  0  0  0  0  0  0  0  0  0
   12.2573    6.1150    0.0000 H   0  0  0  0  0  0  0  0  0  0  0  0
   14.8462    3.5273    0.0000 H   0  0  0  0  0  0  0  0  0  0  0  0
   14.2000    1.8640    0.0000 H   0  0  0  0  0  0  0  0  0  0  0  0
   12.2891    2.1235    0.0000 H   0  0  0  0  0  0  0  0  0  0  0  0
   11.1457    0.3978    0.0000 H   0  0  0  0  0  0  0  0  0  0  0  0
   10.0019   -2.4698    0.0000 H   0  0  0  0  0  0  0  0  0  0  0  0
    9.1517   -3.6110    0.0000 H   0  0  0  0  0  0  0  0  0  0  0  0
    8.9262   -4.0872    0.0000 H   0  0  0  0  0  0  0  0  0  0  0  0
    8.1209   -4.8226    0.0000 H   0  0  0  0  0  0  0  0  0  0  0  0
    7.7363   -5.1505    0.0000 H   0  0  0  0  0  0  0  0  0  0  0  0
    6.5229   -5.8939    0.0000 H   0  0  0  0  0  0  0  0  0  0  0  0
    5.7469   -6.5051    0.0000 H   0  0  0  0  0  0  0  0  0  0  0  0
    9.8650   -3.6463    0.0000 H   0  0  0  0  0  0  0  0  0  0  0  0
   11.2128   -3.1067    0.0000 H   0  0  0  0  0  0  0  0  0  0  0  0
   11.3451   -1.3084    0.0000 H   0  0  0  0  0  0  0  0  0  0  0  0
   11.3010   -3.2907    0.0000 H   0  0  0  0  0  0  0  0  0  0  0  0
   12.6277   -0.1697    0.0000 H   0  0  0  0  0  0  0  0  0  0  0  0
   15.4078    0.2975    0.0000 H   0  0  0  0  0  0  0  0  0  0  0  0
   13.4795    0.3130    0.0000 H   0  0  0  0  0  0  0  0  0  0  0  0
   12.0807   -4.3941    0.0000 H   0  0  0  0  0  0  0  0  0  0  0  0
   15.4883   -4.1610    0.0000 H   0  0  0  0  0  0  0  0  0  0  0  0
   17.2829   -6.3350    0.0000 H   0  0  0  0  0  0  0  0  0  0  0  0
   16.3322   -4.6573    0.0000 H   0  0  0  0  0  0  0  0  0  0  0  0
   15.2715   -8.9680    0.0000 H   0  0  0  0  0  0  0  0  0  0  0  0
   14.3656   -8.0148    0.0000 H   0  0  0  0  0  0  0  0  0  0  0  0
   18.3697  -10.5834    0.0000 H   0  0  0  0  0  0  0  0  0  0  0  0
   16.1392  -11.0461    0.0000 H   0  0  0  0  0  0  0  0  0  0  0  0
   16.4409   -7.9811    0.0000 H   0  0  0  0  0  0  0  0  0  0  0  0
   13.1282   -8.5094    0.0000 H   0  0  0  0  0  0  0  0  0  0  0  0
   12.6410   -9.1465    0.0000 H   0  0  0  0  0  0  0  0  0  0  0  0
   13.1224  -13.0761    0.0000 H   0  0  0  0  0  0  0  0  0  0  0  0
   14.9044  -12.9814    0.0000 H   0  0  0  0  0  0  0  0  0  0  0  0
   15.4489  -11.7845    0.0000 H   0  0  0  0  0  0  0  0  0  0  0  0
   11.1694  -12.2919    0.0000 H   0  0  0  0  0  0  0  0  0  0  0  0
   12.9495  -12.4151    0.0000 H   0  0  0  0  0  0  0  0  0  0  0  0
    9.5447  -11.1297    0.0000 H   0  0  0  0  0  0  0  0  0  0  0  0
    9.8948   -9.2334    0.0000 H   0  0  0  0  0  0  0  0  0  0  0  0
   11.6768   -9.1388    0.0000 H   0  0  0  0  0  0  0  0  0  0  0  0
  1  2  1  0
  2  3  1  0
  3  4  1  0
  4  5  2  0
  4  6  1  0
  6  7  1  0
  7  8  1  0
  8  9  1  0
  9 10  1  0
  9 11  2  0
  7 12  1  0
 12 13  2  0
 12 14  1  0
 14 15  1  0
 15 16  1  0
 16 17  1  0
 17 18  1  0
 18 19  1  0
 19 20  1  0
 15 21  1  0
 21 22  2  0
 21 23  1  0
 23 24  1  0
 24 25  1  0
 25 26  1  0
 26 27  1  0
 26 28  1  0
 24 29  1  0
 29 30  2  0
 29 31  1  0
 32 31  1  1
 32 33  1  0
 33 34  1  0
 34 35  1  0
 35 36  1  0
 36 37  1  0
 37 38  1  0
 38 39  1  0
 32 40  1  0
 32 41  1  0
 41 42  2  0
 41 43  1  0
 43 44  1  0
 44 45  1  0
 45 46  1  0
 46 47  1  0
 47 48  1  0
 48 49  1  0
 49 50  2  3
 49 51  1  0
 44 52  1  0
 52 53  2  0
 52 54  1  0
 54 55  1  0
 55 56  1  0
 56 57  1  0
 55 58  1  0
 58 59  2  0
 58 60  1  0
 60 61  1  0
 61 62  1  0
 62 63  1  0
 63 64  2  0
 64 65  1  0
 65 66  2  0
 66 67  1  0
 67 68  2  0
 61 69  1  0
 69 70  2  0
 69 71  1  0
 71 72  1  0
 72 73  1  0
 73 74  1  0
 74 75  2  0
 75 76  1  0
 76 77  2  0
 77 78  1  0
 78 79  2  0
 72 80  1  0
 80 81  2  0
 80 82  1  0
 82 83  1  0
 83 84  1  0
 83 85  1  0
 85 86  2  0
 85 87  1  0
 87 88  1  0
 88 89  1  0
 89 90  1  0
 90 91  1  0
 90 92  1  0
 88 93  1  0
 93 94  2  0
 93 95  1  0
 95 96  1  0
 96 97  1  0
 97 98  1  0
 98 99  1  0
 99100  1  0
 96101  1  0
 96102  1  6
102103  2  0
102104  1  0
104105  1  0
105106  1  0
106107  1  0
107108  2  0
107109  1  0
105110  1  0
110111  2  0
110112  1  0
112113  1  0
113114  1  0
114115  1  0
115116  1  0
116117  1  0
116118  2  0
113119  1  0
119120  2  0
119121  1  0
121122  1  0
122123  1  0
123124  1  0
123125  1  0
125126  1  0
122127  1  0
127128  2  0
127129  1  0
 68 63  1  0
 79 74  1  0
 39100  2  0
  1130  1  0
  1131  1  0
  2132  1  0
  2133  1  0
  3134  1  0
  3135  1  0
  6136  1  0
  7137  1  6
  8138  1  0
  8139  1  0
 10140  1  0
 10141  1  0
 14142  1  0
 15143  1  6
 16144  1  0
 16145  1  0
 17146  1  0
 17147  1  0
 18148  1  0
 18149  1  0
 19150  1  0
 19151  1  0
 20152  1  0
 20153  1  0
 20154  1  0
 23155  1  0
 24156  1  1
 25157  1  0
 25158  1  0
 26159  1  0
 27160  1  0
 27161  1  0
 27162  1  0
 28163  1  0
 28164  1  0
 28165  1  0
 31166  1  0
 33167  1  0
 33168  1  0
 34169  1  0
 34170  1  0
 35171  1  0
 35172  1  0
 36173  1  0
 36174  1  0
 37175  1  0
 37176  1  0
 38177  1  0
 38178  1  0
 39179  1  0
 40180  1  0
 40181  1  0
 40182  1  0
 43183  1  0
 44184  1  1
 45185  1  0
 45186  1  0
 46187  1  0
 46188  1  0
 47189  1  0
 47190  1  0
 48191  1  0
 50192  1  0
 50193  1  0
 51194  1  0
 51195  1  0
 54196  1  0
 55197  1  1
 56198  1  0
 56199  1  0
 57200  1  0
 60201  1  0
 61202  1  1
 62203  1  0
 62204  1  0
 64205  1  0
 65206  1  0
 66207  1  0
 67208  1  0
 68209  1  0
 71210  1  0
 72211  1  1
 73212  1  0
 73213  1  0
 75214  1  0
 76215  1  0
 77216  1  0
 78217  1  0
 79218  1  0
 82219  1  0
 83220  1  1
 84221  1  0
 84222  1  0
 84223  1  0
 87224  1  0
 88225  1  1
 89226  1  0
 89227  1  0
 90228  1  0
 91229  1  0
 91230  1  0
 91231  1  0
 92232  1  0
 92233  1  0
 92234  1  0
 95235  1  0
 97236  1  0
 97237  1  0
 98238  1  0
 98239  1  0
 99240  1  0
 99241  1  0
100242  1  0
101243  1  0
101244  1  0
101245  1  0
104246  1  0
105247  1  1
106248  1  0
106249  1  0
112250  1  0
113251  1  1
114252  1  0
114253  1  0
115254  1  0
115255  1  0
117256  1  0
117257  1  0
121258  1  0
122259  1  6
123260  1  6
124261  1  0
124262  1  0
124263  1  0
125264  1  0
125265  1  0
126266  1  0
126267  1  0
126268  1  0
M  CHG  4  20   1  50   1 109  -1 129  -1
M  END
