
     RDKit          2D

241242  0  0  0  0  0  0  0  0999 V2000
   14.6248  -10.9911    0.0000 N   0  0  0  0  0  0  0  0  0  0  0  0
   13.3165  -10.2575    0.0000 C   0  0  0  0  0  0  0  0  0  0  0  0
   12.8211  -11.6733    0.0000 C   0  0  0  0  0  0  0  0  0  0  0  0
   12.3380   -9.1206    0.0000 C   0  0  0  0  0  0  0  0  0  0  0  0
   11.0520   -9.5314    0.0000 O   0  0  0  0  0  0  0  0  0  0  0  0
   12.8333   -7.7047    0.0000 N   0  0  0  0  0  0  0  0  0  0  0  0
   11.8548   -6.5678    0.0000 C   0  0  0  0  0  0  0  0  0  0  0  0
   10.9051   -7.7289    0.0000 C   0  0  0  0  0  0  0  0  0  0  0  0
    9.4247   -7.4869    0.0000 C   0  0  0  0  0  0  0  0  0  0  0  0
    8.7504   -6.1471    0.0000 C   0  0  0  0  0  0  0  0  0  0  0  0
    7.2677   -6.3744    0.0000 N   0  0  0  0  0  0  0  0  0  0  0  0
    7.0257   -7.8548    0.0000 C   0  0  0  0  0  0  0  0  0  0  0  0
    8.3589   -8.5423    0.0000 N   0  0  0  0  0  0  0  0  0  0  0  0
   11.3242   -5.1648    0.0000 C   0  0  0  0  0  0  0  0  0  0  0  0
   10.1579   -4.8241    0.0000 O   0  0  0  0  0  0  0  0  0  0  0  0
   12.2739   -4.0038    0.0000 N   0  0  0  0  0  0  0  0  0  0  0  0
   11.7432   -2.6008    0.0000 C   0  0  0  0  0  0  0  0  0  0  0  0
   13.2171   -2.3218    0.0000 C   0  0  0  0  0  0  0  0  0  0  0  0
   14.1956   -3.4587    0.0000 C   0  0  0  0  0  0  0  0  0  0  0  0
   15.6694   -3.1797    0.0000 C   0  0  0  0  0  0  0  0  0  0  0  0
   14.7262   -4.8617    0.0000 C   0  0  0  0  0  0  0  0  0  0  0  0
   10.7647   -1.4639    0.0000 C   0  0  0  0  0  0  0  0  0  0  0  0
   11.4290   -0.1189    0.0000 O   0  0  0  0  0  0  0  0  0  0  0  0
    9.2909   -1.7428    0.0000 N   0  0  0  0  0  0  0  0  0  0  0  0
    8.3124   -0.6059    0.0000 C   0  0  0  0  0  0  0  0  0  0  0  0
    7.7283   -1.9875    0.0000 C   0  0  0  0  0  0  0  0  0  0  0  0
    6.8932   -3.2336    0.0000 C   0  0  0  0  0  0  0  0  0  0  0  0
    5.8375   -4.2991    0.0000 C   0  0  0  0  0  0  0  0  0  0  0  0
    4.5991   -5.1455    0.0000 C   0  0  0  0  0  0  0  0  0  0  0  0
    3.2229   -5.7423    0.0000 C   0  0  0  0  0  0  0  0  0  0  0  0
    1.7587   -6.0679    0.0000 C   0  0  0  0  0  0  0  0  0  0  0  0
    0.2593   -6.1105    0.0000 C   0  0  0  0  0  0  0  0  0  0  0  0
    9.7656   -0.2340    0.0000 C   0  0  0  0  0  0  0  0  0  0  0  0
    8.6245    0.8613    0.0000 C   0  0  0  0  0  0  0  0  0  0  0  0
   10.1245    0.8729    0.0000 O   0  0  0  0  0  0  0  0  0  0  0  0
    8.6533    2.3610    0.0000 N   0  0  0  0  0  0  0  0  0  0  0  0
    8.3978    3.8391    0.0000 C   0  0  0  0  0  0  0  0  0  0  0  0
    9.4192    4.9375    0.0000 C   0  0  0  0  0  0  0  0  0  0  0  0
   10.8813    4.6022    0.0000 C   0  0  0  0  0  0  0  0  0  0  0  0
   11.9027    5.7007    0.0000 C   0  0  0  0  0  0  0  0  0  0  0  0
   12.1404    3.7870    0.0000 C   0  0  0  0  0  0  0  0  0  0  0  0
    7.8672    5.2421    0.0000 C   0  0  0  0  0  0  0  0  0  0  0  0
    9.1227    6.0628    0.0000 O   0  0  0  0  0  0  0  0  0  0  0  0
    7.0806    6.5193    0.0000 N   0  0  0  0  0  0  0  0  0  0  0  0
    6.0665    7.6246    0.0000 C   0  0  0  0  0  0  0  0  0  0  0  0
    6.3319    9.1009    0.0000 C   0  0  0  0  0  0  0  0  0  0  0  0
    7.7432    9.6092    0.0000 S   0  0  0  0  0  0  0  0  0  0  0  0
    4.8616    8.5180    0.0000 C   0  0  0  0  0  0  0  0  0  0  0  0
    5.4741    9.8872    0.0000 O   0  0  0  0  0  0  0  0  0  0  0  0
    3.5094    9.1672    0.0000 N   0  0  0  0  0  0  0  0  0  0  0  0
    2.0587    9.5487    0.0000 C   0  0  0  0  0  0  0  0  0  0  0  0
    1.4838   10.9342    0.0000 C   0  0  0  0  0  0  0  0  0  0  0  0
    2.3962   12.1248    0.0000 C   0  0  0  0  0  0  0  0  0  0  0  0
    1.8213   13.5103    0.0000 C   0  0  0  0  0  0  0  0  0  0  0  0
    3.6608   12.9315    0.0000 C   0  0  0  0  0  0  0  0  0  0  0  0
    0.5620    9.6489    0.0000 C   0  0  0  0  0  0  0  0  0  0  0  0
    0.3370   11.1319    0.0000 O   0  0  0  0  0  0  0  0  0  0  0  0
   -0.9265    9.4640    0.0000 N   0  0  0  0  0  0  0  0  0  0  0  0
   -2.3532    9.0007    0.0000 C   0  0  0  0  0  0  0  0  0  0  0  0
   -3.5858    9.8554    0.0000 C   0  0  0  0  0  0  0  0  0  0  0  0
   -3.4620   11.3503    0.0000 C   0  0  0  0  0  0  0  0  0  0  0  0
   -4.6946   12.2050    0.0000 C   0  0  0  0  0  0  0  0  0  0  0  0
   -4.5708   13.6999    0.0000 O   0  0  0  0  0  0  0  0  0  0  0  0
   -6.0512   11.5648    0.0000 O   0  0  0  0  0  0  0  0  0  0  0  0
   -3.6664    8.2758    0.0000 C   0  0  0  0  0  0  0  0  0  0  0  0
   -4.6575    9.4017    0.0000 O   0  0  0  0  0  0  0  0  0  0  0  0
   -4.8187    7.3154    0.0000 N   0  0  0  0  0  0  0  0  0  0  0  0
   -5.7684    6.1544    0.0000 C   0  0  0  0  0  0  0  0  0  0  0  0
   -7.2675    6.2070    0.0000 C   0  0  0  0  0  0  0  0  0  0  0  0
   -7.9714    7.5315    0.0000 C   0  0  0  0  0  0  0  0  0  0  0  0
   -9.4705    7.5841    0.0000 C   0  0  0  0  0  0  0  0  0  0  0  0
  -10.1745    8.9087    0.0000 C   0  0  0  0  0  0  0  0  0  0  0  0
  -11.6736    8.9613    0.0000 N   0  0  0  0  0  0  0  0  0  0  0  0
   -6.4812    4.8346    0.0000 C   0  0  0  0  0  0  0  0  0  0  0  0
   -7.9237    5.2459    0.0000 O   0  0  0  0  0  0  0  0  0  0  0  0
   -6.9314    3.4037    0.0000 N   0  0  0  0  0  0  0  0  0  0  0  0
   -7.1026    1.9135    0.0000 C   0  0  0  0  0  0  0  0  0  0  0  0
   -8.3921    1.1473    0.0000 C   0  0  0  0  0  0  0  0  0  0  0  0
   -9.7005    1.8810    0.0000 C   0  0  0  0  0  0  0  0  0  0  0  0
  -10.9900    1.1148    0.0000 C   0  0  0  0  0  0  0  0  0  0  0  0
  -10.6790    3.0179    0.0000 C   0  0  0  0  0  0  0  0  0  0  0  0
   -6.9887    0.4179    0.0000 C   0  0  0  0  0  0  0  0  0  0  0  0
   -8.4246   -0.0159    0.0000 O   0  0  0  0  0  0  0  0  0  0  0  0
   -6.5938   -1.0292    0.0000 N   0  0  0  0  0  0  0  0  0  0  0  0
   -5.9322   -2.3754    0.0000 C   0  0  0  0  0  0  0  0  0  0  0  0
   -5.0278   -3.5721    0.0000 C   0  0  0  0  0  0  0  0  0  0  0  0
   -3.9133   -4.5760    0.0000 C   0  0  0  0  0  0  0  0  0  0  0  0
   -2.6289   -5.3508    0.0000 C   0  0  0  0  0  0  0  0  0  0  0  0
   -1.2211   -5.8686    0.0000 C   0  0  0  0  0  0  0  0  0  0  0  0
   -7.4322   -2.3704    0.0000 C   0  0  0  0  0  0  0  0  0  0  0  0
   -6.6028   -3.7172    0.0000 C   0  0  0  0  0  0  0  0  0  0  0  0
   -6.1036   -5.1317    0.0000 O   0  0  0  0  0  0  0  0  0  0  0  0
   -8.1001   -3.8073    0.0000 N   0  0  0  0  0  0  0  0  0  0  0  0
   -8.7707   -5.1491    0.0000 C   0  0  0  0  0  0  0  0  0  0  0  0
  -10.2680   -5.2392    0.0000 C   0  0  0  0  0  0  0  0  0  0  0  0
  -11.0947   -3.9876    0.0000 O   0  0  0  0  0  0  0  0  0  0  0  0
  -10.9386   -6.5810    0.0000 N   0  0  0  0  0  0  0  0  0  0  0  0
  -12.4359   -6.6711    0.0000 C   0  0  0  0  0  0  0  0  0  0  0  0
  -13.8737   -6.2437    0.0000 C   0  0  0  0  0  0  0  0  0  0  0  0
  -14.2225   -4.7848    0.0000 C   0  0  0  0  0  0  0  0  0  0  0  0
  -15.6603   -4.3574    0.0000 C   0  0  0  0  0  0  0  0  0  0  0  0
  -14.0512   -3.2946    0.0000 C   0  0  0  0  0  0  0  0  0  0  0  0
  -13.1065   -8.0129    0.0000 C   0  0  0  0  0  0  0  0  0  0  0  0
  -12.2798   -9.2645    0.0000 O   0  0  0  0  0  0  0  0  0  0  0  0
  -14.6037   -8.1030    0.0000 N   0  0  0  0  0  0  0  0  0  0  0  0
  -15.2743   -9.4448    0.0000 C   0  0  0  0  0  0  0  0  0  0  0  0
  -15.4456  -10.9350    0.0000 C   0  0  0  0  0  0  0  0  0  0  0  0
  -16.8217  -11.5318    0.0000 C   0  0  0  0  0  0  0  0  0  0  0  0
  -16.7716   -9.5349    0.0000 C   0  0  0  0  0  0  0  0  0  0  0  0
  -17.6008  -10.7849    0.0000 O   0  0  0  0  0  0  0  0  0  0  0  0
  -17.5983   -8.2833    0.0000 O   0  0  0  0  0  0  0  0  0  0  0  0
   14.8263  -12.4775    0.0000 H   0  0  0  0  0  0  0  0  0  0  0  0
   15.9144  -10.2249    0.0000 H   0  0  0  0  0  0  0  0  0  0  0  0
   14.2662   -9.0964    0.0000 H   0  0  0  0  0  0  0  0  0  0  0  0
   13.6538  -12.9210    0.0000 H   0  0  0  0  0  0  0  0  0  0  0  0
   11.8714  -12.8344    0.0000 H   0  0  0  0  0  0  0  0  0  0  0  0
   11.5128  -10.9397    0.0000 H   0  0  0  0  0  0  0  0  0  0  0  0
   14.3071   -7.4258    0.0000 H   0  0  0  0  0  0  0  0  0  0  0  0
   13.0413   -5.6501    0.0000 H   0  0  0  0  0  0  0  0  0  0  0  0
   10.3073   -8.9393    0.0000 H   0  0  0  0  0  0  0  0  0  0  0  0
   11.7011   -8.4786    0.0000 H   0  0  0  0  0  0  0  0  0  0  0  0
    9.1715   -5.0074    0.0000 H   0  0  0  0  0  0  0  0  0  0  0  0
    5.9857   -5.5956    0.0000 H   0  0  0  0  0  0  0  0  0  0  0  0
    5.6859   -8.5292    0.0000 H   0  0  0  0  0  0  0  0  0  0  0  0
   13.0391   -4.2273    0.0000 H   0  0  0  0  0  0  0  0  0  0  0  0
   10.4537   -3.3670    0.0000 H   0  0  0  0  0  0  0  0  0  0  0  0
   14.4036   -1.4041    0.0000 H   0  0  0  0  0  0  0  0  0  0  0  0
   12.6864   -0.9188    0.0000 H   0  0  0  0  0  0  0  0  0  0  0  0
   13.6469   -4.1540    0.0000 H   0  0  0  0  0  0  0  0  0  0  0  0
   16.7792   -4.1889    0.0000 H   0  0  0  0  0  0  0  0  0  0  0  0
   16.9590   -2.4135    0.0000 H   0  0  0  0  0  0  0  0  0  0  0  0
   15.3137   -1.7225    0.0000 H   0  0  0  0  0  0  0  0  0  0  0  0
   16.1660   -5.2823    0.0000 H   0  0  0  0  0  0  0  0  0  0  0  0
   14.7450   -6.3616    0.0000 H   0  0  0  0  0  0  0  0  0  0  0  0
   13.2294   -4.9589    0.0000 H   0  0  0  0  0  0  0  0  0  0  0  0
    9.1529   -3.2364    0.0000 H   0  0  0  0  0  0  0  0  0  0  0  0
    9.2029   -2.2623    0.0000 H   0  0  0  0  0  0  0  0  0  0  0  0
    8.4739   -3.2890    0.0000 H   0  0  0  0  0  0  0  0  0  0  0  0
    8.2892   -3.7825    0.0000 H   0  0  0  0  0  0  0  0  0  0  0  0
    7.5485   -4.5829    0.0000 H   0  0  0  0  0  0  0  0  0  0  0  0
    7.1927   -4.9419    0.0000 H   0  0  0  0  0  0  0  0  0  0  0  0
    6.0460   -5.7845    0.0000 H   0  0  0  0  0  0  0  0  0  0  0  0
    5.6910   -6.1740    0.0000 H   0  0  0  0  0  0  0  0  0  0  0  0
    4.7059   -6.6417    0.0000 H   0  0  0  0  0  0  0  0  0  0  0  0
    4.2422   -6.8428    0.0000 H   0  0  0  0  0  0  0  0  0  0  0  0
    3.0446   -7.2317    0.0000 H   0  0  0  0  0  0  0  0  0  0  0  0
    2.5513   -7.3414    0.0000 H   0  0  0  0  0  0  0  0  0  0  0  0
    1.1310   -7.4303    0.0000 H   0  0  0  0  0  0  0  0  0  0  0  0
    0.1592   -7.6072    0.0000 H   0  0  0  0  0  0  0  0  0  0  0  0
   11.0426   -1.0210    0.0000 H   0  0  0  0  0  0  0  0  0  0  0  0
   11.0039    0.6124    0.0000 H   0  0  0  0  0  0  0  0  0  0  0  0
    9.4961    1.2415    0.0000 H   0  0  0  0  0  0  0  0  0  0  0  0
   10.1517    2.2917    0.0000 H   0  0  0  0  0  0  0  0  0  0  0  0
    9.7728    3.2396    0.0000 H   0  0  0  0  0  0  0  0  0  0  0  0
   10.0034    6.3191    0.0000 H   0  0  0  0  0  0  0  0  0  0  0  0
    8.3948    6.0332    0.0000 H   0  0  0  0  0  0  0  0  0  0  0  0
   10.6488    3.1203    0.0000 H   0  0  0  0  0  0  0  0  0  0  0  0
   13.3947    5.5460    0.0000 H   0  0  0  0  0  0  0  0  0  0  0  0
   12.4869    7.0823    0.0000 H   0  0  0  0  0  0  0  0  0  0  0  0
   10.7523    6.6632    0.0000 H   0  0  0  0  0  0  0  0  0  0  0  0
   13.5493    4.3020    0.0000 H   0  0  0  0  0  0  0  0  0  0  0  0
   13.0449    2.5903    0.0000 H   0  0  0  0  0  0  0  0  0  0  0  0
   11.1190    2.6885    0.0000 H   0  0  0  0  0  0  0  0  0  0  0  0
    8.2773    7.4237    0.0000 H   0  0  0  0  0  0  0  0  0  0  0  0
    7.5072    8.0424    0.0000 H   0  0  0  0  0  0  0  0  0  0  0  0
    6.2585   10.5991    0.0000 H   0  0  0  0  0  0  0  0  0  0  0  0
    4.8777    9.4687    0.0000 H   0  0  0  0  0  0  0  0  0  0  0  0
    8.0086   11.0855    0.0000 H   0  0  0  0  0  0  0  0  0  0  0  0
    4.1948   10.5014    0.0000 H   0  0  0  0  0  0  0  0  0  0  0  0
    3.1752   10.5505    0.0000 H   0  0  0  0  0  0  0  0  0  0  0  0
    0.4697   12.0395    0.0000 H   0  0  0  0  0  0  0  0  0  0  0  0
    0.0616   10.4574    0.0000 H   0  0  0  0  0  0  0  0  0  0  0  0
    3.6476   11.2977    0.0000 H   0  0  0  0  0  0  0  0  0  0  0  0
    2.5818   14.8032    0.0000 H   0  0  0  0  0  0  0  0  0  0  0  0
    0.8072   14.6155    0.0000 H   0  0  0  0  0  0  0  0  0  0  0  0
    0.4678   12.8637    0.0000 H   0  0  0  0  0  0  0  0  0  0  0  0
    3.7776   14.4270    0.0000 H   0  0  0  0  0  0  0  0  0  0  0  0
    5.1250   13.2571    0.0000 H   0  0  0  0  0  0  0  0  0  0  0  0
    4.2357   11.5461    0.0000 H   0  0  0  0  0  0  0  0  0  0  0  0
   -1.0712   10.9570    0.0000 H   0  0  0  0  0  0  0  0  0  0  0  0
   -1.9555   10.4470    0.0000 H   0  0  0  0  0  0  0  0  0  0  0  0
   -4.9792   10.4109    0.0000 H   0  0  0  0  0  0  0  0  0  0  0  0
   -4.5245    8.6854    0.0000 H   0  0  0  0  0  0  0  0  0  0  0  0
   -2.8343   12.7126    0.0000 H   0  0  0  0  0  0  0  0  0  0  0  0
   -1.9621   11.3311    0.0000 H   0  0  0  0  0  0  0  0  0  0  0  0
   -5.7475    8.4932    0.0000 H   0  0  0  0  0  0  0  0  0  0  0  0
   -6.2157    7.5861    0.0000 H   0  0  0  0  0  0  0  0  0  0  0  0
   -8.6941    5.7437    0.0000 H   0  0  0  0  0  0  0  0  0  0  0  0
   -7.4246    4.7152    0.0000 H   0  0  0  0  0  0  0  0  0  0  0  0
   -7.9973    9.0313    0.0000 H   0  0  0  0  0  0  0  0  0  0  0  0
   -6.6993    8.3263    0.0000 H   0  0  0  0  0  0  0  0  0  0  0  0
  -10.8301    6.9504    0.0000 H   0  0  0  0  0  0  0  0  0  0  0  0
   -9.4446    6.0843    0.0000 H   0  0  0  0  0  0  0  0  0  0  0  0
  -10.3830   10.3941    0.0000 H   0  0  0  0  0  0  0  0  0  0  0  0
   -8.8149    9.5424    0.0000 H   0  0  0  0  0  0  0  0  0  0  0  0
  -12.3776   10.2858    0.0000 H   0  0  0  0  0  0  0  0  0  0  0  0
  -13.1002    8.4980    0.0000 H   0  0  0  0  0  0  0  0  0  0  0  0
  -11.6477    7.4615    0.0000 H   0  0  0  0  0  0  0  0  0  0  0  0
   -8.3495    3.8923    0.0000 H   0  0  0  0  0  0  0  0  0  0  0  0
   -8.2530    2.8761    0.0000 H   0  0  0  0  0  0  0  0  0  0  0  0
   -9.3419   -0.0137    0.0000 H   0  0  0  0  0  0  0  0  0  0  0  0
   -7.7178   -0.1926    0.0000 H   0  0  0  0  0  0  0  0  0  0  0  0
   -9.0599    3.2373    0.0000 H   0  0  0  0  0  0  0  0  0  0  0  0
  -12.3780    1.6835    0.0000 H   0  0  0  0  0  0  0  0  0  0  0  0
  -11.9397   -0.0463    0.0000 H   0  0  0  0  0  0  0  0  0  0  0  0
  -10.1574   -0.1329    0.0000 H   0  0  0  0  0  0  0  0  0  0  0  0
  -12.1758    2.9207    0.0000 H   0  0  0  0  0  0  0  0  0  0  0  0
  -11.2096    4.4209    0.0000 H   0  0  0  0  0  0  0  0  0  0  0  0
   -9.3894    3.7841    0.0000 H   0  0  0  0  0  0  0  0  0  0  0  0
   -8.0511   -1.3849    0.0000 H   0  0  0  0  0  0  0  0  0  0  0  0
   -5.4324   -5.0165    0.0000 H   0  0  0  0  0  0  0  0  0  0  0  0
   -6.3904   -4.1994    0.0000 H   0  0  0  0  0  0  0  0  0  0  0  0
   -4.2184   -6.0446    0.0000 H   0  0  0  0  0  0  0  0  0  0  0  0
   -5.1325   -5.4498    0.0000 H   0  0  0  0  0  0  0  0  0  0  0  0
   -2.4676   -6.8421    0.0000 H   0  0  0  0  0  0  0  0  0  0  0  0
   -3.7857   -6.3057    0.0000 H   0  0  0  0  0  0  0  0  0  0  0  0
   -1.6026   -7.3192    0.0000 H   0  0  0  0  0  0  0  0  0  0  0  0
   -8.4779   -3.4459    0.0000 H   0  0  0  0  0  0  0  0  0  0  0  0
   -8.8400   -1.8527    0.0000 H   0  0  0  0  0  0  0  0  0  0  0  0
   -7.5319   -0.8738    0.0000 H   0  0  0  0  0  0  0  0  0  0  0  0
   -9.0732   -2.6658    0.0000 H   0  0  0  0  0  0  0  0  0  0  0  0
   -8.9419   -6.6393    0.0000 H   0  0  0  0  0  0  0  0  0  0  0  0
   -7.3329   -5.5765    0.0000 H   0  0  0  0  0  0  0  0  0  0  0  0
  -10.1119   -7.8326    0.0000 H   0  0  0  0  0  0  0  0  0  0  0  0
  -12.0843   -5.2129    0.0000 H   0  0  0  0  0  0  0  0  0  0  0  0
  -15.3710   -6.3338    0.0000 H   0  0  0  0  0  0  0  0  0  0  0  0
  -14.4004   -7.6482    0.0000 H   0  0  0  0  0  0  0  0  0  0  0  0
  -12.7473   -4.5128    0.0000 H   0  0  0  0  0  0  0  0  0  0  0  0
  -16.1843   -2.9519    0.0000 H   0  0  0  0  0  0  0  0  0  0  0  0
  -17.1576   -4.4476    0.0000 H   0  0  0  0  0  0  0  0  0  0  0  0
  -16.0119   -5.8156    0.0000 H   0  0  0  0  0  0  0  0  0  0  0  0
  -15.1383   -2.2610    0.0000 H   0  0  0  0  0  0  0  0  0  0  0  0
  -13.3806   -1.9529    0.0000 H   0  0  0  0  0  0  0  0  0  0  0  0
  -12.6134   -3.7220    0.0000 H   0  0  0  0  0  0  0  0  0  0  0  0
  -15.5768   -6.9615    0.0000 H   0  0  0  0  0  0  0  0  0  0  0  0
  -13.8365   -9.8722    0.0000 H   0  0  0  0  0  0  0  0  0  0  0  0
  -15.0968  -12.3939    0.0000 H   0  0  0  0  0  0  0  0  0  0  0  0
  -13.9483  -10.8448    0.0000 H   0  0  0  0  0  0  0  0  0  0  0  0
  -16.9930  -13.0220    0.0000 H   0  0  0  0  0  0  0  0  0  0  0  0
  -18.3190  -11.6219    0.0000 H   0  0  0  0  0  0  0  0  0  0  0  0
  -17.6703  -10.2948    0.0000 H   0  0  0  0  0  0  0  0  0  0  0  0
  1  2  1  0
  2  3  1  0
  2  4  1  0
  4  5  2  0
  4  6  1  0
  6  7  1  0
  7  8  1  0
  8  9  1  0
  9 10  2  0
 10 11  1  0
 11 12  1  0
 12 13  2  0
  7 14  1  0
 14 15  2  0
 14 16  1  0
 16 17  1  0
 17 18  1  0
 18 19  1  0
 19 20  1  0
 19 21  1  0
 17 22  1  0
 22 23  2  0
 22 24  1  0
 25 24  1  6
 25 26  1  0
 26 27  1  0
 27 28  1  0
 28 29  1  0
 29 30  1  0
 30 31  1  0
 31 32  1  0
 25 33  1  0
 25 34  1  0
 34 35  2  0
 34 36  1  0
 36 37  1  0
 37 38  1  0
 38 39  1  0
 39 40  1  0
 39 41  1  0
 37 42  1  0
 42 43  2  0
 42 44  1  0
 44 45  1  0
 45 46  1  0
 46 47  1  0
 45 48  1  0
 48 49  2  0
 48 50  1  0
 50 51  1  0
 51 52  1  0
 52 53  1  0
 53 54  1  0
 53 55  1  0
 51 56  1  0
 56 57  2  0
 56 58  1  0
 58 59  1  0
 59 60  1  0
 60 61  1  0
 61 62  1  0
 62 63  2  0
 62 64  1  0
 59 65  1  0
 65 66  2  0
 65 67  1  0
 67 68  1  0
 68 69  1  0
 69 70  1  0
 70 71  1  0
 71 72  1  0
 72 73  1  0
 68 74  1  0
 74 75  2  0
 74 76  1  0
 76 77  1  0
 77 78  1  0
 78 79  1  0
 79 80  1  0
 79 81  1  0
 77 82  1  0
 82 83  2  0
 82 84  1  0
 84 85  1  0
 85 86  1  0
 86 87  1  0
 87 88  1  0
 88 89  1  0
 85 90  1  0
 85 91  1  1
 91 92  2  0
 91 93  1  0
 93 94  1  0
 94 95  1  0
 95 96  2  0
 95 97  1  0
 97 98  1  0
 98 99  1  0
 99100  1  0
100101  1  0
100102  1  0
 98103  1  0
103104  2  0
103105  1  0
105106  1  0
106107  1  0
107108  1  0
106109  1  0
109110  2  0
109111  1  0
 13  9  1  0
 32 89  2  0
  1112  1  0
  1113  1  0
  2114  1  1
  3115  1  0
  3116  1  0
  3117  1  0
  6118  1  0
  7119  1  1
  8120  1  0
  8121  1  0
 10122  1  0
 11123  1  0
 12124  1  0
 16125  1  0
 17126  1  6
 18127  1  0
 18128  1  0
 19129  1  0
 20130  1  0
 20131  1  0
 20132  1  0
 21133  1  0
 21134  1  0
 21135  1  0
 24136  1  0
 26137  1  0
 26138  1  0
 27139  1  0
 27140  1  0
 28141  1  0
 28142  1  0
 29143  1  0
 29144  1  0
 30145  1  0
 30146  1  0
 31147  1  0
 31148  1  0
 32149  1  0
 33150  1  0
 33151  1  0
 33152  1  0
 36153  1  0
 37154  1  6
 38155  1  0
 38156  1  0
 39157  1  0
 40158  1  0
 40159  1  0
 40160  1  0
 41161  1  0
 41162  1  0
 41163  1  0
 44164  1  0
 45165  1  6
 46166  1  0
 46167  1  0
 47168  1  0
 50169  1  0
 51170  1  6
 52171  1  0
 52172  1  0
 53173  1  0
 54174  1  0
 54175  1  0
 54176  1  0
 55177  1  0
 55178  1  0
 55179  1  0
 58180  1  0
 59181  1  6
 60182  1  0
 60183  1  0
 61184  1  0
 61185  1  0
 67186  1  0
 68187  1  6
 69188  1  0
 69189  1  0
 70190  1  0
 70191  1  0
 71192  1  0
 71193  1  0
 72194  1  0
 72195  1  0
 73196  1  0
 73197  1  0
 73198  1  0
 76199  1  0
 77200  1  6
 78201  1  0
 78202  1  0
 79203  1  0
 80204  1  0
 80205  1  0
 80206  1  0
 81207  1  0
 81208  1  0
 81209  1  0
 84210  1  0
 86211  1  0
 86212  1  0
 87213  1  0
 87214  1  0
 88215  1  0
 88216  1  0
 89217  1  0
 90218  1  0
 90219  1  0
 90220  1  0
 93221  1  0
 94222  1  0
 94223  1  0
 97224  1  0
 98225  1  6
 99226  1  0
 99227  1  0
100228  1  0
101229  1  0
101230  1  0
101231  1  0
102232  1  0
102233  1  0
102234  1  0
105235  1  0
106236  1  1
107237  1  0
107238  1  0
108239  1  0
108240  1  0
108241  1  0
M  CHG  3  64  -1  73   1 111  -1
M  END
