
     RDKit          2D

299305  0  0  0  0  0  0  0  0999 V2000
   20.1504   -2.9326    0.0000 C   0  0  0  0  0  0  0  0  0  0  0  0
   21.4585   -2.1986    0.0000 N   0  0  0  0  0  0  0  0  0  0  0  0
   22.7483   -2.9645    0.0000 C   0  0  0  0  0  0  0  0  0  0  0  0
   22.7299   -4.4643    0.0000 C   0  0  0  0  0  0  0  0  0  0  0  0
   24.0196   -5.2302    0.0000 C   0  0  0  0  0  0  0  0  0  0  0  0
   25.3278   -4.4962    0.0000 C   0  0  0  0  0  0  0  0  0  0  0  0
   25.3462   -2.9963    0.0000 C   0  0  0  0  0  0  0  0  0  0  0  0
   24.0564   -2.2304    0.0000 C   0  0  0  0  0  0  0  0  0  0  0  0
   26.7783   -2.5503    0.0000 C   0  0  0  0  0  0  0  0  0  0  0  0
   27.6450   -3.7746    0.0000 O   0  0  0  0  0  0  0  0  0  0  0  0
   26.7486   -4.9772    0.0000 C   0  0  0  0  0  0  0  0  0  0  0  0
   27.1946   -6.4093    0.0000 O   0  0  0  0  0  0  0  0  0  0  0  0
   28.2492   -2.2565    0.0000 C   0  0  0  0  0  0  0  0  0  0  0  0
   28.7302   -0.8357    0.0000 C   0  0  0  0  0  0  0  0  0  0  0  0
   30.2012   -0.5418    0.0000 C   0  0  0  0  0  0  0  0  0  0  0  0
   31.1911   -1.6687    0.0000 C   0  0  0  0  0  0  0  0  0  0  0  0
   30.7101   -3.0895    0.0000 C   0  0  0  0  0  0  0  0  0  0  0  0
   29.2392   -3.3834    0.0000 C   0  0  0  0  0  0  0  0  0  0  0  0
   32.6621   -1.3749    0.0000 O   0  0  0  0  0  0  0  0  0  0  0  0
   27.7403    0.2913    0.0000 O   0  0  0  0  0  0  0  0  0  0  0  0
   26.2693   -0.0026    0.0000 C   0  0  0  0  0  0  0  0  0  0  0  0
   25.7884   -1.4234    0.0000 C   0  0  0  0  0  0  0  0  0  0  0  0
   24.5419   -1.0542    0.0000 C   0  0  0  0  0  0  0  0  0  0  0  0
   24.0139   -0.4532    0.0000 C   0  0  0  0  0  0  0  0  0  0  0  0
   24.2704    0.3046    0.0000 C   0  0  0  0  0  0  0  0  0  0  0  0
   25.0549    0.4613    0.0000 C   0  0  0  0  0  0  0  0  0  0  0  0
   22.8185    1.9574    0.0000 O   0  0  0  0  0  0  0  0  0  0  0  0
   20.1320   -4.4325    0.0000 S   0  0  0  0  0  0  0  0  0  0  0  0
   18.8606   -2.1667    0.0000 N   0  0  0  0  0  0  0  0  0  0  0  0
   17.5525   -2.9007    0.0000 C   0  0  0  0  0  0  0  0  0  0  0  0
   16.2628   -2.1349    0.0000 C   0  0  0  0  0  0  0  0  0  0  0  0
   14.9546   -2.8689    0.0000 C   0  0  0  0  0  0  0  0  0  0  0  0
   15.1380   -3.6447    0.0000 O   0  0  0  0  0  0  0  0  0  0  0  0
   13.6649   -2.1030    0.0000 N   0  0  0  0  0  0  0  0  0  0  0  0
   12.3567   -2.8370    0.0000 C   0  0  0  0  0  0  0  0  0  0  0  0
   13.3068   -3.9978    0.0000 C   0  0  0  0  0  0  0  0  0  0  0  0
   14.7871   -3.7555    0.0000 C   0  0  0  0  0  0  0  0  0  0  0  0
   15.7371   -4.9163    0.0000 N   0  0  0  0  0  0  0  0  0  0  0  0
   15.6411   -2.5224    0.0000 O   0  0  0  0  0  0  0  0  0  0  0  0
   10.8765   -3.0794    0.0000 C   0  0  0  0  0  0  0  0  0  0  0  0
   10.7015   -4.5691    0.0000 O   0  0  0  0  0  0  0  0  0  0  0  0
    9.9264   -1.9186    0.0000 N   0  0  0  0  0  0  0  0  0  0  0  0
    8.4461   -2.1609    0.0000 C   0  0  0  0  0  0  0  0  0  0  0  0
    8.9418   -3.5766    0.0000 C   0  0  0  0  0  0  0  0  0  0  0  0
   10.4158   -3.8552    0.0000 C   0  0  0  0  0  0  0  0  0  0  0  0
   10.9115   -5.2709    0.0000 C   0  0  0  0  0  0  0  0  0  0  0  0
   12.3404   -5.7271    0.0000 O   0  0  0  0  0  0  0  0  0  0  0  0
    9.9333   -6.4081    0.0000 O   0  0  0  0  0  0  0  0  0  0  0  0
    6.9722   -1.8823    0.0000 C   0  0  0  0  0  0  0  0  0  0  0  0
    6.2983   -3.2224    0.0000 O   0  0  0  0  0  0  0  0  0  0  0  0
    6.4765   -0.4666    0.0000 N   0  0  0  0  0  0  0  0  0  0  0  0
    5.0026   -0.1881    0.0000 C   0  0  0  0  0  0  0  0  0  0  0  0
    4.9842   -1.6879    0.0000 C   0  0  0  0  0  0  0  0  0  0  0  0
    6.2740   -2.4538    0.0000 C   0  0  0  0  0  0  0  0  0  0  0  0
    6.2556   -3.9537    0.0000 C   0  0  0  0  0  0  0  0  0  0  0  0
    7.7479   -2.7324    0.0000 C   0  0  0  0  0  0  0  0  0  0  0  0
    3.7129    0.5778    0.0000 C   0  0  0  0  0  0  0  0  0  0  0  0
    2.6212   -0.4509    0.0000 O   0  0  0  0  0  0  0  0  0  0  0  0
    3.7313    2.0777    0.0000 N   0  0  0  0  0  0  0  0  0  0  0  0
    2.4415    2.8436    0.0000 C   0  0  0  0  0  0  0  0  0  0  0  0
    2.3280    1.3479    0.0000 C   0  0  0  0  0  0  0  0  0  0  0  0
    1.9335   -0.0993    0.0000 C   0  0  0  0  0  0  0  0  0  0  0  0
    1.2723   -1.4457    0.0000 C   0  0  0  0  0  0  0  0  0  0  0  0
    0.3682   -2.6426    0.0000 C   0  0  0  0  0  0  0  0  0  0  0  0
   -0.7461   -3.6468    0.0000 C   0  0  0  0  0  0  0  0  0  0  0  0
   -2.0303   -4.4219    0.0000 C   0  0  0  0  0  0  0  0  0  0  0  0
   -3.4380   -4.9401    0.0000 C   0  0  0  0  0  0  0  0  0  0  0  0
    3.7005    3.6591    0.0000 C   0  0  0  0  0  0  0  0  0  0  0  0
    2.2699    4.3337    0.0000 C   0  0  0  0  0  0  0  0  0  0  0  0
    3.6879    4.8227    0.0000 O   0  0  0  0  0  0  0  0  0  0  0  0
    1.8193    5.7645    0.0000 N   0  0  0  0  0  0  0  0  0  0  0  0
    1.1062    7.0841    0.0000 C   0  0  0  0  0  0  0  0  0  0  0  0
    1.7244    8.4508    0.0000 C   0  0  0  0  0  0  0  0  0  0  0  0
    3.2171    8.5987    0.0000 C   0  0  0  0  0  0  0  0  0  0  0  0
    3.8353    9.9654    0.0000 C   0  0  0  0  0  0  0  0  0  0  0  0
    5.3279   10.1134    0.0000 N   0  0  0  0  0  0  0  0  0  0  0  0
    5.9461   11.4801    0.0000 C   0  0  0  0  0  0  0  0  0  0  0  0
    7.4388   11.6280    0.0000 N   0  0  0  0  0  0  0  0  0  0  0  0
    5.0717   12.6988    0.0000 N   0  0  0  0  0  0  0  0  0  0  0  0
    0.1562    8.2449    0.0000 C   0  0  0  0  0  0  0  0  0  0  0  0
    1.0847    9.4229    0.0000 O   0  0  0  0  0  0  0  0  0  0  0  0
   -0.9964    9.2049    0.0000 N   0  0  0  0  0  0  0  0  0  0  0  0
   -2.3098    9.9295    0.0000 C   0  0  0  0  0  0  0  0  0  0  0  0
   -2.5286   11.4134    0.0000 C   0  0  0  0  0  0  0  0  0  0  0  0
   -1.3529   12.3449    0.0000 O   0  0  0  0  0  0  0  0  0  0  0  0
   -3.7366   10.3924    0.0000 C   0  0  0  0  0  0  0  0  0  0  0  0
   -3.5923   11.8854    0.0000 O   0  0  0  0  0  0  0  0  0  0  0  0
   -5.2252   10.5769    0.0000 N   0  0  0  0  0  0  0  0  0  0  0  0
   -6.7218   10.4764    0.0000 C   0  0  0  0  0  0  0  0  0  0  0  0
   -7.7082   11.6064    0.0000 C   0  0  0  0  0  0  0  0  0  0  0  0
   -7.2227   13.0257    0.0000 C   0  0  0  0  0  0  0  0  0  0  0  0
   -5.7508   13.3149    0.0000 C   0  0  0  0  0  0  0  0  0  0  0  0
   -5.2653   14.7342    0.0000 C   0  0  0  0  0  0  0  0  0  0  0  0
   -6.2517   15.8642    0.0000 C   0  0  0  0  0  0  0  0  0  0  0  0
   -7.7236   15.5750    0.0000 C   0  0  0  0  0  0  0  0  0  0  0  0
   -8.2090   14.1558    0.0000 C   0  0  0  0  0  0  0  0  0  0  0  0
   -8.1723   10.0944    0.0000 C   0  0  0  0  0  0  0  0  0  0  0  0
   -8.8582   11.4284    0.0000 O   0  0  0  0  0  0  0  0  0  0  0  0
   -9.5244    9.4448    0.0000 N   0  0  0  0  0  0  0  0  0  0  0  0
  -10.7291    8.5511    0.0000 C   0  0  0  0  0  0  0  0  0  0  0  0
  -12.1698    8.9685    0.0000 C   0  0  0  0  0  0  0  0  0  0  0  0
  -12.5287   10.4250    0.0000 C   0  0  0  0  0  0  0  0  0  0  0  0
  -13.9695   10.8424    0.0000 C   0  0  0  0  0  0  0  0  0  0  0  0
  -14.3284   12.2988    0.0000 N   0  0  0  0  0  0  0  0  0  0  0  0
  -15.7691   12.7162    0.0000 C   0  0  0  0  0  0  0  0  0  0  0  0
  -16.1280   14.1727    0.0000 N   0  0  0  0  0  0  0  0  0  0  0  0
  -16.8510   11.6772    0.0000 N   0  0  0  0  0  0  0  0  0  0  0  0
  -11.7429    7.4456    0.0000 C   0  0  0  0  0  0  0  0  0  0  0  0
  -13.0411    8.1971    0.0000 O   0  0  0  0  0  0  0  0  0  0  0  0
  -12.5291    6.1682    0.0000 N   0  0  0  0  0  0  0  0  0  0  0  0
  -13.0594    4.7650    0.0000 C   0  0  0  0  0  0  0  0  0  0  0  0
  -14.4971    4.3372    0.0000 C   0  0  0  0  0  0  0  0  0  0  0  0
  -13.3145    3.2869    0.0000 C   0  0  0  0  0  0  0  0  0  0  0  0
  -14.8129    3.2172    0.0000 O   0  0  0  0  0  0  0  0  0  0  0  0
  -13.2853    1.7872    0.0000 N   0  0  0  0  0  0  0  0  0  0  0  0
  -12.9728    0.3201    0.0000 C   0  0  0  0  0  0  0  0  0  0  0  0
  -13.9510   -0.8171    0.0000 C   0  0  0  0  0  0  0  0  0  0  0  0
  -15.4249   -0.5385    0.0000 C   0  0  0  0  0  0  0  0  0  0  0  0
  -16.4031   -1.6757    0.0000 C   0  0  0  0  0  0  0  0  0  0  0  0
  -16.7147    0.2273    0.0000 C   0  0  0  0  0  0  0  0  0  0  0  0
  -12.3883   -1.0614    0.0000 C   0  0  0  0  0  0  0  0  0  0  0  0
  -13.6112   -1.9301    0.0000 O   0  0  0  0  0  0  0  0  0  0  0  0
  -11.5529   -2.3072    0.0000 N   0  0  0  0  0  0  0  0  0  0  0  0
  -10.4969   -3.3725    0.0000 C   0  0  0  0  0  0  0  0  0  0  0  0
   -9.2583   -4.2186    0.0000 C   0  0  0  0  0  0  0  0  0  0  0  0
   -7.8820   -4.8150    0.0000 C   0  0  0  0  0  0  0  0  0  0  0  0
   -6.4177   -5.1402    0.0000 C   0  0  0  0  0  0  0  0  0  0  0  0
   -4.9183   -5.1824    0.0000 C   0  0  0  0  0  0  0  0  0  0  0  0
  -11.9203   -3.8456    0.0000 C   0  0  0  0  0  0  0  0  0  0  0  0
  -10.7050   -4.8579    0.0000 C   0  0  0  0  0  0  0  0  0  0  0  0
   -9.7811   -6.0396    0.0000 O   0  0  0  0  0  0  0  0  0  0  0  0
  -12.0955   -5.4205    0.0000 N   0  0  0  0  0  0  0  0  0  0  0  0
  -12.3037   -6.9059    0.0000 C   0  0  0  0  0  0  0  0  0  0  0  0
  -11.9912   -8.3730    0.0000 C   0  0  0  0  0  0  0  0  0  0  0  0
  -13.1054   -9.3772    0.0000 C   0  0  0  0  0  0  0  0  0  0  0  0
  -12.7929  -10.8443    0.0000 O   0  0  0  0  0  0  0  0  0  0  0  0
  -14.6018   -9.2733    0.0000 O   0  0  0  0  0  0  0  0  0  0  0  0
  -13.6942   -7.4685    0.0000 C   0  0  0  0  0  0  0  0  0  0  0  0
  -14.8766   -6.5455    0.0000 O   0  0  0  0  0  0  0  0  0  0  0  0
  -13.9023   -8.9540    0.0000 N   0  0  0  0  0  0  0  0  0  0  0  0
  -15.2928   -9.5165    0.0000 C   0  0  0  0  0  0  0  0  0  0  0  0
  -16.7919   -9.5695    0.0000 C   0  0  0  0  0  0  0  0  0  0  0  0
  -17.9236  -10.5539    0.0000 O   0  0  0  0  0  0  0  0  0  0  0  0
  -15.5010  -11.0020    0.0000 C   0  0  0  0  0  0  0  0  0  0  0  0
  -14.3185  -11.9249    0.0000 O   0  0  0  0  0  0  0  0  0  0  0  0
  -16.8915  -11.5645    0.0000 N   0  0  0  0  0  0  0  0  0  0  0  0
  -17.0996  -13.0500    0.0000 C   0  0  0  0  0  0  0  0  0  0  0  0
  -16.7871  -14.5170    0.0000 C   0  0  0  0  0  0  0  0  0  0  0  0
  -17.9014  -15.5212    0.0000 C   0  0  0  0  0  0  0  0  0  0  0  0
  -15.9917  -15.7888    0.0000 C   0  0  0  0  0  0  0  0  0  0  0  0
  -14.4926  -15.7358    0.0000 C   0  0  0  0  0  0  0  0  0  0  0  0
  -18.4901  -13.6125    0.0000 C   0  0  0  0  0  0  0  0  0  0  0  0
  -18.8778  -15.0615    0.0000 O   0  0  0  0  0  0  0  0  0  0  0  0
  -19.6726  -12.6895    0.0000 O   0  0  0  0  0  0  0  0  0  0  0  0
   21.2940   -0.7076    0.0000 H   0  0  0  0  0  0  0  0  0  0  0  0
   21.4217   -5.1984    0.0000 H   0  0  0  0  0  0  0  0  0  0  0  0
   24.0012   -6.7301    0.0000 H   0  0  0  0  0  0  0  0  0  0  0  0
   23.7113   -0.7707    0.0000 H   0  0  0  0  0  0  0  0  0  0  0  0
   30.6821    0.8790    0.0000 H   0  0  0  0  0  0  0  0  0  0  0  0
   31.7001   -4.2165    0.0000 H   0  0  0  0  0  0  0  0  0  0  0  0
   28.7582   -4.8042    0.0000 H   0  0  0  0  0  0  0  0  0  0  0  0
   33.6520   -2.5018    0.0000 H   0  0  0  0  0  0  0  0  0  0  0  0
   23.8364   -3.1380    0.0000 H   0  0  0  0  0  0  0  0  0  0  0  0
   21.8317   -0.7026    0.0000 H   0  0  0  0  0  0  0  0  0  0  0  0
   25.7604    2.5452    0.0000 H   0  0  0  0  0  0  0  0  0  0  0  0
   23.2995    3.3782    0.0000 H   0  0  0  0  0  0  0  0  0  0  0  0
   18.8790   -0.6668    0.0000 H   0  0  0  0  0  0  0  0  0  0  0  0
   18.5025   -4.0615    0.0000 H   0  0  0  0  0  0  0  0  0  0  0  0
   16.7202   -4.1487    0.0000 H   0  0  0  0  0  0  0  0  0  0  0  0
   17.2410   -0.9977    0.0000 H   0  0  0  0  0  0  0  0  0  0  0  0
   15.3127   -0.9741    0.0000 H   0  0  0  0  0  0  0  0  0  0  0  0
   13.6833   -0.6031    0.0000 H   0  0  0  0  0  0  0  0  0  0  0  0
   11.8610   -1.4213    0.0000 H   0  0  0  0  0  0  0  0  0  0  0  0
   13.8025   -5.4136    0.0000 H   0  0  0  0  0  0  0  0  0  0  0  0
   12.0979   -4.8858    0.0000 H   0  0  0  0  0  0  0  0  0  0  0  0
   17.2359   -4.8562    0.0000 H   0  0  0  0  0  0  0  0  0  0  0  0
   15.2068   -6.3194    0.0000 H   0  0  0  0  0  0  0  0  0  0  0  0
   10.4567   -0.5154    0.0000 H   0  0  0  0  0  0  0  0  0  0  0  0
    8.6472   -0.6745    0.0000 H   0  0  0  0  0  0  0  0  0  0  0  0
    8.9235   -5.0765    0.0000 H   0  0  0  0  0  0  0  0  0  0  0  0
    7.5642   -4.1700    0.0000 H   0  0  0  0  0  0  0  0  0  0  0  0
   11.8961   -3.6129    0.0000 H   0  0  0  0  0  0  0  0  0  0  0  0
   10.7965   -2.4043    0.0000 H   0  0  0  0  0  0  0  0  0  0  0  0
   10.4290   -7.8238    0.0000 H   0  0  0  0  0  0  0  0  0  0  0  0
    7.4547    0.6705    0.0000 H   0  0  0  0  0  0  0  0  0  0  0  0
    5.5329    1.2151    0.0000 H   0  0  0  0  0  0  0  0  0  0  0  0
    4.2869   -3.0160    0.0000 H   0  0  0  0  0  0  0  0  0  0  0  0
    3.5103   -1.4094    0.0000 H   0  0  0  0  0  0  0  0  0  0  0  0
    7.1280   -1.2207    0.0000 H   0  0  0  0  0  0  0  0  0  0  0  0
    7.3217   -5.0089    0.0000 H   0  0  0  0  0  0  0  0  0  0  0  0
    5.7253   -5.3568    0.0000 H   0  0  0  0  0  0  0  0  0  0  0  0
    4.7587   -3.8569    0.0000 H   0  0  0  0  0  0  0  0  0  0  0  0
    8.2436   -4.1481    0.0000 H   0  0  0  0  0  0  0  0  0  0  0  0
    9.2428   -2.8554    0.0000 H   0  0  0  0  0  0  0  0  0  0  0  0
    7.5833   -1.2414    0.0000 H   0  0  0  0  0  0  0  0  0  0  0  0
    5.1191    2.6468    0.0000 H   0  0  0  0  0  0  0  0  0  0  0  0
    3.8134    1.5572    0.0000 H   0  0  0  0  0  0  0  0  0  0  0  0
    3.3197    0.2225    0.0000 H   0  0  0  0  0  0  0  0  0  0  0  0
    3.4113   -0.3569    0.0000 H   0  0  0  0  0  0  0  0  0  0  0  0
    2.8463   -1.2897    0.0000 H   0  0  0  0  0  0  0  0  0  0  0  0
    2.7723   -1.4403    0.0000 H   0  0  0  0  0  0  0  0  0  0  0  0
    2.1018   -2.6955    0.0000 H   0  0  0  0  0  0  0  0  0  0  0  0
    1.7971   -3.0988    0.0000 H   0  0  0  0  0  0  0  0  0  0  0  0
    0.9461   -4.0268    0.0000 H   0  0  0  0  0  0  0  0  0  0  0  0
    0.5707   -4.3651    0.0000 H   0  0  0  0  0  0  0  0  0  0  0  0
   -0.4405   -5.1153    0.0000 H   0  0  0  0  0  0  0  0  0  0  0  0
   -0.8732   -5.3765    0.0000 H   0  0  0  0  0  0  0  0  0  0  0  0
   -2.1912   -5.9133    0.0000 H   0  0  0  0  0  0  0  0  0  0  0  0
   -3.0560   -6.3906    0.0000 H   0  0  0  0  0  0  0  0  0  0  0  0
    5.1094    3.1445    0.0000 H   0  0  0  0  0  0  0  0  0  0  0  0
    4.7437    4.7369    0.0000 H   0  0  0  0  0  0  0  0  0  0  0  0
    2.9748    4.9719    0.0000 H   0  0  0  0  0  0  0  0  0  0  0  0
    3.2617    6.1762    0.0000 H   0  0  0  0  0  0  0  0  0  0  0  0
    2.6005    6.9539    0.0000 H   0  0  0  0  0  0  0  0  0  0  0  0
    1.8379    9.9465    0.0000 H   0  0  0  0  0  0  0  0  0  0  0  0
    0.4042    9.1629    0.0000 H   0  0  0  0  0  0  0  0  0  0  0  0
    4.6703    8.2272    0.0000 H   0  0  0  0  0  0  0  0  0  0  0  0
    3.4689    7.1200    0.0000 H   0  0  0  0  0  0  0  0  0  0  0  0
    3.9487   11.4611    0.0000 H   0  0  0  0  0  0  0  0  0  0  0  0
    2.4381   10.5113    0.0000 H   0  0  0  0  0  0  0  0  0  0  0  0
    6.2024    8.8947    0.0000 H   0  0  0  0  0  0  0  0  0  0  0  0
    8.0570   12.9947    0.0000 H   0  0  0  0  0  0  0  0  0  0  0  0
    5.6899   14.0655    0.0000 H   0  0  0  0  0  0  0  0  0  0  0  0
    3.5790   12.5508    0.0000 H   0  0  0  0  0  0  0  0  0  0  0  0
   -0.1502   10.4435    0.0000 H   0  0  0  0  0  0  0  0  0  0  0  0
   -1.0773   10.7845    0.0000 H   0  0  0  0  0  0  0  0  0  0  0  0
   -3.0756   12.8101    0.0000 H   0  0  0  0  0  0  0  0  0  0  0  0
   -4.0242   11.2987    0.0000 H   0  0  0  0  0  0  0  0  0  0  0  0
   -1.5717   13.8289    0.0000 H   0  0  0  0  0  0  0  0  0  0  0  0
   -5.0005   12.0600    0.0000 H   0  0  0  0  0  0  0  0  0  0  0  0
   -6.1473   11.8620    0.0000 H   0  0  0  0  0  0  0  0  0  0  0  0
   -8.9234   12.4857    0.0000 H   0  0  0  0  0  0  0  0  0  0  0  0
   -8.9043   10.7014    0.0000 H   0  0  0  0  0  0  0  0  0  0  0  0
   -4.6340   12.3135    0.0000 H   0  0  0  0  0  0  0  0  0  0  0  0
   -3.7935   15.0233    0.0000 H   0  0  0  0  0  0  0  0  0  0  0  0
   -5.7662   17.2835    0.0000 H   0  0  0  0  0  0  0  0  0  0  0  0
   -8.7099   16.7051    0.0000 H   0  0  0  0  0  0  0  0  0  0  0  0
   -9.6809   13.8666    0.0000 H   0  0  0  0  0  0  0  0  0  0  0  0
  -10.1372   10.8139    0.0000 H   0  0  0  0  0  0  0  0  0  0  0  0
  -10.8130   10.0488    0.0000 H   0  0  0  0  0  0  0  0  0  0  0  0
  -13.6665    8.8680    0.0000 H   0  0  0  0  0  0  0  0  0  0  0  0
  -12.6868    7.5604    0.0000 H   0  0  0  0  0  0  0  0  0  0  0  0
  -12.3679   11.9163    0.0000 H   0  0  0  0  0  0  0  0  0  0  0  0
  -11.1009   10.8847    0.0000 H   0  0  0  0  0  0  0  0  0  0  0  0
  -15.4661   10.7419    0.0000 H   0  0  0  0  0  0  0  0  0  0  0  0
  -14.3110    9.3818    0.0000 H   0  0  0  0  0  0  0  0  0  0  0  0
  -13.2465   13.3378    0.0000 H   0  0  0  0  0  0  0  0  0  0  0  0
  -17.5688   14.5901    0.0000 H   0  0  0  0  0  0  0  0  0  0  0  0
  -18.2918   12.0946    0.0000 H   0  0  0  0  0  0  0  0  0  0  0  0
  -16.4921   10.2208    0.0000 H   0  0  0  0  0  0  0  0  0  0  0  0
  -13.8755    6.8294    0.0000 H   0  0  0  0  0  0  0  0  0  0  0  0
  -14.0811    5.8632    0.0000 H   0  0  0  0  0  0  0  0  0  0  0  0
  -15.5864    5.3684    0.0000 H   0  0  0  0  0  0  0  0  0  0  0  0
  -15.8017    3.5970    0.0000 H   0  0  0  0  0  0  0  0  0  0  0  0
  -14.1707    2.8732    0.0000 H   0  0  0  0  0  0  0  0  0  0  0  0
  -14.7853    1.7985    0.0000 H   0  0  0  0  0  0  0  0  0  0  0  0
  -14.3700    0.8659    0.0000 H   0  0  0  0  0  0  0  0  0  0  0  0
  -14.4813   -2.2202    0.0000 H   0  0  0  0  0  0  0  0  0  0  0  0
  -12.8849   -1.8723    0.0000 H   0  0  0  0  0  0  0  0  0  0  0  0
  -15.2499    0.9512    0.0000 H   0  0  0  0  0  0  0  0  0  0  0  0
  -17.9000   -1.5789    0.0000 H   0  0  0  0  0  0  0  0  0  0  0  0
  -16.9334   -3.0788    0.0000 H   0  0  0  0  0  0  0  0  0  0  0  0
  -15.2164   -2.5931    0.0000 H   0  0  0  0  0  0  0  0  0  0  0  0
  -18.1025   -0.3417    0.0000 H   0  0  0  0  0  0  0  0  0  0  0  0
  -17.6647    1.3882    0.0000 H   0  0  0  0  0  0  0  0  0  0  0  0
  -15.7365    1.3645    0.0000 H   0  0  0  0  0  0  0  0  0  0  0  0
  -12.8209   -3.1087    0.0000 H   0  0  0  0  0  0  0  0  0  0  0  0
   -9.1815   -5.7166    0.0000 H   0  0  0  0  0  0  0  0  0  0  0  0
  -10.3500   -5.2473    0.0000 H   0  0  0  0  0  0  0  0  0  0  0  0
   -7.7033   -6.3043    0.0000 H   0  0  0  0  0  0  0  0  0  0  0  0
   -8.7592   -6.0318    0.0000 H   0  0  0  0  0  0  0  0  0  0  0  0
   -5.7896   -6.5024    0.0000 H   0  0  0  0  0  0  0  0  0  0  0  0
   -7.2099   -6.4139    0.0000 H   0  0  0  0  0  0  0  0  0  0  0  0
   -4.8177   -6.6790    0.0000 H   0  0  0  0  0  0  0  0  0  0  0  0
  -12.5688   -5.1982    0.0000 H   0  0  0  0  0  0  0  0  0  0  0  0
  -13.4197   -3.8035    0.0000 H   0  0  0  0  0  0  0  0  0  0  0  0
  -12.4917   -2.4587    0.0000 H   0  0  0  0  0  0  0  0  0  0  0  0
  -13.3816   -4.6485    0.0000 H   0  0  0  0  0  0  0  0  0  0  0  0
  -10.8046   -6.8530    0.0000 H   0  0  0  0  0  0  0  0  0  0  0  0
  -11.1957   -9.6448    0.0000 H   0  0  0  0  0  0  0  0  0  0  0  0
  -10.6006   -7.8105    0.0000 H   0  0  0  0  0  0  0  0  0  0  0  0
  -15.7716   -9.6465    0.0000 H   0  0  0  0  0  0  0  0  0  0  0  0
  -12.9784  -10.1356    0.0000 H   0  0  0  0  0  0  0  0  0  0  0  0
  -15.6053   -8.0494    0.0000 H   0  0  0  0  0  0  0  0  0  0  0  0
  -18.2187   -9.1065    0.0000 H   0  0  0  0  0  0  0  0  0  0  0  0
  -16.5838   -8.0840    0.0000 H   0  0  0  0  0  0  0  0  0  0  0  0
  -18.9946  -10.9472    0.0000 H   0  0  0  0  0  0  0  0  0  0  0  0
  -18.1776  -10.7925    0.0000 H   0  0  0  0  0  0  0  0  0  0  0  0
  -15.6005  -12.9970    0.0000 H   0  0  0  0  0  0  0  0  0  0  0  0
  -15.4755  -13.7892    0.0000 H   0  0  0  0  0  0  0  0  0  0  0  0
  -17.7701  -17.0155    0.0000 H   0  0  0  0  0  0  0  0  0  0  0  0
  -19.2919  -16.0837    0.0000 H   0  0  0  0  0  0  0  0  0  0  0  0
  -19.0998  -14.6191    0.0000 H   0  0  0  0  0  0  0  0  0  0  0  0
  -15.6792  -17.2559    0.0000 H   0  0  0  0  0  0  0  0  0  0  0  0
  -17.3033  -16.5166    0.0000 H   0  0  0  0  0  0  0  0  0  0  0  0
  -13.6972  -17.0075    0.0000 H   0  0  0  0  0  0  0  0  0  0  0  0
  -13.1021  -15.1733    0.0000 H   0  0  0  0  0  0  0  0  0  0  0  0
  -14.6240  -14.2415    0.0000 H   0  0  0  0  0  0  0  0  0  0  0  0
  -21.0631  -13.2520    0.0000 H   0  0  0  0  0  0  0  0  0  0  0  0
  1  2  1  0
  2  3  1  0
  3  4  2  0
  4  5  1  0
  5  6  2  0
  6  7  1  0
  7  8  2  0
  7  9  1  0
  9 10  1  0
 10 11  1  0
 11 12  2  0
  9 13  1  0
 13 14  1  0
 14 15  2  0
 15 16  1  0
 16 17  2  0
 17 18  1  0
 16 19  1  0
 14 20  1  0
 20 21  1  0
 21 22  2  0
 22 23  1  0
 23 24  2  0
 24 25  1  0
 25 26  2  0
 25 27  1  0
  1 28  2  0
  1 29  1  0
 29 30  1  0
 30 31  1  0
 31 32  1  0
 32 33  2  0
 32 34  1  0
 34 35  1  0
 35 36  1  0
 36 37  1  0
 37 38  1  0
 37 39  2  0
 35 40  1  0
 40 41  2  0
 40 42  1  0
 42 43  1  0
 43 44  1  0
 44 45  1  0
 45 46  1  0
 46 47  2  0
 46 48  1  0
 43 49  1  0
 49 50  2  0
 49 51  1  0
 51 52  1  0
 52 53  1  0
 53 54  1  0
 54 55  1  0
 54 56  1  0
 52 57  1  0
 57 58  2  0
 57 59  1  0
 60 59  1  6
 60 61  1  0
 61 62  1  0
 62 63  1  0
 63 64  1  0
 64 65  1  0
 65 66  1  0
 66 67  1  0
 60 68  1  0
 60 69  1  0
 69 70  2  0
 69 71  1  0
 71 72  1  0
 72 73  1  0
 73 74  1  0
 74 75  1  0
 75 76  1  0
 76 77  1  0
 77 78  2  3
 77 79  1  0
 72 80  1  0
 80 81  2  0
 80 82  1  0
 82 83  1  0
 83 84  1  0
 84 85  1  0
 83 86  1  0
 86 87  2  0
 86 88  1  0
 88 89  1  0
 89 90  1  0
 90 91  1  0
 91 92  2  0
 92 93  1  0
 93 94  2  0
 94 95  1  0
 95 96  2  0
 89 97  1  0
 97 98  2  0
 97 99  1  0
 99100  1  0
100101  1  0
101102  1  0
102103  1  0
103104  1  0
104105  1  0
105106  2  3
105107  1  0
100108  1  0
108109  2  0
108110  1  0
110111  1  0
111112  1  0
111113  1  0
113114  2  0
113115  1  0
115116  1  0
116117  1  0
117118  1  0
118119  1  0
118120  1  0
116121  1  0
121122  2  0
121123  1  0
123124  1  0
124125  1  0
125126  1  0
126127  1  0
127128  1  0
124129  1  0
124130  1  1
130131  2  0
130132  1  0
132133  1  0
133134  1  0
134135  1  0
135136  2  0
135137  1  0
133138  1  0
138139  2  0
138140  1  0
140141  1  0
141142  1  0
142143  1  0
141144  1  0
144145  2  0
144146  1  0
146147  1  0
147148  1  0
148149  1  0
148150  1  0
150151  1  0
147152  1  0
152153  2  0
152154  1  0
  8  3  1  0
 96 91  1  0
 11  6  1  0
 67128  2  0
 18 13  2  0
 22  9  1  0
 26 21  1  0
  2155  1  0
  4156  1  0
  5157  1  0
  8158  1  0
 15159  1  0
 17160  1  0
 18161  1  0
 19162  1  0
 23163  1  0
 24164  1  0
 26165  1  0
 27166  1  0
 29167  1  0
 30168  1  0
 30169  1  0
 31170  1  0
 31171  1  0
 34172  1  0
 35173  1  1
 36174  1  0
 36175  1  0
 38176  1  0
 38177  1  0
 42178  1  0
 43179  1  1
 44180  1  0
 44181  1  0
 45182  1  0
 45183  1  0
 48184  1  0
 51185  1  0
 52186  1  1
 53187  1  0
 53188  1  0
 54189  1  0
 55190  1  0
 55191  1  0
 55192  1  0
 56193  1  0
 56194  1  0
 56195  1  0
 59196  1  0
 61197  1  0
 61198  1  0
 62199  1  0
 62200  1  0
 63201  1  0
 63202  1  0
 64203  1  0
 64204  1  0
 65205  1  0
 65206  1  0
 66207  1  0
 66208  1  0
 67209  1  0
 68210  1  0
 68211  1  0
 68212  1  0
 71213  1  0
 72214  1  6
 73215  1  0
 73216  1  0
 74217  1  0
 74218  1  0
 75219  1  0
 75220  1  0
 76221  1  0
 78222  1  0
 79223  1  0
 79224  1  0
 82225  1  0
 83226  1  6
 84227  1  0
 84228  1  0
 85229  1  0
 88230  1  0
 89231  1  6
 90232  1  0
 90233  1  0
 92234  1  0
 93235  1  0
 94236  1  0
 95237  1  0
 96238  1  0
 99239  1  0
100240  1  6
101241  1  0
101242  1  0
102243  1  0
102244  1  0
103245  1  0
103246  1  0
104247  1  0
106248  1  0
107249  1  0
107250  1  0
110251  1  0
111252  1  6
112253  1  0
112254  1  0
112255  1  0
115256  1  0
116257  1  6
117258  1  0
117259  1  0
118260  1  0
119261  1  0
119262  1  0
119263  1  0
120264  1  0
120265  1  0
120266  1  0
123267  1  0
125268  1  0
125269  1  0
126270  1  0
126271  1  0
127272  1  0
127273  1  0
128274  1  0
129275  1  0
129276  1  0
129277  1  0
132278  1  0
133279  1  1
134280  1  0
134281  1  0
137282  1  0
140283  1  0
141284  1  6
142285  1  0
142286  1  0
143287  1  0
146288  1  0
147289  1  1
148290  1  1
149291  1  0
149292  1  0
149293  1  0
150294  1  0
150295  1  0
151296  1  0
151297  1  0
151298  1  0
154299  1  0
M  END
