
     RDKit          2D

271273  0  0  0  0  0  0  0  0999 V2000
  -24.9167   -2.1299    0.0000 N   0  0  0  0  0  0  0  0  0  0  0  0
  -23.4587   -2.4823    0.0000 C   0  0  0  0  0  0  0  0  0  0  0  0
  -22.4245   -1.3958    0.0000 C   0  0  0  0  0  0  0  0  0  0  0  0
  -20.9665   -1.7482    0.0000 C   0  0  0  0  0  0  0  0  0  0  0  0
  -20.5427   -3.1870    0.0000 O   0  0  0  0  0  0  0  0  0  0  0  0
  -19.9323   -0.6617    0.0000 N   0  0  0  0  0  0  0  0  0  0  0  0
  -18.4743   -1.0141    0.0000 C   0  0  0  0  0  0  0  0  0  0  0  0
  -18.3805    0.4830    0.0000 C   0  0  0  0  0  0  0  0  0  0  0  0
  -17.0370    1.1503    0.0000 C   0  0  0  0  0  0  0  0  0  0  0  0
  -16.9432    2.6473    0.0000 N   0  0  0  0  0  0  0  0  0  0  0  0
  -15.7875    0.3204    0.0000 O   0  0  0  0  0  0  0  0  0  0  0  0
  -17.2247   -1.8439    0.0000 C   0  0  0  0  0  0  0  0  0  0  0  0
  -15.8813   -1.1766    0.0000 O   0  0  0  0  0  0  0  0  0  0  0  0
  -17.3186   -3.3409    0.0000 N   0  0  0  0  0  0  0  0  0  0  0  0
  -16.0690   -4.1707    0.0000 C   0  0  0  0  0  0  0  0  0  0  0  0
  -17.1032   -5.2572    0.0000 C   0  0  0  0  0  0  0  0  0  0  0  0
  -18.5612   -4.9048    0.0000 C   0  0  0  0  0  0  0  0  0  0  0  0
  -19.5954   -5.9913    0.0000 C   0  0  0  0  0  0  0  0  0  0  0  0
  -21.0534   -5.6389    0.0000 O   0  0  0  0  0  0  0  0  0  0  0  0
  -19.1716   -7.4302    0.0000 O   0  0  0  0  0  0  0  0  0  0  0  0
  -14.6110   -4.5231    0.0000 C   0  0  0  0  0  0  0  0  0  0  0  0
  -14.3657   -6.0029    0.0000 O   0  0  0  0  0  0  0  0  0  0  0  0
  -13.5768   -3.4366    0.0000 N   0  0  0  0  0  0  0  0  0  0  0  0
  -12.1188   -3.7890    0.0000 C   0  0  0  0  0  0  0  0  0  0  0  0
  -12.7190   -5.1637    0.0000 C   0  0  0  0  0  0  0  0  0  0  0  0
  -11.8286   -6.3708    0.0000 C   0  0  0  0  0  0  0  0  0  0  0  0
  -12.4288   -7.7455    0.0000 C   0  0  0  0  0  0  0  0  0  0  0  0
  -10.5790   -7.2006    0.0000 C   0  0  0  0  0  0  0  0  0  0  0  0
  -10.6282   -3.6215    0.0000 C   0  0  0  0  0  0  0  0  0  0  0  0
   -9.7378   -4.8286    0.0000 O   0  0  0  0  0  0  0  0  0  0  0  0
  -10.0280   -2.2468    0.0000 N   0  0  0  0  0  0  0  0  0  0  0  0
   -8.5373   -2.0793    0.0000 C   0  0  0  0  0  0  0  0  0  0  0  0
   -8.9612   -0.6404    0.0000 C   0  0  0  0  0  0  0  0  0  0  0  0
  -10.4192   -0.2880    0.0000 C   0  0  0  0  0  0  0  0  0  0  0  0
  -10.8430    1.1509    0.0000 C   0  0  0  0  0  0  0  0  0  0  0  0
  -12.3011    1.5033    0.0000 C   0  0  0  0  0  0  0  0  0  0  0  0
  -12.7249    2.9421    0.0000 N   0  0  0  0  0  0  0  0  0  0  0  0
   -7.0793   -2.4317    0.0000 C   0  0  0  0  0  0  0  0  0  0  0  0
   -6.8340   -3.9115    0.0000 O   0  0  0  0  0  0  0  0  0  0  0  0
   -6.0451   -1.3452    0.0000 N   0  0  0  0  0  0  0  0  0  0  0  0
   -4.5871   -1.6976    0.0000 C   0  0  0  0  0  0  0  0  0  0  0  0
   -3.9845   -3.0712    0.0000 C   0  0  0  0  0  0  0  0  0  0  0  0
   -3.1329   -4.3060    0.0000 C   0  0  0  0  0  0  0  0  0  0  0  0
   -2.0629   -5.3573    0.0000 C   0  0  0  0  0  0  0  0  0  0  0  0
   -0.8134   -6.1871    0.0000 C   0  0  0  0  0  0  0  0  0  0  0  0
    0.5706   -6.7654    0.0000 C   0  0  0  0  0  0  0  0  0  0  0  0
    2.0391   -7.0714    0.0000 C   0  0  0  0  0  0  0  0  0  0  0  0
    3.5389   -7.0939    0.0000 C   0  0  0  0  0  0  0  0  0  0  0  0
   -5.6833   -2.7215    0.0000 C   0  0  0  0  0  0  0  0  0  0  0  0
   -4.9188   -0.2347    0.0000 C   0  0  0  0  0  0  0  0  0  0  0  0
   -6.4188   -0.2431    0.0000 O   0  0  0  0  0  0  0  0  0  0  0  0
   -4.9677    1.2645    0.0000 N   0  0  0  0  0  0  0  0  0  0  0  0
   -4.7320    2.7459    0.0000 C   0  0  0  0  0  0  0  0  0  0  0  0
   -6.1640    2.2993    0.0000 C   0  0  0  0  0  0  0  0  0  0  0  0
   -7.2667    3.3161    0.0000 O   0  0  0  0  0  0  0  0  0  0  0  0
   -4.2202    4.1559    0.0000 C   0  0  0  0  0  0  0  0  0  0  0  0
   -5.5751    4.7994    0.0000 O   0  0  0  0  0  0  0  0  0  0  0  0
   -3.4508    5.4435    0.0000 N   0  0  0  0  0  0  0  0  0  0  0  0
   -2.4516    6.5622    0.0000 C   0  0  0  0  0  0  0  0  0  0  0  0
   -3.8977    6.9607    0.0000 C   0  0  0  0  0  0  0  0  0  0  0  0
   -4.2756    8.4123    0.0000 C   0  0  0  0  0  0  0  0  0  0  0  0
   -3.2075    9.4654    0.0000 C   0  0  0  0  0  0  0  0  0  0  0  0
   -3.5855   10.9170    0.0000 C   0  0  0  0  0  0  0  0  0  0  0  0
   -5.0316   11.3155    0.0000 C   0  0  0  0  0  0  0  0  0  0  0  0
   -6.0997   10.2624    0.0000 C   0  0  0  0  0  0  0  0  0  0  0  0
   -5.7217    8.8108    0.0000 C   0  0  0  0  0  0  0  0  0  0  0  0
   -1.2587    7.4717    0.0000 C   0  0  0  0  0  0  0  0  0  0  0  0
   -1.8894    8.8326    0.0000 O   0  0  0  0  0  0  0  0  0  0  0  0
    0.0847    8.1389    0.0000 N   0  0  0  0  0  0  0  0  0  0  0  0
    1.5301    8.5399    0.0000 C   0  0  0  0  0  0  0  0  0  0  0  0
    0.5290    9.6569    0.0000 C   0  0  0  0  0  0  0  0  0  0  0  0
    0.9958   11.0824    0.0000 C   0  0  0  0  0  0  0  0  0  0  0  0
    2.4638   11.3909    0.0000 C   0  0  0  0  0  0  0  0  0  0  0  0
    2.9306   12.8164    0.0000 C   0  0  0  0  0  0  0  0  0  0  0  0
    1.9295   13.9335    0.0000 C   0  0  0  0  0  0  0  0  0  0  0  0
    0.4616   13.6250    0.0000 C   0  0  0  0  0  0  0  0  0  0  0  0
   -0.0053   12.1995    0.0000 C   0  0  0  0  0  0  0  0  0  0  0  0
    3.0253    8.6601    0.0000 C   0  0  0  0  0  0  0  0  0  0  0  0
    3.2305   10.1460    0.0000 O   0  0  0  0  0  0  0  0  0  0  0  0
    4.5162    8.4951    0.0000 N   0  0  0  0  0  0  0  0  0  0  0  0
    5.9489    8.0509    0.0000 C   0  0  0  0  0  0  0  0  0  0  0  0
    5.7107    9.5319    0.0000 C   0  0  0  0  0  0  0  0  0  0  0  0
    7.2717    7.3437    0.0000 C   0  0  0  0  0  0  0  0  0  0  0  0
    8.1015    8.5932    0.0000 O   0  0  0  0  0  0  0  0  0  0  0  0
    8.4368    6.3988    0.0000 N   0  0  0  0  0  0  0  0  0  0  0  0
    9.4019    5.2506    0.0000 C   0  0  0  0  0  0  0  0  0  0  0  0
   10.0021    6.6253    0.0000 C   0  0  0  0  0  0  0  0  0  0  0  0
   11.4928    6.7928    0.0000 C   0  0  0  0  0  0  0  0  0  0  0  0
   12.0930    8.1675    0.0000 C   0  0  0  0  0  0  0  0  0  0  0  0
   12.9508    6.4404    0.0000 C   0  0  0  0  0  0  0  0  0  0  0  0
   10.1324    3.9404    0.0000 C   0  0  0  0  0  0  0  0  0  0  0  0
   11.5692    4.3711    0.0000 O   0  0  0  0  0  0  0  0  0  0  0  0
   10.6016    2.5157    0.0000 N   0  0  0  0  0  0  0  0  0  0  0  0
   10.7928    1.0280    0.0000 C   0  0  0  0  0  0  0  0  0  0  0  0
   12.0409    1.8599    0.0000 C   0  0  0  0  0  0  0  0  0  0  0  0
   13.3855    1.1950    0.0000 C   0  0  0  0  0  0  0  0  0  0  0  0
   14.6336    2.0269    0.0000 C   0  0  0  0  0  0  0  0  0  0  0  0
   15.9782    1.3620    0.0000 N   0  0  0  0  0  0  0  0  0  0  0  0
   17.2263    2.1939    0.0000 C   0  0  0  0  0  0  0  0  0  0  0  0
   18.5709    1.5290    0.0000 N   0  0  0  0  0  0  0  0  0  0  0  0
   17.1299    3.6908    0.0000 N   0  0  0  0  0  0  0  0  0  0  0  0
   10.6989   -0.4691    0.0000 C   0  0  0  0  0  0  0  0  0  0  0  0
   12.1405   -0.8836    0.0000 O   0  0  0  0  0  0  0  0  0  0  0  0
   10.3235   -1.9213    0.0000 N   0  0  0  0  0  0  0  0  0  0  0  0
    9.6799   -3.2763    0.0000 C   0  0  0  0  0  0  0  0  0  0  0  0
    8.7916   -4.4850    0.0000 C   0  0  0  0  0  0  0  0  0  0  0  0
    7.6906   -5.5037    0.0000 C   0  0  0  0  0  0  0  0  0  0  0  0
    6.4167   -6.2956    0.0000 C   0  0  0  0  0  0  0  0  0  0  0  0
    5.0159   -6.8321    0.0000 C   0  0  0  0  0  0  0  0  0  0  0  0
   10.5257   -4.5151    0.0000 C   0  0  0  0  0  0  0  0  0  0  0  0
   11.1797   -3.2512    0.0000 C   0  0  0  0  0  0  0  0  0  0  0  0
   12.0623   -2.0383    0.0000 O   0  0  0  0  0  0  0  0  0  0  0  0
   11.9514   -4.5375    0.0000 N   0  0  0  0  0  0  0  0  0  0  0  0
   13.4511   -4.5124    0.0000 C   0  0  0  0  0  0  0  0  0  0  0  0
   14.8519   -3.9759    0.0000 C   0  0  0  0  0  0  0  0  0  0  0  0
   16.0169   -4.9207    0.0000 C   0  0  0  0  0  0  0  0  0  0  0  0
   17.4177   -4.3842    0.0000 C   0  0  0  0  0  0  0  0  0  0  0  0
   18.4589   -5.4640    0.0000 N   0  0  0  0  0  0  0  0  0  0  0  0
   17.6534   -2.9028    0.0000 O   0  0  0  0  0  0  0  0  0  0  0  0
   14.2228   -5.7987    0.0000 C   0  0  0  0  0  0  0  0  0  0  0  0
   13.4946   -7.1101    0.0000 O   0  0  0  0  0  0  0  0  0  0  0  0
   15.7226   -5.7736    0.0000 N   0  0  0  0  0  0  0  0  0  0  0  0
   16.4942   -7.0600    0.0000 C   0  0  0  0  0  0  0  0  0  0  0  0
   17.6592   -8.0048    0.0000 C   0  0  0  0  0  0  0  0  0  0  0  0
   18.9841   -7.3015    0.0000 C   0  0  0  0  0  0  0  0  0  0  0  0
   18.4308   -9.2911    0.0000 C   0  0  0  0  0  0  0  0  0  0  0  0
   19.9306   -9.2660    0.0000 C   0  0  0  0  0  0  0  0  0  0  0  0
   15.7660   -8.3714    0.0000 C   0  0  0  0  0  0  0  0  0  0  0  0
   16.2034   -9.8062    0.0000 O   0  0  0  0  0  0  0  0  0  0  0  0
   14.2662   -8.3964    0.0000 O   0  0  0  0  0  0  0  0  0  0  0  0
  -25.9509   -3.2164    0.0000 H   0  0  0  0  0  0  0  0  0  0  0  0
  -25.3406   -0.6910    0.0000 H   0  0  0  0  0  0  0  0  0  0  0  0
  -24.0589   -3.8569    0.0000 H   0  0  0  0  0  0  0  0  0  0  0  0
  -22.2091   -3.3121    0.0000 H   0  0  0  0  0  0  0  0  0  0  0  0
  -23.6741   -0.5660    0.0000 H   0  0  0  0  0  0  0  0  0  0  0  0
  -21.8243   -0.0211    0.0000 H   0  0  0  0  0  0  0  0  0  0  0  0
  -20.3234    0.2414    0.0000 H   0  0  0  0  0  0  0  0  0  0  0  0
  -19.0745   -2.3887    0.0000 H   0  0  0  0  0  0  0  0  0  0  0  0
  -18.8043    1.9219    0.0000 H   0  0  0  0  0  0  0  0  0  0  0  0
  -19.3646    0.4931    0.0000 H   0  0  0  0  0  0  0  0  0  0  0  0
  -15.5998    3.3146    0.0000 H   0  0  0  0  0  0  0  0  0  0  0  0
  -18.1928    3.4771    0.0000 H   0  0  0  0  0  0  0  0  0  0  0  0
  -18.0704   -3.6059    0.0000 H   0  0  0  0  0  0  0  0  0  0  0  0
  -15.4688   -2.7961    0.0000 H   0  0  0  0  0  0  0  0  0  0  0  0
  -17.7034   -6.6319    0.0000 H   0  0  0  0  0  0  0  0  0  0  0  0
  -15.8536   -6.0870    0.0000 H   0  0  0  0  0  0  0  0  0  0  0  0
  -19.8108   -4.0750    0.0000 H   0  0  0  0  0  0  0  0  0  0  0  0
  -18.5213   -4.0200    0.0000 H   0  0  0  0  0  0  0  0  0  0  0  0
  -14.0006   -1.9978    0.0000 H   0  0  0  0  0  0  0  0  0  0  0  0
  -12.0249   -2.2920    0.0000 H   0  0  0  0  0  0  0  0  0  0  0  0
  -13.7532   -6.2502    0.0000 H   0  0  0  0  0  0  0  0  0  0  0  0
  -14.1322   -4.6609    0.0000 H   0  0  0  0  0  0  0  0  0  0  0  0
  -10.7944   -5.2844    0.0000 H   0  0  0  0  0  0  0  0  0  0  0  0
  -11.6922   -9.0522    0.0000 H   0  0  0  0  0  0  0  0  0  0  0  0
  -13.4630   -8.8320    0.0000 H   0  0  0  0  0  0  0  0  0  0  0  0
  -13.7702   -7.0742    0.0000 H   0  0  0  0  0  0  0  0  0  0  0  0
  -10.4897   -8.6980    0.0000 H   0  0  0  0  0  0  0  0  0  0  0  0
   -9.1210   -7.5530    0.0000 H   0  0  0  0  0  0  0  0  0  0  0  0
   -9.9788   -5.8260    0.0000 H   0  0  0  0  0  0  0  0  0  0  0  0
  -11.0589   -1.1572    0.0000 H   0  0  0  0  0  0  0  0  0  0  0  0
   -8.6312   -3.5763    0.0000 H   0  0  0  0  0  0  0  0  0  0  0  0
   -8.6855    0.8341    0.0000 H   0  0  0  0  0  0  0  0  0  0  0  0
   -7.4706   -0.4729    0.0000 H   0  0  0  0  0  0  0  0  0  0  0  0
  -11.8783   -0.6360    0.0000 H   0  0  0  0  0  0  0  0  0  0  0  0
  -11.0434   -1.6519    0.0000 H   0  0  0  0  0  0  0  0  0  0  0  0
  -10.5674    2.6253    0.0000 H   0  0  0  0  0  0  0  0  0  0  0  0
   -9.3840    1.4989    0.0000 H   0  0  0  0  0  0  0  0  0  0  0  0
  -13.7917    1.3357    0.0000 H   0  0  0  0  0  0  0  0  0  0  0  0
  -12.5767    0.0288    0.0000 H   0  0  0  0  0  0  0  0  0  0  0  0
  -14.1829    3.2945    0.0000 H   0  0  0  0  0  0  0  0  0  0  0  0
  -12.6310    4.4392    0.0000 H   0  0  0  0  0  0  0  0  0  0  0  0
  -11.2658    3.2901    0.0000 H   0  0  0  0  0  0  0  0  0  0  0  0
   -6.6412    0.0313    0.0000 H   0  0  0  0  0  0  0  0  0  0  0  0
   -4.8671   -4.2841    0.0000 H   0  0  0  0  0  0  0  0  0  0  0  0
   -5.4803   -3.1843    0.0000 H   0  0  0  0  0  0  0  0  0  0  0  0
   -3.7700   -5.6640    0.0000 H   0  0  0  0  0  0  0  0  0  0  0  0
   -4.5802   -4.7001    0.0000 H   0  0  0  0  0  0  0  0  0  0  0  0
   -2.4315   -6.8113    0.0000 H   0  0  0  0  0  0  0  0  0  0  0  0
   -3.4095   -6.0182    0.0000 H   0  0  0  0  0  0  0  0  0  0  0  0
   -0.9001   -7.6846    0.0000 H   0  0  0  0  0  0  0  0  0  0  0  0
   -2.0105   -7.0909    0.0000 H   0  0  0  0  0  0  0  0  0  0  0  0
    0.7689   -8.2523    0.0000 H   0  0  0  0  0  0  0  0  0  0  0  0
   -0.4338   -7.8794    0.0000 H   0  0  0  0  0  0  0  0  0  0  0  0
    2.6850   -8.4252    0.0000 H   0  0  0  0  0  0  0  0  0  0  0  0
    1.2636   -8.3553    0.0000 H   0  0  0  0  0  0  0  0  0  0  0  0
    3.6591   -8.5890    0.0000 H   0  0  0  0  0  0  0  0  0  0  0  0
   -7.0200   -2.9175    0.0000 H   0  0  0  0  0  0  0  0  0  0  0  0
   -5.8721   -4.2921    0.0000 H   0  0  0  0  0  0  0  0  0  0  0  0
   -4.5049   -3.9170    0.0000 H   0  0  0  0  0  0  0  0  0  0  0  0
   -6.4651    1.1752    0.0000 H   0  0  0  0  0  0  0  0  0  0  0  0
   -5.7680    3.8306    0.0000 H   0  0  0  0  0  0  0  0  0  0  0  0
   -7.4588    1.5420    0.0000 H   0  0  0  0  0  0  0  0  0  0  0  0
   -5.8184    0.8396    0.0000 H   0  0  0  0  0  0  0  0  0  0  0  0
   -8.6987    2.8695    0.0000 H   0  0  0  0  0  0  0  0  0  0  0  0
   -4.7587    6.1779    0.0000 H   0  0  0  0  0  0  0  0  0  0  0  0
   -2.7367    8.0349    0.0000 H   0  0  0  0  0  0  0  0  0  0  0  0
   -5.3964    7.0237    0.0000 H   0  0  0  0  0  0  0  0  0  0  0  0
   -4.3961    5.5460    0.0000 H   0  0  0  0  0  0  0  0  0  0  0  0
   -1.7236    9.2462    0.0000 H   0  0  0  0  0  0  0  0  0  0  0  0
   -2.5173   11.9702    0.0000 H   0  0  0  0  0  0  0  0  0  0  0  0
   -5.4096   12.7671    0.0000 H   0  0  0  0  0  0  0  0  0  0  0  0
   -7.5458   10.6608    0.0000 H   0  0  0  0  0  0  0  0  0  0  0  0
   -6.7899    7.7577    0.0000 H   0  0  0  0  0  0  0  0  0  0  0  0
   -0.6186    9.4639    0.0000 H   0  0  0  0  0  0  0  0  0  0  0  0
    2.0864    9.9329    0.0000 H   0  0  0  0  0  0  0  0  0  0  0  0
   -0.6977   10.5202    0.0000 H   0  0  0  0  0  0  0  0  0  0  0  0
   -0.6552    8.7362    0.0000 H   0  0  0  0  0  0  0  0  0  0  0  0
    3.5936   10.4042    0.0000 H   0  0  0  0  0  0  0  0  0  0  0  0
    4.3985   13.1249    0.0000 H   0  0  0  0  0  0  0  0  0  0  0  0
    2.3963   15.3590    0.0000 H   0  0  0  0  0  0  0  0  0  0  0  0
   -0.5396   14.7420    0.0000 H   0  0  0  0  0  0  0  0  0  0  0  0
   -1.4732   11.8910    0.0000 H   0  0  0  0  0  0  0  0  0  0  0  0
    4.6409    9.9899    0.0000 H   0  0  0  0  0  0  0  0  0  0  0  0
    7.1701    8.9221    0.0000 H   0  0  0  0  0  0  0  0  0  0  0  0
    6.8741   10.4787    0.0000 H   0  0  0  0  0  0  0  0  0  0  0  0
    5.1454   10.9213    0.0000 H   0  0  0  0  0  0  0  0  0  0  0  0
    4.2167    9.3976    0.0000 H   0  0  0  0  0  0  0  0  0  0  0  0
    9.3498    7.5889    0.0000 H   0  0  0  0  0  0  0  0  0  0  0  0
   10.8979    5.1401    0.0000 H   0  0  0  0  0  0  0  0  0  0  0  0
   10.0960    8.1223    0.0000 H   0  0  0  0  0  0  0  0  0  0  0  0
    8.6727    7.3200    0.0000 H   0  0  0  0  0  0  0  0  0  0  0  0
   11.7640    5.3175    0.0000 H   0  0  0  0  0  0  0  0  0  0  0  0
   13.5521    8.5155    0.0000 H   0  0  0  0  0  0  0  0  0  0  0  0
   12.1868    9.6645    0.0000 H   0  0  0  0  0  0  0  0  0  0  0  0
   10.6888    8.6950    0.0000 H   0  0  0  0  0  0  0  0  0  0  0  0
   14.1097    7.3927    0.0000 H   0  0  0  0  0  0  0  0  0  0  0  0
   14.2004    5.6106    0.0000 H   0  0  0  0  0  0  0  0  0  0  0  0
   12.3506    5.0657    0.0000 H   0  0  0  0  0  0  0  0  0  0  0  0
   12.0131    3.0233    0.0000 H   0  0  0  0  0  0  0  0  0  0  0  0
   11.9915    0.1262    0.0000 H   0  0  0  0  0  0  0  0  0  0  0  0
   12.9293    3.0686    0.0000 H   0  0  0  0  0  0  0  0  0  0  0  0
   11.2981    3.1631    0.0000 H   0  0  0  0  0  0  0  0  0  0  0  0
   14.4215    0.1103    0.0000 H   0  0  0  0  0  0  0  0  0  0  0  0
   12.8160   -0.1927    0.0000 H   0  0  0  0  0  0  0  0  0  0  0  0
   15.5220    3.2356    0.0000 H   0  0  0  0  0  0  0  0  0  0  0  0
   13.7375    3.2298    0.0000 H   0  0  0  0  0  0  0  0  0  0  0  0
   16.0746   -0.1349    0.0000 H   0  0  0  0  0  0  0  0  0  0  0  0
   19.8190    2.3609    0.0000 H   0  0  0  0  0  0  0  0  0  0  0  0
   18.6673    0.0321    0.0000 H   0  0  0  0  0  0  0  0  0  0  0  0
   18.3781    4.5228    0.0000 H   0  0  0  0  0  0  0  0  0  0  0  0
   15.7854    4.3558    0.0000 H   0  0  0  0  0  0  0  0  0  0  0  0
   11.7853   -2.2575    0.0000 H   0  0  0  0  0  0  0  0  0  0  0  0
   10.2264   -4.9223    0.0000 H   0  0  0  0  0  0  0  0  0  0  0  0
    9.2155   -5.9238    0.0000 H   0  0  0  0  0  0  0  0  0  0  0  0
    8.9214   -6.3611    0.0000 H   0  0  0  0  0  0  0  0  0  0  0  0
    8.0154   -6.9681    0.0000 H   0  0  0  0  0  0  0  0  0  0  0  0
    7.5862   -7.2349    0.0000 H   0  0  0  0  0  0  0  0  0  0  0  0
    6.2754   -7.7889    0.0000 H   0  0  0  0  0  0  0  0  0  0  0  0
    5.4169   -8.2775    0.0000 H   0  0  0  0  0  0  0  0  0  0  0  0
    9.9155   -6.0652    0.0000 H   0  0  0  0  0  0  0  0  0  0  0  0
   11.3287   -5.7327    0.0000 H   0  0  0  0  0  0  0  0  0  0  0  0
   11.7279   -3.9743    0.0000 H   0  0  0  0  0  0  0  0  0  0  0  0
   11.3885   -5.9279    0.0000 H   0  0  0  0  0  0  0  0  0  0  0  0
   13.1660   -3.0398    0.0000 H   0  0  0  0  0  0  0  0  0  0  0  0
   15.9847   -2.9926    0.0000 H   0  0  0  0  0  0  0  0  0  0  0  0
   14.0803   -2.6896    0.0000 H   0  0  0  0  0  0  0  0  0  0  0  0
   16.9396   -6.1034    0.0000 H   0  0  0  0  0  0  0  0  0  0  0  0
   15.4785   -6.3208    0.0000 H   0  0  0  0  0  0  0  0  0  0  0  0
   19.9835   -4.7925    0.0000 H   0  0  0  0  0  0  0  0  0  0  0  0
   18.1837   -6.7867    0.0000 H   0  0  0  0  0  0  0  0  0  0  0  0
   16.7464   -4.6774    0.0000 H   0  0  0  0  0  0  0  0  0  0  0  0
   17.6270   -6.0767    0.0000 H   0  0  0  0  0  0  0  0  0  0  0  0
   16.6547   -9.1188    0.0000 H   0  0  0  0  0  0  0  0  0  0  0  0
   20.3512   -8.2535    0.0000 H   0  0  0  0  0  0  0  0  0  0  0  0
   20.1927   -6.4850    0.0000 H   0  0  0  0  0  0  0  0  0  0  0  0
   18.1373   -6.2856    0.0000 H   0  0  0  0  0  0  0  0  0  0  0  0
   18.7160  -10.7638    0.0000 H   0  0  0  0  0  0  0  0  0  0  0  0
   17.1059   -9.9944    0.0000 H   0  0  0  0  0  0  0  0  0  0  0  0
   20.7022  -10.5523    0.0000 H   0  0  0  0  0  0  0  0  0  0  0  0
   21.3314   -8.7295    0.0000 H   0  0  0  0  0  0  0  0  0  0  0  0
   20.0103   -7.7681    0.0000 H   0  0  0  0  0  0  0  0  0  0  0  0
  1  2  1  0
  2  3  1  0
  3  4  1  0
  4  5  2  0
  4  6  1  0
  6  7  1  0
  7  8  1  0
  8  9  1  0
  9 10  1  0
  9 11  2  0
  7 12  1  0
 12 13  2  0
 12 14  1  0
 14 15  1  0
 15 16  1  0
 16 17  1  0
 17 18  1  0
 18 19  2  0
 18 20  1  0
 15 21  1  0
 21 22  2  0
 21 23  1  0
 23 24  1  0
 24 25  1  0
 25 26  1  0
 26 27  1  0
 26 28  1  0
 24 29  1  0
 29 30  2  0
 29 31  1  0
 31 32  1  0
 32 33  1  0
 33 34  1  0
 34 35  1  0
 35 36  1  0
 36 37  1  0
 32 38  1  0
 38 39  2  0
 38 40  1  0
 41 40  1  1
 41 42  1  0
 42 43  1  0
 43 44  1  0
 44 45  1  0
 45 46  1  0
 46 47  1  0
 47 48  1  0
 41 49  1  0
 41 50  1  0
 50 51  2  0
 50 52  1  0
 52 53  1  0
 53 54  1  0
 54 55  1  0
 53 56  1  0
 56 57  2  0
 56 58  1  0
 58 59  1  0
 59 60  1  0
 60 61  1  0
 61 62  2  0
 62 63  1  0
 63 64  2  0
 64 65  1  0
 65 66  2  0
 59 67  1  0
 67 68  2  0
 67 69  1  0
 69 70  1  0
 70 71  1  0
 71 72  1  0
 72 73  2  0
 73 74  1  0
 74 75  2  0
 75 76  1  0
 76 77  2  0
 70 78  1  0
 78 79  2  0
 78 80  1  0
 80 81  1  0
 81 82  1  0
 81 83  1  0
 83 84  2  0
 83 85  1  0
 85 86  1  0
 86 87  1  0
 87 88  1  0
 88 89  1  0
 88 90  1  0
 86 91  1  0
 91 92  2  0
 91 93  1  0
 93 94  1  0
 94 95  1  0
 95 96  1  0
 96 97  1  0
 97 98  1  0
 98 99  1  0
 99100  2  3
 99101  1  0
 94102  1  0
102103  2  0
102104  1  0
104105  1  0
105106  1  0
106107  1  0
107108  1  0
108109  1  0
105110  1  0
105111  1  6
111112  2  0
111113  1  0
113114  1  0
114115  1  0
115116  1  0
116117  1  0
117118  1  0
117119  2  0
114120  1  0
120121  2  0
120122  1  0
122123  1  0
123124  1  0
124125  1  0
124126  1  0
126127  1  0
123128  1  0
128129  2  0
128130  1  0
 66 61  1  0
 77 72  1  0
 48109  2  0
  1131  1  0
  1132  1  0
  2133  1  0
  2134  1  0
  3135  1  0
  3136  1  0
  6137  1  0
  7138  1  1
  8139  1  0
  8140  1  0
 10141  1  0
 10142  1  0
 14143  1  0
 15144  1  6
 16145  1  0
 16146  1  0
 17147  1  0
 17148  1  0
 23149  1  0
 24150  1  6
 25151  1  0
 25152  1  0
 26153  1  0
 27154  1  0
 27155  1  0
 27156  1  0
 28157  1  0
 28158  1  0
 28159  1  0
 31160  1  0
 32161  1  1
 33162  1  0
 33163  1  0
 34164  1  0
 34165  1  0
 35166  1  0
 35167  1  0
 36168  1  0
 36169  1  0
 37170  1  0
 37171  1  0
 37172  1  0
 40173  1  0
 42174  1  0
 42175  1  0
 43176  1  0
 43177  1  0
 44178  1  0
 44179  1  0
 45180  1  0
 45181  1  0
 46182  1  0
 46183  1  0
 47184  1  0
 47185  1  0
 48186  1  0
 49187  1  0
 49188  1  0
 49189  1  0
 52190  1  0
 53191  1  1
 54192  1  0
 54193  1  0
 55194  1  0
 58195  1  0
 59196  1  1
 60197  1  0
 60198  1  0
 62199  1  0
 63200  1  0
 64201  1  0
 65202  1  0
 66203  1  0
 69204  1  0
 70205  1  1
 71206  1  0
 71207  1  0
 73208  1  0
 74209  1  0
 75210  1  0
 76211  1  0
 77212  1  0
 80213  1  0
 81214  1  1
 82215  1  0
 82216  1  0
 82217  1  0
 85218  1  0
 86219  1  1
 87220  1  0
 87221  1  0
 88222  1  0
 89223  1  0
 89224  1  0
 89225  1  0
 90226  1  0
 90227  1  0
 90228  1  0
 93229  1  0
 94230  1  1
 95231  1  0
 95232  1  0
 96233  1  0
 96234  1  0
 97235  1  0
 97236  1  0
 98237  1  0
100238  1  0
100239  1  0
101240  1  0
101241  1  0
104242  1  0
106243  1  0
106244  1  0
107245  1  0
107246  1  0
108247  1  0
108248  1  0
109249  1  0
110250  1  0
110251  1  0
110252  1  0
113253  1  0
114254  1  1
115255  1  0
115256  1  0
116257  1  0
116258  1  0
118259  1  0
118260  1  0
122261  1  0
123262  1  1
124263  1  6
125264  1  0
125265  1  0
125266  1  0
126267  1  0
126268  1  0
127269  1  0
127270  1  0
127271  1  0
M  CHG  4  20  -1  37   1 100   1 130  -1
M  END
