
     RDKit          2D

230238  0  0  0  0  0  0  0  0999 V2000
  -16.1605   -2.0231    0.0000 C   0  0  0  0  0  0  0  0  0  0  0  0
  -16.5053   -3.4830    0.0000 N   0  0  0  0  0  0  0  0  0  0  0  0
  -17.9419   -3.9143    0.0000 C   0  0  0  0  0  0  0  0  0  0  0  0
  -19.0338   -2.8858    0.0000 C   0  0  0  0  0  0  0  0  0  0  0  0
  -20.4704   -3.3172    0.0000 C   0  0  0  0  0  0  0  0  0  0  0  0
  -20.8152   -4.7771    0.0000 C   0  0  0  0  0  0  0  0  0  0  0  0
  -19.7233   -5.8055    0.0000 C   0  0  0  0  0  0  0  0  0  0  0  0
  -18.2866   -5.3742    0.0000 C   0  0  0  0  0  0  0  0  0  0  0  0
  -20.3640   -7.1618    0.0000 C   0  0  0  0  0  0  0  0  0  0  0  0
  -21.8519   -6.9715    0.0000 O   0  0  0  0  0  0  0  0  0  0  0  0
  -22.1307   -5.4977    0.0000 C   0  0  0  0  0  0  0  0  0  0  0  0
  -23.4870   -4.8570    0.0000 O   0  0  0  0  0  0  0  0  0  0  0  0
  -21.1430   -8.4437    0.0000 C   0  0  0  0  0  0  0  0  0  0  0  0
  -20.4224   -9.7592    0.0000 C   0  0  0  0  0  0  0  0  0  0  0  0
  -21.2013  -11.0411    0.0000 C   0  0  0  0  0  0  0  0  0  0  0  0
  -22.7010  -11.0074    0.0000 C   0  0  0  0  0  0  0  0  0  0  0  0
  -23.4216   -9.6918    0.0000 C   0  0  0  0  0  0  0  0  0  0  0  0
  -22.6426   -8.4100    0.0000 C   0  0  0  0  0  0  0  0  0  0  0  0
  -23.4799  -12.2893    0.0000 O   0  0  0  0  0  0  0  0  0  0  0  0
  -18.9227   -9.7929    0.0000 O   0  0  0  0  0  0  0  0  0  0  0  0
  -18.1437   -8.5111    0.0000 C   0  0  0  0  0  0  0  0  0  0  0  0
  -18.8644   -7.1955    0.0000 C   0  0  0  0  0  0  0  0  0  0  0  0
  -17.7491   -6.5276    0.0000 C   0  0  0  0  0  0  0  0  0  0  0  0
  -16.9493   -6.5455    0.0000 C   0  0  0  0  0  0  0  0  0  0  0  0
  -16.5650   -7.2472    0.0000 C   0  0  0  0  0  0  0  0  0  0  0  0
  -16.9804   -7.9308    0.0000 C   0  0  0  0  0  0  0  0  0  0  0  0
  -14.3655   -7.2966    0.0000 O   0  0  0  0  0  0  0  0  0  0  0  0
  -17.2524   -0.9946    0.0000 S   0  0  0  0  0  0  0  0  0  0  0  0
  -14.7239   -1.5917    0.0000 N   0  0  0  0  0  0  0  0  0  0  0  0
  -14.3791   -0.1319    0.0000 C   0  0  0  0  0  0  0  0  0  0  0  0
  -12.9425    0.2995    0.0000 C   0  0  0  0  0  0  0  0  0  0  0  0
  -12.5978    1.7593    0.0000 C   0  0  0  0  0  0  0  0  0  0  0  0
  -13.2931    2.1492    0.0000 O   0  0  0  0  0  0  0  0  0  0  0  0
  -11.1611    2.1907    0.0000 N   0  0  0  0  0  0  0  0  0  0  0  0
  -10.8164    3.6505    0.0000 C   0  0  0  0  0  0  0  0  0  0  0  0
  -12.3139    3.7365    0.0000 C   0  0  0  0  0  0  0  0  0  0  0  0
  -13.1372    2.4826    0.0000 C   0  0  0  0  0  0  0  0  0  0  0  0
  -14.6347    2.5686    0.0000 C   0  0  0  0  0  0  0  0  0  0  0  0
  -15.6047    1.4245    0.0000 N   0  0  0  0  0  0  0  0  0  0  0  0
  -15.3090    3.9086    0.0000 O   0  0  0  0  0  0  0  0  0  0  0  0
   -9.9931    4.9044    0.0000 C   0  0  0  0  0  0  0  0  0  0  0  0
  -10.9716    6.0414    0.0000 O   0  0  0  0  0  0  0  0  0  0  0  0
   -8.4956    4.8184    0.0000 N   0  0  0  0  0  0  0  0  0  0  0  0
   -7.6724    6.0723    0.0000 C   0  0  0  0  0  0  0  0  0  0  0  0
   -9.0502    6.6653    0.0000 C   0  0  0  0  0  0  0  0  0  0  0  0
  -10.1421    7.6938    0.0000 O   0  0  0  0  0  0  0  0  0  0  0  0
  -10.3530    5.9219    0.0000 C   0  0  0  0  0  0  0  0  0  0  0  0
   -6.4699    6.9690    0.0000 C   0  0  0  0  0  0  0  0  0  0  0  0
   -7.0005    8.3721    0.0000 O   0  0  0  0  0  0  0  0  0  0  0  0
   -5.0921    6.3760    0.0000 N   0  0  0  0  0  0  0  0  0  0  0  0
   -3.8896    7.2727    0.0000 C   0  0  0  0  0  0  0  0  0  0  0  0
   -4.9815    8.3012    0.0000 C   0  0  0  0  0  0  0  0  0  0  0  0
   -6.4182    7.8699    0.0000 C   0  0  0  0  0  0  0  0  0  0  0  0
   -7.5101    8.8983    0.0000 C   0  0  0  0  0  0  0  0  0  0  0  0
   -8.9467    8.4670    0.0000 C   0  0  0  0  0  0  0  0  0  0  0  0
   -9.2914    7.0071    0.0000 C   0  0  0  0  0  0  0  0  0  0  0  0
   -8.1995    5.9786    0.0000 C   0  0  0  0  0  0  0  0  0  0  0  0
   -6.7629    6.4100    0.0000 C   0  0  0  0  0  0  0  0  0  0  0  0
   -2.4530    7.7041    0.0000 C   0  0  0  0  0  0  0  0  0  0  0  0
   -2.2888    9.1951    0.0000 O   0  0  0  0  0  0  0  0  0  0  0  0
   -1.3611    6.6756    0.0000 N   0  0  0  0  0  0  0  0  0  0  0  0
    0.0755    7.1070    0.0000 C   0  0  0  0  0  0  0  0  0  0  0  0
   -0.5988    8.4469    0.0000 C   0  0  0  0  0  0  0  0  0  0  0  0
   -2.0746    8.7148    0.0000 O   0  0  0  0  0  0  0  0  0  0  0  0
    1.5731    7.0210    0.0000 C   0  0  0  0  0  0  0  0  0  0  0  0
    2.0684    8.4368    0.0000 O   0  0  0  0  0  0  0  0  0  0  0  0
    2.2473    5.6811    0.0000 N   0  0  0  0  0  0  0  0  0  0  0  0
    3.7449    5.5951    0.0000 C   0  0  0  0  0  0  0  0  0  0  0  0
    3.5695    7.0848    0.0000 C   0  0  0  0  0  0  0  0  0  0  0  0
    2.1917    7.6778    0.0000 C   0  0  0  0  0  0  0  0  0  0  0  0
    2.0164    9.1675    0.0000 O   0  0  0  0  0  0  0  0  0  0  0  0
    0.8080    7.0987    0.0000 O   0  0  0  0  0  0  0  0  0  0  0  0
    5.1227    5.0021    0.0000 C   0  0  0  0  0  0  0  0  0  0  0  0
    6.0724    6.1631    0.0000 O   0  0  0  0  0  0  0  0  0  0  0  0
    5.2980    3.5124    0.0000 N   0  0  0  0  0  0  0  0  0  0  0  0
    6.6758    2.9194    0.0000 C   0  0  0  0  0  0  0  0  0  0  0  0
    6.7417    4.4179    0.0000 C   0  0  0  0  0  0  0  0  0  0  0  0
    7.4965    5.7142    0.0000 C   0  0  0  0  0  0  0  0  0  0  0  0
    8.7672    6.5112    0.0000 C   0  0  0  0  0  0  0  0  0  0  0  0
   10.2628    6.6265    0.0000 C   0  0  0  0  0  0  0  0  0  0  0  0
    5.6328    1.8414    0.0000 C   0  0  0  0  0  0  0  0  0  0  0  0
    7.3139    1.5618    0.0000 C   0  0  0  0  0  0  0  0  0  0  0  0
    6.2723    0.4824    0.0000 O   0  0  0  0  0  0  0  0  0  0  0  0
    8.5098    0.6563    0.0000 N   0  0  0  0  0  0  0  0  0  0  0  0
    9.9894    0.4103    0.0000 C   0  0  0  0  0  0  0  0  0  0  0  0
   10.9260    1.5820    0.0000 C   0  0  0  0  0  0  0  0  0  0  0  0
   12.2781    2.2314    0.0000 C   0  0  0  0  0  0  0  0  0  0  0  0
   11.1301    3.1968    0.0000 C   0  0  0  0  0  0  0  0  0  0  0  0
   10.8713    4.6743    0.0000 N   0  0  0  0  0  0  0  0  0  0  0  0
   11.6227    5.9725    0.0000 C   0  0  0  0  0  0  0  0  0  0  0  0
   13.0328    6.4840    0.0000 C   0  0  0  0  0  0  0  0  0  0  0  0
   14.4418    5.9694    0.0000 C   0  0  0  0  0  0  0  0  0  0  0  0
   15.1903    4.6696    0.0000 C   0  0  0  0  0  0  0  0  0  0  0  0
   14.9282    3.1926    0.0000 C   0  0  0  0  0  0  0  0  0  0  0  0
   13.7781    2.2297    0.0000 C   0  0  0  0  0  0  0  0  0  0  0  0
    9.6541   -1.0517    0.0000 C   0  0  0  0  0  0  0  0  0  0  0  0
    8.1650   -1.2329    0.0000 O   0  0  0  0  0  0  0  0  0  0  0  0
    9.9862   -2.5145    0.0000 N   0  0  0  0  0  0  0  0  0  0  0  0
   10.9202   -3.6883    0.0000 C   0  0  0  0  0  0  0  0  0  0  0  0
   10.8065   -5.1839    0.0000 C   0  0  0  0  0  0  0  0  0  0  0  0
    9.4543   -5.8333    0.0000 C   0  0  0  0  0  0  0  0  0  0  0  0
    9.3406   -7.3290    0.0000 C   0  0  0  0  0  0  0  0  0  0  0  0
    7.9884   -7.9783    0.0000 C   0  0  0  0  0  0  0  0  0  0  0  0
    7.8747   -9.4740    0.0000 N   0  0  0  0  0  0  0  0  0  0  0  0
   12.2709   -4.3406    0.0000 C   0  0  0  0  0  0  0  0  0  0  0  0
   12.1163   -5.8326    0.0000 O   0  0  0  0  0  0  0  0  0  0  0  0
   13.7709   -4.3422    0.0000 N   0  0  0  0  0  0  0  0  0  0  0  0
   15.1231   -3.6929    0.0000 C   0  0  0  0  0  0  0  0  0  0  0  0
   16.0596   -2.5211    0.0000 C   0  0  0  0  0  0  0  0  0  0  0  0
   16.3950   -1.0591    0.0000 C   0  0  0  0  0  0  0  0  0  0  0  0
   16.0628    0.4036    0.0000 C   0  0  0  0  0  0  0  0  0  0  0  0
   15.1289    1.5774    0.0000 C   0  0  0  0  0  0  0  0  0  0  0  0
   15.2335   -5.1888    0.0000 C   0  0  0  0  0  0  0  0  0  0  0  0
   16.5560   -4.1366    0.0000 C   0  0  0  0  0  0  0  0  0  0  0  0
   17.7727   -3.2593    0.0000 O   0  0  0  0  0  0  0  0  0  0  0  0
   16.8881   -5.5993    0.0000 N   0  0  0  0  0  0  0  0  0  0  0  0
   18.3210   -6.0430    0.0000 C   0  0  0  0  0  0  0  0  0  0  0  0
   19.8192   -5.9699    0.0000 C   0  0  0  0  0  0  0  0  0  0  0  0
   20.6317   -7.2308    0.0000 C   0  0  0  0  0  0  0  0  0  0  0  0
   22.1299   -7.1577    0.0000 C   0  0  0  0  0  0  0  0  0  0  0  0
   20.9639   -8.6936    0.0000 C   0  0  0  0  0  0  0  0  0  0  0  0
   18.6532   -7.5058    0.0000 C   0  0  0  0  0  0  0  0  0  0  0  0
   20.0213   -8.1208    0.0000 O   0  0  0  0  0  0  0  0  0  0  0  0
   17.5525   -8.5248    0.0000 O   0  0  0  0  0  0  0  0  0  0  0  0
  -15.2961   -4.3707    0.0000 H   0  0  0  0  0  0  0  0  0  0  0  0
  -18.6890   -1.4260    0.0000 H   0  0  0  0  0  0  0  0  0  0  0  0
  -21.5623   -2.2887    0.0000 H   0  0  0  0  0  0  0  0  0  0  0  0
  -16.9783   -6.1079    0.0000 H   0  0  0  0  0  0  0  0  0  0  0  0
  -20.4807  -12.3566    0.0000 H   0  0  0  0  0  0  0  0  0  0  0  0
  -24.9212   -9.6582    0.0000 H   0  0  0  0  0  0  0  0  0  0  0  0
  -23.3632   -7.0944    0.0000 H   0  0  0  0  0  0  0  0  0  0  0  0
  -24.9796  -12.2556    0.0000 H   0  0  0  0  0  0  0  0  0  0  0  0
  -18.8060   -4.5981    0.0000 H   0  0  0  0  0  0  0  0  0  0  0  0
  -15.6563   -4.7700    0.0000 H   0  0  0  0  0  0  0  0  0  0  0  0
  -15.9235   -9.8603    0.0000 H   0  0  0  0  0  0  0  0  0  0  0  0
  -13.6449   -8.6121    0.0000 H   0  0  0  0  0  0  0  0  0  0  0  0
  -13.6320   -2.6202    0.0000 H   0  0  0  0  0  0  0  0  0  0  0  0
  -15.8767   -0.0459    0.0000 H   0  0  0  0  0  0  0  0  0  0  0  0
  -14.7348    1.3253    0.0000 H   0  0  0  0  0  0  0  0  0  0  0  0
  -12.7672   -1.1902    0.0000 H   0  0  0  0  0  0  0  0  0  0  0  0
  -11.4450    0.2135    0.0000 H   0  0  0  0  0  0  0  0  0  0  0  0
  -10.0692    1.1622    0.0000 H   0  0  0  0  0  0  0  0  0  0  0  0
   -9.4386    3.0575    0.0000 H   0  0  0  0  0  0  0  0  0  0  0  0
  -13.6917    4.3295    0.0000 H   0  0  0  0  0  0  0  0  0  0  0  0
  -11.9692    5.1964    0.0000 H   0  0  0  0  0  0  0  0  0  0  0  0
  -13.4819    1.0228    0.0000 H   0  0  0  0  0  0  0  0  0  0  0  0
  -11.9438    1.5739    0.0000 H   0  0  0  0  0  0  0  0  0  0  0  0
  -16.9555    1.4008    0.0000 H   0  0  0  0  0  0  0  0  0  0  0  0
  -15.1588   -0.1807    0.0000 H   0  0  0  0  0  0  0  0  0  0  0  0
   -7.8213    3.4785    0.0000 H   0  0  0  0  0  0  0  0  0  0  0  0
   -6.5805    5.0438    0.0000 H   0  0  0  0  0  0  0  0  0  0  0  0
   -8.2269    7.9192    0.0000 H   0  0  0  0  0  0  0  0  0  0  0  0
  -11.6206    7.4408    0.0000 H   0  0  0  0  0  0  0  0  0  0  0  0
  -11.6745    6.2026    0.0000 H   0  0  0  0  0  0  0  0  0  0  0  0
  -11.0759    4.5147    0.0000 H   0  0  0  0  0  0  0  0  0  0  0  0
   -9.6635    4.3913    0.0000 H   0  0  0  0  0  0  0  0  0  0  0  0
   -4.7365    4.9188    0.0000 H   0  0  0  0  0  0  0  0  0  0  0  0
   -3.2153    5.9328    0.0000 H   0  0  0  0  0  0  0  0  0  0  0  0
   -5.6558    9.6411    0.0000 H   0  0  0  0  0  0  0  0  0  0  0  0
   -3.7791    9.1979    0.0000 H   0  0  0  0  0  0  0  0  0  0  0  0
   -7.1653   10.3582    0.0000 H   0  0  0  0  0  0  0  0  0  0  0  0
  -10.0386    9.4954    0.0000 H   0  0  0  0  0  0  0  0  0  0  0  0
  -10.7699    6.7541    0.0000 H   0  0  0  0  0  0  0  0  0  0  0  0
   -8.7197    4.5717    0.0000 H   0  0  0  0  0  0  0  0  0  0  0  0
   -5.8045    5.2561    0.0000 H   0  0  0  0  0  0  0  0  0  0  0  0
   -1.7058    5.2158    0.0000 H   0  0  0  0  0  0  0  0  0  0  0  0
    0.2509    5.6173    0.0000 H   0  0  0  0  0  0  0  0  0  0  0  0
   -0.7741    9.9366    0.0000 H   0  0  0  0  0  0  0  0  0  0  0  0
    0.8379    8.8783    0.0000 H   0  0  0  0  0  0  0  0  0  0  0  0
   -2.7706    9.8728    0.0000 H   0  0  0  0  0  0  0  0  0  0  0  0
    1.4241    4.4272    0.0000 H   0  0  0  0  0  0  0  0  0  0  0  0
    3.4001    4.1352    0.0000 H   0  0  0  0  0  0  0  0  0  0  0  0
    3.9143    8.5447    0.0000 H   0  0  0  0  0  0  0  0  0  0  0  0
    5.0671    6.9988    0.0000 H   0  0  0  0  0  0  0  0  0  0  0  0
    3.9952    2.7689    0.0000 H   0  0  0  0  0  0  0  0  0  0  0  0
    5.2458    4.3068    0.0000 H   0  0  0  0  0  0  0  0  0  0  0  0
    5.7973    5.5833    0.0000 H   0  0  0  0  0  0  0  0  0  0  0  0
    6.1203    6.3110    0.0000 H   0  0  0  0  0  0  0  0  0  0  0  0
    7.0248    7.1381    0.0000 H   0  0  0  0  0  0  0  0  0  0  0  0
    7.6906    7.5558    0.0000 H   0  0  0  0  0  0  0  0  0  0  0  0
    9.1898    7.9505    0.0000 H   0  0  0  0  0  0  0  0  0  0  0  0
   10.5088    8.1061    0.0000 H   0  0  0  0  0  0  0  0  0  0  0  0
    4.1441    2.0256    0.0000 H   0  0  0  0  0  0  0  0  0  0  0  0
    5.0213    0.4717    0.0000 H   0  0  0  0  0  0  0  0  0  0  0  0
    6.4919    0.6117    0.0000 H   0  0  0  0  0  0  0  0  0  0  0  0
    7.7532   -0.6389    0.0000 H   0  0  0  0  0  0  0  0  0  0  0  0
    8.5210    0.7164    0.0000 H   0  0  0  0  0  0  0  0  0  0  0  0
    9.4497    1.8478    0.0000 H   0  0  0  0  0  0  0  0  0  0  0  0
   10.4568    3.0068    0.0000 H   0  0  0  0  0  0  0  0  0  0  0  0
    9.7487    2.6123    0.0000 H   0  0  0  0  0  0  0  0  0  0  0  0
    9.3943    4.9364    0.0000 H   0  0  0  0  0  0  0  0  0  0  0  0
   13.0344    7.9840    0.0000 H   0  0  0  0  0  0  0  0  0  0  0  0
   15.4072    7.1174    0.0000 H   0  0  0  0  0  0  0  0  0  0  0  0
   16.6678    4.9284    0.0000 H   0  0  0  0  0  0  0  0  0  0  0  0
   16.3084    2.6051    0.0000 H   0  0  0  0  0  0  0  0  0  0  0  0
    8.6341   -3.1638    0.0000 H   0  0  0  0  0  0  0  0  0  0  0  0
    9.4433   -3.9508    0.0000 H   0  0  0  0  0  0  0  0  0  0  0  0
   11.3842   -6.5682    0.0000 H   0  0  0  0  0  0  0  0  0  0  0  0
   12.2529   -5.5811    0.0000 H   0  0  0  0  0  0  0  0  0  0  0  0
    7.9547   -5.7979    0.0000 H   0  0  0  0  0  0  0  0  0  0  0  0
    8.8766   -4.4490    0.0000 H   0  0  0  0  0  0  0  0  0  0  0  0
    9.9183   -8.7132    0.0000 H   0  0  0  0  0  0  0  0  0  0  0  0
   10.8401   -7.3643    0.0000 H   0  0  0  0  0  0  0  0  0  0  0  0
    6.4957   -8.1260    0.0000 H   0  0  0  0  0  0  0  0  0  0  0  0
    7.4107   -6.5940    0.0000 H   0  0  0  0  0  0  0  0  0  0  0  0
    6.5225  -10.1233    0.0000 H   0  0  0  0  0  0  0  0  0  0  0  0
    8.2793  -10.9184    0.0000 H   0  0  0  0  0  0  0  0  0  0  0  0
    9.3742   -9.5093    0.0000 H   0  0  0  0  0  0  0  0  0  0  0  0
   13.9223   -5.8345    0.0000 H   0  0  0  0  0  0  0  0  0  0  0  0
   17.5431   -2.2992    0.0000 H   0  0  0  0  0  0  0  0  0  0  0  0
   17.1005   -3.6012    0.0000 H   0  0  0  0  0  0  0  0  0  0  0  0
   17.7289   -0.3730    0.0000 H   0  0  0  0  0  0  0  0  0  0  0  0
   17.7274   -1.7482    0.0000 H   0  0  0  0  0  0  0  0  0  0  0  0
   16.8142    1.7019    0.0000 H   0  0  0  0  0  0  0  0  0  0  0  0
   17.5622    0.3609    0.0000 H   0  0  0  0  0  0  0  0  0  0  0  0
   16.2012    2.6262    0.0000 H   0  0  0  0  0  0  0  0  0  0  0  0
   16.3863   -6.1485    0.0000 H   0  0  0  0  0  0  0  0  0  0  0  0
   14.8257   -6.6323    0.0000 H   0  0  0  0  0  0  0  0  0  0  0  0
   13.7862   -5.5828    0.0000 H   0  0  0  0  0  0  0  0  0  0  0  0
   15.7875   -6.6184    0.0000 H   0  0  0  0  0  0  0  0  0  0  0  0
   18.5092   -4.5549    0.0000 H   0  0  0  0  0  0  0  0  0  0  0  0
   21.1209   -5.2245    0.0000 H   0  0  0  0  0  0  0  0  0  0  0  0
   19.4871   -4.5071    0.0000 H   0  0  0  0  0  0  0  0  0  0  0  0
   19.5490   -8.2690    0.0000 H   0  0  0  0  0  0  0  0  0  0  0  0
   23.0900   -8.3102    0.0000 H   0  0  0  0  0  0  0  0  0  0  0  0
   23.5127   -6.5766    0.0000 H   0  0  0  0  0  0  0  0  0  0  0  0
   21.9785   -5.6654    0.0000 H   0  0  0  0  0  0  0  0  0  0  0  0
   22.3320   -9.3086    0.0000 H   0  0  0  0  0  0  0  0  0  0  0  0
   20.7757  -10.1817    0.0000 H   0  0  0  0  0  0  0  0  0  0  0  0
   19.4656   -8.7667    0.0000 H   0  0  0  0  0  0  0  0  0  0  0  0
  1  2  1  0
  2  3  1  0
  3  4  2  0
  4  5  1  0
  5  6  2  0
  6  7  1  0
  7  8  2  0
  7  9  1  0
  9 10  1  0
 10 11  1  0
 11 12  2  0
  9 13  1  0
 13 14  1  0
 14 15  2  0
 15 16  1  0
 16 17  2  0
 17 18  1  0
 16 19  1  0
 14 20  1  0
 20 21  1  0
 21 22  2  0
 22 23  1  0
 23 24  2  0
 24 25  1  0
 25 26  2  0
 25 27  1  0
  1 28  2  0
  1 29  1  0
 29 30  1  0
 30 31  1  0
 31 32  1  0
 32 33  2  0
 32 34  1  0
 34 35  1  0
 35 36  1  0
 36 37  1  0
 37 38  1  0
 38 39  1  0
 38 40  2  0
 35 41  1  0
 41 42  2  0
 41 43  1  0
 43 44  1  0
 44 45  1  0
 45 46  1  0
 45 47  1  0
 44 48  1  0
 48 49  2  0
 48 50  1  0
 50 51  1  0
 51 52  1  0
 52 53  1  0
 53 54  2  0
 54 55  1  0
 55 56  2  0
 56 57  1  0
 57 58  2  0
 51 59  1  0
 59 60  2  0
 59 61  1  0
 61 62  1  0
 62 63  1  0
 63 64  1  0
 62 65  1  0
 65 66  2  0
 65 67  1  0
 67 68  1  0
 68 69  1  0
 69 70  1  0
 70 71  2  0
 70 72  1  0
 68 73  1  0
 73 74  2  0
 73 75  1  0
 76 75  1  6
 76 77  1  0
 77 78  1  0
 78 79  1  0
 79 80  1  0
 76 81  1  0
 76 82  1  0
 82 83  2  0
 82 84  1  0
 84 85  1  0
 85 86  1  0
 86 87  1  0
 87 88  2  0
 88 89  1  0
 89 90  1  0
 90 91  1  0
 91 92  2  0
 92 93  1  0
 93 94  2  0
 94 95  1  0
 85 96  1  0
 96 97  2  0
 96 98  1  0
 98 99  1  0
 99100  1  0
100101  1  0
101102  1  0
102103  1  0
103104  1  0
 99105  1  0
105106  2  0
105107  1  0
107108  1  0
108109  1  0
109110  1  0
110111  1  0
111112  1  0
108113  1  0
108114  1  1
114115  2  0
114116  1  0
116117  1  0
117118  1  0
118119  1  0
119120  1  0
119121  1  0
117122  1  0
122123  2  0
122124  1  0
  8  3  1  0
 58 53  1  0
 95 87  1  0
 11  6  1  0
 80 90  2  0
112 95  2  0
 18 13  2  0
 22  9  1  0
 26 21  1  0
  2125  1  0
  4126  1  0
  5127  1  0
  8128  1  0
 15129  1  0
 17130  1  0
 18131  1  0
 19132  1  0
 23133  1  0
 24134  1  0
 26135  1  0
 27136  1  0
 29137  1  0
 30138  1  0
 30139  1  0
 31140  1  0
 31141  1  0
 34142  1  0
 35143  1  1
 36144  1  0
 36145  1  0
 37146  1  0
 37147  1  0
 39148  1  0
 39149  1  0
 43150  1  0
 44151  1  1
 45152  1  6
 46153  1  0
 47154  1  0
 47155  1  0
 47156  1  0
 50157  1  0
 51158  1  1
 52159  1  0
 52160  1  0
 54161  1  0
 55162  1  0
 56163  1  0
 57164  1  0
 58165  1  0
 61166  1  0
 62167  1  1
 63168  1  0
 63169  1  0
 64170  1  0
 67171  1  0
 68172  1  1
 69173  1  0
 69174  1  0
 75175  1  0
 77176  1  0
 77177  1  0
 78178  1  0
 78179  1  0
 79180  1  0
 79181  1  0
 80182  1  0
 81183  1  0
 81184  1  0
 81185  1  0
 84186  1  0
 85187  1  1
 86188  1  0
 86189  1  0
 88190  1  0
 89191  1  0
 91192  1  0
 92193  1  0
 93194  1  0
 94195  1  0
 98196  1  0
 99197  1  6
100198  1  0
100199  1  0
101200  1  0
101201  1  0
102202  1  0
102203  1  0
103204  1  0
103205  1  0
104206  1  0
104207  1  0
104208  1  0
107209  1  0
109210  1  0
109211  1  0
110212  1  0
110213  1  0
111214  1  0
111215  1  0
112216  1  0
113217  1  0
113218  1  0
113219  1  0
116220  1  0
117221  1  1
118222  1  0
118223  1  0
119224  1  0
120225  1  0
120226  1  0
120227  1  0
121228  1  0
121229  1  0
121230  1  0
M  CHG  3  72  -1 104   1 124  -1
M  END
