
     RDKit          2D

289297  0  0  0  0  0  0  0  0999 V2000
   24.3639   -2.4724    0.0000 C   0  0  0  0  0  0  0  0  0  0  0  0
   25.7569   -1.9159    0.0000 N   0  0  0  0  0  0  0  0  0  0  0  0
   26.9353   -2.8439    0.0000 C   0  0  0  0  0  0  0  0  0  0  0  0
   26.7209   -4.3285    0.0000 C   0  0  0  0  0  0  0  0  0  0  0  0
   27.8994   -5.2565    0.0000 C   0  0  0  0  0  0  0  0  0  0  0  0
   29.2923   -4.6999    0.0000 C   0  0  0  0  0  0  0  0  0  0  0  0
   29.5067   -3.2153    0.0000 C   0  0  0  0  0  0  0  0  0  0  0  0
   28.3283   -2.2873    0.0000 C   0  0  0  0  0  0  0  0  0  0  0  0
   30.9849   -2.9605    0.0000 C   0  0  0  0  0  0  0  0  0  0  0  0
   31.6841   -4.2876    0.0000 O   0  0  0  0  0  0  0  0  0  0  0  0
   30.6380   -5.3626    0.0000 C   0  0  0  0  0  0  0  0  0  0  0  0
   30.8928   -6.8408    0.0000 O   0  0  0  0  0  0  0  0  0  0  0  0
   32.4817   -2.8615    0.0000 C   0  0  0  0  0  0  0  0  0  0  0  0
   33.1444   -1.5159    0.0000 C   0  0  0  0  0  0  0  0  0  0  0  0
   34.6411   -1.4170    0.0000 C   0  0  0  0  0  0  0  0  0  0  0  0
   35.4751   -2.6637    0.0000 C   0  0  0  0  0  0  0  0  0  0  0  0
   34.8124   -4.0094    0.0000 C   0  0  0  0  0  0  0  0  0  0  0  0
   33.3157   -4.1083    0.0000 C   0  0  0  0  0  0  0  0  0  0  0  0
   36.9719   -2.5648    0.0000 O   0  0  0  0  0  0  0  0  0  0  0  0
   32.3103   -0.2691    0.0000 O   0  0  0  0  0  0  0  0  0  0  0  0
   30.8136   -0.3680    0.0000 C   0  0  0  0  0  0  0  0  0  0  0  0
   30.1509   -1.7137    0.0000 C   0  0  0  0  0  0  0  0  0  0  0  0
   28.9634   -1.1846    0.0000 C   0  0  0  0  0  0  0  0  0  0  0  0
   28.5186   -0.5197    0.0000 C   0  0  0  0  0  0  0  0  0  0  0  0
   28.8721    0.1980    0.0000 C   0  0  0  0  0  0  0  0  0  0  0  0
   29.6703    0.2507    0.0000 C   0  0  0  0  0  0  0  0  0  0  0  0
   27.6488    2.0266    0.0000 O   0  0  0  0  0  0  0  0  0  0  0  0
   24.1495   -3.9570    0.0000 S   0  0  0  0  0  0  0  0  0  0  0  0
   23.1855   -1.5444    0.0000 N   0  0  0  0  0  0  0  0  0  0  0  0
   21.7926   -2.1010    0.0000 C   0  0  0  0  0  0  0  0  0  0  0  0
   20.6141   -1.1730    0.0000 C   0  0  0  0  0  0  0  0  0  0  0  0
   19.2212   -1.7296    0.0000 C   0  0  0  0  0  0  0  0  0  0  0  0
   19.0067   -3.2142    0.0000 O   0  0  0  0  0  0  0  0  0  0  0  0
   18.0427   -0.8016    0.0000 N   0  0  0  0  0  0  0  0  0  0  0  0
   16.6498   -1.3582    0.0000 C   0  0  0  0  0  0  0  0  0  0  0  0
   15.5312   -2.3576    0.0000 C   0  0  0  0  0  0  0  0  0  0  0  0
   14.1064   -1.8886    0.0000 C   0  0  0  0  0  0  0  0  0  0  0  0
   12.9879   -2.8881    0.0000 O   0  0  0  0  0  0  0  0  0  0  0  0
   13.4540   -0.5380    0.0000 O   0  0  0  0  0  0  0  0  0  0  0  0
   15.4713   -0.4302    0.0000 C   0  0  0  0  0  0  0  0  0  0  0  0
   15.6857    1.0544    0.0000 O   0  0  0  0  0  0  0  0  0  0  0  0
   14.0784   -0.9868    0.0000 N   0  0  0  0  0  0  0  0  0  0  0  0
   12.8999   -0.0588    0.0000 C   0  0  0  0  0  0  0  0  0  0  0  0
   12.1099    1.2163    0.0000 C   0  0  0  0  0  0  0  0  0  0  0  0
   10.6106    1.1697    0.0000 C   0  0  0  0  0  0  0  0  0  0  0  0
    9.7671   -0.0706    0.0000 C   0  0  0  0  0  0  0  0  0  0  0  0
    8.3268    0.3483    0.0000 N   0  0  0  0  0  0  0  0  0  0  0  0
    8.2802    1.8476    0.0000 C   0  0  0  0  0  0  0  0  0  0  0  0
    9.6917    2.3553    0.0000 N   0  0  0  0  0  0  0  0  0  0  0  0
   11.5070   -0.6154    0.0000 C   0  0  0  0  0  0  0  0  0  0  0  0
   11.2926   -2.1000    0.0000 O   0  0  0  0  0  0  0  0  0  0  0  0
   10.3285    0.3126    0.0000 N   0  0  0  0  0  0  0  0  0  0  0  0
    8.9356   -0.2439    0.0000 C   0  0  0  0  0  0  0  0  0  0  0  0
    7.8171   -1.2434    0.0000 C   0  0  0  0  0  0  0  0  0  0  0  0
    6.3211   -1.1331    0.0000 C   0  0  0  0  0  0  0  0  0  0  0  0
    7.1078   -2.5651    0.0000 C   0  0  0  0  0  0  0  0  0  0  0  0
    7.8978   -3.8402    0.0000 C   0  0  0  0  0  0  0  0  0  0  0  0
    7.7571    0.6841    0.0000 C   0  0  0  0  0  0  0  0  0  0  0  0
    7.6060    2.1764    0.0000 O   0  0  0  0  0  0  0  0  0  0  0  0
    6.3642    0.1275    0.0000 N   0  0  0  0  0  0  0  0  0  0  0  0
    5.1857    1.0555    0.0000 C   0  0  0  0  0  0  0  0  0  0  0  0
    4.3957    2.3306    0.0000 C   0  0  0  0  0  0  0  0  0  0  0  0
    2.8965    2.2840    0.0000 C   0  0  0  0  0  0  0  0  0  0  0  0
    2.1064    3.5591    0.0000 C   0  0  0  0  0  0  0  0  0  0  0  0
    0.6072    3.5125    0.0000 C   0  0  0  0  0  0  0  0  0  0  0  0
   -0.4679    4.5585    0.0000 N   0  0  0  0  0  0  0  0  0  0  0  0
    3.7928    0.4989    0.0000 C   0  0  0  0  0  0  0  0  0  0  0  0
    3.7610   -1.0008    0.0000 O   0  0  0  0  0  0  0  0  0  0  0  0
    2.6143    1.4269    0.0000 N   0  0  0  0  0  0  0  0  0  0  0  0
    1.2214    0.8703    0.0000 C   0  0  0  0  0  0  0  0  0  0  0  0
    0.7171   -0.5424    0.0000 C   0  0  0  0  0  0  0  0  0  0  0  0
   -0.1813   -1.7436    0.0000 C   0  0  0  0  0  0  0  0  0  0  0  0
   -1.3938   -2.6267    0.0000 C   0  0  0  0  0  0  0  0  0  0  0  0
   -2.8127   -3.1132    0.0000 C   0  0  0  0  0  0  0  0  0  0  0  0
    2.4205   -0.0310    0.0000 C   0  0  0  0  0  0  0  0  0  0  0  0
    1.2870    2.3689    0.0000 C   0  0  0  0  0  0  0  0  0  0  0  0
    2.6227    3.0515    0.0000 O   0  0  0  0  0  0  0  0  0  0  0  0
    0.9079    3.8202    0.0000 N   0  0  0  0  0  0  0  0  0  0  0  0
    0.1179    5.0953    0.0000 C   0  0  0  0  0  0  0  0  0  0  0  0
    0.5512    6.5313    0.0000 C   0  0  0  0  0  0  0  0  0  0  0  0
    2.0115    6.8741    0.0000 O   0  0  0  0  0  0  0  0  0  0  0  0
   -1.0128    6.0809    0.0000 C   0  0  0  0  0  0  0  0  0  0  0  0
   -0.2068    7.3459    0.0000 O   0  0  0  0  0  0  0  0  0  0  0  0
   -2.3839    6.6894    0.0000 N   0  0  0  0  0  0  0  0  0  0  0  0
   -3.8733    6.8668    0.0000 C   0  0  0  0  0  0  0  0  0  0  0  0
   -4.7259    8.1009    0.0000 C   0  0  0  0  0  0  0  0  0  0  0  0
   -4.0834    9.4563    0.0000 C   0  0  0  0  0  0  0  0  0  0  0  0
   -2.5883    9.5776    0.0000 C   0  0  0  0  0  0  0  0  0  0  0  0
   -1.9458   10.9330    0.0000 C   0  0  0  0  0  0  0  0  0  0  0  0
   -2.7984   12.1672    0.0000 C   0  0  0  0  0  0  0  0  0  0  0  0
   -4.2935   12.0459    0.0000 C   0  0  0  0  0  0  0  0  0  0  0  0
   -4.9360   10.6905    0.0000 C   0  0  0  0  0  0  0  0  0  0  0  0
   -5.3489    6.5972    0.0000 C   0  0  0  0  0  0  0  0  0  0  0  0
   -5.8354    8.0161    0.0000 O   0  0  0  0  0  0  0  0  0  0  0  0
   -6.6795    5.9047    0.0000 N   0  0  0  0  0  0  0  0  0  0  0  0
   -7.7468    4.8508    0.0000 C   0  0  0  0  0  0  0  0  0  0  0  0
   -9.2433    4.9536    0.0000 C   0  0  0  0  0  0  0  0  0  0  0  0
   -9.9024    6.3011    0.0000 C   0  0  0  0  0  0  0  0  0  0  0  0
  -11.3799    6.5598    0.0000 C   0  0  0  0  0  0  0  0  0  0  0  0
  -11.5904    8.0450    0.0000 N   0  0  0  0  0  0  0  0  0  0  0  0
  -10.2430    8.7041    0.0000 C   0  0  0  0  0  0  0  0  0  0  0  0
   -9.1998    7.6263    0.0000 N   0  0  0  0  0  0  0  0  0  0  0  0
   -8.4561    3.5290    0.0000 C   0  0  0  0  0  0  0  0  0  0  0  0
   -9.8688    4.0334    0.0000 O   0  0  0  0  0  0  0  0  0  0  0  0
   -8.7443    2.0570    0.0000 N   0  0  0  0  0  0  0  0  0  0  0  0
   -8.5858    0.5654    0.0000 C   0  0  0  0  0  0  0  0  0  0  0  0
   -7.9946   -0.8132    0.0000 C   0  0  0  0  0  0  0  0  0  0  0  0
   -7.0234   -1.9563    0.0000 C   0  0  0  0  0  0  0  0  0  0  0  0
   -5.7584   -2.7624    0.0000 C   0  0  0  0  0  0  0  0  0  0  0  0
   -4.3120   -3.1598    0.0000 C   0  0  0  0  0  0  0  0  0  0  0  0
  -10.0106    1.0344    0.0000 C   0  0  0  0  0  0  0  0  0  0  0  0
   -9.5992   -0.5405    0.0000 C   0  0  0  0  0  0  0  0  0  0  0  0
   -9.5079   -2.0377    0.0000 O   0  0  0  0  0  0  0  0  0  0  0  0
  -11.0636   -0.2157    0.0000 N   0  0  0  0  0  0  0  0  0  0  0  0
  -12.0771   -1.3215    0.0000 C   0  0  0  0  0  0  0  0  0  0  0  0
  -12.6513   -2.7073    0.0000 C   0  0  0  0  0  0  0  0  0  0  0  0
  -14.1385   -2.9029    0.0000 C   0  0  0  0  0  0  0  0  0  0  0  0
  -14.7126   -4.2887    0.0000 C   0  0  0  0  0  0  0  0  0  0  0  0
  -15.6029   -2.5782    0.0000 C   0  0  0  0  0  0  0  0  0  0  0  0
  -13.5415   -0.9967    0.0000 C   0  0  0  0  0  0  0  0  0  0  0  0
  -13.9925    0.4339    0.0000 O   0  0  0  0  0  0  0  0  0  0  0  0
  -14.5550   -2.1026    0.0000 N   0  0  0  0  0  0  0  0  0  0  0  0
  -16.0194   -1.7778    0.0000 C   0  0  0  0  0  0  0  0  0  0  0  0
  -17.2845   -0.9717    0.0000 C   0  0  0  0  0  0  0  0  0  0  0  0
  -17.2189    0.5269    0.0000 C   0  0  0  0  0  0  0  0  0  0  0  0
  -18.4839    1.3329    0.0000 C   0  0  0  0  0  0  0  0  0  0  0  0
  -18.4184    2.8315    0.0000 N   0  0  0  0  0  0  0  0  0  0  0  0
  -19.6834    3.6375    0.0000 C   0  0  0  0  0  0  0  0  0  0  0  0
  -19.6178    5.1361    0.0000 N   0  0  0  0  0  0  0  0  0  0  0  0
  -21.0140    2.9450    0.0000 N   0  0  0  0  0  0  0  0  0  0  0  0
  -17.0329   -2.8836    0.0000 C   0  0  0  0  0  0  0  0  0  0  0  0
  -16.7597   -4.3585    0.0000 O   0  0  0  0  0  0  0  0  0  0  0  0
  -18.4973   -2.5588    0.0000 N   0  0  0  0  0  0  0  0  0  0  0  0
  -19.5108   -3.6647    0.0000 C   0  0  0  0  0  0  0  0  0  0  0  0
  -20.0850   -5.0504    0.0000 C   0  0  0  0  0  0  0  0  0  0  0  0
  -21.5721   -5.2461    0.0000 C   0  0  0  0  0  0  0  0  0  0  0  0
  -22.1463   -6.6319    0.0000 O   0  0  0  0  0  0  0  0  0  0  0  0
  -22.7460   -4.3123    0.0000 O   0  0  0  0  0  0  0  0  0  0  0  0
  -20.9752   -3.3399    0.0000 C   0  0  0  0  0  0  0  0  0  0  0  0
  -21.4262   -1.9093    0.0000 O   0  0  0  0  0  0  0  0  0  0  0  0
  -21.9887   -4.4457    0.0000 N   0  0  0  0  0  0  0  0  0  0  0  0
  -23.4531   -4.1209    0.0000 C   0  0  0  0  0  0  0  0  0  0  0  0
  -24.7181   -3.3149    0.0000 C   0  0  0  0  0  0  0  0  0  0  0  0
  -26.2085   -3.4844    0.0000 O   0  0  0  0  0  0  0  0  0  0  0  0
  -24.4666   -5.2267    0.0000 C   0  0  0  0  0  0  0  0  0  0  0  0
  -24.0157   -6.6574    0.0000 O   0  0  0  0  0  0  0  0  0  0  0  0
  -25.9310   -4.9020    0.0000 N   0  0  0  0  0  0  0  0  0  0  0  0
  -26.9445   -6.0078    0.0000 C   0  0  0  0  0  0  0  0  0  0  0  0
  -27.5186   -7.3936    0.0000 C   0  0  0  0  0  0  0  0  0  0  0  0
  -29.0058   -7.5892    0.0000 C   0  0  0  0  0  0  0  0  0  0  0  0
  -28.4089   -5.6830    0.0000 C   0  0  0  0  0  0  0  0  0  0  0  0
  -29.5496   -6.6571    0.0000 O   0  0  0  0  0  0  0  0  0  0  0  0
  -28.8599   -4.2524    0.0000 O   0  0  0  0  0  0  0  0  0  0  0  0
   25.7887   -0.4162    0.0000 H   0  0  0  0  0  0  0  0  0  0  0  0
   25.3280   -4.8850    0.0000 H   0  0  0  0  0  0  0  0  0  0  0  0
   27.6849   -6.7411    0.0000 H   0  0  0  0  0  0  0  0  0  0  0  0
   28.1771   -0.7949    0.0000 H   0  0  0  0  0  0  0  0  0  0  0  0
   35.3038   -0.0713    0.0000 H   0  0  0  0  0  0  0  0  0  0  0  0
   35.6465   -5.2561    0.0000 H   0  0  0  0  0  0  0  0  0  0  0  0
   32.6530   -5.4540    0.0000 H   0  0  0  0  0  0  0  0  0  0  0  0
   37.8059   -3.8116    0.0000 H   0  0  0  0  0  0  0  0  0  0  0  0
   27.9915   -3.1583    0.0000 H   0  0  0  0  0  0  0  0  0  0  0  0
   26.3225   -0.4816    0.0000 H   0  0  0  0  0  0  0  0  0  0  0  0
   30.6423    2.2244    0.0000 H   0  0  0  0  0  0  0  0  0  0  0  0
   28.3115    3.3722    0.0000 H   0  0  0  0  0  0  0  0  0  0  0  0
   23.3999   -0.0598    0.0000 H   0  0  0  0  0  0  0  0  0  0  0  0
   20.6740   -3.1005    0.0000 H   0  0  0  0  0  0  0  0  0  0  0  0
   22.5826   -3.3761    0.0000 H   0  0  0  0  0  0  0  0  0  0  0  0
   19.8241    0.1021    0.0000 H   0  0  0  0  0  0  0  0  0  0  0  0
   21.7326   -0.1736    0.0000 H   0  0  0  0  0  0  0  0  0  0  0  0
   18.2571    0.6830    0.0000 H   0  0  0  0  0  0  0  0  0  0  0  0
   17.4398   -2.6333    0.0000 H   0  0  0  0  0  0  0  0  0  0  0  0
   14.8220   -3.6793    0.0000 H   0  0  0  0  0  0  0  0  0  0  0  0
   16.7097   -3.2856    0.0000 H   0  0  0  0  0  0  0  0  0  0  0  0
   12.5494    0.2923    0.0000 H   0  0  0  0  0  0  0  0  0  0  0  0
   13.5111   -2.3754    0.0000 H   0  0  0  0  0  0  0  0  0  0  0  0
   14.0185    0.9407    0.0000 H   0  0  0  0  0  0  0  0  0  0  0  0
   11.8036    2.6847    0.0000 H   0  0  0  0  0  0  0  0  0  0  0  0
   13.5028    1.7729    0.0000 H   0  0  0  0  0  0  0  0  0  0  0  0
   10.4430   -1.4097    0.0000 H   0  0  0  0  0  0  0  0  0  0  0  0
    7.0381   -0.4193    0.0000 H   0  0  0  0  0  0  0  0  0  0  0  0
    7.0398    2.6912    0.0000 H   0  0  0  0  0  0  0  0  0  0  0  0
   10.1774    1.8050    0.0000 H   0  0  0  0  0  0  0  0  0  0  0  0
    9.5643   -1.6058    0.0000 H   0  0  0  0  0  0  0  0  0  0  0  0
    9.0999   -2.0208    0.0000 H   0  0  0  0  0  0  0  0  0  0  0  0
    5.1815   -1.6370    0.0000 H   0  0  0  0  0  0  0  0  0  0  0  0
    5.2138    0.1536    0.0000 H   0  0  0  0  0  0  0  0  0  0  0  0
    6.3092    0.7267    0.0000 H   0  0  0  0  0  0  0  0  0  0  0  0
    5.9892   -3.5645    0.0000 H   0  0  0  0  0  0  0  0  0  0  0  0
    5.7398   -1.9498    0.0000 H   0  0  0  0  0  0  0  0  0  0  0  0
    7.1885   -5.1619    0.0000 H   0  0  0  0  0  0  0  0  0  0  0  0
    9.0763   -4.7682    0.0000 H   0  0  0  0  0  0  0  0  0  0  0  0
    9.1298   -2.9846    0.0000 H   0  0  0  0  0  0  0  0  0  0  0  0
    5.7969   -1.2611    0.0000 H   0  0  0  0  0  0  0  0  0  0  0  0
    6.3043    2.0549    0.0000 H   0  0  0  0  0  0  0  0  0  0  0  0
    4.2708    3.8254    0.0000 H   0  0  0  0  0  0  0  0  0  0  0  0
    5.7886    2.8872    0.0000 H   0  0  0  0  0  0  0  0  0  0  0  0
    1.4461    1.9013    0.0000 H   0  0  0  0  0  0  0  0  0  0  0  0
    2.6560    0.8034    0.0000 H   0  0  0  0  0  0  0  0  0  0  0  0
    2.1646    5.0579    0.0000 H   0  0  0  0  0  0  0  0  0  0  0  0
    3.4211    4.2813    0.0000 H   0  0  0  0  0  0  0  0  0  0  0  0
   -0.7857    2.9559    0.0000 H   0  0  0  0  0  0  0  0  0  0  0  0
    0.3667    2.0318    0.0000 H   0  0  0  0  0  0  0  0  0  0  0  0
   -1.6821    4.7409    0.0000 H   0  0  0  0  0  0  0  0  0  0  0  0
    0.1216    6.3038    0.0000 H   0  0  0  0  0  0  0  0  0  0  0  0
    2.6462    2.9266    0.0000 H   0  0  0  0  0  0  0  0  0  0  0  0
    2.2158   -0.6042    0.0000 H   0  0  0  0  0  0  0  0  0  0  0  0
    1.4425   -1.8553    0.0000 H   0  0  0  0  0  0  0  0  0  0  0  0
    1.1611   -2.4131    0.0000 H   0  0  0  0  0  0  0  0  0  0  0  0
    0.3017   -3.1637    0.0000 H   0  0  0  0  0  0  0  0  0  0  0  0
   -0.1903   -3.5221    0.0000 H   0  0  0  0  0  0  0  0  0  0  0  0
   -1.5339   -4.1201    0.0000 H   0  0  0  0  0  0  0  0  0  0  0  0
   -2.5431   -4.5887    0.0000 H   0  0  0  0  0  0  0  0  0  0  0  0
    2.3408   -1.6950    0.0000 H   0  0  0  0  0  0  0  0  0  0  0  0
    3.5722   -0.9260    0.0000 H   0  0  0  0  0  0  0  0  0  0  0  0
    3.4874    0.7431    0.0000 H   0  0  0  0  0  0  0  0  0  0  0  0
    2.2042    4.5750    0.0000 H   0  0  0  0  0  0  0  0  0  0  0  0
    1.5702    5.4708    0.0000 H   0  0  0  0  0  0  0  0  0  0  0  0
    0.4672    8.0290    0.0000 H   0  0  0  0  0  0  0  0  0  0  0  0
   -0.8511    7.0638    0.0000 H   0  0  0  0  0  0  0  0  0  0  0  0
    2.4448    8.3102    0.0000 H   0  0  0  0  0  0  0  0  0  0  0  0
   -1.8131    8.0766    0.0000 H   0  0  0  0  0  0  0  0  0  0  0  0
   -3.0991    8.1515    0.0000 H   0  0  0  0  0  0  0  0  0  0  0  0
   -5.9492    8.9690    0.0000 H   0  0  0  0  0  0  0  0  0  0  0  0
   -6.0166    7.3365    0.0000 H   0  0  0  0  0  0  0  0  0  0  0  0
   -1.5917    8.4566    0.0000 H   0  0  0  0  0  0  0  0  0  0  0  0
   -0.4508   11.0543    0.0000 H   0  0  0  0  0  0  0  0  0  0  0  0
   -2.1559   13.5226    0.0000 H   0  0  0  0  0  0  0  0  0  0  0  0
   -5.1461   13.2800    0.0000 H   0  0  0  0  0  0  0  0  0  0  0  0
   -6.4311   10.5692    0.0000 H   0  0  0  0  0  0  0  0  0  0  0  0
   -7.5626    7.1172    0.0000 H   0  0  0  0  0  0  0  0  0  0  0  0
   -8.2685    6.2571    0.0000 H   0  0  0  0  0  0  0  0  0  0  0  0
  -10.6847    4.5385    0.0000 H   0  0  0  0  0  0  0  0  0  0  0  0
   -9.4504    3.4680    0.0000 H   0  0  0  0  0  0  0  0  0  0  0  0
  -12.4577    5.5166    0.0000 H   0  0  0  0  0  0  0  0  0  0  0  0
  -12.9157    8.7477    0.0000 H   0  0  0  0  0  0  0  0  0  0  0  0
   -9.9843   10.1816    0.0000 H   0  0  0  0  0  0  0  0  0  0  0  0
  -10.2428    2.1225    0.0000 H   0  0  0  0  0  0  0  0  0  0  0  0
   -8.6371   -2.1687    0.0000 H   0  0  0  0  0  0  0  0  0  0  0  0
   -9.4566   -1.1488    0.0000 H   0  0  0  0  0  0  0  0  0  0  0  0
   -7.4172   -3.4037    0.0000 H   0  0  0  0  0  0  0  0  0  0  0  0
   -8.3215   -2.7079    0.0000 H   0  0  0  0  0  0  0  0  0  0  0  0
   -5.5257   -4.2442    0.0000 H   0  0  0  0  0  0  0  0  0  0  0  0
   -6.9039   -3.7308    0.0000 H   0  0  0  0  0  0  0  0  0  0  0  0
   -4.4893   -4.6493    0.0000 H   0  0  0  0  0  0  0  0  0  0  0  0
  -11.3377    0.3353    0.0000 H   0  0  0  0  0  0  0  0  0  0  0  0
  -11.0671    2.0991    0.0000 H   0  0  0  0  0  0  0  0  0  0  0  0
   -9.6422    2.4884    0.0000 H   0  0  0  0  0  0  0  0  0  0  0  0
  -11.6856    1.1493    0.0000 H   0  0  0  0  0  0  0  0  0  0  0  0
  -10.8121   -2.1276    0.0000 H   0  0  0  0  0  0  0  0  0  0  0  0
  -12.5337   -4.2027    0.0000 H   0  0  0  0  0  0  0  0  0  0  0  0
  -11.1869   -3.0321    0.0000 H   0  0  0  0  0  0  0  0  0  0  0  0
  -14.7843   -1.5491    0.0000 H   0  0  0  0  0  0  0  0  0  0  0  0
  -16.1082   -4.8384    0.0000 H   0  0  0  0  0  0  0  0  0  0  0  0
  -14.7781   -5.7873    0.0000 H   0  0  0  0  0  0  0  0  0  0  0  0
  -13.2987   -4.7896    0.0000 H   0  0  0  0  0  0  0  0  0  0  0  0
  -16.3866   -1.2992    0.0000 H   0  0  0  0  0  0  0  0  0  0  0  0
  -16.9211   -3.2939    0.0000 H   0  0  0  0  0  0  0  0  0  0  0  0
  -15.8506   -4.0576    0.0000 H   0  0  0  0  0  0  0  0  0  0  0  0
  -14.4637   -3.5998    0.0000 H   0  0  0  0  0  0  0  0  0  0  0  0
  -15.2807   -0.4723    0.0000 H   0  0  0  0  0  0  0  0  0  0  0  0
  -18.7489   -0.6469    0.0000 H   0  0  0  0  0  0  0  0  0  0  0  0
  -18.3172   -2.0596    0.0000 H   0  0  0  0  0  0  0  0  0  0  0  0
  -16.6448    1.9126    0.0000 H   0  0  0  0  0  0  0  0  0  0  0  0
  -15.7258    0.3830    0.0000 H   0  0  0  0  0  0  0  0  0  0  0  0
  -19.9483    1.6577    0.0000 H   0  0  0  0  0  0  0  0  0  0  0  0
  -19.2227    0.0275    0.0000 H   0  0  0  0  0  0  0  0  0  0  0  0
  -17.0878    3.5240    0.0000 H   0  0  0  0  0  0  0  0  0  0  0  0
  -20.8829    5.9422    0.0000 H   0  0  0  0  0  0  0  0  0  0  0  0
  -22.2790    3.7511    0.0000 H   0  0  0  0  0  0  0  0  0  0  0  0
  -21.0795    1.4464    0.0000 H   0  0  0  0  0  0  0  0  0  0  0  0
  -19.1193   -1.1938    0.0000 H   0  0  0  0  0  0  0  0  0  0  0  0
  -18.2458   -4.4707    0.0000 H   0  0  0  0  0  0  0  0  0  0  0  0
  -20.1505   -6.5490    0.0000 H   0  0  0  0  0  0  0  0  0  0  0  0
  -18.6205   -5.3752    0.0000 H   0  0  0  0  0  0  0  0  0  0  0  0
  -23.9212   -3.9567    0.0000 H   0  0  0  0  0  0  0  0  0  0  0  0
  -21.8973   -5.9429    0.0000 H   0  0  0  0  0  0  0  0  0  0  0  0
  -22.8790   -2.7351    0.0000 H   0  0  0  0  0  0  0  0  0  0  0  0
  -25.6312   -2.1248    0.0000 H   0  0  0  0  0  0  0  0  0  0  0  0
  -23.7047   -2.2090    0.0000 H   0  0  0  0  0  0  0  0  0  0  0  0
  -27.3137   -3.2013    0.0000 H   0  0  0  0  0  0  0  0  0  0  0  0
  -26.5530   -3.5370    0.0000 H   0  0  0  0  0  0  0  0  0  0  0  0
  -25.6795   -6.8139    0.0000 H   0  0  0  0  0  0  0  0  0  0  0  0
  -27.5842   -8.8921    0.0000 H   0  0  0  0  0  0  0  0  0  0  0  0
  -26.0542   -7.7184    0.0000 H   0  0  0  0  0  0  0  0  0  0  0  0
  -29.5800   -8.9750    0.0000 H   0  0  0  0  0  0  0  0  0  0  0  0
  -30.4702   -7.2645    0.0000 H   0  0  0  0  0  0  0  0  0  0  0  0
  -29.4818   -6.1667    0.0000 H   0  0  0  0  0  0  0  0  0  0  0  0
  -30.3243   -3.9276    0.0000 H   0  0  0  0  0  0  0  0  0  0  0  0
  1  2  1  0
  2  3  1  0
  3  4  2  0
  4  5  1  0
  5  6  2  0
  6  7  1  0
  7  8  2  0
  7  9  1  0
  9 10  1  0
 10 11  1  0
 11 12  2  0
  9 13  1  0
 13 14  1  0
 14 15  2  0
 15 16  1  0
 16 17  2  0
 17 18  1  0
 16 19  1  0
 14 20  1  0
 20 21  1  0
 21 22  2  0
 22 23  1  0
 23 24  2  0
 24 25  1  0
 25 26  2  0
 25 27  1  0
  1 28  2  0
  1 29  1  0
 29 30  1  0
 30 31  1  0
 31 32  1  0
 32 33  2  0
 32 34  1  0
 34 35  1  0
 35 36  1  0
 36 37  1  0
 37 38  2  0
 37 39  1  0
 35 40  1  0
 40 41  2  0
 40 42  1  0
 42 43  1  0
 43 44  1  0
 44 45  1  0
 45 46  2  0
 46 47  1  0
 47 48  1  0
 48 49  2  0
 43 50  1  0
 50 51  2  0
 50 52  1  0
 52 53  1  0
 53 54  1  0
 54 55  1  0
 54 56  1  0
 56 57  1  0
 53 58  1  0
 58 59  2  0
 58 60  1  0
 60 61  1  0
 61 62  1  0
 62 63  1  0
 63 64  1  0
 64 65  1  0
 65 66  1  0
 61 67  1  0
 67 68  2  0
 67 69  1  0
 70 69  1  1
 70 71  1  0
 71 72  1  0
 72 73  1  0
 73 74  1  0
 70 75  1  0
 70 76  1  0
 76 77  2  0
 76 78  1  0
 78 79  1  0
 79 80  1  0
 80 81  1  0
 79 82  1  0
 82 83  2  0
 82 84  1  0
 84 85  1  0
 85 86  1  0
 86 87  1  0
 87 88  2  0
 88 89  1  0
 89 90  2  0
 90 91  1  0
 91 92  2  0
 85 93  1  0
 93 94  2  0
 93 95  1  0
 95 96  1  0
 96 97  1  0
 97 98  1  0
 98 99  2  0
 99100  1  0
100101  1  0
101102  2  0
 96103  1  0
103104  2  0
103105  1  0
105106  1  0
106107  1  0
107108  1  0
108109  1  0
109110  1  0
106111  1  0
106112  1  1
112113  2  0
112114  1  0
114115  1  0
115116  1  0
116117  1  0
117118  1  0
117119  1  0
115120  1  0
120121  2  0
120122  1  0
122123  1  0
123124  1  0
124125  1  0
125126  1  0
126127  1  0
127128  1  0
128129  2  3
128130  1  0
123131  1  0
131132  2  0
131133  1  0
133134  1  0
134135  1  0
135136  1  0
136137  2  0
136138  1  0
134139  1  0
139140  2  0
139141  1  0
141142  1  0
142143  1  0
143144  1  0
142145  1  0
145146  2  0
145147  1  0
147148  1  0
148149  1  0
149150  1  0
148151  1  0
151152  2  0
151153  1  0
  8  3  1  0
 49 45  1  0
 92 87  1  0
102 98  1  0
 11  6  1  0
 74110  2  0
 18 13  2  0
 22  9  1  0
 26 21  1  0
  2154  1  0
  4155  1  0
  5156  1  0
  8157  1  0
 15158  1  0
 17159  1  0
 18160  1  0
 19161  1  0
 23162  1  0
 24163  1  0
 26164  1  0
 27165  1  0
 29166  1  0
 30167  1  0
 30168  1  0
 31169  1  0
 31170  1  0
 34171  1  0
 35172  1  1
 36173  1  0
 36174  1  0
 39175  1  0
 42176  1  0
 43177  1  6
 44178  1  0
 44179  1  0
 46180  1  0
 47181  1  0
 48182  1  0
 52183  1  0
 53184  1  1
 54185  1  1
 55186  1  0
 55187  1  0
 55188  1  0
 56189  1  0
 56190  1  0
 57191  1  0
 57192  1  0
 57193  1  0
 60194  1  0
 61195  1  6
 62196  1  0
 62197  1  0
 63198  1  0
 63199  1  0
 64200  1  0
 64201  1  0
 65202  1  0
 65203  1  0
 66204  1  0
 66205  1  0
 69206  1  0
 71207  1  0
 71208  1  0
 72209  1  0
 72210  1  0
 73211  1  0
 73212  1  0
 74213  1  0
 75214  1  0
 75215  1  0
 75216  1  0
 78217  1  0
 79218  1  6
 80219  1  0
 80220  1  0
 81221  1  0
 84222  1  0
 85223  1  6
 86224  1  0
 86225  1  0
 88226  1  0
 89227  1  0
 90228  1  0
 91229  1  0
 92230  1  0
 95231  1  0
 96232  1  6
 97233  1  0
 97234  1  0
 99235  1  0
100236  1  0
101237  1  0
105238  1  0
107239  1  0
107240  1  0
108241  1  0
108242  1  0
109243  1  0
109244  1  0
110245  1  0
111246  1  0
111247  1  0
111248  1  0
114249  1  0
115250  1  1
116251  1  0
116252  1  0
117253  1  0
118254  1  0
118255  1  0
118256  1  0
119257  1  0
119258  1  0
119259  1  0
122260  1  0
123261  1  6
124262  1  0
124263  1  0
125264  1  0
125265  1  0
126266  1  0
126267  1  0
127268  1  0
129269  1  0
130270  1  0
130271  1  0
133272  1  0
134273  1  1
135274  1  0
135275  1  0
138276  1  0
141277  1  0
142278  1  6
143279  1  0
143280  1  0
144281  1  0
147282  1  0
148283  1  1
149284  1  0
149285  1  0
150286  1  0
150287  1  0
150288  1  0
153289  1  0
M  END
