
     RDKit          2D

264268  0  0  0  0  0  0  0  0999 V2000
  -23.9301    1.8381    0.0000 N   0  0  0  0  0  0  0  0  0  0  0  0
  -22.5315    1.2958    0.0000 C   0  0  0  0  0  0  0  0  0  0  0  0
  -22.3018   -0.1865    0.0000 C   0  0  0  0  0  0  0  0  0  0  0  0
  -20.9033   -0.7287    0.0000 C   0  0  0  0  0  0  0  0  0  0  0  0
  -19.7344    0.2114    0.0000 O   0  0  0  0  0  0  0  0  0  0  0  0
  -20.6736   -2.2110    0.0000 N   0  0  0  0  0  0  0  0  0  0  0  0
  -19.2750   -2.7532    0.0000 C   0  0  0  0  0  0  0  0  0  0  0  0
  -20.0518   -4.0364    0.0000 C   0  0  0  0  0  0  0  0  0  0  0  0
  -21.5515   -4.0052    0.0000 C   0  0  0  0  0  0  0  0  0  0  0  0
  -22.3284   -5.2884    0.0000 N   0  0  0  0  0  0  0  0  0  0  0  0
  -22.0698   -3.2869    0.0000 O   0  0  0  0  0  0  0  0  0  0  0  0
  -17.7753   -2.7844    0.0000 C   0  0  0  0  0  0  0  0  0  0  0  0
  -17.0525   -4.0988    0.0000 O   0  0  0  0  0  0  0  0  0  0  0  0
  -16.9985   -1.5013    0.0000 N   0  0  0  0  0  0  0  0  0  0  0  0
  -15.4988   -1.5324    0.0000 C   0  0  0  0  0  0  0  0  0  0  0  0
  -15.7285   -0.0501    0.0000 C   0  0  0  0  0  0  0  0  0  0  0  0
  -17.1827    0.3176    0.0000 C   0  0  0  0  0  0  0  0  0  0  0  0
  -15.4374    1.4213    0.0000 C   0  0  0  0  0  0  0  0  0  0  0  0
  -16.5661    2.4092    0.0000 C   0  0  0  0  0  0  0  0  0  0  0  0
  -14.1002   -2.0747    0.0000 C   0  0  0  0  0  0  0  0  0  0  0  0
  -12.9314   -1.1346    0.0000 O   0  0  0  0  0  0  0  0  0  0  0  0
  -13.8705   -3.5570    0.0000 N   0  0  0  0  0  0  0  0  0  0  0  0
  -12.4720   -4.0992    0.0000 C   0  0  0  0  0  0  0  0  0  0  0  0
  -13.2488   -5.3824    0.0000 C   0  0  0  0  0  0  0  0  0  0  0  0
  -10.9723   -4.1304    0.0000 C   0  0  0  0  0  0  0  0  0  0  0  0
  -10.4151   -5.5231    0.0000 O   0  0  0  0  0  0  0  0  0  0  0  0
  -10.1954   -2.8472    0.0000 N   0  0  0  0  0  0  0  0  0  0  0  0
   -8.6958   -2.8784    0.0000 C   0  0  0  0  0  0  0  0  0  0  0  0
   -7.7268   -4.0235    0.0000 C   0  0  0  0  0  0  0  0  0  0  0  0
   -6.4634   -4.8321    0.0000 C   0  0  0  0  0  0  0  0  0  0  0  0
   -5.0178   -5.2324    0.0000 C   0  0  0  0  0  0  0  0  0  0  0  0
   -3.5185   -5.1888    0.0000 C   0  0  0  0  0  0  0  0  0  0  0  0
   -9.5012   -4.1438    0.0000 C   0  0  0  0  0  0  0  0  0  0  0  0
   -9.2841   -1.4986    0.0000 C   0  0  0  0  0  0  0  0  0  0  0  0
  -10.7712   -1.6950    0.0000 O   0  0  0  0  0  0  0  0  0  0  0  0
   -9.4397   -0.0067    0.0000 N   0  0  0  0  0  0  0  0  0  0  0  0
   -9.1485    1.4648    0.0000 C   0  0  0  0  0  0  0  0  0  0  0  0
  -10.6095    1.1249    0.0000 C   0  0  0  0  0  0  0  0  0  0  0  0
  -11.6343    2.2203    0.0000 C   0  0  0  0  0  0  0  0  0  0  0  0
  -13.1228    2.0350    0.0000 C   0  0  0  0  0  0  0  0  0  0  0  0
  -13.7590    3.3934    0.0000 N   0  0  0  0  0  0  0  0  0  0  0  0
  -12.6637    4.4182    0.0000 C   0  0  0  0  0  0  0  0  0  0  0  0
  -11.3505    3.6932    0.0000 N   0  0  0  0  0  0  0  0  0  0  0  0
   -8.4366    2.7851    0.0000 C   0  0  0  0  0  0  0  0  0  0  0  0
   -9.6360    3.6858    0.0000 O   0  0  0  0  0  0  0  0  0  0  0  0
   -7.3671    3.8368    0.0000 N   0  0  0  0  0  0  0  0  0  0  0  0
   -6.0352    4.5267    0.0000 C   0  0  0  0  0  0  0  0  0  0  0  0
   -7.2118    5.4571    0.0000 C   0  0  0  0  0  0  0  0  0  0  0  0
   -6.9944    6.9412    0.0000 C   0  0  0  0  0  0  0  0  0  0  0  0
   -8.1710    7.8716    0.0000 C   0  0  0  0  0  0  0  0  0  0  0  0
   -6.2825    8.2615    0.0000 C   0  0  0  0  0  0  0  0  0  0  0  0
   -4.5591    4.7933    0.0000 C   0  0  0  0  0  0  0  0  0  0  0  0
   -4.6027    6.2926    0.0000 O   0  0  0  0  0  0  0  0  0  0  0  0
   -3.0699    4.6129    0.0000 N   0  0  0  0  0  0  0  0  0  0  0  0
   -1.7001    4.0017    0.0000 C   0  0  0  0  0  0  0  0  0  0  0  0
   -1.7064    5.5016    0.0000 C   0  0  0  0  0  0  0  0  0  0  0  0
   -0.5714    3.0138    0.0000 C   0  0  0  0  0  0  0  0  0  0  0  0
   -0.0154    4.4069    0.0000 O   0  0  0  0  0  0  0  0  0  0  0  0
    0.2161    1.7371    0.0000 N   0  0  0  0  0  0  0  0  0  0  0  0
    0.5922    0.2850    0.0000 C   0  0  0  0  0  0  0  0  0  0  0  0
    0.5237   -1.2134    0.0000 C   0  0  0  0  0  0  0  0  0  0  0  0
    0.0165   -2.6251    0.0000 C   0  0  0  0  0  0  0  0  0  0  0  0
   -0.8843   -3.8245    0.0000 C   0  0  0  0  0  0  0  0  0  0  0  0
   -2.0986   -4.7051    0.0000 C   0  0  0  0  0  0  0  0  0  0  0  0
    1.2766    1.7245    0.0000 C   0  0  0  0  0  0  0  0  0  0  0  0
    1.5236    3.0689    0.0000 C   0  0  0  0  0  0  0  0  0  0  0  0
    2.0206    4.3423    0.0000 C   0  0  0  0  0  0  0  0  0  0  0  0
    2.7497    5.4986    0.0000 C   0  0  0  0  0  0  0  0  0  0  0  0
    1.5588   -0.9823    0.0000 C   0  0  0  0  0  0  0  0  0  0  0  0
   -0.5467   -1.6204    0.0000 O   0  0  0  0  0  0  0  0  0  0  0  0
    2.0778   -2.2469    0.0000 N   0  0  0  0  0  0  0  0  0  0  0  0
    2.8268   -3.3903    0.0000 C   0  0  0  0  0  0  0  0  0  0  0  0
    1.7795   -5.2417    0.0000 C   0  0  0  0  0  0  0  0  0  0  0  0
    2.6073   -6.4926    0.0000 C   0  0  0  0  0  0  0  0  0  0  0  0
    3.7786   -4.3714    0.0000 C   0  0  0  0  0  0  0  0  0  0  0  0
    2.8456   -5.6727    0.0000 O   0  0  0  0  0  0  0  0  0  0  0  0
    4.8989   -5.1546    0.0000 N   0  0  0  0  0  0  0  0  0  0  0  0
    6.1472   -5.7117    0.0000 C   0  0  0  0  0  0  0  0  0  0  0  0
    7.4783   -6.0224    0.0000 C   0  0  0  0  0  0  0  0  0  0  0  0
    7.1841   -8.2026    0.0000 O   0  0  0  0  0  0  0  0  0  0  0  0
    8.8442   -6.0756    0.0000 N   0  0  0  0  0  0  0  0  0  0  0  0
   10.1954   -5.8693    0.0000 C   0  0  0  0  0  0  0  0  0  0  0  0
   11.4445   -7.5910    0.0000 C   0  0  0  0  0  0  0  0  0  0  0  0
   11.0804   -9.0462    0.0000 C   0  0  0  0  0  0  0  0  0  0  0  0
   12.1585  -10.0891    0.0000 O   0  0  0  0  0  0  0  0  0  0  0  0
    9.6381   -9.4584    0.0000 O   0  0  0  0  0  0  0  0  0  0  0  0
   11.4833   -5.4111    0.0000 C   0  0  0  0  0  0  0  0  0  0  0  0
   12.5754   -7.3167    0.0000 O   0  0  0  0  0  0  0  0  0  0  0  0
   12.6611   -4.7174    0.0000 N   0  0  0  0  0  0  0  0  0  0  0  0
   13.6863   -3.8133    0.0000 C   0  0  0  0  0  0  0  0  0  0  0  0
   15.6679   -4.5864    0.0000 C   0  0  0  0  0  0  0  0  0  0  0  0
   16.1483   -6.0074    0.0000 C   0  0  0  0  0  0  0  0  0  0  0  0
   15.2811   -7.2313    0.0000 C   0  0  0  0  0  0  0  0  0  0  0  0
   16.1771   -8.4343    0.0000 N   0  0  0  0  0  0  0  0  0  0  0  0
   17.5981   -7.9539    0.0000 C   0  0  0  0  0  0  0  0  0  0  0  0
   18.9059   -8.6884    0.0000 C   0  0  0  0  0  0  0  0  0  0  0  0
   20.1960   -7.9231    0.0000 C   0  0  0  0  0  0  0  0  0  0  0  0
   20.1782   -6.4232    0.0000 C   0  0  0  0  0  0  0  0  0  0  0  0
   18.8704   -5.6886    0.0000 C   0  0  0  0  0  0  0  0  0  0  0  0
   17.5803   -6.4540    0.0000 C   0  0  0  0  0  0  0  0  0  0  0  0
   14.5219   -2.7315    0.0000 C   0  0  0  0  0  0  0  0  0  0  0  0
   16.4710   -3.7442    0.0000 O   0  0  0  0  0  0  0  0  0  0  0  0
   15.1377   -1.5112    0.0000 N   0  0  0  0  0  0  0  0  0  0  0  0
   15.5115   -0.1963    0.0000 C   0  0  0  0  0  0  0  0  0  0  0  0
   17.5965    0.2246    0.0000 C   0  0  0  0  0  0  0  0  0  0  0  0
   18.7688   -0.7111    0.0000 C   0  0  0  0  0  0  0  0  0  0  0  0
   20.1654   -0.1636    0.0000 C   0  0  0  0  0  0  0  0  0  0  0  0
   21.3377   -1.0993    0.0000 C   0  0  0  0  0  0  0  0  0  0  0  0
   15.6296    1.1655    0.0000 C   0  0  0  0  0  0  0  0  0  0  0  0
   17.8167    1.3673    0.0000 O   0  0  0  0  0  0  0  0  0  0  0  0
   15.4879    2.5250    0.0000 N   0  0  0  0  0  0  0  0  0  0  0  0
   15.0914    3.8332    0.0000 C   0  0  0  0  0  0  0  0  0  0  0  0
   16.6178    5.3146    0.0000 C   0  0  0  0  0  0  0  0  0  0  0  0
   18.1100    5.1612    0.0000 C   0  0  0  0  0  0  0  0  0  0  0  0
   18.9888    6.3768    0.0000 O   0  0  0  0  0  0  0  0  0  0  0  0
   18.7233    3.7923    0.0000 O   0  0  0  0  0  0  0  0  0  0  0  0
   14.4545    5.0427    0.0000 C   0  0  0  0  0  0  0  0  0  0  0  0
   16.1853    6.3949    0.0000 O   0  0  0  0  0  0  0  0  0  0  0  0
   13.6003    6.1098    0.0000 N   0  0  0  0  0  0  0  0  0  0  0  0
   12.5595    6.9959    0.0000 C   0  0  0  0  0  0  0  0  0  0  0  0
   11.3698    7.6691    0.0000 C   0  0  0  0  0  0  0  0  0  0  0  0
   10.0742    8.1050    0.0000 C   0  0  0  0  0  0  0  0  0  0  0  0
    8.7196    8.2878    0.0000 C   0  0  0  0  0  0  0  0  0  0  0  0
    7.3548    8.2109    0.0000 C   0  0  0  0  0  0  0  0  0  0  0  0
    6.0293    7.8771    0.0000 C   0  0  0  0  0  0  0  0  0  0  0  0
    4.7909    7.2985    0.0000 C   0  0  0  0  0  0  0  0  0  0  0  0
    3.6843    6.4960    0.0000 C   0  0  0  0  0  0  0  0  0  0  0  0
   14.3390    8.1611    0.0000 C   0  0  0  0  0  0  0  0  0  0  0  0
   13.0427    9.0674    0.0000 C   0  0  0  0  0  0  0  0  0  0  0  0
   14.2883    9.9032    0.0000 O   0  0  0  0  0  0  0  0  0  0  0  0
   12.0224   10.1670    0.0000 O   0  0  0  0  0  0  0  0  0  0  0  0
  -24.1598    3.3204    0.0000 H   0  0  0  0  0  0  0  0  0  0  0  0
  -25.0990    0.8980    0.0000 H   0  0  0  0  0  0  0  0  0  0  0  0
  -22.2404    2.7673    0.0000 H   0  0  0  0  0  0  0  0  0  0  0  0
  -21.0319    1.2647    0.0000 H   0  0  0  0  0  0  0  0  0  0  0  0
  -23.8015   -0.1553    0.0000 H   0  0  0  0  0  0  0  0  0  0  0  0
  -22.5930   -1.6579    0.0000 H   0  0  0  0  0  0  0  0  0  0  0  0
  -21.3510   -2.6312    0.0000 H   0  0  0  0  0  0  0  0  0  0  0  0
  -18.9839   -1.2818    0.0000 H   0  0  0  0  0  0  0  0  0  0  0  0
  -20.3430   -5.5079    0.0000 H   0  0  0  0  0  0  0  0  0  0  0  0
  -18.6533   -4.5786    0.0000 H   0  0  0  0  0  0  0  0  0  0  0  0
  -23.8280   -5.2572    0.0000 H   0  0  0  0  0  0  0  0  0  0  0  0
  -21.6055   -6.6027    0.0000 H   0  0  0  0  0  0  0  0  0  0  0  0
  -17.8761   -0.2848    0.0000 H   0  0  0  0  0  0  0  0  0  0  0  0
  -15.7899   -3.0039    0.0000 H   0  0  0  0  0  0  0  0  0  0  0  0
  -14.2438   -0.2639    0.0000 H   0  0  0  0  0  0  0  0  0  0  0  0
  -17.5574    1.9408    0.0000 H   0  0  0  0  0  0  0  0  0  0  0  0
  -18.6267    0.5233    0.0000 H   0  0  0  0  0  0  0  0  0  0  0  0
  -17.9263   -0.7773    0.0000 H   0  0  0  0  0  0  0  0  0  0  0  0
  -14.6605    2.7045    0.0000 H   0  0  0  0  0  0  0  0  0  0  0  0
  -14.1153    0.7127    0.0000 H   0  0  0  0  0  0  0  0  0  0  0  0
  -16.2750    3.8807    0.0000 H   0  0  0  0  0  0  0  0  0  0  0  0
  -17.9647    2.9514    0.0000 H   0  0  0  0  0  0  0  0  0  0  0  0
  -17.6304    1.3522    0.0000 H   0  0  0  0  0  0  0  0  0  0  0  0
  -15.1453   -4.3476    0.0000 H   0  0  0  0  0  0  0  0  0  0  0  0
  -12.1808   -2.6277    0.0000 H   0  0  0  0  0  0  0  0  0  0  0  0
  -14.7411   -5.5342    0.0000 H   0  0  0  0  0  0  0  0  0  0  0  0
  -13.5399   -6.8538    0.0000 H   0  0  0  0  0  0  0  0  0  0  0  0
  -11.8502   -5.9246    0.0000 H   0  0  0  0  0  0  0  0  0  0  0  0
  -11.0731   -1.6308    0.0000 H   0  0  0  0  0  0  0  0  0  0  0  0
   -7.9442   -5.5076    0.0000 H   0  0  0  0  0  0  0  0  0  0  0  0
   -9.1081   -4.6084    0.0000 H   0  0  0  0  0  0  0  0  0  0  0  0
   -6.4161   -6.3313    0.0000 H   0  0  0  0  0  0  0  0  0  0  0  0
   -7.6109   -5.7982    0.0000 H   0  0  0  0  0  0  0  0  0  0  0  0
   -4.3614   -6.5811    0.0000 H   0  0  0  0  0  0  0  0  0  0  0  0
   -5.8295   -6.4938    0.0000 H   0  0  0  0  0  0  0  0  0  0  0  0
   -3.2519   -6.6649    0.0000 H   0  0  0  0  0  0  0  0  0  0  0  0
  -10.7465   -4.6677    0.0000 H   0  0  0  0  0  0  0  0  0  0  0  0
   -9.2915   -5.7118    0.0000 H   0  0  0  0  0  0  0  0  0  0  0  0
   -8.1774   -5.1759    0.0000 H   0  0  0  0  0  0  0  0  0  0  0  0
  -10.9381    0.0619    0.0000 H   0  0  0  0  0  0  0  0  0  0  0  0
  -10.0592    2.6567    0.0000 H   0  0  0  0  0  0  0  0  0  0  0  0
  -11.8662    0.3059    0.0000 H   0  0  0  0  0  0  0  0  0  0  0  0
  -10.3725   -0.3562    0.0000 H   0  0  0  0  0  0  0  0  0  0  0  0
  -13.5086    0.5855    0.0000 H   0  0  0  0  0  0  0  0  0  0  0  0
  -15.2319    3.6772    0.0000 H   0  0  0  0  0  0  0  0  0  0  0  0
  -12.8489    5.9068    0.0000 H   0  0  0  0  0  0  0  0  0  0  0  0
   -8.2478    5.0511    0.0000 H   0  0  0  0  0  0  0  0  0  0  0  0
   -5.4964    5.9266    0.0000 H   0  0  0  0  0  0  0  0  0  0  0  0
   -8.6825    5.7518    0.0000 H   0  0  0  0  0  0  0  0  0  0  0  0
   -8.2220    4.3483    0.0000 H   0  0  0  0  0  0  0  0  0  0  0  0
   -5.5236    6.6465    0.0000 H   0  0  0  0  0  0  0  0  0  0  0  0
   -8.1361    9.3712    0.0000 H   0  0  0  0  0  0  0  0  0  0  0  0
   -9.5948    8.3434    0.0000 H   0  0  0  0  0  0  0  0  0  0  0  0
   -9.0385    6.6479    0.0000 H   0  0  0  0  0  0  0  0  0  0  0  0
   -6.9084    9.6247    0.0000 H   0  0  0  0  0  0  0  0  0  0  0  0
   -5.1619    9.2587    0.0000 H   0  0  0  0  0  0  0  0  0  0  0  0
   -5.1058    7.3311    0.0000 H   0  0  0  0  0  0  0  0  0  0  0  0
   -2.8489    6.0965    0.0000 H   0  0  0  0  0  0  0  0  0  0  0  0
   -0.4215    4.7859    0.0000 H   0  0  0  0  0  0  0  0  0  0  0  0
   -2.9080    6.3994    0.0000 H   0  0  0  0  0  0  0  0  0  0  0  0
   -1.1992    6.9133    0.0000 H   0  0  0  0  0  0  0  0  0  0  0  0
   -0.2081    5.4294    0.0000 H   0  0  0  0  0  0  0  0  0  0  0  0
    1.5959    2.3255    0.0000 H   0  0  0  0  0  0  0  0  0  0  0  0
    1.9177   -0.6596    0.0000 H   0  0  0  0  0  0  0  0  0  0  0  0
    1.4666   -2.3799    0.0000 H   0  0  0  0  0  0  0  0  0  0  0  0
    1.4548   -3.0506    0.0000 H   0  0  0  0  0  0  0  0  0  0  0  0
    0.3998   -4.0753    0.0000 H   0  0  0  0  0  0  0  0  0  0  0  0
    0.3647   -4.6551    0.0000 H   0  0  0  0  0  0  0  0  0  0  0  0
   -0.5810   -5.2935    0.0000 H   0  0  0  0  0  0  0  0  0  0  0  0
   -1.4087   -6.0371    0.0000 H   0  0  0  0  0  0  0  0  0  0  0  0
   -0.7590    1.1072    0.0000 H   0  0  0  0  0  0  0  0  0  0  0  0
   -0.5038    2.8228    0.0000 H   0  0  0  0  0  0  0  0  0  0  0  0
   -0.6439    3.3924    0.0000 H   0  0  0  0  0  0  0  0  0  0  0  0
    0.1389    4.5808    0.0000 H   0  0  0  0  0  0  0  0  0  0  0  0
   -0.0860    4.8912    0.0000 H   0  0  0  0  0  0  0  0  0  0  0  0
    0.6141    5.9379    0.0000 H   0  0  0  0  0  0  0  0  0  0  0  0
    1.0086    6.8435    0.0000 H   0  0  0  0  0  0  0  0  0  0  0  0
    0.4699   -3.7012    0.0000 H   0  0  0  0  0  0  0  0  0  0  0  0
    0.8240   -4.1872    0.0000 H   0  0  0  0  0  0  0  0  0  0  0  0
    0.8253   -6.3991    0.0000 H   0  0  0  0  0  0  0  0  0  0  0  0
    0.2960   -5.0201    0.0000 H   0  0  0  0  0  0  0  0  0  0  0  0
    2.2528   -7.7963    0.0000 H   0  0  0  0  0  0  0  0  0  0  0  0
    3.8639   -7.4537    0.0000 H   0  0  0  0  0  0  0  0  0  0  0  0
    3.9818   -5.5290    0.0000 H   0  0  0  0  0  0  0  0  0  0  0  0
    3.9801   -7.1497    0.0000 H   0  0  0  0  0  0  0  0  0  0  0  0
    6.2671   -7.8353    0.0000 H   0  0  0  0  0  0  0  0  0  0  0  0
    4.8931   -7.4648    0.0000 H   0  0  0  0  0  0  0  0  0  0  0  0
    8.9679   -8.2721    0.0000 H   0  0  0  0  0  0  0  0  0  0  0  0
    9.9107   -7.9772    0.0000 H   0  0  0  0  0  0  0  0  0  0  0  0
   12.7296   -8.3647    0.0000 H   0  0  0  0  0  0  0  0  0  0  0  0
   12.5601   -6.5883    0.0000 H   0  0  0  0  0  0  0  0  0  0  0  0
   13.7981   -6.5966    0.0000 H   0  0  0  0  0  0  0  0  0  0  0  0
   14.5864   -5.7405    0.0000 H   0  0  0  0  0  0  0  0  0  0  0  0
   17.1673   -4.5425    0.0000 H   0  0  0  0  0  0  0  0  0  0  0  0
   16.0643   -3.1397    0.0000 H   0  0  0  0  0  0  0  0  0  0  0  0
   13.7945   -7.4317    0.0000 H   0  0  0  0  0  0  0  0  0  0  0  0
   15.7305   -9.8662    0.0000 H   0  0  0  0  0  0  0  0  0  0  0  0
   18.9237  -10.1883    0.0000 H   0  0  0  0  0  0  0  0  0  0  0  0
   21.5038   -8.6577    0.0000 H   0  0  0  0  0  0  0  0  0  0  0  0
   21.4682   -5.6579    0.0000 H   0  0  0  0  0  0  0  0  0  0  0  0
   18.8526   -4.1887    0.0000 H   0  0  0  0  0  0  0  0  0  0  0  0
   17.1103   -2.4773    0.0000 H   0  0  0  0  0  0  0  0  0  0  0  0
   17.1794   -1.4589    0.0000 H   0  0  0  0  0  0  0  0  0  0  0  0
   18.7215    1.2167    0.0000 H   0  0  0  0  0  0  0  0  0  0  0  0
   17.1478    1.6560    0.0000 H   0  0  0  0  0  0  0  0  0  0  0  0
   19.3886   -2.0770    0.0000 H   0  0  0  0  0  0  0  0  0  0  0  0
   17.9173   -1.9459    0.0000 H   0  0  0  0  0  0  0  0  0  0  0  0
   21.2904    0.8285    0.0000 H   0  0  0  0  0  0  0  0  0  0  0  0
   19.5456    1.2024    0.0000 H   0  0  0  0  0  0  0  0  0  0  0  0
   22.7343   -0.5518    0.0000 H   0  0  0  0  0  0  0  0  0  0  0  0
   22.1194   -2.3795    0.0000 H   0  0  0  0  0  0  0  0  0  0  0  0
   20.3420   -2.2211    0.0000 H   0  0  0  0  0  0  0  0  0  0  0  0
   17.6444    2.9601    0.0000 H   0  0  0  0  0  0  0  0  0  0  0  0
   17.2184    3.8513    0.0000 H   0  0  0  0  0  0  0  0  0  0  0  0
   17.2007    6.6967    0.0000 H   0  0  0  0  0  0  0  0  0  0  0  0
   15.4666    6.2761    0.0000 H   0  0  0  0  0  0  0  0  0  0  0  0
   15.2985    7.5027    0.0000 H   0  0  0  0  0  0  0  0  0  0  0  0
   11.4523    9.7946    0.0000 H   0  0  0  0  0  0  0  0  0  0  0  0
   12.6561    9.4255    0.0000 H   0  0  0  0  0  0  0  0  0  0  0  0
    9.9298   10.2556    0.0000 H   0  0  0  0  0  0  0  0  0  0  0  0
   11.0049   10.0730    0.0000 H   0  0  0  0  0  0  0  0  0  0  0  0
    8.1707   10.3722    0.0000 H   0  0  0  0  0  0  0  0  0  0  0  0
    9.4289   10.3232    0.0000 H   0  0  0  0  0  0  0  0  0  0  0  0
    6.4214   10.1538    0.0000 H   0  0  0  0  0  0  0  0  0  0  0  0
    7.6661   10.3438    0.0000 H   0  0  0  0  0  0  0  0  0  0  0  0
    4.7450    9.6082    0.0000 H   0  0  0  0  0  0  0  0  0  0  0  0
    5.9313   10.0304    0.0000 H   0  0  0  0  0  0  0  0  0  0  0  0
    3.1073    8.5986    0.0000 H   0  0  0  0  0  0  0  0  0  0  0  0
    4.2872    9.3943    0.0000 H   0  0  0  0  0  0  0  0  0  0  0  0
    2.2293    8.1461    0.0000 H   0  0  0  0  0  0  0  0  0  0  0  0
   14.6962    9.6180    0.0000 H   0  0  0  0  0  0  0  0  0  0  0  0
   15.8152    8.4274    0.0000 H   0  0  0  0  0  0  0  0  0  0  0  0
   15.0253    6.8273    0.0000 H   0  0  0  0  0  0  0  0  0  0  0  0
  1  2  1  0
  2  3  1  0
  3  4  1  0
  4  5  2  0
  4  6  1  0
  6  7  1  0
  7  8  1  0
  8  9  1  0
  9 10  1  0
  9 11  2  0
  7 12  1  0
 12 13  2  0
 12 14  1  0
 14 15  1  0
 15 16  1  0
 16 17  1  0
 16 18  1  0
 18 19  1  0
 15 20  1  0
 20 21  2  0
 20 22  1  0
 22 23  1  0
 23 24  1  0
 23 25  1  0
 25 26  2  0
 25 27  1  0
 28 27  1  6
 28 29  1  0
 29 30  1  0
 30 31  1  0
 31 32  1  0
 28 33  1  0
 28 34  1  0
 34 35  2  0
 34 36  1  0
 36 37  1  0
 37 38  1  0
 38 39  1  0
 39 40  2  0
 40 41  1  0
 41 42  1  0
 42 43  2  0
 37 44  1  0
 44 45  2  0
 44 46  1  0
 46 47  1  0
 47 48  1  0
 48 49  1  0
 49 50  1  0
 49 51  1  0
 47 52  1  0
 52 53  2  0
 52 54  1  0
 54 55  1  0
 55 56  1  0
 55 57  1  0
 57 58  2  0
 57 59  1  0
 59 60  1  0
 60 61  1  0
 61 62  1  0
 62 63  1  0
 63 64  1  0
 60 65  1  0
 65 66  1  0
 66 67  1  0
 67 68  1  0
 60 69  1  0
 69 70  2  0
 69 71  1  0
 71 72  1  0
 72 73  1  0
 73 74  1  0
 72 75  1  0
 75 76  2  0
 75 77  1  0
 77 78  1  0
 78 79  1  0
 79 80  2  0
 79 81  1  0
 81 82  1  0
 82 83  1  0
 83 84  1  0
 84 85  2  0
 84 86  1  0
 82 87  1  0
 87 88  2  0
 87 89  1  0
 89 90  1  0
 90 91  1  0
 91 92  1  0
 92 93  2  0
 93 94  1  0
 94 95  1  0
 95 96  2  0
 96 97  1  0
 97 98  2  0
 98 99  1  0
 99100  2  0
 90101  1  0
101102  2  0
101103  1  0
103104  1  0
104105  1  0
105106  1  0
106107  1  0
107108  1  0
104109  1  0
109110  2  0
109111  1  0
111112  1  0
112113  1  0
113114  1  0
114115  2  0
114116  1  0
112117  1  0
117118  2  0
117119  1  0
119120  1  0
120121  1  0
121122  1  0
122123  1  0
123124  1  0
124125  1  0
125126  1  0
126127  1  0
120128  1  0
120129  1  1
129130  2  0
129131  1  0
 43 39  1  0
100 92  1  0
100 95  1  0
 32 64  2  0
 68127  2  0
  1132  1  0
  1133  1  0
  2134  1  0
  2135  1  0
  3136  1  0
  3137  1  0
  6138  1  0
  7139  1  6
  8140  1  0
  8141  1  0
 10142  1  0
 10143  1  0
 14144  1  0
 15145  1  1
 16146  1  6
 17147  1  0
 17148  1  0
 17149  1  0
 18150  1  0
 18151  1  0
 19152  1  0
 19153  1  0
 19154  1  0
 22155  1  0
 23156  1  6
 24157  1  0
 24158  1  0
 24159  1  0
 27160  1  0
 29161  1  0
 29162  1  0
 30163  1  0
 30164  1  0
 31165  1  0
 31166  1  0
 32167  1  0
 33168  1  0
 33169  1  0
 33170  1  0
 36171  1  0
 37172  1  1
 38173  1  0
 38174  1  0
 40175  1  0
 41176  1  0
 42177  1  0
 46178  1  0
 47179  1  1
 48180  1  0
 48181  1  0
 49182  1  0
 50183  1  0
 50184  1  0
 50185  1  0
 51186  1  0
 51187  1  0
 51188  1  0
 54189  1  0
 55190  1  1
 56191  1  0
 56192  1  0
 56193  1  0
 59194  1  0
 61195  1  0
 61196  1  0
 62197  1  0
 62198  1  0
 63199  1  0
 63200  1  0
 64201  1  0
 65202  1  0
 65203  1  0
 66204  1  0
 66205  1  0
 67206  1  0
 67207  1  0
 68208  1  0
 71209  1  0
 72210  1  6
 73211  1  0
 73212  1  0
 74213  1  0
 74214  1  0
 74215  1  0
 77216  1  0
 78217  1  0
 78218  1  0
 81219  1  0
 82220  1  6
 83221  1  0
 83222  1  0
 89223  1  0
 90224  1  6
 91225  1  0
 91226  1  0
 93227  1  0
 94228  1  0
 96229  1  0
 97230  1  0
 98231  1  0
 99232  1  0
103233  1  0
104234  1  1
105235  1  0
105236  1  0
106237  1  0
106238  1  0
107239  1  0
107240  1  0
108241  1  0
108242  1  0
108243  1  0
111244  1  0
112245  1  6
113246  1  0
113247  1  0
119248  1  0
121249  1  0
121250  1  0
122251  1  0
122252  1  0
123253  1  0
123254  1  0
124255  1  0
124256  1  0
125257  1  0
125258  1  0
126259  1  0
126260  1  0
127261  1  0
128262  1  0
128263  1  0
128264  1  0
M  CHG  3  86  -1 116  -1 131  -1
M  END
