
     RDKit          2D

390391  0  0  0  0  0  0  0  0999 V2000
  -34.8952    8.1869    0.0000 N   0  0  0  0  0  0  0  0  0  0  0  0
  -34.2002    6.8576    0.0000 C   0  0  0  0  0  0  0  0  0  0  0  0
  -32.7015    6.7949    0.0000 C   0  0  0  0  0  0  0  0  0  0  0  0
  -32.0065    5.4656    0.0000 C   0  0  0  0  0  0  0  0  0  0  0  0
  -32.7777    4.5267    0.0000 O   0  0  0  0  0  0  0  0  0  0  0  0
  -30.5078    5.4029    0.0000 N   0  0  0  0  0  0  0  0  0  0  0  0
  -29.8128    4.0736    0.0000 C   0  0  0  0  0  0  0  0  0  0  0  0
  -31.2426    3.6200    0.0000 C   0  0  0  0  0  0  0  0  0  0  0  0
  -31.5646    2.1549    0.0000 C   0  0  0  0  0  0  0  0  0  0  0  0
  -32.9944    1.7013    0.0000 C   0  0  0  0  0  0  0  0  0  0  0  0
  -31.3661    0.6681    0.0000 C   0  0  0  0  0  0  0  0  0  0  0  0
  -28.7051    3.0622    0.0000 C   0  0  0  0  0  0  0  0  0  0  0  0
  -29.1535    1.7888    0.0000 O   0  0  0  0  0  0  0  0  0  0  0  0
  -27.2753    3.5158    0.0000 N   0  0  0  0  0  0  0  0  0  0  0  0
  -26.1676    2.5044    0.0000 C   0  0  0  0  0  0  0  0  0  0  0  0
  -27.3560    1.5891    0.0000 C   0  0  0  0  0  0  0  0  0  0  0  0
  -27.1575    0.1023    0.0000 C   0  0  0  0  0  0  0  0  0  0  0  0
  -28.3459   -0.8129    0.0000 C   0  0  0  0  0  0  0  0  0  0  0  0
  -26.4625   -1.2269    0.0000 C   0  0  0  0  0  0  0  0  0  0  0  0
  -24.7807    1.9329    0.0000 C   0  0  0  0  0  0  0  0  0  0  0  0
  -24.7650    0.4330    0.0000 O   0  0  0  0  0  0  0  0  0  0  0  0
  -23.5923    2.8482    0.0000 N   0  0  0  0  0  0  0  0  0  0  0  0
  -22.2055    2.2766    0.0000 C   0  0  0  0  0  0  0  0  0  0  0  0
  -21.8835    3.7417    0.0000 C   0  0  0  0  0  0  0  0  0  0  0  0
  -20.4091    4.0176    0.0000 C   0  0  0  0  0  0  0  0  0  0  0  0
  -22.0819    5.2285    0.0000 C   0  0  0  0  0  0  0  0  0  0  0  0
  -21.0140    6.2818    0.0000 C   0  0  0  0  0  0  0  0  0  0  0  0
  -21.0978    1.2652    0.0000 C   0  0  0  0  0  0  0  0  0  0  0  0
  -19.6680    1.7189    0.0000 O   0  0  0  0  0  0  0  0  0  0  0  0
  -21.4198   -0.1998    0.0000 N   0  0  0  0  0  0  0  0  0  0  0  0
  -20.3120   -1.2112    0.0000 C   0  0  0  0  0  0  0  0  0  0  0  0
  -21.5004   -2.1265    0.0000 C   0  0  0  0  0  0  0  0  0  0  0  0
  -22.8873   -1.5549    0.0000 C   0  0  0  0  0  0  0  0  0  0  0  0
  -24.0757   -2.4702    0.0000 C   0  0  0  0  0  0  0  0  0  0  0  0
  -23.9950   -0.5435    0.0000 C   0  0  0  0  0  0  0  0  0  0  0  0
  -18.9252   -1.7827    0.0000 C   0  0  0  0  0  0  0  0  0  0  0  0
  -18.9095   -3.2826    0.0000 O   0  0  0  0  0  0  0  0  0  0  0  0
  -17.7368   -0.8674    0.0000 N   0  0  0  0  0  0  0  0  0  0  0  0
  -16.3500   -1.4390    0.0000 C   0  0  0  0  0  0  0  0  0  0  0  0
  -15.8608   -2.8570    0.0000 C   0  0  0  0  0  0  0  0  0  0  0  0
  -14.9755   -4.0678    0.0000 C   0  0  0  0  0  0  0  0  0  0  0  0
  -13.7725   -4.9639    0.0000 C   0  0  0  0  0  0  0  0  0  0  0  0
  -12.3589   -5.4656    0.0000 C   0  0  0  0  0  0  0  0  0  0  0  0
  -17.5586   -2.3273    0.0000 C   0  0  0  0  0  0  0  0  0  0  0  0
  -16.3994    0.0602    0.0000 C   0  0  0  0  0  0  0  0  0  0  0  0
  -17.8568    0.4151    0.0000 O   0  0  0  0  0  0  0  0  0  0  0  0
  -16.0047    1.5074    0.0000 N   0  0  0  0  0  0  0  0  0  0  0  0
  -15.2011    2.7739    0.0000 C   0  0  0  0  0  0  0  0  0  0  0  0
  -16.6861    2.9855    0.0000 C   0  0  0  0  0  0  0  0  0  0  0  0
  -17.2453    4.3774    0.0000 C   0  0  0  0  0  0  0  0  0  0  0  0
  -18.7303    4.5891    0.0000 C   0  0  0  0  0  0  0  0  0  0  0  0
  -18.9361    6.0749    0.0000 N   0  0  0  0  0  0  0  0  0  0  0  0
  -19.6561    3.4088    0.0000 O   0  0  0  0  0  0  0  0  0  0  0  0
  -14.0598    3.7473    0.0000 C   0  0  0  0  0  0  0  0  0  0  0  0
  -14.8522    5.0209    0.0000 O   0  0  0  0  0  0  0  0  0  0  0  0
  -12.6823    4.3410    0.0000 N   0  0  0  0  0  0  0  0  0  0  0  0
  -11.1910    4.5023    0.0000 C   0  0  0  0  0  0  0  0  0  0  0  0
  -11.9514    5.7953    0.0000 C   0  0  0  0  0  0  0  0  0  0  0  0
   -9.7184    4.2169    0.0000 C   0  0  0  0  0  0  0  0  0  0  0  0
   -9.2167    5.6306    0.0000 O   0  0  0  0  0  0  0  0  0  0  0  0
   -8.3953    3.5102    0.0000 N   0  0  0  0  0  0  0  0  0  0  0  0
   -7.3394    2.4448    0.0000 C   0  0  0  0  0  0  0  0  0  0  0  0
   -6.8026    3.8455    0.0000 C   0  0  0  0  0  0  0  0  0  0  0  0
   -5.3212    4.0809    0.0000 C   0  0  0  0  0  0  0  0  0  0  0  0
   -6.6444    1.1155    0.0000 C   0  0  0  0  0  0  0  0  0  0  0  0
   -5.3869    1.9333    0.0000 O   0  0  0  0  0  0  0  0  0  0  0  0
   -6.3721   -0.3595    0.0000 N   0  0  0  0  0  0  0  0  0  0  0  0
   -6.5466   -1.8493    0.0000 C   0  0  0  0  0  0  0  0  0  0  0  0
   -7.1526   -3.2215    0.0000 C   0  0  0  0  0  0  0  0  0  0  0  0
   -8.1360   -4.3541    0.0000 C   0  0  0  0  0  0  0  0  0  0  0  0
   -9.4096   -5.1465    0.0000 C   0  0  0  0  0  0  0  0  0  0  0  0
  -10.8602   -5.5283    0.0000 C   0  0  0  0  0  0  0  0  0  0  0  0
   -5.3496   -0.8522    0.0000 C   0  0  0  0  0  0  0  0  0  0  0  0
   -4.5030    0.1228    0.0000 C   0  0  0  0  0  0  0  0  0  0  0  0
   -3.4065    0.8050    0.0000 C   0  0  0  0  0  0  0  0  0  0  0  0
   -2.1577    1.1337    0.0000 C   0  0  0  0  0  0  0  0  0  0  0  0
   -6.0216   -3.3161    0.0000 C   0  0  0  0  0  0  0  0  0  0  0  0
   -8.2204   -3.3886    0.0000 O   0  0  0  0  0  0  0  0  0  0  0  0
   -5.7871   -4.5860    0.0000 N   0  0  0  0  0  0  0  0  0  0  0  0
   -5.1888   -5.7303    0.0000 C   0  0  0  0  0  0  0  0  0  0  0  0
   -6.2906   -7.5442    0.0000 C   0  0  0  0  0  0  0  0  0  0  0  0
   -5.4951   -8.8158    0.0000 C   0  0  0  0  0  0  0  0  0  0  0  0
   -4.2797   -6.6475    0.0000 C   0  0  0  0  0  0  0  0  0  0  0  0
   -5.1260   -8.0067    0.0000 O   0  0  0  0  0  0  0  0  0  0  0  0
   -3.1407   -7.2559    0.0000 N   0  0  0  0  0  0  0  0  0  0  0  0
   -1.8730   -7.5016    0.0000 C   0  0  0  0  0  0  0  0  0  0  0  0
   -1.1418   -9.4940    0.0000 C   0  0  0  0  0  0  0  0  0  0  0  0
   -2.0349  -10.6991    0.0000 C   0  0  0  0  0  0  0  0  0  0  0  0
    0.0149  -10.4489    0.0000 C   0  0  0  0  0  0  0  0  0  0  0  0
   -0.2337  -11.9282    0.0000 C   0  0  0  0  0  0  0  0  0  0  0  0
   -0.5891   -7.3628    0.0000 C   0  0  0  0  0  0  0  0  0  0  0  0
    0.1448   -9.4329    0.0000 O   0  0  0  0  0  0  0  0  0  0  0  0
    0.5968   -6.8516    0.0000 N   0  0  0  0  0  0  0  0  0  0  0  0
    1.5793   -6.0136    0.0000 C   0  0  0  0  0  0  0  0  0  0  0  0
    3.5928   -6.6842    0.0000 C   0  0  0  0  0  0  0  0  0  0  0  0
    4.1520   -8.0761    0.0000 C   0  0  0  0  0  0  0  0  0  0  0  0
    5.6370   -8.2877    0.0000 C   0  0  0  0  0  0  0  0  0  0  0  0
    4.2015   -9.5753    0.0000 C   0  0  0  0  0  0  0  0  0  0  0  0
    2.2712   -4.9233    0.0000 C   0  0  0  0  0  0  0  0  0  0  0  0
    4.2837   -5.8120    0.0000 O   0  0  0  0  0  0  0  0  0  0  0  0
    2.6109   -3.6774    0.0000 N   0  0  0  0  0  0  0  0  0  0  0  0
    2.5684   -2.3868    0.0000 C   0  0  0  0  0  0  0  0  0  0  0  0
    2.1473   -1.1661    0.0000 C   0  0  0  0  0  0  0  0  0  0  0  0
    1.3851   -0.1236    0.0000 C   0  0  0  0  0  0  0  0  0  0  0  0
    0.3495    0.6478    0.0000 C   0  0  0  0  0  0  0  0  0  0  0  0
   -0.8675    1.0797    0.0000 C   0  0  0  0  0  0  0  0  0  0  0  0
    4.6436   -2.8313    0.0000 C   0  0  0  0  0  0  0  0  0  0  0  0
    4.3481   -1.2307    0.0000 C   0  0  0  0  0  0  0  0  0  0  0  0
    4.3660    0.2692    0.0000 O   0  0  0  0  0  0  0  0  0  0  0  0
    5.7849   -1.6613    0.0000 N   0  0  0  0  0  0  0  0  0  0  0  0
    6.8763   -0.6322    0.0000 C   0  0  0  0  0  0  0  0  0  0  0  0
    7.5499    0.7080    0.0000 C   0  0  0  0  0  0  0  0  0  0  0  0
    9.0473    0.7948    0.0000 C   0  0  0  0  0  0  0  0  0  0  0  0
    9.7209    2.1351    0.0000 C   0  0  0  0  0  0  0  0  0  0  0  0
   10.4842    0.3642    0.0000 C   0  0  0  0  0  0  0  0  0  0  0  0
    8.3131   -1.0628    0.0000 C   0  0  0  0  0  0  0  0  0  0  0  0
    8.6587   -2.5225    0.0000 O   0  0  0  0  0  0  0  0  0  0  0  0
    9.4045   -0.0338    0.0000 N   0  0  0  0  0  0  0  0  0  0  0  0
   10.8414   -0.4644    0.0000 C   0  0  0  0  0  0  0  0  0  0  0  0
   12.0443   -1.3605    0.0000 C   0  0  0  0  0  0  0  0  0  0  0  0
   11.8697   -2.8503    0.0000 C   0  0  0  0  0  0  0  0  0  0  0  0
   13.0727   -3.7463    0.0000 C   0  0  0  0  0  0  0  0  0  0  0  0
   12.8981   -5.2361    0.0000 O   0  0  0  0  0  0  0  0  0  0  0  0
   14.4502   -3.1526    0.0000 O   0  0  0  0  0  0  0  0  0  0  0  0
   11.9327    0.5647    0.0000 C   0  0  0  0  0  0  0  0  0  0  0  0
   11.7677    2.0556    0.0000 O   0  0  0  0  0  0  0  0  0  0  0  0
   13.3696    0.1341    0.0000 N   0  0  0  0  0  0  0  0  0  0  0  0
   14.4609    1.1631    0.0000 C   0  0  0  0  0  0  0  0  0  0  0  0
   15.1345    2.5034    0.0000 C   0  0  0  0  0  0  0  0  0  0  0  0
   16.6320    2.5902    0.0000 C   0  0  0  0  0  0  0  0  0  0  0  0
   17.3056    3.9304    0.0000 C   0  0  0  0  0  0  0  0  0  0  0  0
   18.7813    4.1991    0.0000 N   0  0  0  0  0  0  0  0  0  0  0  0
   16.4816    5.1839    0.0000 O   0  0  0  0  0  0  0  0  0  0  0  0
   15.8978    0.7325    0.0000 C   0  0  0  0  0  0  0  0  0  0  0  0
   16.2433   -0.7271    0.0000 O   0  0  0  0  0  0  0  0  0  0  0  0
   16.9891    1.7616    0.0000 N   0  0  0  0  0  0  0  0  0  0  0  0
   18.4260    1.3310    0.0000 C   0  0  0  0  0  0  0  0  0  0  0  0
   19.6289    0.4349    0.0000 C   0  0  0  0  0  0  0  0  0  0  0  0
   19.4544   -1.0549    0.0000 C   0  0  0  0  0  0  0  0  0  0  0  0
   20.6573   -1.9510    0.0000 C   0  0  0  0  0  0  0  0  0  0  0  0
   20.4827   -3.4408    0.0000 N   0  0  0  0  0  0  0  0  0  0  0  0
   22.0348   -1.3573    0.0000 O   0  0  0  0  0  0  0  0  0  0  0  0
   19.5173    2.3600    0.0000 C   0  0  0  0  0  0  0  0  0  0  0  0
   19.3971    3.4469    0.0000 O   0  0  0  0  0  0  0  0  0  0  0  0
   20.9542    1.9294    0.0000 N   0  0  0  0  0  0  0  0  0  0  0  0
   22.0456    2.9585    0.0000 C   0  0  0  0  0  0  0  0  0  0  0  0
   22.7191    4.2987    0.0000 C   0  0  0  0  0  0  0  0  0  0  0  0
   24.1949    4.5674    0.0000 C   0  0  0  0  0  0  0  0  0  0  0  0
   23.4824    2.5279    0.0000 C   0  0  0  0  0  0  0  0  0  0  0  0
   23.8279    1.0682    0.0000 O   0  0  0  0  0  0  0  0  0  0  0  0
   24.5738    3.5569    0.0000 N   0  0  0  0  0  0  0  0  0  0  0  0
   26.0106    3.1263    0.0000 C   0  0  0  0  0  0  0  0  0  0  0  0
   27.2136    2.2302    0.0000 C   0  0  0  0  0  0  0  0  0  0  0  0
   27.0390    0.7404    0.0000 C   0  0  0  0  0  0  0  0  0  0  0  0
   28.2419   -0.1556    0.0000 C   0  0  0  0  0  0  0  0  0  0  0  0
   28.0674   -1.6455    0.0000 N   0  0  0  0  0  0  0  0  0  0  0  0
   29.2703   -2.5415    0.0000 C   0  0  0  0  0  0  0  0  0  0  0  0
   29.0958   -4.0313    0.0000 N   0  0  0  0  0  0  0  0  0  0  0  0
   30.6478   -1.9478    0.0000 N   0  0  0  0  0  0  0  0  0  0  0  0
   27.1020    4.1554    0.0000 C   0  0  0  0  0  0  0  0  0  0  0  0
   26.7565    5.6150    0.0000 O   0  0  0  0  0  0  0  0  0  0  0  0
   28.5388    3.7248    0.0000 N   0  0  0  0  0  0  0  0  0  0  0  0
   29.6302    4.7538    0.0000 C   0  0  0  0  0  0  0  0  0  0  0  0
   30.3038    6.0941    0.0000 C   0  0  0  0  0  0  0  0  0  0  0  0
   31.8013    6.1809    0.0000 C   0  0  0  0  0  0  0  0  0  0  0  0
   32.4748    7.5211    0.0000 C   0  0  0  0  0  0  0  0  0  0  0  0
   33.6702    7.7388    0.0000 O   0  0  0  0  0  0  0  0  0  0  0  0
   31.6509    8.7746    0.0000 O   0  0  0  0  0  0  0  0  0  0  0  0
   31.0671    4.3232    0.0000 C   0  0  0  0  0  0  0  0  0  0  0  0
   31.4126    2.8635    0.0000 O   0  0  0  0  0  0  0  0  0  0  0  0
   32.1584    5.3523    0.0000 N   0  0  0  0  0  0  0  0  0  0  0  0
   33.5953    4.9217    0.0000 C   0  0  0  0  0  0  0  0  0  0  0  0
   34.7982    4.0256    0.0000 C   0  0  0  0  0  0  0  0  0  0  0  0
   34.6237    2.5358    0.0000 C   0  0  0  0  0  0  0  0  0  0  0  0
   35.8266    1.6397    0.0000 C   0  0  0  0  0  0  0  0  0  0  0  0
   35.6520    0.1499    0.0000 N   0  0  0  0  0  0  0  0  0  0  0  0
   36.8550   -0.7462    0.0000 C   0  0  0  0  0  0  0  0  0  0  0  0
   36.6804   -2.2360    0.0000 N   0  0  0  0  0  0  0  0  0  0  0  0
   38.2325   -0.1525    0.0000 N   0  0  0  0  0  0  0  0  0  0  0  0
   34.6866    5.9507    0.0000 C   0  0  0  0  0  0  0  0  0  0  0  0
   36.1653    5.6985    0.0000 O   0  0  0  0  0  0  0  0  0  0  0  0
   34.5530    7.1583    0.0000 O   0  0  0  0  0  0  0  0  0  0  0  0
  -36.3939    8.2496    0.0000 H   0  0  0  0  0  0  0  0  0  0  0  0
  -34.0915    9.4534    0.0000 H   0  0  0  0  0  0  0  0  0  0  0  0
  -35.6300    6.4040    0.0000 H   0  0  0  0  0  0  0  0  0  0  0  0
  -34.0017    5.3708    0.0000 H   0  0  0  0  0  0  0  0  0  0  0  0
  -32.9000    8.2817    0.0000 H   0  0  0  0  0  0  0  0  0  0  0  0
  -31.2718    7.2485    0.0000 H   0  0  0  0  0  0  0  0  0  0  0  0
  -29.7041    6.6694    0.0000 H   0  0  0  0  0  0  0  0  0  0  0  0
  -28.6244    4.9889    0.0000 H   0  0  0  0  0  0  0  0  0  0  0  0
  -32.4565    3.6708    0.0000 H   0  0  0  0  0  0  0  0  0  0  0  0
  -31.6452    4.6366    0.0000 H   0  0  0  0  0  0  0  0  0  0  0  0
  -30.0659    2.0922    0.0000 H   0  0  0  0  0  0  0  0  0  0  0  0
  -33.4926    0.2865    0.0000 H   0  0  0  0  0  0  0  0  0  0  0  0
  -34.4930    1.7640    0.0000 H   0  0  0  0  0  0  0  0  0  0  0  0
  -33.3726    3.1528    0.0000 H   0  0  0  0  0  0  0  0  0  0  0  0
  -32.4341   -0.3852    0.0000 H   0  0  0  0  0  0  0  0  0  0  0  0
  -30.6711   -0.6612    0.0000 H   0  0  0  0  0  0  0  0  0  0  0  0
  -30.0794    1.0764    0.0000 H   0  0  0  0  0  0  0  0  0  0  0  0
  -26.9533    4.9808    0.0000 H   0  0  0  0  0  0  0  0  0  0  0  0
  -25.3639    3.7710    0.0000 H   0  0  0  0  0  0  0  0  0  0  0  0
  -28.7857    1.1355    0.0000 H   0  0  0  0  0  0  0  0  0  0  0  0
  -28.3520    2.7107    0.0000 H   0  0  0  0  0  0  0  0  0  0  0  0
  -25.7277    0.5560    0.0000 H   0  0  0  0  0  0  0  0  0  0  0  0
  -28.3301   -2.3129    0.0000 H   0  0  0  0  0  0  0  0  0  0  0  0
  -29.7757   -1.2666    0.0000 H   0  0  0  0  0  0  0  0  0  0  0  0
  -29.1978    0.4217    0.0000 H   0  0  0  0  0  0  0  0  0  0  0  0
  -27.1058   -2.5820    0.0000 H   0  0  0  0  0  0  0  0  0  0  0  0
  -25.4863   -2.3658    0.0000 H   0  0  0  0  0  0  0  0  0  0  0  0
  -25.1714   -0.4633    0.0000 H   0  0  0  0  0  0  0  0  0  0  0  0
  -24.1447    4.2428    0.0000 H   0  0  0  0  0  0  0  0  0  0  0  0
  -22.8488    0.9216    0.0000 H   0  0  0  0  0  0  0  0  0  0  0  0
  -23.3633    3.9866    0.0000 H   0  0  0  0  0  0  0  0  0  0  0  0
  -20.3127    5.6886    0.0000 H   0  0  0  0  0  0  0  0  0  0  0  0
  -19.0147    3.7718    0.0000 H   0  0  0  0  0  0  0  0  0  0  0  0
  -20.2552    2.7085    0.0000 H   0  0  0  0  0  0  0  0  0  0  0  0
  -22.7769    6.5577    0.0000 H   0  0  0  0  0  0  0  0  0  0  0  0
  -23.5563    4.9525    0.0000 H   0  0  0  0  0  0  0  0  0  0  0  0
  -21.0920    7.6306    0.0000 H   0  0  0  0  0  0  0  0  0  0  0  0
  -19.5297    6.7683    0.0000 H   0  0  0  0  0  0  0  0  0  0  0  0
  -19.8975    5.0222    0.0000 H   0  0  0  0  0  0  0  0  0  0  0  0
  -22.8942   -0.4758    0.0000 H   0  0  0  0  0  0  0  0  0  0  0  0
  -19.5084    0.0553    0.0000 H   0  0  0  0  0  0  0  0  0  0  0  0
  -22.1437   -3.4815    0.0000 H   0  0  0  0  0  0  0  0  0  0  0  0
  -20.3927   -3.1379    0.0000 H   0  0  0  0  0  0  0  0  0  0  0  0
  -22.5910   -0.0845    0.0000 H   0  0  0  0  0  0  0  0  0  0  0  0
  -25.5596   -2.2512    0.0000 H   0  0  0  0  0  0  0  0  0  0  0  0
  -24.8793   -3.7367    0.0000 H   0  0  0  0  0  0  0  0  0  0  0  0
  -23.0995   -3.6091    0.0000 H   0  0  0  0  0  0  0  0  0  0  0  0
  -25.4248   -0.9972    0.0000 H   0  0  0  0  0  0  0  0  0  0  0  0
  -24.8469    0.6911    0.0000 H   0  0  0  0  0  0  0  0  0  0  0  0
  -22.7039    0.2201    0.0000 H   0  0  0  0  0  0  0  0  0  0  0  0
  -18.1150    0.5841    0.0000 H   0  0  0  0  0  0  0  0  0  0  0  0
  -16.6004   -4.1620    0.0000 H   0  0  0  0  0  0  0  0  0  0  0  0
  -17.3601   -2.9027    0.0000 H   0  0  0  0  0  0  0  0  0  0  0  0
  -15.4737   -5.4827    0.0000 H   0  0  0  0  0  0  0  0  0  0  0  0
  -16.3947   -4.5535    0.0000 H   0  0  0  0  0  0  0  0  0  0  0  0
  -13.6484   -6.4588    0.0000 H   0  0  0  0  0  0  0  0  0  0  0  0
  -14.9855   -5.8463    0.0000 H   0  0  0  0  0  0  0  0  0  0  0  0
  -12.6443   -6.9382    0.0000 H   0  0  0  0  0  0  0  0  0  0  0  0
  -18.9091   -2.3653    0.0000 H   0  0  0  0  0  0  0  0  0  0  0  0
  -17.9302   -3.8651    0.0000 H   0  0  0  0  0  0  0  0  0  0  0  0
  -16.6977   -3.7684    0.0000 H   0  0  0  0  0  0  0  0  0  0  0  0
  -17.3769    2.1133    0.0000 H   0  0  0  0  0  0  0  0  0  0  0  0
  -15.4402    4.2547    0.0000 H   0  0  0  0  0  0  0  0  0  0  0  0
  -18.1539    2.6765    0.0000 H   0  0  0  0  0  0  0  0  0  0  0  0
  -17.0009    1.5189    0.0000 H   0  0  0  0  0  0  0  0  0  0  0  0
  -17.2947    5.8766    0.0000 H   0  0  0  0  0  0  0  0  0  0  0  0
  -15.8261    4.8630    0.0000 H   0  0  0  0  0  0  0  0  0  0  0  0
  -20.6914    6.6339    0.0000 H   0  0  0  0  0  0  0  0  0  0  0  0
  -18.3637    7.1611    0.0000 H   0  0  0  0  0  0  0  0  0  0  0  0
  -13.0641    5.7916    0.0000 H   0  0  0  0  0  0  0  0  0  0  0  0
  -10.3252    5.7272    0.0000 H   0  0  0  0  0  0  0  0  0  0  0  0
  -11.2119    7.1003    0.0000 H   0  0  0  0  0  0  0  0  0  0  0  0
  -13.1082    6.7502    0.0000 H   0  0  0  0  0  0  0  0  0  0  0  0
  -13.2943    5.1270    0.0000 H   0  0  0  0  0  0  0  0  0  0  0  0
   -7.4993    4.7131    0.0000 H   0  0  0  0  0  0  0  0  0  0  0  0
   -5.8419    2.5316    0.0000 H   0  0  0  0  0  0  0  0  0  0  0  0
   -6.7773    5.3453    0.0000 H   0  0  0  0  0  0  0  0  0  0  0  0
   -8.1624    4.4787    0.0000 H   0  0  0  0  0  0  0  0  0  0  0  0
   -4.7844    5.4816    0.0000 H   0  0  0  0  0  0  0  0  0  0  0  0
   -3.8486    3.7955    0.0000 H   0  0  0  0  0  0  0  0  0  0  0  0
   -5.1636    2.5892    0.0000 H   0  0  0  0  0  0  0  0  0  0  0  0
   -4.8729   -0.3101    0.0000 H   0  0  0  0  0  0  0  0  0  0  0  0
   -5.6526   -3.2095    0.0000 H   0  0  0  0  0  0  0  0  0  0  0  0
   -6.6954   -4.6502    0.0000 H   0  0  0  0  0  0  0  0  0  0  0  0
   -6.9490   -5.2712    0.0000 H   0  0  0  0  0  0  0  0  0  0  0  0
   -8.1203   -5.8540    0.0000 H   0  0  0  0  0  0  0  0  0  0  0  0
   -8.4026   -6.2582    0.0000 H   0  0  0  0  0  0  0  0  0  0  0  0
   -9.6582   -6.6258    0.0000 H   0  0  0  0  0  0  0  0  0  0  0  0
  -10.6989   -7.0196    0.0000 H   0  0  0  0  0  0  0  0  0  0  0  0
   -7.4406   -0.4892    0.0000 H   0  0  0  0  0  0  0  0  0  0  0  0
   -6.3978    0.9515    0.0000 H   0  0  0  0  0  0  0  0  0  0  0  0
   -6.1443    1.5725    0.0000 H   0  0  0  0  0  0  0  0  0  0  0  0
   -4.7900    2.1461    0.0000 H   0  0  0  0  0  0  0  0  0  0  0  0
   -4.8186    2.4285    0.0000 H   0  0  0  0  0  0  0  0  0  0  0  0
   -3.4350    2.9271    0.0000 H   0  0  0  0  0  0  0  0  0  0  0  0
   -2.3943    3.3209    0.0000 H   0  0  0  0  0  0  0  0  0  0  0  0
   -7.7064   -5.6319    0.0000 H   0  0  0  0  0  0  0  0  0  0  0  0
   -7.2513   -6.2303    0.0000 H   0  0  0  0  0  0  0  0  0  0  0  0
   -7.2741   -8.6768    0.0000 H   0  0  0  0  0  0  0  0  0  0  0  0
   -7.6613   -6.9348    0.0000 H   0  0  0  0  0  0  0  0  0  0  0  0
   -5.8828  -10.1100    0.0000 H   0  0  0  0  0  0  0  0  0  0  0  0
   -4.1516   -9.6512    0.0000 H   0  0  0  0  0  0  0  0  0  0  0  0
   -4.0964   -7.8876    0.0000 H   0  0  0  0  0  0  0  0  0  0  0  0
   -3.7005   -9.3799    0.0000 H   0  0  0  0  0  0  0  0  0  0  0  0
   -2.9109   -9.3113    0.0000 H   0  0  0  0  0  0  0  0  0  0  0  0
    0.2011   -8.8257    0.0000 H   0  0  0  0  0  0  0  0  0  0  0  0
   -1.2976  -12.1930    0.0000 H   0  0  0  0  0  0  0  0  0  0  0  0
   -3.0227  -11.7724    0.0000 H   0  0  0  0  0  0  0  0  0  0  0  0
   -3.1459   -9.9922    0.0000 H   0  0  0  0  0  0  0  0  0  0  0  0
    1.4285  -10.9506    0.0000 H   0  0  0  0  0  0  0  0  0  0  0  0
    0.9080   -9.2438    0.0000 H   0  0  0  0  0  0  0  0  0  0  0  0
    0.9231  -12.8831    0.0000 H   0  0  0  0  0  0  0  0  0  0  0  0
   -0.9732  -13.2332    0.0000 H   0  0  0  0  0  0  0  0  0  0  0  0
   -1.7267  -11.7835    0.0000 H   0  0  0  0  0  0  0  0  0  0  0  0
    1.7589   -8.7196    0.0000 H   0  0  0  0  0  0  0  0  0  0  0  0
    2.3470   -7.9534    0.0000 H   0  0  0  0  0  0  0  0  0  0  0  0
    5.0120   -6.1986    0.0000 H   0  0  0  0  0  0  0  0  0  0  0  0
    3.9076   -5.2176    0.0000 H   0  0  0  0  0  0  0  0  0  0  0  0
    2.7328   -8.5617    0.0000 H   0  0  0  0  0  0  0  0  0  0  0  0
    6.3617   -9.6011    0.0000 H   0  0  0  0  0  0  0  0  0  0  0  0
    7.1048   -7.9787    0.0000 H   0  0  0  0  0  0  0  0  0  0  0  0
    5.7707   -6.7937    0.0000 H   0  0  0  0  0  0  0  0  0  0  0  0
    5.4285  -10.4381    0.0000 H   0  0  0  0  0  0  0  0  0  0  0  0
    3.7352  -11.0010    0.0000 H   0  0  0  0  0  0  0  0  0  0  0  0
    2.7165   -9.3636    0.0000 H   0  0  0  0  0  0  0  0  0  0  0  0
    4.7960   -3.9335    0.0000 H   0  0  0  0  0  0  0  0  0  0  0  0
    3.5071    0.4633    0.0000 H   0  0  0  0  0  0  0  0  0  0  0  0
    4.2501   -0.6136    0.0000 H   0  0  0  0  0  0  0  0  0  0  0  0
    2.3804    1.7840    0.0000 H   0  0  0  0  0  0  0  0  0  0  0  0
    3.2317    1.0241    0.0000 H   0  0  0  0  0  0  0  0  0  0  0  0
    0.5552    2.7601    0.0000 H   0  0  0  0  0  0  0  0  0  0  0  0
    1.8923    2.1476    0.0000 H   0  0  0  0  0  0  0  0  0  0  0  0
   -0.4489    3.2395    0.0000 H   0  0  0  0  0  0  0  0  0  0  0  0
    6.0181   -2.2307    0.0000 H   0  0  0  0  0  0  0  0  0  0  0  0
    5.6198   -3.9701    0.0000 H   0  0  0  0  0  0  0  0  0  0  0  0
    4.1702   -4.2546    0.0000 H   0  0  0  0  0  0  0  0  0  0  0  0
    6.3058   -3.0679    0.0000 H   0  0  0  0  0  0  0  0  0  0  0  0
    5.6733    0.2639    0.0000 H   0  0  0  0  0  0  0  0  0  0  0  0
    7.5415    2.2080    0.0000 H   0  0  0  0  0  0  0  0  0  0  0  0
    6.1130    1.1387    0.0000 H   0  0  0  0  0  0  0  0  0  0  0  0
    9.5928   -0.6025    0.0000 H   0  0  0  0  0  0  0  0  0  0  0  0
   11.1529    2.5817    0.0000 H   0  0  0  0  0  0  0  0  0  0  0  0
    9.8955    3.6249    0.0000 H   0  0  0  0  0  0  0  0  0  0  0  0
    8.3473    2.7376    0.0000 H   0  0  0  0  0  0  0  0  0  0  0  0
   11.1727   -0.9684    0.0000 H   0  0  0  0  0  0  0  0  0  0  0  0
   11.8511    0.9820    0.0000 H   0  0  0  0  0  0  0  0  0  0  0  0
   10.8391    1.8217    0.0000 H   0  0  0  0  0  0  0  0  0  0  0  0
    9.4225    1.4661    0.0000 H   0  0  0  0  0  0  0  0  0  0  0  0
   10.0094   -1.7125    0.0000 H   0  0  0  0  0  0  0  0  0  0  0  0
   13.4180   -1.9630    0.0000 H   0  0  0  0  0  0  0  0  0  0  0  0
   13.1535   -0.3507    0.0000 H   0  0  0  0  0  0  0  0  0  0  0  0
   11.1962   -4.1905    0.0000 H   0  0  0  0  0  0  0  0  0  0  0  0
   10.3911   -2.5980    0.0000 H   0  0  0  0  0  0  0  0  0  0  0  0
   13.8904   -1.2726    0.0000 H   0  0  0  0  0  0  0  0  0  0  0  0
   13.2580    2.0592    0.0000 H   0  0  0  0  0  0  0  0  0  0  0  0
   15.3091    3.9932    0.0000 H   0  0  0  0  0  0  0  0  0  0  0  0
   13.6976    2.9340    0.0000 H   0  0  0  0  0  0  0  0  0  0  0  0
   18.0688    2.1596    0.0000 H   0  0  0  0  0  0  0  0  0  0  0  0
   17.1774    1.1929    0.0000 H   0  0  0  0  0  0  0  0  0  0  0  0
   19.4766    5.3575    0.0000 H   0  0  0  0  0  0  0  0  0  0  0  0
   19.9491    3.0111    0.0000 H   0  0  0  0  0  0  0  0  0  0  0  0
   17.0071    3.2615    0.0000 H   0  0  0  0  0  0  0  0  0  0  0  0
   17.5941    0.0828    0.0000 H   0  0  0  0  0  0  0  0  0  0  0  0
   21.0026   -0.1677    0.0000 H   0  0  0  0  0  0  0  0  0  0  0  0
   20.6068    1.5723    0.0000 H   0  0  0  0  0  0  0  0  0  0  0  0
   18.7808   -2.3952    0.0000 H   0  0  0  0  0  0  0  0  0  0  0  0
   17.9757   -0.8027    0.0000 H   0  0  0  0  0  0  0  0  0  0  0  0
   21.6857   -4.3369    0.0000 H   0  0  0  0  0  0  0  0  0  0  0  0
   19.1053   -4.0345    0.0000 H   0  0  0  0  0  0  0  0  0  0  0  0
   21.4751    0.5228    0.0000 H   0  0  0  0  0  0  0  0  0  0  0  0
   20.8426    3.8545    0.0000 H   0  0  0  0  0  0  0  0  0  0  0  0
   22.8937    5.7885    0.0000 H   0  0  0  0  0  0  0  0  0  0  0  0
   21.2823    4.7293    0.0000 H   0  0  0  0  0  0  0  0  0  0  0  0
   24.8902    5.7258    0.0000 H   0  0  0  0  0  0  0  0  0  0  0  0
   25.6535    3.9549    0.0000 H   0  0  0  0  0  0  0  0  0  0  0  0
   24.7621    2.9882    0.0000 H   0  0  0  0  0  0  0  0  0  0  0  0
   24.4088    5.0478    0.0000 H   0  0  0  0  0  0  0  0  0  0  0  0
   25.1787    1.8782    0.0000 H   0  0  0  0  0  0  0  0  0  0  0  0
   28.6504    1.7996    0.0000 H   0  0  0  0  0  0  0  0  0  0  0  0
   28.1914    3.3677    0.0000 H   0  0  0  0  0  0  0  0  0  0  0  0
   26.3654   -0.5998    0.0000 H   0  0  0  0  0  0  0  0  0  0  0  0
   25.5604    0.9927    0.0000 H   0  0  0  0  0  0  0  0  0  0  0  0
   29.6788   -0.5863    0.0000 H   0  0  0  0  0  0  0  0  0  0  0  0
   29.0739    1.0925    0.0000 H   0  0  0  0  0  0  0  0  0  0  0  0
   26.6899   -2.2392    0.0000 H   0  0  0  0  0  0  0  0  0  0  0  0
   30.2987   -4.9274    0.0000 H   0  0  0  0  0  0  0  0  0  0  0  0
   27.7183   -4.6251    0.0000 H   0  0  0  0  0  0  0  0  0  0  0  0
   31.8507   -2.8439    0.0000 H   0  0  0  0  0  0  0  0  0  0  0  0
   30.8224   -0.4580    0.0000 H   0  0  0  0  0  0  0  0  0  0  0  0
   29.0597    2.3181    0.0000 H   0  0  0  0  0  0  0  0  0  0  0  0
   28.4273    5.6499    0.0000 H   0  0  0  0  0  0  0  0  0  0  0  0
   30.4783    7.5839    0.0000 H   0  0  0  0  0  0  0  0  0  0  0  0
   28.8669    6.5247    0.0000 H   0  0  0  0  0  0  0  0  0  0  0  0
   33.2381    5.7503    0.0000 H   0  0  0  0  0  0  0  0  0  0  0  0
   32.3467    4.7836    0.0000 H   0  0  0  0  0  0  0  0  0  0  0  0
   32.1764    6.8522    0.0000 H   0  0  0  0  0  0  0  0  0  0  0  0
   32.7634    3.6735    0.0000 H   0  0  0  0  0  0  0  0  0  0  0  0
   36.2768    3.7733    0.0000 H   0  0  0  0  0  0  0  0  0  0  0  0
   35.6301    5.2737    0.0000 H   0  0  0  0  0  0  0  0  0  0  0  0
   33.9501    1.1955    0.0000 H   0  0  0  0  0  0  0  0  0  0  0  0
   33.1450    2.7880    0.0000 H   0  0  0  0  0  0  0  0  0  0  0  0
   37.2634    1.2091    0.0000 H   0  0  0  0  0  0  0  0  0  0  0  0
   36.6585    2.8879    0.0000 H   0  0  0  0  0  0  0  0  0  0  0  0
   34.2745   -0.4438    0.0000 H   0  0  0  0  0  0  0  0  0  0  0  0
   37.8833   -3.1321    0.0000 H   0  0  0  0  0  0  0  0  0  0  0  0
   35.3029   -2.8297    0.0000 H   0  0  0  0  0  0  0  0  0  0  0  0
   39.4354   -1.0485    0.0000 H   0  0  0  0  0  0  0  0  0  0  0  0
   38.4070    1.3374    0.0000 H   0  0  0  0  0  0  0  0  0  0  0  0
  1  2  1  0
  2  3  1  0
  3  4  1  0
  4  5  2  0
  4  6  1  0
  6  7  1  0
  7  8  1  0
  8  9  1  0
  9 10  1  0
  9 11  1  0
  7 12  1  0
 12 13  2  0
 12 14  1  0
 14 15  1  0
 15 16  1  0
 16 17  1  0
 17 18  1  0
 17 19  1  0
 15 20  1  0
 20 21  2  0
 20 22  1  0
 22 23  1  0
 23 24  1  0
 24 25  1  0
 24 26  1  0
 26 27  1  0
 23 28  1  0
 28 29  2  0
 28 30  1  0
 30 31  1  0
 31 32  1  0
 32 33  1  0
 33 34  1  0
 33 35  1  0
 31 36  1  0
 36 37  2  0
 36 38  1  0
 39 38  1  6
 39 40  1  0
 40 41  1  0
 41 42  1  0
 42 43  1  0
 39 44  1  0
 39 45  1  0
 45 46  2  0
 45 47  1  0
 47 48  1  0
 48 49  1  0
 49 50  1  0
 50 51  1  0
 51 52  1  0
 51 53  2  0
 48 54  1  0
 54 55  2  0
 54 56  1  0
 56 57  1  0
 57 58  1  0
 57 59  1  0
 59 60  2  0
 59 61  1  0
 61 62  1  0
 62 63  1  0
 63 64  1  0
 62 65  1  0
 65 66  2  0
 65 67  1  0
 67 68  1  0
 68 69  1  0
 69 70  1  0
 70 71  1  0
 71 72  1  0
 68 73  1  0
 73 74  1  0
 74 75  1  0
 75 76  1  0
 68 77  1  0
 77 78  2  0
 77 79  1  0
 79 80  1  0
 80 81  1  0
 81 82  1  0
 80 83  1  0
 83 84  2  0
 83 85  1  0
 85 86  1  0
 86 87  1  0
 87 88  1  0
 87 89  1  0
 89 90  1  0
 86 91  1  0
 91 92  2  0
 91 93  1  0
 93 94  1  0
 94 95  1  0
 95 96  1  0
 96 97  1  0
 96 98  1  0
 94 99  1  0
 99100  2  0
 99101  1  0
101102  1  0
102103  1  0
103104  1  0
104105  1  0
105106  1  0
102107  1  0
102108  1  6
108109  2  0
108110  1  0
110111  1  0
111112  1  0
112113  1  0
113114  1  0
113115  1  0
111116  1  0
116117  2  0
116118  1  0
118119  1  0
119120  1  0
120121  1  0
121122  1  0
122123  2  0
122124  1  0
119125  1  0
125126  2  0
125127  1  0
127128  1  0
128129  1  0
129130  1  0
130131  1  0
131132  1  0
131133  2  0
128134  1  0
134135  2  0
134136  1  0
136137  1  0
137138  1  0
138139  1  0
139140  1  0
140141  1  0
140142  2  0
137143  1  0
143144  2  0
143145  1  0
145146  1  0
146147  1  0
147148  1  0
146149  1  0
149150  2  0
149151  1  0
151152  1  0
152153  1  0
153154  1  0
154155  1  0
155156  1  0
156157  1  0
157158  2  3
157159  1  0
152160  1  0
160161  2  0
160162  1  0
162163  1  0
163164  1  0
164165  1  0
165166  1  0
166167  2  0
166168  1  0
163169  1  0
169170  2  0
169171  1  0
171172  1  0
172173  1  0
173174  1  0
174175  1  0
175176  1  0
176177  1  0
177178  2  3
177179  1  0
172180  1  0
180181  2  0
180182  1  0
 43 72  2  0
 76106  2  0
  1183  1  0
  1184  1  0
  2185  1  0
  2186  1  0
  3187  1  0
  3188  1  0
  6189  1  0
  7190  1  6
  8191  1  0
  8192  1  0
  9193  1  0
 10194  1  0
 10195  1  0
 10196  1  0
 11197  1  0
 11198  1  0
 11199  1  0
 14200  1  0
 15201  1  6
 16202  1  0
 16203  1  0
 17204  1  0
 18205  1  0
 18206  1  0
 18207  1  0
 19208  1  0
 19209  1  0
 19210  1  0
 22211  1  0
 23212  1  1
 24213  1  1
 25214  1  0
 25215  1  0
 25216  1  0
 26217  1  0
 26218  1  0
 27219  1  0
 27220  1  0
 27221  1  0
 30222  1  0
 31223  1  6
 32224  1  0
 32225  1  0
 33226  1  0
 34227  1  0
 34228  1  0
 34229  1  0
 35230  1  0
 35231  1  0
 35232  1  0
 38233  1  0
 40234  1  0
 40235  1  0
 41236  1  0
 41237  1  0
 42238  1  0
 42239  1  0
 43240  1  0
 44241  1  0
 44242  1  0
 44243  1  0
 47244  1  0
 48245  1  1
 49246  1  0
 49247  1  0
 50248  1  0
 50249  1  0
 52250  1  0
 52251  1  0
 56252  1  0
 57253  1  1
 58254  1  0
 58255  1  0
 58256  1  0
 61257  1  0
 62258  1  1
 63259  1  0
 63260  1  0
 64261  1  0
 64262  1  0
 64263  1  0
 67264  1  0
 69265  1  0
 69266  1  0
 70267  1  0
 70268  1  0
 71269  1  0
 71270  1  0
 72271  1  0
 73272  1  0
 73273  1  0
 74274  1  0
 74275  1  0
 75276  1  0
 75277  1  0
 76278  1  0
 79279  1  0
 80280  1  6
 81281  1  0
 81282  1  0
 82283  1  0
 82284  1  0
 82285  1  0
 85286  1  0
 86287  1  6
 87288  1  1
 88289  1  0
 88290  1  0
 88291  1  0
 89292  1  0
 89293  1  0
 90294  1  0
 90295  1  0
 90296  1  0
 93297  1  0
 94298  1  6
 95299  1  0
 95300  1  0
 96301  1  0
 97302  1  0
 97303  1  0
 97304  1  0
 98305  1  0
 98306  1  0
 98307  1  0
101308  1  0
103309  1  0
103310  1  0
104311  1  0
104312  1  0
105313  1  0
105314  1  0
106315  1  0
107316  1  0
107317  1  0
107318  1  0
110319  1  0
111320  1  1
112321  1  0
112322  1  0
113323  1  0
114324  1  0
114325  1  0
114326  1  0
115327  1  0
115328  1  0
115329  1  0
118330  1  0
119331  1  6
120332  1  0
120333  1  0
121334  1  0
121335  1  0
127336  1  0
128337  1  1
129338  1  0
129339  1  0
130340  1  0
130341  1  0
132342  1  0
132343  1  0
136344  1  0
137345  1  6
138346  1  0
138347  1  0
139348  1  0
139349  1  0
141350  1  0
141351  1  0
145352  1  0
146353  1  1
147354  1  0
147355  1  0
148356  1  0
148357  1  0
148358  1  0
151359  1  0
152360  1  6
153361  1  0
153362  1  0
154363  1  0
154364  1  0
155365  1  0
155366  1  0
156367  1  0
158368  1  0
158369  1  0
159370  1  0
159371  1  0
162372  1  0
163373  1  1
164374  1  0
164375  1  0
165376  1  0
165377  1  0
171378  1  0
172379  1  6
173380  1  0
173381  1  0
174382  1  0
174383  1  0
175384  1  0
175385  1  0
176386  1  0
178387  1  0
178388  1  0
179389  1  0
179390  1  0
M  CHG  5 124  -1 158   1 168  -1 178   1 182  -1
M  END
