
     RDKit          2D

419427  0  0  0  0  0  0  0  0999 V2000
   13.1803  -10.8616    0.0000 C   0  0  0  0  0  0  0  0  0  0  0  0
   13.5996  -12.3018    0.0000 N   0  0  0  0  0  0  0  0  0  0  0  0
   12.5621  -13.3851    0.0000 C   0  0  0  0  0  0  0  0  0  0  0  0
   11.1052  -13.0282    0.0000 C   0  0  0  0  0  0  0  0  0  0  0  0
   10.0676  -14.1115    0.0000 C   0  0  0  0  0  0  0  0  0  0  0  0
   10.4870  -15.5517    0.0000 C   0  0  0  0  0  0  0  0  0  0  0  0
   11.9439  -15.9086    0.0000 C   0  0  0  0  0  0  0  0  0  0  0  0
   12.9815  -14.8253    0.0000 C   0  0  0  0  0  0  0  0  0  0  0  0
   12.0547  -17.4045    0.0000 C   0  0  0  0  0  0  0  0  0  0  0  0
   10.6663  -17.9721    0.0000 O   0  0  0  0  0  0  0  0  0  0  0  0
    9.6974  -16.8270    0.0000 C   0  0  0  0  0  0  0  0  0  0  0  0
    8.2015  -16.9378    0.0000 O   0  0  0  0  0  0  0  0  0  0  0  0
   12.0086  -18.9037    0.0000 C   0  0  0  0  0  0  0  0  0  0  0  0
   13.2839  -19.6934    0.0000 C   0  0  0  0  0  0  0  0  0  0  0  0
   13.2377  -21.1927    0.0000 C   0  0  0  0  0  0  0  0  0  0  0  0
   11.9162  -21.9023    0.0000 C   0  0  0  0  0  0  0  0  0  0  0  0
   10.6409  -21.1127    0.0000 C   0  0  0  0  0  0  0  0  0  0  0  0
   10.6870  -19.6134    0.0000 C   0  0  0  0  0  0  0  0  0  0  0  0
   11.8700  -23.4016    0.0000 O   0  0  0  0  0  0  0  0  0  0  0  0
   14.6054  -18.9837    0.0000 O   0  0  0  0  0  0  0  0  0  0  0  0
   14.6516  -17.4844    0.0000 C   0  0  0  0  0  0  0  0  0  0  0  0
   13.3762  -16.6948    0.0000 C   0  0  0  0  0  0  0  0  0  0  0  0
   14.0176  -15.5640    0.0000 C   0  0  0  0  0  0  0  0  0  0  0  0
   14.7224  -15.1855    0.0000 C   0  0  0  0  0  0  0  0  0  0  0  0
   15.4026  -15.6067    0.0000 C   0  0  0  0  0  0  0  0  0  0  0  0
   15.3779  -16.4063    0.0000 C   0  0  0  0  0  0  0  0  0  0  0  0
   17.3408  -14.5659    0.0000 O   0  0  0  0  0  0  0  0  0  0  0  0
   11.7233  -10.5047    0.0000 S   0  0  0  0  0  0  0  0  0  0  0  0
   14.2178   -9.7783    0.0000 N   0  0  0  0  0  0  0  0  0  0  0  0
   13.7984   -8.3382    0.0000 C   0  0  0  0  0  0  0  0  0  0  0  0
   14.8359   -7.2549    0.0000 C   0  0  0  0  0  0  0  0  0  0  0  0
   14.4166   -5.8147    0.0000 C   0  0  0  0  0  0  0  0  0  0  0  0
   13.0666   -5.8203    0.0000 O   0  0  0  0  0  0  0  0  0  0  0  0
   15.4541   -4.7314    0.0000 N   0  0  0  0  0  0  0  0  0  0  0  0
   15.0347   -3.2912    0.0000 C   0  0  0  0  0  0  0  0  0  0  0  0
   13.9306   -4.3065    0.0000 C   0  0  0  0  0  0  0  0  0  0  0  0
   12.6542   -5.0945    0.0000 C   0  0  0  0  0  0  0  0  0  0  0  0
   11.2518   -5.6267    0.0000 C   0  0  0  0  0  0  0  0  0  0  0  0
    9.7740   -5.8839    0.0000 C   0  0  0  0  0  0  0  0  0  0  0  0
    8.2743   -5.8567    0.0000 C   0  0  0  0  0  0  0  0  0  0  0  0
    6.8067   -5.5463    0.0000 C   0  0  0  0  0  0  0  0  0  0  0  0
    5.4245   -4.9637    0.0000 C   0  0  0  0  0  0  0  0  0  0  0  0
   16.5113   -3.5550    0.0000 C   0  0  0  0  0  0  0  0  0  0  0  0
   15.9268   -2.0853    0.0000 C   0  0  0  0  0  0  0  0  0  0  0  0
   17.2967   -2.6963    0.0000 O   0  0  0  0  0  0  0  0  0  0  0  0
   16.5745   -0.7324    0.0000 N   0  0  0  0  0  0  0  0  0  0  0  0
   16.9544    0.7187    0.0000 C   0  0  0  0  0  0  0  0  0  0  0  0
   18.3393    1.2951    0.0000 C   0  0  0  0  0  0  0  0  0  0  0  0
   19.5309    0.3841    0.0000 C   0  0  0  0  0  0  0  0  0  0  0  0
   20.9157    0.9605    0.0000 C   0  0  0  0  0  0  0  0  0  0  0  0
   22.1073    0.0494    0.0000 N   0  0  0  0  0  0  0  0  0  0  0  0
   23.4921    0.6259    0.0000 C   0  0  0  0  0  0  0  0  0  0  0  0
   24.6837   -0.2852    0.0000 N   0  0  0  0  0  0  0  0  0  0  0  0
   23.6853    2.1134    0.0000 N   0  0  0  0  0  0  0  0  0  0  0  0
   17.0529    2.2155    0.0000 C   0  0  0  0  0  0  0  0  0  0  0  0
   18.5357    2.4422    0.0000 O   0  0  0  0  0  0  0  0  0  0  0  0
   16.8664    3.7038    0.0000 N   0  0  0  0  0  0  0  0  0  0  0  0
   16.4015    5.1300    0.0000 C   0  0  0  0  0  0  0  0  0  0  0  0
   17.2548    6.3636    0.0000 C   0  0  0  0  0  0  0  0  0  0  0  0
   18.7498    6.2414    0.0000 C   0  0  0  0  0  0  0  0  0  0  0  0
   19.6032    7.4750    0.0000 C   0  0  0  0  0  0  0  0  0  0  0  0
   21.0982    7.3528    0.0000 N   0  0  0  0  0  0  0  0  0  0  0  0
   18.9615    8.8308    0.0000 O   0  0  0  0  0  0  0  0  0  0  0  0
   15.6751    6.4424    0.0000 C   0  0  0  0  0  0  0  0  0  0  0  0
   16.8000    7.4347    0.0000 O   0  0  0  0  0  0  0  0  0  0  0  0
   14.7135    7.5936    0.0000 N   0  0  0  0  0  0  0  0  0  0  0  0
   13.5514    8.5420    0.0000 C   0  0  0  0  0  0  0  0  0  0  0  0
   13.6023   10.0412    0.0000 C   0  0  0  0  0  0  0  0  0  0  0  0
   12.2308    9.2534    0.0000 C   0  0  0  0  0  0  0  0  0  0  0  0
   12.6406   10.6963    0.0000 O   0  0  0  0  0  0  0  0  0  0  0  0
   10.7995    9.7020    0.0000 N   0  0  0  0  0  0  0  0  0  0  0  0
    9.3091    9.8715    0.0000 C   0  0  0  0  0  0  0  0  0  0  0  0
    8.5414   11.1602    0.0000 C   0  0  0  0  0  0  0  0  0  0  0  0
    9.2736   12.4694    0.0000 C   0  0  0  0  0  0  0  0  0  0  0  0
    8.5060   13.7581    0.0000 C   0  0  0  0  0  0  0  0  0  0  0  0
    9.2382   15.0672    0.0000 N   0  0  0  0  0  0  0  0  0  0  0  0
    8.4706   16.3559    0.0000 C   0  0  0  0  0  0  0  0  0  0  0  0
    9.2028   17.6650    0.0000 N   0  0  0  0  0  0  0  0  0  0  0  0
    6.9707   16.3355    0.0000 N   0  0  0  0  0  0  0  0  0  0  0  0
    7.8135    9.7560    0.0000 C   0  0  0  0  0  0  0  0  0  0  0  0
    7.3781   11.1914    0.0000 O   0  0  0  0  0  0  0  0  0  0  0  0
    6.3669    9.3595    0.0000 N   0  0  0  0  0  0  0  0  0  0  0  0
    5.0214    8.6964    0.0000 C   0  0  0  0  0  0  0  0  0  0  0  0
    3.6789    9.3655    0.0000 C   0  0  0  0  0  0  0  0  0  0  0  0
    3.5871   10.8627    0.0000 C   0  0  0  0  0  0  0  0  0  0  0  0
    2.2446   11.5318    0.0000 C   0  0  0  0  0  0  0  0  0  0  0  0
    2.1528   13.0290    0.0000 N   0  0  0  0  0  0  0  0  0  0  0  0
    0.8103   13.6981    0.0000 C   0  0  0  0  0  0  0  0  0  0  0  0
    0.7185   15.1953    0.0000 N   0  0  0  0  0  0  0  0  0  0  0  0
   -0.4404   12.8700    0.0000 N   0  0  0  0  0  0  0  0  0  0  0  0
    3.8257    7.7907    0.0000 C   0  0  0  0  0  0  0  0  0  0  0  0
    2.6834    8.7628    0.0000 O   0  0  0  0  0  0  0  0  0  0  0  0
    2.8231    6.6750    0.0000 N   0  0  0  0  0  0  0  0  0  0  0  0
    2.0497    5.3898    0.0000 C   0  0  0  0  0  0  0  0  0  0  0  0
    0.5586    5.2268    0.0000 C   0  0  0  0  0  0  0  0  0  0  0  0
   -0.3281    6.4367    0.0000 C   0  0  0  0  0  0  0  0  0  0  0  0
   -1.8280    6.4568    0.0000 N   0  0  0  0  0  0  0  0  0  0  0  0
    0.2764    7.8095    0.0000 O   0  0  0  0  0  0  0  0  0  0  0  0
    1.5335    3.9814    0.0000 C   0  0  0  0  0  0  0  0  0  0  0  0
    0.1396    4.5354    0.0000 O   0  0  0  0  0  0  0  0  0  0  0  0
    1.2932    2.5007    0.0000 N   0  0  0  0  0  0  0  0  0  0  0  0
    1.3375    1.0014    0.0000 C   0  0  0  0  0  0  0  0  0  0  0  0
    1.6647   -0.4625    0.0000 C   0  0  0  0  0  0  0  0  0  0  0  0
    2.2630   -1.8380    0.0000 C   0  0  0  0  0  0  0  0  0  0  0  0
    3.1108   -3.0754    0.0000 C   0  0  0  0  0  0  0  0  0  0  0  0
    4.1775   -4.1300    0.0000 C   0  0  0  0  0  0  0  0  0  0  0  0
    0.6832   -0.4520    0.0000 C   0  0  0  0  0  0  0  0  0  0  0  0
    0.4642   -1.8013    0.0000 C   0  0  0  0  0  0  0  0  0  0  0  0
   -0.0062   -3.0847    0.0000 C   0  0  0  0  0  0  0  0  0  0  0  0
   -0.7109   -4.2559    0.0000 C   0  0  0  0  0  0  0  0  0  0  0  0
    0.3447    2.2483    0.0000 C   0  0  0  0  0  0  0  0  0  0  0  0
    2.4364    2.9301    0.0000 O   0  0  0  0  0  0  0  0  0  0  0  0
   -0.2005    3.5018    0.0000 N   0  0  0  0  0  0  0  0  0  0  0  0
   -0.9731    4.6294    0.0000 C   0  0  0  0  0  0  0  0  0  0  0  0
    0.0353    6.5023    0.0000 C   0  0  0  0  0  0  0  0  0  0  0  0
   -0.9623    7.6224    0.0000 C   0  0  0  0  0  0  0  0  0  0  0  0
   -0.4911    9.0464    0.0000 C   0  0  0  0  0  0  0  0  0  0  0  0
   -1.4887   10.1666    0.0000 N   0  0  0  0  0  0  0  0  0  0  0  0
   -1.0175   11.5906    0.0000 C   0  0  0  0  0  0  0  0  0  0  0  0
   -1.8712   12.8240    0.0000 N   0  0  0  0  0  0  0  0  0  0  0  0
    0.4034   12.0713    0.0000 N   0  0  0  0  0  0  0  0  0  0  0  0
   -1.9452    5.5905    0.0000 C   0  0  0  0  0  0  0  0  0  0  0  0
   -0.8635    7.4899    0.0000 O   0  0  0  0  0  0  0  0  0  0  0  0
   -3.0815    6.3502    0.0000 N   0  0  0  0  0  0  0  0  0  0  0  0
   -4.3412    6.8811    0.0000 C   0  0  0  0  0  0  0  0  0  0  0  0
   -4.5053    9.0018    0.0000 C   0  0  0  0  0  0  0  0  0  0  0  0
   -3.4339   10.0516    0.0000 C   0  0  0  0  0  0  0  0  0  0  0  0
   -3.8074   11.5044    0.0000 C   0  0  0  0  0  0  0  0  0  0  0  0
   -2.7360   12.5542    0.0000 N   0  0  0  0  0  0  0  0  0  0  0  0
   -3.1095   14.0070    0.0000 C   0  0  0  0  0  0  0  0  0  0  0  0
   -2.0381   15.0568    0.0000 N   0  0  0  0  0  0  0  0  0  0  0  0
   -4.5543   14.4099    0.0000 N   0  0  0  0  0  0  0  0  0  0  0  0
   -5.6785    7.1640    0.0000 C   0  0  0  0  0  0  0  0  0  0  0  0
   -5.6127    9.3595    0.0000 O   0  0  0  0  0  0  0  0  0  0  0  0
   -7.0452    7.1888    0.0000 N   0  0  0  0  0  0  0  0  0  0  0  0
   -8.3918    6.9544    0.0000 C   0  0  0  0  0  0  0  0  0  0  0  0
   -9.6765    8.6497    0.0000 C   0  0  0  0  0  0  0  0  0  0  0  0
   -9.3428   10.1121    0.0000 C   0  0  0  0  0  0  0  0  0  0  0  0
  -10.4424   11.1324    0.0000 C   0  0  0  0  0  0  0  0  0  0  0  0
  -10.1086   12.5948    0.0000 N   0  0  0  0  0  0  0  0  0  0  0  0
  -11.2082   13.6150    0.0000 C   0  0  0  0  0  0  0  0  0  0  0  0
  -10.8745   15.0774    0.0000 N   0  0  0  0  0  0  0  0  0  0  0  0
  -12.6416   13.1728    0.0000 N   0  0  0  0  0  0  0  0  0  0  0  0
   -9.6698    6.4694    0.0000 C   0  0  0  0  0  0  0  0  0  0  0  0
  -10.8014    8.3519    0.0000 O   0  0  0  0  0  0  0  0  0  0  0  0
  -10.8330    5.7513    0.0000 N   0  0  0  0  0  0  0  0  0  0  0  0
  -11.8392    4.8261    0.0000 C   0  0  0  0  0  0  0  0  0  0  0  0
  -13.8364    5.5578    0.0000 C   0  0  0  0  0  0  0  0  0  0  0  0
  -14.3463    6.9685    0.0000 C   0  0  0  0  0  0  0  0  0  0  0  0
  -13.5047    8.2102    0.0000 C   0  0  0  0  0  0  0  0  0  0  0  0
  -14.4256    9.3942    0.0000 N   0  0  0  0  0  0  0  0  0  0  0  0
  -15.8363    8.8843    0.0000 C   0  0  0  0  0  0  0  0  0  0  0  0
  -17.1591    9.5915    0.0000 C   0  0  0  0  0  0  0  0  0  0  0  0
  -18.4330    8.7995    0.0000 C   0  0  0  0  0  0  0  0  0  0  0  0
  -18.3840    7.3003    0.0000 C   0  0  0  0  0  0  0  0  0  0  0  0
  -17.0611    6.5931    0.0000 C   0  0  0  0  0  0  0  0  0  0  0  0
  -15.7873    7.3851    0.0000 C   0  0  0  0  0  0  0  0  0  0  0  0
  -12.6521    3.7272    0.0000 C   0  0  0  0  0  0  0  0  0  0  0  0
  -14.6218    4.6991    0.0000 O   0  0  0  0  0  0  0  0  0  0  0  0
  -13.2423    2.4943    0.0000 N   0  0  0  0  0  0  0  0  0  0  0  0
  -13.5886    1.1719    0.0000 C   0  0  0  0  0  0  0  0  0  0  0  0
  -15.6643    0.7077    0.0000 C   0  0  0  0  0  0  0  0  0  0  0  0
  -16.8560    1.6187    0.0000 C   0  0  0  0  0  0  0  0  0  0  0  0
  -18.2408    1.0423    0.0000 C   0  0  0  0  0  0  0  0  0  0  0  0
  -19.4324    1.9534    0.0000 N   0  0  0  0  0  0  0  0  0  0  0  0
  -20.8172    1.3770    0.0000 C   0  0  0  0  0  0  0  0  0  0  0  0
  -22.0088    2.2880    0.0000 N   0  0  0  0  0  0  0  0  0  0  0  0
  -21.0104   -0.1106    0.0000 N   0  0  0  0  0  0  0  0  0  0  0  0
  -13.6783   -0.1920    0.0000 C   0  0  0  0  0  0  0  0  0  0  0  0
  -15.8608   -0.4394    0.0000 O   0  0  0  0  0  0  0  0  0  0  0  0
  -13.5083   -1.5483    0.0000 N   0  0  0  0  0  0  0  0  0  0  0  0
  -13.0847   -2.8480    0.0000 C   0  0  0  0  0  0  0  0  0  0  0  0
  -14.5799   -4.3608    0.0000 C   0  0  0  0  0  0  0  0  0  0  0  0
  -16.0749   -4.2386    0.0000 C   0  0  0  0  0  0  0  0  0  0  0  0
  -16.9283   -5.4722    0.0000 C   0  0  0  0  0  0  0  0  0  0  0  0
  -18.4233   -5.3500    0.0000 O   0  0  0  0  0  0  0  0  0  0  0  0
  -16.2866   -6.8280    0.0000 O   0  0  0  0  0  0  0  0  0  0  0  0
  -12.4227   -4.0439    0.0000 C   0  0  0  0  0  0  0  0  0  0  0  0
  -14.1250   -5.4319    0.0000 O   0  0  0  0  0  0  0  0  0  0  0  0
  -11.5464   -5.0930    0.0000 N   0  0  0  0  0  0  0  0  0  0  0  0
  -10.4874   -5.9573    0.0000 C   0  0  0  0  0  0  0  0  0  0  0  0
   -9.2840   -6.6055    0.0000 C   0  0  0  0  0  0  0  0  0  0  0  0
   -7.9796   -7.0143    0.0000 C   0  0  0  0  0  0  0  0  0  0  0  0
   -6.6215   -7.1689    0.0000 C   0  0  0  0  0  0  0  0  0  0  0  0
   -5.2586   -7.0636    0.0000 C   0  0  0  0  0  0  0  0  0  0  0  0
   -3.9403   -6.7023    0.0000 C   0  0  0  0  0  0  0  0  0  0  0  0
   -2.7142   -6.0980    0.0000 C   0  0  0  0  0  0  0  0  0  0  0  0
   -1.6246   -5.2726    0.0000 C   0  0  0  0  0  0  0  0  0  0  0  0
  -12.2423   -7.1593    0.0000 C   0  0  0  0  0  0  0  0  0  0  0  0
  -10.9274   -8.0384    0.0000 C   0  0  0  0  0  0  0  0  0  0  0  0
   -9.8845   -9.1164    0.0000 O   0  0  0  0  0  0  0  0  0  0  0  0
  -12.2512   -8.7438    0.0000 N   0  0  0  0  0  0  0  0  0  0  0  0
  -12.3021  -10.2429    0.0000 C   0  0  0  0  0  0  0  0  0  0  0  0
  -11.8372  -11.6691    0.0000 C   0  0  0  0  0  0  0  0  0  0  0  0
  -12.8399  -12.7848    0.0000 C   0  0  0  0  0  0  0  0  0  0  0  0
  -12.3750  -14.2109    0.0000 C   0  0  0  0  0  0  0  0  0  0  0  0
  -13.2342  -15.4405    0.0000 N   0  0  0  0  0  0  0  0  0  0  0  0
  -10.9075  -14.5214    0.0000 O   0  0  0  0  0  0  0  0  0  0  0  0
  -13.6259  -10.9484    0.0000 C   0  0  0  0  0  0  0  0  0  0  0  0
  -14.8987  -10.1547    0.0000 O   0  0  0  0  0  0  0  0  0  0  0  0
  -13.6768  -12.4475    0.0000 N   0  0  0  0  0  0  0  0  0  0  0  0
  -15.0006  -13.1530    0.0000 C   0  0  0  0  0  0  0  0  0  0  0  0
  -16.4858  -13.3631    0.0000 C   0  0  0  0  0  0  0  0  0  0  0  0
  -17.4104  -12.1820    0.0000 C   0  0  0  0  0  0  0  0  0  0  0  0
  -18.8956  -12.3922    0.0000 C   0  0  0  0  0  0  0  0  0  0  0  0
  -19.8202  -11.2110    0.0000 N   0  0  0  0  0  0  0  0  0  0  0  0
  -21.3054  -11.4212    0.0000 C   0  0  0  0  0  0  0  0  0  0  0  0
  -22.2300  -10.2400    0.0000 N   0  0  0  0  0  0  0  0  0  0  0  0
  -21.8660  -12.8125    0.0000 N   0  0  0  0  0  0  0  0  0  0  0  0
  -15.0515  -14.6521    0.0000 C   0  0  0  0  0  0  0  0  0  0  0  0
  -16.2794  -15.5137    0.0000 O   0  0  0  0  0  0  0  0  0  0  0  0
  -13.8849  -15.5950    0.0000 O   0  0  0  0  0  0  0  0  0  0  0  0
   15.0892  -12.4784    0.0000 H   0  0  0  0  0  0  0  0  0  0  0  0
   10.6858  -11.5880    0.0000 H   0  0  0  0  0  0  0  0  0  0  0  0
    8.6107  -13.7546    0.0000 H   0  0  0  0  0  0  0  0  0  0  0  0
   14.4815  -14.8190    0.0000 H   0  0  0  0  0  0  0  0  0  0  0  0
   14.5130  -21.9823    0.0000 H   0  0  0  0  0  0  0  0  0  0  0  0
    9.3193  -21.8223    0.0000 H   0  0  0  0  0  0  0  0  0  0  0  0
    9.4117  -18.8238    0.0000 H   0  0  0  0  0  0  0  0  0  0  0  0
   10.5485  -24.1113    0.0000 H   0  0  0  0  0  0  0  0  0  0  0  0
   12.1471  -14.4059    0.0000 H   0  0  0  0  0  0  0  0  0  0  0  0
   14.9725  -13.0034    0.0000 H   0  0  0  0  0  0  0  0  0  0  0  0
   17.2484  -17.5644    0.0000 H   0  0  0  0  0  0  0  0  0  0  0  0
   18.6161  -15.3555    0.0000 H   0  0  0  0  0  0  0  0  0  0  0  0
   15.6747  -10.1352    0.0000 H   0  0  0  0  0  0  0  0  0  0  0  0
   12.4529   -9.0013    0.0000 H   0  0  0  0  0  0  0  0  0  0  0  0
   12.9117   -7.1283    0.0000 H   0  0  0  0  0  0  0  0  0  0  0  0
   15.7226   -8.4648    0.0000 H   0  0  0  0  0  0  0  0  0  0  0  0
   16.1814   -6.5918    0.0000 H   0  0  0  0  0  0  0  0  0  0  0  0
   16.8567   -5.2632    0.0000 H   0  0  0  0  0  0  0  0  0  0  0  0
   15.1587   -5.1677    0.0000 H   0  0  0  0  0  0  0  0  0  0  0  0
   13.8867   -5.8059    0.0000 H   0  0  0  0  0  0  0  0  0  0  0  0
   13.5580   -6.2917    0.0000 H   0  0  0  0  0  0  0  0  0  0  0  0
   12.5083   -6.5874    0.0000 H   0  0  0  0  0  0  0  0  0  0  0  0
   12.3514   -6.6469    0.0000 H   0  0  0  0  0  0  0  0  0  0  0  0
   11.0045   -7.1062    0.0000 H   0  0  0  0  0  0  0  0  0  0  0  0
   10.5066   -7.1928    0.0000 H   0  0  0  0  0  0  0  0  0  0  0  0
    9.2512   -7.2898    0.0000 H   0  0  0  0  0  0  0  0  0  0  0  0
    8.7459   -7.2807    0.0000 H   0  0  0  0  0  0  0  0  0  0  0  0
    7.4948   -7.1383    0.0000 H   0  0  0  0  0  0  0  0  0  0  0  0
    7.0003   -7.0337    0.0000 H   0  0  0  0  0  0  0  0  0  0  0  0
    5.6709   -6.5260    0.0000 H   0  0  0  0  0  0  0  0  0  0  0  0
    4.7131   -6.2842    0.0000 H   0  0  0  0  0  0  0  0  0  0  0  0
   17.1894   -4.8930    0.0000 H   0  0  0  0  0  0  0  0  0  0  0  0
   18.0095   -3.4799    0.0000 H   0  0  0  0  0  0  0  0  0  0  0  0
   16.8776   -2.1004    0.0000 H   0  0  0  0  0  0  0  0  0  0  0  0
   17.9095   -1.4164    0.0000 H   0  0  0  0  0  0  0  0  0  0  0  0
   17.9574   -0.3967    0.0000 H   0  0  0  0  0  0  0  0  0  0  0  0
   19.4434    2.3105    0.0000 H   0  0  0  0  0  0  0  0  0  0  0  0
   17.8609    2.7168    0.0000 H   0  0  0  0  0  0  0  0  0  0  0  0
   20.3390   -0.8796    0.0000 H   0  0  0  0  0  0  0  0  0  0  0  0
   18.7052   -0.8682    0.0000 H   0  0  0  0  0  0  0  0  0  0  0  0
   22.0199    1.9758    0.0000 H   0  0  0  0  0  0  0  0  0  0  0  0
   20.2676    2.3133    0.0000 H   0  0  0  0  0  0  0  0  0  0  0  0
   21.9141   -1.4381    0.0000 H   0  0  0  0  0  0  0  0  0  0  0  0
   26.0686    0.2912    0.0000 H   0  0  0  0  0  0  0  0  0  0  0  0
   25.0702    2.6898    0.0000 H   0  0  0  0  0  0  0  0  0  0  0  0
   22.4937    3.0244    0.0000 H   0  0  0  0  0  0  0  0  0  0  0  0
   18.3592    3.8502    0.0000 H   0  0  0  0  0  0  0  0  0  0  0  0
   17.8482    4.7339    0.0000 H   0  0  0  0  0  0  0  0  0  0  0  0
   17.8088    7.7575    0.0000 H   0  0  0  0  0  0  0  0  0  0  0  0
   16.0838    7.3010    0.0000 H   0  0  0  0  0  0  0  0  0  0  0  0
   20.1129    5.6152    0.0000 H   0  0  0  0  0  0  0  0  0  0  0  0
   18.7323    4.7415    0.0000 H   0  0  0  0  0  0  0  0  0  0  0  0
   21.9516    8.5864    0.0000 H   0  0  0  0  0  0  0  0  0  0  0  0
   21.7399    5.9970    0.0000 H   0  0  0  0  0  0  0  0  0  0  0  0
   15.7681    8.6603    0.0000 H   0  0  0  0  0  0  0  0  0  0  0  0
   14.9172    9.1621    0.0000 H   0  0  0  0  0  0  0  0  0  0  0  0
   14.9261   10.7466    0.0000 H   0  0  0  0  0  0  0  0  0  0  0  0
   13.3148   11.5133    0.0000 H   0  0  0  0  0  0  0  0  0  0  0  0
   12.1104   10.1966    0.0000 H   0  0  0  0  0  0  0  0  0  0  0  0
   11.2865   11.1207    0.0000 H   0  0  0  0  0  0  0  0  0  0  0  0
   10.2704   11.0230    0.0000 H   0  0  0  0  0  0  0  0  0  0  0  0
    7.3793   12.1087    0.0000 H   0  0  0  0  0  0  0  0  0  0  0  0
    7.2023   10.4844    0.0000 H   0  0  0  0  0  0  0  0  0  0  0  0
   10.4095   13.4491    0.0000 H   0  0  0  0  0  0  0  0  0  0  0  0
   10.6307   11.8303    0.0000 H   0  0  0  0  0  0  0  0  0  0  0  0
    7.3439   14.7065    0.0000 H   0  0  0  0  0  0  0  0  0  0  0  0
    7.2592   12.9241    0.0000 H   0  0  0  0  0  0  0  0  0  0  0  0
   10.7381   15.0877    0.0000 H   0  0  0  0  0  0  0  0  0  0  0  0
    8.4352   18.9537    0.0000 H   0  0  0  0  0  0  0  0  0  0  0  0
    6.2031   17.6241    0.0000 H   0  0  0  0  0  0  0  0  0  0  0  0
    6.2385   15.0263    0.0000 H   0  0  0  0  0  0  0  0  0  0  0  0
    6.0096   10.8164    0.0000 H   0  0  0  0  0  0  0  0  0  0  0  0
    5.2076   10.1848    0.0000 H   0  0  0  0  0  0  0  0  0  0  0  0
    2.1885    9.5351    0.0000 H   0  0  0  0  0  0  0  0  0  0  0  0
    2.9177    8.0730    0.0000 H   0  0  0  0  0  0  0  0  0  0  0  0
    4.0129   12.3010    0.0000 H   0  0  0  0  0  0  0  0  0  0  0  0
    5.0742   11.0588    0.0000 H   0  0  0  0  0  0  0  0  0  0  0  0
    0.7860   11.8818    0.0000 H   0  0  0  0  0  0  0  0  0  0  0  0
    1.8188   10.0935    0.0000 H   0  0  0  0  0  0  0  0  0  0  0  0
    3.4035   13.8571    0.0000 H   0  0  0  0  0  0  0  0  0  0  0  0
   -0.6240   15.8644    0.0000 H   0  0  0  0  0  0  0  0  0  0  0  0
   -1.5811   13.8441    0.0000 H   0  0  0  0  0  0  0  0  0  0  0  0
    0.0110   11.4395    0.0000 H   0  0  0  0  0  0  0  0  0  0  0  0
    1.7349    7.7074    0.0000 H   0  0  0  0  0  0  0  0  0  0  0  0
    1.4016    6.7425    0.0000 H   0  0  0  0  0  0  0  0  0  0  0  0
   -0.9352    5.0901    0.0000 H   0  0  0  0  0  0  0  0  0  0  0  0
    0.2526    3.7584    0.0000 H   0  0  0  0  0  0  0  0  0  0  0  0
   -2.4751    7.6743    0.0000 H   0  0  0  0  0  0  0  0  0  0  0  0
   -2.4237    4.9010    0.0000 H   0  0  0  0  0  0  0  0  0  0  0  0
   -0.2035    2.5992    0.0000 H   0  0  0  0  0  0  0  0  0  0  0  0
    0.8449   -1.7187    0.0000 H   0  0  0  0  0  0  0  0  0  0  0  0
    0.2077   -0.1056    0.0000 H   0  0  0  0  0  0  0  0  0  0  0  0
    1.6958   -3.2266    0.0000 H   0  0  0  0  0  0  0  0  0  0  0  0
    0.8376   -2.3052    0.0000 H   0  0  0  0  0  0  0  0  0  0  0  0
    2.6396   -4.4994    0.0000 H   0  0  0  0  0  0  0  0  0  0  0  0
    1.7996   -3.8039    0.0000 H   0  0  0  0  0  0  0  0  0  0  0  0
    3.2291   -5.2921    0.0000 H   0  0  0  0  0  0  0  0  0  0  0  0
    2.7055    0.2075    0.0000 H   0  0  0  0  0  0  0  0  0  0  0  0
    2.4861   -1.5130    0.0000 H   0  0  0  0  0  0  0  0  0  0  0  0
    2.6380   -2.0795    0.0000 H   0  0  0  0  0  0  0  0  0  0  0  0
    2.0338   -3.1842    0.0000 H   0  0  0  0  0  0  0  0  0  0  0  0
    2.0757   -3.7693    0.0000 H   0  0  0  0  0  0  0  0  0  0  0  0
    1.4334   -4.6506    0.0000 H   0  0  0  0  0  0  0  0  0  0  0  0
    1.0578   -5.5643    0.0000 H   0  0  0  0  0  0  0  0  0  0  0  0
    1.5096    4.8631    0.0000 H   0  0  0  0  0  0  0  0  0  0  0  0
    1.0126    5.4678    0.0000 H   0  0  0  0  0  0  0  0  0  0  0  0
    1.1017    7.5571    0.0000 H   0  0  0  0  0  0  0  0  0  0  0  0
    1.4888    6.1316    0.0000 H   0  0  0  0  0  0  0  0  0  0  0  0
   -2.1864    8.4894    0.0000 H   0  0  0  0  0  0  0  0  0  0  0  0
   -2.2523    6.8569    0.0000 H   0  0  0  0  0  0  0  0  0  0  0  0
    0.4388   10.2234    0.0000 H   0  0  0  0  0  0  0  0  0  0  0  0
    0.9624    8.6758    0.0000 H   0  0  0  0  0  0  0  0  0  0  0  0
   -2.9875   10.2271    0.0000 H   0  0  0  0  0  0  0  0  0  0  0  0
   -1.7062   14.1649    0.0000 H   0  0  0  0  0  0  0  0  0  0  0  0
    0.6054   13.4072    0.0000 H   0  0  0  0  0  0  0  0  0  0  0  0
    1.2831   10.6566    0.0000 H   0  0  0  0  0  0  0  0  0  0  0  0
   -2.0382    8.2871    0.0000 H   0  0  0  0  0  0  0  0  0  0  0  0
   -2.9960    8.5288    0.0000 H   0  0  0  0  0  0  0  0  0  0  0  0
   -5.3531   10.2392    0.0000 H   0  0  0  0  0  0  0  0  0  0  0  0
   -5.9806    8.7307    0.0000 H   0  0  0  0  0  0  0  0  0  0  0  0
   -2.2587   10.9838    0.0000 H   0  0  0  0  0  0  0  0  0  0  0  0
   -2.4416    8.9268    0.0000 H   0  0  0  0  0  0  0  0  0  0  0  0
   -4.6552   12.7418    0.0000 H   0  0  0  0  0  0  0  0  0  0  0  0
   -5.2386   11.0554    0.0000 H   0  0  0  0  0  0  0  0  0  0  0  0
   -1.2366   12.5129    0.0000 H   0  0  0  0  0  0  0  0  0  0  0  0
   -2.4116   16.5096    0.0000 H   0  0  0  0  0  0  0  0  0  0  0  0
   -4.9278   15.8627    0.0000 H   0  0  0  0  0  0  0  0  0  0  0  0
   -5.6257   13.3601    0.0000 H   0  0  0  0  0  0  0  0  0  0  0  0
   -7.0315    9.3852    0.0000 H   0  0  0  0  0  0  0  0  0  0  0  0
   -7.9789    9.0052    0.0000 H   0  0  0  0  0  0  0  0  0  0  0  0
  -11.0587    9.2323    0.0000 H   0  0  0  0  0  0  0  0  0  0  0  0
  -10.7710    7.6240    0.0000 H   0  0  0  0  0  0  0  0  0  0  0  0
   -8.5290   11.3722    0.0000 H   0  0  0  0  0  0  0  0  0  0  0  0
   -7.8606    9.8813    0.0000 H   0  0  0  0  0  0  0  0  0  0  0  0
  -11.8246   11.7150    0.0000 H   0  0  0  0  0  0  0  0  0  0  0  0
  -11.4037    9.9809    0.0000 H   0  0  0  0  0  0  0  0  0  0  0  0
   -8.6753   13.0370    0.0000 H   0  0  0  0  0  0  0  0  0  0  0  0
  -11.9741   16.0976    0.0000 H   0  0  0  0  0  0  0  0  0  0  0  0
  -13.7412   14.1930    0.0000 H   0  0  0  0  0  0  0  0  0  0  0  0
  -12.9753   11.7104    0.0000 H   0  0  0  0  0  0  0  0  0  0  0  0
  -12.0089    7.6065    0.0000 H   0  0  0  0  0  0  0  0  0  0  0  0
  -12.7792    6.7342    0.0000 H   0  0  0  0  0  0  0  0  0  0  0  0
  -15.3345    5.4827    0.0000 H   0  0  0  0  0  0  0  0  0  0  0  0
  -14.2026    4.1032    0.0000 H   0  0  0  0  0  0  0  0  0  0  0  0
  -12.0227    8.4415    0.0000 H   0  0  0  0  0  0  0  0  0  0  0  0
  -14.0089   10.8352    0.0000 H   0  0  0  0  0  0  0  0  0  0  0  0
  -17.2081   11.0907    0.0000 H   0  0  0  0  0  0  0  0  0  0  0  0
  -19.7558    9.5066    0.0000 H   0  0  0  0  0  0  0  0  0  0  0  0
  -19.6578    6.5082    0.0000 H   0  0  0  0  0  0  0  0  0  0  0  0
  -17.0121    5.0939    0.0000 H   0  0  0  0  0  0  0  0  0  0  0  0
  -15.2345    3.4192    0.0000 H   0  0  0  0  0  0  0  0  0  0  0  0
  -15.2825    2.3995    0.0000 H   0  0  0  0  0  0  0  0  0  0  0  0
  -16.7685   -0.3076    0.0000 H   0  0  0  0  0  0  0  0  0  0  0  0
  -15.1860   -0.7140    0.0000 H   0  0  0  0  0  0  0  0  0  0  0  0
  -17.6641    2.8824    0.0000 H   0  0  0  0  0  0  0  0  0  0  0  0
  -16.0303    2.8710    0.0000 H   0  0  0  0  0  0  0  0  0  0  0  0
  -19.3449    0.0270    0.0000 H   0  0  0  0  0  0  0  0  0  0  0  0
  -17.5927   -0.3105    0.0000 H   0  0  0  0  0  0  0  0  0  0  0  0
  -19.2392    3.4409    0.0000 H   0  0  0  0  0  0  0  0  0  0  0  0
  -23.3936    1.7116    0.0000 H   0  0  0  0  0  0  0  0  0  0  0  0
  -22.3952   -0.6870    0.0000 H   0  0  0  0  0  0  0  0  0  0  0  0
  -19.8188   -1.0216    0.0000 H   0  0  0  0  0  0  0  0  0  0  0  0
  -15.6843   -1.8474    0.0000 H   0  0  0  0  0  0  0  0  0  0  0  0
  -15.1733   -2.7311    0.0000 H   0  0  0  0  0  0  0  0  0  0  0  0
  -15.1339   -5.7547    0.0000 H   0  0  0  0  0  0  0  0  0  0  0  0
  -13.4089   -5.2982    0.0000 H   0  0  0  0  0  0  0  0  0  0  0  0
  -17.4380   -3.6124    0.0000 H   0  0  0  0  0  0  0  0  0  0  0  0
  -16.0574   -2.7387    0.0000 H   0  0  0  0  0  0  0  0  0  0  0  0
  -17.1400   -8.0616    0.0000 H   0  0  0  0  0  0  0  0  0  0  0  0
  -13.2153   -6.5210    0.0000 H   0  0  0  0  0  0  0  0  0  0  0  0
   -9.3222   -8.7323    0.0000 H   0  0  0  0  0  0  0  0  0  0  0  0
  -10.5334   -8.3883    0.0000 H   0  0  0  0  0  0  0  0  0  0  0  0
   -7.7904   -9.1615    0.0000 H   0  0  0  0  0  0  0  0  0  0  0  0
   -8.8691   -9.0013    0.0000 H   0  0  0  0  0  0  0  0  0  0  0  0
   -6.0293   -9.2414    0.0000 H   0  0  0  0  0  0  0  0  0  0  0  0
   -7.2883   -9.2186    0.0000 H   0  0  0  0  0  0  0  0  0  0  0  0
   -4.2849   -8.9866    0.0000 H   0  0  0  0  0  0  0  0  0  0  0  0
   -5.5254   -9.2025    0.0000 H   0  0  0  0  0  0  0  0  0  0  0  0
   -2.6203   -8.4063    0.0000 H   0  0  0  0  0  0  0  0  0  0  0  0
   -3.7975   -8.8530    0.0000 H   0  0  0  0  0  0  0  0  0  0  0  0
   -1.0040   -7.3627    0.0000 H   0  0  0  0  0  0  0  0  0  0  0  0
   -2.1670   -8.1828    0.0000 H   0  0  0  0  0  0  0  0  0  0  0  0
   -0.1355   -6.8920    0.0000 H   0  0  0  0  0  0  0  0  0  0  0  0
  -12.7451   -8.5725    0.0000 H   0  0  0  0  0  0  0  0  0  0  0  0
  -13.7379   -7.2748    0.0000 H   0  0  0  0  0  0  0  0  0  0  0  0
  -12.9562   -5.8401    0.0000 H   0  0  0  0  0  0  0  0  0  0  0  0
  -13.6113   -8.1112    0.0000 H   0  0  0  0  0  0  0  0  0  0  0  0
  -10.8169  -10.0328    0.0000 H   0  0  0  0  0  0  0  0  0  0  0  0
  -10.9126  -12.8502    0.0000 H   0  0  0  0  0  0  0  0  0  0  0  0
  -10.5135  -10.9636    0.0000 H   0  0  0  0  0  0  0  0  0  0  0  0
  -14.1637  -13.4902    0.0000 H   0  0  0  0  0  0  0  0  0  0  0  0
  -14.2109  -12.1761    0.0000 H   0  0  0  0  0  0  0  0  0  0  0  0
  -12.9128  -16.7527    0.0000 H   0  0  0  0  0  0  0  0  0  0  0  0
  -14.9000  -15.4185    0.0000 H   0  0  0  0  0  0  0  0  0  0  0  0
  -12.6339  -13.5256    0.0000 H   0  0  0  0  0  0  0  0  0  0  0  0
  -15.2881  -11.6808    0.0000 H   0  0  0  0  0  0  0  0  0  0  0  0
  -17.7137  -14.2247    0.0000 H   0  0  0  0  0  0  0  0  0  0  0  0
  -16.1982  -14.8353    0.0000 H   0  0  0  0  0  0  0  0  0  0  0  0
  -17.8752  -10.7558    0.0000 H   0  0  0  0  0  0  0  0  0  0  0  0
  -16.1825  -11.3204    0.0000 H   0  0  0  0  0  0  0  0  0  0  0  0
  -20.2193  -13.0976    0.0000 H   0  0  0  0  0  0  0  0  0  0  0  0
  -18.6080  -13.8643    0.0000 H   0  0  0  0  0  0  0  0  0  0  0  0
  -19.2596   -9.8197    0.0000 H   0  0  0  0  0  0  0  0  0  0  0  0
  -23.7152  -10.4502    0.0000 H   0  0  0  0  0  0  0  0  0  0  0  0
  -23.3512  -13.0226    0.0000 H   0  0  0  0  0  0  0  0  0  0  0  0
  -20.9414  -13.9936    0.0000 H   0  0  0  0  0  0  0  0  0  0  0  0
  -13.8296  -16.9449    0.0000 H   0  0  0  0  0  0  0  0  0  0  0  0
  1  2  1  0
  2  3  1  0
  3  4  2  0
  4  5  1  0
  5  6  2  0
  6  7  1  0
  7  8  2  0
  7  9  1  0
  9 10  1  0
 10 11  1  0
 11 12  2  0
  9 13  1  0
 13 14  1  0
 14 15  2  0
 15 16  1  0
 16 17  2  0
 17 18  1  0
 16 19  1  0
 14 20  1  0
 20 21  1  0
 21 22  2  0
 22 23  1  0
 23 24  2  0
 24 25  1  0
 25 26  2  0
 25 27  1  0
  1 28  2  0
  1 29  1  0
 29 30  1  0
 30 31  1  0
 31 32  1  0
 32 33  2  0
 32 34  1  0
 35 34  1  1
 35 36  1  0
 36 37  1  0
 37 38  1  0
 38 39  1  0
 39 40  1  0
 40 41  1  0
 41 42  1  0
 35 43  1  0
 35 44  1  0
 44 45  2  0
 44 46  1  0
 46 47  1  0
 47 48  1  0
 48 49  1  0
 49 50  1  0
 50 51  1  0
 51 52  1  0
 52 53  2  3
 52 54  1  0
 47 55  1  0
 55 56  2  0
 55 57  1  0
 57 58  1  0
 58 59  1  0
 59 60  1  0
 60 61  1  0
 61 62  1  0
 61 63  2  0
 58 64  1  0
 64 65  2  0
 64 66  1  0
 66 67  1  0
 67 68  1  0
 67 69  1  0
 69 70  2  0
 69 71  1  0
 71 72  1  0
 72 73  1  0
 73 74  1  0
 74 75  1  0
 75 76  1  0
 76 77  1  0
 77 78  2  3
 77 79  1  0
 72 80  1  0
 80 81  2  0
 80 82  1  0
 82 83  1  0
 83 84  1  0
 84 85  1  0
 85 86  1  0
 86 87  1  0
 87 88  1  0
 88 89  2  3
 88 90  1  0
 83 91  1  0
 91 92  2  0
 91 93  1  0
 93 94  1  0
 94 95  1  0
 95 96  1  0
 96 97  1  0
 96 98  2  0
 94 99  1  0
 99100  2  0
 99101  1  0
101102  1  0
102103  1  0
103104  1  0
104105  1  0
105106  1  0
102107  1  0
107108  1  0
108109  1  0
109110  1  0
102111  1  0
111112  2  0
111113  1  0
113114  1  0
114115  1  0
115116  1  0
116117  1  0
117118  1  0
118119  1  0
119120  2  3
119121  1  0
114122  1  0
122123  2  0
122124  1  0
124125  1  0
125126  1  0
126127  1  0
127128  1  0
128129  1  0
129130  1  0
130131  2  3
130132  1  0
125133  1  0
133134  2  0
133135  1  0
135136  1  0
136137  1  0
137138  1  0
138139  1  0
139140  1  0
140141  1  0
141142  2  3
141143  1  0
136144  1  0
144145  2  0
144146  1  0
146147  1  0
147148  1  0
148149  1  0
149150  2  0
150151  1  0
151152  1  0
152153  2  0
153154  1  0
154155  2  0
155156  1  0
156157  2  0
147158  1  0
158159  2  0
158160  1  0
160161  1  0
161162  1  0
162163  1  0
163164  1  0
164165  1  0
165166  1  0
166167  2  3
166168  1  0
161169  1  0
169170  2  0
169171  1  0
171172  1  0
172173  1  0
173174  1  0
174175  1  0
175176  2  0
175177  1  0
172178  1  0
178179  2  0
178180  1  0
180181  1  0
181182  1  0
182183  1  0
183184  1  0
184185  1  0
185186  1  0
186187  1  0
187188  1  0
181189  1  0
181190  1  1
190191  2  0
190192  1  0
192193  1  0
193194  1  0
194195  1  0
195196  1  0
196197  1  0
196198  2  0
193199  1  0
199200  2  0
199201  1  0
201202  1  0
202203  1  0
203204  1  0
204205  1  0
205206  1  0
206207  1  0
207208  2  3
207209  1  0
202210  1  0
210211  2  0
210212  1  0
  8  3  1  0
157149  1  0
 11  6  1  0
 42106  2  0
157152  1  0
 18 13  2  0
110188  2  0
 22  9  1  0
 26 21  1  0
  2213  1  0
  4214  1  0
  5215  1  0
  8216  1  0
 15217  1  0
 17218  1  0
 18219  1  0
 19220  1  0
 23221  1  0
 24222  1  0
 26223  1  0
 27224  1  0
 29225  1  0
 30226  1  0
 30227  1  0
 31228  1  0
 31229  1  0
 34230  1  0
 36231  1  0
 36232  1  0
 37233  1  0
 37234  1  0
 38235  1  0
 38236  1  0
 39237  1  0
 39238  1  0
 40239  1  0
 40240  1  0
 41241  1  0
 41242  1  0
 42243  1  0
 43244  1  0
 43245  1  0
 43246  1  0
 46247  1  0
 47248  1  6
 48249  1  0
 48250  1  0
 49251  1  0
 49252  1  0
 50253  1  0
 50254  1  0
 51255  1  0
 53256  1  0
 54257  1  0
 54258  1  0
 57259  1  0
 58260  1  6
 59261  1  0
 59262  1  0
 60263  1  0
 60264  1  0
 62265  1  0
 62266  1  0
 66267  1  0
 67268  1  6
 68269  1  0
 68270  1  0
 68271  1  0
 71272  1  0
 72273  1  6
 73274  1  0
 73275  1  0
 74276  1  0
 74277  1  0
 75278  1  0
 75279  1  0
 76280  1  0
 78281  1  0
 79282  1  0
 79283  1  0
 82284  1  0
 83285  1  6
 84286  1  0
 84287  1  0
 85288  1  0
 85289  1  0
 86290  1  0
 86291  1  0
 87292  1  0
 89293  1  0
 90294  1  0
 90295  1  0
 93296  1  0
 94297  1  6
 95298  1  0
 95299  1  0
 97300  1  0
 97301  1  0
101302  1  0
103303  1  0
103304  1  0
104305  1  0
104306  1  0
105307  1  0
105308  1  0
106309  1  0
107310  1  0
107311  1  0
108312  1  0
108313  1  0
109314  1  0
109315  1  0
110316  1  0
113317  1  0
114318  1  6
115319  1  0
115320  1  0
116321  1  0
116322  1  0
117323  1  0
117324  1  0
118325  1  0
120326  1  0
121327  1  0
121328  1  0
124329  1  0
125330  1  6
126331  1  0
126332  1  0
127333  1  0
127334  1  0
128335  1  0
128336  1  0
129337  1  0
131338  1  0
132339  1  0
132340  1  0
135341  1  0
136342  1  6
137343  1  0
137344  1  0
138345  1  0
138346  1  0
139347  1  0
139348  1  0
140349  1  0
142350  1  0
143351  1  0
143352  1  0
146353  1  0
147354  1  6
148355  1  0
148356  1  0
150357  1  0
151358  1  0
153359  1  0
154360  1  0
155361  1  0
156362  1  0
160363  1  0
161364  1  6
162365  1  0
162366  1  0
163367  1  0
163368  1  0
164369  1  0
164370  1  0
165371  1  0
167372  1  0
168373  1  0
168374  1  0
171375  1  0
172376  1  6
173377  1  0
173378  1  0
174379  1  0
174380  1  0
177381  1  0
180382  1  0
182383  1  0
182384  1  0
183385  1  0
183386  1  0
184387  1  0
184388  1  0
185389  1  0
185390  1  0
186391  1  0
186392  1  0
187393  1  0
187394  1  0
188395  1  0
189396  1  0
189397  1  0
189398  1  0
192399  1  0
193400  1  1
194401  1  0
194402  1  0
195403  1  0
195404  1  0
197405  1  0
197406  1  0
201407  1  0
202408  1  6
203409  1  0
203410  1  0
204411  1  0
204412  1  0
205413  1  0
205414  1  0
206415  1  0
208416  1  0
209417  1  0
209418  1  0
212419  1  0
M  END
