
     RDKit          2D

449457  0  0  0  0  0  0  0  0999 V2000
   44.9491   -0.7961    0.0000 C   0  0  0  0  0  0  0  0  0  0  0  0
   46.2496   -0.0487    0.0000 N   0  0  0  0  0  0  0  0  0  0  0  0
   47.5472   -0.8012    0.0000 C   0  0  0  0  0  0  0  0  0  0  0  0
   47.5442   -2.3012    0.0000 C   0  0  0  0  0  0  0  0  0  0  0  0
   48.8418   -3.0538    0.0000 C   0  0  0  0  0  0  0  0  0  0  0  0
   50.1423   -2.3063    0.0000 C   0  0  0  0  0  0  0  0  0  0  0  0
   50.1452   -0.8063    0.0000 C   0  0  0  0  0  0  0  0  0  0  0  0
   48.8477   -0.0538    0.0000 C   0  0  0  0  0  0  0  0  0  0  0  0
   51.5727   -0.3456    0.0000 C   0  0  0  0  0  0  0  0  0  0  0  0
   52.4520   -1.5608    0.0000 O   0  0  0  0  0  0  0  0  0  0  0  0
   51.5680   -2.7726    0.0000 C   0  0  0  0  0  0  0  0  0  0  0  0
   52.0287   -4.2001    0.0000 O   0  0  0  0  0  0  0  0  0  0  0  0
   53.0405   -0.0366    0.0000 C   0  0  0  0  0  0  0  0  0  0  0  0
   53.5069    1.3891    0.0000 C   0  0  0  0  0  0  0  0  0  0  0  0
   54.9747    1.6981    0.0000 C   0  0  0  0  0  0  0  0  0  0  0  0
   55.9762    0.5814    0.0000 C   0  0  0  0  0  0  0  0  0  0  0  0
   55.5099   -0.8443    0.0000 C   0  0  0  0  0  0  0  0  0  0  0  0
   54.0421   -1.1533    0.0000 C   0  0  0  0  0  0  0  0  0  0  0  0
   57.4440    0.8904    0.0000 O   0  0  0  0  0  0  0  0  0  0  0  0
   52.5054    2.5057    0.0000 O   0  0  0  0  0  0  0  0  0  0  0  0
   51.0375    2.1968    0.0000 C   0  0  0  0  0  0  0  0  0  0  0  0
   50.5712    0.7711    0.0000 C   0  0  0  0  0  0  0  0  0  0  0  0
   49.3210    1.1274    0.0000 C   0  0  0  0  0  0  0  0  0  0  0  0
   48.7869    1.7230    0.0000 C   0  0  0  0  0  0  0  0  0  0  0  0
   49.0356    2.4833    0.0000 C   0  0  0  0  0  0  0  0  0  0  0  0
   49.8184    2.6481    0.0000 C   0  0  0  0  0  0  0  0  0  0  0  0
   47.5667    4.1211    0.0000 O   0  0  0  0  0  0  0  0  0  0  0  0
   44.9461   -2.2961    0.0000 S   0  0  0  0  0  0  0  0  0  0  0  0
   43.6515   -0.0436    0.0000 N   0  0  0  0  0  0  0  0  0  0  0  0
   42.3510   -0.7910    0.0000 C   0  0  0  0  0  0  0  0  0  0  0  0
   41.0534   -0.0385    0.0000 C   0  0  0  0  0  0  0  0  0  0  0  0
   39.7529   -0.7859    0.0000 C   0  0  0  0  0  0  0  0  0  0  0  0
   39.7500   -2.2859    0.0000 O   0  0  0  0  0  0  0  0  0  0  0  0
   38.4554   -0.0334    0.0000 N   0  0  0  0  0  0  0  0  0  0  0  0
   37.1549   -0.7808    0.0000 C   0  0  0  0  0  0  0  0  0  0  0  0
   36.1884   -1.9280    0.0000 C   0  0  0  0  0  0  0  0  0  0  0  0
   34.7117   -1.6646    0.0000 C   0  0  0  0  0  0  0  0  0  0  0  0
   33.7453   -2.8118    0.0000 C   0  0  0  0  0  0  0  0  0  0  0  0
   32.2686   -2.5484    0.0000 C   0  0  0  0  0  0  0  0  0  0  0  0
   31.3022   -3.6956    0.0000 N   0  0  0  0  0  0  0  0  0  0  0  0
   35.8573   -0.0283    0.0000 C   0  0  0  0  0  0  0  0  0  0  0  0
   35.8602    1.4717    0.0000 O   0  0  0  0  0  0  0  0  0  0  0  0
   34.5568   -0.7757    0.0000 N   0  0  0  0  0  0  0  0  0  0  0  0
   33.2592   -0.0232    0.0000 C   0  0  0  0  0  0  0  0  0  0  0  0
   32.2973    1.1278    0.0000 C   0  0  0  0  0  0  0  0  0  0  0  0
   31.9587   -0.7706    0.0000 C   0  0  0  0  0  0  0  0  0  0  0  0
   31.6624   -1.9489    0.0000 O   0  0  0  0  0  0  0  0  0  0  0  0
   30.6612   -0.0181    0.0000 N   0  0  0  0  0  0  0  0  0  0  0  0
   29.3607   -0.7655    0.0000 C   0  0  0  0  0  0  0  0  0  0  0  0
   28.3942   -1.9127    0.0000 C   0  0  0  0  0  0  0  0  0  0  0  0
   27.8784   -3.3212    0.0000 O   0  0  0  0  0  0  0  0  0  0  0  0
   26.8964   -1.8313    0.0000 C   0  0  0  0  0  0  0  0  0  0  0  0
   28.0631   -0.0130    0.0000 C   0  0  0  0  0  0  0  0  0  0  0  0
   28.0660    1.4870    0.0000 O   0  0  0  0  0  0  0  0  0  0  0  0
   26.7626   -0.7604    0.0000 N   0  0  0  0  0  0  0  0  0  0  0  0
   25.4650   -0.0079    0.0000 C   0  0  0  0  0  0  0  0  0  0  0  0
   24.5031    1.1431    0.0000 C   0  0  0  0  0  0  0  0  0  0  0  0
   25.0189    2.5516    0.0000 C   0  0  0  0  0  0  0  0  0  0  0  0
   24.0570    3.7026    0.0000 C   0  0  0  0  0  0  0  0  0  0  0  0
   24.5728    5.1111    0.0000 O   0  0  0  0  0  0  0  0  0  0  0  0
   22.5792    3.4450    0.0000 O   0  0  0  0  0  0  0  0  0  0  0  0
   24.1645   -0.7553    0.0000 C   0  0  0  0  0  0  0  0  0  0  0  0
   24.1616   -2.2553    0.0000 O   0  0  0  0  0  0  0  0  0  0  0  0
   22.8669   -0.0028    0.0000 N   0  0  0  0  0  0  0  0  0  0  0  0
   21.5664   -0.7502    0.0000 C   0  0  0  0  0  0  0  0  0  0  0  0
   20.6000   -1.8974    0.0000 C   0  0  0  0  0  0  0  0  0  0  0  0
   19.1233   -1.6340    0.0000 C   0  0  0  0  0  0  0  0  0  0  0  0
   18.6130   -0.2235    0.0000 C   0  0  0  0  0  0  0  0  0  0  0  0
   17.1363    0.0399    0.0000 C   0  0  0  0  0  0  0  0  0  0  0  0
   16.1699   -1.1073    0.0000 C   0  0  0  0  0  0  0  0  0  0  0  0
   14.6932   -0.8439    0.0000 O   0  0  0  0  0  0  0  0  0  0  0  0
   16.6802   -2.5178    0.0000 C   0  0  0  0  0  0  0  0  0  0  0  0
   18.1569   -2.7812    0.0000 C   0  0  0  0  0  0  0  0  0  0  0  0
   20.2689    0.0023    0.0000 C   0  0  0  0  0  0  0  0  0  0  0  0
   20.4546    1.4908    0.0000 O   0  0  0  0  0  0  0  0  0  0  0  0
   18.9684   -0.7451    0.0000 N   0  0  0  0  0  0  0  0  0  0  0  0
   17.6708    0.0074    0.0000 C   0  0  0  0  0  0  0  0  0  0  0  0
   16.7089    1.1584    0.0000 C   0  0  0  0  0  0  0  0  0  0  0  0
   17.3925    2.4935    0.0000 C   0  0  0  0  0  0  0  0  0  0  0  0
   15.4113    1.9109    0.0000 C   0  0  0  0  0  0  0  0  0  0  0  0
   15.4143    3.4109    0.0000 C   0  0  0  0  0  0  0  0  0  0  0  0
   16.3703   -0.7400    0.0000 C   0  0  0  0  0  0  0  0  0  0  0  0
   16.0045   -2.1947    0.0000 O   0  0  0  0  0  0  0  0  0  0  0  0
   15.0727    0.0125    0.0000 N   0  0  0  0  0  0  0  0  0  0  0  0
   13.7722   -0.7349    0.0000 C   0  0  0  0  0  0  0  0  0  0  0  0
   12.8058   -1.8821    0.0000 C   0  0  0  0  0  0  0  0  0  0  0  0
   11.3291   -1.6187    0.0000 C   0  0  0  0  0  0  0  0  0  0  0  0
   10.3627   -2.7659    0.0000 C   0  0  0  0  0  0  0  0  0  0  0  0
    8.8649   -2.6845    0.0000 N   0  0  0  0  0  0  0  0  0  0  0  0
   10.8729   -4.1764    0.0000 O   0  0  0  0  0  0  0  0  0  0  0  0
   12.4747    0.0176    0.0000 C   0  0  0  0  0  0  0  0  0  0  0  0
   12.6604    1.5061    0.0000 O   0  0  0  0  0  0  0  0  0  0  0  0
   11.1742   -0.7298    0.0000 N   0  0  0  0  0  0  0  0  0  0  0  0
    9.8766    0.0227    0.0000 C   0  0  0  0  0  0  0  0  0  0  0  0
    8.9147    1.1737    0.0000 C   0  0  0  0  0  0  0  0  0  0  0  0
    9.4305    2.5822    0.0000 C   0  0  0  0  0  0  0  0  0  0  0  0
   10.9082    2.8398    0.0000 C   0  0  0  0  0  0  0  0  0  0  0  0
   11.4240    4.2483    0.0000 C   0  0  0  0  0  0  0  0  0  0  0  0
   10.4621    5.3993    0.0000 C   0  0  0  0  0  0  0  0  0  0  0  0
   10.9779    6.8078    0.0000 O   0  0  0  0  0  0  0  0  0  0  0  0
    8.9843    5.1417    0.0000 C   0  0  0  0  0  0  0  0  0  0  0  0
    8.4685    3.7332    0.0000 C   0  0  0  0  0  0  0  0  0  0  0  0
    8.5761   -0.7247    0.0000 C   0  0  0  0  0  0  0  0  0  0  0  0
    8.3903   -2.2132    0.0000 O   0  0  0  0  0  0  0  0  0  0  0  0
    7.2785    0.0278    0.0000 N   0  0  0  0  0  0  0  0  0  0  0  0
    5.9780   -0.7196    0.0000 C   0  0  0  0  0  0  0  0  0  0  0  0
    5.0116   -1.8668    0.0000 C   0  0  0  0  0  0  0  0  0  0  0  0
    3.5349   -1.6034    0.0000 C   0  0  0  0  0  0  0  0  0  0  0  0
    2.5684   -2.7506    0.0000 C   0  0  0  0  0  0  0  0  0  0  0  0
    1.0707   -2.6692    0.0000 C   0  0  0  0  0  0  0  0  0  0  0  0
    4.6805    0.0329    0.0000 C   0  0  0  0  0  0  0  0  0  0  0  0
    4.6834    1.5329    0.0000 O   0  0  0  0  0  0  0  0  0  0  0  0
    3.3799   -0.7145    0.0000 N   0  0  0  0  0  0  0  0  0  0  0  0
    2.0824    0.0380    0.0000 C   0  0  0  0  0  0  0  0  0  0  0  0
    1.1205    1.1890    0.0000 C   0  0  0  0  0  0  0  0  0  0  0  0
    1.6363    2.5975    0.0000 C   0  0  0  0  0  0  0  0  0  0  0  0
    0.6743    3.7485    0.0000 C   0  0  0  0  0  0  0  0  0  0  0  0
    1.1901    5.1570    0.0000 N   0  0  0  0  0  0  0  0  0  0  0  0
    0.2282    6.3080    0.0000 C   0  0  0  0  0  0  0  0  0  0  0  0
    0.7440    7.7165    0.0000 N   0  0  0  0  0  0  0  0  0  0  0  0
   -1.2495    6.0504    0.0000 N   0  0  0  0  0  0  0  0  0  0  0  0
    0.7819   -0.7094    0.0000 C   0  0  0  0  0  0  0  0  0  0  0  0
    0.5961   -2.1979    0.0000 O   0  0  0  0  0  0  0  0  0  0  0  0
   -0.5157    0.0431    0.0000 N   0  0  0  0  0  0  0  0  0  0  0  0
   -1.8162   -0.7043    0.0000 C   0  0  0  0  0  0  0  0  0  0  0  0
   -2.7826   -1.8515    0.0000 C   0  0  0  0  0  0  0  0  0  0  0  0
   -4.2593   -1.5881    0.0000 C   0  0  0  0  0  0  0  0  0  0  0  0
   -5.2258   -2.7353    0.0000 C   0  0  0  0  0  0  0  0  0  0  0  0
   -6.7025   -2.4719    0.0000 N   0  0  0  0  0  0  0  0  0  0  0  0
   -7.6689   -3.6191    0.0000 C   0  0  0  0  0  0  0  0  0  0  0  0
   -9.1025   -3.1777    0.0000 N   0  0  0  0  0  0  0  0  0  0  0  0
   -7.1586   -5.0296    0.0000 N   0  0  0  0  0  0  0  0  0  0  0  0
   -3.1138    0.0482    0.0000 C   0  0  0  0  0  0  0  0  0  0  0  0
   -3.1108    1.5482    0.0000 O   0  0  0  0  0  0  0  0  0  0  0  0
   -4.4143   -0.6992    0.0000 N   0  0  0  0  0  0  0  0  0  0  0  0
   -5.7118    0.0533    0.0000 C   0  0  0  0  0  0  0  0  0  0  0  0
   -6.6738    1.2043    0.0000 C   0  0  0  0  0  0  0  0  0  0  0  0
   -6.1580    2.6128    0.0000 C   0  0  0  0  0  0  0  0  0  0  0  0
   -7.1199    3.7638    0.0000 C   0  0  0  0  0  0  0  0  0  0  0  0
   -6.6041    5.1723    0.0000 C   0  0  0  0  0  0  0  0  0  0  0  0
   -7.5660    6.3232    0.0000 N   0  0  0  0  0  0  0  0  0  0  0  0
   -7.0123   -0.6941    0.0000 C   0  0  0  0  0  0  0  0  0  0  0  0
   -7.3782   -2.1488    0.0000 O   0  0  0  0  0  0  0  0  0  0  0  0
   -8.3099    0.0584    0.0000 N   0  0  0  0  0  0  0  0  0  0  0  0
   -9.6104   -0.6890    0.0000 C   0  0  0  0  0  0  0  0  0  0  0  0
  -10.5768   -1.8362    0.0000 C   0  0  0  0  0  0  0  0  0  0  0  0
  -12.0535   -1.5728    0.0000 C   0  0  0  0  0  0  0  0  0  0  0  0
  -13.0200   -2.7200    0.0000 N   0  0  0  0  0  0  0  0  0  0  0  0
  -12.8900   -0.3277    0.0000 O   0  0  0  0  0  0  0  0  0  0  0  0
  -10.9080    0.0635    0.0000 C   0  0  0  0  0  0  0  0  0  0  0  0
  -10.9050    1.5635    0.0000 O   0  0  0  0  0  0  0  0  0  0  0  0
  -12.2085   -0.6839    0.0000 N   0  0  0  0  0  0  0  0  0  0  0  0
  -13.5060    0.0686    0.0000 C   0  0  0  0  0  0  0  0  0  0  0  0
  -14.4680    1.2196    0.0000 C   0  0  0  0  0  0  0  0  0  0  0  0
  -15.9457    0.9620    0.0000 C   0  0  0  0  0  0  0  0  0  0  0  0
  -16.6059   -0.3849    0.0000 C   0  0  0  0  0  0  0  0  0  0  0  0
  -18.0909   -0.1732    0.0000 N   0  0  0  0  0  0  0  0  0  0  0  0
  -18.3485    1.3045    0.0000 C   0  0  0  0  0  0  0  0  0  0  0  0
  -17.0227    2.0061    0.0000 N   0  0  0  0  0  0  0  0  0  0  0  0
  -14.8066   -0.6788    0.0000 C   0  0  0  0  0  0  0  0  0  0  0  0
  -14.9923   -2.1673    0.0000 O   0  0  0  0  0  0  0  0  0  0  0  0
  -16.1041    0.0737    0.0000 N   0  0  0  0  0  0  0  0  0  0  0  0
  -17.4046   -0.6737    0.0000 C   0  0  0  0  0  0  0  0  0  0  0  0
  -18.3711   -1.8209    0.0000 C   0  0  0  0  0  0  0  0  0  0  0  0
  -18.8869   -3.2294    0.0000 O   0  0  0  0  0  0  0  0  0  0  0  0
  -19.8676   -1.9227    0.0000 C   0  0  0  0  0  0  0  0  0  0  0  0
  -18.7022    0.0788    0.0000 C   0  0  0  0  0  0  0  0  0  0  0  0
  -19.0623    1.5350    0.0000 O   0  0  0  0  0  0  0  0  0  0  0  0
  -20.0027   -0.6686    0.0000 N   0  0  0  0  0  0  0  0  0  0  0  0
  -21.3003    0.0839    0.0000 C   0  0  0  0  0  0  0  0  0  0  0  0
  -22.2622    1.2349    0.0000 C   0  0  0  0  0  0  0  0  0  0  0  0
  -23.7399    0.9773    0.0000 C   0  0  0  0  0  0  0  0  0  0  0  0
  -24.4001   -0.3696    0.0000 C   0  0  0  0  0  0  0  0  0  0  0  0
  -25.8851   -0.1579    0.0000 N   0  0  0  0  0  0  0  0  0  0  0  0
  -26.1427    1.3198    0.0000 C   0  0  0  0  0  0  0  0  0  0  0  0
  -24.8169    2.0214    0.0000 N   0  0  0  0  0  0  0  0  0  0  0  0
  -22.6008   -0.6635    0.0000 C   0  0  0  0  0  0  0  0  0  0  0  0
  -22.6037   -2.1635    0.0000 O   0  0  0  0  0  0  0  0  0  0  0  0
  -23.8983    0.0890    0.0000 N   0  0  0  0  0  0  0  0  0  0  0  0
  -25.1988   -0.6584    0.0000 C   0  0  0  0  0  0  0  0  0  0  0  0
  -26.1653   -1.8056    0.0000 C   0  0  0  0  0  0  0  0  0  0  0  0
  -27.6420   -1.5422    0.0000 C   0  0  0  0  0  0  0  0  0  0  0  0
  -28.6084   -2.6894    0.0000 C   0  0  0  0  0  0  0  0  0  0  0  0
  -30.1062   -2.6080    0.0000 N   0  0  0  0  0  0  0  0  0  0  0  0
  -28.0981   -4.0999    0.0000 O   0  0  0  0  0  0  0  0  0  0  0  0
  -26.4964    0.0941    0.0000 C   0  0  0  0  0  0  0  0  0  0  0  0
  -26.8565    1.5503    0.0000 O   0  0  0  0  0  0  0  0  0  0  0  0
  -27.7969   -0.6533    0.0000 N   0  0  0  0  0  0  0  0  0  0  0  0
  -29.0945    0.0992    0.0000 C   0  0  0  0  0  0  0  0  0  0  0  0
  -30.0564    1.2502    0.0000 C   0  0  0  0  0  0  0  0  0  0  0  0
  -31.5341    0.9926    0.0000 C   0  0  0  0  0  0  0  0  0  0  0  0
  -32.4960    2.1436    0.0000 C   0  0  0  0  0  0  0  0  0  0  0  0
  -33.9941    2.0680    0.0000 N   0  0  0  0  0  0  0  0  0  0  0  0
  -31.9802    3.5521    0.0000 O   0  0  0  0  0  0  0  0  0  0  0  0
  -30.3950   -0.6482    0.0000 C   0  0  0  0  0  0  0  0  0  0  0  0
  -30.5807   -2.1367    0.0000 O   0  0  0  0  0  0  0  0  0  0  0  0
  -31.6925    0.1043    0.0000 N   0  0  0  0  0  0  0  0  0  0  0  0
  -32.9931   -0.6431    0.0000 C   0  0  0  0  0  0  0  0  0  0  0  0
  -33.9595   -1.7903    0.0000 C   0  0  0  0  0  0  0  0  0  0  0  0
  -35.4362   -1.5269    0.0000 C   0  0  0  0  0  0  0  0  0  0  0  0
  -36.4026   -2.6741    0.0000 O   0  0  0  0  0  0  0  0  0  0  0  0
  -36.2726   -0.2818    0.0000 O   0  0  0  0  0  0  0  0  0  0  0  0
  -34.2906    0.1094    0.0000 C   0  0  0  0  0  0  0  0  0  0  0  0
  -34.4705    1.5986    0.0000 O   0  0  0  0  0  0  0  0  0  0  0  0
  -35.5911   -0.6380    0.0000 N   0  0  0  0  0  0  0  0  0  0  0  0
  -36.8887    0.1145    0.0000 C   0  0  0  0  0  0  0  0  0  0  0  0
  -37.8506    1.2655    0.0000 C   0  0  0  0  0  0  0  0  0  0  0  0
  -39.3487    1.1899    0.0000 C   0  0  0  0  0  0  0  0  0  0  0  0
  -38.3609    2.6760    0.0000 C   0  0  0  0  0  0  0  0  0  0  0  0
  -37.3944    3.8232    0.0000 C   0  0  0  0  0  0  0  0  0  0  0  0
  -38.1892   -0.6329    0.0000 C   0  0  0  0  0  0  0  0  0  0  0  0
  -38.1921   -2.1329    0.0000 O   0  0  0  0  0  0  0  0  0  0  0  0
  -39.4868    0.1196    0.0000 N   0  0  0  0  0  0  0  0  0  0  0  0
  -40.7873   -0.6278    0.0000 C   0  0  0  0  0  0  0  0  0  0  0  0
  -41.7537   -1.7750    0.0000 C   0  0  0  0  0  0  0  0  0  0  0  0
  -43.2304   -1.5116    0.0000 C   0  0  0  0  0  0  0  0  0  0  0  0
  -44.1968   -2.6588    0.0000 O   0  0  0  0  0  0  0  0  0  0  0  0
  -44.0668   -0.2665    0.0000 O   0  0  0  0  0  0  0  0  0  0  0  0
  -42.0848    0.1247    0.0000 C   0  0  0  0  0  0  0  0  0  0  0  0
  -42.0819    1.6247    0.0000 O   0  0  0  0  0  0  0  0  0  0  0  0
  -43.3853   -0.6227    0.0000 N   0  0  0  0  0  0  0  0  0  0  0  0
  -44.6829    0.1298    0.0000 C   0  0  0  0  0  0  0  0  0  0  0  0
  -45.6448    1.2808    0.0000 C   0  0  0  0  0  0  0  0  0  0  0  0
  -47.1225    1.0232    0.0000 C   0  0  0  0  0  0  0  0  0  0  0  0
  -48.0845    2.1742    0.0000 O   0  0  0  0  0  0  0  0  0  0  0  0
  -47.9638   -0.2187    0.0000 O   0  0  0  0  0  0  0  0  0  0  0  0
  -45.9834   -0.6176    0.0000 C   0  0  0  0  0  0  0  0  0  0  0  0
  -45.9864   -2.1176    0.0000 O   0  0  0  0  0  0  0  0  0  0  0  0
  -47.2810    0.1349    0.0000 N   0  0  0  0  0  0  0  0  0  0  0  0
  -48.5815   -0.6125    0.0000 C   0  0  0  0  0  0  0  0  0  0  0  0
  -49.5479   -1.7597    0.0000 C   0  0  0  0  0  0  0  0  0  0  0  0
  -51.0246   -1.4963    0.0000 C   0  0  0  0  0  0  0  0  0  0  0  0
  -51.9910   -2.6435    0.0000 C   0  0  0  0  0  0  0  0  0  0  0  0
  -52.3222   -0.7438    0.0000 C   0  0  0  0  0  0  0  0  0  0  0  0
  -49.8790    0.1400    0.0000 C   0  0  0  0  0  0  0  0  0  0  0  0
  -51.2610   -0.4433    0.0000 O   0  0  0  0  0  0  0  0  0  0  0  0
  -49.8761    1.6400    0.0000 O   0  0  0  0  0  0  0  0  0  0  0  0
   46.0697    1.4405    0.0000 H   0  0  0  0  0  0  0  0  0  0  0  0
   46.2437   -3.0487    0.0000 H   0  0  0  0  0  0  0  0  0  0  0  0
   48.8388   -4.5538    0.0000 H   0  0  0  0  0  0  0  0  0  0  0  0
   48.4876    1.4024    0.0000 H   0  0  0  0  0  0  0  0  0  0  0  0
   55.4410    3.1237    0.0000 H   0  0  0  0  0  0  0  0  0  0  0  0
   56.5114   -1.9610    0.0000 H   0  0  0  0  0  0  0  0  0  0  0  0
   53.5757   -2.5790    0.0000 H   0  0  0  0  0  0  0  0  0  0  0  0
   58.4455   -0.2263    0.0000 H   0  0  0  0  0  0  0  0  0  0  0  0
   48.6371   -0.9636    0.0000 H   0  0  0  0  0  0  0  0  0  0  0  0
   46.6073    1.4510    0.0000 H   0  0  0  0  0  0  0  0  0  0  0  0
   50.5024    4.7391    0.0000 H   0  0  0  0  0  0  0  0  0  0  0  0
   48.0330    5.5468    0.0000 H   0  0  0  0  0  0  0  0  0  0  0  0
   43.6545    1.4564    0.0000 H   0  0  0  0  0  0  0  0  0  0  0  0
   41.3846   -1.9382    0.0000 H   0  0  0  0  0  0  0  0  0  0  0  0
   43.3129   -1.9420    0.0000 H   0  0  0  0  0  0  0  0  0  0  0  0
   40.0915    1.1125    0.0000 H   0  0  0  0  0  0  0  0  0  0  0  0
   42.0199    1.1087    0.0000 H   0  0  0  0  0  0  0  0  0  0  0  0
   38.4583    1.4666    0.0000 H   0  0  0  0  0  0  0  0  0  0  0  0
   38.1168   -1.9318    0.0000 H   0  0  0  0  0  0  0  0  0  0  0  0
   35.8482   -3.3889    0.0000 H   0  0  0  0  0  0  0  0  0  0  0  0
   37.4860   -2.6805    0.0000 H   0  0  0  0  0  0  0  0  0  0  0  0
   33.5156   -0.7595    0.0000 H   0  0  0  0  0  0  0  0  0  0  0  0
   34.5057   -0.1788    0.0000 H   0  0  0  0  0  0  0  0  0  0  0  0
   33.4050   -4.2727    0.0000 H   0  0  0  0  0  0  0  0  0  0  0  0
   34.9415   -3.7169    0.0000 H   0  0  0  0  0  0  0  0  0  0  0  0
   30.8890   -1.9597    0.0000 H   0  0  0  0  0  0  0  0  0  0  0  0
   32.6089   -1.0875    0.0000 H   0  0  0  0  0  0  0  0  0  0  0  0
   29.8686   -3.2542    0.0000 H   0  0  0  0  0  0  0  0  0  0  0  0
   30.7864   -5.1041    0.0000 H   0  0  0  0  0  0  0  0  0  0  0  0
   32.4983   -4.6007    0.0000 H   0  0  0  0  0  0  0  0  0  0  0  0
   34.1910   -2.2304    0.0000 H   0  0  0  0  0  0  0  0  0  0  0  0
   34.2257    1.1240    0.0000 H   0  0  0  0  0  0  0  0  0  0  0  0
   32.8131    2.5363    0.0000 H   0  0  0  0  0  0  0  0  0  0  0  0
   31.1012    2.0329    0.0000 H   0  0  0  0  0  0  0  0  0  0  0  0
   31.0820    0.2486    0.0000 H   0  0  0  0  0  0  0  0  0  0  0  0
   30.4812    1.4711    0.0000 H   0  0  0  0  0  0  0  0  0  0  0  0
   30.1751   -2.0252    0.0000 H   0  0  0  0  0  0  0  0  0  0  0  0
   29.7738   -2.5015    0.0000 H   0  0  0  0  0  0  0  0  0  0  0  0
   26.4431   -3.7570    0.0000 H   0  0  0  0  0  0  0  0  0  0  0  0
   25.8185   -2.6701    0.0000 H   0  0  0  0  0  0  0  0  0  0  0  0
   25.6200   -0.8968    0.0000 H   0  0  0  0  0  0  0  0  0  0  0  0
   26.7115   -0.1635    0.0000 H   0  0  0  0  0  0  0  0  0  0  0  0
   26.5768   -2.2489    0.0000 H   0  0  0  0  0  0  0  0  0  0  0  0
   26.5641    1.0129    0.0000 H   0  0  0  0  0  0  0  0  0  0  0  0
   23.3069    2.0482    0.0000 H   0  0  0  0  0  0  0  0  0  0  0  0
   23.2878    0.2639    0.0000 H   0  0  0  0  0  0  0  0  0  0  0  0
   25.9853    3.6988    0.0000 H   0  0  0  0  0  0  0  0  0  0  0  0
   26.3985    1.9628    0.0000 H   0  0  0  0  0  0  0  0  0  0  0  0
   22.6870    1.4864    0.0000 H   0  0  0  0  0  0  0  0  0  0  0  0
   22.5284   -1.9012    0.0000 H   0  0  0  0  0  0  0  0  0  0  0  0
   20.0842   -3.3059    0.0000 H   0  0  0  0  0  0  0  0  0  0  0  0
   21.8976   -2.6499    0.0000 H   0  0  0  0  0  0  0  0  0  0  0  0
   19.4324    1.0329    0.0000 H   0  0  0  0  0  0  0  0  0  0  0  0
   16.2999    1.2850    0.0000 H   0  0  0  0  0  0  0  0  0  0  0  0
   13.8738   -2.1003    0.0000 H   0  0  0  0  0  0  0  0  0  0  0  0
   15.7137   -3.6650    0.0000 H   0  0  0  0  0  0  0  0  0  0  0  0
   18.6671   -4.1917    0.0000 H   0  0  0  0  0  0  0  0  0  0  0  0
   18.6026   -2.1998    0.0000 H   0  0  0  0  0  0  0  0  0  0  0  0
   18.7699    1.0282    0.0000 H   0  0  0  0  0  0  0  0  0  0  0  0
   15.4936    0.2792    0.0000 H   0  0  0  0  0  0  0  0  0  0  0  0
   16.4204    3.8465    0.0000 H   0  0  0  0  0  0  0  0  0  0  0  0
   18.1911    3.7141    0.0000 H   0  0  0  0  0  0  0  0  0  0  0  0
   18.6043    1.9781    0.0000 H   0  0  0  0  0  0  0  0  0  0  0  0
   13.9346    2.1743    0.0000 H   0  0  0  0  0  0  0  0  0  0  0  0
   14.5700    0.6691    0.0000 H   0  0  0  0  0  0  0  0  0  0  0  0
   14.1167    4.1635    0.0000 H   0  0  0  0  0  0  0  0  0  0  0  0
   15.9301    4.8195    0.0000 H   0  0  0  0  0  0  0  0  0  0  0  0
   16.9108    3.5127    0.0000 H   0  0  0  0  0  0  0  0  0  0  0  0
   14.7126    1.4687    0.0000 H   0  0  0  0  0  0  0  0  0  0  0  0
   14.7342   -1.8859    0.0000 H   0  0  0  0  0  0  0  0  0  0  0  0
   12.2900   -3.2906    0.0000 H   0  0  0  0  0  0  0  0  0  0  0  0
   14.0019   -2.7872    0.0000 H   0  0  0  0  0  0  0  0  0  0  0  0
   10.0315   -0.8662    0.0000 H   0  0  0  0  0  0  0  0  0  0  0  0
   11.1231   -0.1329    0.0000 H   0  0  0  0  0  0  0  0  0  0  0  0
    7.9195   -3.6497    0.0000 H   0  0  0  0  0  0  0  0  0  0  0  0
    8.0049   -1.2577    0.0000 H   0  0  0  0  0  0  0  0  0  0  0  0
   10.8083   -2.1845    0.0000 H   0  0  0  0  0  0  0  0  0  0  0  0
   10.8430    1.1699    0.0000 H   0  0  0  0  0  0  0  0  0  0  0  0
    7.7185    2.0788    0.0000 H   0  0  0  0  0  0  0  0  0  0  0  0
    7.6994    0.2945    0.0000 H   0  0  0  0  0  0  0  0  0  0  0  0
   12.0032    1.8147    0.0000 H   0  0  0  0  0  0  0  0  0  0  0  0
   12.9017    4.5059    0.0000 H   0  0  0  0  0  0  0  0  0  0  0  0
   10.0159    7.9588    0.0000 H   0  0  0  0  0  0  0  0  0  0  0  0
    8.0224    6.2927    0.0000 H   0  0  0  0  0  0  0  0  0  0  0  0
    6.9908    3.4756    0.0000 H   0  0  0  0  0  0  0  0  0  0  0  0
    7.0986    1.5170    0.0000 H   0  0  0  0  0  0  0  0  0  0  0  0
    6.9399   -1.8706    0.0000 H   0  0  0  0  0  0  0  0  0  0  0  0
    4.6713   -3.3277    0.0000 H   0  0  0  0  0  0  0  0  0  0  0  0
    6.3091   -2.6193    0.0000 H   0  0  0  0  0  0  0  0  0  0  0  0
    2.3387   -0.6983    0.0000 H   0  0  0  0  0  0  0  0  0  0  0  0
    3.3289   -0.1176    0.0000 H   0  0  0  0  0  0  0  0  0  0  0  0
    2.0527   -4.1591    0.0000 H   0  0  0  0  0  0  0  0  0  0  0  0
    3.7646   -3.6557    0.0000 H   0  0  0  0  0  0  0  0  0  0  0  0
    0.1253   -3.6344    0.0000 H   0  0  0  0  0  0  0  0  0  0  0  0
   -0.3102   -1.8972    0.0000 H   0  0  0  0  0  0  0  0  0  0  0  0
    1.4097   -1.0251    0.0000 H   0  0  0  0  0  0  0  0  0  0  0  0
    3.0141   -2.1692    0.0000 H   0  0  0  0  0  0  0  0  0  0  0  0
    3.1814    1.0588    0.0000 H   0  0  0  0  0  0  0  0  0  0  0  0
   -0.1771    1.9415    0.0000 H   0  0  0  0  0  0  0  0  0  0  0  0
   -0.0948    0.3097    0.0000 H   0  0  0  0  0  0  0  0  0  0  0  0
    2.6027    3.7447    0.0000 H   0  0  0  0  0  0  0  0  0  0  0  0
    3.0159    2.0087    0.0000 H   0  0  0  0  0  0  0  0  0  0  0  0
   -0.6232    4.5010    0.0000 H   0  0  0  0  0  0  0  0  0  0  0  0
   -0.4247    2.7277    0.0000 H   0  0  0  0  0  0  0  0  0  0  0  0
    2.6678    5.4146    0.0000 H   0  0  0  0  0  0  0  0  0  0  0  0
   -0.2179    8.8674    0.0000 H   0  0  0  0  0  0  0  0  0  0  0  0
    2.2217    7.9741    0.0000 H   0  0  0  0  0  0  0  0  0  0  0  0
   -2.2114    7.2013    0.0000 H   0  0  0  0  0  0  0  0  0  0  0  0
   -1.7653    4.6418    0.0000 H   0  0  0  0  0  0  0  0  0  0  0  0
   -0.6956    1.5323    0.0000 H   0  0  0  0  0  0  0  0  0  0  0  0
   -1.0017   -1.9640    0.0000 H   0  0  0  0  0  0  0  0  0  0  0  0
   -3.1229   -3.3124    0.0000 H   0  0  0  0  0  0  0  0  0  0  0  0
   -1.4851   -2.6040    0.0000 H   0  0  0  0  0  0  0  0  0  0  0  0
   -5.5569   -0.8356    0.0000 H   0  0  0  0  0  0  0  0  0  0  0  0
   -4.4653   -0.1023    0.0000 H   0  0  0  0  0  0  0  0  0  0  0  0
   -5.7416   -4.1438    0.0000 H   0  0  0  0  0  0  0  0  0  0  0  0
   -4.0296   -3.6404    0.0000 H   0  0  0  0  0  0  0  0  0  0  0  0
   -7.5389   -1.2268    0.0000 H   0  0  0  0  0  0  0  0  0  0  0  0
  -10.1120   -4.5029    0.0000 H   0  0  0  0  0  0  0  0  0  0  0  0
   -9.5015   -1.8869    0.0000 H   0  0  0  0  0  0  0  0  0  0  0  0
   -8.1251   -6.1768    0.0000 H   0  0  0  0  0  0  0  0  0  0  0  0
   -5.6819   -5.2930    0.0000 H   0  0  0  0  0  0  0  0  0  0  0  0
   -4.7801   -2.1539    0.0000 H   0  0  0  0  0  0  0  0  0  0  0  0
   -4.6128    1.0741    0.0000 H   0  0  0  0  0  0  0  0  0  0  0  0
   -7.9713    1.9568    0.0000 H   0  0  0  0  0  0  0  0  0  0  0  0
   -7.8891    0.3250    0.0000 H   0  0  0  0  0  0  0  0  0  0  0  0
   -5.0589    3.6336    0.0000 H   0  0  0  0  0  0  0  0  0  0  0  0
   -4.7783    2.0240    0.0000 H   0  0  0  0  0  0  0  0  0  0  0  0
   -8.4995    4.3525    0.0000 H   0  0  0  0  0  0  0  0  0  0  0  0
   -8.2190    2.7430    0.0000 H   0  0  0  0  0  0  0  0  0  0  0  0
   -5.6377    6.3195    0.0000 H   0  0  0  0  0  0  0  0  0  0  0  0
   -5.2245    4.5835    0.0000 H   0  0  0  0  0  0  0  0  0  0  0  0
   -7.0502    7.7318    0.0000 H   0  0  0  0  0  0  0  0  0  0  0  0
   -8.8636    7.0758    0.0000 H   0  0  0  0  0  0  0  0  0  0  0  0
   -8.6651    5.3024    0.0000 H   0  0  0  0  0  0  0  0  0  0  0  0
   -8.4898    1.5476    0.0000 H   0  0  0  0  0  0  0  0  0  0  0  0
   -8.6485   -1.8400    0.0000 H   0  0  0  0  0  0  0  0  0  0  0  0
  -11.0926   -3.2447    0.0000 H   0  0  0  0  0  0  0  0  0  0  0  0
   -9.1357   -2.2524    0.0000 H   0  0  0  0  0  0  0  0  0  0  0  0
  -14.5178   -2.6386    0.0000 H   0  0  0  0  0  0  0  0  0  0  0  0
  -12.5097   -4.1305    0.0000 H   0  0  0  0  0  0  0  0  0  0  0  0
  -12.5743   -2.1386    0.0000 H   0  0  0  0  0  0  0  0  0  0  0  0
  -12.5396    1.2158    0.0000 H   0  0  0  0  0  0  0  0  0  0  0  0
  -14.9782    2.6301    0.0000 H   0  0  0  0  0  0  0  0  0  0  0  0
  -13.1675    1.9670    0.0000 H   0  0  0  0  0  0  0  0  0  0  0  0
  -15.7479   -1.6153    0.0000 H   0  0  0  0  0  0  0  0  0  0  0  0
  -19.2585   -1.1149    0.0000 H   0  0  0  0  0  0  0  0  0  0  0  0
  -19.6954    1.9647    0.0000 H   0  0  0  0  0  0  0  0  0  0  0  0
  -16.4642    1.5299    0.0000 H   0  0  0  0  0  0  0  0  0  0  0  0
  -16.5902   -1.9334    0.0000 H   0  0  0  0  0  0  0  0  0  0  0  0
  -17.0735   -2.5735    0.0000 H   0  0  0  0  0  0  0  0  0  0  0  0
  -17.9249   -4.3804    0.0000 H   0  0  0  0  0  0  0  0  0  0  0  0
  -20.8142   -2.7047    0.0000 H   0  0  0  0  0  0  0  0  0  0  0  0
  -21.1453   -0.8050    0.0000 H   0  0  0  0  0  0  0  0  0  0  0  0
  -20.1417   -0.0831    0.0000 H   0  0  0  0  0  0  0  0  0  0  0  0
  -20.1885   -2.1571    0.0000 H   0  0  0  0  0  0  0  0  0  0  0  0
  -20.3338    1.2311    0.0000 H   0  0  0  0  0  0  0  0  0  0  0  0
  -22.7724    2.6454    0.0000 H   0  0  0  0  0  0  0  0  0  0  0  0
  -20.9617    1.9823    0.0000 H   0  0  0  0  0  0  0  0  0  0  0  0
  -23.5421   -1.6000    0.0000 H   0  0  0  0  0  0  0  0  0  0  0  0
  -27.1588   -0.9502    0.0000 H   0  0  0  0  0  0  0  0  0  0  0  0
  -27.4896    1.9800    0.0000 H   0  0  0  0  0  0  0  0  0  0  0  0
  -24.2584    1.5452    0.0000 H   0  0  0  0  0  0  0  0  0  0  0  0
  -24.3844   -1.9181    0.0000 H   0  0  0  0  0  0  0  0  0  0  0  0
  -26.6811   -3.2141    0.0000 H   0  0  0  0  0  0  0  0  0  0  0  0
  -24.8677   -2.5582    0.0000 H   0  0  0  0  0  0  0  0  0  0  0  0
  -28.9395   -0.7897    0.0000 H   0  0  0  0  0  0  0  0  0  0  0  0
  -27.8480   -0.0564    0.0000 H   0  0  0  0  0  0  0  0  0  0  0  0
  -31.0515   -3.5732    0.0000 H   0  0  0  0  0  0  0  0  0  0  0  0
  -31.1337   -1.2966    0.0000 H   0  0  0  0  0  0  0  0  0  0  0  0
  -28.1627   -2.1080    0.0000 H   0  0  0  0  0  0  0  0  0  0  0  0
  -28.1280    1.2464    0.0000 H   0  0  0  0  0  0  0  0  0  0  0  0
  -30.5667    2.6607    0.0000 H   0  0  0  0  0  0  0  0  0  0  0  0
  -28.7559    1.9976    0.0000 H   0  0  0  0  0  0  0  0  0  0  0  0
  -32.8346    0.2452    0.0000 H   0  0  0  0  0  0  0  0  0  0  0  0
  -31.9254   -0.4555    0.0000 H   0  0  0  0  0  0  0  0  0  0  0  0
  -34.9357    3.0369    0.0000 H   0  0  0  0  0  0  0  0  0  0  0  0
  -34.8597    0.6446    0.0000 H   0  0  0  0  0  0  0  0  0  0  0  0
  -32.0527    1.5604    0.0000 H   0  0  0  0  0  0  0  0  0  0  0  0
  -32.0311   -1.7941    0.0000 H   0  0  0  0  0  0  0  0  0  0  0  0
  -34.4753   -3.1988    0.0000 H   0  0  0  0  0  0  0  0  0  0  0  0
  -32.6619   -2.5429    0.0000 H   0  0  0  0  0  0  0  0  0  0  0  0
  -35.9569   -2.0927    0.0000 H   0  0  0  0  0  0  0  0  0  0  0  0
  -35.9223    1.2617    0.0000 H   0  0  0  0  0  0  0  0  0  0  0  0
  -36.4687    1.8488    0.0000 H   0  0  0  0  0  0  0  0  0  0  0  0
  -40.4234    2.0330    0.0000 H   0  0  0  0  0  0  0  0  0  0  0  0
  -40.6288    0.2605    0.0000 H   0  0  0  0  0  0  0  0  0  0  0  0
  -39.5402   -0.4771    0.0000 H   0  0  0  0  0  0  0  0  0  0  0  0
  -39.3228    3.8270    0.0000 H   0  0  0  0  0  0  0  0  0  0  0  0
  -39.8036    2.2655    0.0000 H   0  0  0  0  0  0  0  0  0  0  0  0
  -37.9047    5.2337    0.0000 H   0  0  0  0  0  0  0  0  0  0  0  0
  -36.0939    4.5706    0.0000 H   0  0  0  0  0  0  0  0  0  0  0  0
  -36.2994    2.7981    0.0000 H   0  0  0  0  0  0  0  0  0  0  0  0
  -39.8469    1.5757    0.0000 H   0  0  0  0  0  0  0  0  0  0  0  0
  -39.8253   -1.7788    0.0000 H   0  0  0  0  0  0  0  0  0  0  0  0
  -42.2695   -3.1835    0.0000 H   0  0  0  0  0  0  0  0  0  0  0  0
  -40.4561   -2.5276    0.0000 H   0  0  0  0  0  0  0  0  0  0  0  0
  -43.7512   -2.0774    0.0000 H   0  0  0  0  0  0  0  0  0  0  0  0
  -43.7165    1.2770    0.0000 H   0  0  0  0  0  0  0  0  0  0  0  0
  -46.1551    2.6913    0.0000 H   0  0  0  0  0  0  0  0  0  0  0  0
  -44.3443    2.0282    0.0000 H   0  0  0  0  0  0  0  0  0  0  0  0
  -47.6411    1.5910    0.0000 H   0  0  0  0  0  0  0  0  0  0  0  0
  -47.6196   -1.7635    0.0000 H   0  0  0  0  0  0  0  0  0  0  0  0
  -49.8882   -3.2206    0.0000 H   0  0  0  0  0  0  0  0  0  0  0  0
  -48.2504   -2.5123    0.0000 H   0  0  0  0  0  0  0  0  0  0  0  0
  -51.0480    0.0035    0.0000 H   0  0  0  0  0  0  0  0  0  0  0  0
  -53.4888   -2.5621    0.0000 H   0  0  0  0  0  0  0  0  0  0  0  0
  -52.5068   -4.0520    0.0000 H   0  0  0  0  0  0  0  0  0  0  0  0
  -50.7949   -3.5486    0.0000 H   0  0  0  0  0  0  0  0  0  0  0  0
  -53.7041   -1.3271    0.0000 H   0  0  0  0  0  0  0  0  0  0  0  0
  -53.2841    0.4072    0.0000 H   0  0  0  0  0  0  0  0  0  0  0  0
  -51.3557    0.4034    0.0000 H   0  0  0  0  0  0  0  0  0  0  0  0
  1  2  1  0
  2  3  1  0
  3  4  2  0
  4  5  1  0
  5  6  2  0
  6  7  1  0
  7  8  2  0
  7  9  1  0
  9 10  1  0
 10 11  1  0
 11 12  2  0
  9 13  1  0
 13 14  1  0
 14 15  2  0
 15 16  1  0
 16 17  2  0
 17 18  1  0
 16 19  1  0
 14 20  1  0
 20 21  1  0
 21 22  2  0
 22 23  1  0
 23 24  2  0
 24 25  1  0
 25 26  2  0
 25 27  1  0
  1 28  2  0
  1 29  1  0
 29 30  1  0
 30 31  1  0
 31 32  1  0
 32 33  2  0
 32 34  1  0
 34 35  1  0
 35 36  1  0
 36 37  1  0
 37 38  1  0
 38 39  1  0
 39 40  1  0
 35 41  1  0
 41 42  2  0
 41 43  1  0
 43 44  1  0
 44 45  1  0
 44 46  1  0
 46 47  2  0
 46 48  1  0
 48 49  1  0
 49 50  1  0
 50 51  1  0
 50 52  1  0
 49 53  1  0
 53 54  2  0
 53 55  1  0
 55 56  1  0
 56 57  1  0
 57 58  1  0
 58 59  1  0
 59 60  2  0
 59 61  1  0
 56 62  1  0
 62 63  2  0
 62 64  1  0
 64 65  1  0
 65 66  1  0
 66 67  1  0
 67 68  2  0
 68 69  1  0
 69 70  2  0
 70 71  1  0
 70 72  1  0
 72 73  2  0
 65 74  1  0
 74 75  2  0
 74 76  1  0
 76 77  1  0
 77 78  1  0
 78 79  1  0
 78 80  1  0
 80 81  1  0
 77 82  1  0
 82 83  2  0
 82 84  1  0
 84 85  1  0
 85 86  1  0
 86 87  1  0
 87 88  1  0
 88 89  1  0
 88 90  2  0
 85 91  1  0
 91 92  2  0
 91 93  1  0
 93 94  1  0
 94 95  1  0
 95 96  1  0
 96 97  2  0
 97 98  1  0
 98 99  2  0
 99100  1  0
 99101  1  0
101102  2  0
 94103  1  0
103104  2  0
103105  1  0
105106  1  0
106107  1  0
107108  1  0
108109  1  0
109110  1  0
106111  1  0
111112  2  0
111113  1  0
113114  1  0
114115  1  0
115116  1  0
116117  1  0
117118  1  0
118119  1  0
119120  2  3
119121  1  0
114122  1  0
122123  2  0
122124  1  0
124125  1  0
125126  1  0
126127  1  0
127128  1  0
128129  1  0
129130  1  0
130131  2  3
130132  1  0
125133  1  0
133134  2  0
133135  1  0
135136  1  0
136137  1  0
137138  1  0
138139  1  0
139140  1  0
140141  1  0
136142  1  0
142143  2  0
142144  1  0
144145  1  0
145146  1  0
146147  1  0
147148  1  0
147149  2  0
145150  1  0
150151  2  0
150152  1  0
152153  1  0
153154  1  0
154155  1  0
155156  2  0
156157  1  0
157158  1  0
158159  2  0
153160  1  0
160161  2  0
160162  1  0
162163  1  0
163164  1  0
164165  1  0
164166  1  0
163167  1  0
167168  2  0
167169  1  0
169170  1  0
170171  1  0
171172  1  0
172173  2  0
173174  1  0
174175  1  0
175176  2  0
170177  1  0
177178  2  0
177179  1  0
179180  1  0
180181  1  0
181182  1  0
182183  1  0
183184  1  0
183185  2  0
180186  1  0
186187  2  0
186188  1  0
188189  1  0
189190  1  0
190191  1  0
191192  1  0
192193  1  0
192194  2  0
189195  1  0
195196  2  0
195197  1  0
197198  1  0
198199  1  0
199200  1  0
200201  2  0
200202  1  0
198203  1  0
203204  2  0
203205  1  0
205206  1  0
206207  1  0
207208  1  0
207209  1  0
209210  1  0
206211  1  0
211212  2  0
211213  1  0
213214  1  0
214215  1  0
215216  1  0
216217  2  0
216218  1  0
214219  1  0
219220  2  0
219221  1  0
221222  1  0
222223  1  0
223224  1  0
224225  2  0
224226  1  0
222227  1  0
227228  2  0
227229  1  0
229230  1  0
230231  1  0
231232  1  0
232233  1  0
232234  1  0
230235  1  0
235236  2  0
235237  1  0
  8  3  1  0
 73 67  1  0
102 96  1  0
159155  1  0
176172  1  0
 11  6  1  0
 18 13  2  0
 22  9  1  0
 26 21  1  0
  2238  1  0
  4239  1  0
  5240  1  0
  8241  1  0
 15242  1  0
 17243  1  0
 18244  1  0
 19245  1  0
 23246  1  0
 24247  1  0
 26248  1  0
 27249  1  0
 29250  1  0
 30251  1  0
 30252  1  0
 31253  1  0
 31254  1  0
 34255  1  0
 35256  1  1
 36257  1  0
 36258  1  0
 37259  1  0
 37260  1  0
 38261  1  0
 38262  1  0
 39263  1  0
 39264  1  0
 40265  1  0
 40266  1  0
 40267  1  0
 43268  1  0
 44269  1  6
 45270  1  0
 45271  1  0
 45272  1  0
 48273  1  0
 49274  1  1
 50275  1  1
 51276  1  0
 52277  1  0
 52278  1  0
 52279  1  0
 55280  1  0
 56281  1  6
 57282  1  0
 57283  1  0
 58284  1  0
 58285  1  0
 64286  1  0
 65287  1  1
 66288  1  0
 66289  1  0
 68290  1  0
 69291  1  0
 71292  1  0
 72293  1  0
 73294  1  0
 76295  1  0
 77296  1  6
 78297  1  1
 79298  1  0
 79299  1  0
 79300  1  0
 80301  1  0
 80302  1  0
 81303  1  0
 81304  1  0
 81305  1  0
 84306  1  0
 85307  1  1
 86308  1  0
 86309  1  0
 87310  1  0
 87311  1  0
 89312  1  0
 89313  1  0
 93314  1  0
 94315  1  6
 95316  1  0
 95317  1  0
 97318  1  0
 98319  1  0
100320  1  0
101321  1  0
102322  1  0
105323  1  0
106324  1  6
107325  1  0
107326  1  0
108327  1  0
108328  1  0
109329  1  0
109330  1  0
110331  1  0
110332  1  0
110333  1  0
113334  1  0
114335  1  6
115336  1  0
115337  1  0
116338  1  0
116339  1  0
117340  1  0
117341  1  0
118342  1  0
120343  1  0
120344  1  0
121345  1  0
121346  1  0
124347  1  0
125348  1  1
126349  1  0
126350  1  0
127351  1  0
127352  1  0
128353  1  0
128354  1  0
129355  1  0
131356  1  0
131357  1  0
132358  1  0
132359  1  0
135360  1  0
136361  1  6
137362  1  0
137363  1  0
138364  1  0
138365  1  0
139366  1  0
139367  1  0
140368  1  0
140369  1  0
141370  1  0
141371  1  0
141372  1  0
144373  1  0
145374  1  1
146375  1  0
146376  1  0
148377  1  0
148378  1  0
152379  1  0
153380  1  6
154381  1  0
154382  1  0
156383  1  0
157384  1  0
158385  1  0
162386  1  0
163387  1  1
164388  1  1
165389  1  0
166390  1  0
166391  1  0
166392  1  0
169393  1  0
170394  1  6
171395  1  0
171396  1  0
173397  1  0
174398  1  0
175399  1  0
179400  1  0
180401  1  1
181402  1  0
181403  1  0
182404  1  0
182405  1  0
184406  1  0
184407  1  0
188408  1  0
189409  1  6
190410  1  0
190411  1  0
191412  1  0
191413  1  0
193414  1  0
193415  1  0
197416  1  0
198417  1  1
199418  1  0
199419  1  0
205420  1  0
206421  1  6
207422  1  6
208423  1  0
208424  1  0
208425  1  0
209426  1  0
209427  1  0
210428  1  0
210429  1  0
210430  1  0
213431  1  0
214432  1  1
215433  1  0
215434  1  0
221435  1  0
222436  1  6
223437  1  0
223438  1  0
229439  1  0
230440  1  1
231441  1  0
231442  1  0
232443  1  0
233444  1  0
233445  1  0
233446  1  0
234447  1  0
234448  1  0
234449  1  0
M  CHG  8  40   1  61  -1 120   1 131   1 141   1 202  -1 218  -1 226  -1
M  CHG  1 237  -1
M  END
