
     RDKit          2D

275285  0  0  0  0  0  0  0  0999 V2000
   10.9992    1.7500    0.0000 C   0  0  0  0  0  0  0  0  0  0  0  0
    9.8040    0.8437    0.0000 N   0  0  0  0  0  0  0  0  0  0  0  0
    8.4214    1.4257    0.0000 C   0  0  0  0  0  0  0  0  0  0  0  0
    8.2342    2.9139    0.0000 C   0  0  0  0  0  0  0  0  0  0  0  0
    6.8516    3.4959    0.0000 C   0  0  0  0  0  0  0  0  0  0  0  0
    5.6564    2.5895    0.0000 C   0  0  0  0  0  0  0  0  0  0  0  0
    5.8437    1.1013    0.0000 C   0  0  0  0  0  0  0  0  0  0  0  0
    7.2262    0.5193    0.0000 C   0  0  0  0  0  0  0  0  0  0  0  0
    4.4861    0.4633    0.0000 C   0  0  0  0  0  0  0  0  0  0  0  0
    3.4599    1.5572    0.0000 O   0  0  0  0  0  0  0  0  0  0  0  0
    4.1831    2.8713    0.0000 C   0  0  0  0  0  0  0  0  0  0  0  0
    3.5451    4.2289    0.0000 O   0  0  0  0  0  0  0  0  0  0  0  0
    3.0693   -0.0293    0.0000 C   0  0  0  0  0  0  0  0  0  0  0  0
    2.7876   -1.5026    0.0000 C   0  0  0  0  0  0  0  0  0  0  0  0
    1.3708   -1.9953    0.0000 C   0  0  0  0  0  0  0  0  0  0  0  0
    0.2357   -1.0146    0.0000 C   0  0  0  0  0  0  0  0  0  0  0  0
    0.5175    0.4587    0.0000 C   0  0  0  0  0  0  0  0  0  0  0  0
    1.9343    0.9513    0.0000 C   0  0  0  0  0  0  0  0  0  0  0  0
   -1.0198   -1.8354    0.0000 O   0  0  0  0  0  0  0  0  0  0  0  0
    3.9226   -2.4833    0.0000 O   0  0  0  0  0  0  0  0  0  0  0  0
    5.3394   -1.9907    0.0000 C   0  0  0  0  0  0  0  0  0  0  0  0
    5.6212   -0.5174    0.0000 C   0  0  0  0  0  0  0  0  0  0  0  0
    6.9065   -0.7123    0.0000 C   0  0  0  0  0  0  0  0  0  0  0  0
    7.5118   -1.2354    0.0000 C   0  0  0  0  0  0  0  0  0  0  0  0
    7.3615   -2.0211    0.0000 C   0  0  0  0  0  0  0  0  0  0  0  0
    6.6059   -2.2839    0.0000 C   0  0  0  0  0  0  0  0  0  0  0  0
    9.0262   -3.4595    0.0000 O   0  0  0  0  0  0  0  0  0  0  0  0
   10.4574    3.1488    0.0000 S   0  0  0  0  0  0  0  0  0  0  0  0
   12.3817    1.1681    0.0000 N   0  0  0  0  0  0  0  0  0  0  0  0
   13.5769    2.0744    0.0000 C   0  0  0  0  0  0  0  0  0  0  0  0
   14.9594    1.4925    0.0000 C   0  0  0  0  0  0  0  0  0  0  0  0
   16.1547    2.3988    0.0000 C   0  0  0  0  0  0  0  0  0  0  0  0
   15.9674    3.8871    0.0000 O   0  0  0  0  0  0  0  0  0  0  0  0
   17.5372    1.8169    0.0000 N   0  0  0  0  0  0  0  0  0  0  0  0
   18.8206    2.5933    0.0000 C   0  0  0  0  0  0  0  0  0  0  0  0
   19.9556    1.6126    0.0000 C   0  0  0  0  0  0  0  0  0  0  0  0
   19.3737    0.2301    0.0000 C   0  0  0  0  0  0  0  0  0  0  0  0
   17.8790    0.3563    0.0000 C   0  0  0  0  0  0  0  0  0  0  0  0
   17.9097   -1.1434    0.0000 C   0  0  0  0  0  0  0  0  0  0  0  0
   19.1259   -2.0214    0.0000 O   0  0  0  0  0  0  0  0  0  0  0  0
   16.6263   -1.9198    0.0000 N   0  0  0  0  0  0  0  0  0  0  0  0
   16.5000   -3.4145    0.0000 C   0  0  0  0  0  0  0  0  0  0  0  0
   15.0395   -3.7563    0.0000 C   0  0  0  0  0  0  0  0  0  0  0  0
   14.2631   -2.4729    0.0000 C   0  0  0  0  0  0  0  0  0  0  0  0
   15.2438   -1.3378    0.0000 C   0  0  0  0  0  0  0  0  0  0  0  0
   14.0125   -0.4812    0.0000 C   0  0  0  0  0  0  0  0  0  0  0  0
   13.9556    1.0177    0.0000 O   0  0  0  0  0  0  0  0  0  0  0  0
   12.6549   -1.1192    0.0000 N   0  0  0  0  0  0  0  0  0  0  0  0
   11.4236   -0.2625    0.0000 C   0  0  0  0  0  0  0  0  0  0  0  0
   10.5595    0.9636    0.0000 C   0  0  0  0  0  0  0  0  0  0  0  0
   11.1894    2.3250    0.0000 C   0  0  0  0  0  0  0  0  0  0  0  0
   10.3253    3.5511    0.0000 C   0  0  0  0  0  0  0  0  0  0  0  0
   10.9552    4.9125    0.0000 C   0  0  0  0  0  0  0  0  0  0  0  0
   10.0911    6.1386    0.0000 N   0  0  0  0  0  0  0  0  0  0  0  0
   10.0661   -0.9005    0.0000 C   0  0  0  0  0  0  0  0  0  0  0  0
    9.9398   -2.3952    0.0000 O   0  0  0  0  0  0  0  0  0  0  0  0
    8.8347   -0.0439    0.0000 N   0  0  0  0  0  0  0  0  0  0  0  0
    7.4772   -0.6819    0.0000 C   0  0  0  0  0  0  0  0  0  0  0  0
    6.4197   -1.7457    0.0000 C   0  0  0  0  0  0  0  0  0  0  0  0
    6.8123   -3.1934    0.0000 C   0  0  0  0  0  0  0  0  0  0  0  0
    5.7548   -4.2573    0.0000 C   0  0  0  0  0  0  0  0  0  0  0  0
    6.1474   -5.7050    0.0000 C   0  0  0  0  0  0  0  0  0  0  0  0
    5.0900   -6.7689    0.0000 N   0  0  0  0  0  0  0  0  0  0  0  0
    6.2459    0.1748    0.0000 C   0  0  0  0  0  0  0  0  0  0  0  0
    5.8280    1.6154    0.0000 O   0  0  0  0  0  0  0  0  0  0  0  0
    4.8883   -0.4632    0.0000 N   0  0  0  0  0  0  0  0  0  0  0  0
    3.6570    0.3934    0.0000 C   0  0  0  0  0  0  0  0  0  0  0  0
    2.7930    1.6196    0.0000 C   0  0  0  0  0  0  0  0  0  0  0  0
    3.4228    2.9809    0.0000 C   0  0  0  0  0  0  0  0  0  0  0  0
    4.9167    3.1162    0.0000 C   0  0  0  0  0  0  0  0  0  0  0  0
    5.5465    4.4775    0.0000 C   0  0  0  0  0  0  0  0  0  0  0  0
    4.6825    5.7037    0.0000 C   0  0  0  0  0  0  0  0  0  0  0  0
    3.1886    5.5684    0.0000 C   0  0  0  0  0  0  0  0  0  0  0  0
    2.5587    4.2071    0.0000 C   0  0  0  0  0  0  0  0  0  0  0  0
    2.2995   -0.2446    0.0000 C   0  0  0  0  0  0  0  0  0  0  0  0
    1.8153   -1.6643    0.0000 O   0  0  0  0  0  0  0  0  0  0  0  0
    1.0682    0.6121    0.0000 N   0  0  0  0  0  0  0  0  0  0  0  0
   -0.2894   -0.0259    0.0000 C   0  0  0  0  0  0  0  0  0  0  0  0
   -1.3469   -1.0898    0.0000 C   0  0  0  0  0  0  0  0  0  0  0  0
   -2.7969   -0.7059    0.0000 C   0  0  0  0  0  0  0  0  0  0  0  0
   -3.8544   -1.7697    0.0000 C   0  0  0  0  0  0  0  0  0  0  0  0
   -5.3044   -1.3859    0.0000 N   0  0  0  0  0  0  0  0  0  0  0  0
   -6.3619   -2.4497    0.0000 C   0  0  0  0  0  0  0  0  0  0  0  0
   -7.8119   -2.0659    0.0000 N   0  0  0  0  0  0  0  0  0  0  0  0
   -6.3313   -3.9494    0.0000 N   0  0  0  0  0  0  0  0  0  0  0  0
   -1.5207    0.8307    0.0000 C   0  0  0  0  0  0  0  0  0  0  0  0
   -1.2132    2.2989    0.0000 O   0  0  0  0  0  0  0  0  0  0  0  0
   -2.8782    0.1927    0.0000 N   0  0  0  0  0  0  0  0  0  0  0  0
   -4.1096    1.0494    0.0000 C   0  0  0  0  0  0  0  0  0  0  0  0
   -4.2820    2.5394    0.0000 C   0  0  0  0  0  0  0  0  0  0  0  0
   -4.8860    3.9125    0.0000 C   0  0  0  0  0  0  0  0  0  0  0  0
   -5.8678    5.0465    0.0000 C   0  0  0  0  0  0  0  0  0  0  0  0
   -7.1403    5.8407    0.0000 C   0  0  0  0  0  0  0  0  0  0  0  0
   -2.7380    1.6567    0.0000 C   0  0  0  0  0  0  0  0  0  0  0  0
   -4.3840   -0.4253    0.0000 C   0  0  0  0  0  0  0  0  0  0  0  0
   -3.1276   -1.2448    0.0000 O   0  0  0  0  0  0  0  0  0  0  0  0
   -5.0809   -1.7536    0.0000 N   0  0  0  0  0  0  0  0  0  0  0  0
   -6.1384   -2.8174    0.0000 C   0  0  0  0  0  0  0  0  0  0  0  0
   -6.0404   -4.3142    0.0000 C   0  0  0  0  0  0  0  0  0  0  0  0
   -4.6952   -4.9778    0.0000 C   0  0  0  0  0  0  0  0  0  0  0  0
   -4.5972   -6.4746    0.0000 C   0  0  0  0  0  0  0  0  0  0  0  0
   -3.2041   -5.1413    0.0000 C   0  0  0  0  0  0  0  0  0  0  0  0
   -7.4624   -3.5223    0.0000 C   0  0  0  0  0  0  0  0  0  0  0  0
   -7.1389   -4.9870    0.0000 O   0  0  0  0  0  0  0  0  0  0  0  0
   -8.9354   -3.8056    0.0000 N   0  0  0  0  0  0  0  0  0  0  0  0
  -10.4265   -3.6421    0.0000 C   0  0  0  0  0  0  0  0  0  0  0  0
  -11.5357   -4.6519    0.0000 C   0  0  0  0  0  0  0  0  0  0  0  0
  -11.2157   -6.1174    0.0000 C   0  0  0  0  0  0  0  0  0  0  0  0
  -12.3249   -7.1272    0.0000 C   0  0  0  0  0  0  0  0  0  0  0  0
  -12.0050   -8.5927    0.0000 C   0  0  0  0  0  0  0  0  0  0  0  0
  -10.5759   -9.0484    0.0000 C   0  0  0  0  0  0  0  0  0  0  0  0
   -9.4667   -8.0386    0.0000 C   0  0  0  0  0  0  0  0  0  0  0  0
   -9.7866   -6.5731    0.0000 C   0  0  0  0  0  0  0  0  0  0  0  0
  -11.8031   -3.0464    0.0000 C   0  0  0  0  0  0  0  0  0  0  0  0
  -12.5974   -4.3189    0.0000 O   0  0  0  0  0  0  0  0  0  0  0  0
  -12.9430   -2.0714    0.0000 N   0  0  0  0  0  0  0  0  0  0  0  0
  -13.7449   -0.8037    0.0000 C   0  0  0  0  0  0  0  0  0  0  0  0
  -15.2260   -0.5662    0.0000 C   0  0  0  0  0  0  0  0  0  0  0  0
  -16.1722   -1.7300    0.0000 C   0  0  0  0  0  0  0  0  0  0  0  0
  -17.6533   -1.4924    0.0000 C   0  0  0  0  0  0  0  0  0  0  0  0
  -18.5996   -2.6563    0.0000 C   0  0  0  0  0  0  0  0  0  0  0  0
  -18.0648   -4.0577    0.0000 C   0  0  0  0  0  0  0  0  0  0  0  0
  -16.5838   -4.2953    0.0000 C   0  0  0  0  0  0  0  0  0  0  0  0
  -15.6375   -3.1314    0.0000 C   0  0  0  0  0  0  0  0  0  0  0  0
  -14.1375    0.6440    0.0000 C   0  0  0  0  0  0  0  0  0  0  0  0
  -15.6275    0.4715    0.0000 O   0  0  0  0  0  0  0  0  0  0  0  0
  -14.0859    2.1431    0.0000 N   0  0  0  0  0  0  0  0  0  0  0  0
  -13.5947    3.5604    0.0000 C   0  0  0  0  0  0  0  0  0  0  0  0
  -12.7076    4.7700    0.0000 C   0  0  0  0  0  0  0  0  0  0  0  0
  -11.5034    5.6643    0.0000 C   0  0  0  0  0  0  0  0  0  0  0  0
  -10.0891    6.1640    0.0000 C   0  0  0  0  0  0  0  0  0  0  0  0
   -8.5903    6.2246    0.0000 C   0  0  0  0  0  0  0  0  0  0  0  0
  -15.0886    3.4252    0.0000 C   0  0  0  0  0  0  0  0  0  0  0  0
  -14.3324    4.8665    0.0000 C   0  0  0  0  0  0  0  0  0  0  0  0
  -13.9054    6.3044    0.0000 O   0  0  0  0  0  0  0  0  0  0  0  0
  -15.8324    4.8807    0.0000 N   0  0  0  0  0  0  0  0  0  0  0  0
  -16.5700    6.1867    0.0000 C   0  0  0  0  0  0  0  0  0  0  0  0
  -16.8165    7.6663    0.0000 C   0  0  0  0  0  0  0  0  0  0  0  0
  -15.6584    8.6196    0.0000 O   0  0  0  0  0  0  0  0  0  0  0  0
  -18.0700    6.2009    0.0000 C   0  0  0  0  0  0  0  0  0  0  0  0
  -18.9613    7.4073    0.0000 O   0  0  0  0  0  0  0  0  0  0  0  0
  -18.8322    4.9090    0.0000 O   0  0  0  0  0  0  0  0  0  0  0  0
    9.6255   -0.6456    0.0000 H   0  0  0  0  0  0  0  0  0  0  0  0
    9.3100    3.9592    0.0000 H   0  0  0  0  0  0  0  0  0  0  0  0
    6.8472    4.9959    0.0000 H   0  0  0  0  0  0  0  0  0  0  0  0
    7.4135   -0.9689    0.0000 H   0  0  0  0  0  0  0  0  0  0  0  0
    1.0890   -3.4686    0.0000 H   0  0  0  0  0  0  0  0  0  0  0  0
   -0.6175    1.4394    0.0000 H   0  0  0  0  0  0  0  0  0  0  0  0
    2.0344    2.4480    0.0000 H   0  0  0  0  0  0  0  0  0  0  0  0
   -2.4660   -0.6943    0.0000 H   0  0  0  0  0  0  0  0  0  0  0  0
    7.3198    1.4485    0.0000 H   0  0  0  0  0  0  0  0  0  0  0  0
    9.1926    0.0947    0.0000 H   0  0  0  0  0  0  0  0  0  0  0  0
    5.8445   -4.3327    0.0000 H   0  0  0  0  0  0  0  0  0  0  0  0
    8.7444   -4.9327    0.0000 H   0  0  0  0  0  0  0  0  0  0  0  0
   12.2033   -0.3213    0.0000 H   0  0  0  0  0  0  0  0  0  0  0  0
   14.3901    3.3349    0.0000 H   0  0  0  0  0  0  0  0  0  0  0  0
   12.6093    3.2206    0.0000 H   0  0  0  0  0  0  0  0  0  0  0  0
   16.0596    0.4728    0.0000 H   0  0  0  0  0  0  0  0  0  0  0  0
   13.7485    0.6073    0.0000 H   0  0  0  0  0  0  0  0  0  0  0  0
   17.9143    3.7885    0.0000 H   0  0  0  0  0  0  0  0  0  0  0  0
   19.9146    3.6196    0.0000 H   0  0  0  0  0  0  0  0  0  0  0  0
   20.8123    2.8439    0.0000 H   0  0  0  0  0  0  0  0  0  0  0  0
   21.2697    0.8893    0.0000 H   0  0  0  0  0  0  0  0  0  0  0  0
   20.8095   -0.2042    0.0000 H   0  0  0  0  0  0  0  0  0  0  0  0
   19.2736   -1.2666    0.0000 H   0  0  0  0  0  0  0  0  0  0  0  0
   16.3908    0.1690    0.0000 H   0  0  0  0  0  0  0  0  0  0  0  0
   17.9997   -3.3838    0.0000 H   0  0  0  0  0  0  0  0  0  0  0  0
   16.6873   -4.9027    0.0000 H   0  0  0  0  0  0  0  0  0  0  0  0
   15.5321   -5.1731    0.0000 H   0  0  0  0  0  0  0  0  0  0  0  0
   13.6820   -4.3943    0.0000 H   0  0  0  0  0  0  0  0  0  0  0  0
   13.0679   -3.3792    0.0000 H   0  0  0  0  0  0  0  0  0  0  0  0
   13.0026   -1.6598    0.0000 H   0  0  0  0  0  0  0  0  0  0  0  0
   15.9670   -0.0237    0.0000 H   0  0  0  0  0  0  0  0  0  0  0  0
   12.5287   -2.6139    0.0000 H   0  0  0  0  0  0  0  0  0  0  0  0
   12.7921    0.3516    0.0000 H   0  0  0  0  0  0  0  0  0  0  0  0
    9.3282    1.8203    0.0000 H   0  0  0  0  0  0  0  0  0  0  0  0
    9.2761    0.1873    0.0000 H   0  0  0  0  0  0  0  0  0  0  0  0
   12.2468    3.3888    0.0000 H   0  0  0  0  0  0  0  0  0  0  0  0
   12.3071    1.3246    0.0000 H   0  0  0  0  0  0  0  0  0  0  0  0
    9.2076    4.5515    0.0000 H   0  0  0  0  0  0  0  0  0  0  0  0
    9.1461    2.6241    0.0000 H   0  0  0  0  0  0  0  0  0  0  0  0
   12.0126    5.9763    0.0000 H   0  0  0  0  0  0  0  0  0  0  0  0
   12.2817    4.2123    0.0000 H   0  0  0  0  0  0  0  0  0  0  0  0
   10.7209    7.5000    0.0000 H   0  0  0  0  0  0  0  0  0  0  0  0
    8.5972    6.0034    0.0000 H   0  0  0  0  0  0  0  0  0  0  0  0
    8.4168    1.3967    0.0000 H   0  0  0  0  0  0  0  0  0  0  0  0
    8.1853   -2.0042    0.0000 H   0  0  0  0  0  0  0  0  0  0  0  0
    5.2569   -2.6933    0.0000 H   0  0  0  0  0  0  0  0  0  0  0  0
    5.5557   -0.5196    0.0000 H   0  0  0  0  0  0  0  0  0  0  0  0
    7.8194   -4.3051    0.0000 H   0  0  0  0  0  0  0  0  0  0  0  0
    8.3083   -3.0844    0.0000 H   0  0  0  0  0  0  0  0  0  0  0  0
    4.3973   -4.8953    0.0000 H   0  0  0  0  0  0  0  0  0  0  0  0
    4.7478   -3.1456    0.0000 H   0  0  0  0  0  0  0  0  0  0  0  0
    7.0115   -6.9311    0.0000 H   0  0  0  0  0  0  0  0  0  0  0  0
    7.5726   -5.2372    0.0000 H   0  0  0  0  0  0  0  0  0  0  0  0
    5.4825   -8.2166    0.0000 H   0  0  0  0  0  0  0  0  0  0  0  0
    3.6399   -6.3850    0.0000 H   0  0  0  0  0  0  0  0  0  0  0  0
    4.2347   -1.8133    0.0000 H   0  0  0  0  0  0  0  0  0  0  0  0
    4.7145    1.4573    0.0000 H   0  0  0  0  0  0  0  0  0  0  0  0
    1.8055    2.7487    0.0000 H   0  0  0  0  0  0  0  0  0  0  0  0
    1.3598    1.1769    0.0000 H   0  0  0  0  0  0  0  0  0  0  0  0
    4.9210    1.6162    0.0000 H   0  0  0  0  0  0  0  0  0  0  0  0
    7.0128    4.7938    0.0000 H   0  0  0  0  0  0  0  0  0  0  0  0
    5.3123    7.0650    0.0000 H   0  0  0  0  0  0  0  0  0  0  0  0
    2.3245    6.7946    0.0000 H   0  0  0  0  0  0  0  0  0  0  0  0
    1.0649    4.0718    0.0000 H   0  0  0  0  0  0  0  0  0  0  0  0
    1.0113    2.1110    0.0000 H   0  0  0  0  0  0  0  0  0  0  0  0
    0.2523   -1.4247    0.0000 H   0  0  0  0  0  0  0  0  0  0  0  0
   -1.8060   -2.5178    0.0000 H   0  0  0  0  0  0  0  0  0  0  0  0
   -0.1155   -1.9464    0.0000 H   0  0  0  0  0  0  0  0  0  0  0  0
   -4.1989   -0.1726    0.0000 H   0  0  0  0  0  0  0  0  0  0  0  0
   -2.6969    0.7908    0.0000 H   0  0  0  0  0  0  0  0  0  0  0  0
   -3.9544   -3.2664    0.0000 H   0  0  0  0  0  0  0  0  0  0  0  0
   -2.7367   -2.7701    0.0000 H   0  0  0  0  0  0  0  0  0  0  0  0
   -5.6970    0.0618    0.0000 H   0  0  0  0  0  0  0  0  0  0  0  0
   -9.0954   -2.8422    0.0000 H   0  0  0  0  0  0  0  0  0  0  0  0
   -6.8982   -5.0385    0.0000 H   0  0  0  0  0  0  0  0  0  0  0  0
   -4.5207   -3.6097    0.0000 H   0  0  0  0  0  0  0  0  0  0  0  0
   -3.1857   -1.2754    0.0000 H   0  0  0  0  0  0  0  0  0  0  0  0
   -2.8080    2.2614    0.0000 H   0  0  0  0  0  0  0  0  0  0  0  0
   -3.2789    3.6547    0.0000 H   0  0  0  0  0  0  0  0  0  0  0  0
   -3.4272    4.2617    0.0000 H   0  0  0  0  0  0  0  0  0  0  0  0
   -4.0949    5.1869    0.0000 H   0  0  0  0  0  0  0  0  0  0  0  0
   -4.4933    5.6471    0.0000 H   0  0  0  0  0  0  0  0  0  0  0  0
   -5.6672    6.5330    0.0000 H   0  0  0  0  0  0  0  0  0  0  0  0
   -6.5446    7.2174    0.0000 H   0  0  0  0  0  0  0  0  0  0  0  0
   -2.4400    3.2958    0.0000 H   0  0  0  0  0  0  0  0  0  0  0  0
   -1.4140    2.2687    0.0000 H   0  0  0  0  0  0  0  0  0  0  0  0
   -1.8734    0.6618    0.0000 H   0  0  0  0  0  0  0  0  0  0  0  0
   -3.9885   -2.7815    0.0000 H   0  0  0  0  0  0  0  0  0  0  0  0
   -4.7337   -3.3438    0.0000 H   0  0  0  0  0  0  0  0  0  0  0  0
   -6.6327   -5.6923    0.0000 H   0  0  0  0  0  0  0  0  0  0  0  0
   -7.5267   -4.5164    0.0000 H   0  0  0  0  0  0  0  0  0  0  0  0
   -3.7870   -3.7840    0.0000 H   0  0  0  0  0  0  0  0  0  0  0  0
   -3.3429   -7.2972    0.0000 H   0  0  0  0  0  0  0  0  0  0  0  0
   -5.0171   -7.9146    0.0000 H   0  0  0  0  0  0  0  0  0  0  0  0
   -6.0971   -6.4941    0.0000 H   0  0  0  0  0  0  0  0  0  0  0  0
   -2.4373   -6.4304    0.0000 H   0  0  0  0  0  0  0  0  0  0  0  0
   -1.7471   -4.7849    0.0000 H   0  0  0  0  0  0  0  0  0  0  0  0
   -3.3021   -3.6445    0.0000 H   0  0  0  0  0  0  0  0  0  0  0  0
   -8.6926   -5.2858    0.0000 H   0  0  0  0  0  0  0  0  0  0  0  0
   -9.9622   -5.0685    0.0000 H   0  0  0  0  0  0  0  0  0  0  0  0
  -12.9233   -5.2215    0.0000 H   0  0  0  0  0  0  0  0  0  0  0  0
  -12.6205   -3.6160    0.0000 H   0  0  0  0  0  0  0  0  0  0  0  0
  -13.7540   -6.6716    0.0000 H   0  0  0  0  0  0  0  0  0  0  0  0
  -13.1142   -9.6025    0.0000 H   0  0  0  0  0  0  0  0  0  0  0  0
  -10.2559  -10.5139    0.0000 H   0  0  0  0  0  0  0  0  0  0  0  0
   -8.0376   -8.4943    0.0000 H   0  0  0  0  0  0  0  0  0  0  0  0
   -8.5626   -5.7060    0.0000 H   0  0  0  0  0  0  0  0  0  0  0  0
  -13.9489   -3.1842    0.0000 H   0  0  0  0  0  0  0  0  0  0  0  0
  -14.5706   -2.0560    0.0000 H   0  0  0  0  0  0  0  0  0  0  0  0
  -16.5364    0.1636    0.0000 H   0  0  0  0  0  0  0  0  0  0  0  0
  -15.0924    0.9279    0.0000 H   0  0  0  0  0  0  0  0  0  0  0  0
  -18.1881   -0.0910    0.0000 H   0  0  0  0  0  0  0  0  0  0  0  0
  -20.0807   -2.4187    0.0000 H   0  0  0  0  0  0  0  0  0  0  0  0
  -19.0111   -5.2216    0.0000 H   0  0  0  0  0  0  0  0  0  0  0  0
  -16.0490   -5.6967    0.0000 H   0  0  0  0  0  0  0  0  0  0  0  0
  -14.1964   -3.5478    0.0000 H   0  0  0  0  0  0  0  0  0  0  0  0
  -15.5606    2.4175    0.0000 H   0  0  0  0  0  0  0  0  0  0  0  0
  -13.0276    6.2354    0.0000 H   0  0  0  0  0  0  0  0  0  0  0  0
  -14.0561    5.4269    0.0000 H   0  0  0  0  0  0  0  0  0  0  0  0
  -11.5603    7.1632    0.0000 H   0  0  0  0  0  0  0  0  0  0  0  0
  -12.5984    6.6895    0.0000 H   0  0  0  0  0  0  0  0  0  0  0  0
   -9.5279    7.5551    0.0000 H   0  0  0  0  0  0  0  0  0  0  0  0
  -10.9864    7.3660    0.0000 H   0  0  0  0  0  0  0  0  0  0  0  0
   -8.4269    7.7157    0.0000 H   0  0  0  0  0  0  0  0  0  0  0  0
  -16.2237    4.4058    0.0000 H   0  0  0  0  0  0  0  0  0  0  0  0
  -16.3583    2.6264    0.0000 H   0  0  0  0  0  0  0  0  0  0  0  0
  -15.0580    1.9255    0.0000 H   0  0  0  0  0  0  0  0  0  0  0  0
  -16.7464    3.6913    0.0000 H   0  0  0  0  0  0  0  0  0  0  0  0
  -15.1557    6.6864    0.0000 H   0  0  0  0  0  0  0  0  0  0  0  0
  -17.5542    8.9724    0.0000 H   0  0  0  0  0  0  0  0  0  0  0  0
  -18.2812    7.3428    0.0000 H   0  0  0  0  0  0  0  0  0  0  0  0
  -15.9049   10.0992    0.0000 H   0  0  0  0  0  0  0  0  0  0  0  0
  -20.3322    4.9232    0.0000 H   0  0  0  0  0  0  0  0  0  0  0  0
  1  2  1  0
  2  3  1  0
  3  4  2  0
  4  5  1  0
  5  6  2  0
  6  7  1  0
  7  8  2  0
  7  9  1  0
  9 10  1  0
 10 11  1  0
 11 12  2  0
  9 13  1  0
 13 14  1  0
 14 15  2  0
 15 16  1  0
 16 17  2  0
 17 18  1  0
 16 19  1  0
 14 20  1  0
 20 21  1  0
 21 22  2  0
 22 23  1  0
 23 24  2  0
 24 25  1  0
 25 26  2  0
 25 27  1  0
  1 28  2  0
  1 29  1  0
 29 30  1  0
 30 31  1  0
 31 32  1  0
 32 33  2  0
 32 34  1  0
 34 35  1  0
 35 36  1  0
 36 37  1  0
 37 38  1  0
 38 39  1  0
 39 40  2  0
 39 41  1  0
 41 42  1  0
 42 43  1  0
 43 44  1  0
 44 45  1  0
 45 46  1  0
 46 47  2  0
 46 48  1  0
 48 49  1  0
 49 50  1  0
 50 51  1  0
 51 52  1  0
 52 53  1  0
 53 54  1  0
 49 55  1  0
 55 56  2  0
 55 57  1  0
 57 58  1  0
 58 59  1  0
 59 60  1  0
 60 61  1  0
 61 62  1  0
 62 63  1  0
 58 64  1  0
 64 65  2  0
 64 66  1  0
 66 67  1  0
 67 68  1  0
 68 69  1  0
 69 70  2  0
 70 71  1  0
 71 72  2  0
 72 73  1  0
 73 74  2  0
 67 75  1  0
 75 76  2  0
 75 77  1  0
 77 78  1  0
 78 79  1  0
 79 80  1  0
 80 81  1  0
 81 82  1  0
 82 83  1  0
 83 84  2  3
 83 85  1  0
 78 86  1  0
 86 87  2  0
 86 88  1  0
 89 88  1  6
 89 90  1  0
 90 91  1  0
 91 92  1  0
 92 93  1  0
 89 94  1  0
 89 95  1  0
 95 96  2  0
 95 97  1  0
 97 98  1  0
 98 99  1  0
 99100  1  0
100101  1  0
100102  1  0
 98103  1  0
103104  2  0
103105  1  0
105106  1  0
106107  1  0
107108  1  0
108109  2  0
109110  1  0
110111  2  0
111112  1  0
112113  2  0
106114  1  0
114115  2  0
114116  1  0
116117  1  0
117118  1  0
118119  1  0
119120  2  0
120121  1  0
121122  2  0
122123  1  0
123124  2  0
117125  1  0
125126  2  0
125127  1  0
127128  1  0
128129  1  0
129130  1  0
130131  1  0
131132  1  0
128133  1  0
128134  1  6
134135  2  0
134136  1  0
136137  1  0
137138  1  0
138139  1  0
137140  1  0
140141  2  0
140142  1  0
  8  3  1  0
 38 34  1  0
 45 41  1  0
 74 69  1  0
113108  1  0
124119  1  0
 11  6  1  0
 93132  2  0
 18 13  2  0
 22  9  1  0
 26 21  1  0
  2143  1  0
  4144  1  0
  5145  1  0
  8146  1  0
 15147  1  0
 17148  1  0
 18149  1  0
 19150  1  0
 23151  1  0
 24152  1  0
 26153  1  0
 27154  1  0
 29155  1  0
 30156  1  0
 30157  1  0
 31158  1  0
 31159  1  0
 35160  1  0
 35161  1  0
 36162  1  0
 36163  1  0
 37164  1  0
 37165  1  0
 38166  1  0
 42167  1  0
 42168  1  0
 43169  1  0
 43170  1  0
 44171  1  0
 44172  1  0
 45173  1  0
 48174  1  0
 49175  1  6
 50176  1  0
 50177  1  0
 51178  1  0
 51179  1  0
 52180  1  0
 52181  1  0
 53182  1  0
 53183  1  0
 54184  1  0
 54185  1  0
 57186  1  0
 58187  1  1
 59188  1  0
 59189  1  0
 60190  1  0
 60191  1  0
 61192  1  0
 61193  1  0
 62194  1  0
 62195  1  0
 63196  1  0
 63197  1  0
 66198  1  0
 67199  1  6
 68200  1  0
 68201  1  0
 70202  1  0
 71203  1  0
 72204  1  0
 73205  1  0
 74206  1  0
 77207  1  0
 78208  1  1
 79209  1  0
 79210  1  0
 80211  1  0
 80212  1  0
 81213  1  0
 81214  1  0
 82215  1  0
 84216  1  0
 85217  1  0
 85218  1  0
 88219  1  0
 90220  1  0
 90221  1  0
 91222  1  0
 91223  1  0
 92224  1  0
 92225  1  0
 93226  1  0
 94227  1  0
 94228  1  0
 94229  1  0
 97230  1  0
 98231  1  1
 99232  1  0
 99233  1  0
100234  1  0
101235  1  0
101236  1  0
101237  1  0
102238  1  0
102239  1  0
102240  1  0
105241  1  0
106242  1  1
107243  1  0
107244  1  0
109245  1  0
110246  1  0
111247  1  0
112248  1  0
113249  1  0
116250  1  0
117251  1  1
118252  1  0
118253  1  0
120254  1  0
121255  1  0
122256  1  0
123257  1  0
124258  1  0
127259  1  0
129260  1  0
129261  1  0
130262  1  0
130263  1  0
131264  1  0
131265  1  0
132266  1  0
133267  1  0
133268  1  0
133269  1  0
136270  1  0
137271  1  6
138272  1  0
138273  1  0
139274  1  0
142275  1  0
M  END
