
     RDKit          2D

345352  0  0  0  0  0  0  0  0999 V2000
   37.1275   -1.5982    0.0000 C   0  0  0  0  0  0  0  0  0  0  0  0
   38.4224   -0.8411    0.0000 N   0  0  0  0  0  0  0  0  0  0  0  0
   39.7255   -1.5840    0.0000 C   0  0  0  0  0  0  0  0  0  0  0  0
   39.7337   -3.0840    0.0000 C   0  0  0  0  0  0  0  0  0  0  0  0
   41.0367   -3.8270    0.0000 C   0  0  0  0  0  0  0  0  0  0  0  0
   42.3317   -3.0699    0.0000 C   0  0  0  0  0  0  0  0  0  0  0  0
   42.3235   -1.5699    0.0000 C   0  0  0  0  0  0  0  0  0  0  0  0
   41.0205   -0.8270    0.0000 C   0  0  0  0  0  0  0  0  0  0  0  0
   43.7476   -1.0987    0.0000 C   0  0  0  0  0  0  0  0  0  0  0  0
   44.6358   -2.3074    0.0000 O   0  0  0  0  0  0  0  0  0  0  0  0
   43.7608   -3.5257    0.0000 C   0  0  0  0  0  0  0  0  0  0  0  0
   44.2320   -4.9497    0.0000 O   0  0  0  0  0  0  0  0  0  0  0  0
   45.2131   -0.7788    0.0000 C   0  0  0  0  0  0  0  0  0  0  0  0
   45.6689    0.6502    0.0000 C   0  0  0  0  0  0  0  0  0  0  0  0
   47.1344    0.9701    0.0000 C   0  0  0  0  0  0  0  0  0  0  0  0
   48.1441   -0.1392    0.0000 C   0  0  0  0  0  0  0  0  0  0  0  0
   47.6883   -1.5683    0.0000 C   0  0  0  0  0  0  0  0  0  0  0  0
   46.2228   -1.8881    0.0000 C   0  0  0  0  0  0  0  0  0  0  0  0
   49.6096    0.1806    0.0000 O   0  0  0  0  0  0  0  0  0  0  0  0
   44.6591    1.7595    0.0000 O   0  0  0  0  0  0  0  0  0  0  0  0
   43.1936    1.4397    0.0000 C   0  0  0  0  0  0  0  0  0  0  0  0
   42.7379    0.0106    0.0000 C   0  0  0  0  0  0  0  0  0  0  0  0
   41.4850    0.3577    0.0000 C   0  0  0  0  0  0  0  0  0  0  0  0
   40.9465    0.9493    0.0000 C   0  0  0  0  0  0  0  0  0  0  0  0
   41.1896    1.7114    0.0000 C   0  0  0  0  0  0  0  0  0  0  0  0
   41.9712    1.8820    0.0000 C   0  0  0  0  0  0  0  0  0  0  0  0
   39.7087    3.3383    0.0000 O   0  0  0  0  0  0  0  0  0  0  0  0
   37.1356   -3.0981    0.0000 S   0  0  0  0  0  0  0  0  0  0  0  0
   35.8244   -0.8552    0.0000 N   0  0  0  0  0  0  0  0  0  0  0  0
   34.5294   -1.6123    0.0000 C   0  0  0  0  0  0  0  0  0  0  0  0
   33.2263   -0.8693    0.0000 C   0  0  0  0  0  0  0  0  0  0  0  0
   31.9314   -1.6264    0.0000 O   0  0  0  0  0  0  0  0  0  0  0  0
   30.6283   -0.8834    0.0000 C   0  0  0  0  0  0  0  0  0  0  0  0
   29.3334   -1.6405    0.0000 C   0  0  0  0  0  0  0  0  0  0  0  0
   28.0303   -0.8975    0.0000 O   0  0  0  0  0  0  0  0  0  0  0  0
   26.7353   -1.6546    0.0000 C   0  0  0  0  0  0  0  0  0  0  0  0
   25.4322   -0.9117    0.0000 C   0  0  0  0  0  0  0  0  0  0  0  0
   24.1373   -1.6687    0.0000 O   0  0  0  0  0  0  0  0  0  0  0  0
   22.8342   -0.9258    0.0000 C   0  0  0  0  0  0  0  0  0  0  0  0
   21.5392   -1.6828    0.0000 C   0  0  0  0  0  0  0  0  0  0  0  0
   20.2362   -0.9399    0.0000 O   0  0  0  0  0  0  0  0  0  0  0  0
   18.9412   -1.6969    0.0000 C   0  0  0  0  0  0  0  0  0  0  0  0
   17.6381   -0.9540    0.0000 C   0  0  0  0  0  0  0  0  0  0  0  0
   16.3432   -1.7110    0.0000 O   0  0  0  0  0  0  0  0  0  0  0  0
   15.0401   -0.9681    0.0000 C   0  0  0  0  0  0  0  0  0  0  0  0
   13.7451   -1.7251    0.0000 C   0  0  0  0  0  0  0  0  0  0  0  0
   12.4420   -0.9822    0.0000 O   0  0  0  0  0  0  0  0  0  0  0  0
   11.1471   -1.7392    0.0000 C   0  0  0  0  0  0  0  0  0  0  0  0
    9.8440   -0.9963    0.0000 C   0  0  0  0  0  0  0  0  0  0  0  0
    8.5491   -1.7534    0.0000 C   0  0  0  0  0  0  0  0  0  0  0  0
    8.7461   -2.5258    0.0000 O   0  0  0  0  0  0  0  0  0  0  0  0
    7.2460   -1.0104    0.0000 N   0  0  0  0  0  0  0  0  0  0  0  0
    5.9510   -1.7675    0.0000 C   0  0  0  0  0  0  0  0  0  0  0  0
    6.9214   -2.9113    0.0000 C   0  0  0  0  0  0  0  0  0  0  0  0
    8.3972   -2.6428    0.0000 C   0  0  0  0  0  0  0  0  0  0  0  0
    9.3676   -3.7866    0.0000 N   0  0  0  0  0  0  0  0  0  0  0  0
    9.2293   -1.3947    0.0000 O   0  0  0  0  0  0  0  0  0  0  0  0
    4.4752   -2.0359    0.0000 C   0  0  0  0  0  0  0  0  0  0  0  0
    4.3266   -3.5286    0.0000 O   0  0  0  0  0  0  0  0  0  0  0  0
    3.5048   -0.8921    0.0000 N   0  0  0  0  0  0  0  0  0  0  0  0
    2.0291   -1.1606    0.0000 C   0  0  0  0  0  0  0  0  0  0  0  0
    2.5497   -2.5674    0.0000 C   0  0  0  0  0  0  0  0  0  0  0  0
    4.0283   -2.8198    0.0000 C   0  0  0  0  0  0  0  0  0  0  0  0
    4.5490   -4.2265    0.0000 C   0  0  0  0  0  0  0  0  0  0  0  0
    5.9858   -4.6573    0.0000 N   0  0  0  0  0  0  0  0  0  0  0  0
    3.5911   -5.3808    0.0000 O   0  0  0  0  0  0  0  0  0  0  0  0
    0.5505   -0.9082    0.0000 C   0  0  0  0  0  0  0  0  0  0  0  0
   -0.0997   -2.2600    0.0000 O   0  0  0  0  0  0  0  0  0  0  0  0
    0.0298    0.4986    0.0000 N   0  0  0  0  0  0  0  0  0  0  0  0
   -1.4488    0.7510    0.0000 C   0  0  0  0  0  0  0  0  0  0  0  0
   -1.4407   -0.7490    0.0000 C   0  0  0  0  0  0  0  0  0  0  0  0
   -0.1376   -1.4919    0.0000 C   0  0  0  0  0  0  0  0  0  0  0  0
   -0.1294   -2.9919    0.0000 C   0  0  0  0  0  0  0  0  0  0  0  0
    1.1736   -3.7348    0.0000 N   0  0  0  0  0  0  0  0  0  0  0  0
    1.1818   -5.2348    0.0000 C   0  0  0  0  0  0  0  0  0  0  0  0
    2.4849   -5.9777    0.0000 N   0  0  0  0  0  0  0  0  0  0  0  0
   -0.1132   -5.9918    0.0000 N   0  0  0  0  0  0  0  0  0  0  0  0
   -2.7519    1.4939    0.0000 C   0  0  0  0  0  0  0  0  0  0  0  0
   -3.8252    0.4460    0.0000 O   0  0  0  0  0  0  0  0  0  0  0  0
   -2.7601    2.9939    0.0000 N   0  0  0  0  0  0  0  0  0  0  0  0
   -4.0632    3.7368    0.0000 C   0  0  0  0  0  0  0  0  0  0  0  0
   -4.1502    2.2394    0.0000 C   0  0  0  0  0  0  0  0  0  0  0  0
   -4.5190    0.7854    0.0000 C   0  0  0  0  0  0  0  0  0  0  0  0
   -5.1563   -0.5724    0.0000 C   0  0  0  0  0  0  0  0  0  0  0  0
   -6.0391   -1.7852    0.0000 C   0  0  0  0  0  0  0  0  0  0  0  0
   -7.1355   -2.8089    0.0000 C   0  0  0  0  0  0  0  0  0  0  0  0
   -8.4057   -3.6066    0.0000 C   0  0  0  0  0  0  0  0  0  0  0  0
   -9.8040   -4.1496    0.0000 C   0  0  0  0  0  0  0  0  0  0  0  0
   -2.8188    4.5745    0.0000 C   0  0  0  0  0  0  0  0  0  0  0  0
   -4.2611    5.2237    0.0000 C   0  0  0  0  0  0  0  0  0  0  0  0
   -2.8519    5.7377    0.0000 O   0  0  0  0  0  0  0  0  0  0  0  0
   -4.7369    6.6463    0.0000 N   0  0  0  0  0  0  0  0  0  0  0  0
   -5.4733    7.9531    0.0000 C   0  0  0  0  0  0  0  0  0  0  0  0
   -4.8794    9.3305    0.0000 C   0  0  0  0  0  0  0  0  0  0  0  0
   -3.3895    9.5048    0.0000 C   0  0  0  0  0  0  0  0  0  0  0  0
   -2.7956   10.8822    0.0000 C   0  0  0  0  0  0  0  0  0  0  0  0
   -1.9299    9.1591    0.0000 C   0  0  0  0  0  0  0  0  0  0  0  0
   -6.4437    9.0969    0.0000 C   0  0  0  0  0  0  0  0  0  0  0  0
   -5.5361   10.2912    0.0000 O   0  0  0  0  0  0  0  0  0  0  0  0
   -7.6131   10.0364    0.0000 N   0  0  0  0  0  0  0  0  0  0  0  0
   -8.9391   10.7376    0.0000 C   0  0  0  0  0  0  0  0  0  0  0  0
   -9.1841   12.2174    0.0000 C   0  0  0  0  0  0  0  0  0  0  0  0
   -8.0250   13.1696    0.0000 O   0  0  0  0  0  0  0  0  0  0  0  0
  -10.3738   11.1752    0.0000 C   0  0  0  0  0  0  0  0  0  0  0  0
  -10.2560   12.6705    0.0000 O   0  0  0  0  0  0  0  0  0  0  0  0
  -11.8655   11.3333    0.0000 N   0  0  0  0  0  0  0  0  0  0  0  0
  -13.3601   11.2063    0.0000 C   0  0  0  0  0  0  0  0  0  0  0  0
  -14.3663   12.3188    0.0000 C   0  0  0  0  0  0  0  0  0  0  0  0
  -13.9060   13.7464    0.0000 C   0  0  0  0  0  0  0  0  0  0  0  0
  -12.4395   14.0616    0.0000 C   0  0  0  0  0  0  0  0  0  0  0  0
  -11.9792   15.4892    0.0000 C   0  0  0  0  0  0  0  0  0  0  0  0
  -12.9854   16.6017    0.0000 C   0  0  0  0  0  0  0  0  0  0  0  0
  -14.4519   16.2865    0.0000 C   0  0  0  0  0  0  0  0  0  0  0  0
  -14.9122   14.8589    0.0000 C   0  0  0  0  0  0  0  0  0  0  0  0
  -14.8036   10.7988    0.0000 C   0  0  0  0  0  0  0  0  0  0  0  0
  -15.5130   12.1205    0.0000 O   0  0  0  0  0  0  0  0  0  0  0  0
  -16.1440   10.1254    0.0000 N   0  0  0  0  0  0  0  0  0  0  0  0
  -17.3327    9.2105    0.0000 C   0  0  0  0  0  0  0  0  0  0  0  0
  -18.7806    9.6024    0.0000 C   0  0  0  0  0  0  0  0  0  0  0  0
  -19.1652   11.0522    0.0000 C   0  0  0  0  0  0  0  0  0  0  0  0
  -18.1019   12.1102    0.0000 C   0  0  0  0  0  0  0  0  0  0  0  0
  -18.4865   13.5601    0.0000 C   0  0  0  0  0  0  0  0  0  0  0  0
  -19.9344   13.9519    0.0000 C   0  0  0  0  0  0  0  0  0  0  0  0
  -20.9977   12.8939    0.0000 C   0  0  0  0  0  0  0  0  0  0  0  0
  -20.6131   11.4441    0.0000 C   0  0  0  0  0  0  0  0  0  0  0  0
  -18.3268    8.0872    0.0000 C   0  0  0  0  0  0  0  0  0  0  0  0
  -19.6380    8.8156    0.0000 O   0  0  0  0  0  0  0  0  0  0  0  0
  -19.0903    6.7961    0.0000 N   0  0  0  0  0  0  0  0  0  0  0  0
  -19.5956    5.3838    0.0000 C   0  0  0  0  0  0  0  0  0  0  0  0
  -21.0255    4.9306    0.0000 C   0  0  0  0  0  0  0  0  0  0  0  0
  -19.8246    3.9013    0.0000 C   0  0  0  0  0  0  0  0  0  0  0  0
  -21.3215    3.8052    0.0000 O   0  0  0  0  0  0  0  0  0  0  0  0
  -19.7689    2.4024    0.0000 N   0  0  0  0  0  0  0  0  0  0  0  0
  -19.4305    0.9411    0.0000 C   0  0  0  0  0  0  0  0  0  0  0  0
  -20.3884   -0.2132    0.0000 C   0  0  0  0  0  0  0  0  0  0  0  0
  -21.8670    0.0392    0.0000 C   0  0  0  0  0  0  0  0  0  0  0  0
  -22.8249   -1.1151    0.0000 C   0  0  0  0  0  0  0  0  0  0  0  0
  -23.1701    0.7821    0.0000 C   0  0  0  0  0  0  0  0  0  0  0  0
  -18.8216   -0.4298    0.0000 C   0  0  0  0  0  0  0  0  0  0  0  0
  -20.0289   -1.3200    0.0000 O   0  0  0  0  0  0  0  0  0  0  0  0
  -17.9643   -1.6607    0.0000 N   0  0  0  0  0  0  0  0  0  0  0  0
  -16.8896   -2.7071    0.0000 C   0  0  0  0  0  0  0  0  0  0  0  0
  -15.6362   -3.5312    0.0000 C   0  0  0  0  0  0  0  0  0  0  0  0
  -14.2496   -4.1032    0.0000 C   0  0  0  0  0  0  0  0  0  0  0  0
  -12.7797   -4.4024    0.0000 C   0  0  0  0  0  0  0  0  0  0  0  0
  -11.2798   -4.4181    0.0000 C   0  0  0  0  0  0  0  0  0  0  0  0
  -18.3044   -3.2054    0.0000 C   0  0  0  0  0  0  0  0  0  0  0  0
  -17.0714   -4.1960    0.0000 C   0  0  0  0  0  0  0  0  0  0  0  0
  -16.1267   -5.3612    0.0000 O   0  0  0  0  0  0  0  0  0  0  0  0
  -18.4517   -4.7831    0.0000 N   0  0  0  0  0  0  0  0  0  0  0  0
  -18.6336   -6.2720    0.0000 C   0  0  0  0  0  0  0  0  0  0  0  0
  -18.2951   -7.7333    0.0000 C   0  0  0  0  0  0  0  0  0  0  0  0
  -19.3915   -8.7571    0.0000 C   0  0  0  0  0  0  0  0  0  0  0  0
  -19.0531  -10.2184    0.0000 O   0  0  0  0  0  0  0  0  0  0  0  0
  -20.8895   -8.6796    0.0000 O   0  0  0  0  0  0  0  0  0  0  0  0
  -20.0139   -6.8590    0.0000 C   0  0  0  0  0  0  0  0  0  0  0  0
  -21.2125   -5.9571    0.0000 O   0  0  0  0  0  0  0  0  0  0  0  0
  -20.1957   -8.3480    0.0000 N   0  0  0  0  0  0  0  0  0  0  0  0
  -21.5761   -8.9350    0.0000 C   0  0  0  0  0  0  0  0  0  0  0  0
  -23.0740   -9.0145    0.0000 C   0  0  0  0  0  0  0  0  0  0  0  0
  -23.7541  -10.3515    0.0000 C   0  0  0  0  0  0  0  0  0  0  0  0
  -25.2520  -10.4310    0.0000 C   0  0  0  0  0  0  0  0  0  0  0  0
  -26.0899  -11.6751    0.0000 N   0  0  0  0  0  0  0  0  0  0  0  0
  -26.0698   -9.1735    0.0000 O   0  0  0  0  0  0  0  0  0  0  0  0
  -21.7579  -10.4239    0.0000 C   0  0  0  0  0  0  0  0  0  0  0  0
  -20.5593  -11.3258    0.0000 O   0  0  0  0  0  0  0  0  0  0  0  0
  -23.1383  -11.0110    0.0000 N   0  0  0  0  0  0  0  0  0  0  0  0
  -23.3201  -12.4999    0.0000 C   0  0  0  0  0  0  0  0  0  0  0  0
  -22.9817  -13.9612    0.0000 C   0  0  0  0  0  0  0  0  0  0  0  0
  -24.0780  -14.9850    0.0000 C   0  0  0  0  0  0  0  0  0  0  0  0
  -22.1639  -15.2187    0.0000 C   0  0  0  0  0  0  0  0  0  0  0  0
  -20.6660  -15.1392    0.0000 C   0  0  0  0  0  0  0  0  0  0  0  0
  -24.7004  -13.0869    0.0000 C   0  0  0  0  0  0  0  0  0  0  0  0
  -25.0624  -14.5426    0.0000 O   0  0  0  0  0  0  0  0  0  0  0  0
  -26.0000  -12.3378    0.0000 O   0  0  0  0  0  0  0  0  0  0  0  0
   38.2315    0.6467    0.0000 H   0  0  0  0  0  0  0  0  0  0  0  0
   38.4387   -3.8411    0.0000 H   0  0  0  0  0  0  0  0  0  0  0  0
   41.0449   -5.3269    0.0000 H   0  0  0  0  0  0  0  0  0  0  0  0
   40.6496    0.6264    0.0000 H   0  0  0  0  0  0  0  0  0  0  0  0
   47.5901    2.3991    0.0000 H   0  0  0  0  0  0  0  0  0  0  0  0
   48.6981   -2.6775    0.0000 H   0  0  0  0  0  0  0  0  0  0  0  0
   45.7671   -3.3172    0.0000 H   0  0  0  0  0  0  0  0  0  0  0  0
   50.6194   -0.9286    0.0000 H   0  0  0  0  0  0  0  0  0  0  0  0
   40.8166   -1.7383    0.0000 H   0  0  0  0  0  0  0  0  0  0  0  0
   38.7691    0.6612    0.0000 H   0  0  0  0  0  0  0  0  0  0  0  0
   42.6397    3.9780    0.0000 H   0  0  0  0  0  0  0  0  0  0  0  0
   40.1644    4.7674    0.0000 H   0  0  0  0  0  0  0  0  0  0  0  0
   35.8162    0.6448    0.0000 H   0  0  0  0  0  0  0  0  0  0  0  0
   35.4998   -2.7561    0.0000 H   0  0  0  0  0  0  0  0  0  0  0  0
   33.5715   -2.7666    0.0000 H   0  0  0  0  0  0  0  0  0  0  0  0
   34.1843    0.2850    0.0000 H   0  0  0  0  0  0  0  0  0  0  0  0
   32.4026    0.3842    0.0000 H   0  0  0  0  0  0  0  0  0  0  0  0
   31.4384    0.3790    0.0000 H   0  0  0  0  0  0  0  0  0  0  0  0
   29.6579    0.2604    0.0000 H   0  0  0  0  0  0  0  0  0  0  0  0
   30.3038   -2.7843    0.0000 H   0  0  0  0  0  0  0  0  0  0  0  0
   28.5233   -2.9029    0.0000 H   0  0  0  0  0  0  0  0  0  0  0  0
   27.5591   -2.9082    0.0000 H   0  0  0  0  0  0  0  0  0  0  0  0
   25.7774   -2.8089    0.0000 H   0  0  0  0  0  0  0  0  0  0  0  0
   26.3902    0.2426    0.0000 H   0  0  0  0  0  0  0  0  0  0  0  0
   24.6085    0.3419    0.0000 H   0  0  0  0  0  0  0  0  0  0  0  0
   23.6443    0.3367    0.0000 H   0  0  0  0  0  0  0  0  0  0  0  0
   21.8638    0.2180    0.0000 H   0  0  0  0  0  0  0  0  0  0  0  0
   22.5096   -2.8266    0.0000 H   0  0  0  0  0  0  0  0  0  0  0  0
   20.7292   -2.9453    0.0000 H   0  0  0  0  0  0  0  0  0  0  0  0
   19.7649   -2.9505    0.0000 H   0  0  0  0  0  0  0  0  0  0  0  0
   17.9833   -2.8512    0.0000 H   0  0  0  0  0  0  0  0  0  0  0  0
   18.5960    0.2003    0.0000 H   0  0  0  0  0  0  0  0  0  0  0  0
   16.8144    0.2996    0.0000 H   0  0  0  0  0  0  0  0  0  0  0  0
   15.8502    0.2944    0.0000 H   0  0  0  0  0  0  0  0  0  0  0  0
   14.0697    0.1757    0.0000 H   0  0  0  0  0  0  0  0  0  0  0  0
   14.7155   -2.8689    0.0000 H   0  0  0  0  0  0  0  0  0  0  0  0
   12.9350   -2.9876    0.0000 H   0  0  0  0  0  0  0  0  0  0  0  0
   11.9708   -2.9928    0.0000 H   0  0  0  0  0  0  0  0  0  0  0  0
   10.3370   -3.0017    0.0000 H   0  0  0  0  0  0  0  0  0  0  0  0
   10.8019    0.1580    0.0000 H   0  0  0  0  0  0  0  0  0  0  0  0
    8.8736    0.1475    0.0000 H   0  0  0  0  0  0  0  0  0  0  0  0
    7.2378    0.4896    0.0000 H   0  0  0  0  0  0  0  0  0  0  0  0
    5.4303   -0.3607    0.0000 H   0  0  0  0  0  0  0  0  0  0  0  0
    7.4421   -4.3180    0.0000 H   0  0  0  0  0  0  0  0  0  0  0  0
    5.7284   -3.8205    0.0000 H   0  0  0  0  0  0  0  0  0  0  0  0
   10.8651   -3.7000    0.0000 H   0  0  0  0  0  0  0  0  0  0  0  0
    8.8622   -5.1989    0.0000 H   0  0  0  0  0  0  0  0  0  0  0  0
    4.0102    0.5202    0.0000 H   0  0  0  0  0  0  0  0  0  0  0  0
    2.0209    0.3394    0.0000 H   0  0  0  0  0  0  0  0  0  0  0  0
    2.5579   -4.0673    0.0000 H   0  0  0  0  0  0  0  0  0  0  0  0
    1.1828   -3.1850    0.0000 H   0  0  0  0  0  0  0  0  0  0  0  0
    5.5041   -2.5513    0.0000 H   0  0  0  0  0  0  0  0  0  0  0  0
    4.3834   -1.3624    0.0000 H   0  0  0  0  0  0  0  0  0  0  0  0
    6.5483   -5.8857    0.0000 H   0  0  0  0  0  0  0  0  0  0  0  0
    7.2783   -3.6062    0.0000 H   0  0  0  0  0  0  0  0  0  0  0  0
    0.9877    1.6528    0.0000 H   0  0  0  0  0  0  0  0  0  0  0  0
   -0.9435    2.1633    0.0000 H   0  0  0  0  0  0  0  0  0  0  0  0
   -2.1144   -2.0891    0.0000 H   0  0  0  0  0  0  0  0  0  0  0  0
   -2.9193   -0.4965    0.0000 H   0  0  0  0  0  0  0  0  0  0  0  0
    1.3410   -1.7444    0.0000 H   0  0  0  0  0  0  0  0  0  0  0  0
    0.6945   -0.2439    0.0000 H   0  0  0  0  0  0  0  0  0  0  0  0
   -0.6348   -4.4042    0.0000 H   0  0  0  0  0  0  0  0  0  0  0  0
   -1.6278   -2.9216    0.0000 H   0  0  0  0  0  0  0  0  0  0  0  0
    2.6133   -3.3136    0.0000 H   0  0  0  0  0  0  0  0  0  0  0  0
    2.4930   -7.4777    0.0000 H   0  0  0  0  0  0  0  0  0  0  0  0
   -0.1050   -7.4918    0.0000 H   0  0  0  0  0  0  0  0  0  0  0  0
   -1.4162   -5.2489    0.0000 H   0  0  0  0  0  0  0  0  0  0  0  0
   -1.3825    3.5875    0.0000 H   0  0  0  0  0  0  0  0  0  0  0  0
   -2.6688    2.4749    0.0000 H   0  0  0  0  0  0  0  0  0  0  0  0
   -3.1387    1.1317    0.0000 H   0  0  0  0  0  0  0  0  0  0  0  0
   -3.0370    0.5540    0.0000 H   0  0  0  0  0  0  0  0  0  0  0  0
   -3.5854   -0.3886    0.0000 H   0  0  0  0  0  0  0  0  0  0  0  0
   -3.6567   -0.5405    0.0000 H   0  0  0  0  0  0  0  0  0  0  0  0
   -4.3049   -1.8074    0.0000 H   0  0  0  0  0  0  0  0  0  0  0  0
   -4.6023   -2.2160    0.0000 H   0  0  0  0  0  0  0  0  0  0  0  0
   -5.4368   -3.1589    0.0000 H   0  0  0  0  0  0  0  0  0  0  0  0
   -5.8061   -3.5038    0.0000 H   0  0  0  0  0  0  0  0  0  0  0  0
   -6.8040   -4.2718    0.0000 H   0  0  0  0  0  0  0  0  0  0  0  0
   -7.2320   -4.5406    0.0000 H   0  0  0  0  0  0  0  0  0  0  0  0
   -8.5402   -5.1006    0.0000 H   0  0  0  0  0  0  0  0  0  0  0  0
   -9.3965   -5.5931    0.0000 H   0  0  0  0  0  0  0  0  0  0  0  0
   -1.4010    4.0849    0.0000 H   0  0  0  0  0  0  0  0  0  0  0  0
   -1.7948    5.6706    0.0000 H   0  0  0  0  0  0  0  0  0  0  0  0
   -3.5676    5.8743    0.0000 H   0  0  0  0  0  0  0  0  0  0  0  0
   -3.3020    7.0835    0.0000 H   0  0  0  0  0  0  0  0  0  0  0  0
   -3.9769    7.8494    0.0000 H   0  0  0  0  0  0  0  0  0  0  0  0
   -4.7924   10.8279    0.0000 H   0  0  0  0  0  0  0  0  0  0  0  0
   -6.2120   10.0191    0.0000 H   0  0  0  0  0  0  0  0  0  0  0  0
   -3.1116    8.0308    0.0000 H   0  0  0  0  0  0  0  0  0  0  0  0
   -1.3382   11.2369    0.0000 H   0  0  0  0  0  0  0  0  0  0  0  0
   -2.7086   12.3797    0.0000 H   0  0  0  0  0  0  0  0  0  0  0  0
   -4.2022   11.4033    0.0000 H   0  0  0  0  0  0  0  0  0  0  0  0
   -0.7754   10.1167    0.0000 H   0  0  0  0  0  0  0  0  0  0  0  0
   -0.6766    8.3350    0.0000 H   0  0  0  0  0  0  0  0  0  0  0  0
   -2.5239    7.7817    0.0000 H   0  0  0  0  0  0  0  0  0  0  0  0
   -6.7890   11.2897    0.0000 H   0  0  0  0  0  0  0  0  0  0  0  0
   -7.7219   11.6143    0.0000 H   0  0  0  0  0  0  0  0  0  0  0  0
   -9.7557   13.6043    0.0000 H   0  0  0  0  0  0  0  0  0  0  0  0
  -10.6774   12.0763    0.0000 H   0  0  0  0  0  0  0  0  0  0  0  0
   -8.2701   14.6494    0.0000 H   0  0  0  0  0  0  0  0  0  0  0  0
  -11.6671   12.8202    0.0000 H   0  0  0  0  0  0  0  0  0  0  0  0
  -12.8101   12.6019    0.0000 H   0  0  0  0  0  0  0  0  0  0  0  0
  -15.5969   13.1764    0.0000 H   0  0  0  0  0  0  0  0  0  0  0  0
  -15.5463   11.3927    0.0000 H   0  0  0  0  0  0  0  0  0  0  0  0
  -11.3051   13.0801    0.0000 H   0  0  0  0  0  0  0  0  0  0  0  0
  -10.5126   15.8044    0.0000 H   0  0  0  0  0  0  0  0  0  0  0  0
  -12.5251   18.0293    0.0000 H   0  0  0  0  0  0  0  0  0  0  0  0
  -15.4581   17.3990    0.0000 H   0  0  0  0  0  0  0  0  0  0  0  0
  -16.3787   14.5437    0.0000 H   0  0  0  0  0  0  0  0  0  0  0  0
  -16.7809   11.4835    0.0000 H   0  0  0  0  0  0  0  0  0  0  0  0
  -17.6246   10.6819    0.0000 H   0  0  0  0  0  0  0  0  0  0  0  0
  -20.2795    9.6585    0.0000 H   0  0  0  0  0  0  0  0  0  0  0  0
  -19.2726    8.1854    0.0000 H   0  0  0  0  0  0  0  0  0  0  0  0
  -16.6170   11.8978    0.0000 H   0  0  0  0  0  0  0  0  0  0  0  0
  -17.4232   14.6181    0.0000 H   0  0  0  0  0  0  0  0  0  0  0  0
  -20.3190   15.4018    0.0000 H   0  0  0  0  0  0  0  0  0  0  0  0
  -22.4456   13.2858    0.0000 H   0  0  0  0  0  0  0  0  0  0  0  0
  -21.6764   10.3861    0.0000 H   0  0  0  0  0  0  0  0  0  0  0  0
  -20.4481    7.4334    0.0000 H   0  0  0  0  0  0  0  0  0  0  0  0
  -20.6366    6.4637    0.0000 H   0  0  0  0  0  0  0  0  0  0  0  0
  -22.1329    5.9424    0.0000 H   0  0  0  0  0  0  0  0  0  0  0  0
  -22.3169    4.1675    0.0000 H   0  0  0  0  0  0  0  0  0  0  0  0
  -20.6733    3.4726    0.0000 H   0  0  0  0  0  0  0  0  0  0  0  0
  -21.2688    2.3871    0.0000 H   0  0  0  0  0  0  0  0  0  0  0  0
  -20.8370    1.4621    0.0000 H   0  0  0  0  0  0  0  0  0  0  0  0
  -20.8937   -1.6255    0.0000 H   0  0  0  0  0  0  0  0  0  0  0  0
  -19.3038   -1.2494    0.0000 H   0  0  0  0  0  0  0  0  0  0  0  0
  -21.7184    1.5318    0.0000 H   0  0  0  0  0  0  0  0  0  0  0  0
  -24.3233   -1.0447    0.0000 H   0  0  0  0  0  0  0  0  0  0  0  0
  -23.3303   -2.5274    0.0000 H   0  0  0  0  0  0  0  0  0  0  0  0
  -21.6221   -2.0113    0.0000 H   0  0  0  0  0  0  0  0  0  0  0  0
  -24.5476    0.1886    0.0000 H   0  0  0  0  0  0  0  0  0  0  0  0
  -24.1405    1.9260    0.0000 H   0  0  0  0  0  0  0  0  0  0  0  0
  -22.2121    1.9364    0.0000 H   0  0  0  0  0  0  0  0  0  0  0  0
  -19.2179   -2.4844    0.0000 H   0  0  0  0  0  0  0  0  0  0  0  0
  -15.5330   -5.0276    0.0000 H   0  0  0  0  0  0  0  0  0  0  0  0
  -16.7095   -4.5791    0.0000 H   0  0  0  0  0  0  0  0  0  0  0  0
  -14.0446   -5.5891    0.0000 H   0  0  0  0  0  0  0  0  0  0  0  0
  -15.1051   -5.3352    0.0000 H   0  0  0  0  0  0  0  0  0  0  0  0
  -12.1277   -5.7533    0.0000 H   0  0  0  0  0  0  0  0  0  0  0  0
  -13.5493   -5.6899    0.0000 H   0  0  0  0  0  0  0  0  0  0  0  0
  -11.1528   -5.9127    0.0000 H   0  0  0  0  0  0  0  0  0  0  0  0
  -18.9288   -4.5692    0.0000 H   0  0  0  0  0  0  0  0  0  0  0  0
  -19.8043   -3.1897    0.0000 H   0  0  0  0  0  0  0  0  0  0  0  0
  -18.9002   -1.8288    0.0000 H   0  0  0  0  0  0  0  0  0  0  0  0
  -19.7513   -4.0340    0.0000 H   0  0  0  0  0  0  0  0  0  0  0  0
  -17.1357   -6.1925    0.0000 H   0  0  0  0  0  0  0  0  0  0  0  0
  -17.4773   -8.9908    0.0000 H   0  0  0  0  0  0  0  0  0  0  0  0
  -16.9148   -7.1463    0.0000 H   0  0  0  0  0  0  0  0  0  0  0  0
  -22.0524   -9.0735    0.0000 H   0  0  0  0  0  0  0  0  0  0  0  0
  -19.2510   -9.5131    0.0000 H   0  0  0  0  0  0  0  0  0  0  0  0
  -21.9145   -7.4737    0.0000 H   0  0  0  0  0  0  0  0  0  0  0  0
  -24.5087   -8.5769    0.0000 H   0  0  0  0  0  0  0  0  0  0  0  0
  -22.8922   -7.5256    0.0000 H   0  0  0  0  0  0  0  0  0  0  0  0
  -23.9359  -11.8404    0.0000 H   0  0  0  0  0  0  0  0  0  0  0  0
  -22.6928  -11.4115    0.0000 H   0  0  0  0  0  0  0  0  0  0  0  0
  -27.4299  -11.8474    0.0000 H   0  0  0  0  0  0  0  0  0  0  0  0
  -25.6631  -13.2854    0.0000 H   0  0  0  0  0  0  0  0  0  0  0  0
  -24.5194  -10.4259    0.0000 H   0  0  0  0  0  0  0  0  0  0  0  0
  -21.8222  -12.4204    0.0000 H   0  0  0  0  0  0  0  0  0  0  0  0
  -21.6831  -13.2103    0.0000 H   0  0  0  0  0  0  0  0  0  0  0  0
  -23.9202  -16.4766    0.0000 H   0  0  0  0  0  0  0  0  0  0  0  0
  -25.4584  -15.5720    0.0000 H   0  0  0  0  0  0  0  0  0  0  0  0
  -25.3905  -14.2588    0.0000 H   0  0  0  0  0  0  0  0  0  0  0  0
  -21.8254  -16.6800    0.0000 H   0  0  0  0  0  0  0  0  0  0  0  0
  -23.4624  -15.9696    0.0000 H   0  0  0  0  0  0  0  0  0  0  0  0
  -19.8482  -16.3966    0.0000 H   0  0  0  0  0  0  0  0  0  0  0  0
  -19.2856  -14.5521    0.0000 H   0  0  0  0  0  0  0  0  0  0  0  0
  -20.8237  -13.6475    0.0000 H   0  0  0  0  0  0  0  0  0  0  0  0
  -27.2793  -12.7720    0.0000 H   0  0  0  0  0  0  0  0  0  0  0  0
  1  2  1  0
  2  3  1  0
  3  4  2  0
  4  5  1  0
  5  6  2  0
  6  7  1  0
  7  8  2  0
  7  9  1  0
  9 10  1  0
 10 11  1  0
 11 12  2  0
  9 13  1  0
 13 14  1  0
 14 15  2  0
 15 16  1  0
 16 17  2  0
 17 18  1  0
 16 19  1  0
 14 20  1  0
 20 21  1  0
 21 22  2  0
 22 23  1  0
 23 24  2  0
 24 25  1  0
 25 26  2  0
 25 27  1  0
  1 28  2  0
  1 29  1  0
 29 30  1  0
 30 31  1  0
 31 32  1  0
 32 33  1  0
 33 34  1  0
 34 35  1  0
 35 36  1  0
 36 37  1  0
 37 38  1  0
 38 39  1  0
 39 40  1  0
 40 41  1  0
 41 42  1  0
 42 43  1  0
 43 44  1  0
 44 45  1  0
 45 46  1  0
 46 47  1  0
 47 48  1  0
 48 49  1  0
 49 50  1  0
 50 51  2  0
 50 52  1  0
 52 53  1  0
 53 54  1  0
 54 55  1  0
 55 56  1  0
 55 57  2  0
 53 58  1  0
 58 59  2  0
 58 60  1  0
 60 61  1  0
 61 62  1  0
 62 63  1  0
 63 64  1  0
 64 65  1  0
 64 66  2  0
 61 67  1  0
 67 68  2  0
 67 69  1  0
 69 70  1  0
 70 71  1  0
 71 72  1  0
 72 73  1  0
 73 74  1  0
 74 75  1  0
 75 76  2  3
 75 77  1  0
 70 78  1  0
 78 79  2  0
 78 80  1  0
 81 80  1  6
 81 82  1  0
 82 83  1  0
 83 84  1  0
 84 85  1  0
 85 86  1  0
 86 87  1  0
 87 88  1  0
 81 89  1  0
 81 90  1  0
 90 91  2  0
 90 92  1  0
 92 93  1  0
 93 94  1  0
 94 95  1  0
 95 96  1  0
 95 97  1  0
 93 98  1  0
 98 99  2  0
 98100  1  0
100101  1  0
101102  1  0
102103  1  0
101104  1  0
104105  2  0
104106  1  0
106107  1  0
107108  1  0
108109  1  0
109110  2  0
110111  1  0
111112  2  0
112113  1  0
113114  2  0
107115  1  0
115116  2  0
115117  1  0
117118  1  0
118119  1  0
119120  1  0
120121  2  0
121122  1  0
122123  2  0
123124  1  0
124125  2  0
118126  1  0
126127  2  0
126128  1  0
128129  1  0
129130  1  0
129131  1  0
131132  2  0
131133  1  0
133134  1  0
134135  1  0
135136  1  0
136137  1  0
136138  1  0
134139  1  0
139140  2  0
139141  1  0
141142  1  0
142143  1  0
143144  1  0
144145  1  0
145146  1  0
142147  1  0
142148  1  1
148149  2  0
148150  1  0
150151  1  0
151152  1  0
152153  1  0
153154  2  0
153155  1  0
151156  1  0
156157  2  0
156158  1  0
158159  1  0
159160  1  0
160161  1  0
161162  1  0
162163  1  0
162164  2  0
159165  1  0
165166  2  0
165167  1  0
167168  1  0
168169  1  0
169170  1  0
169171  1  0
171172  1  0
168173  1  0
173174  2  0
173175  1  0
  8  3  1  0
114109  1  0
125120  1  0
 11  6  1  0
 88146  2  0
 18 13  2  0
 22  9  1  0
 26 21  1  0
  2176  1  0
  4177  1  0
  5178  1  0
  8179  1  0
 15180  1  0
 17181  1  0
 18182  1  0
 19183  1  0
 23184  1  0
 24185  1  0
 26186  1  0
 27187  1  0
 29188  1  0
 30189  1  0
 30190  1  0
 31191  1  0
 31192  1  0
 33193  1  0
 33194  1  0
 34195  1  0
 34196  1  0
 36197  1  0
 36198  1  0
 37199  1  0
 37200  1  0
 39201  1  0
 39202  1  0
 40203  1  0
 40204  1  0
 42205  1  0
 42206  1  0
 43207  1  0
 43208  1  0
 45209  1  0
 45210  1  0
 46211  1  0
 46212  1  0
 48213  1  0
 48214  1  0
 49215  1  0
 49216  1  0
 52217  1  0
 53218  1  1
 54219  1  0
 54220  1  0
 56221  1  0
 56222  1  0
 60223  1  0
 61224  1  1
 62225  1  0
 62226  1  0
 63227  1  0
 63228  1  0
 65229  1  0
 65230  1  0
 69231  1  0
 70232  1  1
 71233  1  0
 71234  1  0
 72235  1  0
 72236  1  0
 73237  1  0
 73238  1  0
 74239  1  0
 76240  1  0
 77241  1  0
 77242  1  0
 80243  1  0
 82244  1  0
 82245  1  0
 83246  1  0
 83247  1  0
 84248  1  0
 84249  1  0
 85250  1  0
 85251  1  0
 86252  1  0
 86253  1  0
 87254  1  0
 87255  1  0
 88256  1  0
 89257  1  0
 89258  1  0
 89259  1  0
 92260  1  0
 93261  1  6
 94262  1  0
 94263  1  0
 95264  1  0
 96265  1  0
 96266  1  0
 96267  1  0
 97268  1  0
 97269  1  0
 97270  1  0
100271  1  0
101272  1  6
102273  1  0
102274  1  0
103275  1  0
106276  1  0
107277  1  6
108278  1  0
108279  1  0
110280  1  0
111281  1  0
112282  1  0
113283  1  0
114284  1  0
117285  1  0
118286  1  6
119287  1  0
119288  1  0
121289  1  0
122290  1  0
123291  1  0
124292  1  0
125293  1  0
128294  1  0
129295  1  6
130296  1  0
130297  1  0
130298  1  0
133299  1  0
134300  1  6
135301  1  0
135302  1  0
136303  1  0
137304  1  0
137305  1  0
137306  1  0
138307  1  0
138308  1  0
138309  1  0
141310  1  0
143311  1  0
143312  1  0
144313  1  0
144314  1  0
145315  1  0
145316  1  0
146317  1  0
147318  1  0
147319  1  0
147320  1  0
150321  1  0
151322  1  1
152323  1  0
152324  1  0
155325  1  0
158326  1  0
159327  1  6
160328  1  0
160329  1  0
161330  1  0
161331  1  0
163332  1  0
163333  1  0
167334  1  0
168335  1  1
169336  1  1
170337  1  0
170338  1  0
170339  1  0
171340  1  0
171341  1  0
172342  1  0
172343  1  0
172344  1  0
175345  1  0
M  END
