
     RDKit          2D

288296  0  0  0  0  0  0  0  0999 V2000
   24.2913   -2.4343    0.0000 C   0  0  0  0  0  0  0  0  0  0  0  0
   25.6819   -1.8719    0.0000 N   0  0  0  0  0  0  0  0  0  0  0  0
   26.8643   -2.7949    0.0000 C   0  0  0  0  0  0  0  0  0  0  0  0
   26.6560   -4.2804    0.0000 C   0  0  0  0  0  0  0  0  0  0  0  0
   27.8384   -5.2035    0.0000 C   0  0  0  0  0  0  0  0  0  0  0  0
   29.2290   -4.6410    0.0000 C   0  0  0  0  0  0  0  0  0  0  0  0
   29.4372   -3.1556    0.0000 C   0  0  0  0  0  0  0  0  0  0  0  0
   28.2548   -2.2325    0.0000 C   0  0  0  0  0  0  0  0  0  0  0  0
   30.9143   -2.8946    0.0000 C   0  0  0  0  0  0  0  0  0  0  0  0
   31.6190   -4.2187    0.0000 O   0  0  0  0  0  0  0  0  0  0  0  0
   30.5774   -5.2981    0.0000 C   0  0  0  0  0  0  0  0  0  0  0  0
   30.8384   -6.7752    0.0000 O   0  0  0  0  0  0  0  0  0  0  0  0
   32.4106   -2.7894    0.0000 C   0  0  0  0  0  0  0  0  0  0  0  0
   33.0677   -1.4410    0.0000 C   0  0  0  0  0  0  0  0  0  0  0  0
   34.5640   -1.3358    0.0000 C   0  0  0  0  0  0  0  0  0  0  0  0
   35.4032   -2.5790    0.0000 C   0  0  0  0  0  0  0  0  0  0  0  0
   34.7462   -3.9275    0.0000 C   0  0  0  0  0  0  0  0  0  0  0  0
   33.2498   -4.0326    0.0000 C   0  0  0  0  0  0  0  0  0  0  0  0
   36.8995   -2.4739    0.0000 O   0  0  0  0  0  0  0  0  0  0  0  0
   32.2284   -0.1977    0.0000 O   0  0  0  0  0  0  0  0  0  0  0  0
   30.7321   -0.3029    0.0000 C   0  0  0  0  0  0  0  0  0  0  0  0
   30.0751   -1.6513    0.0000 C   0  0  0  0  0  0  0  0  0  0  0  0
   28.8854   -1.1272    0.0000 C   0  0  0  0  0  0  0  0  0  0  0  0
   28.4378   -0.4642    0.0000 C   0  0  0  0  0  0  0  0  0  0  0  0
   28.7882    0.2550    0.0000 C   0  0  0  0  0  0  0  0  0  0  0  0
   29.5863    0.3111    0.0000 C   0  0  0  0  0  0  0  0  0  0  0  0
   27.5573    2.0784    0.0000 O   0  0  0  0  0  0  0  0  0  0  0  0
   24.0831   -3.9197    0.0000 S   0  0  0  0  0  0  0  0  0  0  0  0
   23.1090   -1.5112    0.0000 N   0  0  0  0  0  0  0  0  0  0  0  0
   21.7184   -2.0736    0.0000 C   0  0  0  0  0  0  0  0  0  0  0  0
   20.5361   -1.1506    0.0000 C   0  0  0  0  0  0  0  0  0  0  0  0
   19.1455   -1.7130    0.0000 C   0  0  0  0  0  0  0  0  0  0  0  0
   18.9373   -3.1984    0.0000 O   0  0  0  0  0  0  0  0  0  0  0  0
   17.9631   -0.7899    0.0000 N   0  0  0  0  0  0  0  0  0  0  0  0
   16.5726   -1.3523    0.0000 C   0  0  0  0  0  0  0  0  0  0  0  0
   15.4582   -2.3564    0.0000 C   0  0  0  0  0  0  0  0  0  0  0  0
   14.0315   -1.8934    0.0000 C   0  0  0  0  0  0  0  0  0  0  0  0
   12.9171   -2.8975    0.0000 O   0  0  0  0  0  0  0  0  0  0  0  0
   13.6817   -1.1771    0.0000 O   0  0  0  0  0  0  0  0  0  0  0  0
   15.3902   -0.4293    0.0000 C   0  0  0  0  0  0  0  0  0  0  0  0
   15.5984    1.0562    0.0000 O   0  0  0  0  0  0  0  0  0  0  0  0
   13.9996   -0.9917    0.0000 N   0  0  0  0  0  0  0  0  0  0  0  0
   12.8173   -0.0686    0.0000 C   0  0  0  0  0  0  0  0  0  0  0  0
   12.0220    1.2032    0.0000 C   0  0  0  0  0  0  0  0  0  0  0  0
   10.5229    1.1503    0.0000 C   0  0  0  0  0  0  0  0  0  0  0  0
    9.6846   -0.0936    0.0000 C   0  0  0  0  0  0  0  0  0  0  0  0
    8.2425    0.3194    0.0000 N   0  0  0  0  0  0  0  0  0  0  0  0
    8.1896    1.8184    0.0000 C   0  0  0  0  0  0  0  0  0  0  0  0
    9.5990    2.3320    0.0000 N   0  0  0  0  0  0  0  0  0  0  0  0
   11.4267   -0.6310    0.0000 C   0  0  0  0  0  0  0  0  0  0  0  0
   11.2185   -2.1165    0.0000 O   0  0  0  0  0  0  0  0  0  0  0  0
   10.2444    0.2920    0.0000 N   0  0  0  0  0  0  0  0  0  0  0  0
    8.8538   -0.2704    0.0000 C   0  0  0  0  0  0  0  0  0  0  0  0
    7.7394   -1.2745    0.0000 C   0  0  0  0  0  0  0  0  0  0  0  0
    6.2431   -1.1705    0.0000 C   0  0  0  0  0  0  0  0  0  0  0  0
    7.0357   -2.5992    0.0000 C   0  0  0  0  0  0  0  0  0  0  0  0
    7.8311   -3.8709    0.0000 C   0  0  0  0  0  0  0  0  0  0  0  0
    7.6715    0.6527    0.0000 C   0  0  0  0  0  0  0  0  0  0  0  0
    7.5140    2.1444    0.0000 O   0  0  0  0  0  0  0  0  0  0  0  0
    6.2809    0.0903    0.0000 N   0  0  0  0  0  0  0  0  0  0  0  0
    5.0985    1.0133    0.0000 C   0  0  0  0  0  0  0  0  0  0  0  0
    4.3032    2.2851    0.0000 C   0  0  0  0  0  0  0  0  0  0  0  0
    2.8041    2.2322    0.0000 C   0  0  0  0  0  0  0  0  0  0  0  0
    2.0088    3.5040    0.0000 C   0  0  0  0  0  0  0  0  0  0  0  0
    0.5097    3.4511    0.0000 C   0  0  0  0  0  0  0  0  0  0  0  0
   -0.5697    4.4927    0.0000 N   0  0  0  0  0  0  0  0  0  0  0  0
    3.7080    0.4509    0.0000 C   0  0  0  0  0  0  0  0  0  0  0  0
    3.6824   -1.0489    0.0000 O   0  0  0  0  0  0  0  0  0  0  0  0
    2.5256    1.3740    0.0000 N   0  0  0  0  0  0  0  0  0  0  0  0
    1.1350    0.8116    0.0000 C   0  0  0  0  0  0  0  0  0  0  0  0
    0.6366   -0.6032    0.0000 C   0  0  0  0  0  0  0  0  0  0  0  0
   -0.2567   -1.8082    0.0000 C   0  0  0  0  0  0  0  0  0  0  0  0
   -1.4655   -2.6963    0.0000 C   0  0  0  0  0  0  0  0  0  0  0  0
   -2.8824   -3.1887    0.0000 C   0  0  0  0  0  0  0  0  0  0  0  0
    2.3378   -0.0847    0.0000 C   0  0  0  0  0  0  0  0  0  0  0  0
    1.1943    2.3104    0.0000 C   0  0  0  0  0  0  0  0  0  0  0  0
    2.5271    2.9986    0.0000 O   0  0  0  0  0  0  0  0  0  0  0  0
    0.8092    3.7601    0.0000 N   0  0  0  0  0  0  0  0  0  0  0  0
    0.0138    5.0319    0.0000 C   0  0  0  0  0  0  0  0  0  0  0  0
    0.4411    6.4698    0.0000 C   0  0  0  0  0  0  0  0  0  0  0  0
    1.9000    6.8186    0.0000 O   0  0  0  0  0  0  0  0  0  0  0  0
   -1.1210    6.0127    0.0000 C   0  0  0  0  0  0  0  0  0  0  0  0
   -0.3203    7.2811    0.0000 O   0  0  0  0  0  0  0  0  0  0  0  0
   -2.4946    6.6155    0.0000 N   0  0  0  0  0  0  0  0  0  0  0  0
   -3.9848    6.7866    0.0000 C   0  0  0  0  0  0  0  0  0  0  0  0
   -4.8426    8.0172    0.0000 C   0  0  0  0  0  0  0  0  0  0  0  0
   -4.2057    9.3753    0.0000 C   0  0  0  0  0  0  0  0  0  0  0  0
   -2.7112    9.5029    0.0000 C   0  0  0  0  0  0  0  0  0  0  0  0
   -2.0743   10.8610    0.0000 C   0  0  0  0  0  0  0  0  0  0  0  0
   -2.9321   12.0915    0.0000 C   0  0  0  0  0  0  0  0  0  0  0  0
   -4.4267   11.9640    0.0000 C   0  0  0  0  0  0  0  0  0  0  0  0
   -5.0635   10.6059    0.0000 C   0  0  0  0  0  0  0  0  0  0  0  0
   -5.4592    6.5109    0.0000 C   0  0  0  0  0  0  0  0  0  0  0  0
   -5.9516    7.9278    0.0000 O   0  0  0  0  0  0  0  0  0  0  0  0
   -6.7869    5.8128    0.0000 N   0  0  0  0  0  0  0  0  0  0  0  0
   -7.8498    4.7544    0.0000 C   0  0  0  0  0  0  0  0  0  0  0  0
   -9.3467    4.8511    0.0000 C   0  0  0  0  0  0  0  0  0  0  0  0
  -10.0115    6.1957    0.0000 C   0  0  0  0  0  0  0  0  0  0  0  0
  -11.4901    6.4483    0.0000 C   0  0  0  0  0  0  0  0  0  0  0  0
  -11.7068    7.9326    0.0000 N   0  0  0  0  0  0  0  0  0  0  0  0
  -10.3621    8.5973    0.0000 C   0  0  0  0  0  0  0  0  0  0  0  0
   -9.3144    7.5239    0.0000 N   0  0  0  0  0  0  0  0  0  0  0  0
   -8.5536    3.4298    0.0000 C   0  0  0  0  0  0  0  0  0  0  0  0
   -9.9683    3.9282    0.0000 O   0  0  0  0  0  0  0  0  0  0  0  0
   -8.8356    1.9565    0.0000 N   0  0  0  0  0  0  0  0  0  0  0  0
   -8.6708    0.4656    0.0000 C   0  0  0  0  0  0  0  0  0  0  0  0
   -8.0739   -0.9105    0.0000 C   0  0  0  0  0  0  0  0  0  0  0  0
   -7.0979   -2.0496    0.0000 C   0  0  0  0  0  0  0  0  0  0  0  0
   -5.8295   -2.8503    0.0000 C   0  0  0  0  0  0  0  0  0  0  0  0
   -4.3814   -3.2416    0.0000 C   0  0  0  0  0  0  0  0  0  0  0  0
  -10.0975    0.9286    0.0000 C   0  0  0  0  0  0  0  0  0  0  0  0
   -9.6796   -0.6445    0.0000 C   0  0  0  0  0  0  0  0  0  0  0  0
   -9.5820   -2.1413    0.0000 O   0  0  0  0  0  0  0  0  0  0  0  0
  -11.1454   -0.3258    0.0000 N   0  0  0  0  0  0  0  0  0  0  0  0
  -12.1542   -1.4359    0.0000 C   0  0  0  0  0  0  0  0  0  0  0  0
  -12.7226   -2.8241    0.0000 C   0  0  0  0  0  0  0  0  0  0  0  0
  -14.2089   -3.0259    0.0000 C   0  0  0  0  0  0  0  0  0  0  0  0
  -14.7773   -4.4141    0.0000 C   0  0  0  0  0  0  0  0  0  0  0  0
  -15.6747   -2.7073    0.0000 C   0  0  0  0  0  0  0  0  0  0  0  0
  -13.6200   -1.1172    0.0000 C   0  0  0  0  0  0  0  0  0  0  0  0
  -14.0769    0.3115    0.0000 O   0  0  0  0  0  0  0  0  0  0  0  0
  -14.6288   -2.2273    0.0000 N   0  0  0  0  0  0  0  0  0  0  0  0
  -16.0946   -1.9087    0.0000 C   0  0  0  0  0  0  0  0  0  0  0  0
  -17.3630   -1.1079    0.0000 C   0  0  0  0  0  0  0  0  0  0  0  0
  -17.3037    0.3909    0.0000 C   0  0  0  0  0  0  0  0  0  0  0  0
  -18.5721    1.1917    0.0000 C   0  0  0  0  0  0  0  0  0  0  0  0
  -18.5128    2.6905    0.0000 N   0  0  0  0  0  0  0  0  0  0  0  0
  -19.7812    3.4913    0.0000 C   0  0  0  0  0  0  0  0  0  0  0  0
  -19.7219    4.9901    0.0000 N   0  0  0  0  0  0  0  0  0  0  0  0
  -21.1089    2.7932    0.0000 N   0  0  0  0  0  0  0  0  0  0  0  0
  -17.1034   -3.0187    0.0000 C   0  0  0  0  0  0  0  0  0  0  0  0
  -16.8241   -4.4925    0.0000 O   0  0  0  0  0  0  0  0  0  0  0  0
  -18.5692   -2.7001    0.0000 N   0  0  0  0  0  0  0  0  0  0  0  0
  -19.5780   -3.8101    0.0000 C   0  0  0  0  0  0  0  0  0  0  0  0
  -20.1464   -5.1983    0.0000 C   0  0  0  0  0  0  0  0  0  0  0  0
  -21.6327   -5.4002    0.0000 C   0  0  0  0  0  0  0  0  0  0  0  0
  -22.2011   -6.7884    0.0000 O   0  0  0  0  0  0  0  0  0  0  0  0
  -22.8105   -4.4713    0.0000 O   0  0  0  0  0  0  0  0  0  0  0  0
  -21.0438   -3.4915    0.0000 C   0  0  0  0  0  0  0  0  0  0  0  0
  -21.5007   -2.0628    0.0000 O   0  0  0  0  0  0  0  0  0  0  0  0
  -22.0526   -4.6016    0.0000 N   0  0  0  0  0  0  0  0  0  0  0  0
  -23.5184   -4.2829    0.0000 C   0  0  0  0  0  0  0  0  0  0  0  0
  -24.7868   -3.4822    0.0000 C   0  0  0  0  0  0  0  0  0  0  0  0
  -26.2765   -3.6580    0.0000 O   0  0  0  0  0  0  0  0  0  0  0  0
  -24.5273   -5.3930    0.0000 C   0  0  0  0  0  0  0  0  0  0  0  0
  -24.0703   -6.8217    0.0000 O   0  0  0  0  0  0  0  0  0  0  0  0
  -25.9930   -5.0743    0.0000 N   0  0  0  0  0  0  0  0  0  0  0  0
  -27.0019   -6.1844    0.0000 C   0  0  0  0  0  0  0  0  0  0  0  0
  -27.5702   -7.5725    0.0000 C   0  0  0  0  0  0  0  0  0  0  0  0
  -29.0565   -7.7744    0.0000 C   0  0  0  0  0  0  0  0  0  0  0  0
  -28.4676   -5.8657    0.0000 C   0  0  0  0  0  0  0  0  0  0  0  0
  -29.6042   -6.8446    0.0000 O   0  0  0  0  0  0  0  0  0  0  0  0
  -28.9245   -4.4370    0.0000 O   0  0  0  0  0  0  0  0  0  0  0  0
   25.7075   -0.3721    0.0000 H   0  0  0  0  0  0  0  0  0  0  0  0
   25.2655   -4.8428    0.0000 H   0  0  0  0  0  0  0  0  0  0  0  0
   27.6302   -6.6889    0.0000 H   0  0  0  0  0  0  0  0  0  0  0  0
   28.0974   -0.7408    0.0000 H   0  0  0  0  0  0  0  0  0  0  0  0
   35.2211    0.0127    0.0000 H   0  0  0  0  0  0  0  0  0  0  0  0
   35.5854   -5.1707    0.0000 H   0  0  0  0  0  0  0  0  0  0  0  0
   32.5928   -5.3811    0.0000 H   0  0  0  0  0  0  0  0  0  0  0  0
   37.7388   -3.7171    0.0000 H   0  0  0  0  0  0  0  0  0  0  0  0
   27.9217   -3.1049    0.0000 H   0  0  0  0  0  0  0  0  0  0  0  0
   26.2415   -0.4352    0.0000 H   0  0  0  0  0  0  0  0  0  0  0  0
   30.5500    2.2888    0.0000 H   0  0  0  0  0  0  0  0  0  0  0  0
   28.2144    3.4269    0.0000 H   0  0  0  0  0  0  0  0  0  0  0  0
   23.3172   -0.0257    0.0000 H   0  0  0  0  0  0  0  0  0  0  0  0
   20.6041   -3.0777    0.0000 H   0  0  0  0  0  0  0  0  0  0  0  0
   22.5138   -3.3454    0.0000 H   0  0  0  0  0  0  0  0  0  0  0  0
   19.7407    0.1212    0.0000 H   0  0  0  0  0  0  0  0  0  0  0  0
   21.6504   -0.1465    0.0000 H   0  0  0  0  0  0  0  0  0  0  0  0
   18.1714    0.6956    0.0000 H   0  0  0  0  0  0  0  0  0  0  0  0
   17.3679   -2.6241    0.0000 H   0  0  0  0  0  0  0  0  0  0  0  0
   14.7545   -3.6811    0.0000 H   0  0  0  0  0  0  0  0  0  0  0  0
   16.6406   -3.2795    0.0000 H   0  0  0  0  0  0  0  0  0  0  0  0
   13.4382   -2.3826    0.0000 H   0  0  0  0  0  0  0  0  0  0  0  0
   13.9316    0.9355    0.0000 H   0  0  0  0  0  0  0  0  0  0  0  0
   11.7096    2.6703    0.0000 H   0  0  0  0  0  0  0  0  0  0  0  0
   13.4125    1.7656    0.0000 H   0  0  0  0  0  0  0  0  0  0  0  0
   10.3661   -1.4298    0.0000 H   0  0  0  0  0  0  0  0  0  0  0  0
    6.9570   -0.4536    0.0000 H   0  0  0  0  0  0  0  0  0  0  0  0
    6.9458    2.6568    0.0000 H   0  0  0  0  0  0  0  0  0  0  0  0
   10.0870    1.7838    0.0000 H   0  0  0  0  0  0  0  0  0  0  0  0
    9.4882   -1.6296    0.0000 H   0  0  0  0  0  0  0  0  0  0  0  0
    9.0255   -2.0465    0.0000 H   0  0  0  0  0  0  0  0  0  0  0  0
    5.1055   -1.6791    0.0000 H   0  0  0  0  0  0  0  0  0  0  0  0
    5.1303    0.1116    0.0000 H   0  0  0  0  0  0  0  0  0  0  0  0
    6.2233    0.6893    0.0000 H   0  0  0  0  0  0  0  0  0  0  0  0
    5.9214   -3.6033    0.0000 H   0  0  0  0  0  0  0  0  0  0  0  0
    5.6651   -1.9896    0.0000 H   0  0  0  0  0  0  0  0  0  0  0  0
    7.1273   -5.1956    0.0000 H   0  0  0  0  0  0  0  0  0  0  0  0
    9.0134   -4.7940    0.0000 H   0  0  0  0  0  0  0  0  0  0  0  0
    9.0595   -3.0102    0.0000 H   0  0  0  0  0  0  0  0  0  0  0  0
    5.7194   -1.3007    0.0000 H   0  0  0  0  0  0  0  0  0  0  0  0
    6.2129    2.0174    0.0000 H   0  0  0  0  0  0  0  0  0  0  0  0
    4.1720    3.7794    0.0000 H   0  0  0  0  0  0  0  0  0  0  0  0
    5.6938    2.8475    0.0000 H   0  0  0  0  0  0  0  0  0  0  0  0
    1.3554    1.8435    0.0000 H   0  0  0  0  0  0  0  0  0  0  0  0
    2.5699    0.7506    0.0000 H   0  0  0  0  0  0  0  0  0  0  0  0
    2.2430    4.9856    0.0000 H   0  0  0  0  0  0  0  0  0  0  0  0
    3.3204    4.2317    0.0000 H   0  0  0  0  0  0  0  0  0  0  0  0
   -0.8809    2.8887    0.0000 H   0  0  0  0  0  0  0  0  0  0  0  0
    0.2755    1.9695    0.0000 H   0  0  0  0  0  0  0  0  0  0  0  0
   -1.7847    4.6700    0.0000 H   0  0  0  0  0  0  0  0  0  0  0  0
   -1.2046    6.0671    0.0000 H   0  0  0  0  0  0  0  0  0  0  0  0
    1.1049    5.2853    0.0000 H   0  0  0  0  0  0  0  0  0  0  0  0
    2.5512    2.8738    0.0000 H   0  0  0  0  0  0  0  0  0  0  0  0
    2.1356   -0.6588    0.0000 H   0  0  0  0  0  0  0  0  0  0  0  0
    1.3676   -1.9130    0.0000 H   0  0  0  0  0  0  0  0  0  0  0  0
    1.0884   -2.4720    0.0000 H   0  0  0  0  0  0  0  0  0  0  0  0
    0.2322   -3.2263    0.0000 H   0  0  0  0  0  0  0  0  0  0  0  0
   -0.2583   -3.5867    0.0000 H   0  0  0  0  0  0  0  0  0  0  0  0
   -1.5994   -4.1904    0.0000 H   0  0  0  0  0  0  0  0  0  0  0  0
   -2.6066   -4.6632    0.0000 H   0  0  0  0  0  0  0  0  0  0  0  0
    2.2651   -1.7491    0.0000 H   0  0  0  0  0  0  0  0  0  0  0  0
    3.4933   -0.9749    0.0000 H   0  0  0  0  0  0  0  0  0  0  0  0
    3.4015    0.6939    0.0000 H   0  0  0  0  0  0  0  0  0  0  0  0
    2.1023    4.5203    0.0000 H   0  0  0  0  0  0  0  0  0  0  0  0
    1.4072    5.5874    0.0000 H   0  0  0  0  0  0  0  0  0  0  0  0
    0.3509    7.9670    0.0000 H   0  0  0  0  0  0  0  0  0  0  0  0
   -0.8887    7.1637    0.0000 H   0  0  0  0  0  0  0  0  0  0  0  0
    2.3273    8.2565    0.0000 H   0  0  0  0  0  0  0  0  0  0  0  0
   -1.9297    8.0051    0.0000 H   0  0  0  0  0  0  0  0  0  0  0  0
   -3.2159    8.0746    0.0000 H   0  0  0  0  0  0  0  0  0  0  0  0
   -6.0694    8.8802    0.0000 H   0  0  0  0  0  0  0  0  0  0  0  0
   -6.1300    7.2474    0.0000 H   0  0  0  0  0  0  0  0  0  0  0  0
   -1.7098    8.3860    0.0000 H   0  0  0  0  0  0  0  0  0  0  0  0
   -0.5798   10.9885    0.0000 H   0  0  0  0  0  0  0  0  0  0  0  0
   -2.2953   13.4496    0.0000 H   0  0  0  0  0  0  0  0  0  0  0  0
   -5.2844   13.1945    0.0000 H   0  0  0  0  0  0  0  0  0  0  0  0
   -6.5580   10.4783    0.0000 H   0  0  0  0  0  0  0  0  0  0  0  0
   -7.6751    7.0216    0.0000 H   0  0  0  0  0  0  0  0  0  0  0  0
   -8.3774    6.1586    0.0000 H   0  0  0  0  0  0  0  0  0  0  0  0
  -10.7864    4.4299    0.0000 H   0  0  0  0  0  0  0  0  0  0  0  0
   -9.5476    3.3646    0.0000 H   0  0  0  0  0  0  0  0  0  0  0  0
  -12.5635    5.4005    0.0000 H   0  0  0  0  0  0  0  0  0  0  0  0
  -13.0349    8.6297    0.0000 H   0  0  0  0  0  0  0  0  0  0  0  0
  -10.1095   10.0759    0.0000 H   0  0  0  0  0  0  0  0  0  0  0  0
  -10.3344    2.0158    0.0000 H   0  0  0  0  0  0  0  0  0  0  0  0
   -8.7107   -2.2686    0.0000 H   0  0  0  0  0  0  0  0  0  0  0  0
   -9.5345   -1.2522    0.0000 H   0  0  0  0  0  0  0  0  0  0  0  0
   -7.4856   -3.4986    0.0000 H   0  0  0  0  0  0  0  0  0  0  0  0
   -8.3928   -2.8066    0.0000 H   0  0  0  0  0  0  0  0  0  0  0  0
   -5.5906   -4.3312    0.0000 H   0  0  0  0  0  0  0  0  0  0  0  0
   -6.9709   -3.8235    0.0000 H   0  0  0  0  0  0  0  0  0  0  0  0
   -4.5526   -4.7318    0.0000 H   0  0  0  0  0  0  0  0  0  0  0  0
  -11.4217    0.2240    0.0000 H   0  0  0  0  0  0  0  0  0  0  0  0
  -11.1586    1.9889    0.0000 H   0  0  0  0  0  0  0  0  0  0  0  0
   -9.7353    2.3842    0.0000 H   0  0  0  0  0  0  0  0  0  0  0  0
  -11.7731    1.0365    0.0000 H   0  0  0  0  0  0  0  0  0  0  0  0
  -10.8859   -2.2366    0.0000 H   0  0  0  0  0  0  0  0  0  0  0  0
  -12.5987   -4.3189    0.0000 H   0  0  0  0  0  0  0  0  0  0  0  0
  -11.2568   -3.1427    0.0000 H   0  0  0  0  0  0  0  0  0  0  0  0
  -14.8604   -1.6748    0.0000 H   0  0  0  0  0  0  0  0  0  0  0  0
  -16.1706   -4.9697    0.0000 H   0  0  0  0  0  0  0  0  0  0  0  0
  -14.8365   -5.9129    0.0000 H   0  0  0  0  0  0  0  0  0  0  0  0
  -13.3613   -4.9091    0.0000 H   0  0  0  0  0  0  0  0  0  0  0  0
  -16.4637   -1.4316    0.0000 H   0  0  0  0  0  0  0  0  0  0  0  0
  -16.9899   -3.4285    0.0000 H   0  0  0  0  0  0  0  0  0  0  0  0
  -15.9162   -4.1877    0.0000 H   0  0  0  0  0  0  0  0  0  0  0  0
  -14.5312   -3.7241    0.0000 H   0  0  0  0  0  0  0  0  0  0  0  0
  -15.3613   -0.6001    0.0000 H   0  0  0  0  0  0  0  0  0  0  0  0
  -18.8287   -0.7893    0.0000 H   0  0  0  0  0  0  0  0  0  0  0  0
  -18.3911   -2.2001    0.0000 H   0  0  0  0  0  0  0  0  0  0  0  0
  -16.7354    1.7791    0.0000 H   0  0  0  0  0  0  0  0  0  0  0  0
  -15.8100    0.2533    0.0000 H   0  0  0  0  0  0  0  0  0  0  0  0
  -20.0379    1.5103    0.0000 H   0  0  0  0  0  0  0  0  0  0  0  0
  -19.3054   -0.1169    0.0000 H   0  0  0  0  0  0  0  0  0  0  0  0
  -17.1851    3.3886    0.0000 H   0  0  0  0  0  0  0  0  0  0  0  0
  -20.9903    5.7908    0.0000 H   0  0  0  0  0  0  0  0  0  0  0  0
  -18.3942    5.6882    0.0000 H   0  0  0  0  0  0  0  0  0  0  0  0
  -22.3772    3.5939    0.0000 H   0  0  0  0  0  0  0  0  0  0  0  0
  -21.1681    1.2943    0.0000 H   0  0  0  0  0  0  0  0  0  0  0  0
  -19.1969   -1.3377    0.0000 H   0  0  0  0  0  0  0  0  0  0  0  0
  -18.3097   -4.6109    0.0000 H   0  0  0  0  0  0  0  0  0  0  0  0
  -20.2057   -6.6971    0.0000 H   0  0  0  0  0  0  0  0  0  0  0  0
  -18.6806   -5.5170    0.0000 H   0  0  0  0  0  0  0  0  0  0  0  0
  -21.9550   -6.0984    0.0000 H   0  0  0  0  0  0  0  0  0  0  0  0
  -22.9501   -2.8947    0.0000 H   0  0  0  0  0  0  0  0  0  0  0  0
  -25.7048   -2.2959    0.0000 H   0  0  0  0  0  0  0  0  0  0  0  0
  -23.7780   -2.3721    0.0000 H   0  0  0  0  0  0  0  0  0  0  0  0
  -27.3828   -3.3795    0.0000 H   0  0  0  0  0  0  0  0  0  0  0  0
  -26.6207   -3.7120    0.0000 H   0  0  0  0  0  0  0  0  0  0  0  0
  -25.7335   -6.9851    0.0000 H   0  0  0  0  0  0  0  0  0  0  0  0
  -27.6295   -9.0714    0.0000 H   0  0  0  0  0  0  0  0  0  0  0  0
  -26.1044   -7.8912    0.0000 H   0  0  0  0  0  0  0  0  0  0  0  0
  -29.6249   -9.1626    0.0000 H   0  0  0  0  0  0  0  0  0  0  0  0
  -30.5223   -7.4558    0.0000 H   0  0  0  0  0  0  0  0  0  0  0  0
  -29.5384   -6.3540    0.0000 H   0  0  0  0  0  0  0  0  0  0  0  0
  1  2  1  0
  2  3  1  0
  3  4  2  0
  4  5  1  0
  5  6  2  0
  6  7  1  0
  7  8  2  0
  7  9  1  0
  9 10  1  0
 10 11  1  0
 11 12  2  0
  9 13  1  0
 13 14  1  0
 14 15  2  0
 15 16  1  0
 16 17  2  0
 17 18  1  0
 16 19  1  0
 14 20  1  0
 20 21  1  0
 21 22  2  0
 22 23  1  0
 23 24  2  0
 24 25  1  0
 25 26  2  0
 25 27  1  0
  1 28  2  0
  1 29  1  0
 29 30  1  0
 30 31  1  0
 31 32  1  0
 32 33  2  0
 32 34  1  0
 34 35  1  0
 35 36  1  0
 36 37  1  0
 37 38  2  0
 37 39  1  0
 35 40  1  0
 40 41  2  0
 40 42  1  0
 42 43  1  0
 43 44  1  0
 44 45  1  0
 45 46  2  0
 46 47  1  0
 47 48  1  0
 48 49  2  0
 43 50  1  0
 50 51  2  0
 50 52  1  0
 52 53  1  0
 53 54  1  0
 54 55  1  0
 54 56  1  0
 56 57  1  0
 53 58  1  0
 58 59  2  0
 58 60  1  0
 60 61  1  0
 61 62  1  0
 62 63  1  0
 63 64  1  0
 64 65  1  0
 65 66  1  0
 61 67  1  0
 67 68  2  0
 67 69  1  0
 70 69  1  1
 70 71  1  0
 71 72  1  0
 72 73  1  0
 73 74  1  0
 70 75  1  0
 70 76  1  0
 76 77  2  0
 76 78  1  0
 78 79  1  0
 79 80  1  0
 80 81  1  0
 79 82  1  0
 82 83  2  0
 82 84  1  0
 84 85  1  0
 85 86  1  0
 86 87  1  0
 87 88  2  0
 88 89  1  0
 89 90  2  0
 90 91  1  0
 91 92  2  0
 85 93  1  0
 93 94  2  0
 93 95  1  0
 95 96  1  0
 96 97  1  0
 97 98  1  0
 98 99  2  0
 99100  1  0
100101  1  0
101102  2  0
 96103  1  0
103104  2  0
103105  1  0
105106  1  0
106107  1  0
107108  1  0
108109  1  0
109110  1  0
106111  1  0
106112  1  1
112113  2  0
112114  1  0
114115  1  0
115116  1  0
116117  1  0
117118  1  0
117119  1  0
115120  1  0
120121  2  0
120122  1  0
122123  1  0
123124  1  0
124125  1  0
125126  1  0
126127  1  0
127128  1  0
128129  2  3
128130  1  0
123131  1  0
131132  2  0
131133  1  0
133134  1  0
134135  1  0
135136  1  0
136137  2  0
136138  1  0
134139  1  0
139140  2  0
139141  1  0
141142  1  0
142143  1  0
143144  1  0
142145  1  0
145146  2  0
145147  1  0
147148  1  0
148149  1  0
149150  1  0
148151  1  0
151152  2  0
151153  1  0
  8  3  1  0
 49 45  1  0
 92 87  1  0
102 98  1  0
 11  6  1  0
 74110  2  0
 18 13  2  0
 22  9  1  0
 26 21  1  0
  2154  1  0
  4155  1  0
  5156  1  0
  8157  1  0
 15158  1  0
 17159  1  0
 18160  1  0
 19161  1  0
 23162  1  0
 24163  1  0
 26164  1  0
 27165  1  0
 29166  1  0
 30167  1  0
 30168  1  0
 31169  1  0
 31170  1  0
 34171  1  0
 35172  1  1
 36173  1  0
 36174  1  0
 42175  1  0
 43176  1  6
 44177  1  0
 44178  1  0
 46179  1  0
 47180  1  0
 48181  1  0
 52182  1  0
 53183  1  1
 54184  1  1
 55185  1  0
 55186  1  0
 55187  1  0
 56188  1  0
 56189  1  0
 57190  1  0
 57191  1  0
 57192  1  0
 60193  1  0
 61194  1  6
 62195  1  0
 62196  1  0
 63197  1  0
 63198  1  0
 64199  1  0
 64200  1  0
 65201  1  0
 65202  1  0
 66203  1  0
 66204  1  0
 66205  1  0
 69206  1  0
 71207  1  0
 71208  1  0
 72209  1  0
 72210  1  0
 73211  1  0
 73212  1  0
 74213  1  0
 75214  1  0
 75215  1  0
 75216  1  0
 78217  1  0
 79218  1  6
 80219  1  0
 80220  1  0
 81221  1  0
 84222  1  0
 85223  1  6
 86224  1  0
 86225  1  0
 88226  1  0
 89227  1  0
 90228  1  0
 91229  1  0
 92230  1  0
 95231  1  0
 96232  1  6
 97233  1  0
 97234  1  0
 99235  1  0
100236  1  0
101237  1  0
105238  1  0
107239  1  0
107240  1  0
108241  1  0
108242  1  0
109243  1  0
109244  1  0
110245  1  0
111246  1  0
111247  1  0
111248  1  0
114249  1  0
115250  1  1
116251  1  0
116252  1  0
117253  1  0
118254  1  0
118255  1  0
118256  1  0
119257  1  0
119258  1  0
119259  1  0
122260  1  0
123261  1  6
124262  1  0
124263  1  0
125264  1  0
125265  1  0
126266  1  0
126267  1  0
127268  1  0
129269  1  0
129270  1  0
130271  1  0
130272  1  0
133273  1  0
134274  1  1
135275  1  0
135276  1  0
141277  1  0
142278  1  6
143279  1  0
143280  1  0
144281  1  0
147282  1  0
148283  1  1
149284  1  0
149285  1  0
150286  1  0
150287  1  0
150288  1  0
M  CHG  5  39  -1  66   1 129   1 138  -1 153  -1
M  END
