
     RDKit          2D

376385  0  0  0  0  0  0  0  0999 V2000
   33.7863   -0.8127    0.0000 C   0  0  0  0  0  0  0  0  0  0  0  0
   35.0877   -0.0668    0.0000 N   0  0  0  0  0  0  0  0  0  0  0  0
   36.3844   -0.8208    0.0000 C   0  0  0  0  0  0  0  0  0  0  0  0
   36.3797   -2.3208    0.0000 C   0  0  0  0  0  0  0  0  0  0  0  0
   37.6764   -3.0748    0.0000 C   0  0  0  0  0  0  0  0  0  0  0  0
   38.9778   -2.3289    0.0000 C   0  0  0  0  0  0  0  0  0  0  0  0
   38.9824   -0.8289    0.0000 C   0  0  0  0  0  0  0  0  0  0  0  0
   37.6857   -0.0748    0.0000 C   0  0  0  0  0  0  0  0  0  0  0  0
   40.4104   -0.3698    0.0000 C   0  0  0  0  0  0  0  0  0  0  0  0
   41.2883   -1.5861    0.0000 O   0  0  0  0  0  0  0  0  0  0  0  0
   40.4029   -2.7968    0.0000 C   0  0  0  0  0  0  0  0  0  0  0  0
   40.8620   -4.2249    0.0000 O   0  0  0  0  0  0  0  0  0  0  0  0
   41.8786   -0.0625    0.0000 C   0  0  0  0  0  0  0  0  0  0  0  0
   42.3466    1.3626    0.0000 C   0  0  0  0  0  0  0  0  0  0  0  0
   43.8148    1.6699    0.0000 C   0  0  0  0  0  0  0  0  0  0  0  0
   44.8150    0.5521    0.0000 C   0  0  0  0  0  0  0  0  0  0  0  0
   44.3470   -0.8730    0.0000 C   0  0  0  0  0  0  0  0  0  0  0  0
   42.8789   -1.1803    0.0000 C   0  0  0  0  0  0  0  0  0  0  0  0
   46.2832    0.8594    0.0000 O   0  0  0  0  0  0  0  0  0  0  0  0
   41.3464    2.4805    0.0000 O   0  0  0  0  0  0  0  0  0  0  0  0
   39.8782    2.1732    0.0000 C   0  0  0  0  0  0  0  0  0  0  0  0
   39.4102    0.7480    0.0000 C   0  0  0  0  0  0  0  0  0  0  0  0
   38.1604    1.1058    0.0000 C   0  0  0  0  0  0  0  0  0  0  0  0
   37.6270    1.7020    0.0000 C   0  0  0  0  0  0  0  0  0  0  0  0
   37.8766    2.4621    0.0000 C   0  0  0  0  0  0  0  0  0  0  0  0
   38.6596    2.6259    0.0000 C   0  0  0  0  0  0  0  0  0  0  0  0
   36.4096    4.1015    0.0000 O   0  0  0  0  0  0  0  0  0  0  0  0
   33.7816   -2.3127    0.0000 S   0  0  0  0  0  0  0  0  0  0  0  0
   32.4896   -0.0587    0.0000 N   0  0  0  0  0  0  0  0  0  0  0  0
   31.1882   -0.8046    0.0000 C   0  0  0  0  0  0  0  0  0  0  0  0
   29.8915   -0.0506    0.0000 C   0  0  0  0  0  0  0  0  0  0  0  0
   28.5902   -0.7965    0.0000 C   0  0  0  0  0  0  0  0  0  0  0  0
   28.5855   -2.2965    0.0000 O   0  0  0  0  0  0  0  0  0  0  0  0
   27.2935   -0.0425    0.0000 N   0  0  0  0  0  0  0  0  0  0  0  0
   25.9921   -0.7885    0.0000 C   0  0  0  0  0  0  0  0  0  0  0  0
   25.0244   -1.9345    0.0000 C   0  0  0  0  0  0  0  0  0  0  0  0
   23.5480   -1.6695    0.0000 C   0  0  0  0  0  0  0  0  0  0  0  0
   22.5802   -2.8155    0.0000 C   0  0  0  0  0  0  0  0  0  0  0  0
   21.1038   -2.5504    0.0000 N   0  0  0  0  0  0  0  0  0  0  0  0
   20.1361   -3.6965    0.0000 C   0  0  0  0  0  0  0  0  0  0  0  0
   18.6597   -3.4314    0.0000 N   0  0  0  0  0  0  0  0  0  0  0  0
   20.6447   -5.1076    0.0000 N   0  0  0  0  0  0  0  0  0  0  0  0
   24.6954   -0.0344    0.0000 C   0  0  0  0  0  0  0  0  0  0  0  0
   24.7001    1.4656    0.0000 O   0  0  0  0  0  0  0  0  0  0  0  0
   23.3940   -0.7804    0.0000 N   0  0  0  0  0  0  0  0  0  0  0  0
   22.0973   -0.0263    0.0000 C   0  0  0  0  0  0  0  0  0  0  0  0
   21.1367    1.1257    0.0000 C   0  0  0  0  0  0  0  0  0  0  0  0
   21.6542    2.5337    0.0000 C   0  0  0  0  0  0  0  0  0  0  0  0
   20.6936    3.6857    0.0000 C   0  0  0  0  0  0  0  0  0  0  0  0
   21.2110    5.0937    0.0000 N   0  0  0  0  0  0  0  0  0  0  0  0
   19.2155    3.4298    0.0000 O   0  0  0  0  0  0  0  0  0  0  0  0
   20.7960   -0.7723    0.0000 C   0  0  0  0  0  0  0  0  0  0  0  0
   20.5281   -1.8325    0.0000 O   0  0  0  0  0  0  0  0  0  0  0  0
   19.4993   -0.0183    0.0000 N   0  0  0  0  0  0  0  0  0  0  0  0
   18.1979   -0.7642    0.0000 C   0  0  0  0  0  0  0  0  0  0  0  0
   17.2302   -1.9103    0.0000 C   0  0  0  0  0  0  0  0  0  0  0  0
   15.7538   -1.6452    0.0000 C   0  0  0  0  0  0  0  0  0  0  0  0
   16.7128   -3.3182    0.0000 C   0  0  0  0  0  0  0  0  0  0  0  0
   15.2347   -3.5741    0.0000 C   0  0  0  0  0  0  0  0  0  0  0  0
   16.9012   -0.0102    0.0000 C   0  0  0  0  0  0  0  0  0  0  0  0
   16.9059    1.4898    0.0000 O   0  0  0  0  0  0  0  0  0  0  0  0
   15.5999   -0.7561    0.0000 N   0  0  0  0  0  0  0  0  0  0  0  0
   14.3032   -0.0021    0.0000 C   0  0  0  0  0  0  0  0  0  0  0  0
   13.3426    1.1500    0.0000 C   0  0  0  0  0  0  0  0  0  0  0  0
   13.8600    2.5579    0.0000 C   0  0  0  0  0  0  0  0  0  0  0  0
   12.8994    3.7100    0.0000 C   0  0  0  0  0  0  0  0  0  0  0  0
   13.4168    5.1179    0.0000 C   0  0  0  0  0  0  0  0  0  0  0  0
   12.4562    6.2700    0.0000 N   0  0  0  0  0  0  0  0  0  0  0  0
   13.0018   -0.7480    0.0000 C   0  0  0  0  0  0  0  0  0  0  0  0
   12.9971   -2.2480    0.0000 O   0  0  0  0  0  0  0  0  0  0  0  0
   11.7051    0.0060    0.0000 N   0  0  0  0  0  0  0  0  0  0  0  0
   10.4037   -0.7400    0.0000 C   0  0  0  0  0  0  0  0  0  0  0  0
    9.4360   -1.8860    0.0000 C   0  0  0  0  0  0  0  0  0  0  0  0
    7.9383   -1.8029    0.0000 C   0  0  0  0  0  0  0  0  0  0  0  0
    8.9186   -3.2940    0.0000 C   0  0  0  0  0  0  0  0  0  0  0  0
    9.8792   -4.4460    0.0000 C   0  0  0  0  0  0  0  0  0  0  0  0
    9.1070    0.0141    0.0000 C   0  0  0  0  0  0  0  0  0  0  0  0
    9.2945    1.5023    0.0000 O   0  0  0  0  0  0  0  0  0  0  0  0
    7.8057   -0.7319    0.0000 N   0  0  0  0  0  0  0  0  0  0  0  0
    6.5090    0.0222    0.0000 C   0  0  0  0  0  0  0  0  0  0  0  0
    5.5484    1.1742    0.0000 C   0  0  0  0  0  0  0  0  0  0  0  0
    6.0658    2.5822    0.0000 C   0  0  0  0  0  0  0  0  0  0  0  0
    7.5090    2.9911    0.0000 C   0  0  0  0  0  0  0  0  0  0  0  0
    7.5660    4.4900    0.0000 N   0  0  0  0  0  0  0  0  0  0  0  0
    6.1580    5.0075    0.0000 C   0  0  0  0  0  0  0  0  0  0  0  0
    5.6004    6.4000    0.0000 C   0  0  0  0  0  0  0  0  0  0  0  0
    4.1157    6.6134    0.0000 C   0  0  0  0  0  0  0  0  0  0  0  0
    3.1885    5.4342    0.0000 C   0  0  0  0  0  0  0  0  0  0  0  0
    3.7461    4.0417    0.0000 C   0  0  0  0  0  0  0  0  0  0  0  0
    5.2309    3.8283    0.0000 C   0  0  0  0  0  0  0  0  0  0  0  0
    5.2076   -0.7238    0.0000 C   0  0  0  0  0  0  0  0  0  0  0  0
    5.2029   -2.2238    0.0000 O   0  0  0  0  0  0  0  0  0  0  0  0
    3.9109    0.0302    0.0000 N   0  0  0  0  0  0  0  0  0  0  0  0
    2.6095   -0.7157    0.0000 C   0  0  0  0  0  0  0  0  0  0  0  0
    1.6418   -1.8618    0.0000 C   0  0  0  0  0  0  0  0  0  0  0  0
    0.1654   -1.5967    0.0000 C   0  0  0  0  0  0  0  0  0  0  0  0
   -0.3433   -0.1856    0.0000 C   0  0  0  0  0  0  0  0  0  0  0  0
   -1.8196    0.0795    0.0000 C   0  0  0  0  0  0  0  0  0  0  0  0
   -2.7874   -1.0666    0.0000 C   0  0  0  0  0  0  0  0  0  0  0  0
   -2.2788   -2.4777    0.0000 C   0  0  0  0  0  0  0  0  0  0  0  0
   -0.8024   -2.7428    0.0000 C   0  0  0  0  0  0  0  0  0  0  0  0
    1.3128    0.0383    0.0000 C   0  0  0  0  0  0  0  0  0  0  0  0
    1.5003    1.5266    0.0000 O   0  0  0  0  0  0  0  0  0  0  0  0
    0.0115   -0.7076    0.0000 N   0  0  0  0  0  0  0  0  0  0  0  0
   -1.2852    0.0464    0.0000 C   0  0  0  0  0  0  0  0  0  0  0  0
   -2.2458    1.1985    0.0000 C   0  0  0  0  0  0  0  0  0  0  0  0
   -1.7284    2.6064    0.0000 C   0  0  0  0  0  0  0  0  0  0  0  0
   -2.6890    3.7585    0.0000 C   0  0  0  0  0  0  0  0  0  0  0  0
   -2.1716    5.1664    0.0000 N   0  0  0  0  0  0  0  0  0  0  0  0
   -4.1670    3.5026    0.0000 O   0  0  0  0  0  0  0  0  0  0  0  0
   -2.5866   -0.6995    0.0000 C   0  0  0  0  0  0  0  0  0  0  0  0
   -2.9541   -2.1538    0.0000 O   0  0  0  0  0  0  0  0  0  0  0  0
   -3.8833    0.0545    0.0000 N   0  0  0  0  0  0  0  0  0  0  0  0
   -5.1847   -0.6915    0.0000 C   0  0  0  0  0  0  0  0  0  0  0  0
   -6.1524   -1.8375    0.0000 C   0  0  0  0  0  0  0  0  0  0  0  0
   -7.6288   -1.5725    0.0000 C   0  0  0  0  0  0  0  0  0  0  0  0
   -8.5966   -2.7185    0.0000 N   0  0  0  0  0  0  0  0  0  0  0  0
   -8.4638   -0.3263    0.0000 O   0  0  0  0  0  0  0  0  0  0  0  0
   -6.4814    0.0626    0.0000 C   0  0  0  0  0  0  0  0  0  0  0  0
   -6.4767    1.5626    0.0000 O   0  0  0  0  0  0  0  0  0  0  0  0
   -7.7827   -0.6834    0.0000 N   0  0  0  0  0  0  0  0  0  0  0  0
   -9.0794    0.0707    0.0000 C   0  0  0  0  0  0  0  0  0  0  0  0
  -10.0400    1.2227    0.0000 C   0  0  0  0  0  0  0  0  0  0  0  0
  -11.5180    0.9669    0.0000 C   0  0  0  0  0  0  0  0  0  0  0  0
  -12.4786    2.1189    0.0000 C   0  0  0  0  0  0  0  0  0  0  0  0
  -13.9566    1.8630    0.0000 N   0  0  0  0  0  0  0  0  0  0  0  0
  -14.9172    3.0151    0.0000 C   0  0  0  0  0  0  0  0  0  0  0  0
  -16.3531    2.5810    0.0000 N   0  0  0  0  0  0  0  0  0  0  0  0
  -14.3998    4.4230    0.0000 N   0  0  0  0  0  0  0  0  0  0  0  0
  -10.3808   -0.6753    0.0000 C   0  0  0  0  0  0  0  0  0  0  0  0
  -10.5683   -2.1635    0.0000 O   0  0  0  0  0  0  0  0  0  0  0  0
  -11.6775    0.0787    0.0000 N   0  0  0  0  0  0  0  0  0  0  0  0
  -12.9788   -0.6672    0.0000 C   0  0  0  0  0  0  0  0  0  0  0  0
  -13.9466   -1.8133    0.0000 C   0  0  0  0  0  0  0  0  0  0  0  0
  -15.4230   -1.5482    0.0000 C   0  0  0  0  0  0  0  0  0  0  0  0
  -16.3907   -2.6943    0.0000 C   0  0  0  0  0  0  0  0  0  0  0  0
  -17.8671   -2.4292    0.0000 N   0  0  0  0  0  0  0  0  0  0  0  0
  -18.8349   -3.5753    0.0000 C   0  0  0  0  0  0  0  0  0  0  0  0
  -20.2680   -3.1322    0.0000 N   0  0  0  0  0  0  0  0  0  0  0  0
  -18.3262   -4.9864    0.0000 N   0  0  0  0  0  0  0  0  0  0  0  0
  -14.2755    0.0868    0.0000 C   0  0  0  0  0  0  0  0  0  0  0  0
  -14.6340    1.5434    0.0000 O   0  0  0  0  0  0  0  0  0  0  0  0
  -15.5769   -0.6591    0.0000 N   0  0  0  0  0  0  0  0  0  0  0  0
  -16.8736    0.0949    0.0000 C   0  0  0  0  0  0  0  0  0  0  0  0
  -17.8342    1.2470    0.0000 C   0  0  0  0  0  0  0  0  0  0  0  0
  -19.3122    0.9911    0.0000 C   0  0  0  0  0  0  0  0  0  0  0  0
  -20.2728    2.1432    0.0000 S   0  0  0  0  0  0  0  0  0  0  0  0
  -21.7710    2.0694    0.0000 C   0  0  0  0  0  0  0  0  0  0  0  0
  -18.1750   -0.6510    0.0000 C   0  0  0  0  0  0  0  0  0  0  0  0
  -18.5425   -2.1053    0.0000 O   0  0  0  0  0  0  0  0  0  0  0  0
  -19.4717    0.1030    0.0000 N   0  0  0  0  0  0  0  0  0  0  0  0
  -20.7730   -0.6430    0.0000 C   0  0  0  0  0  0  0  0  0  0  0  0
  -21.7408   -1.7890    0.0000 C   0  0  0  0  0  0  0  0  0  0  0  0
  -23.2172   -1.5239    0.0000 C   0  0  0  0  0  0  0  0  0  0  0  0
  -24.1849   -2.6700    0.0000 C   0  0  0  0  0  0  0  0  0  0  0  0
  -25.6613   -2.4049    0.0000 C   0  0  0  0  0  0  0  0  0  0  0  0
  -26.6291   -3.5510    0.0000 N   0  0  0  0  0  0  0  0  0  0  0  0
  -22.0697    0.1111    0.0000 C   0  0  0  0  0  0  0  0  0  0  0  0
  -22.2479    1.6005    0.0000 O   0  0  0  0  0  0  0  0  0  0  0  0
  -23.3711   -0.6349    0.0000 N   0  0  0  0  0  0  0  0  0  0  0  0
  -24.6678    0.1192    0.0000 C   0  0  0  0  0  0  0  0  0  0  0  0
  -25.6284    1.2712    0.0000 C   0  0  0  0  0  0  0  0  0  0  0  0
  -27.1064    1.0154    0.0000 C   0  0  0  0  0  0  0  0  0  0  0  0
  -27.7682   -0.3308    0.0000 C   0  0  0  0  0  0  0  0  0  0  0  0
  -29.2529   -0.1174    0.0000 N   0  0  0  0  0  0  0  0  0  0  0  0
  -29.5088    1.3606    0.0000 C   0  0  0  0  0  0  0  0  0  0  0  0
  -30.7784    2.1594    0.0000 C   0  0  0  0  0  0  0  0  0  0  0  0
  -30.7214    3.6584    0.0000 C   0  0  0  0  0  0  0  0  0  0  0  0
  -29.3948    4.3584    0.0000 C   0  0  0  0  0  0  0  0  0  0  0  0
  -28.1252    3.5596    0.0000 C   0  0  0  0  0  0  0  0  0  0  0  0
  -28.1822    2.0607    0.0000 C   0  0  0  0  0  0  0  0  0  0  0  0
  -25.9692   -0.6268    0.0000 C   0  0  0  0  0  0  0  0  0  0  0  0
  -26.3366   -2.0811    0.0000 O   0  0  0  0  0  0  0  0  0  0  0  0
  -27.2659    0.1273    0.0000 N   0  0  0  0  0  0  0  0  0  0  0  0
  -28.5672   -0.6187    0.0000 C   0  0  0  0  0  0  0  0  0  0  0  0
  -29.5350   -1.7648    0.0000 C   0  0  0  0  0  0  0  0  0  0  0  0
  -31.0114   -1.4997    0.0000 C   0  0  0  0  0  0  0  0  0  0  0  0
  -31.9791   -2.6458    0.0000 C   0  0  0  0  0  0  0  0  0  0  0  0
  -33.4555   -2.3807    0.0000 C   0  0  0  0  0  0  0  0  0  0  0  0
  -34.4233   -3.5268    0.0000 N   0  0  0  0  0  0  0  0  0  0  0  0
  -29.8639    0.1353    0.0000 C   0  0  0  0  0  0  0  0  0  0  0  0
  -30.2224    1.5919    0.0000 O   0  0  0  0  0  0  0  0  0  0  0  0
  -31.1653   -0.6106    0.0000 N   0  0  0  0  0  0  0  0  0  0  0  0
  -32.4620    0.1434    0.0000 C   0  0  0  0  0  0  0  0  0  0  0  0
  -33.4226    1.2955    0.0000 C   0  0  0  0  0  0  0  0  0  0  0  0
  -34.9006    1.0396    0.0000 C   0  0  0  0  0  0  0  0  0  0  0  0
  -35.8612    2.1917    0.0000 C   0  0  0  0  0  0  0  0  0  0  0  0
  -37.3392    1.9358    0.0000 C   0  0  0  0  0  0  0  0  0  0  0  0
  -38.2998    3.0879    0.0000 N   0  0  0  0  0  0  0  0  0  0  0  0
  -33.7634   -0.6025    0.0000 C   0  0  0  0  0  0  0  0  0  0  0  0
  -35.1423   -0.0122    0.0000 O   0  0  0  0  0  0  0  0  0  0  0  0
  -34.1308   -2.0568    0.0000 O   0  0  0  0  0  0  0  0  0  0  0  0
   34.9095    1.4226    0.0000 H   0  0  0  0  0  0  0  0  0  0  0  0
   35.0783   -3.0667    0.0000 H   0  0  0  0  0  0  0  0  0  0  0  0
   37.6717   -4.5748    0.0000 H   0  0  0  0  0  0  0  0  0  0  0  0
   37.3273    1.3817    0.0000 H   0  0  0  0  0  0  0  0  0  0  0  0
   44.2827    3.0951    0.0000 H   0  0  0  0  0  0  0  0  0  0  0  0
   45.3473   -1.9909    0.0000 H   0  0  0  0  0  0  0  0  0  0  0  0
   42.4109   -2.6055    0.0000 H   0  0  0  0  0  0  0  0  0  0  0  0
   47.2834   -0.2584    0.0000 H   0  0  0  0  0  0  0  0  0  0  0  0
   37.4741   -0.9844    0.0000 H   0  0  0  0  0  0  0  0  0  0  0  0
   35.4471    1.4325    0.0000 H   0  0  0  0  0  0  0  0  0  0  0  0
   39.3459    4.7161    0.0000 H   0  0  0  0  0  0  0  0  0  0  0  0
   36.8775    5.5267    0.0000 H   0  0  0  0  0  0  0  0  0  0  0  0
   32.4943    1.4413    0.0000 H   0  0  0  0  0  0  0  0  0  0  0  0
   30.2205   -1.9507    0.0000 H   0  0  0  0  0  0  0  0  0  0  0  0
   32.1488   -1.9567    0.0000 H   0  0  0  0  0  0  0  0  0  0  0  0
   28.9309    1.1015    0.0000 H   0  0  0  0  0  0  0  0  0  0  0  0
   30.8593    1.0955    0.0000 H   0  0  0  0  0  0  0  0  0  0  0  0
   27.2981    1.4575    0.0000 H   0  0  0  0  0  0  0  0  0  0  0  0
   26.9527   -1.9405    0.0000 H   0  0  0  0  0  0  0  0  0  0  0  0
   24.6824   -3.3950    0.0000 H   0  0  0  0  0  0  0  0  0  0  0  0
   26.3211   -2.6886    0.0000 H   0  0  0  0  0  0  0  0  0  0  0  0
   22.2513   -0.9154    0.0000 H   0  0  0  0  0  0  0  0  0  0  0  0
   23.3437   -0.1834    0.0000 H   0  0  0  0  0  0  0  0  0  0  0  0
   22.0628   -4.2235    0.0000 H   0  0  0  0  0  0  0  0  0  0  0  0
   23.7753   -3.7220    0.0000 H   0  0  0  0  0  0  0  0  0  0  0  0
   20.2688   -1.3043    0.0000 H   0  0  0  0  0  0  0  0  0  0  0  0
   17.6919   -4.5775    0.0000 H   0  0  0  0  0  0  0  0  0  0  0  0
   19.6770   -6.2537    0.0000 H   0  0  0  0  0  0  0  0  0  0  0  0
   22.1211   -5.3727    0.0000 H   0  0  0  0  0  0  0  0  0  0  0  0
   23.0266   -2.2347    0.0000 H   0  0  0  0  0  0  0  0  0  0  0  0
   23.1976    0.9932    0.0000 H   0  0  0  0  0  0  0  0  0  0  0  0
   19.9416    2.0322    0.0000 H   0  0  0  0  0  0  0  0  0  0  0  0
   19.9204    0.2479    0.0000 H   0  0  0  0  0  0  0  0  0  0  0  0
   22.6219    3.6797    0.0000 H   0  0  0  0  0  0  0  0  0  0  0  0
   23.0331    1.9433    0.0000 H   0  0  0  0  0  0  0  0  0  0  0  0
   20.2504    6.2457    0.0000 H   0  0  0  0  0  0  0  0  0  0  0  0
   22.6890    5.3495    0.0000 H   0  0  0  0  0  0  0  0  0  0  0  0
   19.3211    1.4711    0.0000 H   0  0  0  0  0  0  0  0  0  0  0  0
   19.1585   -1.9163    0.0000 H   0  0  0  0  0  0  0  0  0  0  0  0
   18.6091   -2.5006    0.0000 H   0  0  0  0  0  0  0  0  0  0  0  0
   14.6322   -2.6581    0.0000 H   0  0  0  0  0  0  0  0  0  0  0  0
   14.4571   -0.8912    0.0000 H   0  0  0  0  0  0  0  0  0  0  0  0
   15.5495   -0.1592    0.0000 H   0  0  0  0  0  0  0  0  0  0  0  0
   16.7081   -4.8182    0.0000 H   0  0  0  0  0  0  0  0  0  0  0  0
   18.1458   -3.7613    0.0000 H   0  0  0  0  0  0  0  0  0  0  0  0
   14.7173   -4.9820    0.0000 H   0  0  0  0  0  0  0  0  0  0  0  0
   13.7583   -3.3090    0.0000 H   0  0  0  0  0  0  0  0  0  0  0  0
   15.0565   -2.0847    0.0000 H   0  0  0  0  0  0  0  0  0  0  0  0
   15.5952   -2.2561    0.0000 H   0  0  0  0  0  0  0  0  0  0  0  0
   15.4034    1.0175    0.0000 H   0  0  0  0  0  0  0  0  0  0  0  0
   12.0459    1.9040    0.0000 H   0  0  0  0  0  0  0  0  0  0  0  0
   12.1262    0.2721    0.0000 H   0  0  0  0  0  0  0  0  0  0  0  0
   14.9602    3.5775    0.0000 H   0  0  0  0  0  0  0  0  0  0  0  0
   15.2389    1.9676    0.0000 H   0  0  0  0  0  0  0  0  0  0  0  0
   11.6027    4.4640    0.0000 H   0  0  0  0  0  0  0  0  0  0  0  0
   11.7991    2.6904    0.0000 H   0  0  0  0  0  0  0  0  0  0  0  0
   14.3845    6.2640    0.0000 H   0  0  0  0  0  0  0  0  0  0  0  0
   14.7957    4.5276    0.0000 H   0  0  0  0  0  0  0  0  0  0  0  0
   12.9736    7.6779    0.0000 H   0  0  0  0  0  0  0  0  0  0  0  0
   10.9782    6.0141    0.0000 H   0  0  0  0  0  0  0  0  0  0  0  0
   11.5269    1.4954    0.0000 H   0  0  0  0  0  0  0  0  0  0  0  0
   11.3643   -1.8920    0.0000 H   0  0  0  0  0  0  0  0  0  0  0  0
   10.8149   -2.4764    0.0000 H   0  0  0  0  0  0  0  0  0  0  0  0
    6.8593   -2.6405    0.0000 H   0  0  0  0  0  0  0  0  0  0  0  0
    6.6629   -0.8669    0.0000 H   0  0  0  0  0  0  0  0  0  0  0  0
    7.7553   -0.1349    0.0000 H   0  0  0  0  0  0  0  0  0  0  0  0
    7.9508   -4.4400    0.0000 H   0  0  0  0  0  0  0  0  0  0  0  0
    7.4779   -2.8761    0.0000 H   0  0  0  0  0  0  0  0  0  0  0  0
    9.3618   -5.8540    0.0000 H   0  0  0  0  0  0  0  0  0  0  0  0
   11.1759   -5.2001    0.0000 H   0  0  0  0  0  0  0  0  0  0  0  0
   10.9794   -3.4265    0.0000 H   0  0  0  0  0  0  0  0  0  0  0  0
    7.4382   -2.1862    0.0000 H   0  0  0  0  0  0  0  0  0  0  0  0
    7.4767    1.1682    0.0000 H   0  0  0  0  0  0  0  0  0  0  0  0
    4.3533    2.0807    0.0000 H   0  0  0  0  0  0  0  0  0  0  0  0
    4.3321    0.2964    0.0000 H   0  0  0  0  0  0  0  0  0  0  0  0
    8.7923    2.2146    0.0000 H   0  0  0  0  0  0  0  0  0  0  0  0
    8.8121    5.3250    0.0000 H   0  0  0  0  0  0  0  0  0  0  0  0
    6.5276    7.5791    0.0000 H   0  0  0  0  0  0  0  0  0  0  0  0
    3.5581    8.0059    0.0000 H   0  0  0  0  0  0  0  0  0  0  0  0
    1.7038    5.6476    0.0000 H   0  0  0  0  0  0  0  0  0  0  0  0
    2.8190    2.8626    0.0000 H   0  0  0  0  0  0  0  0  0  0  0  0
    3.7327    1.5196    0.0000 H   0  0  0  0  0  0  0  0  0  0  0  0
    3.5701   -1.8678    0.0000 H   0  0  0  0  0  0  0  0  0  0  0  0
    1.1244   -3.2697    0.0000 H   0  0  0  0  0  0  0  0  0  0  0  0
    2.9385   -2.6158    0.0000 H   0  0  0  0  0  0  0  0  0  0  0  0
    0.4776    1.0699    0.0000 H   0  0  0  0  0  0  0  0  0  0  0  0
   -2.6546    1.3256    0.0000 H   0  0  0  0  0  0  0  0  0  0  0  0
   -4.2638   -0.8015    0.0000 H   0  0  0  0  0  0  0  0  0  0  0  0
   -3.2465   -3.6238    0.0000 H   0  0  0  0  0  0  0  0  0  0  0  0
   -0.2937   -4.1539    0.0000 H   0  0  0  0  0  0  0  0  0  0  0  0
   -0.3560   -2.1619    0.0000 H   0  0  0  0  0  0  0  0  0  0  0  0
   -0.1850    1.0660    0.0000 H   0  0  0  0  0  0  0  0  0  0  0  0
   -3.4409    2.1050    0.0000 H   0  0  0  0  0  0  0  0  0  0  0  0
   -3.4621    0.3206    0.0000 H   0  0  0  0  0  0  0  0  0  0  0  0
   -0.7607    3.7525    0.0000 H   0  0  0  0  0  0  0  0  0  0  0  0
   -0.3495    2.0161    0.0000 H   0  0  0  0  0  0  0  0  0  0  0  0
   -3.1322    6.3185    0.0000 H   0  0  0  0  0  0  0  0  0  0  0  0
   -0.6936    5.4223    0.0000 H   0  0  0  0  0  0  0  0  0  0  0  0
   -4.0615    1.5439    0.0000 H   0  0  0  0  0  0  0  0  0  0  0  0
   -4.2241   -1.8435    0.0000 H   0  0  0  0  0  0  0  0  0  0  0  0
   -6.6698   -3.2455    0.0000 H   0  0  0  0  0  0  0  0  0  0  0  0
   -4.8557   -2.5916    0.0000 H   0  0  0  0  0  0  0  0  0  0  0  0
  -10.0942   -2.6354    0.0000 H   0  0  0  0  0  0  0  0  0  0  0  0
   -8.0879   -4.1296    0.0000 H   0  0  0  0  0  0  0  0  0  0  0  0
   -8.1502   -2.1377    0.0000 H   0  0  0  0  0  0  0  0  0  0  0  0
   -8.1117    1.2167    0.0000 H   0  0  0  0  0  0  0  0  0  0  0  0
  -10.3729    2.6853    0.0000 H   0  0  0  0  0  0  0  0  0  0  0  0
   -8.7387    1.9687    0.0000 H   0  0  0  0  0  0  0  0  0  0  0  0
  -12.8194    0.2209    0.0000 H   0  0  0  0  0  0  0  0  0  0  0  0
  -11.7316   -0.5179    0.0000 H   0  0  0  0  0  0  0  0  0  0  0  0
  -12.9873    3.5300    0.0000 H   0  0  0  0  0  0  0  0  0  0  0  0
  -11.2779    3.0179    0.0000 H   0  0  0  0  0  0  0  0  0  0  0  0
  -14.9443    0.7341    0.0000 H   0  0  0  0  0  0  0  0  0  0  0  0
  -17.3559    3.9113    0.0000 H   0  0  0  0  0  0  0  0  0  0  0  0
  -15.3604    5.5751    0.0000 H   0  0  0  0  0  0  0  0  0  0  0  0
  -12.9218    4.6789    0.0000 H   0  0  0  0  0  0  0  0  0  0  0  0
  -12.0359    1.5353    0.0000 H   0  0  0  0  0  0  0  0  0  0  0  0
  -12.0182   -1.8193    0.0000 H   0  0  0  0  0  0  0  0  0  0  0  0
  -14.2885   -3.2738    0.0000 H   0  0  0  0  0  0  0  0  0  0  0  0
  -12.6499   -2.5673    0.0000 H   0  0  0  0  0  0  0  0  0  0  0  0
  -16.7197   -0.7942    0.0000 H   0  0  0  0  0  0  0  0  0  0  0  0
  -15.8069   -0.0982    0.0000 H   0  0  0  0  0  0  0  0  0  0  0  0
  -16.9082   -4.1022    0.0000 H   0  0  0  0  0  0  0  0  0  0  0  0
  -15.1956   -3.6007    0.0000 H   0  0  0  0  0  0  0  0  0  0  0  0
  -18.8478   -1.2942    0.0000 H   0  0  0  0  0  0  0  0  0  0  0  0
  -21.2790   -4.4562    0.0000 H   0  0  0  0  0  0  0  0  0  0  0  0
  -19.2940   -6.1324    0.0000 H   0  0  0  0  0  0  0  0  0  0  0  0
  -16.8499   -5.2515    0.0000 H   0  0  0  0  0  0  0  0  0  0  0  0
  -15.9444   -2.1134    0.0000 H   0  0  0  0  0  0  0  0  0  0  0  0
  -15.9059    1.2410    0.0000 H   0  0  0  0  0  0  0  0  0  0  0  0
  -18.3428    2.6581    0.0000 H   0  0  0  0  0  0  0  0  0  0  0  0
  -16.4516    1.8287    0.0000 H   0  0  0  0  0  0  0  0  0  0  0  0
  -20.5130    0.0921    0.0000 H   0  0  0  0  0  0  0  0  0  0  0  0
  -19.7052   -0.4565    0.0000 H   0  0  0  0  0  0  0  0  0  0  0  0
  -22.7114    3.0393    0.0000 H   0  0  0  0  0  0  0  0  0  0  0  0
  -23.1558    1.3044    0.0000 H   0  0  0  0  0  0  0  0  0  0  0  0
  -21.4403    0.4236    0.0000 H   0  0  0  0  0  0  0  0  0  0  0  0
  -19.8301    1.5595    0.0000 H   0  0  0  0  0  0  0  0  0  0  0  0
  -19.8124   -1.7950    0.0000 H   0  0  0  0  0  0  0  0  0  0  0  0
  -22.0827   -3.2495    0.0000 H   0  0  0  0  0  0  0  0  0  0  0  0
  -20.3618   -2.3794    0.0000 H   0  0  0  0  0  0  0  0  0  0  0  0
  -24.4123   -0.6175    0.0000 H   0  0  0  0  0  0  0  0  0  0  0  0
  -23.4215   -0.0379    0.0000 H   0  0  0  0  0  0  0  0  0  0  0  0
  -24.7023   -4.0779    0.0000 H   0  0  0  0  0  0  0  0  0  0  0  0
  -22.9898   -3.5765    0.0000 H   0  0  0  0  0  0  0  0  0  0  0  0
  -27.1019   -1.9871    0.0000 H   0  0  0  0  0  0  0  0  0  0  0  0
  -25.3194   -0.9444    0.0000 H   0  0  0  0  0  0  0  0  0  0  0  0
  -28.0622   -3.1079    0.0000 H   0  0  0  0  0  0  0  0  0  0  0  0
  -26.1204   -4.9621    0.0000 H   0  0  0  0  0  0  0  0  0  0  0  0
  -23.7386   -2.0892    0.0000 H   0  0  0  0  0  0  0  0  0  0  0  0
  -23.8470    1.3746    0.0000 H   0  0  0  0  0  0  0  0  0  0  0  0
  -26.1370    2.6824    0.0000 H   0  0  0  0  0  0  0  0  0  0  0  0
  -24.3270    2.0172    0.0000 H   0  0  0  0  0  0  0  0  0  0  0  0
  -27.0681   -1.6574    0.0000 H   0  0  0  0  0  0  0  0  0  0  0  0
  -30.5275   -0.9083    0.0000 H   0  0  0  0  0  0  0  0  0  0  0  0
  -32.1050    1.4594    0.0000 H   0  0  0  0  0  0  0  0  0  0  0  0
  -31.9910    4.4572    0.0000 H   0  0  0  0  0  0  0  0  0  0  0  0
  -29.3377    5.8574    0.0000 H   0  0  0  0  0  0  0  0  0  0  0  0
  -26.7986    4.2597    0.0000 H   0  0  0  0  0  0  0  0  0  0  0  0
  -27.6243    1.5838    0.0000 H   0  0  0  0  0  0  0  0  0  0  0  0
  -27.9139   -1.9690    0.0000 H   0  0  0  0  0  0  0  0  0  0  0  0
  -29.8769   -3.2253    0.0000 H   0  0  0  0  0  0  0  0  0  0  0  0
  -28.1560   -2.3551    0.0000 H   0  0  0  0  0  0  0  0  0  0  0  0
  -32.2065   -0.5932    0.0000 H   0  0  0  0  0  0  0  0  0  0  0  0
  -31.2157   -0.0137    0.0000 H   0  0  0  0  0  0  0  0  0  0  0  0
  -32.4965   -4.0537    0.0000 H   0  0  0  0  0  0  0  0  0  0  0  0
  -30.7840   -3.5522    0.0000 H   0  0  0  0  0  0  0  0  0  0  0  0
  -34.7522   -1.6267    0.0000 H   0  0  0  0  0  0  0  0  0  0  0  0
  -33.1136   -0.9202    0.0000 H   0  0  0  0  0  0  0  0  0  0  0  0
  -35.8997   -3.2617    0.0000 H   0  0  0  0  0  0  0  0  0  0  0  0
  -33.9146   -4.9379    0.0000 H   0  0  0  0  0  0  0  0  0  0  0  0
  -31.5328   -2.0649    0.0000 H   0  0  0  0  0  0  0  0  0  0  0  0
  -31.3618    1.1630    0.0000 H   0  0  0  0  0  0  0  0  0  0  0  0
  -33.7554    2.7581    0.0000 H   0  0  0  0  0  0  0  0  0  0  0  0
  -32.2219    2.1945    0.0000 H   0  0  0  0  0  0  0  0  0  0  0  0
  -36.1013    0.1406    0.0000 H   0  0  0  0  0  0  0  0  0  0  0  0
  -34.9316   -0.4601    0.0000 H   0  0  0  0  0  0  0  0  0  0  0  0
  -36.3698    3.6028    0.0000 H   0  0  0  0  0  0  0  0  0  0  0  0
  -34.6605    3.0907    0.0000 H   0  0  0  0  0  0  0  0  0  0  0  0
  -38.6406    1.1898    0.0000 H   0  0  0  0  0  0  0  0  0  0  0  0
  -37.0064    0.4732    0.0000 H   0  0  0  0  0  0  0  0  0  0  0  0
  -39.7778    2.8320    0.0000 H   0  0  0  0  0  0  0  0  0  0  0  0
  -37.7824    4.4958    0.0000 H   0  0  0  0  0  0  0  0  0  0  0  0
  -35.0694   -2.8485    0.0000 H   0  0  0  0  0  0  0  0  0  0  0  0
  1  2  1  0
  2  3  1  0
  3  4  2  0
  4  5  1  0
  5  6  2  0
  6  7  1  0
  7  8  2  0
  7  9  1  0
  9 10  1  0
 10 11  1  0
 11 12  2  0
  9 13  1  0
 13 14  1  0
 14 15  2  0
 15 16  1  0
 16 17  2  0
 17 18  1  0
 16 19  1  0
 14 20  1  0
 20 21  1  0
 21 22  2  0
 22 23  1  0
 23 24  2  0
 24 25  1  0
 25 26  2  0
 25 27  1  0
  1 28  2  0
  1 29  1  0
 29 30  1  0
 30 31  1  0
 31 32  1  0
 32 33  2  0
 32 34  1  0
 34 35  1  0
 35 36  1  0
 36 37  1  0
 37 38  1  0
 38 39  1  0
 39 40  1  0
 40 41  2  3
 40 42  1  0
 35 43  1  0
 43 44  2  0
 43 45  1  0
 45 46  1  0
 46 47  1  0
 47 48  1  0
 48 49  1  0
 49 50  1  0
 49 51  2  0
 46 52  1  0
 52 53  2  0
 52 54  1  0
 54 55  1  0
 55 56  1  0
 56 57  1  0
 56 58  1  0
 58 59  1  0
 55 60  1  0
 60 61  2  0
 60 62  1  0
 62 63  1  0
 63 64  1  0
 64 65  1  0
 65 66  1  0
 66 67  1  0
 67 68  1  0
 63 69  1  0
 69 70  2  0
 69 71  1  0
 71 72  1  0
 72 73  1  0
 73 74  1  0
 73 75  1  0
 75 76  1  0
 72 77  1  0
 77 78  2  0
 77 79  1  0
 79 80  1  0
 80 81  1  0
 81 82  1  0
 82 83  2  0
 83 84  1  0
 84 85  1  0
 85 86  2  0
 86 87  1  0
 87 88  2  0
 88 89  1  0
 89 90  2  0
 80 91  1  0
 91 92  2  0
 91 93  1  0
 93 94  1  0
 94 95  1  0
 95 96  1  0
 96 97  2  0
 97 98  1  0
 98 99  2  0
 99100  1  0
100101  2  0
 94102  1  0
102103  2  0
102104  1  0
104105  1  0
105106  1  0
106107  1  0
107108  1  0
108109  1  0
108110  2  0
105111  1  0
111112  2  0
111113  1  0
113114  1  0
114115  1  0
115116  1  0
116117  1  0
116118  2  0
114119  1  0
119120  2  0
119121  1  0
121122  1  0
122123  1  0
123124  1  0
124125  1  0
125126  1  0
126127  1  0
127128  2  3
127129  1  0
122130  1  0
130131  2  0
130132  1  0
132133  1  0
133134  1  0
134135  1  0
135136  1  0
136137  1  0
137138  1  0
138139  2  3
138140  1  0
133141  1  0
141142  2  0
141143  1  0
143144  1  0
144145  1  0
145146  1  0
146147  1  0
147148  1  0
144149  1  0
149150  2  0
149151  1  0
151152  1  0
152153  1  0
153154  1  0
154155  1  0
155156  1  0
156157  1  0
152158  1  0
158159  2  0
158160  1  0
160161  1  0
161162  1  0
162163  1  0
163164  2  0
164165  1  0
165166  1  0
166167  2  0
167168  1  0
168169  2  0
169170  1  0
170171  2  0
161172  1  0
172173  2  0
172174  1  0
174175  1  0
175176  1  0
176177  1  0
177178  1  0
178179  1  0
179180  1  0
175181  1  0
181182  2  0
181183  1  0
183184  1  0
184185  1  0
185186  1  0
186187  1  0
187188  1  0
188189  1  0
184190  1  0
190191  2  0
190192  1  0
  8  3  1  0
 90 82  1  0
101 96  1  0
171163  1  0
 11  6  1  0
 90 85  1  0
171166  1  0
 18 13  2  0
 22  9  1  0
 26 21  1  0
  2193  1  0
  4194  1  0
  5195  1  0
  8196  1  0
 15197  1  0
 17198  1  0
 18199  1  0
 19200  1  0
 23201  1  0
 24202  1  0
 26203  1  0
 27204  1  0
 29205  1  0
 30206  1  0
 30207  1  0
 31208  1  0
 31209  1  0
 34210  1  0
 35211  1  1
 36212  1  0
 36213  1  0
 37214  1  0
 37215  1  0
 38216  1  0
 38217  1  0
 39218  1  0
 41219  1  0
 42220  1  0
 42221  1  0
 45222  1  0
 46223  1  6
 47224  1  0
 47225  1  0
 48226  1  0
 48227  1  0
 50228  1  0
 50229  1  0
 54230  1  0
 55231  1  1
 56232  1  1
 57233  1  0
 57234  1  0
 57235  1  0
 58236  1  0
 58237  1  0
 59238  1  0
 59239  1  0
 59240  1  0
 62241  1  0
 63242  1  6
 64243  1  0
 64244  1  0
 65245  1  0
 65246  1  0
 66247  1  0
 66248  1  0
 67249  1  0
 67250  1  0
 68251  1  0
 68252  1  0
 71253  1  0
 72254  1  1
 73255  1  1
 74256  1  0
 74257  1  0
 74258  1  0
 75259  1  0
 75260  1  0
 76261  1  0
 76262  1  0
 76263  1  0
 79264  1  0
 80265  1  6
 81266  1  0
 81267  1  0
 83268  1  0
 84269  1  0
 86270  1  0
 87271  1  0
 88272  1  0
 89273  1  0
 93274  1  0
 94275  1  1
 95276  1  0
 95277  1  0
 97278  1  0
 98279  1  0
 99280  1  0
100281  1  0
101282  1  0
104283  1  0
105284  1  6
106285  1  0
106286  1  0
107287  1  0
107288  1  0
109289  1  0
109290  1  0
113291  1  0
114292  1  1
115293  1  0
115294  1  0
117295  1  0
117296  1  0
121297  1  0
122298  1  6
123299  1  0
123300  1  0
124301  1  0
124302  1  0
125303  1  0
125304  1  0
126305  1  0
128306  1  0
129307  1  0
129308  1  0
132309  1  0
133310  1  1
134311  1  0
134312  1  0
135313  1  0
135314  1  0
136315  1  0
136316  1  0
137317  1  0
139318  1  0
140319  1  0
140320  1  0
143321  1  0
144322  1  6
145323  1  0
145324  1  0
146325  1  0
146326  1  0
148327  1  0
148328  1  0
148329  1  0
151330  1  0
152331  1  1
153332  1  0
153333  1  0
154334  1  0
154335  1  0
155336  1  0
155337  1  0
156338  1  0
156339  1  0
157340  1  0
157341  1  0
160342  1  0
161343  1  6
162344  1  0
162345  1  0
164346  1  0
165347  1  0
167348  1  0
168349  1  0
169350  1  0
170351  1  0
174352  1  0
175353  1  1
176354  1  0
176355  1  0
177356  1  0
177357  1  0
178358  1  0
178359  1  0
179360  1  0
179361  1  0
180362  1  0
180363  1  0
183364  1  0
184365  1  6
185366  1  0
185367  1  0
186368  1  0
186369  1  0
187370  1  0
187371  1  0
188372  1  0
188373  1  0
189374  1  0
189375  1  0
192376  1  0
M  END
