
     RDKit          2D

375376  0  0  0  0  0  0  0  0999 V2000
  -30.1100  -15.3933    0.0000 N   0  0  0  0  0  0  0  0  0  0  0  0
  -29.1853  -14.2122    0.0000 C   0  0  0  0  0  0  0  0  0  0  0  0
  -29.7458  -12.8209    0.0000 C   0  0  0  0  0  0  0  0  0  0  0  0
  -28.8212  -11.6398    0.0000 C   0  0  0  0  0  0  0  0  0  0  0  0
  -27.3360  -11.8500    0.0000 O   0  0  0  0  0  0  0  0  0  0  0  0
  -29.3817  -10.2484    0.0000 N   0  0  0  0  0  0  0  0  0  0  0  0
  -28.4571   -9.0673    0.0000 C   0  0  0  0  0  0  0  0  0  0  0  0
  -29.7808   -8.3618    0.0000 C   0  0  0  0  0  0  0  0  0  0  0  0
  -31.1409   -8.9944    0.0000 O   0  0  0  0  0  0  0  0  0  0  0  0
  -27.1842   -8.2737    0.0000 C   0  0  0  0  0  0  0  0  0  0  0  0
  -27.2351   -6.7746    0.0000 O   0  0  0  0  0  0  0  0  0  0  0  0
  -25.8605   -8.9792    0.0000 N   0  0  0  0  0  0  0  0  0  0  0  0
  -24.5877   -8.1856    0.0000 C   0  0  0  0  0  0  0  0  0  0  0  0
  -24.0271   -9.5769    0.0000 C   0  0  0  0  0  0  0  0  0  0  0  0
  -23.0245  -10.6926    0.0000 O   0  0  0  0  0  0  0  0  0  0  0  0
  -24.9518  -10.7580    0.0000 C   0  0  0  0  0  0  0  0  0  0  0  0
  -23.6630   -7.0045    0.0000 C   0  0  0  0  0  0  0  0  0  0  0  0
  -22.2145   -7.3941    0.0000 O   0  0  0  0  0  0  0  0  0  0  0  0
  -24.2235   -5.6131    0.0000 N   0  0  0  0  0  0  0  0  0  0  0  0
  -23.2989   -4.4320    0.0000 C   0  0  0  0  0  0  0  0  0  0  0  0
  -22.2963   -5.5477    0.0000 C   0  0  0  0  0  0  0  0  0  0  0  0
  -22.8340   -3.0059    0.0000 C   0  0  0  0  0  0  0  0  0  0  0  0
  -21.3664   -2.6955    0.0000 O   0  0  0  0  0  0  0  0  0  0  0  0
  -23.8366   -1.8902    0.0000 N   0  0  0  0  0  0  0  0  0  0  0  0
  -23.3717   -0.4641    0.0000 C   0  0  0  0  0  0  0  0  0  0  0  0
  -24.8568   -0.2538    0.0000 C   0  0  0  0  0  0  0  0  0  0  0  0
  -25.7815   -1.4350    0.0000 C   0  0  0  0  0  0  0  0  0  0  0  0
  -27.2667   -1.2247    0.0000 C   0  0  0  0  0  0  0  0  0  0  0  0
  -26.2464   -2.8611    0.0000 C   0  0  0  0  0  0  0  0  0  0  0  0
  -22.4470    0.7171    0.0000 C   0  0  0  0  0  0  0  0  0  0  0  0
  -23.1730    2.0297    0.0000 O   0  0  0  0  0  0  0  0  0  0  0  0
  -20.9618    0.5068    0.0000 N   0  0  0  0  0  0  0  0  0  0  0  0
  -20.0372    1.6879    0.0000 C   0  0  0  0  0  0  0  0  0  0  0  0
  -21.3609    2.3934    0.0000 C   0  0  0  0  0  0  0  0  0  0  0  0
  -21.4118    3.8926    0.0000 C   0  0  0  0  0  0  0  0  0  0  0  0
  -22.7355    4.5981    0.0000 C   0  0  0  0  0  0  0  0  0  0  0  0
  -22.7864    6.0972    0.0000 N   0  0  0  0  0  0  0  0  0  0  0  0
  -24.1101    6.8027    0.0000 C   0  0  0  0  0  0  0  0  0  0  0  0
  -24.1610    8.3019    0.0000 N   0  0  0  0  0  0  0  0  0  0  0  0
  -25.3830    6.0091    0.0000 N   0  0  0  0  0  0  0  0  0  0  0  0
  -18.7643    2.4816    0.0000 C   0  0  0  0  0  0  0  0  0  0  0  0
  -18.9975    3.9633    0.0000 O   0  0  0  0  0  0  0  0  0  0  0  0
  -17.4406    1.7761    0.0000 N   0  0  0  0  0  0  0  0  0  0  0  0
  -16.1677    2.5697    0.0000 C   0  0  0  0  0  0  0  0  0  0  0  0
  -17.1703    3.6854    0.0000 C   0  0  0  0  0  0  0  0  0  0  0  0
  -16.7054    5.1115    0.0000 C   0  0  0  0  0  0  0  0  0  0  0  0
  -17.7080    6.2272    0.0000 C   0  0  0  0  0  0  0  0  0  0  0  0
  -17.2431    7.6534    0.0000 O   0  0  0  0  0  0  0  0  0  0  0  0
  -19.1755    5.9168    0.0000 O   0  0  0  0  0  0  0  0  0  0  0  0
  -14.7002    2.8801    0.0000 C   0  0  0  0  0  0  0  0  0  0  0  0
  -14.2353    4.3063    0.0000 O   0  0  0  0  0  0  0  0  0  0  0  0
  -13.6976    1.7644    0.0000 N   0  0  0  0  0  0  0  0  0  0  0  0
  -12.2301    2.0749    0.0000 C   0  0  0  0  0  0  0  0  0  0  0  0
  -12.1792    0.5757    0.0000 C   0  0  0  0  0  0  0  0  0  0  0  0
  -13.4520   -0.2179    0.0000 C   0  0  0  0  0  0  0  0  0  0  0  0
  -13.4012   -1.7171    0.0000 C   0  0  0  0  0  0  0  0  0  0  0  0
  -14.9196   -0.5283    0.0000 C   0  0  0  0  0  0  0  0  0  0  0  0
  -10.9572    2.8685    0.0000 C   0  0  0  0  0  0  0  0  0  0  0  0
   -9.6335    2.1630    0.0000 O   0  0  0  0  0  0  0  0  0  0  0  0
  -11.0081    4.3676    0.0000 N   0  0  0  0  0  0  0  0  0  0  0  0
   -9.7352    5.1613    0.0000 C   0  0  0  0  0  0  0  0  0  0  0  0
  -10.7378    6.2770    0.0000 C   0  0  0  0  0  0  0  0  0  0  0  0
  -12.1566    5.7900    0.0000 C   0  0  0  0  0  0  0  0  0  0  0  0
  -11.2984    7.6683    0.0000 C   0  0  0  0  0  0  0  0  0  0  0  0
  -12.7836    7.8785    0.0000 C   0  0  0  0  0  0  0  0  0  0  0  0
   -8.2677    5.4717    0.0000 C   0  0  0  0  0  0  0  0  0  0  0  0
   -7.9801    6.9438    0.0000 O   0  0  0  0  0  0  0  0  0  0  0  0
   -7.2651    4.3560    0.0000 N   0  0  0  0  0  0  0  0  0  0  0  0
   -5.7976    4.6664    0.0000 C   0  0  0  0  0  0  0  0  0  0  0  0
   -6.3581    6.0577    0.0000 C   0  0  0  0  0  0  0  0  0  0  0  0
   -5.4335    7.2388    0.0000 C   0  0  0  0  0  0  0  0  0  0  0  0
   -5.9940    8.6302    0.0000 C   0  0  0  0  0  0  0  0  0  0  0  0
   -5.0694    9.8113    0.0000 O   0  0  0  0  0  0  0  0  0  0  0  0
   -7.4792    8.8404    0.0000 O   0  0  0  0  0  0  0  0  0  0  0  0
   -4.3124    4.4562    0.0000 C   0  0  0  0  0  0  0  0  0  0  0  0
   -3.5386    5.7412    0.0000 O   0  0  0  0  0  0  0  0  0  0  0  0
   -3.7518    3.0649    0.0000 N   0  0  0  0  0  0  0  0  0  0  0  0
   -2.2666    2.8546    0.0000 C   0  0  0  0  0  0  0  0  0  0  0  0
   -2.3175    4.3538    0.0000 C   0  0  0  0  0  0  0  0  0  0  0  0
   -1.0447    5.1474    0.0000 C   0  0  0  0  0  0  0  0  0  0  0  0
   -1.0956    6.6466    0.0000 C   0  0  0  0  0  0  0  0  0  0  0  0
    0.0711    7.5894    0.0000 O   0  0  0  0  0  0  0  0  0  0  0  0
   -2.4193    7.3521    0.0000 O   0  0  0  0  0  0  0  0  0  0  0  0
   -0.9429    2.1491    0.0000 C   0  0  0  0  0  0  0  0  0  0  0  0
    0.3299    2.9428    0.0000 O   0  0  0  0  0  0  0  0  0  0  0  0
   -0.8920    0.6500    0.0000 N   0  0  0  0  0  0  0  0  0  0  0  0
    0.4317   -0.0555    0.0000 C   0  0  0  0  0  0  0  0  0  0  0  0
   -0.4930   -1.2366    0.0000 C   0  0  0  0  0  0  0  0  0  0  0  0
   -1.9782   -1.0264    0.0000 C   0  0  0  0  0  0  0  0  0  0  0  0
   -2.9028   -2.2075    0.0000 C   0  0  0  0  0  0  0  0  0  0  0  0
   -3.3019   -0.3209    0.0000 C   0  0  0  0  0  0  0  0  0  0  0  0
    1.9169   -0.2657    0.0000 C   0  0  0  0  0  0  0  0  0  0  0  0
    2.3037   -1.7150    0.0000 O   0  0  0  0  0  0  0  0  0  0  0  0
    2.8415    0.9154    0.0000 N   0  0  0  0  0  0  0  0  0  0  0  0
    4.3267    0.7052    0.0000 C   0  0  0  0  0  0  0  0  0  0  0  0
    5.1519   -0.5475    0.0000 C   0  0  0  0  0  0  0  0  0  0  0  0
    6.3095   -1.5013    0.0000 C   0  0  0  0  0  0  0  0  0  0  0  0
    7.6969   -2.0715    0.0000 C   0  0  0  0  0  0  0  0  0  0  0  0
    9.1908   -2.2074    0.0000 C   0  0  0  0  0  0  0  0  0  0  0  0
    3.3758   -0.4549    0.0000 C   0  0  0  0  0  0  0  0  0  0  0  0
    3.9075    2.1454    0.0000 C   0  0  0  0  0  0  0  0  0  0  0  0
    2.4076    2.1282    0.0000 O   0  0  0  0  0  0  0  0  0  0  0  0
    3.9314    3.6452    0.0000 N   0  0  0  0  0  0  0  0  0  0  0  0
    4.3963    5.0713    0.0000 C   0  0  0  0  0  0  0  0  0  0  0  0
    2.9052    4.9086    0.0000 C   0  0  0  0  0  0  0  0  0  0  0  0
    2.0187    6.1186    0.0000 C   0  0  0  0  0  0  0  0  0  0  0  0
    0.5585    5.7752    0.0000 N   0  0  0  0  0  0  0  0  0  0  0  0
    2.6233    7.4913    0.0000 O   0  0  0  0  0  0  0  0  0  0  0  0
    5.2610    6.2971    0.0000 C   0  0  0  0  0  0  0  0  0  0  0  0
    4.1778    7.3347    0.0000 O   0  0  0  0  0  0  0  0  0  0  0  0
    6.4485    7.2135    0.0000 N   0  0  0  0  0  0  0  0  0  0  0  0
    7.8533    7.7392    0.0000 C   0  0  0  0  0  0  0  0  0  0  0  0
    6.7964    8.8035    0.0000 C   0  0  0  0  0  0  0  0  0  0  0  0
    7.3632   10.1923    0.0000 C   0  0  0  0  0  0  0  0  0  0  0  0
    5.4391    9.4422    0.0000 C   0  0  0  0  0  0  0  0  0  0  0  0
    5.3136   10.9369    0.0000 C   0  0  0  0  0  0  0  0  0  0  0  0
    9.3507    7.8274    0.0000 C   0  0  0  0  0  0  0  0  0  0  0  0
    9.4867    9.3212    0.0000 O   0  0  0  0  0  0  0  0  0  0  0  0
   10.8076    7.4704    0.0000 N   0  0  0  0  0  0  0  0  0  0  0  0
   12.0946    6.6998    0.0000 C   0  0  0  0  0  0  0  0  0  0  0  0
   12.2677    8.1897    0.0000 C   0  0  0  0  0  0  0  0  0  0  0  0
   11.9208    9.6491    0.0000 O   0  0  0  0  0  0  0  0  0  0  0  0
   13.6446    8.7848    0.0000 C   0  0  0  0  0  0  0  0  0  0  0  0
   13.0972    5.5841    0.0000 C   0  0  0  0  0  0  0  0  0  0  0  0
   14.3498    6.4092    0.0000 O   0  0  0  0  0  0  0  0  0  0  0  0
   13.7264    4.2224    0.0000 N   0  0  0  0  0  0  0  0  0  0  0  0
   13.9262    2.7358    0.0000 C   0  0  0  0  0  0  0  0  0  0  0  0
   13.6791    1.2563    0.0000 C   0  0  0  0  0  0  0  0  0  0  0  0
   13.0068   -0.0846    0.0000 C   0  0  0  0  0  0  0  0  0  0  0  0
   11.9691   -1.1678    0.0000 C   0  0  0  0  0  0  0  0  0  0  0  0
   10.6583   -1.8970    0.0000 C   0  0  0  0  0  0  0  0  0  0  0  0
   15.2655    2.0602    0.0000 C   0  0  0  0  0  0  0  0  0  0  0  0
   15.1991    3.5294    0.0000 C   0  0  0  0  0  0  0  0  0  0  0  0
   15.3313    5.0236    0.0000 O   0  0  0  0  0  0  0  0  0  0  0  0
   16.5228    2.8239    0.0000 N   0  0  0  0  0  0  0  0  0  0  0  0
   17.7957    3.6175    0.0000 C   0  0  0  0  0  0  0  0  0  0  0  0
   18.7203    4.7986    0.0000 C   0  0  0  0  0  0  0  0  0  0  0  0
   18.1598    6.1900    0.0000 C   0  0  0  0  0  0  0  0  0  0  0  0
   19.0844    7.3711    0.0000 N   0  0  0  0  0  0  0  0  0  0  0  0
   16.6746    6.4002    0.0000 O   0  0  0  0  0  0  0  0  0  0  0  0
   19.1194    2.9120    0.0000 C   0  0  0  0  0  0  0  0  0  0  0  0
   20.4795    3.5446    0.0000 O   0  0  0  0  0  0  0  0  0  0  0  0
   19.1703    1.4129    0.0000 N   0  0  0  0  0  0  0  0  0  0  0  0
   20.4940    0.7074    0.0000 C   0  0  0  0  0  0  0  0  0  0  0  0
   21.9792    0.4972    0.0000 C   0  0  0  0  0  0  0  0  0  0  0  0
   22.9039    1.6783    0.0000 C   0  0  0  0  0  0  0  0  0  0  0  0
   24.3891    1.4681    0.0000 C   0  0  0  0  0  0  0  0  0  0  0  0
   25.3137    2.6492    0.0000 N   0  0  0  0  0  0  0  0  0  0  0  0
   24.9496    0.0767    0.0000 O   0  0  0  0  0  0  0  0  0  0  0  0
   20.5449   -0.7918    0.0000 C   0  0  0  0  0  0  0  0  0  0  0  0
   19.2720   -1.5854    0.0000 O   0  0  0  0  0  0  0  0  0  0  0  0
   21.8686   -1.4973    0.0000 N   0  0  0  0  0  0  0  0  0  0  0  0
   21.9195   -2.9964    0.0000 C   0  0  0  0  0  0  0  0  0  0  0  0
   21.4546   -4.4225    0.0000 C   0  0  0  0  0  0  0  0  0  0  0  0
   22.4572   -5.5382    0.0000 C   0  0  0  0  0  0  0  0  0  0  0  0
   21.9923   -6.9644    0.0000 C   0  0  0  0  0  0  0  0  0  0  0  0
   22.9949   -8.0801    0.0000 C   0  0  0  0  0  0  0  0  0  0  0  0
   22.5299   -9.5062    0.0000 N   0  0  0  0  0  0  0  0  0  0  0  0
   23.2432   -3.7019    0.0000 C   0  0  0  0  0  0  0  0  0  0  0  0
   23.4765   -5.1837    0.0000 O   0  0  0  0  0  0  0  0  0  0  0  0
   24.5161   -2.9083    0.0000 N   0  0  0  0  0  0  0  0  0  0  0  0
   25.8398   -3.6138    0.0000 C   0  0  0  0  0  0  0  0  0  0  0  0
   26.6989   -4.8434    0.0000 C   0  0  0  0  0  0  0  0  0  0  0  0
   27.1127   -2.8201    0.0000 C   0  0  0  0  0  0  0  0  0  0  0  0
   27.0618   -1.3210    0.0000 O   0  0  0  0  0  0  0  0  0  0  0  0
   28.4364   -3.5257    0.0000 N   0  0  0  0  0  0  0  0  0  0  0  0
   29.7852   -2.8694    0.0000 C   0  0  0  0  0  0  0  0  0  0  0  0
   30.8262   -3.9495    0.0000 C   0  0  0  0  0  0  0  0  0  0  0  0
   30.1207   -5.2732    0.0000 C   0  0  0  0  0  0  0  0  0  0  0  0
   28.6437   -5.0113    0.0000 C   0  0  0  0  0  0  0  0  0  0  0  0
   28.5376   -6.5075    0.0000 C   0  0  0  0  0  0  0  0  0  0  0  0
   27.1888   -7.1637    0.0000 O   0  0  0  0  0  0  0  0  0  0  0  0
   29.7803   -7.3475    0.0000 N   0  0  0  0  0  0  0  0  0  0  0  0
   29.6742   -8.8438    0.0000 C   0  0  0  0  0  0  0  0  0  0  0  0
   29.0628  -10.2135    0.0000 C   0  0  0  0  0  0  0  0  0  0  0  0
   27.5708  -10.3688    0.0000 C   0  0  0  0  0  0  0  0  0  0  0  0
   26.9594  -11.7385    0.0000 C   0  0  0  0  0  0  0  0  0  0  0  0
   26.1158  -10.0045    0.0000 C   0  0  0  0  0  0  0  0  0  0  0  0
   30.9170   -9.6838    0.0000 C   0  0  0  0  0  0  0  0  0  0  0  0
   30.9940  -11.1818    0.0000 O   0  0  0  0  0  0  0  0  0  0  0  0
   32.2658   -9.0275    0.0000 O   0  0  0  0  0  0  0  0  0  0  0  0
  -29.5494  -16.7846    0.0000 H   0  0  0  0  0  0  0  0  0  0  0  0
  -31.5951  -15.1831    0.0000 H   0  0  0  0  0  0  0  0  0  0  0  0
  -28.1827  -15.3279    0.0000 H   0  0  0  0  0  0  0  0  0  0  0  0
  -27.9124  -13.4186    0.0000 H   0  0  0  0  0  0  0  0  0  0  0  0
  -31.0187  -13.6145    0.0000 H   0  0  0  0  0  0  0  0  0  0  0  0
  -30.7484  -11.7052    0.0000 H   0  0  0  0  0  0  0  0  0  0  0  0
  -30.8815  -10.2208    0.0000 H   0  0  0  0  0  0  0  0  0  0  0  0
  -27.4545  -10.1830    0.0000 H   0  0  0  0  0  0  0  0  0  0  0  0
  -30.7834   -7.2461    0.0000 H   0  0  0  0  0  0  0  0  0  0  0  0
  -28.8562   -7.1807    0.0000 H   0  0  0  0  0  0  0  0  0  0  0  0
  -32.3774   -8.4499    0.0000 H   0  0  0  0  0  0  0  0  0  0  0  0
  -25.9308   -9.7733    0.0000 H   0  0  0  0  0  0  0  0  0  0  0  0
  -25.5903   -7.0699    0.0000 H   0  0  0  0  0  0  0  0  0  0  0  0
  -22.7543   -8.7833    0.0000 H   0  0  0  0  0  0  0  0  0  0  0  0
  -21.5570  -10.3822    0.0000 H   0  0  0  0  0  0  0  0  0  0  0  0
  -24.3912  -12.1493    0.0000 H   0  0  0  0  0  0  0  0  0  0  0  0
  -26.2246  -11.5516    0.0000 H   0  0  0  0  0  0  0  0  0  0  0  0
  -25.7406  -10.3552    0.0000 H   0  0  0  0  0  0  0  0  0  0  0  0
  -25.7087   -5.4029    0.0000 H   0  0  0  0  0  0  0  0  0  0  0  0
  -24.5268   -3.5704    0.0000 H   0  0  0  0  0  0  0  0  0  0  0  0
  -22.5839   -7.0199    0.0000 H   0  0  0  0  0  0  0  0  0  0  0  0
  -20.9726   -6.2532    0.0000 H   0  0  0  0  0  0  0  0  0  0  0  0
  -21.3716   -4.3666    0.0000 H   0  0  0  0  0  0  0  0  0  0  0  0
  -25.2553   -2.3772    0.0000 H   0  0  0  0  0  0  0  0  0  0  0  0
  -22.0479   -1.1696    0.0000 H   0  0  0  0  0  0  0  0  0  0  0  0
  -26.0847    0.6078    0.0000 H   0  0  0  0  0  0  0  0  0  0  0  0
  -24.3919    1.1723    0.0000 H   0  0  0  0  0  0  0  0  0  0  0  0
  -24.7986   -2.5681    0.0000 H   0  0  0  0  0  0  0  0  0  0  0  0
  -28.3284   -2.2843    0.0000 H   0  0  0  0  0  0  0  0  0  0  0  0
  -28.5904   -0.5192    0.0000 H   0  0  0  0  0  0  0  0  0  0  0  0
  -26.9791    0.2474    0.0000 H   0  0  0  0  0  0  0  0  0  0  0  0
  -27.6652   -3.3481    0.0000 H   0  0  0  0  0  0  0  0  0  0  0  0
  -26.1955   -4.3602    0.0000 H   0  0  0  0  0  0  0  0  0  0  0  0
  -24.7467   -2.8887    0.0000 H   0  0  0  0  0  0  0  0  0  0  0  0
  -20.4013   -0.8845    0.0000 H   0  0  0  0  0  0  0  0  0  0  0  0
  -19.0346    0.5722    0.0000 H   0  0  0  0  0  0  0  0  0  0  0  0
  -22.8461    2.6037    0.0000 H   0  0  0  0  0  0  0  0  0  0  0  0
  -22.1571    1.1222    0.0000 H   0  0  0  0  0  0  0  0  0  0  0  0
  -20.9468    5.3187    0.0000 H   0  0  0  0  0  0  0  0  0  0  0  0
  -19.9266    3.6824    0.0000 H   0  0  0  0  0  0  0  0  0  0  0  0
  -24.2207    4.8083    0.0000 H   0  0  0  0  0  0  0  0  0  0  0  0
  -23.3708    3.2393    0.0000 H   0  0  0  0  0  0  0  0  0  0  0  0
  -21.5135    6.8909    0.0000 H   0  0  0  0  0  0  0  0  0  0  0  0
  -25.4847    9.0074    0.0000 H   0  0  0  0  0  0  0  0  0  0  0  0
  -22.8881    9.0955    0.0000 H   0  0  0  0  0  0  0  0  0  0  0  0
  -26.7067    6.7146    0.0000 H   0  0  0  0  0  0  0  0  0  0  0  0
  -25.3321    4.5100    0.0000 H   0  0  0  0  0  0  0  0  0  0  0  0
  -17.3897    0.2769    0.0000 H   0  0  0  0  0  0  0  0  0  0  0  0
  -15.4418    1.2571    0.0000 H   0  0  0  0  0  0  0  0  0  0  0  0
  -18.3982    4.5470    0.0000 H   0  0  0  0  0  0  0  0  0  0  0  0
  -18.3533    2.7631    0.0000 H   0  0  0  0  0  0  0  0  0  0  0  0
  -15.7807    6.2926    0.0000 H   0  0  0  0  0  0  0  0  0  0  0  0
  -15.3817    4.4060    0.0000 H   0  0  0  0  0  0  0  0  0  0  0  0
  -14.3329    0.4056    0.0000 H   0  0  0  0  0  0  0  0  0  0  0  0
  -12.7906    3.4662    0.0000 H   0  0  0  0  0  0  0  0  0  0  0  0
  -11.4532   -0.7369    0.0000 H   0  0  0  0  0  0  0  0  0  0  0  0
  -10.7117    0.8861    0.0000 H   0  0  0  0  0  0  0  0  0  0  0  0
  -14.4740    0.8800    0.0000 H   0  0  0  0  0  0  0  0  0  0  0  0
  -14.5678   -2.6599    0.0000 H   0  0  0  0  0  0  0  0  0  0  0  0
  -12.8406   -3.1084    0.0000 H   0  0  0  0  0  0  0  0  0  0  0  0
  -11.9067   -1.5878    0.0000 H   0  0  0  0  0  0  0  0  0  0  0  0
  -15.5549   -1.8872    0.0000 H   0  0  0  0  0  0  0  0  0  0  0  0
  -16.4048   -0.3181    0.0000 H   0  0  0  0  0  0  0  0  0  0  0  0
  -14.7873    0.9658    0.0000 H   0  0  0  0  0  0  0  0  0  0  0  0
  -12.4079    4.9065    0.0000 H   0  0  0  0  0  0  0  0  0  0  0  0
   -9.1747    3.7699    0.0000 H   0  0  0  0  0  0  0  0  0  0  0  0
   -9.4650    7.0706    0.0000 H   0  0  0  0  0  0  0  0  0  0  0  0
  -13.3577    6.9444    0.0000 H   0  0  0  0  0  0  0  0  0  0  0  0
  -13.4782    5.1729    0.0000 H   0  0  0  0  0  0  0  0  0  0  0  0
  -12.1808    4.4667    0.0000 H   0  0  0  0  0  0  0  0  0  0  0  0
  -11.3493    9.1674    0.0000 H   0  0  0  0  0  0  0  0  0  0  0  0
   -9.8309    7.9787    0.0000 H   0  0  0  0  0  0  0  0  0  0  0  0
  -13.3441    9.2698    0.0000 H   0  0  0  0  0  0  0  0  0  0  0  0
  -14.2511    7.5681    0.0000 H   0  0  0  0  0  0  0  0  0  0  0  0
  -13.0970    6.4116    0.0000 H   0  0  0  0  0  0  0  0  0  0  0  0
   -7.7300    2.9298    0.0000 H   0  0  0  0  0  0  0  0  0  0  0  0
   -5.7467    3.1673    0.0000 H   0  0  0  0  0  0  0  0  0  0  0  0
   -7.2173    7.2873    0.0000 H   0  0  0  0  0  0  0  0  0  0  0  0
   -7.7852    5.5957    0.0000 H   0  0  0  0  0  0  0  0  0  0  0  0
   -4.1606    8.0325    0.0000 H   0  0  0  0  0  0  0  0  0  0  0  0
   -4.4309    6.1231    0.0000 H   0  0  0  0  0  0  0  0  0  0  0  0
   -4.6765    1.8838    0.0000 H   0  0  0  0  0  0  0  0  0  0  0  0
   -2.5543    1.3825    0.0000 H   0  0  0  0  0  0  0  0  0  0  0  0
   -2.7043    5.8031    0.0000 H   0  0  0  0  0  0  0  0  0  0  0  0
   -3.8166    4.4077    0.0000 H   0  0  0  0  0  0  0  0  0  0  0  0
    0.4497    5.2766    0.0000 H   0  0  0  0  0  0  0  0  0  0  0  0
   -0.4841    3.7561    0.0000 H   0  0  0  0  0  0  0  0  0  0  0  0
   -2.2521    0.0174    0.0000 H   0  0  0  0  0  0  0  0  0  0  0  0
    0.8966    1.3706    0.0000 H   0  0  0  0  0  0  0  0  0  0  0  0
   -0.7806   -2.7088    0.0000 H   0  0  0  0  0  0  0  0  0  0  0  0
    0.8308   -1.9421    0.0000 H   0  0  0  0  0  0  0  0  0  0  0  0
   -2.0553    0.4716    0.0000 H   0  0  0  0  0  0  0  0  0  0  0  0
   -4.4026   -2.1799    0.0000 H   0  0  0  0  0  0  0  0  0  0  0  0
   -3.3677   -3.6336    0.0000 H   0  0  0  0  0  0  0  0  0  0  0  0
   -1.6749   -3.0691    0.0000 H   0  0  0  0  0  0  0  0  0  0  0  0
   -4.6620   -0.9534    0.0000 H   0  0  0  0  0  0  0  0  0  0  0  0
   -4.3045    0.7948    0.0000 H   0  0  0  0  0  0  0  0  0  0  0  0
   -2.2402    0.7387    0.0000 H   0  0  0  0  0  0  0  0  0  0  0  0
    2.1156    2.2280    0.0000 H   0  0  0  0  0  0  0  0  0  0  0  0
    4.7586   -1.9950    0.0000 H   0  0  0  0  0  0  0  0  0  0  0  0
    3.7106   -0.9632    0.0000 H   0  0  0  0  0  0  0  0  0  0  0  0
    6.1773   -2.9955    0.0000 H   0  0  0  0  0  0  0  0  0  0  0  0
    5.0548   -2.3233    0.0000 H   0  0  0  0  0  0  0  0  0  0  0  0
    8.1874   -3.4890    0.0000 H   0  0  0  0  0  0  0  0  0  0  0  0
    6.7403   -3.2268    0.0000 H   0  0  0  0  0  0  0  0  0  0  0  0
    9.2790   -3.7048    0.0000 H   0  0  0  0  0  0  0  0  0  0  0  0
    2.0768   -0.8262    0.0000 H   0  0  0  0  0  0  0  0  0  0  0  0
    3.3966   -2.0367    0.0000 H   0  0  0  0  0  0  0  0  0  0  0  0
    4.5668   -1.6378    0.0000 H   0  0  0  0  0  0  0  0  0  0  0  0
    2.4519    3.8924    0.0000 H   0  0  0  0  0  0  0  0  0  0  0  0
    3.6347    6.3636    0.0000 H   0  0  0  0  0  0  0  0  0  0  0  0
    1.5597    4.2456    0.0000 H   0  0  0  0  0  0  0  0  0  0  0  0
    2.9635    3.4097    0.0000 H   0  0  0  0  0  0  0  0  0  0  0  0
   -0.1827    7.2672    0.0000 H   0  0  0  0  0  0  0  0  0  0  0  0
   -0.0771    4.5830    0.0000 H   0  0  0  0  0  0  0  0  0  0  0  0
    5.5649    8.4257    0.0000 H   0  0  0  0  0  0  0  0  0  0  0  0
    8.5556    9.0646    0.0000 H   0  0  0  0  0  0  0  0  0  0  0  0
    5.6608    7.8234    0.0000 H   0  0  0  0  0  0  0  0  0  0  0  0
    6.2787   11.4570    0.0000 H   0  0  0  0  0  0  0  0  0  0  0  0
    8.0543   11.4768    0.0000 H   0  0  0  0  0  0  0  0  0  0  0  0
    8.6146    9.7826    0.0000 H   0  0  0  0  0  0  0  0  0  0  0  0
    3.9453    9.5781    0.0000 H   0  0  0  0  0  0  0  0  0  0  0  0
    4.8723    8.0534    0.0000 H   0  0  0  0  0  0  0  0  0  0  0  0
    3.9563   11.5755    0.0000 H   0  0  0  0  0  0  0  0  0  0  0  0
    5.7068   12.3844    0.0000 H   0  0  0  0  0  0  0  0  0  0  0  0
    6.7959   11.1665    0.0000 H   0  0  0  0  0  0  0  0  0  0  0  0
   11.3778    8.8578    0.0000 H   0  0  0  0  0  0  0  0  0  0  0  0
   13.5687    6.9771    0.0000 H   0  0  0  0  0  0  0  0  0  0  0  0
   10.7934    8.4664    0.0000 H   0  0  0  0  0  0  0  0  0  0  0  0
   12.8774   10.8044    0.0000 H   0  0  0  0  0  0  0  0  0  0  0  0
   13.9980   10.2425    0.0000 H   0  0  0  0  0  0  0  0  0  0  0  0
   15.1420    8.8730    0.0000 H   0  0  0  0  0  0  0  0  0  0  0  0
   14.1668    7.3786    0.0000 H   0  0  0  0  0  0  0  0  0  0  0  0
   15.1047    4.8141    0.0000 H   0  0  0  0  0  0  0  0  0  0  0  0
   15.1652    1.4598    0.0000 H   0  0  0  0  0  0  0  0  0  0  0  0
   14.6248    0.0920    0.0000 H   0  0  0  0  0  0  0  0  0  0  0  0
   14.4869   -0.3282    0.0000 H   0  0  0  0  0  0  0  0  0  0  0  0
   13.7327   -1.3972    0.0000 H   0  0  0  0  0  0  0  0  0  0  0  0
   13.3117   -1.8368    0.0000 H   0  0  0  0  0  0  0  0  0  0  0  0
   12.0947   -2.6625    0.0000 H   0  0  0  0  0  0  0  0  0  0  0  0
   11.1840   -3.3019    0.0000 H   0  0  0  0  0  0  0  0  0  0  0  0
   16.6036    2.2467    0.0000 H   0  0  0  0  0  0  0  0  0  0  0  0
   15.8870    0.6054    0.0000 H   0  0  0  0  0  0  0  0  0  0  0  0
   14.6555    0.4962    0.0000 H   0  0  0  0  0  0  0  0  0  0  0  0
   16.7561    1.3421    0.0000 H   0  0  0  0  0  0  0  0  0  0  0  0
   16.7931    4.7332    0.0000 H   0  0  0  0  0  0  0  0  0  0  0  0
   19.9932    5.5923    0.0000 H   0  0  0  0  0  0  0  0  0  0  0  0
   19.8515    3.8135    0.0000 H   0  0  0  0  0  0  0  0  0  0  0  0
   18.5239    8.7624    0.0000 H   0  0  0  0  0  0  0  0  0  0  0  0
   20.5696    7.1609    0.0000 H   0  0  0  0  0  0  0  0  0  0  0  0
   17.8974    0.6193    0.0000 H   0  0  0  0  0  0  0  0  0  0  0  0
   20.7816    2.1795    0.0000 H   0  0  0  0  0  0  0  0  0  0  0  0
   23.3791   -0.0417    0.0000 H   0  0  0  0  0  0  0  0  0  0  0  0
   21.8732   -0.9991    0.0000 H   0  0  0  0  0  0  0  0  0  0  0  0
   23.3688    3.1044    0.0000 H   0  0  0  0  0  0  0  0  0  0  0  0
   21.6760    2.5399    0.0000 H   0  0  0  0  0  0  0  0  0  0  0  0
   26.7989    2.4390    0.0000 H   0  0  0  0  0  0  0  0  0  0  0  0
   24.7532    4.0405    0.0000 H   0  0  0  0  0  0  0  0  0  0  0  0
   23.2287   -0.8647    0.0000 H   0  0  0  0  0  0  0  0  0  0  0  0
   20.4343   -2.7862    0.0000 H   0  0  0  0  0  0  0  0  0  0  0  0
   20.3929   -5.4821    0.0000 H   0  0  0  0  0  0  0  0  0  0  0  0
   20.1308   -3.7170    0.0000 H   0  0  0  0  0  0  0  0  0  0  0  0
   23.8570   -6.0771    0.0000 H   0  0  0  0  0  0  0  0  0  0  0  0
   23.7438   -4.7670    0.0000 H   0  0  0  0  0  0  0  0  0  0  0  0
   20.9305   -8.0239    0.0000 H   0  0  0  0  0  0  0  0  0  0  0  0
   20.5924   -6.4255    0.0000 H   0  0  0  0  0  0  0  0  0  0  0  0
   24.3947   -8.6189    0.0000 H   0  0  0  0  0  0  0  0  0  0  0  0
   24.0566   -7.0205    0.0000 H   0  0  0  0  0  0  0  0  0  0  0  0
   23.5325  -10.6219    0.0000 H   0  0  0  0  0  0  0  0  0  0  0  0
   21.6053  -10.6873    0.0000 H   0  0  0  0  0  0  0  0  0  0  0  0
   21.1301   -8.9673    0.0000 H   0  0  0  0  0  0  0  0  0  0  0  0
   24.4652   -1.4091    0.0000 H   0  0  0  0  0  0  0  0  0  0  0  0
   24.9152   -4.7949    0.0000 H   0  0  0  0  0  0  0  0  0  0  0  0
   28.2839   -5.1445    0.0000 H   0  0  0  0  0  0  0  0  0  0  0  0
   27.4030   -6.1208    0.0000 H   0  0  0  0  0  0  0  0  0  0  0  0
   25.5696   -5.5231    0.0000 H   0  0  0  0  0  0  0  0  0  0  0  0
   28.9916   -1.5966    0.0000 H   0  0  0  0  0  0  0  0  0  0  0  0
   30.9682   -1.9471    0.0000 H   0  0  0  0  0  0  0  0  0  0  0  0
   31.7915   -2.8013    0.0000 H   0  0  0  0  0  0  0  0  0  0  0  0
   32.0689   -4.7895    0.0000 H   0  0  0  0  0  0  0  0  0  0  0  0
   31.5109   -5.8365    0.0000 H   0  0  0  0  0  0  0  0  0  0  0  0
   30.0669   -6.7722    0.0000 H   0  0  0  0  0  0  0  0  0  0  0  0
   27.1619   -5.2445    0.0000 H   0  0  0  0  0  0  0  0  0  0  0  0
   31.1292   -6.6913    0.0000 H   0  0  0  0  0  0  0  0  0  0  0  0
   28.2744   -8.3048    0.0000 H   0  0  0  0  0  0  0  0  0  0  0  0
   29.1399  -11.7115    0.0000 H   0  0  0  0  0  0  0  0  0  0  0  0
   30.4626  -10.7524    0.0000 H   0  0  0  0  0  0  0  0  0  0  0  0
   27.4938   -8.8708    0.0000 H   0  0  0  0  0  0  0  0  0  0  0  0
   25.4975  -12.0746    0.0000 H   0  0  0  0  0  0  0  0  0  0  0  0
   26.8533  -13.2348    0.0000 H   0  0  0  0  0  0  0  0  0  0  0  0
   28.3592  -12.2775    0.0000 H   0  0  0  0  0  0  0  0  0  0  0  0
   24.9491  -10.9473    0.0000 H   0  0  0  0  0  0  0  0  0  0  0  0
   24.9847   -9.0193    0.0000 H   0  0  0  0  0  0  0  0  0  0  0  0
   26.7272   -8.6348    0.0000 H   0  0  0  0  0  0  0  0  0  0  0  0
  1  2  1  0
  2  3  1  0
  3  4  1  0
  4  5  2  0
  4  6  1  0
  6  7  1  0
  7  8  1  0
  8  9  1  0
  7 10  1  0
 10 11  2  0
 10 12  1  0
 12 13  1  0
 13 14  1  0
 14 15  1  0
 14 16  1  0
 13 17  1  0
 17 18  2  0
 17 19  1  0
 19 20  1  0
 20 21  1  0
 20 22  1  0
 22 23  2  0
 22 24  1  0
 24 25  1  0
 25 26  1  0
 26 27  1  0
 27 28  1  0
 27 29  1  0
 25 30  1  0
 30 31  2  0
 30 32  1  0
 32 33  1  0
 33 34  1  0
 34 35  1  0
 35 36  1  0
 36 37  1  0
 37 38  1  0
 38 39  2  3
 38 40  1  0
 33 41  1  0
 41 42  2  0
 41 43  1  0
 43 44  1  0
 44 45  1  0
 45 46  1  0
 46 47  1  0
 47 48  2  0
 47 49  1  0
 44 50  1  0
 50 51  2  0
 50 52  1  0
 52 53  1  0
 53 54  1  0
 54 55  1  0
 55 56  1  0
 55 57  1  0
 53 58  1  0
 58 59  2  0
 58 60  1  0
 60 61  1  0
 61 62  1  0
 62 63  1  0
 62 64  1  0
 64 65  1  0
 61 66  1  0
 66 67  2  0
 66 68  1  0
 68 69  1  0
 69 70  1  0
 70 71  1  0
 71 72  1  0
 72 73  2  0
 72 74  1  0
 69 75  1  0
 75 76  2  0
 75 77  1  0
 77 78  1  0
 78 79  1  0
 79 80  1  0
 80 81  1  0
 81 82  2  0
 81 83  1  0
 78 84  1  0
 84 85  2  0
 84 86  1  0
 86 87  1  0
 87 88  1  0
 88 89  1  0
 89 90  1  0
 89 91  1  0
 87 92  1  0
 92 93  2  0
 92 94  1  0
 95 94  1  6
 95 96  1  0
 96 97  1  0
 97 98  1  0
 98 99  1  0
 95100  1  0
 95101  1  0
101102  2  0
101103  1  0
103104  1  0
104105  1  0
105106  1  0
106107  1  0
106108  2  0
104109  1  0
109110  2  0
109111  1  0
111112  1  0
112113  1  0
113114  1  0
113115  1  0
115116  1  0
112117  1  0
117118  2  0
117119  1  0
119120  1  0
120121  1  0
121122  1  0
121123  1  0
120124  1  0
124125  2  0
124126  1  0
126127  1  0
127128  1  0
128129  1  0
129130  1  0
130131  1  0
127132  1  0
127133  1  6
133134  2  0
133135  1  0
135136  1  0
136137  1  0
137138  1  0
138139  1  0
138140  2  0
136141  1  0
141142  2  0
141143  1  0
143144  1  0
144145  1  0
145146  1  0
146147  1  0
147148  1  0
147149  2  0
144150  1  0
150151  2  0
150152  1  0
152153  1  0
153154  1  0
154155  1  0
155156  1  0
156157  1  0
157158  1  0
153159  1  0
159160  2  0
159161  1  0
161162  1  0
162163  1  0
162164  1  0
164165  2  0
164166  1  0
166167  1  0
167168  1  0
168169  1  0
169170  1  0
170171  1  0
171172  2  0
171173  1  0
173174  1  0
174175  1  0
175176  1  0
176177  1  0
176178  1  0
174179  1  0
179180  2  0
179181  1  0
170166  1  0
 99131  2  0
  1182  1  0
  1183  1  0
  2184  1  0
  2185  1  0
  3186  1  0
  3187  1  0
  6188  1  0
  7189  1  1
  8190  1  0
  8191  1  0
  9192  1  0
 12193  1  0
 13194  1  6
 14195  1  1
 15196  1  0
 16197  1  0
 16198  1  0
 16199  1  0
 19200  1  0
 20201  1  6
 21202  1  0
 21203  1  0
 21204  1  0
 24205  1  0
 25206  1  1
 26207  1  0
 26208  1  0
 27209  1  0
 28210  1  0
 28211  1  0
 28212  1  0
 29213  1  0
 29214  1  0
 29215  1  0
 32216  1  0
 33217  1  1
 34218  1  0
 34219  1  0
 35220  1  0
 35221  1  0
 36222  1  0
 36223  1  0
 37224  1  0
 39225  1  0
 39226  1  0
 40227  1  0
 40228  1  0
 43229  1  0
 44230  1  1
 45231  1  0
 45232  1  0
 46233  1  0
 46234  1  0
 52235  1  0
 53236  1  6
 54237  1  0
 54238  1  0
 55239  1  0
 56240  1  0
 56241  1  0
 56242  1  0
 57243  1  0
 57244  1  0
 57245  1  0
 60246  1  0
 61247  1  1
 62248  1  6
 63249  1  0
 63250  1  0
 63251  1  0
 64252  1  0
 64253  1  0
 65254  1  0
 65255  1  0
 65256  1  0
 68257  1  0
 69258  1  1
 70259  1  0
 70260  1  0
 71261  1  0
 71262  1  0
 77263  1  0
 78264  1  1
 79265  1  0
 79266  1  0
 80267  1  0
 80268  1  0
 86269  1  0
 87270  1  6
 88271  1  0
 88272  1  0
 89273  1  0
 90274  1  0
 90275  1  0
 90276  1  0
 91277  1  0
 91278  1  0
 91279  1  0
 94280  1  0
 96281  1  0
 96282  1  0
 97283  1  0
 97284  1  0
 98285  1  0
 98286  1  0
 99287  1  0
100288  1  0
100289  1  0
100290  1  0
103291  1  0
104292  1  1
105293  1  0
105294  1  0
107295  1  0
107296  1  0
111297  1  0
112298  1  1
113299  1  1
114300  1  0
114301  1  0
114302  1  0
115303  1  0
115304  1  0
116305  1  0
116306  1  0
116307  1  0
119308  1  0
120309  1  1
121310  1  1
122311  1  0
123312  1  0
123313  1  0
123314  1  0
126315  1  0
128316  1  0
128317  1  0
129318  1  0
129319  1  0
130320  1  0
130321  1  0
131322  1  0
132323  1  0
132324  1  0
132325  1  0
135326  1  0
136327  1  1
137328  1  0
137329  1  0
139330  1  0
139331  1  0
143332  1  0
144333  1  1
145334  1  0
145335  1  0
146336  1  0
146337  1  0
148338  1  0
148339  1  0
152340  1  0
153341  1  6
154342  1  0
154343  1  0
155344  1  0
155345  1  0
156346  1  0
156347  1  0
157348  1  0
157349  1  0
158350  1  0
158351  1  0
158352  1  0
161353  1  0
162354  1  6
163355  1  0
163356  1  0
163357  1  0
167358  1  0
167359  1  0
168360  1  0
168361  1  0
169362  1  0
169363  1  0
170364  1  0
173365  1  0
174366  1  6
175367  1  0
175368  1  0
176369  1  0
177370  1  0
177371  1  0
177372  1  0
178373  1  0
178374  1  0
178375  1  0
M  CHG  6  39   1  49  -1  74  -1  83  -1 158   1 181  -1
M  END
