
     RDKit          2D

369374  0  0  0  0  0  0  0  0999 V2000
  -30.0137   -1.1314    0.0000 C   0  0  0  0  0  0  0  0  0  0  0  0
  -31.2491   -1.9821    0.0000 N   0  0  0  0  0  0  0  0  0  0  0  0
  -32.6036   -1.3376    0.0000 C   0  0  0  0  0  0  0  0  0  0  0  0
  -32.7226    0.1577    0.0000 C   0  0  0  0  0  0  0  0  0  0  0  0
  -34.0771    0.8022    0.0000 C   0  0  0  0  0  0  0  0  0  0  0  0
  -35.3125   -0.0485    0.0000 C   0  0  0  0  0  0  0  0  0  0  0  0
  -35.1934   -1.5438    0.0000 C   0  0  0  0  0  0  0  0  0  0  0  0
  -33.8390   -2.1883    0.0000 C   0  0  0  0  0  0  0  0  0  0  0  0
  -36.5787   -2.1191    0.0000 C   0  0  0  0  0  0  0  0  0  0  0  0
  -37.5540   -0.9794    0.0000 O   0  0  0  0  0  0  0  0  0  0  0  0
  -36.7714    0.3003    0.0000 C   0  0  0  0  0  0  0  0  0  0  0  0
  -37.3467    1.6856    0.0000 O   0  0  0  0  0  0  0  0  0  0  0  0
  -38.0166   -2.5464    0.0000 C   0  0  0  0  0  0  0  0  0  0  0  0
  -38.3654   -4.0053    0.0000 C   0  0  0  0  0  0  0  0  0  0  0  0
  -39.8033   -4.4326    0.0000 C   0  0  0  0  0  0  0  0  0  0  0  0
  -40.8923   -3.4011    0.0000 C   0  0  0  0  0  0  0  0  0  0  0  0
  -40.5434   -1.9422    0.0000 C   0  0  0  0  0  0  0  0  0  0  0  0
  -39.1056   -1.5149    0.0000 C   0  0  0  0  0  0  0  0  0  0  0  0
  -42.3301   -3.8284    0.0000 O   0  0  0  0  0  0  0  0  0  0  0  0
  -37.2764   -5.0368    0.0000 O   0  0  0  0  0  0  0  0  0  0  0  0
  -35.8386   -4.6095    0.0000 C   0  0  0  0  0  0  0  0  0  0  0  0
  -35.4897   -3.1506    0.0000 C   0  0  0  0  0  0  0  0  0  0  0  0
  -34.2147   -3.4041    0.0000 C   0  0  0  0  0  0  0  0  0  0  0  0
  -33.6339   -3.9542    0.0000 C   0  0  0  0  0  0  0  0  0  0  0  0
  -33.8199   -4.7323    0.0000 C   0  0  0  0  0  0  0  0  0  0  0  0
  -34.5868   -4.9602    0.0000 C   0  0  0  0  0  0  0  0  0  0  0  0
  -32.2227   -6.2452    0.0000 O   0  0  0  0  0  0  0  0  0  0  0  0
  -30.1327    0.3639    0.0000 S   0  0  0  0  0  0  0  0  0  0  0  0
  -28.6592   -1.7759    0.0000 N   0  0  0  0  0  0  0  0  0  0  0  0
  -27.4238   -0.9252    0.0000 C   0  0  0  0  0  0  0  0  0  0  0  0
  -26.0693   -1.5697    0.0000 C   0  0  0  0  0  0  0  0  0  0  0  0
  -24.8339   -0.7190    0.0000 C   0  0  0  0  0  0  0  0  0  0  0  0
  -24.9530    0.7763    0.0000 O   0  0  0  0  0  0  0  0  0  0  0  0
  -23.4795   -1.3635    0.0000 N   0  0  0  0  0  0  0  0  0  0  0  0
  -22.2440   -0.5127    0.0000 C   0  0  0  0  0  0  0  0  0  0  0  0
  -21.3741    0.7092    0.0000 C   0  0  0  0  0  0  0  0  0  0  0  0
  -19.8809    0.5668    0.0000 C   0  0  0  0  0  0  0  0  0  0  0  0
  -19.0109    1.7888    0.0000 O   0  0  0  0  0  0  0  0  0  0  0  0
  -18.9460   -0.6062    0.0000 O   0  0  0  0  0  0  0  0  0  0  0  0
  -20.8896   -1.1573    0.0000 C   0  0  0  0  0  0  0  0  0  0  0  0
  -20.7705   -2.6525    0.0000 O   0  0  0  0  0  0  0  0  0  0  0  0
  -19.6542   -0.3065    0.0000 N   0  0  0  0  0  0  0  0  0  0  0  0
  -18.2997   -0.9511    0.0000 C   0  0  0  0  0  0  0  0  0  0  0  0
  -17.2474   -2.0200    0.0000 C   0  0  0  0  0  0  0  0  0  0  0  0
  -15.7955   -1.6431    0.0000 C   0  0  0  0  0  0  0  0  0  0  0  0
  -14.7431   -2.7120    0.0000 C   0  0  0  0  0  0  0  0  0  0  0  0
  -13.2913   -2.3351    0.0000 N   0  0  0  0  0  0  0  0  0  0  0  0
  -12.2389   -3.4040    0.0000 C   0  0  0  0  0  0  0  0  0  0  0  0
  -10.8438   -2.8530    0.0000 N   0  0  0  0  0  0  0  0  0  0  0  0
  -12.6385   -4.8498    0.0000 N   0  0  0  0  0  0  0  0  0  0  0  0
  -17.0643   -0.1003    0.0000 C   0  0  0  0  0  0  0  0  0  0  0  0
  -17.1833    1.3949    0.0000 O   0  0  0  0  0  0  0  0  0  0  0  0
  -15.7098   -0.7449    0.0000 N   0  0  0  0  0  0  0  0  0  0  0  0
  -14.4744    0.1059    0.0000 C   0  0  0  0  0  0  0  0  0  0  0  0
  -13.6045    1.3279    0.0000 C   0  0  0  0  0  0  0  0  0  0  0  0
  -12.1112    1.1854    0.0000 C   0  0  0  0  0  0  0  0  0  0  0  0
  -11.2413    2.4074    0.0000 C   0  0  0  0  0  0  0  0  0  0  0  0
   -9.7481    2.2650    0.0000 N   0  0  0  0  0  0  0  0  0  0  0  0
   -8.8781    3.4870    0.0000 C   0  0  0  0  0  0  0  0  0  0  0  0
   -7.4134    3.1636    0.0000 N   0  0  0  0  0  0  0  0  0  0  0  0
   -9.5014    4.8514    0.0000 N   0  0  0  0  0  0  0  0  0  0  0  0
  -13.1199   -0.5386    0.0000 C   0  0  0  0  0  0  0  0  0  0  0  0
  -12.6426   -1.9607    0.0000 O   0  0  0  0  0  0  0  0  0  0  0  0
  -11.8845    0.3121    0.0000 N   0  0  0  0  0  0  0  0  0  0  0  0
  -10.5301   -0.3324    0.0000 C   0  0  0  0  0  0  0  0  0  0  0  0
   -9.4777   -1.4014    0.0000 C   0  0  0  0  0  0  0  0  0  0  0  0
   -8.0258   -1.0245    0.0000 C   0  0  0  0  0  0  0  0  0  0  0  0
   -6.9735   -2.0934    0.0000 C   0  0  0  0  0  0  0  0  0  0  0  0
   -5.4865   -1.8963    0.0000 N   0  0  0  0  0  0  0  0  0  0  0  0
   -7.3730   -3.5392    0.0000 O   0  0  0  0  0  0  0  0  0  0  0  0
   -9.2946    0.5183    0.0000 C   0  0  0  0  0  0  0  0  0  0  0  0
   -9.0483    1.9979    0.0000 O   0  0  0  0  0  0  0  0  0  0  0  0
   -7.9402   -0.1262    0.0000 N   0  0  0  0  0  0  0  0  0  0  0  0
   -6.7048    0.7245    0.0000 C   0  0  0  0  0  0  0  0  0  0  0  0
   -5.8348    1.9465    0.0000 C   0  0  0  0  0  0  0  0  0  0  0  0
   -4.3416    1.8041    0.0000 C   0  0  0  0  0  0  0  0  0  0  0  0
   -3.4717    3.0260    0.0000 C   0  0  0  0  0  0  0  0  0  0  0  0
   -1.9784    2.8836    0.0000 N   0  0  0  0  0  0  0  0  0  0  0  0
   -1.1085    4.1056    0.0000 C   0  0  0  0  0  0  0  0  0  0  0  0
    0.3562    3.7822    0.0000 N   0  0  0  0  0  0  0  0  0  0  0  0
   -1.7318    5.4700    0.0000 N   0  0  0  0  0  0  0  0  0  0  0  0
   -5.3503    0.0800    0.0000 C   0  0  0  0  0  0  0  0  0  0  0  0
   -5.0499   -1.3896    0.0000 O   0  0  0  0  0  0  0  0  0  0  0  0
   -4.1149    0.9307    0.0000 N   0  0  0  0  0  0  0  0  0  0  0  0
   -2.7604    0.2862    0.0000 C   0  0  0  0  0  0  0  0  0  0  0  0
   -1.7081   -0.7827    0.0000 C   0  0  0  0  0  0  0  0  0  0  0  0
   -0.2562   -0.4058    0.0000 C   0  0  0  0  0  0  0  0  0  0  0  0
    0.7961   -1.4747    0.0000 C   0  0  0  0  0  0  0  0  0  0  0  0
    2.2480   -1.0978    0.0000 N   0  0  0  0  0  0  0  0  0  0  0  0
    3.3004   -2.1668    0.0000 C   0  0  0  0  0  0  0  0  0  0  0  0
    4.7909   -2.3353    0.0000 N   0  0  0  0  0  0  0  0  0  0  0  0
    2.9008   -3.6126    0.0000 N   0  0  0  0  0  0  0  0  0  0  0  0
   -1.5250    1.1369    0.0000 C   0  0  0  0  0  0  0  0  0  0  0  0
   -1.2787    2.6166    0.0000 O   0  0  0  0  0  0  0  0  0  0  0  0
   -0.1705    0.4924    0.0000 N   0  0  0  0  0  0  0  0  0  0  0  0
    1.0649    1.3431    0.0000 C   0  0  0  0  0  0  0  0  0  0  0  0
    1.9348    2.5651    0.0000 C   0  0  0  0  0  0  0  0  0  0  0  0
    3.4280    2.4227    0.0000 C   0  0  0  0  0  0  0  0  0  0  0  0
    4.2980    3.6447    0.0000 C   0  0  0  0  0  0  0  0  0  0  0  0
    5.7912    3.5023    0.0000 N   0  0  0  0  0  0  0  0  0  0  0  0
    6.6611    4.7242    0.0000 C   0  0  0  0  0  0  0  0  0  0  0  0
    8.1544    4.5818    0.0000 N   0  0  0  0  0  0  0  0  0  0  0  0
    6.3865    6.1989    0.0000 N   0  0  0  0  0  0  0  0  0  0  0  0
    2.4193    0.6986    0.0000 C   0  0  0  0  0  0  0  0  0  0  0  0
    2.7198   -0.7710    0.0000 O   0  0  0  0  0  0  0  0  0  0  0  0
    3.6548    1.5493    0.0000 N   0  0  0  0  0  0  0  0  0  0  0  0
    5.0092    0.9048    0.0000 C   0  0  0  0  0  0  0  0  0  0  0  0
    5.4222   -0.5372    0.0000 C   0  0  0  0  0  0  0  0  0  0  0  0
    6.2419   -1.7935    0.0000 C   0  0  0  0  0  0  0  0  0  0  0  0
    7.3954   -2.7523    0.0000 C   0  0  0  0  0  0  0  0  0  0  0  0
    8.7803   -3.3285    0.0000 C   0  0  0  0  0  0  0  0  0  0  0  0
    3.7550    0.0820    0.0000 C   0  0  0  0  0  0  0  0  0  0  0  0
    5.0396    2.4045    0.0000 C   0  0  0  0  0  0  0  0  0  0  0  0
    3.7504    3.1712    0.0000 O   0  0  0  0  0  0  0  0  0  0  0  0
    5.5107    3.8286    0.0000 N   0  0  0  0  0  0  0  0  0  0  0  0
    6.3807    5.0506    0.0000 C   0  0  0  0  0  0  0  0  0  0  0  0
    6.0401    6.5114    0.0000 C   0  0  0  0  0  0  0  0  0  0  0  0
    4.6047    6.9469    0.0000 C   0  0  0  0  0  0  0  0  0  0  0  0
    4.2641    8.4077    0.0000 C   0  0  0  0  0  0  0  0  0  0  0  0
    2.8287    8.8431    0.0000 N   0  0  0  0  0  0  0  0  0  0  0  0
    2.4881   10.3040    0.0000 C   0  0  0  0  0  0  0  0  0  0  0  0
    1.0527   10.7394    0.0000 N   0  0  0  0  0  0  0  0  0  0  0  0
    3.5830   11.3293    0.0000 N   0  0  0  0  0  0  0  0  0  0  0  0
    7.5722    5.9618    0.0000 C   0  0  0  0  0  0  0  0  0  0  0  0
    7.0142    7.3542    0.0000 O   0  0  0  0  0  0  0  0  0  0  0  0
    8.9793    6.4814    0.0000 N   0  0  0  0  0  0  0  0  0  0  0  0
   10.4771    6.5632    0.0000 C   0  0  0  0  0  0  0  0  0  0  0  0
   11.4068    7.7402    0.0000 C   0  0  0  0  0  0  0  0  0  0  0  0
   10.8523    9.1340    0.0000 C   0  0  0  0  0  0  0  0  0  0  0  0
   11.7821   10.3111    0.0000 C   0  0  0  0  0  0  0  0  0  0  0  0
   11.2276   11.7048    0.0000 N   0  0  0  0  0  0  0  0  0  0  0  0
   13.2664   10.0944    0.0000 O   0  0  0  0  0  0  0  0  0  0  0  0
   11.9324    6.1998    0.0000 C   0  0  0  0  0  0  0  0  0  0  0  0
   12.5086    7.5847    0.0000 O   0  0  0  0  0  0  0  0  0  0  0  0
   13.2159    5.4236    0.0000 N   0  0  0  0  0  0  0  0  0  0  0  0
   14.2137    4.3036    0.0000 C   0  0  0  0  0  0  0  0  0  0  0  0
   15.7137    4.3105    0.0000 C   0  0  0  0  0  0  0  0  0  0  0  0
   16.4576    5.6131    0.0000 C   0  0  0  0  0  0  0  0  0  0  0  0
   17.9576    5.6200    0.0000 C   0  0  0  0  0  0  0  0  0  0  0  0
   18.7016    6.9225    0.0000 N   0  0  0  0  0  0  0  0  0  0  0  0
   20.2015    6.9295    0.0000 C   0  0  0  0  0  0  0  0  0  0  0  0
   20.9455    8.2320    0.0000 N   0  0  0  0  0  0  0  0  0  0  0  0
   20.9576    5.6340    0.0000 N   0  0  0  0  0  0  0  0  0  0  0  0
   14.8370    2.9392    0.0000 C   0  0  0  0  0  0  0  0  0  0  0  0
   16.2790    3.3522    0.0000 O   0  0  0  0  0  0  0  0  0  0  0  0
   15.0304    1.4517    0.0000 N   0  0  0  0  0  0  0  0  0  0  0  0
   14.7768   -0.0267    0.0000 C   0  0  0  0  0  0  0  0  0  0  0  0
   14.0987   -1.3647    0.0000 C   0  0  0  0  0  0  0  0  0  0  0  0
   13.0564   -2.4433    0.0000 C   0  0  0  0  0  0  0  0  0  0  0  0
   11.7424   -3.1668    0.0000 C   0  0  0  0  0  0  0  0  0  0  0  0
   10.2735   -3.4709    0.0000 C   0  0  0  0  0  0  0  0  0  0  0  0
   16.2287    0.3502    0.0000 C   0  0  0  0  0  0  0  0  0  0  0  0
   15.7175   -1.1951    0.0000 C   0  0  0  0  0  0  0  0  0  0  0  0
   15.5306   -2.6834    0.0000 O   0  0  0  0  0  0  0  0  0  0  0  0
   17.1997   -0.9646    0.0000 N   0  0  0  0  0  0  0  0  0  0  0  0
   18.1404   -2.1330    0.0000 C   0  0  0  0  0  0  0  0  0  0  0  0
   18.6247   -3.5527    0.0000 C   0  0  0  0  0  0  0  0  0  0  0  0
   17.6374   -4.6819    0.0000 C   0  0  0  0  0  0  0  0  0  0  0  0
   18.1218   -6.1016    0.0000 C   0  0  0  0  0  0  0  0  0  0  0  0
   17.1345   -7.2309    0.0000 N   0  0  0  0  0  0  0  0  0  0  0  0
   17.6188   -8.6505    0.0000 C   0  0  0  0  0  0  0  0  0  0  0  0
   16.6316   -9.7798    0.0000 N   0  0  0  0  0  0  0  0  0  0  0  0
   19.0905   -8.9409    0.0000 N   0  0  0  0  0  0  0  0  0  0  0  0
   19.6226   -1.9025    0.0000 C   0  0  0  0  0  0  0  0  0  0  0  0
   20.1641   -0.5037    0.0000 O   0  0  0  0  0  0  0  0  0  0  0  0
   20.5633   -3.0709    0.0000 N   0  0  0  0  0  0  0  0  0  0  0  0
   22.0454   -2.8405    0.0000 C   0  0  0  0  0  0  0  0  0  0  0  0
   23.3594   -2.1170    0.0000 C   0  0  0  0  0  0  0  0  0  0  0  0
   24.6430   -2.8931    0.0000 C   0  0  0  0  0  0  0  0  0  0  0  0
   25.9570   -2.1696    0.0000 C   0  0  0  0  0  0  0  0  0  0  0  0
   27.2405   -2.9458    0.0000 N   0  0  0  0  0  0  0  0  0  0  0  0
   28.5545   -2.2223    0.0000 C   0  0  0  0  0  0  0  0  0  0  0  0
   29.8381   -2.9985    0.0000 N   0  0  0  0  0  0  0  0  0  0  0  0
   28.5849   -0.7226    0.0000 N   0  0  0  0  0  0  0  0  0  0  0  0
   22.9861   -4.0088    0.0000 C   0  0  0  0  0  0  0  0  0  0  0  0
   22.4446   -5.4077    0.0000 O   0  0  0  0  0  0  0  0  0  0  0  0
   24.4683   -3.7784    0.0000 N   0  0  0  0  0  0  0  0  0  0  0  0
   25.4090   -4.9468    0.0000 C   0  0  0  0  0  0  0  0  0  0  0  0
   25.8933   -6.3664    0.0000 C   0  0  0  0  0  0  0  0  0  0  0  0
   24.9061   -7.4957    0.0000 C   0  0  0  0  0  0  0  0  0  0  0  0
   25.3904   -8.9153    0.0000 C   0  0  0  0  0  0  0  0  0  0  0  0
   24.4031  -10.0446    0.0000 N   0  0  0  0  0  0  0  0  0  0  0  0
   24.8875  -11.4643    0.0000 C   0  0  0  0  0  0  0  0  0  0  0  0
   23.9002  -12.5935    0.0000 N   0  0  0  0  0  0  0  0  0  0  0  0
   26.3591  -11.7546    0.0000 N   0  0  0  0  0  0  0  0  0  0  0  0
   26.8912   -4.7163    0.0000 C   0  0  0  0  0  0  0  0  0  0  0  0
   27.9673   -5.7613    0.0000 O   0  0  0  0  0  0  0  0  0  0  0  0
   27.7551   -3.4900    0.0000 O   0  0  0  0  0  0  0  0  0  0  0  0
  -30.9487   -3.4517    0.0000 H   0  0  0  0  0  0  0  0  0  0  0  0
  -31.4872    1.0084    0.0000 H   0  0  0  0  0  0  0  0  0  0  0  0
  -34.1961    2.2975    0.0000 H   0  0  0  0  0  0  0  0  0  0  0  0
  -33.3616   -3.6103    0.0000 H   0  0  0  0  0  0  0  0  0  0  0  0
  -40.1521   -5.8915    0.0000 H   0  0  0  0  0  0  0  0  0  0  0  0
  -41.6324   -0.9107    0.0000 H   0  0  0  0  0  0  0  0  0  0  0  0
  -38.7567   -0.0560    0.0000 H   0  0  0  0  0  0  0  0  0  0  0  0
  -43.4191   -2.7969    0.0000 H   0  0  0  0  0  0  0  0  0  0  0  0
  -33.7031   -1.2644    0.0000 H   0  0  0  0  0  0  0  0  0  0  0  0
  -31.4837   -3.5059    0.0000 H   0  0  0  0  0  0  0  0  0  0  0  0
  -35.0984   -7.0999    0.0000 H   0  0  0  0  0  0  0  0  0  0  0  0
  -32.5716   -7.7041    0.0000 H   0  0  0  0  0  0  0  0  0  0  0  0
  -28.5402   -3.2712    0.0000 H   0  0  0  0  0  0  0  0  0  0  0  0
  -26.5539    0.2968    0.0000 H   0  0  0  0  0  0  0  0  0  0  0  0
  -28.4761    0.1438    0.0000 H   0  0  0  0  0  0  0  0  0  0  0  0
  -25.0170   -2.6386    0.0000 H   0  0  0  0  0  0  0  0  0  0  0  0
  -26.9393   -2.7917    0.0000 H   0  0  0  0  0  0  0  0  0  0  0  0
  -23.3604   -2.8587    0.0000 H   0  0  0  0  0  0  0  0  0  0  0  0
  -23.2964    0.5562    0.0000 H   0  0  0  0  0  0  0  0  0  0  0  0
  -20.9746    2.1550    0.0000 H   0  0  0  0  0  0  0  0  0  0  0  0
  -22.7286    1.3538    0.0000 H   0  0  0  0  0  0  0  0  0  0  0  0
  -17.8802   -1.2160    0.0000 H   0  0  0  0  0  0  0  0  0  0  0  0
  -19.4079    1.1731    0.0000 H   0  0  0  0  0  0  0  0  0  0  0  0
  -19.1696   -2.1730    0.0000 H   0  0  0  0  0  0  0  0  0  0  0  0
  -16.7950   -3.4502    0.0000 H   0  0  0  0  0  0  0  0  0  0  0  0
  -18.4828   -2.8707    0.0000 H   0  0  0  0  0  0  0  0  0  0  0  0
  -14.5601   -0.7923    0.0000 H   0  0  0  0  0  0  0  0  0  0  0  0
  -15.7051   -0.1458    0.0000 H   0  0  0  0  0  0  0  0  0  0  0  0
  -14.1199   -4.0764    0.0000 H   0  0  0  0  0  0  0  0  0  0  0  0
  -15.8656   -3.7070    0.0000 H   0  0  0  0  0  0  0  0  0  0  0  0
  -12.4000   -1.1286    0.0000 H   0  0  0  0  0  0  0  0  0  0  0  0
   -9.7347   -4.0960    0.0000 H   0  0  0  0  0  0  0  0  0  0  0  0
  -11.5861   -5.9187    0.0000 H   0  0  0  0  0  0  0  0  0  0  0  0
  -14.0903   -5.2267    0.0000 H   0  0  0  0  0  0  0  0  0  0  0  0
  -15.2325   -2.1669    0.0000 H   0  0  0  0  0  0  0  0  0  0  0  0
  -15.5267    1.1748    0.0000 H   0  0  0  0  0  0  0  0  0  0  0  0
  -13.3841    2.8116    0.0000 H   0  0  0  0  0  0  0  0  0  0  0  0
  -14.9589    1.9724    0.0000 H   0  0  0  0  0  0  0  0  0  0  0  0
  -10.7568    0.5409    0.0000 H   0  0  0  0  0  0  0  0  0  0  0  0
  -11.6091   -0.2280    0.0000 H   0  0  0  0  0  0  0  0  0  0  0  0
  -10.8418    3.8532    0.0000 H   0  0  0  0  0  0  0  0  0  0  0  0
  -12.5071    3.2122    0.0000 H   0  0  0  0  0  0  0  0  0  0  0  0
   -8.6772    1.2147    0.0000 H   0  0  0  0  0  0  0  0  0  0  0  0
   -6.5150    4.5665    0.0000 H   0  0  0  0  0  0  0  0  0  0  0  0
   -8.6315    6.0733    0.0000 H   0  0  0  0  0  0  0  0  0  0  0  0
  -10.9947    4.9938    0.0000 H   0  0  0  0  0  0  0  0  0  0  0  0
  -11.6382    1.7917    0.0000 H   0  0  0  0  0  0  0  0  0  0  0  0
  -11.4000   -1.5544    0.0000 H   0  0  0  0  0  0  0  0  0  0  0  0
   -8.8544   -2.7657    0.0000 H   0  0  0  0  0  0  0  0  0  0  0  0
  -10.8076   -2.0952    0.0000 H   0  0  0  0  0  0  0  0  0  0  0  0
   -6.7904   -0.1737    0.0000 H   0  0  0  0  0  0  0  0  0  0  0  0
   -7.7536    0.4506    0.0000 H   0  0  0  0  0  0  0  0  0  0  0  0
   -4.4693   -2.7854    0.0000 H   0  0  0  0  0  0  0  0  0  0  0  0
   -4.5636   -0.5093    0.0000 H   0  0  0  0  0  0  0  0  0  0  0  0
   -7.4628   -1.5483    0.0000 H   0  0  0  0  0  0  0  0  0  0  0  0
   -7.7571    1.7934    0.0000 H   0  0  0  0  0  0  0  0  0  0  0  0
   -5.6145    3.4302    0.0000 H   0  0  0  0  0  0  0  0  0  0  0  0
   -7.2578    2.4211    0.0000 H   0  0  0  0  0  0  0  0  0  0  0  0
   -2.9871    1.1595    0.0000 H   0  0  0  0  0  0  0  0  0  0  0  0
   -3.8394    0.3906    0.0000 H   0  0  0  0  0  0  0  0  0  0  0  0
   -3.0721    4.4719    0.0000 H   0  0  0  0  0  0  0  0  0  0  0  0
   -4.7375    3.8309    0.0000 H   0  0  0  0  0  0  0  0  0  0  0  0
   -0.9075    1.8333    0.0000 H   0  0  0  0  0  0  0  0  0  0  0  0
    1.2547    5.1852    0.0000 H   0  0  0  0  0  0  0  0  0  0  0  0
   -0.8618    6.6919    0.0000 H   0  0  0  0  0  0  0  0  0  0  0  0
   -3.2250    5.6124    0.0000 H   0  0  0  0  0  0  0  0  0  0  0  0
   -3.8686    2.4104    0.0000 H   0  0  0  0  0  0  0  0  0  0  0  0
   -3.6304   -0.9358    0.0000 H   0  0  0  0  0  0  0  0  0  0  0  0
   -1.2558   -2.2129    0.0000 H   0  0  0  0  0  0  0  0  0  0  0  0
   -2.9435   -1.6335    0.0000 H   0  0  0  0  0  0  0  0  0  0  0  0
    0.9792    0.4449    0.0000 H   0  0  0  0  0  0  0  0  0  0  0  0
    0.0160    1.0693    0.0000 H   0  0  0  0  0  0  0  0  0  0  0  0
    1.4194   -2.8391    0.0000 H   0  0  0  0  0  0  0  0  0  0  0  0
   -0.3264   -2.4697    0.0000 H   0  0  0  0  0  0  0  0  0  0  0  0
    3.1392    0.1087    0.0000 H   0  0  0  0  0  0  0  0  0  0  0  0
    5.6038   -3.0808    0.0000 H   0  0  0  0  0  0  0  0  0  0  0  0
    3.9532   -4.6815    0.0000 H   0  0  0  0  0  0  0  0  0  0  0  0
    1.4489   -3.9895    0.0000 H   0  0  0  0  0  0  0  0  0  0  0  0
    0.3068   -0.9296    0.0000 H   0  0  0  0  0  0  0  0  0  0  0  0
    0.0125    2.4120    0.0000 H   0  0  0  0  0  0  0  0  0  0  0  0
    2.1551    4.0488    0.0000 H   0  0  0  0  0  0  0  0  0  0  0  0
    0.5119    3.0397    0.0000 H   0  0  0  0  0  0  0  0  0  0  0  0
    4.8982    2.1251    0.0000 H   0  0  0  0  0  0  0  0  0  0  0  0
    3.7542    0.9586    0.0000 H   0  0  0  0  0  0  0  0  0  0  0  0
    4.1527    5.1376    0.0000 H   0  0  0  0  0  0  0  0  0  0  0  0
    3.0322    4.4495    0.0000 H   0  0  0  0  0  0  0  0  0  0  0  0
    6.4145    2.1379    0.0000 H   0  0  0  0  0  0  0  0  0  0  0  0
    9.2941    5.5570    0.0000 H   0  0  0  0  0  0  0  0  0  0  0  0
    6.7684    7.3658    0.0000 H   0  0  0  0  0  0  0  0  0  0  0  0
    4.6555    5.5687    0.0000 H   0  0  0  0  0  0  0  0  0  0  0  0
    3.7189    3.0480    0.0000 H   0  0  0  0  0  0  0  0  0  0  0  0
    3.9226   -0.5031    0.0000 H   0  0  0  0  0  0  0  0  0  0  0  0
    4.7743   -1.8901    0.0000 H   0  0  0  0  0  0  0  0  0  0  0  0
    4.9408   -2.5399    0.0000 H   0  0  0  0  0  0  0  0  0  0  0  0
    5.8423   -3.2393    0.0000 H   0  0  0  0  0  0  0  0  0  0  0  0
    6.2461   -3.7161    0.0000 H   0  0  0  0  0  0  0  0  0  0  0  0
    7.4398   -4.2516    0.0000 H   0  0  0  0  0  0  0  0  0  0  0  0
    8.4170   -4.7838    0.0000 H   0  0  0  0  0  0  0  0  0  0  0  0
    3.9314   -1.5745    0.0000 H   0  0  0  0  0  0  0  0  0  0  0  0
    2.3860   -0.4212    0.0000 H   0  0  0  0  0  0  0  0  0  0  0  0
    2.7398    0.9228    0.0000 H   0  0  0  0  0  0  0  0  0  0  0  0
    4.2654    4.6647    0.0000 H   0  0  0  0  0  0  0  0  0  0  0  0
    4.9091    5.3409    0.0000 H   0  0  0  0  0  0  0  0  0  0  0  0
    6.3999    7.9676    0.0000 H   0  0  0  0  0  0  0  0  0  0  0  0
    7.4736    6.9531    0.0000 H   0  0  0  0  0  0  0  0  0  0  0  0
    3.1069    6.8651    0.0000 H   0  0  0  0  0  0  0  0  0  0  0  0
    3.9032    5.6210    0.0000 H   0  0  0  0  0  0  0  0  0  0  0  0
    4.4437    9.8969    0.0000 H   0  0  0  0  0  0  0  0  0  0  0  0
    5.7408    8.6714    0.0000 H   0  0  0  0  0  0  0  0  0  0  0  0
    1.7339    7.8178    0.0000 H   0  0  0  0  0  0  0  0  0  0  0  0
    0.7121   12.2002    0.0000 H   0  0  0  0  0  0  0  0  0  0  0  0
    3.2424   12.7901    0.0000 H   0  0  0  0  0  0  0  0  0  0  0  0
    5.0184   10.8939    0.0000 H   0  0  0  0  0  0  0  0  0  0  0  0
    8.6752    7.9503    0.0000 H   0  0  0  0  0  0  0  0  0  0  0  0
    9.6294    7.8007    0.0000 H   0  0  0  0  0  0  0  0  0  0  0  0
   12.6831    8.5283    0.0000 H   0  0  0  0  0  0  0  0  0  0  0  0
   12.6460    6.8949    0.0000 H   0  0  0  0  0  0  0  0  0  0  0  0
    9.8546   10.2540    0.0000 H   0  0  0  0  0  0  0  0  0  0  0  0
    9.4895    8.5073    0.0000 H   0  0  0  0  0  0  0  0  0  0  0  0
   12.1574   12.8819    0.0000 H   0  0  0  0  0  0  0  0  0  0  0  0
    9.7433   11.9215    0.0000 H   0  0  0  0  0  0  0  0  0  0  0  0
   14.1748    6.5771    0.0000 H   0  0  0  0  0  0  0  0  0  0  0  0
   14.6527    5.7379    0.0000 H   0  0  0  0  0  0  0  0  0  0  0  0
   17.0533    3.6357    0.0000 H   0  0  0  0  0  0  0  0  0  0  0  0
   15.8254    2.8147    0.0000 H   0  0  0  0  0  0  0  0  0  0  0  0
   16.7112    7.0915    0.0000 H   0  0  0  0  0  0  0  0  0  0  0  0
   15.1180    6.2878    0.0000 H   0  0  0  0  0  0  0  0  0  0  0  0
   19.3695    5.1136    0.0000 H   0  0  0  0  0  0  0  0  0  0  0  0
   17.8861    4.1217    0.0000 H   0  0  0  0  0  0  0  0  0  0  0  0
   17.9455    8.2181    0.0000 H   0  0  0  0  0  0  0  0  0  0  0  0
   22.4455    8.2390    0.0000 H   0  0  0  0  0  0  0  0  0  0  0  0
   22.4576    5.6410    0.0000 H   0  0  0  0  0  0  0  0  0  0  0  0
   20.2136    4.3315    0.0000 H   0  0  0  0  0  0  0  0  0  0  0  0
   16.5301    1.4213    0.0000 H   0  0  0  0  0  0  0  0  0  0  0  0
   14.6532   -2.7584    0.0000 H   0  0  0  0  0  0  0  0  0  0  0  0
   15.5363   -1.7930    0.0000 H   0  0  0  0  0  0  0  0  0  0  0  0
   13.3568   -3.9129    0.0000 H   0  0  0  0  0  0  0  0  0  0  0  0
   14.3038   -3.2764    0.0000 H   0  0  0  0  0  0  0  0  0  0  0  0
   11.4154   -4.6308    0.0000 H   0  0  0  0  0  0  0  0  0  0  0  0
   12.8236   -4.2065    0.0000 H   0  0  0  0  0  0  0  0  0  0  0  0
   10.3553   -4.9687    0.0000 H   0  0  0  0  0  0  0  0  0  0  0  0
   17.5084   -0.4323    0.0000 H   0  0  0  0  0  0  0  0  0  0  0  0
   17.3512    1.3452    0.0000 H   0  0  0  0  0  0  0  0  0  0  0  0
   15.9541    1.8248    0.0000 H   0  0  0  0  0  0  0  0  0  0  0  0
   17.9077    0.3578    0.0000 H   0  0  0  0  0  0  0  0  0  0  0  0
   16.7480   -2.6909    0.0000 H   0  0  0  0  0  0  0  0  0  0  0  0
   19.5654   -4.7210    0.0000 H   0  0  0  0  0  0  0  0  0  0  0  0
   20.0747   -3.1686    0.0000 H   0  0  0  0  0  0  0  0  0  0  0  0
   16.3235   -5.4054    0.0000 H   0  0  0  0  0  0  0  0  0  0  0  0
   16.5614   -3.6369    0.0000 H   0  0  0  0  0  0  0  0  0  0  0  0
   19.0625   -7.2700    0.0000 H   0  0  0  0  0  0  0  0  0  0  0  0
   19.5142   -5.5436    0.0000 H   0  0  0  0  0  0  0  0  0  0  0  0
   15.6629   -6.9405    0.0000 H   0  0  0  0  0  0  0  0  0  0  0  0
   17.1159  -11.1994    0.0000 H   0  0  0  0  0  0  0  0  0  0  0  0
   19.5748  -10.3605    0.0000 H   0  0  0  0  0  0  0  0  0  0  0  0
   20.0778   -7.8116    0.0000 H   0  0  0  0  0  0  0  0  0  0  0  0
   20.1963   -4.5253    0.0000 H   0  0  0  0  0  0  0  0  0  0  0  0
   21.5611   -1.4208    0.0000 H   0  0  0  0  0  0  0  0  0  0  0  0
   24.2017   -0.8757    0.0000 H   0  0  0  0  0  0  0  0  0  0  0  0
   22.4187   -0.9486    0.0000 H   0  0  0  0  0  0  0  0  0  0  0  0
   25.5837   -4.0615    0.0000 H   0  0  0  0  0  0  0  0  0  0  0  0
   24.3016   -4.3538    0.0000 H   0  0  0  0  0  0  0  0  0  0  0  0
   26.9443   -1.0404    0.0000 H   0  0  0  0  0  0  0  0  0  0  0  0
   25.1657   -0.8953    0.0000 H   0  0  0  0  0  0  0  0  0  0  0  0
   27.5739   -4.4083    0.0000 H   0  0  0  0  0  0  0  0  0  0  0  0
   31.1521   -2.2750    0.0000 H   0  0  0  0  0  0  0  0  0  0  0  0
   29.8989    0.0009    0.0000 H   0  0  0  0  0  0  0  0  0  0  0  0
   27.3014    0.0536    0.0000 H   0  0  0  0  0  0  0  0  0  0  0  0
   25.3322   -2.5521    0.0000 H   0  0  0  0  0  0  0  0  0  0  0  0
   24.0166   -5.5047    0.0000 H   0  0  0  0  0  0  0  0  0  0  0  0
   26.9694   -7.4114    0.0000 H   0  0  0  0  0  0  0  0  0  0  0  0
   27.2857   -5.8085    0.0000 H   0  0  0  0  0  0  0  0  0  0  0  0
   23.5921   -8.2192    0.0000 H   0  0  0  0  0  0  0  0  0  0  0  0
   23.8300   -6.4507    0.0000 H   0  0  0  0  0  0  0  0  0  0  0  0
   26.3311  -10.0837    0.0000 H   0  0  0  0  0  0  0  0  0  0  0  0
   26.7828   -8.3574    0.0000 H   0  0  0  0  0  0  0  0  0  0  0  0
   22.9315   -9.7542    0.0000 H   0  0  0  0  0  0  0  0  0  0  0  0
   24.3845  -14.0132    0.0000 H   0  0  0  0  0  0  0  0  0  0  0  0
   26.8434  -13.1743    0.0000 H   0  0  0  0  0  0  0  0  0  0  0  0
   27.3464  -10.6254    0.0000 H   0  0  0  0  0  0  0  0  0  0  0  0
   28.9149   -3.0870    0.0000 H   0  0  0  0  0  0  0  0  0  0  0  0
  1  2  1  0
  2  3  1  0
  3  4  2  0
  4  5  1  0
  5  6  2  0
  6  7  1  0
  7  8  2  0
  7  9  1  0
  9 10  1  0
 10 11  1  0
 11 12  2  0
  9 13  1  0
 13 14  1  0
 14 15  2  0
 15 16  1  0
 16 17  2  0
 17 18  1  0
 16 19  1  0
 14 20  1  0
 20 21  1  0
 21 22  2  0
 22 23  1  0
 23 24  2  0
 24 25  1  0
 25 26  2  0
 25 27  1  0
  1 28  2  0
  1 29  1  0
 29 30  1  0
 30 31  1  0
 31 32  1  0
 32 33  2  0
 32 34  1  0
 34 35  1  0
 35 36  1  0
 36 37  1  0
 37 38  2  0
 37 39  1  0
 35 40  1  0
 40 41  2  0
 40 42  1  0
 42 43  1  0
 43 44  1  0
 44 45  1  0
 45 46  1  0
 46 47  1  0
 47 48  1  0
 48 49  2  3
 48 50  1  0
 43 51  1  0
 51 52  2  0
 51 53  1  0
 53 54  1  0
 54 55  1  0
 55 56  1  0
 56 57  1  0
 57 58  1  0
 58 59  1  0
 59 60  2  3
 59 61  1  0
 54 62  1  0
 62 63  2  0
 62 64  1  0
 64 65  1  0
 65 66  1  0
 66 67  1  0
 67 68  1  0
 68 69  1  0
 68 70  2  0
 65 71  1  0
 71 72  2  0
 71 73  1  0
 73 74  1  0
 74 75  1  0
 75 76  1  0
 76 77  1  0
 77 78  1  0
 78 79  1  0
 79 80  2  3
 79 81  1  0
 74 82  1  0
 82 83  2  0
 82 84  1  0
 84 85  1  0
 85 86  1  0
 86 87  1  0
 87 88  1  0
 88 89  1  0
 89 90  1  0
 90 91  2  3
 90 92  1  0
 85 93  1  0
 93 94  2  0
 93 95  1  0
 95 96  1  0
 96 97  1  0
 97 98  1  0
 98 99  1  0
 99100  1  0
100101  1  0
101102  2  3
101103  1  0
 96104  1  0
104105  2  0
104106  1  0
107106  1  6
107108  1  0
108109  1  0
109110  1  0
110111  1  0
107112  1  0
107113  1  0
113114  2  0
113115  1  0
115116  1  0
116117  1  0
117118  1  0
118119  1  0
119120  1  0
120121  1  0
121122  2  3
121123  1  0
116124  1  0
124125  2  0
124126  1  0
126127  1  0
127128  1  0
128129  1  0
129130  1  0
130131  1  0
130132  2  0
127133  1  0
133134  2  0
133135  1  0
135136  1  0
136137  1  0
137138  1  0
138139  1  0
139140  1  0
140141  1  0
141142  2  3
141143  1  0
136144  1  0
144145  2  0
144146  1  0
146147  1  0
147148  1  0
148149  1  0
149150  1  0
150151  1  0
147152  1  0
147153  1  6
153154  2  0
153155  1  0
155156  1  0
156157  1  0
157158  1  0
158159  1  0
159160  1  0
160161  1  0
161162  2  3
161163  1  0
156164  1  0
164165  2  0
164166  1  0
166167  1  0
167168  1  0
168169  1  0
169170  1  0
170171  1  0
171172  1  0
172173  2  3
172174  1  0
167175  1  0
175176  2  0
175177  1  0
177178  1  0
178179  1  0
179180  1  0
180181  1  0
181182  1  0
182183  1  0
183184  2  3
183185  1  0
178186  1  0
186187  2  0
186188  1  0
  8  3  1  0
 11  6  1  0
111151  2  0
 18 13  2  0
 22  9  1  0
 26 21  1  0
  2189  1  0
  4190  1  0
  5191  1  0
  8192  1  0
 15193  1  0
 17194  1  0
 18195  1  0
 19196  1  0
 23197  1  0
 24198  1  0
 26199  1  0
 27200  1  0
 29201  1  0
 30202  1  0
 30203  1  0
 31204  1  0
 31205  1  0
 34206  1  0
 35207  1  1
 36208  1  0
 36209  1  0
 39210  1  0
 42211  1  0
 43212  1  6
 44213  1  0
 44214  1  0
 45215  1  0
 45216  1  0
 46217  1  0
 46218  1  0
 47219  1  0
 49220  1  0
 50221  1  0
 50222  1  0
 53223  1  0
 54224  1  1
 55225  1  0
 55226  1  0
 56227  1  0
 56228  1  0
 57229  1  0
 57230  1  0
 58231  1  0
 60232  1  0
 61233  1  0
 61234  1  0
 64235  1  0
 65236  1  6
 66237  1  0
 66238  1  0
 67239  1  0
 67240  1  0
 69241  1  0
 69242  1  0
 73243  1  0
 74244  1  1
 75245  1  0
 75246  1  0
 76247  1  0
 76248  1  0
 77249  1  0
 77250  1  0
 78251  1  0
 80252  1  0
 81253  1  0
 81254  1  0
 84255  1  0
 85256  1  6
 86257  1  0
 86258  1  0
 87259  1  0
 87260  1  0
 88261  1  0
 88262  1  0
 89263  1  0
 91264  1  0
 92265  1  0
 92266  1  0
 95267  1  0
 96268  1  1
 97269  1  0
 97270  1  0
 98271  1  0
 98272  1  0
 99273  1  0
 99274  1  0
100275  1  0
102276  1  0
103277  1  0
103278  1  0
106279  1  0
108280  1  0
108281  1  0
109282  1  0
109283  1  0
110284  1  0
110285  1  0
111286  1  0
112287  1  0
112288  1  0
112289  1  0
115290  1  0
116291  1  1
117292  1  0
117293  1  0
118294  1  0
118295  1  0
119296  1  0
119297  1  0
120298  1  0
122299  1  0
123300  1  0
123301  1  0
126302  1  0
127303  1  1
128304  1  0
128305  1  0
129306  1  0
129307  1  0
131308  1  0
131309  1  0
135310  1  0
136311  1  1
137312  1  0
137313  1  0
138314  1  0
138315  1  0
139316  1  0
139317  1  0
140318  1  0
142319  1  0
143320  1  0
143321  1  0
146322  1  0
148323  1  0
148324  1  0
149325  1  0
149326  1  0
150327  1  0
150328  1  0
151329  1  0
152330  1  0
152331  1  0
152332  1  0
155333  1  0
156334  1  6
157335  1  0
157336  1  0
158337  1  0
158338  1  0
159339  1  0
159340  1  0
160341  1  0
162342  1  0
163343  1  0
163344  1  0
166345  1  0
167346  1  1
168347  1  0
168348  1  0
169349  1  0
169350  1  0
170351  1  0
170352  1  0
171353  1  0
173354  1  0
174355  1  0
174356  1  0
177357  1  0
178358  1  6
179359  1  0
179360  1  0
180361  1  0
180362  1  0
181363  1  0
181364  1  0
182365  1  0
184366  1  0
185367  1  0
185368  1  0
188369  1  0
M  END
