
     RDKit          2D

314316  0  0  0  0  0  0  0  0999 V2000
  -25.7612   -3.2621    0.0000 N   0  0  0  0  0  0  0  0  0  0  0  0
  -24.2802   -3.0242    0.0000 C   0  0  0  0  0  0  0  0  0  0  0  0
  -23.3337   -4.1878    0.0000 C   0  0  0  0  0  0  0  0  0  0  0  0
  -21.8527   -3.9499    0.0000 C   0  0  0  0  0  0  0  0  0  0  0  0
  -21.3182   -2.5484    0.0000 O   0  0  0  0  0  0  0  0  0  0  0  0
  -20.9062   -5.1136    0.0000 N   0  0  0  0  0  0  0  0  0  0  0  0
  -19.4251   -4.8757    0.0000 C   0  0  0  0  0  0  0  0  0  0  0  0
  -19.4480   -6.3755    0.0000 C   0  0  0  0  0  0  0  0  0  0  0  0
  -20.7584   -7.1056    0.0000 C   0  0  0  0  0  0  0  0  0  0  0  0
  -20.7813   -8.6054    0.0000 C   0  0  0  0  0  0  0  0  0  0  0  0
  -22.0916   -9.3355    0.0000 O   0  0  0  0  0  0  0  0  0  0  0  0
  -19.4938   -9.3752    0.0000 O   0  0  0  0  0  0  0  0  0  0  0  0
  -18.1148   -4.1456    0.0000 C   0  0  0  0  0  0  0  0  0  0  0  0
  -16.9308   -5.0665    0.0000 O   0  0  0  0  0  0  0  0  0  0  0  0
  -18.0919   -2.6458    0.0000 N   0  0  0  0  0  0  0  0  0  0  0  0
  -16.7816   -1.9157    0.0000 C   0  0  0  0  0  0  0  0  0  0  0  0
  -16.2901   -3.3329    0.0000 C   0  0  0  0  0  0  0  0  0  0  0  0
  -14.8171   -3.6159    0.0000 C   0  0  0  0  0  0  0  0  0  0  0  0
  -14.3256   -5.0331    0.0000 C   0  0  0  0  0  0  0  0  0  0  0  0
  -12.8525   -5.3161    0.0000 N   0  0  0  0  0  0  0  0  0  0  0  0
  -12.3611   -6.7333    0.0000 C   0  0  0  0  0  0  0  0  0  0  0  0
  -10.8880   -7.0163    0.0000 N   0  0  0  0  0  0  0  0  0  0  0  0
  -13.3427   -7.8675    0.0000 N   0  0  0  0  0  0  0  0  0  0  0  0
  -15.8000   -0.7815    0.0000 C   0  0  0  0  0  0  0  0  0  0  0  0
  -14.3269   -1.0645    0.0000 O   0  0  0  0  0  0  0  0  0  0  0  0
  -16.2914    0.6357    0.0000 N   0  0  0  0  0  0  0  0  0  0  0  0
  -15.3098    1.7699    0.0000 C   0  0  0  0  0  0  0  0  0  0  0  0
  -16.5973    2.5397    0.0000 C   0  0  0  0  0  0  0  0  0  0  0  0
  -17.9076    1.8096    0.0000 C   0  0  0  0  0  0  0  0  0  0  0  0
  -19.1950    2.5793    0.0000 C   0  0  0  0  0  0  0  0  0  0  0  0
  -20.5054    1.8493    0.0000 C   0  0  0  0  0  0  0  0  0  0  0  0
  -13.9995    2.5000    0.0000 C   0  0  0  0  0  0  0  0  0  0  0  0
  -14.1805    3.2764    0.0000 O   0  0  0  0  0  0  0  0  0  0  0  0
  -12.7120    1.7303    0.0000 N   0  0  0  0  0  0  0  0  0  0  0  0
  -11.4017    2.4604    0.0000 C   0  0  0  0  0  0  0  0  0  0  0  0
  -12.3482    3.6240    0.0000 C   0  0  0  0  0  0  0  0  0  0  0  0
  -13.8293    3.3861    0.0000 C   0  0  0  0  0  0  0  0  0  0  0  0
  -14.7758    4.5498    0.0000 C   0  0  0  0  0  0  0  0  0  0  0  0
  -16.2568    4.3119    0.0000 N   0  0  0  0  0  0  0  0  0  0  0  0
  -17.2033    5.4755    0.0000 C   0  0  0  0  0  0  0  0  0  0  0  0
  -18.6843    5.2376    0.0000 N   0  0  0  0  0  0  0  0  0  0  0  0
  -16.6688    6.8771    0.0000 N   0  0  0  0  0  0  0  0  0  0  0  0
   -9.9207    2.6983    0.0000 C   0  0  0  0  0  0  0  0  0  0  0  0
   -9.7412    4.1875    0.0000 O   0  0  0  0  0  0  0  0  0  0  0  0
   -8.9742    1.5346    0.0000 N   0  0  0  0  0  0  0  0  0  0  0  0
   -7.4931    1.7725    0.0000 C   0  0  0  0  0  0  0  0  0  0  0  0
   -7.9846    3.1897    0.0000 C   0  0  0  0  0  0  0  0  0  0  0  0
   -9.4577    3.4727    0.0000 C   0  0  0  0  0  0  0  0  0  0  0  0
   -9.9491    4.8899    0.0000 C   0  0  0  0  0  0  0  0  0  0  0  0
  -11.4222    5.1729    0.0000 N   0  0  0  0  0  0  0  0  0  0  0  0
  -11.9136    6.5901    0.0000 C   0  0  0  0  0  0  0  0  0  0  0  0
  -13.3867    6.8731    0.0000 N   0  0  0  0  0  0  0  0  0  0  0  0
  -10.9320    7.7243    0.0000 N   0  0  0  0  0  0  0  0  0  0  0  0
   -6.0201    1.4895    0.0000 C   0  0  0  0  0  0  0  0  0  0  0  0
   -5.3421    2.8276    0.0000 O   0  0  0  0  0  0  0  0  0  0  0  0
   -5.5286    0.0723    0.0000 N   0  0  0  0  0  0  0  0  0  0  0  0
   -4.0556   -0.2107    0.0000 C   0  0  0  0  0  0  0  0  0  0  0  0
   -4.0327    1.2892    0.0000 C   0  0  0  0  0  0  0  0  0  0  0  0
   -5.3201    2.0589    0.0000 C   0  0  0  0  0  0  0  0  0  0  0  0
   -5.2972    3.5587    0.0000 C   0  0  0  0  0  0  0  0  0  0  0  0
   -6.5846    4.3285    0.0000 N   0  0  0  0  0  0  0  0  0  0  0  0
   -6.5618    5.8283    0.0000 C   0  0  0  0  0  0  0  0  0  0  0  0
   -7.8492    6.5980    0.0000 N   0  0  0  0  0  0  0  0  0  0  0  0
   -5.2514    6.5584    0.0000 N   0  0  0  0  0  0  0  0  0  0  0  0
   -2.7681   -0.9804    0.0000 C   0  0  0  0  0  0  0  0  0  0  0  0
   -1.4578   -0.2503    0.0000 O   0  0  0  0  0  0  0  0  0  0  0  0
   -2.7910   -2.4802    0.0000 N   0  0  0  0  0  0  0  0  0  0  0  0
   -1.5036   -3.2500    0.0000 C   0  0  0  0  0  0  0  0  0  0  0  0
   -2.4852   -4.3842    0.0000 C   0  0  0  0  0  0  0  0  0  0  0  0
   -3.9128   -3.9238    0.0000 C   0  0  0  0  0  0  0  0  0  0  0  0
   -3.0197   -5.7857    0.0000 C   0  0  0  0  0  0  0  0  0  0  0  0
   -4.5007   -6.0236    0.0000 C   0  0  0  0  0  0  0  0  0  0  0  0
   -0.0305   -3.5330    0.0000 C   0  0  0  0  0  0  0  0  0  0  0  0
    0.2845   -4.9995    0.0000 O   0  0  0  0  0  0  0  0  0  0  0  0
    0.9511   -2.3987    0.0000 N   0  0  0  0  0  0  0  0  0  0  0  0
    2.4242   -2.6817    0.0000 C   0  0  0  0  0  0  0  0  0  0  0  0
    3.1867   -3.9735    0.0000 C   0  0  0  0  0  0  0  0  0  0  0  0
    4.2961   -4.9830    0.0000 C   0  0  0  0  0  0  0  0  0  0  0  0
    5.6538   -5.6208    0.0000 C   0  0  0  0  0  0  0  0  0  0  0  0
    7.1391   -5.8300    0.0000 C   0  0  0  0  0  0  0  0  0  0  0  0
    1.4173   -3.7936    0.0000 C   0  0  0  0  0  0  0  0  0  0  0  0
    2.0763   -1.2226    0.0000 C   0  0  0  0  0  0  0  0  0  0  0  0
    0.5773   -1.1661    0.0000 O   0  0  0  0  0  0  0  0  0  0  0  0
    2.1739    0.2742    0.0000 N   0  0  0  0  0  0  0  0  0  0  0  0
    2.7084    1.6757    0.0000 C   0  0  0  0  0  0  0  0  0  0  0  0
    1.2110    1.5865    0.0000 C   0  0  0  0  0  0  0  0  0  0  0  0
    0.3851    2.8386    0.0000 C   0  0  0  0  0  0  0  0  0  0  0  0
   -1.1123    2.7493    0.0000 C   0  0  0  0  0  0  0  0  0  0  0  0
    0.0372    4.2977    0.0000 C   0  0  0  0  0  0  0  0  0  0  0  0
    3.6322    2.8575    0.0000 C   0  0  0  0  0  0  0  0  0  0  0  0
    2.6014    3.9471    0.0000 O   0  0  0  0  0  0  0  0  0  0  0  0
    4.8633    3.7144    0.0000 N   0  0  0  0  0  0  0  0  0  0  0  0
    6.2924    4.1704    0.0000 C   0  0  0  0  0  0  0  0  0  0  0  0
    5.2890    5.2854    0.0000 C   0  0  0  0  0  0  0  0  0  0  0  0
    5.7530    6.7118    0.0000 S   0  0  0  0  0  0  0  0  0  0  0  0
    7.7923    4.1849    0.0000 C   0  0  0  0  0  0  0  0  0  0  0  0
    8.0015    5.6702    0.0000 O   0  0  0  0  0  0  0  0  0  0  0  0
    9.2299    3.7566    0.0000 N   0  0  0  0  0  0  0  0  0  0  0  0
   10.4773    2.9236    0.0000 C   0  0  0  0  0  0  0  0  0  0  0  0
   10.7235    4.4033    0.0000 C   0  0  0  0  0  0  0  0  0  0  0  0
   12.1280    4.9299    0.0000 C   0  0  0  0  0  0  0  0  0  0  0  0
   12.3742    6.4096    0.0000 C   0  0  0  0  0  0  0  0  0  0  0  0
   13.7787    6.9362    0.0000 N   0  0  0  0  0  0  0  0  0  0  0  0
   14.0249    8.4159    0.0000 C   0  0  0  0  0  0  0  0  0  0  0  0
   15.4294    8.9425    0.0000 N   0  0  0  0  0  0  0  0  0  0  0  0
   12.8665    9.3689    0.0000 N   0  0  0  0  0  0  0  0  0  0  0  0
   11.4239    1.7600    0.0000 C   0  0  0  0  0  0  0  0  0  0  0  0
   12.7156    2.5225    0.0000 O   0  0  0  0  0  0  0  0  0  0  0  0
   11.9853    0.3691    0.0000 N   0  0  0  0  0  0  0  0  0  0  0  0
   12.1119   -1.1256    0.0000 C   0  0  0  0  0  0  0  0  0  0  0  0
   11.7923   -2.5912    0.0000 C   0  0  0  0  0  0  0  0  0  0  0  0
   11.0549   -3.8974    0.0000 C   0  0  0  0  0  0  0  0  0  0  0  0
    9.9652   -4.9282    0.0000 C   0  0  0  0  0  0  0  0  0  0  0  0
    8.6201   -5.5921    0.0000 C   0  0  0  0  0  0  0  0  0  0  0  0
   13.4163   -1.8662    0.0000 C   0  0  0  0  0  0  0  0  0  0  0  0
   13.4222   -0.3955    0.0000 C   0  0  0  0  0  0  0  0  0  0  0  0
   13.6278    1.0903    0.0000 O   0  0  0  0  0  0  0  0  0  0  0  0
   14.7097   -1.1653    0.0000 N   0  0  0  0  0  0  0  0  0  0  0  0
   16.0200   -0.4352    0.0000 C   0  0  0  0  0  0  0  0  0  0  0  0
   17.0016    0.6990    0.0000 C   0  0  0  0  0  0  0  0  0  0  0  0
   18.4747    0.4161    0.0000 C   0  0  0  0  0  0  0  0  0  0  0  0
   19.5695    1.4415    0.0000 C   0  0  0  0  0  0  0  0  0  0  0  0
   20.8830    0.7171    0.0000 N   0  0  0  0  0  0  0  0  0  0  0  0
   20.6000   -0.7560    0.0000 C   0  0  0  0  0  0  0  0  0  0  0  0
   19.1116   -0.9420    0.0000 N   0  0  0  0  0  0  0  0  0  0  0  0
   17.3074   -1.2049    0.0000 C   0  0  0  0  0  0  0  0  0  0  0  0
   17.2846   -2.7047    0.0000 O   0  0  0  0  0  0  0  0  0  0  0  0
   18.6178   -0.4748    0.0000 N   0  0  0  0  0  0  0  0  0  0  0  0
   19.9052   -1.2446    0.0000 C   0  0  0  0  0  0  0  0  0  0  0  0
   20.8518   -2.4082    0.0000 C   0  0  0  0  0  0  0  0  0  0  0  0
   20.3173   -3.8098    0.0000 C   0  0  0  0  0  0  0  0  0  0  0  0
   21.1370   -5.0660    0.0000 C   0  0  0  0  0  0  0  0  0  0  0  0
   20.1956   -6.2338    0.0000 N   0  0  0  0  0  0  0  0  0  0  0  0
   18.7940   -5.6993    0.0000 C   0  0  0  0  0  0  0  0  0  0  0  0
   18.8692   -4.2012    0.0000 N   0  0  0  0  0  0  0  0  0  0  0  0
   21.2156   -0.5145    0.0000 C   0  0  0  0  0  0  0  0  0  0  0  0
   21.6007    0.9352    0.0000 O   0  0  0  0  0  0  0  0  0  0  0  0
   22.5030   -1.2842    0.0000 N   0  0  0  0  0  0  0  0  0  0  0  0
   23.8133   -0.5541    0.0000 C   0  0  0  0  0  0  0  0  0  0  0  0
   24.7949    0.5801    0.0000 C   0  0  0  0  0  0  0  0  0  0  0  0
   26.2716    0.8439    0.0000 O   0  0  0  0  0  0  0  0  0  0  0  0
   25.1008   -1.3239    0.0000 C   0  0  0  0  0  0  0  0  0  0  0  0
   25.0779   -2.8237    0.0000 O   0  0  0  0  0  0  0  0  0  0  0  0
   26.4111   -0.5938    0.0000 N   0  0  0  0  0  0  0  0  0  0  0  0
   27.6985   -1.3635    0.0000 C   0  0  0  0  0  0  0  0  0  0  0  0
   28.6451   -2.5272    0.0000 C   0  0  0  0  0  0  0  0  0  0  0  0
   29.9325   -3.2969    0.0000 O   0  0  0  0  0  0  0  0  0  0  0  0
   28.1106   -3.9287    0.0000 C   0  0  0  0  0  0  0  0  0  0  0  0
   29.0089   -0.6334    0.0000 C   0  0  0  0  0  0  0  0  0  0  0  0
   30.3805   -1.2405    0.0000 O   0  0  0  0  0  0  0  0  0  0  0  0
   29.0318    0.8664    0.0000 O   0  0  0  0  0  0  0  0  0  0  0  0
  -26.7078   -2.0984    0.0000 H   0  0  0  0  0  0  0  0  0  0  0  0
  -26.2957   -4.6636    0.0000 H   0  0  0  0  0  0  0  0  0  0  0  0
  -24.7717   -1.6070    0.0000 H   0  0  0  0  0  0  0  0  0  0  0  0
  -22.9699   -2.2941    0.0000 H   0  0  0  0  0  0  0  0  0  0  0  0
  -24.6440   -4.9179    0.0000 H   0  0  0  0  0  0  0  0  0  0  0  0
  -22.8422   -5.6050    0.0000 H   0  0  0  0  0  0  0  0  0  0  0  0
  -21.6075   -6.4395    0.0000 H   0  0  0  0  0  0  0  0  0  0  0  0
  -19.9166   -3.4585    0.0000 H   0  0  0  0  0  0  0  0  0  0  0  0
  -18.9566   -7.7927    0.0000 H   0  0  0  0  0  0  0  0  0  0  0  0
  -17.9670   -6.1376    0.0000 H   0  0  0  0  0  0  0  0  0  0  0  0
  -22.2394   -7.3435    0.0000 H   0  0  0  0  0  0  0  0  0  0  0  0
  -21.7252   -5.9587    0.0000 H   0  0  0  0  0  0  0  0  0  0  0  0
  -19.3793   -1.8760    0.0000 H   0  0  0  0  0  0  0  0  0  0  0  0
  -17.7281   -0.7520    0.0000 H   0  0  0  0  0  0  0  0  0  0  0  0
  -16.3130   -4.8327    0.0000 H   0  0  0  0  0  0  0  0  0  0  0  0
  -17.6696   -3.9221    0.0000 H   0  0  0  0  0  0  0  0  0  0  0  0
  -13.3360   -3.3780    0.0000 H   0  0  0  0  0  0  0  0  0  0  0  0
  -14.7942   -2.1161    0.0000 H   0  0  0  0  0  0  0  0  0  0  0  0
  -14.3485   -6.5329    0.0000 H   0  0  0  0  0  0  0  0  0  0  0  0
  -15.7666   -5.4497    0.0000 H   0  0  0  0  0  0  0  0  0  0  0  0
  -11.8709   -4.1819    0.0000 H   0  0  0  0  0  0  0  0  0  0  0  0
  -10.3966   -8.4335    0.0000 H   0  0  0  0  0  0  0  0  0  0  0  0
   -9.9064   -5.8821    0.0000 H   0  0  0  0  0  0  0  0  0  0  0  0
  -12.8512   -9.2847    0.0000 H   0  0  0  0  0  0  0  0  0  0  0  0
  -14.8157   -7.5845    0.0000 H   0  0  0  0  0  0  0  0  0  0  0  0
  -17.7880    0.7370    0.0000 H   0  0  0  0  0  0  0  0  0  0  0  0
  -14.3633    0.6063    0.0000 H   0  0  0  0  0  0  0  0  0  0  0  0
  -17.3949    3.8100    0.0000 H   0  0  0  0  0  0  0  0  0  0  0  0
  -15.9193    3.8777    0.0000 H   0  0  0  0  0  0  0  0  0  0  0  0
  -18.7436    0.5642    0.0000 H   0  0  0  0  0  0  0  0  0  0  0  0
  -17.4411    0.3840    0.0000 H   0  0  0  0  0  0  0  0  0  0  0  0
  -20.1416    3.7430    0.0000 H   0  0  0  0  0  0  0  0  0  0  0  0
  -18.3590    3.8248    0.0000 H   0  0  0  0  0  0  0  0  0  0  0  0
  -21.7928    2.6190    0.0000 H   0  0  0  0  0  0  0  0  0  0  0  0
  -21.4870    0.7150    0.0000 H   0  0  0  0  0  0  0  0  0  0  0  0
  -19.7077    0.5789    0.0000 H   0  0  0  0  0  0  0  0  0  0  0  0
  -12.7349    0.2305    0.0000 H   0  0  0  0  0  0  0  0  0  0  0  0
  -10.9102    1.0432    0.0000 H   0  0  0  0  0  0  0  0  0  0  0  0
  -12.6633    5.0906    0.0000 H   0  0  0  0  0  0  0  0  0  0  0  0
  -11.2535    4.6495    0.0000 H   0  0  0  0  0  0  0  0  0  0  0  0
  -15.1396    2.6560    0.0000 H   0  0  0  0  0  0  0  0  0  0  0  0
  -13.6953    1.8921    0.0000 H   0  0  0  0  0  0  0  0  0  0  0  0
  -15.2672    5.9670    0.0000 H   0  0  0  0  0  0  0  0  0  0  0  0
  -13.5642    5.4341    0.0000 H   0  0  0  0  0  0  0  0  0  0  0  0
  -17.1145    3.0813    0.0000 H   0  0  0  0  0  0  0  0  0  0  0  0
  -19.6309    6.4013    0.0000 H   0  0  0  0  0  0  0  0  0  0  0  0
  -19.2188    3.8361    0.0000 H   0  0  0  0  0  0  0  0  0  0  0  0
  -17.6154    8.0407    0.0000 H   0  0  0  0  0  0  0  0  0  0  0  0
  -15.1878    7.1150    0.0000 H   0  0  0  0  0  0  0  0  0  0  0  0
   -9.5086    0.1331    0.0000 H   0  0  0  0  0  0  0  0  0  0  0  0
   -7.5160    0.2727    0.0000 H   0  0  0  0  0  0  0  0  0  0  0  0
   -7.7791    4.6756    0.0000 H   0  0  0  0  0  0  0  0  0  0  0  0
   -6.6052    3.7789    0.0000 H   0  0  0  0  0  0  0  0  0  0  0  0
  -10.9387    3.2348    0.0000 H   0  0  0  0  0  0  0  0  0  0  0  0
   -9.8428    2.0230    0.0000 H   0  0  0  0  0  0  0  0  0  0  0  0
   -9.9262    6.3897    0.0000 H   0  0  0  0  0  0  0  0  0  0  0  0
   -8.5081    5.3066    0.0000 H   0  0  0  0  0  0  0  0  0  0  0  0
  -12.6491    4.3099    0.0000 H   0  0  0  0  0  0  0  0  0  0  0  0
  -13.8782    8.2903    0.0000 H   0  0  0  0  0  0  0  0  0  0  0  0
  -14.3683    5.7389    0.0000 H   0  0  0  0  0  0  0  0  0  0  0  0
  -11.4235    9.1415    0.0000 H   0  0  0  0  0  0  0  0  0  0  0  0
   -9.4590    7.4413    0.0000 H   0  0  0  0  0  0  0  0  0  0  0  0
   -6.5102   -1.0619    0.0000 H   0  0  0  0  0  0  0  0  0  0  0  0
   -4.5900   -1.6122    0.0000 H   0  0  0  0  0  0  0  0  0  0  0  0
   -3.3313    2.6151    0.0000 H   0  0  0  0  0  0  0  0  0  0  0  0
   -2.5596    1.0062    0.0000 H   0  0  0  0  0  0  0  0  0  0  0  0
   -6.7932    2.3419    0.0000 H   0  0  0  0  0  0  0  0  0  0  0  0
   -6.1778    0.8283    0.0000 H   0  0  0  0  0  0  0  0  0  0  0  0
   -4.7627    4.9603    0.0000 H   0  0  0  0  0  0  0  0  0  0  0  0
   -3.8006    3.4574    0.0000 H   0  0  0  0  0  0  0  0  0  0  0  0
   -8.0327    3.9371    0.0000 H   0  0  0  0  0  0  0  0  0  0  0  0
   -7.8263    8.0979    0.0000 H   0  0  0  0  0  0  0  0  0  0  0  0
   -9.1595    5.8679    0.0000 H   0  0  0  0  0  0  0  0  0  0  0  0
   -5.2285    8.0582    0.0000 H   0  0  0  0  0  0  0  0  0  0  0  0
   -3.9640    5.7886    0.0000 H   0  0  0  0  0  0  0  0  0  0  0  0
   -4.1806   -3.0452    0.0000 H   0  0  0  0  0  0  0  0  0  0  0  0
   -0.9691   -1.8484    0.0000 H   0  0  0  0  0  0  0  0  0  0  0  0
   -1.1977   -5.1539    0.0000 H   0  0  0  0  0  0  0  0  0  0  0  0
   -5.0921   -5.1004    0.0000 H   0  0  0  0  0  0  0  0  0  0  0  0
   -5.2457   -3.3315    0.0000 H   0  0  0  0  0  0  0  0  0  0  0  0
   -3.9617   -2.6012    0.0000 H   0  0  0  0  0  0  0  0  0  0  0  0
   -3.0426   -7.2856    0.0000 H   0  0  0  0  0  0  0  0  0  0  0  0
   -1.5466   -6.0687    0.0000 H   0  0  0  0  0  0  0  0  0  0  0  0
   -5.0352   -7.4252    0.0000 H   0  0  0  0  0  0  0  0  0  0  0  0
   -5.9737   -5.7406    0.0000 H   0  0  0  0  0  0  0  0  0  0  0  0
   -4.8414   -4.5628    0.0000 H   0  0  0  0  0  0  0  0  0  0  0  0
    0.2906   -1.0520    0.0000 H   0  0  0  0  0  0  0  0  0  0  0  0
    2.7227   -5.3999    0.0000 H   0  0  0  0  0  0  0  0  0  0  0  0
    1.7267   -4.3178    0.0000 H   0  0  0  0  0  0  0  0  0  0  0  0
    4.0905   -6.4689    0.0000 H   0  0  0  0  0  0  0  0  0  0  0  0
    3.0025   -5.7424    0.0000 H   0  0  0  0  0  0  0  0  0  0  0  0
    6.0740   -7.0607    0.0000 H   0  0  0  0  0  0  0  0  0  0  0  0
    4.6414   -6.7277    0.0000 H   0  0  0  0  0  0  0  0  0  0  0  0
    7.1536   -7.3299    0.0000 H   0  0  0  0  0  0  0  0  0  0  0  0
    0.1016   -4.1006    0.0000 H   0  0  0  0  0  0  0  0  0  0  0  0
    1.3604   -5.3746    0.0000 H   0  0  0  0  0  0  0  0  0  0  0  0
    2.5487   -5.0337    0.0000 H   0  0  0  0  0  0  0  0  0  0  0  0
    0.7083    0.5938    0.0000 H   0  0  0  0  0  0  0  0  0  0  0  0
    2.1783    3.0789    0.0000 H   0  0  0  0  0  0  0  0  0  0  0  0
   -0.0826    0.8271    0.0000 H   0  0  0  0  0  0  0  0  0  0  0  0
    1.1955    0.0865    0.0000 H   0  0  0  0  0  0  0  0  0  0  0  0
    1.6787    3.5979    0.0000 H   0  0  0  0  0  0  0  0  0  0  0  0
   -2.0847    3.8914    0.0000 H   0  0  0  0  0  0  0  0  0  0  0  0
   -2.4888    2.1533    0.0000 H   0  0  0  0  0  0  0  0  0  0  0  0
   -0.9448    1.2587    0.0000 H   0  0  0  0  0  0  0  0  0  0  0  0
   -1.3375    4.8980    0.0000 H   0  0  0  0  0  0  0  0  0  0  0  0
    0.2093    5.7878    0.0000 H   0  0  0  0  0  0  0  0  0  0  0  0
    1.5345    4.3869    0.0000 H   0  0  0  0  0  0  0  0  0  0  0  0
    4.1995    5.0595    0.0000 H   0  0  0  0  0  0  0  0  0  0  0  0
    6.8960    5.5435    0.0000 H   0  0  0  0  0  0  0  0  0  0  0  0
    3.9648    5.9900    0.0000 H   0  0  0  0  0  0  0  0  0  0  0  0
    4.1067    4.3623    0.0000 H   0  0  0  0  0  0  0  0  0  0  0  0
    4.7496    7.8268    0.0000 H   0  0  0  0  0  0  0  0  0  0  0  0
    9.8676    5.1143    0.0000 H   0  0  0  0  0  0  0  0  0  0  0  0
   11.9633    3.1282    0.0000 H   0  0  0  0  0  0  0  0  0  0  0  0
   10.2711    5.8334    0.0000 H   0  0  0  0  0  0  0  0  0  0  0  0
    9.2646    4.7522    0.0000 H   0  0  0  0  0  0  0  0  0  0  0  0
   13.6279    4.9444    0.0000 H   0  0  0  0  0  0  0  0  0  0  0  0
   12.5805    3.4998    0.0000 H   0  0  0  0  0  0  0  0  0  0  0  0
   12.0995    7.8842    0.0000 H   0  0  0  0  0  0  0  0  0  0  0  0
   10.8837    6.5780    0.0000 H   0  0  0  0  0  0  0  0  0  0  0  0
   14.9370    5.9832    0.0000 H   0  0  0  0  0  0  0  0  0  0  0  0
   15.6756   10.4222    0.0000 H   0  0  0  0  0  0  0  0  0  0  0  0
   16.5877    7.9895    0.0000 H   0  0  0  0  0  0  0  0  0  0  0  0
   13.1127   10.8486    0.0000 H   0  0  0  0  0  0  0  0  0  0  0  0
   11.4620    8.8423    0.0000 H   0  0  0  0  0  0  0  0  0  0  0  0
   13.3912    0.8922    0.0000 H   0  0  0  0  0  0  0  0  0  0  0  0
   13.2866   -2.4609    0.0000 H   0  0  0  0  0  0  0  0  0  0  0  0
   12.6796   -3.8005    0.0000 H   0  0  0  0  0  0  0  0  0  0  0  0
   12.5212   -4.2134    0.0000 H   0  0  0  0  0  0  0  0  0  0  0  0
   11.7154   -5.2441    0.0000 H   0  0  0  0  0  0  0  0  0  0  0  0
   11.2733   -5.6624    0.0000 H   0  0  0  0  0  0  0  0  0  0  0  0
   10.0171   -6.4273    0.0000 H   0  0  0  0  0  0  0  0  0  0  0  0
    9.0761   -7.0211    0.0000 H   0  0  0  0  0  0  0  0  0  0  0  0
   14.7620   -1.7457    0.0000 H   0  0  0  0  0  0  0  0  0  0  0  0
   13.9655   -3.3498    0.0000 H   0  0  0  0  0  0  0  0  0  0  0  0
   12.7302   -3.3983    0.0000 H   0  0  0  0  0  0  0  0  0  0  0  0
   14.8698   -2.6567    0.0000 H   0  0  0  0  0  0  0  0  0  0  0  0
   15.0735    0.7285    0.0000 H   0  0  0  0  0  0  0  0  0  0  0  0
   17.5361    2.1006    0.0000 H   0  0  0  0  0  0  0  0  0  0  0  0
   15.7142    1.4688    0.0000 H   0  0  0  0  0  0  0  0  0  0  0  0
   19.3834    2.9299    0.0000 H   0  0  0  0  0  0  0  0  0  0  0  0
   22.2411    1.3540    0.0000 H   0  0  0  0  0  0  0  0  0  0  0  0
   21.7512   -1.7176    0.0000 H   0  0  0  0  0  0  0  0  0  0  0  0
   19.0029    0.9749    0.0000 H   0  0  0  0  0  0  0  0  0  0  0  0
   18.9236   -2.3788    0.0000 H   0  0  0  0  0  0  0  0  0  0  0  0
   22.0358   -3.3292    0.0000 H   0  0  0  0  0  0  0  0  0  0  0  0
   22.1747   -1.7012    0.0000 H   0  0  0  0  0  0  0  0  0  0  0  0
   22.6351   -5.1412    0.0000 H   0  0  0  0  0  0  0  0  0  0  0  0
   20.5870   -7.6818    0.0000 H   0  0  0  0  0  0  0  0  0  0  0  0
   17.5378   -6.5190    0.0000 H   0  0  0  0  0  0  0  0  0  0  0  0
   22.6631   -2.7757    0.0000 H   0  0  0  0  0  0  0  0  0  0  0  0
   22.8668    0.6095    0.0000 H   0  0  0  0  0  0  0  0  0  0  0  0
   25.3294    1.9816    0.0000 H   0  0  0  0  0  0  0  0  0  0  0  0
   23.5075    1.3498    0.0000 H   0  0  0  0  0  0  0  0  0  0  0  0
   27.2496    1.4313    0.0000 H   0  0  0  0  0  0  0  0  0  0  0  0
   26.6167    0.8921    0.0000 H   0  0  0  0  0  0  0  0  0  0  0  0
   26.5860   -2.3696    0.0000 H   0  0  0  0  0  0  0  0  0  0  0  0
   29.7576   -1.5211    0.0000 H   0  0  0  0  0  0  0  0  0  0  0  0
   30.0926   -4.7884    0.0000 H   0  0  0  0  0  0  0  0  0  0  0  0
   28.9082   -5.1991    0.0000 H   0  0  0  0  0  0  0  0  0  0  0  0
   27.1290   -5.0629    0.0000 H   0  0  0  0  0  0  0  0  0  0  0  0
   26.7389   -3.3217    0.0000 H   0  0  0  0  0  0  0  0  0  0  0  0
  1  2  1  0
  2  3  1  0
  3  4  1  0
  4  5  2  0
  4  6  1  0
  6  7  1  0
  7  8  1  0
  8  9  1  0
  9 10  1  0
 10 11  2  0
 10 12  1  0
  7 13  1  0
 13 14  2  0
 13 15  1  0
 15 16  1  0
 16 17  1  0
 17 18  1  0
 18 19  1  0
 19 20  1  0
 20 21  1  0
 21 22  2  3
 21 23  1  0
 16 24  1  0
 24 25  2  0
 24 26  1  0
 26 27  1  0
 27 28  1  0
 28 29  1  0
 29 30  1  0
 30 31  1  0
 27 32  1  0
 32 33  2  0
 32 34  1  0
 34 35  1  0
 35 36  1  0
 36 37  1  0
 37 38  1  0
 38 39  1  0
 39 40  1  0
 40 41  2  3
 40 42  1  0
 35 43  1  0
 43 44  2  0
 43 45  1  0
 45 46  1  0
 46 47  1  0
 47 48  1  0
 48 49  1  0
 49 50  1  0
 50 51  1  0
 51 52  2  3
 51 53  1  0
 46 54  1  0
 54 55  2  0
 54 56  1  0
 56 57  1  0
 57 58  1  0
 58 59  1  0
 59 60  1  0
 60 61  1  0
 61 62  1  0
 62 63  2  3
 62 64  1  0
 57 65  1  0
 65 66  2  0
 65 67  1  0
 67 68  1  0
 68 69  1  0
 69 70  1  0
 69 71  1  0
 71 72  1  0
 68 73  1  0
 73 74  2  0
 73 75  1  0
 76 75  1  6
 76 77  1  0
 77 78  1  0
 78 79  1  0
 79 80  1  0
 76 81  1  0
 76 82  1  0
 82 83  2  0
 82 84  1  0
 84 85  1  0
 85 86  1  0
 86 87  1  0
 87 88  1  0
 87 89  1  0
 85 90  1  0
 90 91  2  0
 90 92  1  0
 92 93  1  0
 93 94  1  0
 94 95  1  0
 93 96  1  0
 96 97  2  0
 96 98  1  0
 98 99  1  0
 99100  1  0
100101  1  0
101102  1  0
102103  1  0
103104  1  0
104105  2  3
104106  1  0
 99107  1  0
107108  2  0
107109  1  0
109110  1  0
110111  1  0
111112  1  0
112113  1  0
113114  1  0
110115  1  0
110116  1  6
116117  2  0
116118  1  0
118119  1  0
119120  1  0
120121  1  0
121122  2  0
122123  1  0
123124  1  0
124125  2  0
119126  1  0
126127  2  0
126128  1  0
128129  1  0
129130  1  0
130131  1  0
131132  2  0
132133  1  0
133134  1  0
134135  2  0
129136  1  0
136137  2  0
136138  1  0
138139  1  0
139140  1  0
140141  1  0
139142  1  0
142143  2  0
142144  1  0
144145  1  0
145146  1  0
146147  1  0
146148  1  0
145149  1  0
149150  2  0
149151  1  0
125121  1  0
135131  1  0
 80114  2  0
  1152  1  0
  1153  1  0
  2154  1  0
  2155  1  0
  3156  1  0
  3157  1  0
  6158  1  0
  7159  1  6
  8160  1  0
  8161  1  0
  9162  1  0
  9163  1  0
 15164  1  0
 16165  1  6
 17166  1  0
 17167  1  0
 18168  1  0
 18169  1  0
 19170  1  0
 19171  1  0
 20172  1  0
 22173  1  0
 22174  1  0
 23175  1  0
 23176  1  0
 26177  1  0
 27178  1  6
 28179  1  0
 28180  1  0
 29181  1  0
 29182  1  0
 30183  1  0
 30184  1  0
 31185  1  0
 31186  1  0
 31187  1  0
 34188  1  0
 35189  1  1
 36190  1  0
 36191  1  0
 37192  1  0
 37193  1  0
 38194  1  0
 38195  1  0
 39196  1  0
 41197  1  0
 41198  1  0
 42199  1  0
 42200  1  0
 45201  1  0
 46202  1  1
 47203  1  0
 47204  1  0
 48205  1  0
 48206  1  0
 49207  1  0
 49208  1  0
 50209  1  0
 52210  1  0
 52211  1  0
 53212  1  0
 53213  1  0
 56214  1  0
 57215  1  1
 58216  1  0
 58217  1  0
 59218  1  0
 59219  1  0
 60220  1  0
 60221  1  0
 61222  1  0
 63223  1  0
 63224  1  0
 64225  1  0
 64226  1  0
 67227  1  0
 68228  1  6
 69229  1  1
 70230  1  0
 70231  1  0
 70232  1  0
 71233  1  0
 71234  1  0
 72235  1  0
 72236  1  0
 72237  1  0
 75238  1  0
 77239  1  0
 77240  1  0
 78241  1  0
 78242  1  0
 79243  1  0
 79244  1  0
 80245  1  0
 81246  1  0
 81247  1  0
 81248  1  0
 84249  1  0
 85250  1  1
 86251  1  0
 86252  1  0
 87253  1  0
 88254  1  0
 88255  1  0
 88256  1  0
 89257  1  0
 89258  1  0
 89259  1  0
 92260  1  0
 93261  1  1
 94262  1  0
 94263  1  0
 95264  1  0
 98265  1  0
 99266  1  1
100267  1  0
100268  1  0
101269  1  0
101270  1  0
102271  1  0
102272  1  0
103273  1  0
105274  1  0
105275  1  0
106276  1  0
106277  1  0
109278  1  0
111279  1  0
111280  1  0
112281  1  0
112282  1  0
113283  1  0
113284  1  0
114285  1  0
115286  1  0
115287  1  0
115288  1  0
118289  1  0
119290  1  1
120291  1  0
120292  1  0
122293  1  0
123294  1  0
124295  1  0
128296  1  0
129297  1  6
130298  1  0
130299  1  0
132300  1  0
133301  1  0
134302  1  0
138303  1  0
139304  1  1
140305  1  0
140306  1  0
141307  1  0
144308  1  0
145309  1  6
146310  1  1
147311  1  0
148312  1  0
148313  1  0
148314  1  0
M  CHG  7  12  -1  22   1  41   1  52   1  63   1 105   1 151  -1
M  END
