
     RDKit          2D

343347  0  0  0  0  0  0  0  0999 V2000
    2.7930   -3.2840    0.0000 N   0  0  0  0  0  0  0  0  0  0  0  0
    1.5614   -4.1402    0.0000 C   0  0  0  0  0  0  0  0  0  0  0  0
    0.1364   -3.6719    0.0000 C   0  0  0  0  0  0  0  0  0  0  0  0
   -0.9817   -4.6719    0.0000 C   0  0  0  0  0  0  0  0  0  0  0  0
   -0.4981   -6.0918    0.0000 O   0  0  0  0  0  0  0  0  0  0  0  0
   -2.4067   -4.2036    0.0000 N   0  0  0  0  0  0  0  0  0  0  0  0
   -3.5248   -5.2035    0.0000 C   0  0  0  0  0  0  0  0  0  0  0  0
   -2.3459   -6.1310    0.0000 C   0  0  0  0  0  0  0  0  0  0  0  0
   -2.5597   -7.6157    0.0000 C   0  0  0  0  0  0  0  0  0  0  0  0
   -1.3808   -8.5431    0.0000 C   0  0  0  0  0  0  0  0  0  0  0  0
   -1.5945  -10.0278    0.0000 N   0  0  0  0  0  0  0  0  0  0  0  0
   -0.4156  -10.9553    0.0000 C   0  0  0  0  0  0  0  0  0  0  0  0
   -0.6293  -12.4400    0.0000 N   0  0  0  0  0  0  0  0  0  0  0  0
    0.9771  -10.3980    0.0000 N   0  0  0  0  0  0  0  0  0  0  0  0
   -4.9175   -5.7607    0.0000 C   0  0  0  0  0  0  0  0  0  0  0  0
   -4.9487   -7.2604    0.0000 O   0  0  0  0  0  0  0  0  0  0  0  0
   -6.0964   -4.8333    0.0000 N   0  0  0  0  0  0  0  0  0  0  0  0
   -7.4890   -5.3905    0.0000 C   0  0  0  0  0  0  0  0  0  0  0  0
   -6.6984   -6.6653    0.0000 C   0  0  0  0  0  0  0  0  0  0  0  0
   -7.4071   -7.9873    0.0000 C   0  0  0  0  0  0  0  0  0  0  0  0
   -6.6165   -9.2620    0.0000 C   0  0  0  0  0  0  0  0  0  0  0  0
   -7.3251  -10.5841    0.0000 N   0  0  0  0  0  0  0  0  0  0  0  0
   -5.1172   -9.2147    0.0000 O   0  0  0  0  0  0  0  0  0  0  0  0
   -8.9883   -5.4378    0.0000 C   0  0  0  0  0  0  0  0  0  0  0  0
   -9.3560   -6.8921    0.0000 O   0  0  0  0  0  0  0  0  0  0  0  0
   -9.7789   -4.1631    0.0000 N   0  0  0  0  0  0  0  0  0  0  0  0
  -11.2782   -4.2104    0.0000 C   0  0  0  0  0  0  0  0  0  0  0  0
  -10.9712   -5.6787    0.0000 C   0  0  0  0  0  0  0  0  0  0  0  0
  -11.9591   -6.8075    0.0000 C   0  0  0  0  0  0  0  0  0  0  0  0
  -10.1806   -6.9534    0.0000 C   0  0  0  0  0  0  0  0  0  0  0  0
  -10.8893   -8.2755    0.0000 C   0  0  0  0  0  0  0  0  0  0  0  0
  -12.7032   -3.7421    0.0000 C   0  0  0  0  0  0  0  0  0  0  0  0
  -13.1511   -4.4015    0.0000 O   0  0  0  0  0  0  0  0  0  0  0  0
  -13.0101   -2.2739    0.0000 N   0  0  0  0  0  0  0  0  0  0  0  0
  -14.4351   -1.8055    0.0000 C   0  0  0  0  0  0  0  0  0  0  0  0
  -14.6489   -3.2902    0.0000 C   0  0  0  0  0  0  0  0  0  0  0  0
  -13.4700   -4.2177    0.0000 C   0  0  0  0  0  0  0  0  0  0  0  0
  -13.6837   -5.7024    0.0000 C   0  0  0  0  0  0  0  0  0  0  0  0
  -12.5048   -6.6298    0.0000 C   0  0  0  0  0  0  0  0  0  0  0  0
  -12.7186   -8.1145    0.0000 N   0  0  0  0  0  0  0  0  0  0  0  0
  -15.6140   -0.8781    0.0000 C   0  0  0  0  0  0  0  0  0  0  0  0
  -16.8305   -1.7558    0.0000 O   0  0  0  0  0  0  0  0  0  0  0  0
  -15.4003    0.6066    0.0000 N   0  0  0  0  0  0  0  0  0  0  0  0
  -16.5792    1.5341    0.0000 C   0  0  0  0  0  0  0  0  0  0  0  0
  -17.2879    0.2120    0.0000 C   0  0  0  0  0  0  0  0  0  0  0  0
  -16.6585   -1.1496    0.0000 C   0  0  0  0  0  0  0  0  0  0  0  0
  -18.4059   -0.7879    0.0000 C   0  0  0  0  0  0  0  0  0  0  0  0
  -19.8310   -0.3196    0.0000 C   0  0  0  0  0  0  0  0  0  0  0  0
  -17.3698    2.8088    0.0000 C   0  0  0  0  0  0  0  0  0  0  0  0
  -18.8521    2.5791    0.0000 O   0  0  0  0  0  0  0  0  0  0  0  0
  -16.6612    4.1308    0.0000 N   0  0  0  0  0  0  0  0  0  0  0  0
  -17.4518    5.4056    0.0000 C   0  0  0  0  0  0  0  0  0  0  0  0
  -18.6307    6.3330    0.0000 C   0  0  0  0  0  0  0  0  0  0  0  0
  -20.0233    5.7758    0.0000 C   0  0  0  0  0  0  0  0  0  0  0  0
  -20.3911    4.3216    0.0000 C   0  0  0  0  0  0  0  0  0  0  0  0
  -21.8878    4.2220    0.0000 N   0  0  0  0  0  0  0  0  0  0  0  0
  -22.4450    5.6146    0.0000 C   0  0  0  0  0  0  0  0  0  0  0  0
  -23.8528    6.1324    0.0000 C   0  0  0  0  0  0  0  0  0  0  0  0
  -24.1083    7.6105    0.0000 C   0  0  0  0  0  0  0  0  0  0  0  0
  -22.9560    8.5708    0.0000 C   0  0  0  0  0  0  0  0  0  0  0  0
  -21.5482    8.0530    0.0000 C   0  0  0  0  0  0  0  0  0  0  0  0
  -21.2927    6.5749    0.0000 C   0  0  0  0  0  0  0  0  0  0  0  0
  -16.0591    5.9628    0.0000 C   0  0  0  0  0  0  0  0  0  0  0  0
  -15.8454    7.4475    0.0000 O   0  0  0  0  0  0  0  0  0  0  0  0
  -14.8802    5.0354    0.0000 N   0  0  0  0  0  0  0  0  0  0  0  0
  -13.4875    5.5926    0.0000 C   0  0  0  0  0  0  0  0  0  0  0  0
  -12.3695    6.5925    0.0000 C   0  0  0  0  0  0  0  0  0  0  0  0
  -10.9444    6.1242    0.0000 C   0  0  0  0  0  0  0  0  0  0  0  0
  -10.6375    4.6560    0.0000 C   0  0  0  0  0  0  0  0  0  0  0  0
   -9.2125    4.1877    0.0000 C   0  0  0  0  0  0  0  0  0  0  0  0
   -8.0944    5.1876    0.0000 C   0  0  0  0  0  0  0  0  0  0  0  0
   -8.4013    6.6559    0.0000 C   0  0  0  0  0  0  0  0  0  0  0  0
   -9.8264    7.1242    0.0000 C   0  0  0  0  0  0  0  0  0  0  0  0
  -12.3086    4.6651    0.0000 C   0  0  0  0  0  0  0  0  0  0  0  0
  -12.7018    3.2176    0.0000 O   0  0  0  0  0  0  0  0  0  0  0  0
  -10.9160    5.2224    0.0000 N   0  0  0  0  0  0  0  0  0  0  0  0
   -9.7371    4.2949    0.0000 C   0  0  0  0  0  0  0  0  0  0  0  0
   -8.9465    3.0202    0.0000 C   0  0  0  0  0  0  0  0  0  0  0  0
   -9.6551    1.6981    0.0000 C   0  0  0  0  0  0  0  0  0  0  0  0
   -8.8645    0.4234    0.0000 C   0  0  0  0  0  0  0  0  0  0  0  0
   -9.5732   -0.8986    0.0000 N   0  0  0  0  0  0  0  0  0  0  0  0
   -7.3653    0.4707    0.0000 O   0  0  0  0  0  0  0  0  0  0  0  0
   -8.3444    4.8522    0.0000 C   0  0  0  0  0  0  0  0  0  0  0  0
   -7.7778    6.2410    0.0000 O   0  0  0  0  0  0  0  0  0  0  0  0
   -7.1655    3.9247    0.0000 N   0  0  0  0  0  0  0  0  0  0  0  0
   -5.7729    4.4819    0.0000 C   0  0  0  0  0  0  0  0  0  0  0  0
   -4.6548    5.4819    0.0000 C   0  0  0  0  0  0  0  0  0  0  0  0
   -3.2298    5.0136    0.0000 C   0  0  0  0  0  0  0  0  0  0  0  0
   -2.1117    6.0135    0.0000 N   0  0  0  0  0  0  0  0  0  0  0  0
   -2.5767    3.6632    0.0000 O   0  0  0  0  0  0  0  0  0  0  0  0
   -4.5939    3.5545    0.0000 C   0  0  0  0  0  0  0  0  0  0  0  0
   -4.8077    2.0698    0.0000 O   0  0  0  0  0  0  0  0  0  0  0  0
   -3.2013    4.1117    0.0000 N   0  0  0  0  0  0  0  0  0  0  0  0
   -2.0224    3.1843    0.0000 C   0  0  0  0  0  0  0  0  0  0  0  0
   -1.2318    1.9095    0.0000 C   0  0  0  0  0  0  0  0  0  0  0  0
    0.2675    1.9569    0.0000 C   0  0  0  0  0  0  0  0  0  0  0  0
    1.0581    0.6821    0.0000 C   0  0  0  0  0  0  0  0  0  0  0  0
    2.5573    0.7294    0.0000 N   0  0  0  0  0  0  0  0  0  0  0  0
    3.3479   -0.5453    0.0000 C   0  0  0  0  0  0  0  0  0  0  0  0
    4.8302   -0.3156    0.0000 N   0  0  0  0  0  0  0  0  0  0  0  0
    2.4834   -1.7711    0.0000 N   0  0  0  0  0  0  0  0  0  0  0  0
   -0.6297    3.7415    0.0000 C   0  0  0  0  0  0  0  0  0  0  0  0
   -0.2366    5.1891    0.0000 O   0  0  0  0  0  0  0  0  0  0  0  0
    0.5492    2.8141    0.0000 N   0  0  0  0  0  0  0  0  0  0  0  0
    1.9418    3.3713    0.0000 C   0  0  0  0  0  0  0  0  0  0  0  0
    3.0599    4.3712    0.0000 C   0  0  0  0  0  0  0  0  0  0  0  0
    4.4849    3.9029    0.0000 C   0  0  0  0  0  0  0  0  0  0  0  0
    5.6030    4.9029    0.0000 C   0  0  0  0  0  0  0  0  0  0  0  0
    7.0280    4.4346    0.0000 N   0  0  0  0  0  0  0  0  0  0  0  0
    8.1461    5.4345    0.0000 C   0  0  0  0  0  0  0  0  0  0  0  0
    9.5034    4.7960    0.0000 N   0  0  0  0  0  0  0  0  0  0  0  0
    7.8392    6.9028    0.0000 N   0  0  0  0  0  0  0  0  0  0  0  0
    3.1207    2.4438    0.0000 C   0  0  0  0  0  0  0  0  0  0  0  0
    3.2726    0.9515    0.0000 O   0  0  0  0  0  0  0  0  0  0  0  0
    4.5134    3.0011    0.0000 N   0  0  0  0  0  0  0  0  0  0  0  0
    5.6923    2.0736    0.0000 C   0  0  0  0  0  0  0  0  0  0  0  0
    6.4829    0.7989    0.0000 C   0  0  0  0  0  0  0  0  0  0  0  0
    7.9822    0.8462    0.0000 C   0  0  0  0  0  0  0  0  0  0  0  0
    8.7728   -0.4285    0.0000 S   0  0  0  0  0  0  0  0  0  0  0  0
   10.2666   -0.5643    0.0000 C   0  0  0  0  0  0  0  0  0  0  0  0
    7.0850    2.6309    0.0000 C   0  0  0  0  0  0  0  0  0  0  0  0
    7.6516    4.0197    0.0000 O   0  0  0  0  0  0  0  0  0  0  0  0
    8.2639    1.7034    0.0000 N   0  0  0  0  0  0  0  0  0  0  0  0
    9.6565    2.2606    0.0000 C   0  0  0  0  0  0  0  0  0  0  0  0
   10.7746    3.2606    0.0000 C   0  0  0  0  0  0  0  0  0  0  0  0
   12.1996    2.7923    0.0000 C   0  0  0  0  0  0  0  0  0  0  0  0
   13.3177    3.7922    0.0000 C   0  0  0  0  0  0  0  0  0  0  0  0
   14.7427    3.3239    0.0000 C   0  0  0  0  0  0  0  0  0  0  0  0
   15.8608    4.3239    0.0000 N   0  0  0  0  0  0  0  0  0  0  0  0
   10.8354    1.3332    0.0000 C   0  0  0  0  0  0  0  0  0  0  0  0
   10.8043   -0.1665    0.0000 O   0  0  0  0  0  0  0  0  0  0  0  0
   12.2281    1.8904    0.0000 N   0  0  0  0  0  0  0  0  0  0  0  0
   13.4070    0.9630    0.0000 C   0  0  0  0  0  0  0  0  0  0  0  0
   14.1976   -0.3118    0.0000 C   0  0  0  0  0  0  0  0  0  0  0  0
   15.6969   -0.2645    0.0000 C   0  0  0  0  0  0  0  0  0  0  0  0
   16.5398    0.9763    0.0000 C   0  0  0  0  0  0  0  0  0  0  0  0
   17.9803    0.5580    0.0000 N   0  0  0  0  0  0  0  0  0  0  0  0
   18.0276   -0.9413    0.0000 C   0  0  0  0  0  0  0  0  0  0  0  0
   19.1735   -1.9093    0.0000 C   0  0  0  0  0  0  0  0  0  0  0  0
   18.9080   -3.3856    0.0000 C   0  0  0  0  0  0  0  0  0  0  0  0
   17.4968   -3.8939    0.0000 C   0  0  0  0  0  0  0  0  0  0  0  0
   16.3509   -2.9259    0.0000 C   0  0  0  0  0  0  0  0  0  0  0  0
   16.6164   -1.4496    0.0000 C   0  0  0  0  0  0  0  0  0  0  0  0
   14.7997    1.5202    0.0000 C   0  0  0  0  0  0  0  0  0  0  0  0
   15.3663    2.9090    0.0000 O   0  0  0  0  0  0  0  0  0  0  0  0
   15.9786    0.5927    0.0000 N   0  0  0  0  0  0  0  0  0  0  0  0
   17.3712    1.1500    0.0000 C   0  0  0  0  0  0  0  0  0  0  0  0
   18.4893    2.1499    0.0000 C   0  0  0  0  0  0  0  0  0  0  0  0
   19.9143    1.6816    0.0000 C   0  0  0  0  0  0  0  0  0  0  0  0
   21.0324    2.6816    0.0000 C   0  0  0  0  0  0  0  0  0  0  0  0
   22.4574    2.2132    0.0000 C   0  0  0  0  0  0  0  0  0  0  0  0
   23.5755    3.2132    0.0000 N   0  0  0  0  0  0  0  0  0  0  0  0
   18.5501    0.2225    0.0000 C   0  0  0  0  0  0  0  0  0  0  0  0
   18.7020   -1.2698    0.0000 O   0  0  0  0  0  0  0  0  0  0  0  0
   19.9428    0.7798    0.0000 N   0  0  0  0  0  0  0  0  0  0  0  0
   21.1217   -0.1477    0.0000 C   0  0  0  0  0  0  0  0  0  0  0  0
   21.9123   -1.4224    0.0000 C   0  0  0  0  0  0  0  0  0  0  0  0
   23.4115   -1.3751    0.0000 C   0  0  0  0  0  0  0  0  0  0  0  0
   24.2021   -2.6498    0.0000 C   0  0  0  0  0  0  0  0  0  0  0  0
   25.7014   -2.6025    0.0000 C   0  0  0  0  0  0  0  0  0  0  0  0
   26.4920   -3.8773    0.0000 N   0  0  0  0  0  0  0  0  0  0  0  0
   22.5143    0.4095    0.0000 C   0  0  0  0  0  0  0  0  0  0  0  0
   23.7975   -0.3673    0.0000 O   0  0  0  0  0  0  0  0  0  0  0  0
   23.0810    1.7984    0.0000 O   0  0  0  0  0  0  0  0  0  0  0  0
    4.0551   -3.7660    0.0000 H   0  0  0  0  0  0  0  0  0  0  0  0
    2.1958   -1.7204    0.0000 H   0  0  0  0  0  0  0  0  0  0  0  0
    2.7403   -5.0677    0.0000 H   0  0  0  0  0  0  0  0  0  0  0  0
    0.8527   -5.4623    0.0000 H   0  0  0  0  0  0  0  0  0  0  0  0
    0.6786   -2.2734    0.0000 H   0  0  0  0  0  0  0  0  0  0  0  0
   -1.0426   -2.7445    0.0000 H   0  0  0  0  0  0  0  0  0  0  0  0
   -2.7137   -2.7353    0.0000 H   0  0  0  0  0  0  0  0  0  0  0  0
   -4.3154   -3.9288    0.0000 H   0  0  0  0  0  0  0  0  0  0  0  0
   -0.9209   -6.5993    0.0000 H   0  0  0  0  0  0  0  0  0  0  0  0
   -1.3384   -5.0197    0.0000 H   0  0  0  0  0  0  0  0  0  0  0  0
   -3.2683   -8.9377    0.0000 H   0  0  0  0  0  0  0  0  0  0  0  0
   -3.9847   -7.1473    0.0000 H   0  0  0  0  0  0  0  0  0  0  0  0
    0.0443   -9.0114    0.0000 H   0  0  0  0  0  0  0  0  0  0  0  0
   -0.5162   -7.3173    0.0000 H   0  0  0  0  0  0  0  0  0  0  0  0
   -2.9872  -10.5850    0.0000 H   0  0  0  0  0  0  0  0  0  0  0  0
    0.5496  -13.3674    0.0000 H   0  0  0  0  0  0  0  0  0  0  0  0
   -2.0220  -12.9972    0.0000 H   0  0  0  0  0  0  0  0  0  0  0  0
    2.1560  -11.3255    0.0000 H   0  0  0  0  0  0  0  0  0  0  0  0
    1.1908   -8.9133    0.0000 H   0  0  0  0  0  0  0  0  0  0  0  0
   -5.8826   -3.3486    0.0000 H   0  0  0  0  0  0  0  0  0  0  0  0
   -7.7960   -3.9223    0.0000 H   0  0  0  0  0  0  0  0  0  0  0  0
   -5.6414   -7.7295    0.0000 H   0  0  0  0  0  0  0  0  0  0  0  0
   -5.3716   -5.9656    0.0000 H   0  0  0  0  0  0  0  0  0  0  0  0
   -8.5252   -8.9873    0.0000 H   0  0  0  0  0  0  0  0  0  0  0  0
   -8.5860   -7.0599    0.0000 H   0  0  0  0  0  0  0  0  0  0  0  0
   -6.5345  -11.8588    0.0000 H   0  0  0  0  0  0  0  0  0  0  0  0
   -8.8244  -10.6314    0.0000 H   0  0  0  0  0  0  0  0  0  0  0  0
   -8.9144   -2.9373    0.0000 H   0  0  0  0  0  0  0  0  0  0  0  0
  -11.0644   -2.7257    0.0000 H   0  0  0  0  0  0  0  0  0  0  0  0
   -9.4851   -5.4750    0.0000 H   0  0  0  0  0  0  0  0  0  0  0  0
  -11.9469   -8.1584    0.0000 H   0  0  0  0  0  0  0  0  0  0  0  0
  -13.5228   -7.0470    0.0000 H   0  0  0  0  0  0  0  0  0  0  0  0
  -12.8799   -5.4039    0.0000 H   0  0  0  0  0  0  0  0  0  0  0  0
   -9.0017   -7.8809    0.0000 H   0  0  0  0  0  0  0  0  0  0  0  0
   -8.8538   -6.2537    0.0000 H   0  0  0  0  0  0  0  0  0  0  0  0
  -10.0987   -9.5502    0.0000 H   0  0  0  0  0  0  0  0  0  0  0  0
  -11.8771   -9.4043    0.0000 H   0  0  0  0  0  0  0  0  0  0  0  0
  -12.2576   -7.6608    0.0000 H   0  0  0  0  0  0  0  0  0  0  0  0
  -12.0223   -1.1451    0.0000 H   0  0  0  0  0  0  0  0  0  0  0  0
  -13.7265   -0.4835    0.0000 H   0  0  0  0  0  0  0  0  0  0  0  0
  -15.5134   -4.5160    0.0000 H   0  0  0  0  0  0  0  0  0  0  0  0
  -16.0739   -2.8219    0.0000 H   0  0  0  0  0  0  0  0  0  0  0  0
  -11.9985   -4.5088    0.0000 H   0  0  0  0  0  0  0  0  0  0  0  0
  -12.4625   -3.1064    0.0000 H   0  0  0  0  0  0  0  0  0  0  0  0
  -14.5482   -6.9282    0.0000 H   0  0  0  0  0  0  0  0  0  0  0  0
  -15.1552   -5.4113    0.0000 H   0  0  0  0  0  0  0  0  0  0  0  0
  -11.0798   -7.0982    0.0000 H   0  0  0  0  0  0  0  0  0  0  0  0
  -11.6403   -5.4040    0.0000 H   0  0  0  0  0  0  0  0  0  0  0  0
  -11.6615   -9.1788    0.0000 H   0  0  0  0  0  0  0  0  0  0  0  0
  -13.4272   -9.4366    0.0000 H   0  0  0  0  0  0  0  0  0  0  0  0
  -14.2145   -8.0050    0.0000 H   0  0  0  0  0  0  0  0  0  0  0  0
  -14.0076    1.1638    0.0000 H   0  0  0  0  0  0  0  0  0  0  0  0
  -15.4611    2.5340    0.0000 H   0  0  0  0  0  0  0  0  0  0  0  0
  -18.3449    1.2763    0.0000 H   0  0  0  0  0  0  0  0  0  0  0  0
  -17.0513   -2.4423    0.0000 H   0  0  0  0  0  0  0  0  0  0  0  0
  -15.3183   -1.9902    0.0000 H   0  0  0  0  0  0  0  0  0  0  0  0
  -15.1542   -0.4046    0.0000 H   0  0  0  0  0  0  0  0  0  0  0  0
  -19.1146   -2.1100    0.0000 H   0  0  0  0  0  0  0  0  0  0  0  0
  -17.4865   -1.9731    0.0000 H   0  0  0  0  0  0  0  0  0  0  0  0
  -20.9490   -1.3196    0.0000 H   0  0  0  0  0  0  0  0  0  0  0  0
  -21.0099    0.6078    0.0000 H   0  0  0  0  0  0  0  0  0  0  0  0
  -19.2887    1.0789    0.0000 H   0  0  0  0  0  0  0  0  0  0  0  0
  -15.2446    3.6376    0.0000 H   0  0  0  0  0  0  0  0  0  0  0  0
  -18.5698    4.4056    0.0000 H   0  0  0  0  0  0  0  0  0  0  0  0
  -17.5126    7.3330    0.0000 H   0  0  0  0  0  0  0  0  0  0  0  0
  -19.4213    7.6078    0.0000 H   0  0  0  0  0  0  0  0  0  0  0  0
  -19.5784    3.0608    0.0000 H   0  0  0  0  0  0  0  0  0  0  0  0
  -22.6869    2.9526    0.0000 H   0  0  0  0  0  0  0  0  0  0  0  0
  -25.0051    5.1721    0.0000 H   0  0  0  0  0  0  0  0  0  0  0  0
  -25.5161    8.1282    0.0000 H   0  0  0  0  0  0  0  0  0  0  0  0
  -23.2116   10.0489    0.0000 H   0  0  0  0  0  0  0  0  0  0  0  0
  -20.3959    9.0133    0.0000 H   0  0  0  0  0  0  0  0  0  0  0  0
  -14.9114    3.5357    0.0000 H   0  0  0  0  0  0  0  0  0  0  0  0
  -14.2781    6.8673    0.0000 H   0  0  0  0  0  0  0  0  0  0  0  0
  -11.6608    7.9146    0.0000 H   0  0  0  0  0  0  0  0  0  0  0  0
  -13.5484    7.5200    0.0000 H   0  0  0  0  0  0  0  0  0  0  0  0
  -11.6254    3.5272    0.0000 H   0  0  0  0  0  0  0  0  0  0  0  0
   -8.5594    2.8373    0.0000 H   0  0  0  0  0  0  0  0  0  0  0  0
   -6.6694    4.7193    0.0000 H   0  0  0  0  0  0  0  0  0  0  0  0
   -7.2833    7.6558    0.0000 H   0  0  0  0  0  0  0  0  0  0  0  0
  -10.1333    8.5924    0.0000 H   0  0  0  0  0  0  0  0  0  0  0  0
  -10.3493    6.6112    0.0000 H   0  0  0  0  0  0  0  0  0  0  0  0
  -10.9687    3.4387    0.0000 H   0  0  0  0  0  0  0  0  0  0  0  0
   -7.8894    1.9559    0.0000 H   0  0  0  0  0  0  0  0  0  0  0  0
   -7.6197    3.7199    0.0000 H   0  0  0  0  0  0  0  0  0  0  0  0
  -10.7732    0.6982    0.0000 H   0  0  0  0  0  0  0  0  0  0  0  0
  -10.9383    2.4750    0.0000 H   0  0  0  0  0  0  0  0  0  0  0  0
   -8.6331   -2.0675    0.0000 H   0  0  0  0  0  0  0  0  0  0  0  0
  -11.0670   -0.7629    0.0000 H   0  0  0  0  0  0  0  0  0  0  0  0
   -7.1967    2.4250    0.0000 H   0  0  0  0  0  0  0  0  0  0  0  0
   -6.5635    5.7567    0.0000 H   0  0  0  0  0  0  0  0  0  0  0  0
   -3.9461    6.8039    0.0000 H   0  0  0  0  0  0  0  0  0  0  0  0
   -5.8337    6.4093    0.0000 H   0  0  0  0  0  0  0  0  0  0  0  0
   -0.6402    5.7224    0.0000 H   0  0  0  0  0  0  0  0  0  0  0  0
   -2.4186    7.4818    0.0000 H   0  0  0  0  0  0  0  0  0  0  0  0
   -2.6346    5.5006    0.0000 H   0  0  0  0  0  0  0  0  0  0  0  0
   -3.1405    2.1843    0.0000 H   0  0  0  0  0  0  0  0  0  0  0  0
   -1.1061    0.4148    0.0000 H   0  0  0  0  0  0  0  0  0  0  0  0
   -2.6244    1.3523    0.0000 H   0  0  0  0  0  0  0  0  0  0  0  0
    1.6601    2.5141    0.0000 H   0  0  0  0  0  0  0  0  0  0  0  0
    0.6859    3.3973    0.0000 H   0  0  0  0  0  0  0  0  0  0  0  0
    1.3650   -0.7861    0.0000 H   0  0  0  0  0  0  0  0  0  0  0  0
   -0.2563   -0.0407    0.0000 H   0  0  0  0  0  0  0  0  0  0  0  0
    3.6928    1.7096    0.0000 H   0  0  0  0  0  0  0  0  0  0  0  0
    5.6378   -1.7727    0.0000 H   0  0  0  0  0  0  0  0  0  0  0  0
    5.4115    0.9040    0.0000 H   0  0  0  0  0  0  0  0  0  0  0  0
    3.7335   -2.8723    0.0000 H   0  0  0  0  0  0  0  0  0  0  0  0
    1.1326   -1.7498    0.0000 H   0  0  0  0  0  0  0  0  0  0  0  0
    0.7010    1.3218    0.0000 H   0  0  0  0  0  0  0  0  0  0  0  0
    1.1512    4.6460    0.0000 H   0  0  0  0  0  0  0  0  0  0  0  0
    3.6021    5.7698    0.0000 H   0  0  0  0  0  0  0  0  0  0  0  0
    1.8810    5.2987    0.0000 H   0  0  0  0  0  0  0  0  0  0  0  0
    5.6638    2.9755    0.0000 H   0  0  0  0  0  0  0  0  0  0  0  0
    4.6629    2.4135    0.0000 H   0  0  0  0  0  0  0  0  0  0  0  0
    6.3117    6.2249    0.0000 H   0  0  0  0  0  0  0  0  0  0  0  0
    4.5460    5.9671    0.0000 H   0  0  0  0  0  0  0  0  0  0  0  0
    7.8409    3.1739    0.0000 H   0  0  0  0  0  0  0  0  0  0  0  0
   10.6892    5.9661    0.0000 H   0  0  0  0  0  0  0  0  0  0  0  0
    9.7171    3.4619    0.0000 H   0  0  0  0  0  0  0  0  0  0  0  0
    8.9573    7.9027    0.0000 H   0  0  0  0  0  0  0  0  0  0  0  0
    6.4142    7.3711    0.0000 H   0  0  0  0  0  0  0  0  0  0  0  0
    5.0801    4.3899    0.0000 H   0  0  0  0  0  0  0  0  0  0  0  0
    4.5742    1.0737    0.0000 H   0  0  0  0  0  0  0  0  0  0  0  0
    6.7899   -0.6694    0.0000 H   0  0  0  0  0  0  0  0  0  0  0  0
    4.9968    0.5952    0.0000 H   0  0  0  0  0  0  0  0  0  0  0  0
    9.2965    1.5690    0.0000 H   0  0  0  0  0  0  0  0  0  0  0  0
    8.5731    2.2249    0.0000 H   0  0  0  0  0  0  0  0  0  0  0  0
   11.0626   -1.6560    0.0000 H   0  0  0  0  0  0  0  0  0  0  0  0
   11.7445    0.0001    0.0000 H   0  0  0  0  0  0  0  0  0  0  0  0
   10.1686    1.1115    0.0000 H   0  0  0  0  0  0  0  0  0  0  0  0
    8.4157    0.2111    0.0000 H   0  0  0  0  0  0  0  0  0  0  0  0
    8.8659    3.5354    0.0000 H   0  0  0  0  0  0  0  0  0  0  0  0
   11.3168    4.6592    0.0000 H   0  0  0  0  0  0  0  0  0  0  0  0
    9.4063    3.8752    0.0000 H   0  0  0  0  0  0  0  0  0  0  0  0
   13.2567    1.7280    0.0000 H   0  0  0  0  0  0  0  0  0  0  0  0
   12.1948    1.2923    0.0000 H   0  0  0  0  0  0  0  0  0  0  0  0
   13.8599    5.1908    0.0000 H   0  0  0  0  0  0  0  0  0  0  0  0
   12.2606    4.8565    0.0000 H   0  0  0  0  0  0  0  0  0  0  0  0
   16.1110    2.7093    0.0000 H   0  0  0  0  0  0  0  0  0  0  0  0
   14.2005    1.9253    0.0000 H   0  0  0  0  0  0  0  0  0  0  0  0
   17.2181    3.6853    0.0000 H   0  0  0  0  0  0  0  0  0  0  0  0
   16.5695    5.6459    0.0000 H   0  0  0  0  0  0  0  0  0  0  0  0
   14.8037    5.3881    0.0000 H   0  0  0  0  0  0  0  0  0  0  0  0
   12.7947    3.2793    0.0000 H   0  0  0  0  0  0  0  0  0  0  0  0
   12.4191   -0.1658    0.0000 H   0  0  0  0  0  0  0  0  0  0  0  0
   14.5045   -1.7800    0.0000 H   0  0  0  0  0  0  0  0  0  0  0  0
   12.8049   -0.8690    0.0000 H   0  0  0  0  0  0  0  0  0  0  0  0
   16.0315    2.3875    0.0000 H   0  0  0  0  0  0  0  0  0  0  0  0
   19.3527    1.1634    0.0000 H   0  0  0  0  0  0  0  0  0  0  0  0
   20.5847   -1.4010    0.0000 H   0  0  0  0  0  0  0  0  0  0  0  0
   20.0538   -4.3537    0.0000 H   0  0  0  0  0  0  0  0  0  0  0  0
   17.2313   -5.3703    0.0000 H   0  0  0  0  0  0  0  0  0  0  0  0
   14.9397   -3.4342    0.0000 H   0  0  0  0  0  0  0  0  0  0  0  0
   16.1304   -0.8996    0.0000 H   0  0  0  0  0  0  0  0  0  0  0  0
   16.9126    2.5781    0.0000 H   0  0  0  0  0  0  0  0  0  0  0  0
   19.0315    3.5485    0.0000 H   0  0  0  0  0  0  0  0  0  0  0  0
   17.2061    2.9268    0.0000 H   0  0  0  0  0  0  0  0  0  0  0  0
   20.9714    0.6174    0.0000 H   0  0  0  0  0  0  0  0  0  0  0  0
   19.9094    0.1816    0.0000 H   0  0  0  0  0  0  0  0  0  0  0  0
   21.5746    4.0801    0.0000 H   0  0  0  0  0  0  0  0  0  0  0  0
   19.9753    3.7458    0.0000 H   0  0  0  0  0  0  0  0  0  0  0  0
   23.6363    1.2858    0.0000 H   0  0  0  0  0  0  0  0  0  0  0  0
   21.9152    0.8147    0.0000 H   0  0  0  0  0  0  0  0  0  0  0  0
   25.0005    2.7449    0.0000 H   0  0  0  0  0  0  0  0  0  0  0  0
   24.2841    4.5352    0.0000 H   0  0  0  0  0  0  0  0  0  0  0  0
   22.5184    4.2774    0.0000 H   0  0  0  0  0  0  0  0  0  0  0  0
   20.5094    2.1686    0.0000 H   0  0  0  0  0  0  0  0  0  0  0  0
   19.8901   -1.0039    0.0000 H   0  0  0  0  0  0  0  0  0  0  0  0
   22.0380   -2.9172    0.0000 H   0  0  0  0  0  0  0  0  0  0  0  0
   20.5979   -2.1453    0.0000 H   0  0  0  0  0  0  0  0  0  0  0  0
   24.7259   -0.6523    0.0000 H   0  0  0  0  0  0  0  0  0  0  0  0
   23.6513    0.1056    0.0000 H   0  0  0  0  0  0  0  0  0  0  0  0
   24.3278   -4.1446    0.0000 H   0  0  0  0  0  0  0  0  0  0  0  0
   22.8878   -3.3727    0.0000 H   0  0  0  0  0  0  0  0  0  0  0  0
   27.0941   -2.0453    0.0000 H   0  0  0  0  0  0  0  0  0  0  0  0
   25.5757   -1.1078    0.0000 H   0  0  0  0  0  0  0  0  0  0  0  0
   27.9913   -3.8300    0.0000 H   0  0  0  0  0  0  0  0  0  0  0  0
   26.7989   -5.3455    0.0000 H   0  0  0  0  0  0  0  0  0  0  0  0
   25.1777   -4.6001    0.0000 H   0  0  0  0  0  0  0  0  0  0  0  0
  1  2  1  0
  2  3  1  0
  3  4  1  0
  4  5  2  0
  4  6  1  0
  6  7  1  0
  7  8  1  0
  8  9  1  0
  9 10  1  0
 10 11  1  0
 11 12  1  0
 12 13  2  3
 12 14  1  0
  7 15  1  0
 15 16  2  0
 15 17  1  0
 17 18  1  0
 18 19  1  0
 19 20  1  0
 20 21  1  0
 21 22  1  0
 21 23  2  0
 18 24  1  0
 24 25  2  0
 24 26  1  0
 26 27  1  0
 27 28  1  0
 28 29  1  0
 28 30  1  0
 30 31  1  0
 27 32  1  0
 32 33  2  0
 32 34  1  0
 34 35  1  0
 35 36  1  0
 36 37  1  0
 37 38  1  0
 38 39  1  0
 39 40  1  0
 35 41  1  0
 41 42  2  0
 41 43  1  0
 43 44  1  0
 44 45  1  0
 45 46  1  0
 45 47  1  0
 47 48  1  0
 44 49  1  0
 49 50  2  0
 49 51  1  0
 51 52  1  0
 52 53  1  0
 53 54  1  0
 54 55  2  0
 55 56  1  0
 56 57  1  0
 57 58  2  0
 58 59  1  0
 59 60  2  0
 60 61  1  0
 61 62  2  0
 52 63  1  0
 63 64  2  0
 63 65  1  0
 65 66  1  0
 66 67  1  0
 67 68  1  0
 68 69  2  0
 69 70  1  0
 70 71  2  0
 71 72  1  0
 72 73  2  0
 66 74  1  0
 74 75  2  0
 74 76  1  0
 76 77  1  0
 77 78  1  0
 78 79  1  0
 79 80  1  0
 80 81  1  0
 80 82  2  0
 77 83  1  0
 83 84  2  0
 83 85  1  0
 85 86  1  0
 86 87  1  0
 87 88  1  0
 88 89  1  0
 88 90  2  0
 86 91  1  0
 91 92  2  0
 91 93  1  0
 93 94  1  0
 94 95  1  0
 95 96  1  0
 96 97  1  0
 97 98  1  0
 98 99  1  0
 99100  2  3
 99101  1  0
 94102  1  0
102103  2  0
102104  1  0
104105  1  0
105106  1  0
106107  1  0
107108  1  0
108109  1  0
109110  1  0
110111  2  3
110112  1  0
105113  1  0
113114  2  0
113115  1  0
115116  1  0
116117  1  0
117118  1  0
118119  1  0
119120  1  0
116121  1  0
121122  2  0
121123  1  0
123124  1  0
124125  1  0
125126  1  0
126127  1  0
127128  1  0
128129  1  0
124130  1  0
130131  2  0
130132  1  0
132133  1  0
133134  1  0
134135  1  0
135136  2  0
136137  1  0
137138  1  0
138139  2  0
139140  1  0
140141  2  0
141142  1  0
142143  2  0
133144  1  0
144145  2  0
144146  1  0
146147  1  0
147148  1  0
148149  1  0
149150  1  0
150151  1  0
151152  1  0
147153  1  0
153154  2  0
153155  1  0
155156  1  0
156157  1  0
157158  1  0
158159  1  0
159160  1  0
160161  1  0
156162  1  0
162163  2  0
162164  1  0
 62 54  1  0
 73 68  1  0
143135  1  0
 62 57  1  0
143138  1  0
  1165  1  0
  1166  1  0
  2167  1  0
  2168  1  0
  3169  1  0
  3170  1  0
  6171  1  0
  7172  1  1
  8173  1  0
  8174  1  0
  9175  1  0
  9176  1  0
 10177  1  0
 10178  1  0
 11179  1  0
 13180  1  0
 13181  1  0
 14182  1  0
 14183  1  0
 17184  1  0
 18185  1  1
 19186  1  0
 19187  1  0
 20188  1  0
 20189  1  0
 22190  1  0
 22191  1  0
 26192  1  0
 27193  1  1
 28194  1  1
 29195  1  0
 29196  1  0
 29197  1  0
 30198  1  0
 30199  1  0
 31200  1  0
 31201  1  0
 31202  1  0
 34203  1  0
 35204  1  1
 36205  1  0
 36206  1  0
 37207  1  0
 37208  1  0
 38209  1  0
 38210  1  0
 39211  1  0
 39212  1  0
 40213  1  0
 40214  1  0
 40215  1  0
 43216  1  0
 44217  1  1
 45218  1  6
 46219  1  0
 46220  1  0
 46221  1  0
 47222  1  0
 47223  1  0
 48224  1  0
 48225  1  0
 48226  1  0
 51227  1  0
 52228  1  1
 53229  1  0
 53230  1  0
 55231  1  0
 56232  1  0
 58233  1  0
 59234  1  0
 60235  1  0
 61236  1  0
 65237  1  0
 66238  1  1
 67239  1  0
 67240  1  0
 69241  1  0
 70242  1  0
 71243  1  0
 72244  1  0
 73245  1  0
 76246  1  0
 77247  1  6
 78248  1  0
 78249  1  0
 79250  1  0
 79251  1  0
 81252  1  0
 81253  1  0
 85254  1  0
 86255  1  1
 87256  1  0
 87257  1  0
 89258  1  0
 89259  1  0
 93260  1  0
 94261  1  6
 95262  1  0
 95263  1  0
 96264  1  0
 96265  1  0
 97266  1  0
 97267  1  0
 98268  1  0
100269  1  0
100270  1  0
101271  1  0
101272  1  0
104273  1  0
105274  1  1
106275  1  0
106276  1  0
107277  1  0
107278  1  0
108279  1  0
108280  1  0
109281  1  0
111282  1  0
111283  1  0
112284  1  0
112285  1  0
115286  1  0
116287  1  6
117288  1  0
117289  1  0
118290  1  0
118291  1  0
120292  1  0
120293  1  0
120294  1  0
123295  1  0
124296  1  1
125297  1  0
125298  1  0
126299  1  0
126300  1  0
127301  1  0
127302  1  0
128303  1  0
128304  1  0
129305  1  0
129306  1  0
129307  1  0
132308  1  0
133309  1  6
134310  1  0
134311  1  0
136312  1  0
137313  1  0
139314  1  0
140315  1  0
141316  1  0
142317  1  0
146318  1  0
147319  1  1
148320  1  0
148321  1  0
149322  1  0
149323  1  0
150324  1  0
150325  1  0
151326  1  0
151327  1  0
152328  1  0
152329  1  0
152330  1  0
155331  1  0
156332  1  6
157333  1  0
157334  1  0
158335  1  0
158336  1  0
159337  1  0
159338  1  0
160339  1  0
160340  1  0
161341  1  0
161342  1  0
161343  1  0
M  CHG  8  13   1  40   1 100   1 111   1 129   1 152   1 161   1 164  -1
M  END
