
     RDKit          2D

270278  0  0  0  0  0  0  0  0999 V2000
  -25.0252   -0.1888    0.0000 C   0  0  0  0  0  0  0  0  0  0  0  0
  -26.3102   -0.9625    0.0000 N   0  0  0  0  0  0  0  0  0  0  0  0
  -27.6228   -0.2365    0.0000 C   0  0  0  0  0  0  0  0  0  0  0  0
  -27.6504    1.2633    0.0000 C   0  0  0  0  0  0  0  0  0  0  0  0
  -28.9629    1.9893    0.0000 C   0  0  0  0  0  0  0  0  0  0  0  0
  -30.2480    1.2155    0.0000 C   0  0  0  0  0  0  0  0  0  0  0  0
  -30.2204   -0.2842    0.0000 C   0  0  0  0  0  0  0  0  0  0  0  0
  -28.9078   -1.0102    0.0000 C   0  0  0  0  0  0  0  0  0  0  0  0
  -31.6383   -0.7739    0.0000 C   0  0  0  0  0  0  0  0  0  0  0  0
  -32.5421    0.4233    0.0000 O   0  0  0  0  0  0  0  0  0  0  0  0
  -31.6828    1.6528    0.0000 C   0  0  0  0  0  0  0  0  0  0  0  0
  -32.1725    3.0706    0.0000 O   0  0  0  0  0  0  0  0  0  0  0  0
  -33.0995   -1.1126    0.0000 C   0  0  0  0  0  0  0  0  0  0  0  0
  -33.5367   -2.5475    0.0000 C   0  0  0  0  0  0  0  0  0  0  0  0
  -34.9980   -2.8863    0.0000 C   0  0  0  0  0  0  0  0  0  0  0  0
  -36.0220   -1.7902    0.0000 C   0  0  0  0  0  0  0  0  0  0  0  0
  -35.5848   -0.3553    0.0000 C   0  0  0  0  0  0  0  0  0  0  0  0
  -34.1235   -0.0165    0.0000 C   0  0  0  0  0  0  0  0  0  0  0  0
  -37.4832   -2.1289    0.0000 O   0  0  0  0  0  0  0  0  0  0  0  0
  -32.5127   -3.6436    0.0000 O   0  0  0  0  0  0  0  0  0  0  0  0
  -31.0515   -3.3048    0.0000 C   0  0  0  0  0  0  0  0  0  0  0  0
  -30.6143   -1.8700    0.0000 C   0  0  0  0  0  0  0  0  0  0  0  0
  -29.3571   -2.2008    0.0000 C   0  0  0  0  0  0  0  0  0  0  0  0
  -28.8109   -2.7854    0.0000 C   0  0  0  0  0  0  0  0  0  0  0  0
  -29.0441   -3.5506    0.0000 C   0  0  0  0  0  0  0  0  0  0  0  0
  -29.8234   -3.7313    0.0000 C   0  0  0  0  0  0  0  0  0  0  0  0
  -27.5422   -5.1582    0.0000 O   0  0  0  0  0  0  0  0  0  0  0  0
  -25.0527    1.3110    0.0000 S   0  0  0  0  0  0  0  0  0  0  0  0
  -23.7126   -0.9148    0.0000 N   0  0  0  0  0  0  0  0  0  0  0  0
  -22.4275   -0.1410    0.0000 C   0  0  0  0  0  0  0  0  0  0  0  0
  -21.1149   -0.8670    0.0000 C   0  0  0  0  0  0  0  0  0  0  0  0
  -19.8299   -0.0933    0.0000 O   0  0  0  0  0  0  0  0  0  0  0  0
  -18.5173   -0.8193    0.0000 C   0  0  0  0  0  0  0  0  0  0  0  0
  -17.2322   -0.0456    0.0000 O   0  0  0  0  0  0  0  0  0  0  0  0
  -15.9196   -0.7716    0.0000 C   0  0  0  0  0  0  0  0  0  0  0  0
  -14.6346    0.0022    0.0000 C   0  0  0  0  0  0  0  0  0  0  0  0
  -13.3220   -0.7239    0.0000 O   0  0  0  0  0  0  0  0  0  0  0  0
  -12.0370    0.0499    0.0000 C   0  0  0  0  0  0  0  0  0  0  0  0
  -10.7244   -0.6761    0.0000 C   0  0  0  0  0  0  0  0  0  0  0  0
   -9.4393    0.0976    0.0000 C   0  0  0  0  0  0  0  0  0  0  0  0
   -9.4669    1.5974    0.0000 O   0  0  0  0  0  0  0  0  0  0  0  0
   -8.1267   -0.6284    0.0000 N   0  0  0  0  0  0  0  0  0  0  0  0
   -6.8417    0.1453    0.0000 C   0  0  0  0  0  0  0  0  0  0  0  0
   -5.8988    1.3119    0.0000 C   0  0  0  0  0  0  0  0  0  0  0  0
   -4.4170    1.0786    0.0000 C   0  0  0  0  0  0  0  0  0  0  0  0
   -3.4741    2.2452    0.0000 C   0  0  0  0  0  0  0  0  0  0  0  0
   -1.9924    2.0119    0.0000 N   0  0  0  0  0  0  0  0  0  0  0  0
   -1.0495    3.1785    0.0000 C   0  0  0  0  0  0  0  0  0  0  0  0
    0.3928    2.7663    0.0000 N   0  0  0  0  0  0  0  0  0  0  0  0
   -1.5883    4.5784    0.0000 N   0  0  0  0  0  0  0  0  0  0  0  0
   -5.5291   -0.5807    0.0000 C   0  0  0  0  0  0  0  0  0  0  0  0
   -5.5015   -2.0804    0.0000 O   0  0  0  0  0  0  0  0  0  0  0  0
   -4.2441    0.1931    0.0000 N   0  0  0  0  0  0  0  0  0  0  0  0
   -2.9315   -0.5329    0.0000 C   0  0  0  0  0  0  0  0  0  0  0  0
   -1.9463   -1.6641    0.0000 C   0  0  0  0  0  0  0  0  0  0  0  0
   -2.4334   -3.0828    0.0000 C   0  0  0  0  0  0  0  0  0  0  0  0
   -1.4483   -4.2140    0.0000 C   0  0  0  0  0  0  0  0  0  0  0  0
   -1.9353   -5.6327    0.0000 C   0  0  0  0  0  0  0  0  0  0  0  0
   -0.9502   -6.7639    0.0000 N   0  0  0  0  0  0  0  0  0  0  0  0
   -1.6464    0.2408    0.0000 C   0  0  0  0  0  0  0  0  0  0  0  0
   -1.4014    1.3065    0.0000 O   0  0  0  0  0  0  0  0  0  0  0  0
   -0.3338   -0.4852    0.0000 N   0  0  0  0  0  0  0  0  0  0  0  0
    0.9512    0.2885    0.0000 C   0  0  0  0  0  0  0  0  0  0  0  0
    1.8941    1.4551    0.0000 C   0  0  0  0  0  0  0  0  0  0  0  0
    3.3759    1.2218    0.0000 C   0  0  0  0  0  0  0  0  0  0  0  0
    3.9147   -0.1781    0.0000 C   0  0  0  0  0  0  0  0  0  0  0  0
    2.9450   -0.9101    0.0000 F   0  0  0  0  0  0  0  0  0  0  0  0
    5.3965   -0.4114    0.0000 C   0  0  0  0  0  0  0  0  0  0  0  0
    6.2580   -1.6392    0.0000 F   0  0  0  0  0  0  0  0  0  0  0  0
    6.3394    0.7552    0.0000 C   0  0  0  0  0  0  0  0  0  0  0  0
    7.8211    0.5219    0.0000 F   0  0  0  0  0  0  0  0  0  0  0  0
    5.8005    2.1551    0.0000 C   0  0  0  0  0  0  0  0  0  0  0  0
    6.9977    3.0589    0.0000 F   0  0  0  0  0  0  0  0  0  0  0  0
    4.3188    2.3884    0.0000 C   0  0  0  0  0  0  0  0  0  0  0  0
    3.4572    3.6163    0.0000 F   0  0  0  0  0  0  0  0  0  0  0  0
    2.2638   -0.4375    0.0000 C   0  0  0  0  0  0  0  0  0  0  0  0
    1.9277   -1.8993    0.0000 O   0  0  0  0  0  0  0  0  0  0  0  0
    3.5489    0.3362    0.0000 N   0  0  0  0  0  0  0  0  0  0  0  0
    4.8615   -0.3898    0.0000 C   0  0  0  0  0  0  0  0  0  0  0  0
    5.1856   -1.8543    0.0000 C   0  0  0  0  0  0  0  0  0  0  0  0
    5.9271   -3.1582    0.0000 C   0  0  0  0  0  0  0  0  0  0  0  0
    7.0200   -4.1857    0.0000 C   0  0  0  0  0  0  0  0  0  0  0  0
    8.3671   -4.8454    0.0000 C   0  0  0  0  0  0  0  0  0  0  0  0
    3.6598   -1.2876    0.0000 C   0  0  0  0  0  0  0  0  0  0  0  0
    4.9834    1.1053    0.0000 C   0  0  0  0  0  0  0  0  0  0  0  0
    3.7433    1.9492    0.0000 O   0  0  0  0  0  0  0  0  0  0  0  0
    5.5405    2.4980    0.0000 N   0  0  0  0  0  0  0  0  0  0  0  0
    6.4834    3.6645    0.0000 C   0  0  0  0  0  0  0  0  0  0  0  0
    6.2327    5.1434    0.0000 C   0  0  0  0  0  0  0  0  0  0  0  0
    4.8265    5.6657    0.0000 C   0  0  0  0  0  0  0  0  0  0  0  0
    4.5757    7.1446    0.0000 C   0  0  0  0  0  0  0  0  0  0  0  0
    3.1696    7.6669    0.0000 N   0  0  0  0  0  0  0  0  0  0  0  0
    2.9188    9.1458    0.0000 C   0  0  0  0  0  0  0  0  0  0  0  0
    1.5127    9.6680    0.0000 N   0  0  0  0  0  0  0  0  0  0  0  0
    4.0742   10.1024    0.0000 N   0  0  0  0  0  0  0  0  0  0  0  0
    7.7283    4.5014    0.0000 C   0  0  0  0  0  0  0  0  0  0  0  0
    7.0864    5.8571    0.0000 O   0  0  0  0  0  0  0  0  0  0  0  0
    9.1645    4.9341    0.0000 N   0  0  0  0  0  0  0  0  0  0  0  0
   10.6645    4.9243    0.0000 C   0  0  0  0  0  0  0  0  0  0  0  0
   11.6644    6.0424    0.0000 C   0  0  0  0  0  0  0  0  0  0  0  0
   11.1960    7.4674    0.0000 C   0  0  0  0  0  0  0  0  0  0  0  0
   12.1959    8.5855    0.0000 C   0  0  0  0  0  0  0  0  0  0  0  0
   10.2685    8.6462    0.0000 C   0  0  0  0  0  0  0  0  0  0  0  0
   12.0949    4.4727    0.0000 C   0  0  0  0  0  0  0  0  0  0  0  0
   12.7546    5.8199    0.0000 O   0  0  0  0  0  0  0  0  0  0  0  0
   13.3287    3.6196    0.0000 N   0  0  0  0  0  0  0  0  0  0  0  0
   14.2562    2.4408    0.0000 C   0  0  0  0  0  0  0  0  0  0  0  0
   15.7539    2.3562    0.0000 C   0  0  0  0  0  0  0  0  0  0  0  0
   16.5759    3.6108    0.0000 C   0  0  0  0  0  0  0  0  0  0  0  0
   18.0735    3.5262    0.0000 C   0  0  0  0  0  0  0  0  0  0  0  0
   18.8956    4.7809    0.0000 C   0  0  0  0  0  0  0  0  0  0  0  0
   18.2201    6.1202    0.0000 C   0  0  0  0  0  0  0  0  0  0  0  0
   16.7225    6.2048    0.0000 C   0  0  0  0  0  0  0  0  0  0  0  0
   15.9004    4.9501    0.0000 C   0  0  0  0  0  0  0  0  0  0  0  0
   14.7951    1.0409    0.0000 C   0  0  0  0  0  0  0  0  0  0  0  0
   16.2596    1.3651    0.0000 O   0  0  0  0  0  0  0  0  0  0  0  0
   14.8974   -0.4556    0.0000 N   0  0  0  0  0  0  0  0  0  0  0  0
   14.5540   -1.9158    0.0000 C   0  0  0  0  0  0  0  0  0  0  0  0
   13.7955   -3.2099    0.0000 C   0  0  0  0  0  0  0  0  0  0  0  0
   12.6892   -4.2229    0.0000 C   0  0  0  0  0  0  0  0  0  0  0  0
   11.3335   -4.8648    0.0000 C   0  0  0  0  0  0  0  0  0  0  0  0
    9.8489   -5.0787    0.0000 C   0  0  0  0  0  0  0  0  0  0  0  0
   16.0262   -1.6282    0.0000 C   0  0  0  0  0  0  0  0  0  0  0  0
   15.4216   -3.1394    0.0000 C   0  0  0  0  0  0  0  0  0  0  0  0
   15.1442   -4.6135    0.0000 O   0  0  0  0  0  0  0  0  0  0  0  0
   16.9151   -2.9999    0.0000 N   0  0  0  0  0  0  0  0  0  0  0  0
   17.7827   -4.2235    0.0000 C   0  0  0  0  0  0  0  0  0  0  0  0
   18.1795   -5.6701    0.0000 C   0  0  0  0  0  0  0  0  0  0  0  0
   17.1251   -6.7370    0.0000 O   0  0  0  0  0  0  0  0  0  0  0  0
   19.2762   -4.0839    0.0000 C   0  0  0  0  0  0  0  0  0  0  0  0
   19.9021   -2.7207    0.0000 O   0  0  0  0  0  0  0  0  0  0  0  0
   20.1438   -5.3076    0.0000 N   0  0  0  0  0  0  0  0  0  0  0  0
   21.6373   -5.1680    0.0000 C   0  0  0  0  0  0  0  0  0  0  0  0
   22.9930   -4.5261    0.0000 C   0  0  0  0  0  0  0  0  0  0  0  0
   24.2268   -5.3791    0.0000 C   0  0  0  0  0  0  0  0  0  0  0  0
   24.1049   -6.8742    0.0000 C   0  0  0  0  0  0  0  0  0  0  0  0
   25.3386   -7.7273    0.0000 C   0  0  0  0  0  0  0  0  0  0  0  0
   26.6943   -7.0853    0.0000 C   0  0  0  0  0  0  0  0  0  0  0  0
   27.9281   -7.9384    0.0000 O   0  0  0  0  0  0  0  0  0  0  0  0
   26.8162   -5.5903    0.0000 C   0  0  0  0  0  0  0  0  0  0  0  0
   25.5825   -4.7372    0.0000 C   0  0  0  0  0  0  0  0  0  0  0  0
   22.5049   -6.3916    0.0000 C   0  0  0  0  0  0  0  0  0  0  0  0
   23.9878   -6.6176    0.0000 O   0  0  0  0  0  0  0  0  0  0  0  0
   21.7175   -7.6683    0.0000 O   0  0  0  0  0  0  0  0  0  0  0  0
  -26.1000   -2.4477    0.0000 H   0  0  0  0  0  0  0  0  0  0  0  0
  -26.3653    2.0370    0.0000 H   0  0  0  0  0  0  0  0  0  0  0  0
  -28.9905    3.4890    0.0000 H   0  0  0  0  0  0  0  0  0  0  0  0
  -28.5182   -2.4587    0.0000 H   0  0  0  0  0  0  0  0  0  0  0  0
  -35.4352   -4.3211    0.0000 H   0  0  0  0  0  0  0  0  0  0  0  0
  -36.6088    0.7408    0.0000 H   0  0  0  0  0  0  0  0  0  0  0  0
  -33.6863    1.4183    0.0000 H   0  0  0  0  0  0  0  0  0  0  0  0
  -38.5072   -1.0328    0.0000 H   0  0  0  0  0  0  0  0  0  0  0  0
  -28.7158   -0.0963    0.0000 H   0  0  0  0  0  0  0  0  0  0  0  0
  -26.6374   -2.4692    0.0000 H   0  0  0  0  0  0  0  0  0  0  0  0
  -30.4647   -5.8358    0.0000 H   0  0  0  0  0  0  0  0  0  0  0  0
  -27.9795   -6.5931    0.0000 H   0  0  0  0  0  0  0  0  0  0  0  0
  -23.6850   -2.4145    0.0000 H   0  0  0  0  0  0  0  0  0  0  0  0
  -21.4846    1.0256    0.0000 H   0  0  0  0  0  0  0  0  0  0  0  0
  -23.4126    0.9901    0.0000 H   0  0  0  0  0  0  0  0  0  0  0  0
  -20.2750   -2.1098    0.0000 H   0  0  0  0  0  0  0  0  0  0  0  0
  -22.0578   -2.0336    0.0000 H   0  0  0  0  0  0  0  0  0  0  0  0
  -17.6774   -2.0621    0.0000 H   0  0  0  0  0  0  0  0  0  0  0  0
  -19.3110   -2.0921    0.0000 H   0  0  0  0  0  0  0  0  0  0  0  0
  -14.9345   -1.9027    0.0000 H   0  0  0  0  0  0  0  0  0  0  0  0
  -16.7133   -2.0444    0.0000 H   0  0  0  0  0  0  0  0  0  0  0  0
  -13.8409    1.2750    0.0000 H   0  0  0  0  0  0  0  0  0  0  0  0
  -15.6197    1.1333    0.0000 H   0  0  0  0  0  0  0  0  0  0  0  0
  -11.0941    1.2165    0.0000 H   0  0  0  0  0  0  0  0  0  0  0  0
  -12.8769    1.2927    0.0000 H   0  0  0  0  0  0  0  0  0  0  0  0
   -9.7392   -1.8073    0.0000 H   0  0  0  0  0  0  0  0  0  0  0  0
  -11.6673   -1.8427    0.0000 H   0  0  0  0  0  0  0  0  0  0  0  0
   -8.0992   -2.1281    0.0000 H   0  0  0  0  0  0  0  0  0  0  0  0
   -7.8268    1.2765    0.0000 H   0  0  0  0  0  0  0  0  0  0  0  0
   -5.5883    2.7794    0.0000 H   0  0  0  0  0  0  0  0  0  0  0  0
   -7.2114    2.0379    0.0000 H   0  0  0  0  0  0  0  0  0  0  0  0
   -3.1044    0.3526    0.0000 H   0  0  0  0  0  0  0  0  0  0  0  0
   -4.1809   -0.4027    0.0000 H   0  0  0  0  0  0  0  0  0  0  0  0
   -2.9871    3.6639    0.0000 H   0  0  0  0  0  0  0  0  0  0  0  0
   -4.6884    3.1258    0.0000 H   0  0  0  0  0  0  0  0  0  0  0  0
   -1.1308    0.7840    0.0000 H   0  0  0  0  0  0  0  0  0  0  0  0
    1.3752    4.1118    0.0000 H   0  0  0  0  0  0  0  0  0  0  0  0
    0.8180    1.4840    0.0000 H   0  0  0  0  0  0  0  0  0  0  0  0
   -0.6454    5.7450    0.0000 H   0  0  0  0  0  0  0  0  0  0  0  0
   -3.0701    4.8117    0.0000 H   0  0  0  0  0  0  0  0  0  0  0  0
   -3.9079    1.6549    0.0000 H   0  0  0  0  0  0  0  0  0  0  0  0
   -4.0095   -1.5759    0.0000 H   0  0  0  0  0  0  0  0  0  0  0  0
   -0.6337   -2.3901    0.0000 H   0  0  0  0  0  0  0  0  0  0  0  0
   -0.7492   -0.7603    0.0000 H   0  0  0  0  0  0  0  0  0  0  0  0
   -3.5115   -4.1258    0.0000 H   0  0  0  0  0  0  0  0  0  0  0  0
   -3.8247   -2.5222    0.0000 H   0  0  0  0  0  0  0  0  0  0  0  0
   -0.0569   -4.7746    0.0000 H   0  0  0  0  0  0  0  0  0  0  0  0
   -0.3702   -3.1710    0.0000 H   0  0  0  0  0  0  0  0  0  0  0  0
   -2.8782   -6.7993    0.0000 H   0  0  0  0  0  0  0  0  0  0  0  0
   -3.3266   -5.0721    0.0000 H   0  0  0  0  0  0  0  0  0  0  0  0
   -1.4372   -8.1826    0.0000 H   0  0  0  0  0  0  0  0  0  0  0  0
    0.3624   -7.4899    0.0000 H   0  0  0  0  0  0  0  0  0  0  0  0
    0.1279   -5.7209    0.0000 H   0  0  0  0  0  0  0  0  0  0  0  0
   -0.1237   -1.9704    0.0000 H   0  0  0  0  0  0  0  0  0  0  0  0
   -0.0339    1.4197    0.0000 H   0  0  0  0  0  0  0  0  0  0  0  0
    2.3812    2.8738    0.0000 H   0  0  0  0  0  0  0  0  0  0  0  0
    0.4449    1.8419    0.0000 H   0  0  0  0  0  0  0  0  0  0  0  0
    3.7043    1.8282    0.0000 H   0  0  0  0  0  0  0  0  0  0  0  0
    3.6867   -1.9119    0.0000 H   0  0  0  0  0  0  0  0  0  0  0  0
    4.3020   -3.0664    0.0000 H   0  0  0  0  0  0  0  0  0  0  0  0
    4.5118   -3.6550    0.0000 H   0  0  0  0  0  0  0  0  0  0  0  0
    5.2707   -4.5070    0.0000 H   0  0  0  0  0  0  0  0  0  0  0  0
    5.7142   -4.9239    0.0000 H   0  0  0  0  0  0  0  0  0  0  0  0
    6.9727   -5.6850    0.0000 H   0  0  0  0  0  0  0  0  0  0  0  0
    7.9156   -6.2758    0.0000 H   0  0  0  0  0  0  0  0  0  0  0  0
    3.4709   -2.7757    0.0000 H   0  0  0  0  0  0  0  0  0  0  0  0
    2.3710   -2.0550    0.0000 H   0  0  0  0  0  0  0  0  0  0  0  0
    2.6803   -0.1516    0.0000 H   0  0  0  0  0  0  0  0  0  0  0  0
    4.3485    3.4086    0.0000 H   0  0  0  0  0  0  0  0  0  0  0  0
    4.9968    3.8645    0.0000 H   0  0  0  0  0  0  0  0  0  0  0  0
    6.6807    6.5750    0.0000 H   0  0  0  0  0  0  0  0  0  0  0  0
    7.6904    5.4968    0.0000 H   0  0  0  0  0  0  0  0  0  0  0  0
    3.3266    5.6755    0.0000 H   0  0  0  0  0  0  0  0  0  0  0  0
    4.2074    4.2995    0.0000 H   0  0  0  0  0  0  0  0  0  0  0  0
    4.8459    8.6201    0.0000 H   0  0  0  0  0  0  0  0  0  0  0  0
    6.0657    7.3177    0.0000 H   0  0  0  0  0  0  0  0  0  0  0  0
    2.0142    6.7102    0.0000 H   0  0  0  0  0  0  0  0  0  0  0  0
    1.2619   11.1469    0.0000 H   0  0  0  0  0  0  0  0  0  0  0  0
    0.3573    8.7114    0.0000 H   0  0  0  0  0  0  0  0  0  0  0  0
    3.8234   11.5813    0.0000 H   0  0  0  0  0  0  0  0  0  0  0  0
    5.4803    9.5801    0.0000 H   0  0  0  0  0  0  0  0  0  0  0  0
    8.9507    6.4188    0.0000 H   0  0  0  0  0  0  0  0  0  0  0  0
    9.8939    6.2112    0.0000 H   0  0  0  0  0  0  0  0  0  0  0  0
   13.0629    6.5847    0.0000 H   0  0  0  0  0  0  0  0  0  0  0  0
   12.8496    5.1230    0.0000 H   0  0  0  0  0  0  0  0  0  0  0  0
    9.7975    6.9251    0.0000 H   0  0  0  0  0  0  0  0  0  0  0  0
   11.9047   10.0570    0.0000 H   0  0  0  0  0  0  0  0  0  0  0  0
   13.5179    9.2942    0.0000 H   0  0  0  0  0  0  0  0  0  0  0  0
   13.2602    7.5285    0.0000 H   0  0  0  0  0  0  0  0  0  0  0  0
   10.6517   10.0965    0.0000 H   0  0  0  0  0  0  0  0  0  0  0  0
    8.9937    9.4368    0.0000 H   0  0  0  0  0  0  0  0  0  0  0  0
    9.2686    7.5281    0.0000 H   0  0  0  0  0  0  0  0  0  0  0  0
   14.2153    4.8296    0.0000 H   0  0  0  0  0  0  0  0  0  0  0  0
   14.9493    3.7711    0.0000 H   0  0  0  0  0  0  0  0  0  0  0  0
   17.1322    1.7645    0.0000 H   0  0  0  0  0  0  0  0  0  0  0  0
   15.7740    0.8563    0.0000 H   0  0  0  0  0  0  0  0  0  0  0  0
   18.7491    2.1870    0.0000 H   0  0  0  0  0  0  0  0  0  0  0  0
   20.3932    4.6963    0.0000 H   0  0  0  0  0  0  0  0  0  0  0  0
   19.0421    7.3749    0.0000 H   0  0  0  0  0  0  0  0  0  0  0  0
   16.0469    7.5441    0.0000 H   0  0  0  0  0  0  0  0  0  0  0  0
   14.4242    5.2166    0.0000 H   0  0  0  0  0  0  0  0  0  0  0  0
   16.3924   -0.5775    0.0000 H   0  0  0  0  0  0  0  0  0  0  0  0
   14.2639   -4.6349    0.0000 H   0  0  0  0  0  0  0  0  0  0  0  0
   15.2042   -3.7252    0.0000 H   0  0  0  0  0  0  0  0  0  0  0  0
   12.8994   -5.7081    0.0000 H   0  0  0  0  0  0  0  0  0  0  0  0
   13.8835   -5.1305    0.0000 H   0  0  0  0  0  0  0  0  0  0  0  0
   10.9178   -6.3061    0.0000 H   0  0  0  0  0  0  0  0  0  0  0  0
   12.3493   -5.9686    0.0000 H   0  0  0  0  0  0  0  0  0  0  0  0
    9.8390   -6.5786    0.0000 H   0  0  0  0  0  0  0  0  0  0  0  0
   17.2557   -2.4874    0.0000 H   0  0  0  0  0  0  0  0  0  0  0  0
   17.2073   -0.7036    0.0000 H   0  0  0  0  0  0  0  0  0  0  0  0
   15.8421   -0.1396    0.0000 H   0  0  0  0  0  0  0  0  0  0  0  0
   17.7025   -1.7231    0.0000 H   0  0  0  0  0  0  0  0  0  0  0  0
   16.4270   -4.8654    0.0000 H   0  0  0  0  0  0  0  0  0  0  0  0
   18.8914   -6.9903    0.0000 H   0  0  0  0  0  0  0  0  0  0  0  0
   19.6502   -5.3752    0.0000 H   0  0  0  0  0  0  0  0  0  0  0  0
   17.5219   -8.1835    0.0000 H   0  0  0  0  0  0  0  0  0  0  0  0
   19.6887   -6.7369    0.0000 H   0  0  0  0  0  0  0  0  0  0  0  0
   21.2405   -3.7214    0.0000 H   0  0  0  0  0  0  0  0  0  0  0  0
   24.0474   -3.4592    0.0000 H   0  0  0  0  0  0  0  0  0  0  0  0
   22.1254   -3.3024    0.0000 H   0  0  0  0  0  0  0  0  0  0  0  0
   22.8375   -7.6766    0.0000 H   0  0  0  0  0  0  0  0  0  0  0  0
   25.2167   -9.2223    0.0000 H   0  0  0  0  0  0  0  0  0  0  0  0
   29.2838   -7.2965    0.0000 H   0  0  0  0  0  0  0  0  0  0  0  0
   28.1719   -4.9484    0.0000 H   0  0  0  0  0  0  0  0  0  0  0  0
   25.7044   -3.2422    0.0000 H   0  0  0  0  0  0  0  0  0  0  0  0
  1  2  1  0
  2  3  1  0
  3  4  2  0
  4  5  1  0
  5  6  2  0
  6  7  1  0
  7  8  2  0
  7  9  1  0
  9 10  1  0
 10 11  1  0
 11 12  2  0
  9 13  1  0
 13 14  1  0
 14 15  2  0
 15 16  1  0
 16 17  2  0
 17 18  1  0
 16 19  1  0
 14 20  1  0
 20 21  1  0
 21 22  2  0
 22 23  1  0
 23 24  2  0
 24 25  1  0
 25 26  2  0
 25 27  1  0
  1 28  2  0
  1 29  1  0
 29 30  1  0
 30 31  1  0
 31 32  1  0
 32 33  1  0
 33 34  1  0
 34 35  1  0
 35 36  1  0
 36 37  1  0
 37 38  1  0
 38 39  1  0
 39 40  1  0
 40 41  2  0
 40 42  1  0
 42 43  1  0
 43 44  1  0
 44 45  1  0
 45 46  1  0
 46 47  1  0
 47 48  1  0
 48 49  2  3
 48 50  1  0
 43 51  1  0
 51 52  2  0
 51 53  1  0
 53 54  1  0
 54 55  1  0
 55 56  1  0
 56 57  1  0
 57 58  1  0
 58 59  1  0
 54 60  1  0
 60 61  2  0
 60 62  1  0
 62 63  1  0
 63 64  1  0
 64 65  1  0
 65 66  2  0
 66 67  1  0
 66 68  1  0
 68 69  1  0
 68 70  2  0
 70 71  1  0
 70 72  1  0
 72 73  1  0
 72 74  2  0
 74 75  1  0
 63 76  1  0
 76 77  2  0
 76 78  1  0
 79 78  1  6
 79 80  1  0
 80 81  1  0
 81 82  1  0
 82 83  1  0
 79 84  1  0
 79 85  1  0
 85 86  2  0
 85 87  1  0
 87 88  1  0
 88 89  1  0
 89 90  1  0
 90 91  1  0
 91 92  1  0
 92 93  1  0
 93 94  2  3
 93 95  1  0
 88 96  1  0
 96 97  2  0
 96 98  1  0
 98 99  1  0
 99100  1  0
100101  1  0
101102  1  0
101103  1  0
 99104  1  0
104105  2  0
104106  1  0
106107  1  0
107108  1  0
108109  1  0
109110  2  0
110111  1  0
111112  2  0
112113  1  0
113114  2  0
107115  1  0
115116  2  0
115117  1  0
117118  1  0
118119  1  0
119120  1  0
120121  1  0
121122  1  0
118123  1  0
118124  1  6
124125  2  0
124126  1  0
126127  1  0
127128  1  0
128129  1  0
127130  1  0
130131  2  0
130132  1  0
132133  1  0
133134  1  0
134135  1  0
135136  2  0
136137  1  0
137138  2  0
138139  1  0
138140  1  0
140141  2  0
133142  1  0
142143  2  0
142144  1  0
  8  3  1  0
 74 65  1  0
114109  1  0
141135  1  0
 11  6  1  0
 83122  2  0
 18 13  2  0
 22  9  1  0
 26 21  1  0
  2145  1  0
  4146  1  0
  5147  1  0
  8148  1  0
 15149  1  0
 17150  1  0
 18151  1  0
 19152  1  0
 23153  1  0
 24154  1  0
 26155  1  0
 27156  1  0
 29157  1  0
 30158  1  0
 30159  1  0
 31160  1  0
 31161  1  0
 33162  1  0
 33163  1  0
 35164  1  0
 35165  1  0
 36166  1  0
 36167  1  0
 38168  1  0
 38169  1  0
 39170  1  0
 39171  1  0
 42172  1  0
 43173  1  1
 44174  1  0
 44175  1  0
 45176  1  0
 45177  1  0
 46178  1  0
 46179  1  0
 47180  1  0
 49181  1  0
 49182  1  0
 50183  1  0
 50184  1  0
 53185  1  0
 54186  1  6
 55187  1  0
 55188  1  0
 56189  1  0
 56190  1  0
 57191  1  0
 57192  1  0
 58193  1  0
 58194  1  0
 59195  1  0
 59196  1  0
 59197  1  0
 62198  1  0
 63199  1  6
 64200  1  0
 64201  1  0
 78202  1  0
 80203  1  0
 80204  1  0
 81205  1  0
 81206  1  0
 82207  1  0
 82208  1  0
 83209  1  0
 84210  1  0
 84211  1  0
 84212  1  0
 87213  1  0
 88214  1  1
 89215  1  0
 89216  1  0
 90217  1  0
 90218  1  0
 91219  1  0
 91220  1  0
 92221  1  0
 94222  1  0
 94223  1  0
 95224  1  0
 95225  1  0
 98226  1  0
 99227  1  1
100228  1  0
100229  1  0
101230  1  0
102231  1  0
102232  1  0
102233  1  0
103234  1  0
103235  1  0
103236  1  0
106237  1  0
107238  1  1
108239  1  0
108240  1  0
110241  1  0
111242  1  0
112243  1  0
113244  1  0
114245  1  0
117246  1  0
119247  1  0
119248  1  0
120249  1  0
120250  1  0
121251  1  0
121252  1  0
122253  1  0
123254  1  0
123255  1  0
123256  1  0
126257  1  0
127258  1  6
128259  1  0
128260  1  0
129261  1  0
132262  1  0
133263  1  1
134264  1  0
134265  1  0
136266  1  0
137267  1  0
139268  1  0
140269  1  0
141270  1  0
M  CHG  4  49   1  59   1  94   1 144  -1
M  END
