
     RDKit          2D

314316  0  0  0  0  0  0  0  0999 V2000
  -25.7827   -3.2220    0.0000 N   0  0  0  0  0  0  0  0  0  0  0  0
  -24.3014   -2.9858    0.0000 C   0  0  0  0  0  0  0  0  0  0  0  0
  -23.3562   -4.1505    0.0000 C   0  0  0  0  0  0  0  0  0  0  0  0
  -21.8749   -3.9143    0.0000 C   0  0  0  0  0  0  0  0  0  0  0  0
  -21.3388   -2.5133    0.0000 O   0  0  0  0  0  0  0  0  0  0  0  0
  -20.9297   -5.0790    0.0000 N   0  0  0  0  0  0  0  0  0  0  0  0
  -19.4484   -4.8428    0.0000 C   0  0  0  0  0  0  0  0  0  0  0  0
  -19.4730   -6.3426    0.0000 C   0  0  0  0  0  0  0  0  0  0  0  0
  -20.7842   -7.0712    0.0000 C   0  0  0  0  0  0  0  0  0  0  0  0
  -20.8088   -8.5710    0.0000 C   0  0  0  0  0  0  0  0  0  0  0  0
  -22.1199   -9.2996    0.0000 O   0  0  0  0  0  0  0  0  0  0  0  0
  -19.5222   -9.3422    0.0000 O   0  0  0  0  0  0  0  0  0  0  0  0
  -18.1373   -4.1142    0.0000 C   0  0  0  0  0  0  0  0  0  0  0  0
  -16.9543   -5.0365    0.0000 O   0  0  0  0  0  0  0  0  0  0  0  0
  -18.1127   -2.6144    0.0000 N   0  0  0  0  0  0  0  0  0  0  0  0
  -16.8015   -1.8858    0.0000 C   0  0  0  0  0  0  0  0  0  0  0  0
  -16.3117   -3.3035    0.0000 C   0  0  0  0  0  0  0  0  0  0  0  0
  -14.8389   -3.5882    0.0000 C   0  0  0  0  0  0  0  0  0  0  0  0
  -14.3491   -5.0060    0.0000 C   0  0  0  0  0  0  0  0  0  0  0  0
  -12.8763   -5.2906    0.0000 N   0  0  0  0  0  0  0  0  0  0  0  0
  -12.3865   -6.7084    0.0000 C   0  0  0  0  0  0  0  0  0  0  0  0
  -10.9137   -6.9930    0.0000 N   0  0  0  0  0  0  0  0  0  0  0  0
  -13.3694   -7.8415    0.0000 N   0  0  0  0  0  0  0  0  0  0  0  0
  -15.8186   -0.7527    0.0000 C   0  0  0  0  0  0  0  0  0  0  0  0
  -14.3459   -1.0373    0.0000 O   0  0  0  0  0  0  0  0  0  0  0  0
  -16.3085    0.6651    0.0000 N   0  0  0  0  0  0  0  0  0  0  0  0
  -15.3256    1.7982    0.0000 C   0  0  0  0  0  0  0  0  0  0  0  0
  -16.6121    2.5694    0.0000 C   0  0  0  0  0  0  0  0  0  0  0  0
  -17.9233    1.8408    0.0000 C   0  0  0  0  0  0  0  0  0  0  0  0
  -19.2099    2.6120    0.0000 C   0  0  0  0  0  0  0  0  0  0  0  0
  -18.9062    0.7077    0.0000 C   0  0  0  0  0  0  0  0  0  0  0  0
  -14.0144    2.5268    0.0000 C   0  0  0  0  0  0  0  0  0  0  0  0
  -14.1946    3.3033    0.0000 O   0  0  0  0  0  0  0  0  0  0  0  0
  -12.7278    1.7556    0.0000 N   0  0  0  0  0  0  0  0  0  0  0  0
  -11.4167    2.4842    0.0000 C   0  0  0  0  0  0  0  0  0  0  0  0
  -12.3619    3.6489    0.0000 C   0  0  0  0  0  0  0  0  0  0  0  0
  -13.8432    3.4127    0.0000 C   0  0  0  0  0  0  0  0  0  0  0  0
  -14.7884    4.5774    0.0000 C   0  0  0  0  0  0  0  0  0  0  0  0
  -16.2697    4.3412    0.0000 N   0  0  0  0  0  0  0  0  0  0  0  0
  -17.2149    5.5059    0.0000 C   0  0  0  0  0  0  0  0  0  0  0  0
  -18.6962    5.2697    0.0000 N   0  0  0  0  0  0  0  0  0  0  0  0
  -16.6788    6.9068    0.0000 N   0  0  0  0  0  0  0  0  0  0  0  0
   -9.9354    2.7204    0.0000 C   0  0  0  0  0  0  0  0  0  0  0  0
   -9.7542    4.2094    0.0000 O   0  0  0  0  0  0  0  0  0  0  0  0
   -8.9902    1.5557    0.0000 N   0  0  0  0  0  0  0  0  0  0  0  0
   -7.5089    1.7919    0.0000 C   0  0  0  0  0  0  0  0  0  0  0  0
   -7.9988    3.2097    0.0000 C   0  0  0  0  0  0  0  0  0  0  0  0
   -9.4715    3.4943    0.0000 C   0  0  0  0  0  0  0  0  0  0  0  0
   -9.9613    4.9121    0.0000 C   0  0  0  0  0  0  0  0  0  0  0  0
  -11.4341    5.1967    0.0000 N   0  0  0  0  0  0  0  0  0  0  0  0
  -11.9239    6.6145    0.0000 C   0  0  0  0  0  0  0  0  0  0  0  0
  -13.3967    6.8991    0.0000 N   0  0  0  0  0  0  0  0  0  0  0  0
  -10.9410    7.7476    0.0000 N   0  0  0  0  0  0  0  0  0  0  0  0
   -6.0362    1.5072    0.0000 C   0  0  0  0  0  0  0  0  0  0  0  0
   -5.3567    2.8445    0.0000 O   0  0  0  0  0  0  0  0  0  0  0  0
   -5.5463    0.0895    0.0000 N   0  0  0  0  0  0  0  0  0  0  0  0
   -4.0736   -0.1952    0.0000 C   0  0  0  0  0  0  0  0  0  0  0  0
   -4.0490    1.3046    0.0000 C   0  0  0  0  0  0  0  0  0  0  0  0
   -5.3355    2.0758    0.0000 C   0  0  0  0  0  0  0  0  0  0  0  0
   -5.3109    3.5756    0.0000 C   0  0  0  0  0  0  0  0  0  0  0  0
   -6.5975    4.3468    0.0000 N   0  0  0  0  0  0  0  0  0  0  0  0
   -6.5729    5.8466    0.0000 C   0  0  0  0  0  0  0  0  0  0  0  0
   -7.8595    6.6178    0.0000 N   0  0  0  0  0  0  0  0  0  0  0  0
   -5.2618    6.5752    0.0000 N   0  0  0  0  0  0  0  0  0  0  0  0
   -2.7870   -0.9664    0.0000 C   0  0  0  0  0  0  0  0  0  0  0  0
   -1.4758   -0.2378    0.0000 O   0  0  0  0  0  0  0  0  0  0  0  0
   -2.8116   -2.4662    0.0000 N   0  0  0  0  0  0  0  0  0  0  0  0
   -1.5250   -3.2374    0.0000 C   0  0  0  0  0  0  0  0  0  0  0  0
   -2.5079   -4.3705    0.0000 C   0  0  0  0  0  0  0  0  0  0  0  0
   -3.9350   -3.9084    0.0000 C   0  0  0  0  0  0  0  0  0  0  0  0
   -3.0440   -5.7714    0.0000 C   0  0  0  0  0  0  0  0  0  0  0  0
   -4.5253   -6.0076    0.0000 C   0  0  0  0  0  0  0  0  0  0  0  0
   -0.0523   -3.5220    0.0000 C   0  0  0  0  0  0  0  0  0  0  0  0
    0.2611   -4.9889    0.0000 O   0  0  0  0  0  0  0  0  0  0  0  0
    0.9306   -2.3889    0.0000 N   0  0  0  0  0  0  0  0  0  0  0  0
    2.4033   -2.6736    0.0000 C   0  0  0  0  0  0  0  0  0  0  0  0
    3.1644   -3.9662    0.0000 C   0  0  0  0  0  0  0  0  0  0  0  0
    4.2727   -4.9770    0.0000 C   0  0  0  0  0  0  0  0  0  0  0  0
    5.6296   -5.6163    0.0000 C   0  0  0  0  0  0  0  0  0  0  0  0
    7.1147   -5.8272    0.0000 C   0  0  0  0  0  0  0  0  0  0  0  0
    1.3952   -3.7843    0.0000 C   0  0  0  0  0  0  0  0  0  0  0  0
    2.0571   -1.2141    0.0000 C   0  0  0  0  0  0  0  0  0  0  0  0
    0.5582   -1.1558    0.0000 O   0  0  0  0  0  0  0  0  0  0  0  0
    2.1564    0.2826    0.0000 N   0  0  0  0  0  0  0  0  0  0  0  0
    2.6925    1.6835    0.0000 C   0  0  0  0  0  0  0  0  0  0  0  0
    1.1950    1.5960    0.0000 C   0  0  0  0  0  0  0  0  0  0  0  0
    0.3705    2.8490    0.0000 C   0  0  0  0  0  0  0  0  0  0  0  0
   -1.1269    2.7615    0.0000 C   0  0  0  0  0  0  0  0  0  0  0  0
    0.0242    4.3085    0.0000 C   0  0  0  0  0  0  0  0  0  0  0  0
    3.6177    2.8642    0.0000 C   0  0  0  0  0  0  0  0  0  0  0  0
    2.5881    3.9550    0.0000 O   0  0  0  0  0  0  0  0  0  0  0  0
    4.8498    3.7197    0.0000 N   0  0  0  0  0  0  0  0  0  0  0  0
    6.2793    4.1741    0.0000 C   0  0  0  0  0  0  0  0  0  0  0  0
    5.2772    5.2903    0.0000 C   0  0  0  0  0  0  0  0  0  0  0  0
    5.7428    6.7162    0.0000 S   0  0  0  0  0  0  0  0  0  0  0  0
    7.7793    4.1869    0.0000 C   0  0  0  0  0  0  0  0  0  0  0  0
    7.9902    5.6720    0.0000 O   0  0  0  0  0  0  0  0  0  0  0  0
    9.2163    3.7570    0.0000 N   0  0  0  0  0  0  0  0  0  0  0  0
   10.4629    2.9227    0.0000 C   0  0  0  0  0  0  0  0  0  0  0  0
   10.7107    4.4020    0.0000 C   0  0  0  0  0  0  0  0  0  0  0  0
   12.1158    4.9271    0.0000 C   0  0  0  0  0  0  0  0  0  0  0  0
   12.3637    6.4065    0.0000 C   0  0  0  0  0  0  0  0  0  0  0  0
   13.7688    6.9315    0.0000 N   0  0  0  0  0  0  0  0  0  0  0  0
   14.0166    8.4109    0.0000 C   0  0  0  0  0  0  0  0  0  0  0  0
   15.4218    8.9359    0.0000 N   0  0  0  0  0  0  0  0  0  0  0  0
   12.8594    9.3652    0.0000 N   0  0  0  0  0  0  0  0  0  0  0  0
   11.4081    1.7579    0.0000 C   0  0  0  0  0  0  0  0  0  0  0  0
   12.7007    2.5190    0.0000 O   0  0  0  0  0  0  0  0  0  0  0  0
   11.9680    0.3663    0.0000 N   0  0  0  0  0  0  0  0  0  0  0  0
   12.0928   -1.1284    0.0000 C   0  0  0  0  0  0  0  0  0  0  0  0
   11.7716   -2.5936    0.0000 C   0  0  0  0  0  0  0  0  0  0  0  0
   11.0327   -3.8990    0.0000 C   0  0  0  0  0  0  0  0  0  0  0  0
    9.9418   -4.9286    0.0000 C   0  0  0  0  0  0  0  0  0  0  0  0
    8.5960   -5.5910    0.0000 C   0  0  0  0  0  0  0  0  0  0  0  0
   13.3964   -1.8705    0.0000 C   0  0  0  0  0  0  0  0  0  0  0  0
   13.4040   -0.3998    0.0000 C   0  0  0  0  0  0  0  0  0  0  0  0
   13.6112    1.0858    0.0000 O   0  0  0  0  0  0  0  0  0  0  0  0
   14.6906   -1.1710    0.0000 N   0  0  0  0  0  0  0  0  0  0  0  0
   16.0017   -0.4424    0.0000 C   0  0  0  0  0  0  0  0  0  0  0  0
   16.9846    0.6907    0.0000 C   0  0  0  0  0  0  0  0  0  0  0  0
   18.4574    0.4060    0.0000 C   0  0  0  0  0  0  0  0  0  0  0  0
   19.5533    1.4302    0.0000 C   0  0  0  0  0  0  0  0  0  0  0  0
   20.8660    0.7043    0.0000 N   0  0  0  0  0  0  0  0  0  0  0  0
   20.5814   -0.7684    0.0000 C   0  0  0  0  0  0  0  0  0  0  0  0
   19.0927   -0.9528    0.0000 N   0  0  0  0  0  0  0  0  0  0  0  0
   17.2883   -1.2136    0.0000 C   0  0  0  0  0  0  0  0  0  0  0  0
   17.2637   -2.7134    0.0000 O   0  0  0  0  0  0  0  0  0  0  0  0
   18.5995   -0.4850    0.0000 N   0  0  0  0  0  0  0  0  0  0  0  0
   19.8860   -1.2562    0.0000 C   0  0  0  0  0  0  0  0  0  0  0  0
   20.8312   -2.4210    0.0000 C   0  0  0  0  0  0  0  0  0  0  0  0
   20.2952   -3.8219    0.0000 C   0  0  0  0  0  0  0  0  0  0  0  0
   21.1134   -5.0790    0.0000 C   0  0  0  0  0  0  0  0  0  0  0  0
   20.1707   -6.2458    0.0000 N   0  0  0  0  0  0  0  0  0  0  0  0
   18.7698   -5.7097    0.0000 C   0  0  0  0  0  0  0  0  0  0  0  0
   18.8467   -4.2117    0.0000 N   0  0  0  0  0  0  0  0  0  0  0  0
   21.1972   -0.5276    0.0000 C   0  0  0  0  0  0  0  0  0  0  0  0
   21.5840    0.9216    0.0000 O   0  0  0  0  0  0  0  0  0  0  0  0
   22.4838   -1.2988    0.0000 N   0  0  0  0  0  0  0  0  0  0  0  0
   23.7949   -0.5702    0.0000 C   0  0  0  0  0  0  0  0  0  0  0  0
   24.7778    0.5629    0.0000 C   0  0  0  0  0  0  0  0  0  0  0  0
   26.2547    0.8250    0.0000 O   0  0  0  0  0  0  0  0  0  0  0  0
   25.0815   -1.3414    0.0000 C   0  0  0  0  0  0  0  0  0  0  0  0
   25.0569   -2.8412    0.0000 O   0  0  0  0  0  0  0  0  0  0  0  0
   26.3926   -0.6128    0.0000 N   0  0  0  0  0  0  0  0  0  0  0  0
   27.6792   -1.3840    0.0000 C   0  0  0  0  0  0  0  0  0  0  0  0
   28.6244   -2.5488    0.0000 C   0  0  0  0  0  0  0  0  0  0  0  0
   29.9110   -3.3200    0.0000 O   0  0  0  0  0  0  0  0  0  0  0  0
   28.0883   -3.9497    0.0000 C   0  0  0  0  0  0  0  0  0  0  0  0
   28.9904   -0.6554    0.0000 C   0  0  0  0  0  0  0  0  0  0  0  0
   30.3613   -1.2641    0.0000 O   0  0  0  0  0  0  0  0  0  0  0  0
   29.0150    0.8443    0.0000 O   0  0  0  0  0  0  0  0  0  0  0  0
  -26.7279   -2.0573    0.0000 H   0  0  0  0  0  0  0  0  0  0  0  0
  -26.3188   -4.6229    0.0000 H   0  0  0  0  0  0  0  0  0  0  0  0
  -24.7913   -1.5680    0.0000 H   0  0  0  0  0  0  0  0  0  0  0  0
  -22.9903   -2.2572    0.0000 H   0  0  0  0  0  0  0  0  0  0  0  0
  -24.6674   -4.8791    0.0000 H   0  0  0  0  0  0  0  0  0  0  0  0
  -22.8664   -5.5683    0.0000 H   0  0  0  0  0  0  0  0  0  0  0  0
  -21.6326   -6.4041    0.0000 H   0  0  0  0  0  0  0  0  0  0  0  0
  -19.9383   -3.4250    0.0000 H   0  0  0  0  0  0  0  0  0  0  0  0
  -18.9832   -7.7603    0.0000 H   0  0  0  0  0  0  0  0  0  0  0  0
  -17.9917   -6.1064    0.0000 H   0  0  0  0  0  0  0  0  0  0  0  0
  -22.2655   -7.3074    0.0000 H   0  0  0  0  0  0  0  0  0  0  0  0
  -21.7497   -5.9232    0.0000 H   0  0  0  0  0  0  0  0  0  0  0  0
  -19.3992   -1.8432    0.0000 H   0  0  0  0  0  0  0  0  0  0  0  0
  -17.5977   -0.6145    0.0000 H   0  0  0  0  0  0  0  0  0  0  0  0
  -16.3363   -4.8033    0.0000 H   0  0  0  0  0  0  0  0  0  0  0  0
  -17.6918   -3.8912    0.0000 H   0  0  0  0  0  0  0  0  0  0  0  0
  -13.3576   -3.3520    0.0000 H   0  0  0  0  0  0  0  0  0  0  0  0
  -14.8143   -2.0884    0.0000 H   0  0  0  0  0  0  0  0  0  0  0  0
  -14.3737   -6.5058    0.0000 H   0  0  0  0  0  0  0  0  0  0  0  0
  -15.7905   -5.4210    0.0000 H   0  0  0  0  0  0  0  0  0  0  0  0
  -11.8934   -4.1575    0.0000 H   0  0  0  0  0  0  0  0  0  0  0  0
  -10.4239   -8.4108    0.0000 H   0  0  0  0  0  0  0  0  0  0  0  0
   -9.9308   -5.8599    0.0000 H   0  0  0  0  0  0  0  0  0  0  0  0
  -12.8795   -9.2593    0.0000 H   0  0  0  0  0  0  0  0  0  0  0  0
  -14.8421   -7.5568    0.0000 H   0  0  0  0  0  0  0  0  0  0  0  0
  -17.8049    0.7681    0.0000 H   0  0  0  0  0  0  0  0  0  0  0  0
  -14.3804    0.6335    0.0000 H   0  0  0  0  0  0  0  0  0  0  0  0
  -17.4083    3.8406    0.0000 H   0  0  0  0  0  0  0  0  0  0  0  0
  -15.9326    3.9066    0.0000 H   0  0  0  0  0  0  0  0  0  0  0  0
  -17.4584    0.4146    0.0000 H   0  0  0  0  0  0  0  0  0  0  0  0
  -20.6001    2.0486    0.0000 H   0  0  0  0  0  0  0  0  0  0  0  0
  -20.1551    3.7767    0.0000 H   0  0  0  0  0  0  0  0  0  0  0  0
  -18.3724    3.8564    0.0000 H   0  0  0  0  0  0  0  0  0  0  0  0
  -20.4026    0.8107    0.0000 H   0  0  0  0  0  0  0  0  0  0  0  0
  -19.4423   -0.6933    0.0000 H   0  0  0  0  0  0  0  0  0  0  0  0
  -17.5352    0.0991    0.0000 H   0  0  0  0  0  0  0  0  0  0  0  0
  -12.7524    0.2558    0.0000 H   0  0  0  0  0  0  0  0  0  0  0  0
  -10.9268    1.0664    0.0000 H   0  0  0  0  0  0  0  0  0  0  0  0
  -12.6753    5.1158    0.0000 H   0  0  0  0  0  0  0  0  0  0  0  0
  -11.2660    4.6731    0.0000 H   0  0  0  0  0  0  0  0  0  0  0  0
  -15.1543    2.6841    0.0000 H   0  0  0  0  0  0  0  0  0  0  0  0
  -13.7109    1.9185    0.0000 H   0  0  0  0  0  0  0  0  0  0  0  0
  -15.2782    5.9952    0.0000 H   0  0  0  0  0  0  0  0  0  0  0  0
  -13.5758    5.4604    0.0000 H   0  0  0  0  0  0  0  0  0  0  0  0
  -17.1288    3.1116    0.0000 H   0  0  0  0  0  0  0  0  0  0  0  0
  -19.6414    6.4344    0.0000 H   0  0  0  0  0  0  0  0  0  0  0  0
  -19.2322    3.8688    0.0000 H   0  0  0  0  0  0  0  0  0  0  0  0
  -17.6240    8.0716    0.0000 H   0  0  0  0  0  0  0  0  0  0  0  0
  -15.1975    7.1431    0.0000 H   0  0  0  0  0  0  0  0  0  0  0  0
   -9.5263    0.1547    0.0000 H   0  0  0  0  0  0  0  0  0  0  0  0
   -7.5335    0.2921    0.0000 H   0  0  0  0  0  0  0  0  0  0  0  0
   -7.7915    4.6953    0.0000 H   0  0  0  0  0  0  0  0  0  0  0  0
   -6.6186    3.7973    0.0000 H   0  0  0  0  0  0  0  0  0  0  0  0
  -10.9528    3.2581    0.0000 H   0  0  0  0  0  0  0  0  0  0  0  0
   -9.8583    2.0450    0.0000 H   0  0  0  0  0  0  0  0  0  0  0  0
   -9.9367    6.4119    0.0000 H   0  0  0  0  0  0  0  0  0  0  0  0
   -8.5199    5.3271    0.0000 H   0  0  0  0  0  0  0  0  0  0  0  0
  -12.6620    4.3351    0.0000 H   0  0  0  0  0  0  0  0  0  0  0  0
  -13.8865    8.3169    0.0000 H   0  0  0  0  0  0  0  0  0  0  0  0
  -14.3796    5.7660    0.0000 H   0  0  0  0  0  0  0  0  0  0  0  0
  -11.4309    9.1654    0.0000 H   0  0  0  0  0  0  0  0  0  0  0  0
   -9.4683    7.4629    0.0000 H   0  0  0  0  0  0  0  0  0  0  0  0
   -6.5292   -1.0436    0.0000 H   0  0  0  0  0  0  0  0  0  0  0  0
   -4.6096   -1.5961    0.0000 H   0  0  0  0  0  0  0  0  0  0  0  0
   -3.3461    2.6298    0.0000 H   0  0  0  0  0  0  0  0  0  0  0  0
   -2.5762    1.0199    0.0000 H   0  0  0  0  0  0  0  0  0  0  0  0
   -6.8083    2.3605    0.0000 H   0  0  0  0  0  0  0  0  0  0  0  0
   -6.1947    0.8462    0.0000 H   0  0  0  0  0  0  0  0  0  0  0  0
   -4.7749    4.9765    0.0000 H   0  0  0  0  0  0  0  0  0  0  0  0
   -3.8145    3.4726    0.0000 H   0  0  0  0  0  0  0  0  0  0  0  0
   -8.0460    3.9571    0.0000 H   0  0  0  0  0  0  0  0  0  0  0  0
   -7.8349    8.1176    0.0000 H   0  0  0  0  0  0  0  0  0  0  0  0
   -9.1706    5.8892    0.0000 H   0  0  0  0  0  0  0  0  0  0  0  0
   -5.2372    8.0750    0.0000 H   0  0  0  0  0  0  0  0  0  0  0  0
   -3.9752    5.8040    0.0000 H   0  0  0  0  0  0  0  0  0  0  0  0
   -4.2018   -3.0295    0.0000 H   0  0  0  0  0  0  0  0  0  0  0  0
   -0.9890   -1.8364    0.0000 H   0  0  0  0  0  0  0  0  0  0  0  0
   -1.2214   -5.1417    0.0000 H   0  0  0  0  0  0  0  0  0  0  0  0
   -5.1156   -5.0838    0.0000 H   0  0  0  0  0  0  0  0  0  0  0  0
   -5.2672   -3.3146    0.0000 H   0  0  0  0  0  0  0  0  0  0  0  0
   -3.9824   -2.5858    0.0000 H   0  0  0  0  0  0  0  0  0  0  0  0
   -3.0686   -7.2712    0.0000 H   0  0  0  0  0  0  0  0  0  0  0  0
   -1.5713   -6.0561    0.0000 H   0  0  0  0  0  0  0  0  0  0  0  0
   -5.0614   -7.4086    0.0000 H   0  0  0  0  0  0  0  0  0  0  0  0
   -5.9980   -5.7230    0.0000 H   0  0  0  0  0  0  0  0  0  0  0  0
   -4.8643   -4.5465    0.0000 H   0  0  0  0  0  0  0  0  0  0  0  0
    0.2716   -1.0415    0.0000 H   0  0  0  0  0  0  0  0  0  0  0  0
    2.6988   -5.3921    0.0000 H   0  0  0  0  0  0  0  0  0  0  0  0
    1.7041   -4.3088    0.0000 H   0  0  0  0  0  0  0  0  0  0  0  0
    4.0654   -6.4626    0.0000 H   0  0  0  0  0  0  0  0  0  0  0  0
    2.9782   -5.7349    0.0000 H   0  0  0  0  0  0  0  0  0  0  0  0
    6.0482   -7.0567    0.0000 H   0  0  0  0  0  0  0  0  0  0  0  0
    4.6160   -6.7220    0.0000 H   0  0  0  0  0  0  0  0  0  0  0  0
    7.1275   -7.3271    0.0000 H   0  0  0  0  0  0  0  0  0  0  0  0
    0.0792   -4.0899    0.0000 H   0  0  0  0  0  0  0  0  0  0  0  0
    1.3365   -5.3652    0.0000 H   0  0  0  0  0  0  0  0  0  0  0  0
    2.5252   -5.0257    0.0000 H   0  0  0  0  0  0  0  0  0  0  0  0
    0.6912    0.6039    0.0000 H   0  0  0  0  0  0  0  0  0  0  0  0
    2.1640    3.0873    0.0000 H   0  0  0  0  0  0  0  0  0  0  0  0
   -0.0994    0.8381    0.0000 H   0  0  0  0  0  0  0  0  0  0  0  0
    1.1778    0.0961    0.0000 H   0  0  0  0  0  0  0  0  0  0  0  0
    1.6650    3.6069    0.0000 H   0  0  0  0  0  0  0  0  0  0  0  0
   -2.0981    3.9047    0.0000 H   0  0  0  0  0  0  0  0  0  0  0  0
   -2.5041    2.1670    0.0000 H   0  0  0  0  0  0  0  0  0  0  0  0
   -0.9612    1.2707    0.0000 H   0  0  0  0  0  0  0  0  0  0  0  0
   -1.3497    4.9104    0.0000 H   0  0  0  0  0  0  0  0  0  0  0  0
    0.1981    5.7984    0.0000 H   0  0  0  0  0  0  0  0  0  0  0  0
    1.5217    4.3961    0.0000 H   0  0  0  0  0  0  0  0  0  0  0  0
    4.1874    5.0656    0.0000 H   0  0  0  0  0  0  0  0  0  0  0  0
    6.8846    5.5466    0.0000 H   0  0  0  0  0  0  0  0  0  0  0  0
    3.9538    5.9964    0.0000 H   0  0  0  0  0  0  0  0  0  0  0  0
    4.0938    4.3685    0.0000 H   0  0  0  0  0  0  0  0  0  0  0  0
    4.7407    7.8323    0.0000 H   0  0  0  0  0  0  0  0  0  0  0  0
    9.8556    5.1140    0.0000 H   0  0  0  0  0  0  0  0  0  0  0  0
   11.9491    3.1255    0.0000 H   0  0  0  0  0  0  0  0  0  0  0  0
   10.2599    5.8327    0.0000 H   0  0  0  0  0  0  0  0  0  0  0  0
    9.2522    4.7526    0.0000 H   0  0  0  0  0  0  0  0  0  0  0  0
   13.6158    4.9399    0.0000 H   0  0  0  0  0  0  0  0  0  0  0  0
   12.5667    3.4964    0.0000 H   0  0  0  0  0  0  0  0  0  0  0  0
   12.0906    7.8814    0.0000 H   0  0  0  0  0  0  0  0  0  0  0  0
   10.8734    6.5766    0.0000 H   0  0  0  0  0  0  0  0  0  0  0  0
   14.9260    5.9772    0.0000 H   0  0  0  0  0  0  0  0  0  0  0  0
   15.6696   10.4153    0.0000 H   0  0  0  0  0  0  0  0  0  0  0  0
   16.5790    7.9816    0.0000 H   0  0  0  0  0  0  0  0  0  0  0  0
   13.1072   10.8446    0.0000 H   0  0  0  0  0  0  0  0  0  0  0  0
   11.4543    8.8402    0.0000 H   0  0  0  0  0  0  0  0  0  0  0  0
   13.3744    0.8879    0.0000 H   0  0  0  0  0  0  0  0  0  0  0  0
   13.2660   -2.4651    0.0000 H   0  0  0  0  0  0  0  0  0  0  0  0
   12.6575   -3.8040    0.0000 H   0  0  0  0  0  0  0  0  0  0  0  0
   12.4986   -4.2167    0.0000 H   0  0  0  0  0  0  0  0  0  0  0  0
   11.6917   -5.2465    0.0000 H   0  0  0  0  0  0  0  0  0  0  0  0
   11.2491   -5.6643    0.0000 H   0  0  0  0  0  0  0  0  0  0  0  0
    9.9920   -6.4278    0.0000 H   0  0  0  0  0  0  0  0  0  0  0  0
    9.0503   -7.0205    0.0000 H   0  0  0  0  0  0  0  0  0  0  0  0
   14.7422   -1.7516    0.0000 H   0  0  0  0  0  0  0  0  0  0  0  0
   13.9439   -3.3548    0.0000 H   0  0  0  0  0  0  0  0  0  0  0  0
   12.7086   -3.4018    0.0000 H   0  0  0  0  0  0  0  0  0  0  0  0
   14.8490   -2.6627    0.0000 H   0  0  0  0  0  0  0  0  0  0  0  0
   15.0565    0.7223    0.0000 H   0  0  0  0  0  0  0  0  0  0  0  0
   17.5207    2.0916    0.0000 H   0  0  0  0  0  0  0  0  0  0  0  0
   15.6981    1.4619    0.0000 H   0  0  0  0  0  0  0  0  0  0  0  0
   19.3689    2.9188    0.0000 H   0  0  0  0  0  0  0  0  0  0  0  0
   22.2248    1.3397    0.0000 H   0  0  0  0  0  0  0  0  0  0  0  0
   21.7315   -1.7314    0.0000 H   0  0  0  0  0  0  0  0  0  0  0  0
   18.9862    0.9642    0.0000 H   0  0  0  0  0  0  0  0  0  0  0  0
   18.9031   -2.3894    0.0000 H   0  0  0  0  0  0  0  0  0  0  0  0
   22.0142   -3.3432    0.0000 H   0  0  0  0  0  0  0  0  0  0  0  0
   22.1550   -1.7155    0.0000 H   0  0  0  0  0  0  0  0  0  0  0  0
   22.6115   -5.1560    0.0000 H   0  0  0  0  0  0  0  0  0  0  0  0
   20.5605   -7.6942    0.0000 H   0  0  0  0  0  0  0  0  0  0  0  0
   17.5126   -6.5280    0.0000 H   0  0  0  0  0  0  0  0  0  0  0  0
   22.6422   -2.7905    0.0000 H   0  0  0  0  0  0  0  0  0  0  0  0
   22.8497    0.5945    0.0000 H   0  0  0  0  0  0  0  0  0  0  0  0
   25.3139    1.9638    0.0000 H   0  0  0  0  0  0  0  0  0  0  0  0
   23.4912    1.3341    0.0000 H   0  0  0  0  0  0  0  0  0  0  0  0
   27.2334    1.4113    0.0000 H   0  0  0  0  0  0  0  0  0  0  0  0
   26.5999    0.8728    0.0000 H   0  0  0  0  0  0  0  0  0  0  0  0
   26.5655   -2.3889    0.0000 H   0  0  0  0  0  0  0  0  0  0  0  0
   29.7381   -1.5439    0.0000 H   0  0  0  0  0  0  0  0  0  0  0  0
   30.0694   -4.8116    0.0000 H   0  0  0  0  0  0  0  0  0  0  0  0
   28.8845   -5.2210    0.0000 H   0  0  0  0  0  0  0  0  0  0  0  0
   27.1055   -5.0828    0.0000 H   0  0  0  0  0  0  0  0  0  0  0  0
   26.7174   -3.3411    0.0000 H   0  0  0  0  0  0  0  0  0  0  0  0
  1  2  1  0
  2  3  1  0
  3  4  1  0
  4  5  2  0
  4  6  1  0
  6  7  1  0
  7  8  1  0
  8  9  1  0
  9 10  1  0
 10 11  2  0
 10 12  1  0
  7 13  1  0
 13 14  2  0
 13 15  1  0
 15 16  1  0
 16 17  1  0
 17 18  1  0
 18 19  1  0
 19 20  1  0
 20 21  1  0
 21 22  2  3
 21 23  1  0
 16 24  1  0
 24 25  2  0
 24 26  1  0
 26 27  1  0
 27 28  1  0
 28 29  1  0
 29 30  1  0
 29 31  1  0
 27 32  1  0
 32 33  2  0
 32 34  1  0
 34 35  1  0
 35 36  1  0
 36 37  1  0
 37 38  1  0
 38 39  1  0
 39 40  1  0
 40 41  2  3
 40 42  1  0
 35 43  1  0
 43 44  2  0
 43 45  1  0
 45 46  1  0
 46 47  1  0
 47 48  1  0
 48 49  1  0
 49 50  1  0
 50 51  1  0
 51 52  2  3
 51 53  1  0
 46 54  1  0
 54 55  2  0
 54 56  1  0
 56 57  1  0
 57 58  1  0
 58 59  1  0
 59 60  1  0
 60 61  1  0
 61 62  1  0
 62 63  2  3
 62 64  1  0
 57 65  1  0
 65 66  2  0
 65 67  1  0
 67 68  1  0
 68 69  1  0
 69 70  1  0
 69 71  1  0
 71 72  1  0
 68 73  1  0
 73 74  2  0
 73 75  1  0
 76 75  1  6
 76 77  1  0
 77 78  1  0
 78 79  1  0
 79 80  1  0
 76 81  1  0
 76 82  1  0
 82 83  2  0
 82 84  1  0
 84 85  1  0
 85 86  1  0
 86 87  1  0
 87 88  1  0
 87 89  1  0
 85 90  1  0
 90 91  2  0
 90 92  1  0
 92 93  1  0
 93 94  1  0
 94 95  1  0
 93 96  1  0
 96 97  2  0
 96 98  1  0
 98 99  1  0
 99100  1  0
100101  1  0
101102  1  0
102103  1  0
103104  1  0
104105  2  3
104106  1  0
 99107  1  0
107108  2  0
107109  1  0
109110  1  0
110111  1  0
111112  1  0
112113  1  0
113114  1  0
110115  1  0
110116  1  6
116117  2  0
116118  1  0
118119  1  0
119120  1  0
120121  1  0
121122  2  0
122123  1  0
123124  1  0
124125  2  0
119126  1  0
126127  2  0
126128  1  0
128129  1  0
129130  1  0
130131  1  0
131132  2  0
132133  1  0
133134  1  0
134135  2  0
129136  1  0
136137  2  0
136138  1  0
138139  1  0
139140  1  0
140141  1  0
139142  1  0
142143  2  0
142144  1  0
144145  1  0
145146  1  0
146147  1  0
146148  1  0
145149  1  0
149150  2  0
149151  1  0
125121  1  0
135131  1  0
 80114  2  0
  1152  1  0
  1153  1  0
  2154  1  0
  2155  1  0
  3156  1  0
  3157  1  0
  6158  1  0
  7159  1  6
  8160  1  0
  8161  1  0
  9162  1  0
  9163  1  0
 15164  1  0
 16165  1  6
 17166  1  0
 17167  1  0
 18168  1  0
 18169  1  0
 19170  1  0
 19171  1  0
 20172  1  0
 22173  1  0
 22174  1  0
 23175  1  0
 23176  1  0
 26177  1  0
 27178  1  1
 28179  1  0
 28180  1  0
 29181  1  0
 30182  1  0
 30183  1  0
 30184  1  0
 31185  1  0
 31186  1  0
 31187  1  0
 34188  1  0
 35189  1  1
 36190  1  0
 36191  1  0
 37192  1  0
 37193  1  0
 38194  1  0
 38195  1  0
 39196  1  0
 41197  1  0
 41198  1  0
 42199  1  0
 42200  1  0
 45201  1  0
 46202  1  1
 47203  1  0
 47204  1  0
 48205  1  0
 48206  1  0
 49207  1  0
 49208  1  0
 50209  1  0
 52210  1  0
 52211  1  0
 53212  1  0
 53213  1  0
 56214  1  0
 57215  1  1
 58216  1  0
 58217  1  0
 59218  1  0
 59219  1  0
 60220  1  0
 60221  1  0
 61222  1  0
 63223  1  0
 63224  1  0
 64225  1  0
 64226  1  0
 67227  1  0
 68228  1  6
 69229  1  1
 70230  1  0
 70231  1  0
 70232  1  0
 71233  1  0
 71234  1  0
 72235  1  0
 72236  1  0
 72237  1  0
 75238  1  0
 77239  1  0
 77240  1  0
 78241  1  0
 78242  1  0
 79243  1  0
 79244  1  0
 80245  1  0
 81246  1  0
 81247  1  0
 81248  1  0
 84249  1  0
 85250  1  1
 86251  1  0
 86252  1  0
 87253  1  0
 88254  1  0
 88255  1  0
 88256  1  0
 89257  1  0
 89258  1  0
 89259  1  0
 92260  1  0
 93261  1  1
 94262  1  0
 94263  1  0
 95264  1  0
 98265  1  0
 99266  1  1
100267  1  0
100268  1  0
101269  1  0
101270  1  0
102271  1  0
102272  1  0
103273  1  0
105274  1  0
105275  1  0
106276  1  0
106277  1  0
109278  1  0
111279  1  0
111280  1  0
112281  1  0
112282  1  0
113283  1  0
113284  1  0
114285  1  0
115286  1  0
115287  1  0
115288  1  0
118289  1  0
119290  1  1
120291  1  0
120292  1  0
122293  1  0
123294  1  0
124295  1  0
128296  1  0
129297  1  6
130298  1  0
130299  1  0
132300  1  0
133301  1  0
134302  1  0
138303  1  0
139304  1  1
140305  1  0
140306  1  0
141307  1  0
144308  1  0
145309  1  6
146310  1  1
147311  1  0
148312  1  0
148313  1  0
148314  1  0
M  CHG  7  12  -1  22   1  41   1  52   1  63   1 105   1 151  -1
M  END
