
     RDKit          2D

255257  0  0  0  0  0  0  0  0999 V2000
  -20.3795   -1.1264    0.0000 N   0  0  0  0  0  0  0  0  0  0  0  0
  -19.0247   -1.7702    0.0000 C   0  0  0  0  0  0  0  0  0  0  0  0
  -18.9048   -3.2654    0.0000 C   0  0  0  0  0  0  0  0  0  0  0  0
  -17.5499   -3.9091    0.0000 C   0  0  0  0  0  0  0  0  0  0  0  0
  -16.3150   -3.0577    0.0000 O   0  0  0  0  0  0  0  0  0  0  0  0
  -17.4300   -5.4043    0.0000 N   0  0  0  0  0  0  0  0  0  0  0  0
  -16.0752   -6.0481    0.0000 C   0  0  0  0  0  0  0  0  0  0  0  0
  -16.9444   -7.2706    0.0000 C   0  0  0  0  0  0  0  0  0  0  0  0
  -18.4377   -7.1290    0.0000 C   0  0  0  0  0  0  0  0  0  0  0  0
  -19.3069   -8.3515    0.0000 N   0  0  0  0  0  0  0  0  0  0  0  0
  -19.2234   -5.8512    0.0000 O   0  0  0  0  0  0  0  0  0  0  0  0
  -14.5819   -6.1896    0.0000 C   0  0  0  0  0  0  0  0  0  0  0  0
  -14.1287   -7.6195    0.0000 O   0  0  0  0  0  0  0  0  0  0  0  0
  -13.7126   -4.9672    0.0000 N   0  0  0  0  0  0  0  0  0  0  0  0
  -12.2193   -5.1087    0.0000 C   0  0  0  0  0  0  0  0  0  0  0  0
  -12.6180   -6.5547    0.0000 C   0  0  0  0  0  0  0  0  0  0  0  0
  -11.5651   -7.6231    0.0000 C   0  0  0  0  0  0  0  0  0  0  0  0
  -11.9638   -9.0691    0.0000 C   0  0  0  0  0  0  0  0  0  0  0  0
  -10.9108  -10.1374    0.0000 O   0  0  0  0  0  0  0  0  0  0  0  0
  -13.4154   -9.4468    0.0000 O   0  0  0  0  0  0  0  0  0  0  0  0
  -10.7677   -4.7310    0.0000 C   0  0  0  0  0  0  0  0  0  0  0  0
   -9.7147   -5.7993    0.0000 O   0  0  0  0  0  0  0  0  0  0  0  0
  -10.3690   -3.2849    0.0000 N   0  0  0  0  0  0  0  0  0  0  0  0
   -8.9173   -2.9072    0.0000 C   0  0  0  0  0  0  0  0  0  0  0  0
   -9.5414   -1.5432    0.0000 C   0  0  0  0  0  0  0  0  0  0  0  0
  -11.0347   -1.4016    0.0000 C   0  0  0  0  0  0  0  0  0  0  0  0
  -11.6587   -0.0376    0.0000 C   0  0  0  0  0  0  0  0  0  0  0  0
  -12.4863   -1.7794    0.0000 C   0  0  0  0  0  0  0  0  0  0  0  0
   -7.4240   -3.0487    0.0000 C   0  0  0  0  0  0  0  0  0  0  0  0
   -6.9708   -4.4787    0.0000 O   0  0  0  0  0  0  0  0  0  0  0  0
   -6.5547   -1.8263    0.0000 N   0  0  0  0  0  0  0  0  0  0  0  0
   -5.0614   -1.9678    0.0000 C   0  0  0  0  0  0  0  0  0  0  0  0
   -4.2697   -3.2419    0.0000 C   0  0  0  0  0  0  0  0  0  0  0  0
   -3.2512   -4.3430    0.0000 C   0  0  0  0  0  0  0  0  0  0  0  0
   -2.0427   -5.2316    0.0000 C   0  0  0  0  0  0  0  0  0  0  0  0
   -0.6878   -5.8753    0.0000 C   0  0  0  0  0  0  0  0  0  0  0  0
    0.7644   -6.2510    0.0000 C   0  0  0  0  0  0  0  0  0  0  0  0
    2.2614   -6.3451    0.0000 C   0  0  0  0  0  0  0  0  0  0  0  0
    3.7492   -6.1542    0.0000 C   0  0  0  0  0  0  0  0  0  0  0  0
   -6.0009   -3.1372    0.0000 C   0  0  0  0  0  0  0  0  0  0  0  0
   -5.5977   -0.5670    0.0000 C   0  0  0  0  0  0  0  0  0  0  0  0
   -7.0813   -0.7885    0.0000 O   0  0  0  0  0  0  0  0  0  0  0  0
   -5.8592    0.9101    0.0000 N   0  0  0  0  0  0  0  0  0  0  0  0
   -5.8365    2.4099    0.0000 C   0  0  0  0  0  0  0  0  0  0  0  0
   -7.1904    1.7643    0.0000 C   0  0  0  0  0  0  0  0  0  0  0  0
   -8.4265    2.6140    0.0000 C   0  0  0  0  0  0  0  0  0  0  0  0
   -8.3087    4.1093    0.0000 C   0  0  0  0  0  0  0  0  0  0  0  0
   -9.5448    4.9591    0.0000 N   0  0  0  0  0  0  0  0  0  0  0  0
   -9.4270    6.4544    0.0000 C   0  0  0  0  0  0  0  0  0  0  0  0
  -10.6631    7.3042    0.0000 N   0  0  0  0  0  0  0  0  0  0  0  0
   -8.0730    7.1001    0.0000 N   0  0  0  0  0  0  0  0  0  0  0  0
   -5.5303    3.8783    0.0000 C   0  0  0  0  0  0  0  0  0  0  0  0
   -7.0064    4.1447    0.0000 O   0  0  0  0  0  0  0  0  0  0  0  0
   -4.9517    5.2622    0.0000 N   0  0  0  0  0  0  0  0  0  0  0  0
   -4.1217    6.5117    0.0000 C   0  0  0  0  0  0  0  0  0  0  0  0
   -5.6098    6.7005    0.0000 C   0  0  0  0  0  0  0  0  0  0  0  0
   -6.1903    8.0837    0.0000 O   0  0  0  0  0  0  0  0  0  0  0  0
   -3.0703    7.5814    0.0000 C   0  0  0  0  0  0  0  0  0  0  0  0
   -4.0352    8.7298    0.0000 O   0  0  0  0  0  0  0  0  0  0  0  0
   -1.8353    8.4329    0.0000 N   0  0  0  0  0  0  0  0  0  0  0  0
   -0.4616    9.0352    0.0000 C   0  0  0  0  0  0  0  0  0  0  0  0
   -1.6113    9.9986    0.0000 C   0  0  0  0  0  0  0  0  0  0  0  0
   -1.3519   11.4760    0.0000 C   0  0  0  0  0  0  0  0  0  0  0  0
    0.0573   11.9900    0.0000 C   0  0  0  0  0  0  0  0  0  0  0  0
    0.3167   13.4674    0.0000 C   0  0  0  0  0  0  0  0  0  0  0  0
   -0.8330   14.4308    0.0000 C   0  0  0  0  0  0  0  0  0  0  0  0
   -2.2422   13.9168    0.0000 C   0  0  0  0  0  0  0  0  0  0  0  0
   -2.5016   12.4394    0.0000 C   0  0  0  0  0  0  0  0  0  0  0  0
    1.0013    9.3667    0.0000 C   0  0  0  0  0  0  0  0  0  0  0  0
    0.9932   10.8667    0.0000 O   0  0  0  0  0  0  0  0  0  0  0  0
    2.5005    9.4154    0.0000 N   0  0  0  0  0  0  0  0  0  0  0  0
    3.9818    9.1794    0.0000 C   0  0  0  0  0  0  0  0  0  0  0  0
    3.5355   10.6114    0.0000 C   0  0  0  0  0  0  0  0  0  0  0  0
    4.5525   11.7140    0.0000 C   0  0  0  0  0  0  0  0  0  0  0  0
    6.0158   11.3846    0.0000 C   0  0  0  0  0  0  0  0  0  0  0  0
    7.0328   12.4872    0.0000 C   0  0  0  0  0  0  0  0  0  0  0  0
    6.5865   13.9192    0.0000 C   0  0  0  0  0  0  0  0  0  0  0  0
    5.1231   14.2487    0.0000 C   0  0  0  0  0  0  0  0  0  0  0  0
    4.1061   13.1461    0.0000 C   0  0  0  0  0  0  0  0  0  0  0  0
    5.3917    8.6673    0.0000 C   0  0  0  0  0  0  0  0  0  0  0  0
    6.1958    9.9336    0.0000 O   0  0  0  0  0  0  0  0  0  0  0  0
    6.6793    7.8977    0.0000 N   0  0  0  0  0  0  0  0  0  0  0  0
    7.7978    6.8983    0.0000 C   0  0  0  0  0  0  0  0  0  0  0  0
    8.1966    8.3444    0.0000 C   0  0  0  0  0  0  0  0  0  0  0  0
    8.7071    5.7053    0.0000 C   0  0  0  0  0  0  0  0  0  0  0  0
    9.9811    6.4971    0.0000 O   0  0  0  0  0  0  0  0  0  0  0  0
    9.3741    4.3618    0.0000 N   0  0  0  0  0  0  0  0  0  0  0  0
    9.7748    2.9163    0.0000 C   0  0  0  0  0  0  0  0  0  0  0  0
   10.8920    3.9173    0.0000 C   0  0  0  0  0  0  0  0  0  0  0  0
   12.3175    3.4502    0.0000 C   0  0  0  0  0  0  0  0  0  0  0  0
   13.4347    4.4511    0.0000 C   0  0  0  0  0  0  0  0  0  0  0  0
   13.4972    2.5238    0.0000 C   0  0  0  0  0  0  0  0  0  0  0  0
    9.8948    1.4211    0.0000 C   0  0  0  0  0  0  0  0  0  0  0  0
   11.3806    1.2157    0.0000 O   0  0  0  0  0  0  0  0  0  0  0  0
    9.7295   -0.0698    0.0000 N   0  0  0  0  0  0  0  0  0  0  0  0
    9.2852   -1.5024    0.0000 C   0  0  0  0  0  0  0  0  0  0  0  0
    8.5777   -2.8251    0.0000 C   0  0  0  0  0  0  0  0  0  0  0  0
    7.6326   -3.9900    0.0000 C   0  0  0  0  0  0  0  0  0  0  0  0
    6.4843   -4.9549    0.0000 C   0  0  0  0  0  0  0  0  0  0  0  0
    5.1740   -5.6852    0.0000 C   0  0  0  0  0  0  0  0  0  0  0  0
   10.2985   -2.6084    0.0000 C   0  0  0  0  0  0  0  0  0  0  0  0
   10.7661   -1.2644    0.0000 C   0  0  0  0  0  0  0  0  0  0  0  0
   11.4674    0.0616    0.0000 O   0  0  0  0  0  0  0  0  0  0  0  0
   11.7128   -2.4279    0.0000 N   0  0  0  0  0  0  0  0  0  0  0  0
   13.1938   -2.1899    0.0000 C   0  0  0  0  0  0  0  0  0  0  0  0
   14.5040   -1.4597    0.0000 C   0  0  0  0  0  0  0  0  0  0  0  0
   15.7916   -2.2293    0.0000 C   0  0  0  0  0  0  0  0  0  0  0  0
   17.1018   -1.4991    0.0000 O   0  0  0  0  0  0  0  0  0  0  0  0
   15.8767   -3.0219    0.0000 O   0  0  0  0  0  0  0  0  0  0  0  0
   14.1404   -3.3535    0.0000 C   0  0  0  0  0  0  0  0  0  0  0  0
   14.9370   -3.3239    0.0000 O   0  0  0  0  0  0  0  0  0  0  0  0
   13.6061   -4.7551    0.0000 N   0  0  0  0  0  0  0  0  0  0  0  0
   14.5527   -5.9186    0.0000 C   0  0  0  0  0  0  0  0  0  0  0  0
   15.8402   -6.6882    0.0000 C   0  0  0  0  0  0  0  0  0  0  0  0
   16.3566   -8.0966    0.0000 O   0  0  0  0  0  0  0  0  0  0  0  0
   14.0183   -7.3202    0.0000 C   0  0  0  0  0  0  0  0  0  0  0  0
   12.5374   -7.5583    0.0000 O   0  0  0  0  0  0  0  0  0  0  0  0
   14.9650   -8.4838    0.0000 N   0  0  0  0  0  0  0  0  0  0  0  0
   14.4306   -9.8854    0.0000 C   0  0  0  0  0  0  0  0  0  0  0  0
   13.4491  -11.0197    0.0000 C   0  0  0  0  0  0  0  0  0  0  0  0
   13.9407  -12.4368    0.0000 C   0  0  0  0  0  0  0  0  0  0  0  0
   12.1389  -11.7499    0.0000 C   0  0  0  0  0  0  0  0  0  0  0  0
   10.8514  -10.9803    0.0000 C   0  0  0  0  0  0  0  0  0  0  0  0
   15.3773  -11.0489    0.0000 C   0  0  0  0  0  0  0  0  0  0  0  0
   15.0177  -12.5052    0.0000 O   0  0  0  0  0  0  0  0  0  0  0  0
   16.8583  -10.8109    0.0000 O   0  0  0  0  0  0  0  0  0  0  0  0
  -20.4994    0.3688    0.0000 H   0  0  0  0  0  0  0  0  0  0  0  0
  -21.6144   -1.9779    0.0000 H   0  0  0  0  0  0  0  0  0  0  0  0
  -18.6260   -0.3241    0.0000 H   0  0  0  0  0  0  0  0  0  0  0  0
  -17.5314   -1.9117    0.0000 H   0  0  0  0  0  0  0  0  0  0  0  0
  -20.3981   -3.1238    0.0000 H   0  0  0  0  0  0  0  0  0  0  0  0
  -19.3035   -4.7114    0.0000 H   0  0  0  0  0  0  0  0  0  0  0  0
  -18.7595   -6.0989    0.0000 H   0  0  0  0  0  0  0  0  0  0  0  0
  -15.6765   -4.6020    0.0000 H   0  0  0  0  0  0  0  0  0  0  0  0
  -17.3431   -8.7166    0.0000 H   0  0  0  0  0  0  0  0  0  0  0  0
  -15.5896   -7.9143    0.0000 H   0  0  0  0  0  0  0  0  0  0  0  0
  -20.8003   -8.2099    0.0000 H   0  0  0  0  0  0  0  0  0  0  0  0
  -18.6829   -9.7155    0.0000 H   0  0  0  0  0  0  0  0  0  0  0  0
  -14.3367   -3.6031    0.0000 H   0  0  0  0  0  0  0  0  0  0  0  0
  -12.5206   -3.6393    0.0000 H   0  0  0  0  0  0  0  0  0  0  0  0
  -13.3318   -7.8741    0.0000 H   0  0  0  0  0  0  0  0  0  0  0  0
  -14.0884   -6.2580    0.0000 H   0  0  0  0  0  0  0  0  0  0  0  0
  -10.2102   -8.2668    0.0000 H   0  0  0  0  0  0  0  0  0  0  0  0
  -10.6958   -6.4006    0.0000 H   0  0  0  0  0  0  0  0  0  0  0  0
  -11.5443   -2.3529    0.0000 H   0  0  0  0  0  0  0  0  0  0  0  0
   -8.7974   -4.4024    0.0000 H   0  0  0  0  0  0  0  0  0  0  0  0
   -9.4781   -0.0445    0.0000 H   0  0  0  0  0  0  0  0  0  0  0  0
   -8.0897   -1.1655    0.0000 H   0  0  0  0  0  0  0  0  0  0  0  0
  -11.4587   -2.8405    0.0000 H   0  0  0  0  0  0  0  0  0  0  0  0
  -13.1237    0.2849    0.0000 H   0  0  0  0  0  0  0  0  0  0  0  0
  -11.7787    1.4576    0.0000 H   0  0  0  0  0  0  0  0  0  0  0  0
  -10.2639    0.5142    0.0000 H   0  0  0  0  0  0  0  0  0  0  0  0
  -13.0583   -3.1660    0.0000 H   0  0  0  0  0  0  0  0  0  0  0  0
  -13.9796   -1.6378    0.0000 H   0  0  0  0  0  0  0  0  0  0  0  0
  -12.7876   -0.3099    0.0000 H   0  0  0  0  0  0  0  0  0  0  0  0
   -7.3404   -0.5485    0.0000 H   0  0  0  0  0  0  0  0  0  0  0  0
   -4.9709   -4.5679    0.0000 H   0  0  0  0  0  0  0  0  0  0  0  0
   -5.7342   -3.5664    0.0000 H   0  0  0  0  0  0  0  0  0  0  0  0
   -3.6888   -5.7778    0.0000 H   0  0  0  0  0  0  0  0  0  0  0  0
   -4.6278   -4.9389    0.0000 H   0  0  0  0  0  0  0  0  0  0  0  0
   -2.2008   -6.7232    0.0000 H   0  0  0  0  0  0  0  0  0  0  0  0
   -3.2816   -6.0772    0.0000 H   0  0  0  0  0  0  0  0  0  0  0  0
   -0.5608   -7.3699    0.0000 H   0  0  0  0  0  0  0  0  0  0  0  0
   -1.7443   -6.9401    0.0000 H   0  0  0  0  0  0  0  0  0  0  0  0
    1.1719   -7.6946    0.0000 H   0  0  0  0  0  0  0  0  0  0  0  0
   -0.0716   -7.4965    0.0000 H   0  0  0  0  0  0  0  0  0  0  0  0
    3.0932   -7.5934    0.0000 H   0  0  0  0  0  0  0  0  0  0  0  0
    1.6763   -7.7263    0.0000 H   0  0  0  0  0  0  0  0  0  0  0  0
    4.0807   -7.6171    0.0000 H   0  0  0  0  0  0  0  0  0  0  0  0
   -7.2962   -3.5213    0.0000 H   0  0  0  0  0  0  0  0  0  0  0  0
   -5.9645   -4.7187    0.0000 H   0  0  0  0  0  0  0  0  0  0  0  0
   -4.6646   -4.1530    0.0000 H   0  0  0  0  0  0  0  0  0  0  0  0
   -7.3287    0.6088    0.0000 H   0  0  0  0  0  0  0  0  0  0  0  0
   -6.8945    3.4732    0.0000 H   0  0  0  0  0  0  0  0  0  0  0  0
   -8.3645    0.8306    0.0000 H   0  0  0  0  0  0  0  0  0  0  0  0
   -6.6409    0.3685    0.0000 H   0  0  0  0  0  0  0  0  0  0  0  0
   -9.8787    2.9897    0.0000 H   0  0  0  0  0  0  0  0  0  0  0  0
   -9.0487    1.2491    0.0000 H   0  0  0  0  0  0  0  0  0  0  0  0
   -7.6865    5.4742    0.0000 H   0  0  0  0  0  0  0  0  0  0  0  0
   -6.8565    3.7336    0.0000 H   0  0  0  0  0  0  0  0  0  0  0  0
  -10.8988    4.3134    0.0000 H   0  0  0  0  0  0  0  0  0  0  0  0
  -10.5452    8.7995    0.0000 H   0  0  0  0  0  0  0  0  0  0  0  0
  -12.0170    6.6585    0.0000 H   0  0  0  0  0  0  0  0  0  0  0  0
   -8.1384    8.5987    0.0000 H   0  0  0  0  0  0  0  0  0  0  0  0
   -7.0793    5.9765    0.0000 H   0  0  0  0  0  0  0  0  0  0  0  0
   -6.4063    5.6286    0.0000 H   0  0  0  0  0  0  0  0  0  0  0  0
   -4.6133    7.9288    0.0000 H   0  0  0  0  0  0  0  0  0  0  0  0
   -7.0727    6.3690    0.0000 H   0  0  0  0  0  0  0  0  0  0  0  0
   -5.9021    5.2293    0.0000 H   0  0  0  0  0  0  0  0  0  0  0  0
   -7.6442    8.4525    0.0000 H   0  0  0  0  0  0  0  0  0  0  0  0
   -2.7198    9.6444    0.0000 H   0  0  0  0  0  0  0  0  0  0  0  0
   -0.1090   10.4932    0.0000 H   0  0  0  0  0  0  0  0  0  0  0  0
   -2.9483   10.6787    0.0000 H   0  0  0  0  0  0  0  0  0  0  0  0
   -2.6526    8.9189    0.0000 H   0  0  0  0  0  0  0  0  0  0  0  0
    1.3159   11.1740    0.0000 H   0  0  0  0  0  0  0  0  0  0  0  0
    1.7259   13.9814    0.0000 H   0  0  0  0  0  0  0  0  0  0  0  0
   -0.5736   15.9082    0.0000 H   0  0  0  0  0  0  0  0  0  0  0  0
   -3.3919   14.8802    0.0000 H   0  0  0  0  0  0  0  0  0  0  0  0
   -3.9108   11.9254    0.0000 H   0  0  0  0  0  0  0  0  0  0  0  0
    2.4114   10.9127    0.0000 H   0  0  0  0  0  0  0  0  0  0  0  0
    5.0667   10.2153    0.0000 H   0  0  0  0  0  0  0  0  0  0  0  0
    2.7784   11.9064    0.0000 H   0  0  0  0  0  0  0  0  0  0  0  0
    2.0758   10.2661    0.0000 H   0  0  0  0  0  0  0  0  0  0  0  0
    6.6335   10.0176    0.0000 H   0  0  0  0  0  0  0  0  0  0  0  0
    8.4962   12.1577    0.0000 H   0  0  0  0  0  0  0  0  0  0  0  0
    7.6035   15.0218    0.0000 H   0  0  0  0  0  0  0  0  0  0  0  0
    4.6767   15.6807    0.0000 H   0  0  0  0  0  0  0  0  0  0  0  0
    2.6427   13.4755    0.0000 H   0  0  0  0  0  0  0  0  0  0  0  0
    7.4138    9.2055    0.0000 H   0  0  0  0  0  0  0  0  0  0  0  0
    9.2705    7.1832    0.0000 H   0  0  0  0  0  0  0  0  0  0  0  0
    9.6482    8.7221    0.0000 H   0  0  0  0  0  0  0  0  0  0  0  0
    8.2598    9.8430    0.0000 H   0  0  0  0  0  0  0  0  0  0  0  0
    6.7819    8.8431    0.0000 H   0  0  0  0  0  0  0  0  0  0  0  0
   10.6992    5.0649    0.0000 H   0  0  0  0  0  0  0  0  0  0  0  0
   11.0896    2.1942    0.0000 H   0  0  0  0  0  0  0  0  0  0  0  0
   11.5995    5.2399    0.0000 H   0  0  0  0  0  0  0  0  0  0  0  0
    9.9715    5.1016    0.0000 H   0  0  0  0  0  0  0  0  0  0  0  0
   11.9511    1.9956    0.0000 H   0  0  0  0  0  0  0  0  0  0  0  0
   14.9064    4.1613    0.0000 H   0  0  0  0  0  0  0  0  0  0  0  0
   14.1422    5.7738    0.0000 H   0  0  0  0  0  0  0  0  0  0  0  0
   12.3767    5.5144    0.0000 H   0  0  0  0  0  0  0  0  0  0  0  0
   14.9471    2.9084    0.0000 H   0  0  0  0  0  0  0  0  0  0  0  0
   14.2889    1.2497    0.0000 H   0  0  0  0  0  0  0  0  0  0  0  0
   12.3800    1.5228    0.0000 H   0  0  0  0  0  0  0  0  0  0  0  0
   11.2243   -0.1947    0.0000 H   0  0  0  0  0  0  0  0  0  0  0  0
   10.0601   -3.0540    0.0000 H   0  0  0  0  0  0  0  0  0  0  0  0
    9.2017   -4.1891    0.0000 H   0  0  0  0  0  0  0  0  0  0  0  0
    8.9728   -4.6637    0.0000 H   0  0  0  0  0  0  0  0  0  0  0  0
    8.1623   -5.3933    0.0000 H   0  0  0  0  0  0  0  0  0  0  0  0
    7.7754   -5.7185    0.0000 H   0  0  0  0  0  0  0  0  0  0  0  0
    6.5567   -6.4532    0.0000 H   0  0  0  0  0  0  0  0  0  0  0  0
    5.7763   -7.0589    0.0000 H   0  0  0  0  0  0  0  0  0  0  0  0
    9.9148   -4.2296    0.0000 H   0  0  0  0  0  0  0  0  0  0  0  0
   11.2664   -3.6995    0.0000 H   0  0  0  0  0  0  0  0  0  0  0  0
   11.4115   -1.9022    0.0000 H   0  0  0  0  0  0  0  0  0  0  0  0
   11.3533   -3.8842    0.0000 H   0  0  0  0  0  0  0  0  0  0  0  0
   12.7022   -0.7728    0.0000 H   0  0  0  0  0  0  0  0  0  0  0  0
   15.4855   -0.3254    0.0000 H   0  0  0  0  0  0  0  0  0  0  0  0
   13.5574   -0.2961    0.0000 H   0  0  0  0  0  0  0  0  0  0  0  0
   12.1251   -4.9931    0.0000 H   0  0  0  0  0  0  0  0  0  0  0  0
   15.5342   -4.7843    0.0000 H   0  0  0  0  0  0  0  0  0  0  0  0
   17.3133   -6.9711    0.0000 H   0  0  0  0  0  0  0  0  0  0  0  0
   16.3746   -5.2867    0.0000 H   0  0  0  0  0  0  0  0  0  0  0  0
   17.1050   -8.9577    0.0000 H   0  0  0  0  0  0  0  0  0  0  0  0
   16.4639   -8.4281    0.0000 H   0  0  0  0  0  0  0  0  0  0  0  0
   13.1431   -9.1158    0.0000 H   0  0  0  0  0  0  0  0  0  0  0  0
   12.6514   -9.7494    0.0000 H   0  0  0  0  0  0  0  0  0  0  0  0
   13.1048  -13.6823    0.0000 H   0  0  0  0  0  0  0  0  0  0  0  0
   14.8874  -13.6004    0.0000 H   0  0  0  0  0  0  0  0  0  0  0  0
   15.4257  -12.2248    0.0000 H   0  0  0  0  0  0  0  0  0  0  0  0
   11.1574  -12.8842    0.0000 H   0  0  0  0  0  0  0  0  0  0  0  0
   12.9366  -13.0202    0.0000 H   0  0  0  0  0  0  0  0  0  0  0  0
    9.5411  -11.7105    0.0000 H   0  0  0  0  0  0  0  0  0  0  0  0
    9.9047   -9.8167    0.0000 H   0  0  0  0  0  0  0  0  0  0  0  0
   11.6873   -9.7348    0.0000 H   0  0  0  0  0  0  0  0  0  0  0  0
  1  2  1  0
  2  3  1  0
  3  4  1  0
  4  5  2  0
  4  6  1  0
  6  7  1  0
  7  8  1  0
  8  9  1  0
  9 10  1  0
  9 11  2  0
  7 12  1  0
 12 13  2  0
 12 14  1  0
 14 15  1  0
 15 16  1  0
 16 17  1  0
 17 18  1  0
 18 19  2  0
 18 20  1  0
 15 21  1  0
 21 22  2  0
 21 23  1  0
 23 24  1  0
 24 25  1  0
 25 26  1  0
 26 27  1  0
 26 28  1  0
 24 29  1  0
 29 30  2  0
 29 31  1  0
 32 31  1  1
 32 33  1  0
 33 34  1  0
 34 35  1  0
 35 36  1  0
 36 37  1  0
 37 38  1  0
 38 39  1  0
 32 40  1  0
 32 41  1  0
 41 42  2  0
 41 43  1  0
 43 44  1  0
 44 45  1  0
 45 46  1  0
 46 47  1  0
 47 48  1  0
 48 49  1  0
 49 50  2  3
 49 51  1  0
 44 52  1  0
 52 53  2  0
 52 54  1  0
 54 55  1  0
 55 56  1  0
 56 57  1  0
 55 58  1  0
 58 59  2  0
 58 60  1  0
 60 61  1  0
 61 62  1  0
 62 63  1  0
 63 64  2  0
 64 65  1  0
 65 66  2  0
 66 67  1  0
 67 68  2  0
 61 69  1  0
 69 70  2  0
 69 71  1  0
 71 72  1  0
 72 73  1  0
 73 74  1  0
 74 75  2  0
 75 76  1  0
 76 77  2  0
 77 78  1  0
 78 79  2  0
 72 80  1  0
 80 81  2  0
 80 82  1  0
 82 83  1  0
 83 84  1  0
 83 85  1  0
 85 86  2  0
 85 87  1  0
 87 88  1  0
 88 89  1  0
 89 90  1  0
 90 91  1  0
 90 92  1  0
 88 93  1  0
 93 94  2  0
 93 95  1  0
 95 96  1  0
 96 97  1  0
 97 98  1  0
 98 99  1  0
 99100  1  0
 96101  1  0
 96102  1  6
102103  2  0
102104  1  0
104105  1  0
105106  1  0
106107  1  0
107108  2  0
107109  1  0
105110  1  0
110111  2  0
110112  1  0
112113  1  0
113114  1  0
114115  1  0
113116  1  0
116117  2  0
116118  1  0
118119  1  0
119120  1  0
120121  1  0
120122  1  0
122123  1  0
119124  1  0
124125  2  0
124126  1  0
 68 63  1  0
 79 74  1  0
 39100  2  0
  1127  1  0
  1128  1  0
  2129  1  0
  2130  1  0
  3131  1  0
  3132  1  0
  6133  1  0
  7134  1  6
  8135  1  0
  8136  1  0
 10137  1  0
 10138  1  0
 14139  1  0
 15140  1  6
 16141  1  0
 16142  1  0
 17143  1  0
 17144  1  0
 23145  1  0
 24146  1  1
 25147  1  0
 25148  1  0
 26149  1  0
 27150  1  0
 27151  1  0
 27152  1  0
 28153  1  0
 28154  1  0
 28155  1  0
 31156  1  0
 33157  1  0
 33158  1  0
 34159  1  0
 34160  1  0
 35161  1  0
 35162  1  0
 36163  1  0
 36164  1  0
 37165  1  0
 37166  1  0
 38167  1  0
 38168  1  0
 39169  1  0
 40170  1  0
 40171  1  0
 40172  1  0
 43173  1  0
 44174  1  1
 45175  1  0
 45176  1  0
 46177  1  0
 46178  1  0
 47179  1  0
 47180  1  0
 48181  1  0
 50182  1  0
 50183  1  0
 51184  1  0
 51185  1  0
 54186  1  0
 55187  1  1
 56188  1  0
 56189  1  0
 57190  1  0
 60191  1  0
 61192  1  1
 62193  1  0
 62194  1  0
 64195  1  0
 65196  1  0
 66197  1  0
 67198  1  0
 68199  1  0
 71200  1  0
 72201  1  1
 73202  1  0
 73203  1  0
 75204  1  0
 76205  1  0
 77206  1  0
 78207  1  0
 79208  1  0
 82209  1  0
 83210  1  1
 84211  1  0
 84212  1  0
 84213  1  0
 87214  1  0
 88215  1  1
 89216  1  0
 89217  1  0
 90218  1  0
 91219  1  0
 91220  1  0
 91221  1  0
 92222  1  0
 92223  1  0
 92224  1  0
 95225  1  0
 97226  1  0
 97227  1  0
 98228  1  0
 98229  1  0
 99230  1  0
 99231  1  0
100232  1  0
101233  1  0
101234  1  0
101235  1  0
104236  1  0
105237  1  1
106238  1  0
106239  1  0
112240  1  0
113241  1  1
114242  1  0
114243  1  0
115244  1  0
118245  1  0
119246  1  6
120247  1  6
121248  1  0
121249  1  0
121250  1  0
122251  1  0
122252  1  0
123253  1  0
123254  1  0
123255  1  0
M  CHG  4  20  -1  50   1 109  -1 126  -1
M  END
