
     RDKit          2D

320325  0  0  0  0  0  0  0  0999 V2000
   20.7039   -2.4646    0.0000 C   0  0  0  0  0  0  0  0  0  0  0  0
   22.0023   -1.7137    0.0000 N   0  0  0  0  0  0  0  0  0  0  0  0
   23.3019   -2.4627    0.0000 C   0  0  0  0  0  0  0  0  0  0  0  0
   23.3030   -3.9627    0.0000 C   0  0  0  0  0  0  0  0  0  0  0  0
   24.6026   -4.7118    0.0000 C   0  0  0  0  0  0  0  0  0  0  0  0
   25.9011   -3.9608    0.0000 C   0  0  0  0  0  0  0  0  0  0  0  0
   25.9000   -2.4608    0.0000 C   0  0  0  0  0  0  0  0  0  0  0  0
   24.6004   -1.7118    0.0000 C   0  0  0  0  0  0  0  0  0  0  0  0
   27.3262   -1.9962    0.0000 C   0  0  0  0  0  0  0  0  0  0  0  0
   28.2088   -3.2091    0.0000 O   0  0  0  0  0  0  0  0  0  0  0  0
   27.3280   -4.4233    0.0000 C   0  0  0  0  0  0  0  0  0  0  0  0
   27.7926   -5.8495    0.0000 O   0  0  0  0  0  0  0  0  0  0  0  0
   28.7932   -1.6833    0.0000 C   0  0  0  0  0  0  0  0  0  0  0  0
   29.2557   -0.2564    0.0000 C   0  0  0  0  0  0  0  0  0  0  0  0
   30.7227    0.0566    0.0000 C   0  0  0  0  0  0  0  0  0  0  0  0
   31.7272   -1.0574    0.0000 C   0  0  0  0  0  0  0  0  0  0  0  0
   31.2647   -2.4843    0.0000 C   0  0  0  0  0  0  0  0  0  0  0  0
   29.7978   -2.7973    0.0000 C   0  0  0  0  0  0  0  0  0  0  0  0
   33.1942   -0.7445    0.0000 O   0  0  0  0  0  0  0  0  0  0  0  0
   28.2512    0.8576    0.0000 O   0  0  0  0  0  0  0  0  0  0  0  0
   26.7842    0.5447    0.0000 C   0  0  0  0  0  0  0  0  0  0  0  0
   26.3217   -0.8823    0.0000 C   0  0  0  0  0  0  0  0  0  0  0  0
   25.0706   -0.5293    0.0000 C   0  0  0  0  0  0  0  0  0  0  0  0
   24.5348    0.0648    0.0000 C   0  0  0  0  0  0  0  0  0  0  0  0
   24.7815    0.8258    0.0000 C   0  0  0  0  0  0  0  0  0  0  0  0
   25.5639    0.9927    0.0000 C   0  0  0  0  0  0  0  0  0  0  0  0
   23.3082    2.4597    0.0000 O   0  0  0  0  0  0  0  0  0  0  0  0
   20.7050   -3.9646    0.0000 S   0  0  0  0  0  0  0  0  0  0  0  0
   19.4043   -1.7156    0.0000 N   0  0  0  0  0  0  0  0  0  0  0  0
   18.1058   -2.4666    0.0000 C   0  0  0  0  0  0  0  0  0  0  0  0
   16.8062   -1.7175    0.0000 C   0  0  0  0  0  0  0  0  0  0  0  0
   15.5077   -2.4685    0.0000 C   0  0  0  0  0  0  0  0  0  0  0  0
   15.7012   -3.2418    0.0000 O   0  0  0  0  0  0  0  0  0  0  0  0
   14.2081   -1.7194    0.0000 N   0  0  0  0  0  0  0  0  0  0  0  0
   12.9096   -2.4704    0.0000 C   0  0  0  0  0  0  0  0  0  0  0  0
   13.8747   -3.6187    0.0000 C   0  0  0  0  0  0  0  0  0  0  0  0
   15.3517   -3.3572    0.0000 C   0  0  0  0  0  0  0  0  0  0  0  0
   16.3167   -4.5055    0.0000 C   0  0  0  0  0  0  0  0  0  0  0  0
   17.7937   -4.2440    0.0000 N   0  0  0  0  0  0  0  0  0  0  0  0
   18.7587   -5.3923    0.0000 C   0  0  0  0  0  0  0  0  0  0  0  0
   20.2358   -5.1308    0.0000 N   0  0  0  0  0  0  0  0  0  0  0  0
   18.2468   -6.8023    0.0000 N   0  0  0  0  0  0  0  0  0  0  0  0
   11.4326   -2.7319    0.0000 C   0  0  0  0  0  0  0  0  0  0  0  0
   11.2770   -4.2239    0.0000 O   0  0  0  0  0  0  0  0  0  0  0  0
   10.4676   -1.5836    0.0000 N   0  0  0  0  0  0  0  0  0  0  0  0
    8.9906   -1.8451    0.0000 C   0  0  0  0  0  0  0  0  0  0  0  0
    9.5046   -3.2543    0.0000 C   0  0  0  0  0  0  0  0  0  0  0  0
   10.9820   -3.5137    0.0000 C   0  0  0  0  0  0  0  0  0  0  0  0
   11.4961   -4.9229    0.0000 N   0  0  0  0  0  0  0  0  0  0  0  0
   12.1950   -2.6312    0.0000 O   0  0  0  0  0  0  0  0  0  0  0  0
    7.5132   -1.5858    0.0000 C   0  0  0  0  0  0  0  0  0  0  0  0
    6.8567   -2.9345    0.0000 O   0  0  0  0  0  0  0  0  0  0  0  0
    6.9991   -0.1766    0.0000 N   0  0  0  0  0  0  0  0  0  0  0  0
    5.5217    0.0828    0.0000 C   0  0  0  0  0  0  0  0  0  0  0  0
    5.5228   -1.4172    0.0000 C   0  0  0  0  0  0  0  0  0  0  0  0
    6.8224   -2.1663    0.0000 C   0  0  0  0  0  0  0  0  0  0  0  0
    5.0108   -2.8271    0.0000 C   0  0  0  0  0  0  0  0  0  0  0  0
    5.9758   -3.9755    0.0000 C   0  0  0  0  0  0  0  0  0  0  0  0
    4.2221    0.8318    0.0000 C   0  0  0  0  0  0  0  0  0  0  0  0
    3.1439   -0.2110    0.0000 O   0  0  0  0  0  0  0  0  0  0  0  0
    4.2210    2.3318    0.0000 N   0  0  0  0  0  0  0  0  0  0  0  0
    2.9214    3.0809    0.0000 C   0  0  0  0  0  0  0  0  0  0  0  0
    2.8274    1.5838    0.0000 C   0  0  0  0  0  0  0  0  0  0  0  0
    2.4517    0.1316    0.0000 C   0  0  0  0  0  0  0  0  0  0  0  0
    1.8080   -1.2232    0.0000 C   0  0  0  0  0  0  0  0  0  0  0  0
    0.9195   -2.4318    0.0000 C   0  0  0  0  0  0  0  0  0  0  0  0
   -0.1816   -3.4504    0.0000 C   0  0  0  0  0  0  0  0  0  0  0  0
   -1.4556   -4.2422    0.0000 C   0  0  0  0  0  0  0  0  0  0  0  0
   -2.8564   -4.7785    0.0000 C   0  0  0  0  0  0  0  0  0  0  0  0
    4.1696    3.9127    0.0000 C   0  0  0  0  0  0  0  0  0  0  0  0
    2.7304    4.5687    0.0000 C   0  0  0  0  0  0  0  0  0  0  0  0
    4.1420    5.0761    0.0000 O   0  0  0  0  0  0  0  0  0  0  0  0
    2.2613    5.9934    0.0000 N   0  0  0  0  0  0  0  0  0  0  0  0
    1.5311    7.3037    0.0000 C   0  0  0  0  0  0  0  0  0  0  0  0
    2.1314    8.6783    0.0000 C   0  0  0  0  0  0  0  0  0  0  0  0
    3.6221    8.8456    0.0000 C   0  0  0  0  0  0  0  0  0  0  0  0
    4.2225   10.2202    0.0000 O   0  0  0  0  0  0  0  0  0  0  0  0
    4.5123    7.6384    0.0000 O   0  0  0  0  0  0  0  0  0  0  0  0
    0.5660    8.4520    0.0000 C   0  0  0  0  0  0  0  0  0  0  0  0
    1.4792    9.6420    0.0000 O   0  0  0  0  0  0  0  0  0  0  0  0
   -0.5989    9.3970    0.0000 N   0  0  0  0  0  0  0  0  0  0  0  0
   -1.9216   10.1044    0.0000 C   0  0  0  0  0  0  0  0  0  0  0  0
   -2.1597   11.5854    0.0000 C   0  0  0  0  0  0  0  0  0  0  0  0
   -0.9962   12.5321    0.0000 C   0  0  0  0  0  0  0  0  0  0  0  0
   -1.2343   14.0131    0.0000 C   0  0  0  0  0  0  0  0  0  0  0  0
   -0.0707   14.9598    0.0000 N   0  0  0  0  0  0  0  0  0  0  0  0
   -0.3088   16.4407    0.0000 C   0  0  0  0  0  0  0  0  0  0  0  0
    0.8547   17.3874    0.0000 N   0  0  0  0  0  0  0  0  0  0  0  0
   -1.7104   16.9750    0.0000 N   0  0  0  0  0  0  0  0  0  0  0  0
   -3.3543   10.5487    0.0000 C   0  0  0  0  0  0  0  0  0  0  0  0
   -3.2294   12.0435    0.0000 O   0  0  0  0  0  0  0  0  0  0  0  0
   -4.8451   10.7139    0.0000 N   0  0  0  0  0  0  0  0  0  0  0  0
   -6.3403   10.5939    0.0000 C   0  0  0  0  0  0  0  0  0  0  0  0
   -7.3413   11.7111    0.0000 C   0  0  0  0  0  0  0  0  0  0  0  0
   -6.7040   13.0690    0.0000 C   0  0  0  0  0  0  0  0  0  0  0  0
   -8.6640   12.4185    0.0000 C   0  0  0  0  0  0  0  0  0  0  0  0
   -8.7127   13.9177    0.0000 C   0  0  0  0  0  0  0  0  0  0  0  0
   -7.7858   10.1931    0.0000 C   0  0  0  0  0  0  0  0  0  0  0  0
   -8.3222   11.5940    0.0000 O   0  0  0  0  0  0  0  0  0  0  0  0
   -9.1293    9.5261    0.0000 N   0  0  0  0  0  0  0  0  0  0  0  0
  -10.3223    8.6168    0.0000 C   0  0  0  0  0  0  0  0  0  0  0  0
  -11.7683    9.0154    0.0000 C   0  0  0  0  0  0  0  0  0  0  0  0
  -12.1461   10.4671    0.0000 C   0  0  0  0  0  0  0  0  0  0  0  0
  -13.5922   10.8657    0.0000 C   0  0  0  0  0  0  0  0  0  0  0  0
  -13.9700   12.3173    0.0000 C   0  0  0  0  0  0  0  0  0  0  0  0
  -15.4160   12.7160    0.0000 N   0  0  0  0  0  0  0  0  0  0  0  0
  -11.3216    7.4981    0.0000 C   0  0  0  0  0  0  0  0  0  0  0  0
  -12.6295    8.2327    0.0000 O   0  0  0  0  0  0  0  0  0  0  0  0
  -12.0912    6.2106    0.0000 N   0  0  0  0  0  0  0  0  0  0  0  0
  -12.6032    4.8007    0.0000 C   0  0  0  0  0  0  0  0  0  0  0  0
  -14.0352    4.3542    0.0000 C   0  0  0  0  0  0  0  0  0  0  0  0
  -15.1378    5.3712    0.0000 C   0  0  0  0  0  0  0  0  0  0  0  0
  -16.5699    4.9248    0.0000 C   0  0  0  0  0  0  0  0  0  0  0  0
  -17.6725    5.9417    0.0000 O   0  0  0  0  0  0  0  0  0  0  0  0
  -16.8993    3.4614    0.0000 O   0  0  0  0  0  0  0  0  0  0  0  0
  -12.8391    3.3193    0.0000 C   0  0  0  0  0  0  0  0  0  0  0  0
  -14.3364    3.2302    0.0000 O   0  0  0  0  0  0  0  0  0  0  0  0
  -12.7904    1.8201    0.0000 N   0  0  0  0  0  0  0  0  0  0  0  0
  -12.4588    0.3572    0.0000 C   0  0  0  0  0  0  0  0  0  0  0  0
  -13.4222   -0.7925    0.0000 C   0  0  0  0  0  0  0  0  0  0  0  0
  -14.8996   -0.5332    0.0000 C   0  0  0  0  0  0  0  0  0  0  0  0
  -15.8629   -1.6829    0.0000 C   0  0  0  0  0  0  0  0  0  0  0  0
  -16.1992    0.2159    0.0000 C   0  0  0  0  0  0  0  0  0  0  0  0
  -11.8564   -1.0165    0.0000 C   0  0  0  0  0  0  0  0  0  0  0  0
  -13.0679   -1.9010    0.0000 O   0  0  0  0  0  0  0  0  0  0  0  0
  -11.0049   -2.2514    0.0000 N   0  0  0  0  0  0  0  0  0  0  0  0
   -9.9351   -3.3028    0.0000 C   0  0  0  0  0  0  0  0  0  0  0  0
   -8.6857   -4.1328    0.0000 C   0  0  0  0  0  0  0  0  0  0  0  0
   -7.3017   -4.7113    0.0000 C   0  0  0  0  0  0  0  0  0  0  0  0
   -5.8333   -5.0174    0.0000 C   0  0  0  0  0  0  0  0  0  0  0  0
   -4.3334   -5.0401    0.0000 C   0  0  0  0  0  0  0  0  0  0  0  0
  -11.3523   -3.7944    0.0000 C   0  0  0  0  0  0  0  0  0  0  0  0
  -10.1239   -4.7909    0.0000 C   0  0  0  0  0  0  0  0  0  0  0  0
   -9.1847   -5.9604    0.0000 O   0  0  0  0  0  0  0  0  0  0  0  0
  -11.5070   -5.3714    0.0000 N   0  0  0  0  0  0  0  0  0  0  0  0
  -11.6958   -6.8595    0.0000 C   0  0  0  0  0  0  0  0  0  0  0  0
  -11.3643   -8.3224    0.0000 C   0  0  0  0  0  0  0  0  0  0  0  0
  -10.5524   -9.5837    0.0000 O   0  0  0  0  0  0  0  0  0  0  0  0
  -12.3330   -9.4676    0.0000 C   0  0  0  0  0  0  0  0  0  0  0  0
  -13.0789   -7.4400    0.0000 C   0  0  0  0  0  0  0  0  0  0  0  0
  -14.2732   -6.5325    0.0000 O   0  0  0  0  0  0  0  0  0  0  0  0
  -13.2677   -8.9281    0.0000 N   0  0  0  0  0  0  0  0  0  0  0  0
  -14.6508   -9.5086    0.0000 C   0  0  0  0  0  0  0  0  0  0  0  0
  -16.1491   -9.5811    0.0000 C   0  0  0  0  0  0  0  0  0  0  0  0
  -16.9610   -8.3198    0.0000 C   0  0  0  0  0  0  0  0  0  0  0  0
  -18.4592   -8.3923    0.0000 C   0  0  0  0  0  0  0  0  0  0  0  0
  -17.2925   -6.8569    0.0000 C   0  0  0  0  0  0  0  0  0  0  0  0
  -14.8396  -10.9967    0.0000 C   0  0  0  0  0  0  0  0  0  0  0  0
  -13.6453  -11.9042    0.0000 O   0  0  0  0  0  0  0  0  0  0  0  0
  -16.2227  -11.5772    0.0000 N   0  0  0  0  0  0  0  0  0  0  0  0
  -16.4115  -13.0653    0.0000 C   0  0  0  0  0  0  0  0  0  0  0  0
  -16.0800  -14.5282    0.0000 C   0  0  0  0  0  0  0  0  0  0  0  0
  -17.1811  -15.5468    0.0000 C   0  0  0  0  0  0  0  0  0  0  0  0
  -15.2681  -15.7895    0.0000 C   0  0  0  0  0  0  0  0  0  0  0  0
  -13.7698  -15.7170    0.0000 C   0  0  0  0  0  0  0  0  0  0  0  0
  -17.7946  -13.6458    0.0000 C   0  0  0  0  0  0  0  0  0  0  0  0
  -18.1634  -15.0998    0.0000 O   0  0  0  0  0  0  0  0  0  0  0  0
  -18.9889  -12.7383    0.0000 O   0  0  0  0  0  0  0  0  0  0  0  0
   21.8184   -0.2250    0.0000 H   0  0  0  0  0  0  0  0  0  0  0  0
   22.0045   -4.7137    0.0000 H   0  0  0  0  0  0  0  0  0  0  0  0
   24.6037   -6.2118    0.0000 H   0  0  0  0  0  0  0  0  0  0  0  0
   24.2364   -0.2566    0.0000 H   0  0  0  0  0  0  0  0  0  0  0  0
   31.1852    1.4835    0.0000 H   0  0  0  0  0  0  0  0  0  0  0  0
   32.2693   -3.5983    0.0000 H   0  0  0  0  0  0  0  0  0  0  0  0
   29.3353   -4.2242    0.0000 H   0  0  0  0  0  0  0  0  0  0  0  0
   34.1987   -1.8584    0.0000 H   0  0  0  0  0  0  0  0  0  0  0  0
   24.3923   -2.6221    0.0000 H   0  0  0  0  0  0  0  0  0  0  0  0
   22.3560   -0.2130    0.0000 H   0  0  0  0  0  0  0  0  0  0  0  0
   26.2422    3.0856    0.0000 H   0  0  0  0  0  0  0  0  0  0  0  0
   23.7707    3.8866    0.0000 H   0  0  0  0  0  0  0  0  0  0  0  0
   19.4032   -0.2156    0.0000 H   0  0  0  0  0  0  0  0  0  0  0  0
   19.0708   -3.6149    0.0000 H   0  0  0  0  0  0  0  0  0  0  0  0
   17.4493   -3.8153    0.0000 H   0  0  0  0  0  0  0  0  0  0  0  0
   17.7695   -0.5677    0.0000 H   0  0  0  0  0  0  0  0  0  0  0  0
   15.8412   -0.5692    0.0000 H   0  0  0  0  0  0  0  0  0  0  0  0
   14.2070   -0.2194    0.0000 H   0  0  0  0  0  0  0  0  0  0  0  0
   12.3956   -1.0612    0.0000 H   0  0  0  0  0  0  0  0  0  0  0  0
   14.2131   -5.0801    0.0000 H   0  0  0  0  0  0  0  0  0  0  0  0
   12.6774   -4.5224    0.0000 H   0  0  0  0  0  0  0  0  0  0  0  0
   16.6502   -2.6062    0.0000 H   0  0  0  0  0  0  0  0  0  0  0  0
   15.1939   -1.8655    0.0000 H   0  0  0  0  0  0  0  0  0  0  0  0
   16.8308   -5.9147    0.0000 H   0  0  0  0  0  0  0  0  0  0  0  0
   15.1194   -5.4092    0.0000 H   0  0  0  0  0  0  0  0  0  0  0  0
   18.6317   -2.9998    0.0000 H   0  0  0  0  0  0  0  0  0  0  0  0
   21.2008   -6.2791    0.0000 H   0  0  0  0  0  0  0  0  0  0  0  0
   19.2118   -7.9506    0.0000 H   0  0  0  0  0  0  0  0  0  0  0  0
   16.7697   -7.0638    0.0000 H   0  0  0  0  0  0  0  0  0  0  0  0
   10.9796   -0.1737    0.0000 H   0  0  0  0  0  0  0  0  0  0  0  0
    8.9895   -0.3452    0.0000 H   0  0  0  0  0  0  0  0  0  0  0  0
    9.5057   -4.7543    0.0000 H   0  0  0  0  0  0  0  0  0  0  0  0
    8.0276   -3.5159    0.0000 H   0  0  0  0  0  0  0  0  0  0  0  0
   12.9309   -5.3604    0.0000 H   0  0  0  0  0  0  0  0  0  0  0  0
   10.5328   -6.0726    0.0000 H   0  0  0  0  0  0  0  0  0  0  0  0
    7.9624    0.9732    0.0000 H   0  0  0  0  0  0  0  0  0  0  0  0
    6.0337    1.4927    0.0000 H   0  0  0  0  0  0  0  0  0  0  0  0
    4.0454   -1.1578    0.0000 H   0  0  0  0  0  0  0  0  0  0  0  0
    7.0063   -3.6549    0.0000 H   0  0  0  0  0  0  0  0  0  0  0  0
    8.2998   -2.4256    0.0000 H   0  0  0  0  0  0  0  0  0  0  0  0
    7.6943   -0.9511    0.0000 H   0  0  0  0  0  0  0  0  0  0  0  0
    4.0475   -3.9769    0.0000 H   0  0  0  0  0  0  0  0  0  0  0  0
    3.7112   -2.0781    0.0000 H   0  0  0  0  0  0  0  0  0  0  0  0
    5.4638   -5.3854    0.0000 H   0  0  0  0  0  0  0  0  0  0  0  0
    7.2754   -4.7245    0.0000 H   0  0  0  0  0  0  0  0  0  0  0  0
    7.2873   -3.2474    0.0000 H   0  0  0  0  0  0  0  0  0  0  0  0
    5.6013    2.9189    0.0000 H   0  0  0  0  0  0  0  0  0  0  0  0
    4.3098    1.8124    0.0000 H   0  0  0  0  0  0  0  0  0  0  0  0
    3.8336    0.4714    0.0000 H   0  0  0  0  0  0  0  0  0  0  0  0
    3.9327   -0.1068    0.0000 H   0  0  0  0  0  0  0  0  0  0  0  0
    3.3798   -1.0468    0.0000 H   0  0  0  0  0  0  0  0  0  0  0  0
    3.3078   -1.1983    0.0000 H   0  0  0  0  0  0  0  0  0  0  0  0
    2.6537   -2.4622    0.0000 H   0  0  0  0  0  0  0  0  0  0  0  0
    2.3543   -2.8693    0.0000 H   0  0  0  0  0  0  0  0  0  0  0  0
    1.5154   -3.8084    0.0000 H   0  0  0  0  0  0  0  0  0  0  0  0
    1.1444   -4.1515    0.0000 H   0  0  0  0  0  0  0  0  0  0  0  0
    0.1430   -4.9148    0.0000 H   0  0  0  0  0  0  0  0  0  0  0  0
   -0.2862   -5.1816    0.0000 H   0  0  0  0  0  0  0  0  0  0  0  0
   -1.5971   -5.7355    0.0000 H   0  0  0  0  0  0  0  0  0  0  0  0
   -2.4556   -6.2240    0.0000 H   0  0  0  0  0  0  0  0  0  0  0  0
    5.5852    3.4164    0.0000 H   0  0  0  0  0  0  0  0  0  0  0  0
    5.1988    5.0039    0.0000 H   0  0  0  0  0  0  0  0  0  0  0  0
    3.4270    5.2159    0.0000 H   0  0  0  0  0  0  0  0  0  0  0  0
    3.6350    6.5958    0.0000 H   0  0  0  0  0  0  0  0  0  0  0  0
    3.0293    7.3761    0.0000 H   0  0  0  0  0  0  0  0  0  0  0  0
    2.4073   10.1527    0.0000 H   0  0  0  0  0  0  0  0  0  0  0  0
    0.8021    9.3731    0.0000 H   0  0  0  0  0  0  0  0  0  0  0  0
    6.0030    7.8057    0.0000 H   0  0  0  0  0  0  0  0  0  0  0  0
    0.3772   10.5360    0.0000 H   0  0  0  0  0  0  0  0  0  0  0  0
   -0.6033   10.8200    0.0000 H   0  0  0  0  0  0  0  0  0  0  0  0
   -2.8899   12.8956    0.0000 H   0  0  0  0  0  0  0  0  0  0  0  0
   -3.6537   11.4513    0.0000 H   0  0  0  0  0  0  0  0  0  0  0  0
    0.4210   13.0237    0.0000 H   0  0  0  0  0  0  0  0  0  0  0  0
    0.0294   11.4375    0.0000 H   0  0  0  0  0  0  0  0  0  0  0  0
   -1.9645   15.3233    0.0000 H   0  0  0  0  0  0  0  0  0  0  0  0
   -2.7008   13.6978    0.0000 H   0  0  0  0  0  0  0  0  0  0  0  0
    1.3309   14.4255    0.0000 H   0  0  0  0  0  0  0  0  0  0  0  0
    0.6166   18.8684    0.0000 H   0  0  0  0  0  0  0  0  0  0  0  0
   -1.9485   18.4560    0.0000 H   0  0  0  0  0  0  0  0  0  0  0  0
   -2.8740   16.0283    0.0000 H   0  0  0  0  0  0  0  0  0  0  0  0
   -4.6398   12.1998    0.0000 H   0  0  0  0  0  0  0  0  0  0  0  0
   -5.6182   11.9087    0.0000 H   0  0  0  0  0  0  0  0  0  0  0  0
   -8.5256   10.7905    0.0000 H   0  0  0  0  0  0  0  0  0  0  0  0
   -7.7222   14.3876    0.0000 H   0  0  0  0  0  0  0  0  0  0  0  0
   -5.9479   14.3163    0.0000 H   0  0  0  0  0  0  0  0  0  0  0  0
   -5.4197   12.7702    0.0000 H   0  0  0  0  0  0  0  0  0  0  0  0
  -10.1489   12.6309    0.0000 H   0  0  0  0  0  0  0  0  0  0  0  0
   -9.3013   11.0606    0.0000 H   0  0  0  0  0  0  0  0  0  0  0  0
  -10.0354   14.6252    0.0000 H   0  0  0  0  0  0  0  0  0  0  0  0
   -8.2457   15.3432    0.0000 H   0  0  0  0  0  0  0  0  0  0  0  0
   -7.2206   14.0710    0.0000 H   0  0  0  0  0  0  0  0  0  0  0  0
   -9.9211   10.8001    0.0000 H   0  0  0  0  0  0  0  0  0  0  0  0
  -10.4256   10.1132    0.0000 H   0  0  0  0  0  0  0  0  0  0  0  0
  -13.2635    8.8954    0.0000 H   0  0  0  0  0  0  0  0  0  0  0  0
  -12.2670    7.6007    0.0000 H   0  0  0  0  0  0  0  0  0  0  0  0
  -11.8237   11.9320    0.0000 H   0  0  0  0  0  0  0  0  0  0  0  0
  -10.7244   10.9453    0.0000 H   0  0  0  0  0  0  0  0  0  0  0  0
  -15.0874   10.7457    0.0000 H   0  0  0  0  0  0  0  0  0  0  0  0
  -13.9146    9.4008    0.0000 H   0  0  0  0  0  0  0  0  0  0  0  0
  -13.8285   13.8107    0.0000 H   0  0  0  0  0  0  0  0  0  0  0  0
  -12.5006   12.6187    0.0000 H   0  0  0  0  0  0  0  0  0  0  0  0
  -15.7938   14.1676    0.0000 H   0  0  0  0  0  0  0  0  0  0  0  0
  -16.4843   11.6630    0.0000 H   0  0  0  0  0  0  0  0  0  0  0  0
  -13.3575    7.0146    0.0000 H   0  0  0  0  0  0  0  0  0  0  0  0
  -13.4991    6.0037    0.0000 H   0  0  0  0  0  0  0  0  0  0  0  0
  -15.3301    3.5971    0.0000 H   0  0  0  0  0  0  0  0  0  0  0  0
  -13.6898    2.8945    0.0000 H   0  0  0  0  0  0  0  0  0  0  0  0
  -15.8262    6.7039    0.0000 H   0  0  0  0  0  0  0  0  0  0  0  0
  -14.2003    6.5421    0.0000 H   0  0  0  0  0  0  0  0  0  0  0  0
  -18.3313    3.0149    0.0000 H   0  0  0  0  0  0  0  0  0  0  0  0
  -14.2904    1.8119    0.0000 H   0  0  0  0  0  0  0  0  0  0  0  0
  -13.8630    0.8849    0.0000 H   0  0  0  0  0  0  0  0  0  0  0  0
  -13.9342   -2.2025    0.0000 H   0  0  0  0  0  0  0  0  0  0  0  0
  -12.3425   -1.8338    0.0000 H   0  0  0  0  0  0  0  0  0  0  0  0
  -14.7440    0.9587    0.0000 H   0  0  0  0  0  0  0  0  0  0  0  0
  -17.3609   -1.6056    0.0000 H   0  0  0  0  0  0  0  0  0  0  0  0
  -16.3749   -3.0929    0.0000 H   0  0  0  0  0  0  0  0  0  0  0  0
  -14.6643   -2.5848    0.0000 H   0  0  0  0  0  0  0  0  0  0  0  0
  -17.5795   -0.3712    0.0000 H   0  0  0  0  0  0  0  0  0  0  0  0
  -17.1642    1.3642    0.0000 H   0  0  0  0  0  0  0  0  0  0  0  0
  -15.2358    1.3657    0.0000 H   0  0  0  0  0  0  0  0  0  0  0  0
  -12.2624   -3.0692    0.0000 H   0  0  0  0  0  0  0  0  0  0  0  0
   -8.5894   -5.6297    0.0000 H   0  0  0  0  0  0  0  0  0  0  0  0
   -9.7638   -5.1756    0.0000 H   0  0  0  0  0  0  0  0  0  0  0  0
   -7.1037   -6.1981    0.0000 H   0  0  0  0  0  0  0  0  0  0  0  0
   -8.1630   -5.9393    0.0000 H   0  0  0  0  0  0  0  0  0  0  0  0
   -5.1876   -6.3713    0.0000 H   0  0  0  0  0  0  0  0  0  0  0  0
   -6.6089   -6.3013    0.0000 H   0  0  0  0  0  0  0  0  0  0  0  0
   -4.2135   -6.5353    0.0000 H   0  0  0  0  0  0  0  0  0  0  0  0
  -11.9831   -5.1553    0.0000 H   0  0  0  0  0  0  0  0  0  0  0  0
  -12.8521   -3.7718    0.0000 H   0  0  0  0  0  0  0  0  0  0  0  0
  -11.9416   -2.4151    0.0000 H   0  0  0  0  0  0  0  0  0  0  0  0
  -12.8031   -4.6162    0.0000 H   0  0  0  0  0  0  0  0  0  0  0  0
  -10.1976   -6.7870    0.0000 H   0  0  0  0  0  0  0  0  0  0  0  0
   -9.9812   -7.7418    0.0000 H   0  0  0  0  0  0  0  0  0  0  0  0
   -9.0541   -9.5112    0.0000 H   0  0  0  0  0  0  0  0  0  0  0  0
  -12.1339  -10.8039    0.0000 H   0  0  0  0  0  0  0  0  0  0  0  0
  -13.8485   -9.9215    0.0000 H   0  0  0  0  0  0  0  0  0  0  0  0
  -13.7745   -8.6086    0.0000 H   0  0  0  0  0  0  0  0  0  0  0  0
  -12.1929   -9.9744    0.0000 H   0  0  0  0  0  0  0  0  0  0  0  0
  -14.8016   -8.0162    0.0000 H   0  0  0  0  0  0  0  0  0  0  0  0
  -17.5322  -10.1616    0.0000 H   0  0  0  0  0  0  0  0  0  0  0  0
  -16.1814  -11.0808    0.0000 H   0  0  0  0  0  0  0  0  0  0  0  0
  -15.6589   -7.5750    0.0000 H   0  0  0  0  0  0  0  0  0  0  0  0
  -19.4188   -7.2394    0.0000 H   0  0  0  0  0  0  0  0  0  0  0  0
  -19.8423   -8.9728    0.0000 H   0  0  0  0  0  0  0  0  0  0  0  0
  -18.3085   -9.8847    0.0000 H   0  0  0  0  0  0  0  0  0  0  0  0
  -18.6603   -6.2413    0.0000 H   0  0  0  0  0  0  0  0  0  0  0  0
  -17.1037   -5.3688    0.0000 H   0  0  0  0  0  0  0  0  0  0  0  0
  -15.7942   -6.7844    0.0000 H   0  0  0  0  0  0  0  0  0  0  0  0
  -17.5187  -10.8220    0.0000 H   0  0  0  0  0  0  0  0  0  0  0  0
  -14.9133  -12.9928    0.0000 H   0  0  0  0  0  0  0  0  0  0  0  0
  -14.7779  -13.7834    0.0000 H   0  0  0  0  0  0  0  0  0  0  0  0
  -17.0304  -17.0392    0.0000 H   0  0  0  0  0  0  0  0  0  0  0  0
  -18.5642  -16.1273    0.0000 H   0  0  0  0  0  0  0  0  0  0  0  0
  -18.3911  -14.6603    0.0000 H   0  0  0  0  0  0  0  0  0  0  0  0
  -14.9365  -17.2524    0.0000 H   0  0  0  0  0  0  0  0  0  0  0  0
  -16.5701  -16.5343    0.0000 H   0  0  0  0  0  0  0  0  0  0  0  0
  -12.9579  -16.9783    0.0000 H   0  0  0  0  0  0  0  0  0  0  0  0
  -12.3867  -15.1365    0.0000 H   0  0  0  0  0  0  0  0  0  0  0  0
  -13.9206  -14.2246    0.0000 H   0  0  0  0  0  0  0  0  0  0  0  0
  -20.3720  -13.3188    0.0000 H   0  0  0  0  0  0  0  0  0  0  0  0
  1  2  1  0
  2  3  1  0
  3  4  2  0
  4  5  1  0
  5  6  2  0
  6  7  1  0
  7  8  2  0
  7  9  1  0
  9 10  1  0
 10 11  1  0
 11 12  2  0
  9 13  1  0
 13 14  1  0
 14 15  2  0
 15 16  1  0
 16 17  2  0
 17 18  1  0
 16 19  1  0
 14 20  1  0
 20 21  1  0
 21 22  2  0
 22 23  1  0
 23 24  2  0
 24 25  1  0
 25 26  2  0
 25 27  1  0
  1 28  2  0
  1 29  1  0
 29 30  1  0
 30 31  1  0
 31 32  1  0
 32 33  2  0
 32 34  1  0
 34 35  1  0
 35 36  1  0
 36 37  1  0
 37 38  1  0
 38 39  1  0
 39 40  1  0
 40 41  2  3
 40 42  1  0
 35 43  1  0
 43 44  2  0
 43 45  1  0
 45 46  1  0
 46 47  1  0
 47 48  1  0
 48 49  1  0
 48 50  2  0
 46 51  1  0
 51 52  2  0
 51 53  1  0
 53 54  1  0
 54 55  1  0
 55 56  1  0
 55 57  1  0
 57 58  1  0
 54 59  1  0
 59 60  2  0
 59 61  1  0
 62 61  1  6
 62 63  1  0
 63 64  1  0
 64 65  1  0
 65 66  1  0
 66 67  1  0
 67 68  1  0
 68 69  1  0
 62 70  1  0
 62 71  1  0
 71 72  2  0
 71 73  1  0
 73 74  1  0
 74 75  1  0
 75 76  1  0
 76 77  2  0
 76 78  1  0
 74 79  1  0
 79 80  2  0
 79 81  1  0
 81 82  1  0
 82 83  1  0
 83 84  1  0
 84 85  1  0
 85 86  1  0
 86 87  1  0
 87 88  2  3
 87 89  1  0
 82 90  1  0
 90 91  2  0
 90 92  1  0
 92 93  1  0
 93 94  1  0
 94 95  1  0
 94 96  1  0
 96 97  1  0
 93 98  1  0
 98 99  2  0
 98100  1  0
100101  1  0
101102  1  0
102103  1  0
103104  1  0
104105  1  0
105106  1  0
101107  1  0
107108  2  0
107109  1  0
109110  1  0
110111  1  0
111112  1  0
112113  1  0
113114  2  0
113115  1  0
110116  1  0
116117  2  0
116118  1  0
118119  1  0
119120  1  0
120121  1  0
121122  1  0
121123  1  0
119124  1  0
124125  2  0
124126  1  0
126127  1  0
127128  1  0
128129  1  0
129130  1  0
130131  1  0
127132  1  0
127133  1  1
133134  2  0
133135  1  0
135136  1  0
136137  1  0
137138  1  0
137139  1  0
136140  1  0
140141  2  0
140142  1  0
142143  1  0
143144  1  0
144145  1  0
145146  1  0
145147  1  0
143148  1  0
148149  2  0
148150  1  0
150151  1  0
151152  1  0
152153  1  0
152154  1  0
154155  1  0
151156  1  0
156157  2  0
156158  1  0
  8  3  1  0
 11  6  1  0
 69131  2  0
 18 13  2  0
 22  9  1  0
 26 21  1  0
  2159  1  0
  4160  1  0
  5161  1  0
  8162  1  0
 15163  1  0
 17164  1  0
 18165  1  0
 19166  1  0
 23167  1  0
 24168  1  0
 26169  1  0
 27170  1  0
 29171  1  0
 30172  1  0
 30173  1  0
 31174  1  0
 31175  1  0
 34176  1  0
 35177  1  1
 36178  1  0
 36179  1  0
 37180  1  0
 37181  1  0
 38182  1  0
 38183  1  0
 39184  1  0
 41185  1  0
 42186  1  0
 42187  1  0
 45188  1  0
 46189  1  1
 47190  1  0
 47191  1  0
 49192  1  0
 49193  1  0
 53194  1  0
 54195  1  1
 55196  1  6
 56197  1  0
 56198  1  0
 56199  1  0
 57200  1  0
 57201  1  0
 58202  1  0
 58203  1  0
 58204  1  0
 61205  1  0
 63206  1  0
 63207  1  0
 64208  1  0
 64209  1  0
 65210  1  0
 65211  1  0
 66212  1  0
 66213  1  0
 67214  1  0
 67215  1  0
 68216  1  0
 68217  1  0
 69218  1  0
 70219  1  0
 70220  1  0
 70221  1  0
 73222  1  0
 74223  1  6
 75224  1  0
 75225  1  0
 78226  1  0
 81227  1  0
 82228  1  6
 83229  1  0
 83230  1  0
 84231  1  0
 84232  1  0
 85233  1  0
 85234  1  0
 86235  1  0
 88236  1  0
 89237  1  0
 89238  1  0
 92239  1  0
 93240  1  6
 94241  1  1
 95242  1  0
 95243  1  0
 95244  1  0
 96245  1  0
 96246  1  0
 97247  1  0
 97248  1  0
 97249  1  0
100250  1  0
101251  1  6
102252  1  0
102253  1  0
103254  1  0
103255  1  0
104256  1  0
104257  1  0
105258  1  0
105259  1  0
106260  1  0
106261  1  0
109262  1  0
110263  1  6
111264  1  0
111265  1  0
112266  1  0
112267  1  0
115268  1  0
118269  1  0
119270  1  6
120271  1  0
120272  1  0
121273  1  0
122274  1  0
122275  1  0
122276  1  0
123277  1  0
123278  1  0
123279  1  0
126280  1  0
128281  1  0
128282  1  0
129283  1  0
129284  1  0
130285  1  0
130286  1  0
131287  1  0
132288  1  0
132289  1  0
132290  1  0
135291  1  0
136292  1  1
137293  1  1
138294  1  0
139295  1  0
139296  1  0
139297  1  0
142298  1  0
143299  1  6
144300  1  0
144301  1  0
145302  1  0
146303  1  0
146304  1  0
146305  1  0
147306  1  0
147307  1  0
147308  1  0
150309  1  0
151310  1  1
152311  1  1
153312  1  0
153313  1  0
153314  1  0
154315  1  0
154316  1  0
155317  1  0
155318  1  0
155319  1  0
158320  1  0
M  END
