
     RDKit          2D

258265  0  0  0  0  0  0  0  0999 V2000
  -24.8978   -0.2040    0.0000 C   0  0  0  0  0  0  0  0  0  0  0  0
  -26.1799   -0.9826    0.0000 N   0  0  0  0  0  0  0  0  0  0  0  0
  -27.4952   -0.2615    0.0000 C   0  0  0  0  0  0  0  0  0  0  0  0
  -27.5284    1.2381    0.0000 C   0  0  0  0  0  0  0  0  0  0  0  0
  -28.8437    1.9592    0.0000 C   0  0  0  0  0  0  0  0  0  0  0  0
  -30.1258    1.1806    0.0000 C   0  0  0  0  0  0  0  0  0  0  0  0
  -30.0926   -0.3190    0.0000 C   0  0  0  0  0  0  0  0  0  0  0  0
  -28.7773   -1.0401    0.0000 C   0  0  0  0  0  0  0  0  0  0  0  0
  -31.5086   -0.8140    0.0000 C   0  0  0  0  0  0  0  0  0  0  0  0
  -32.4169    0.3798    0.0000 O   0  0  0  0  0  0  0  0  0  0  0  0
  -31.5623    1.6125    0.0000 C   0  0  0  0  0  0  0  0  0  0  0  0
  -32.0573    3.0285    0.0000 O   0  0  0  0  0  0  0  0  0  0  0  0
  -32.9686   -1.1582    0.0000 C   0  0  0  0  0  0  0  0  0  0  0  0
  -33.4004   -2.5947    0.0000 C   0  0  0  0  0  0  0  0  0  0  0  0
  -34.8604   -2.9390    0.0000 C   0  0  0  0  0  0  0  0  0  0  0  0
  -35.8885   -1.8467    0.0000 C   0  0  0  0  0  0  0  0  0  0  0  0
  -35.4567   -0.4102    0.0000 C   0  0  0  0  0  0  0  0  0  0  0  0
  -33.9967   -0.0660    0.0000 C   0  0  0  0  0  0  0  0  0  0  0  0
  -37.3485   -2.1910    0.0000 O   0  0  0  0  0  0  0  0  0  0  0  0
  -32.3723   -3.6869    0.0000 O   0  0  0  0  0  0  0  0  0  0  0  0
  -30.9124   -3.3427    0.0000 C   0  0  0  0  0  0  0  0  0  0  0  0
  -30.4805   -1.9062    0.0000 C   0  0  0  0  0  0  0  0  0  0  0  0
  -29.2221   -2.2323    0.0000 C   0  0  0  0  0  0  0  0  0  0  0  0
  -28.6738   -2.8148    0.0000 C   0  0  0  0  0  0  0  0  0  0  0  0
  -28.9041   -3.5810    0.0000 C   0  0  0  0  0  0  0  0  0  0  0  0
  -29.6827   -3.7646    0.0000 C   0  0  0  0  0  0  0  0  0  0  0  0
  -27.3962   -5.1829    0.0000 O   0  0  0  0  0  0  0  0  0  0  0  0
  -24.9309    1.2956    0.0000 S   0  0  0  0  0  0  0  0  0  0  0  0
  -23.5824   -0.9251    0.0000 N   0  0  0  0  0  0  0  0  0  0  0  0
  -22.3003   -0.1466    0.0000 C   0  0  0  0  0  0  0  0  0  0  0  0
  -20.9850   -0.8676    0.0000 C   0  0  0  0  0  0  0  0  0  0  0  0
  -19.7029   -0.0891    0.0000 O   0  0  0  0  0  0  0  0  0  0  0  0
  -18.3876   -0.8102    0.0000 C   0  0  0  0  0  0  0  0  0  0  0  0
  -17.1054   -0.0316    0.0000 O   0  0  0  0  0  0  0  0  0  0  0  0
  -15.7901   -0.7527    0.0000 C   0  0  0  0  0  0  0  0  0  0  0  0
  -14.5080    0.0259    0.0000 C   0  0  0  0  0  0  0  0  0  0  0  0
  -13.1927   -0.6952    0.0000 O   0  0  0  0  0  0  0  0  0  0  0  0
  -11.9106    0.0834    0.0000 C   0  0  0  0  0  0  0  0  0  0  0  0
  -10.5952   -0.6377    0.0000 C   0  0  0  0  0  0  0  0  0  0  0  0
   -9.3131    0.1408    0.0000 C   0  0  0  0  0  0  0  0  0  0  0  0
   -9.3463    1.6405    0.0000 O   0  0  0  0  0  0  0  0  0  0  0  0
   -7.9978   -0.5802    0.0000 N   0  0  0  0  0  0  0  0  0  0  0  0
   -6.7157    0.1983    0.0000 C   0  0  0  0  0  0  0  0  0  0  0  0
   -5.7772    1.3684    0.0000 C   0  0  0  0  0  0  0  0  0  0  0  0
   -4.2945    1.1407    0.0000 C   0  0  0  0  0  0  0  0  0  0  0  0
   -3.3560    2.3108    0.0000 C   0  0  0  0  0  0  0  0  0  0  0  0
   -1.8734    2.0831    0.0000 N   0  0  0  0  0  0  0  0  0  0  0  0
   -0.9349    3.2532    0.0000 C   0  0  0  0  0  0  0  0  0  0  0  0
    0.5089    2.8464    0.0000 N   0  0  0  0  0  0  0  0  0  0  0  0
   -1.4790    4.6510    0.0000 N   0  0  0  0  0  0  0  0  0  0  0  0
   -5.4004   -0.5228    0.0000 C   0  0  0  0  0  0  0  0  0  0  0  0
   -5.3672   -2.0224    0.0000 O   0  0  0  0  0  0  0  0  0  0  0  0
   -4.1182    0.2558    0.0000 N   0  0  0  0  0  0  0  0  0  0  0  0
   -2.8029   -0.4653    0.0000 C   0  0  0  0  0  0  0  0  0  0  0  0
   -1.8136   -1.5927    0.0000 C   0  0  0  0  0  0  0  0  0  0  0  0
   -2.2953   -3.0133    0.0000 C   0  0  0  0  0  0  0  0  0  0  0  0
   -1.3059   -4.1407    0.0000 C   0  0  0  0  0  0  0  0  0  0  0  0
   -1.7876   -5.5613    0.0000 C   0  0  0  0  0  0  0  0  0  0  0  0
   -0.7983   -6.6887    0.0000 N   0  0  0  0  0  0  0  0  0  0  0  0
   -1.5208    0.3133    0.0000 C   0  0  0  0  0  0  0  0  0  0  0  0
   -1.2797    1.3799    0.0000 O   0  0  0  0  0  0  0  0  0  0  0  0
   -0.2055   -0.4078    0.0000 N   0  0  0  0  0  0  0  0  0  0  0  0
    1.0766    0.3707    0.0000 C   0  0  0  0  0  0  0  0  0  0  0  0
    2.0152    1.5409    0.0000 C   0  0  0  0  0  0  0  0  0  0  0  0
    2.3920   -0.3503    0.0000 C   0  0  0  0  0  0  0  0  0  0  0  0
    2.2421   -1.8428    0.0000 O   0  0  0  0  0  0  0  0  0  0  0  0
    3.6741    0.4282    0.0000 N   0  0  0  0  0  0  0  0  0  0  0  0
    4.9894   -0.2929    0.0000 C   0  0  0  0  0  0  0  0  0  0  0  0
    5.3191   -1.7562    0.0000 C   0  0  0  0  0  0  0  0  0  0  0  0
    6.0654   -3.0573    0.0000 C   0  0  0  0  0  0  0  0  0  0  0  0
    7.1621   -4.0807    0.0000 C   0  0  0  0  0  0  0  0  0  0  0  0
    8.5117   -4.7353    0.0000 C   0  0  0  0  0  0  0  0  0  0  0  0
    3.6901   -1.0424    0.0000 C   0  0  0  0  0  0  0  0  0  0  0  0
    5.1057    1.2026    0.0000 C   0  0  0  0  0  0  0  0  0  0  0  0
    3.7694    1.8841    0.0000 O   0  0  0  0  0  0  0  0  0  0  0  0
    5.6576    2.5974    0.0000 N   0  0  0  0  0  0  0  0  0  0  0  0
    6.5961    3.7675    0.0000 C   0  0  0  0  0  0  0  0  0  0  0  0
    6.3398    5.2454    0.0000 C   0  0  0  0  0  0  0  0  0  0  0  0
    4.9317    5.7624    0.0000 C   0  0  0  0  0  0  0  0  0  0  0  0
    4.6754    7.2404    0.0000 C   0  0  0  0  0  0  0  0  0  0  0  0
    3.2673    7.7574    0.0000 N   0  0  0  0  0  0  0  0  0  0  0  0
    3.0110    9.2353    0.0000 C   0  0  0  0  0  0  0  0  0  0  0  0
    1.6029    9.7523    0.0000 N   0  0  0  0  0  0  0  0  0  0  0  0
    4.1628   10.1962    0.0000 N   0  0  0  0  0  0  0  0  0  0  0  0
    7.8379    4.6090    0.0000 C   0  0  0  0  0  0  0  0  0  0  0  0
    7.1908    5.9623    0.0000 O   0  0  0  0  0  0  0  0  0  0  0  0
    9.2725    5.0471    0.0000 N   0  0  0  0  0  0  0  0  0  0  0  0
   10.7725    5.0429    0.0000 C   0  0  0  0  0  0  0  0  0  0  0  0
   11.7681    6.1648    0.0000 C   0  0  0  0  0  0  0  0  0  0  0  0
   11.2944    7.5880    0.0000 C   0  0  0  0  0  0  0  0  0  0  0  0
   12.2901    8.7099    0.0000 C   0  0  0  0  0  0  0  0  0  0  0  0
   10.3625    8.7634    0.0000 C   0  0  0  0  0  0  0  0  0  0  0  0
   12.2046    4.5967    0.0000 C   0  0  0  0  0  0  0  0  0  0  0  0
   12.8592    5.9464    0.0000 O   0  0  0  0  0  0  0  0  0  0  0  0
   13.4416    3.7483    0.0000 N   0  0  0  0  0  0  0  0  0  0  0  0
   14.3735    2.5729    0.0000 C   0  0  0  0  0  0  0  0  0  0  0  0
   15.8714    2.4939    0.0000 C   0  0  0  0  0  0  0  0  0  0  0  0
   16.6888    3.7517    0.0000 C   0  0  0  0  0  0  0  0  0  0  0  0
   18.1867    3.6727    0.0000 C   0  0  0  0  0  0  0  0  0  0  0  0
   19.0040    4.9305    0.0000 C   0  0  0  0  0  0  0  0  0  0  0  0
   18.3235    6.2672    0.0000 C   0  0  0  0  0  0  0  0  0  0  0  0
   16.8256    6.3462    0.0000 C   0  0  0  0  0  0  0  0  0  0  0  0
   16.0082    5.0884    0.0000 C   0  0  0  0  0  0  0  0  0  0  0  0
   14.9176    1.1751    0.0000 C   0  0  0  0  0  0  0  0  0  0  0  0
   16.3809    1.5047    0.0000 O   0  0  0  0  0  0  0  0  0  0  0  0
   15.0255   -0.3210    0.0000 N   0  0  0  0  0  0  0  0  0  0  0  0
   14.6876   -1.7825    0.0000 C   0  0  0  0  0  0  0  0  0  0  0  0
   13.9339   -3.0794    0.0000 C   0  0  0  0  0  0  0  0  0  0  0  0
   12.8315   -4.0966    0.0000 C   0  0  0  0  0  0  0  0  0  0  0  0
   11.4782   -4.7436    0.0000 C   0  0  0  0  0  0  0  0  0  0  0  0
    9.9944   -4.9630    0.0000 C   0  0  0  0  0  0  0  0  0  0  0  0
   16.1587   -1.4894    0.0000 C   0  0  0  0  0  0  0  0  0  0  0  0
   15.5598   -3.0029    0.0000 C   0  0  0  0  0  0  0  0  0  0  0  0
   15.2879   -4.4780    0.0000 O   0  0  0  0  0  0  0  0  0  0  0  0
   17.0527   -2.8577    0.0000 N   0  0  0  0  0  0  0  0  0  0  0  0
   17.9249   -4.0781    0.0000 C   0  0  0  0  0  0  0  0  0  0  0  0
   18.3271   -5.5231    0.0000 C   0  0  0  0  0  0  0  0  0  0  0  0
   17.2768   -6.5940    0.0000 O   0  0  0  0  0  0  0  0  0  0  0  0
   19.4179   -3.9329    0.0000 C   0  0  0  0  0  0  0  0  0  0  0  0
   20.0387   -2.5674    0.0000 O   0  0  0  0  0  0  0  0  0  0  0  0
   20.2901   -5.1533    0.0000 N   0  0  0  0  0  0  0  0  0  0  0  0
   21.7830   -5.0081    0.0000 C   0  0  0  0  0  0  0  0  0  0  0  0
   23.1363   -4.3611    0.0000 C   0  0  0  0  0  0  0  0  0  0  0  0
   24.3733   -5.2095    0.0000 C   0  0  0  0  0  0  0  0  0  0  0  0
   24.2570   -6.7050    0.0000 C   0  0  0  0  0  0  0  0  0  0  0  0
   25.4940   -7.5535    0.0000 C   0  0  0  0  0  0  0  0  0  0  0  0
   26.8473   -6.9064    0.0000 C   0  0  0  0  0  0  0  0  0  0  0  0
   28.0842   -7.7549    0.0000 O   0  0  0  0  0  0  0  0  0  0  0  0
   26.9636   -5.4110    0.0000 C   0  0  0  0  0  0  0  0  0  0  0  0
   25.7266   -4.5625    0.0000 C   0  0  0  0  0  0  0  0  0  0  0  0
   22.6552   -6.2285    0.0000 C   0  0  0  0  0  0  0  0  0  0  0  0
   23.5314   -6.3586    0.0000 O   0  0  0  0  0  0  0  0  0  0  0  0
   21.8726   -7.5081    0.0000 O   0  0  0  0  0  0  0  0  0  0  0  0
  -25.9642   -2.4670    0.0000 H   0  0  0  0  0  0  0  0  0  0  0  0
  -26.2463    2.0167    0.0000 H   0  0  0  0  0  0  0  0  0  0  0  0
  -28.8769    3.4588    0.0000 H   0  0  0  0  0  0  0  0  0  0  0  0
  -28.5674   -1.8091    0.0000 H   0  0  0  0  0  0  0  0  0  0  0  0
  -35.2923   -4.3755    0.0000 H   0  0  0  0  0  0  0  0  0  0  0  0
  -36.4848    0.6820    0.0000 H   0  0  0  0  0  0  0  0  0  0  0  0
  -33.5648    1.3705    0.0000 H   0  0  0  0  0  0  0  0  0  0  0  0
  -38.3766   -1.0987    0.0000 H   0  0  0  0  0  0  0  0  0  0  0  0
  -28.5887   -0.1255    0.0000 H   0  0  0  0  0  0  0  0  0  0  0  0
  -26.5014   -2.4905    0.0000 H   0  0  0  0  0  0  0  0  0  0  0  0
  -30.3161   -5.8714    0.0000 H   0  0  0  0  0  0  0  0  0  0  0  0
  -27.8280   -6.6194    0.0000 H   0  0  0  0  0  0  0  0  0  0  0  0
  -23.5493   -2.4247    0.0000 H   0  0  0  0  0  0  0  0  0  0  0  0
  -21.3618    1.0236    0.0000 H   0  0  0  0  0  0  0  0  0  0  0  0
  -23.2897    0.9809    0.0000 H   0  0  0  0  0  0  0  0  0  0  0  0
  -20.1405   -2.1073    0.0000 H   0  0  0  0  0  0  0  0  0  0  0  0
  -21.9235   -2.0378    0.0000 H   0  0  0  0  0  0  0  0  0  0  0  0
  -17.5430   -2.0498    0.0000 H   0  0  0  0  0  0  0  0  0  0  0  0
  -19.1765   -2.0860    0.0000 H   0  0  0  0  0  0  0  0  0  0  0  0
  -14.8008   -1.8801    0.0000 H   0  0  0  0  0  0  0  0  0  0  0  0
  -16.5790   -2.0285    0.0000 H   0  0  0  0  0  0  0  0  0  0  0  0
  -13.7191    1.3017    0.0000 H   0  0  0  0  0  0  0  0  0  0  0  0
  -15.4974    1.1533    0.0000 H   0  0  0  0  0  0  0  0  0  0  0  0
  -10.9720    1.2535    0.0000 H   0  0  0  0  0  0  0  0  0  0  0  0
  -12.7551    1.3230    0.0000 H   0  0  0  0  0  0  0  0  0  0  0  0
   -9.6059   -1.7652    0.0000 H   0  0  0  0  0  0  0  0  0  0  0  0
  -11.5338   -1.8078    0.0000 H   0  0  0  0  0  0  0  0  0  0  0  0
   -7.9646   -2.0799    0.0000 H   0  0  0  0  0  0  0  0  0  0  0  0
   -7.7050    1.3258    0.0000 H   0  0  0  0  0  0  0  0  0  0  0  0
   -5.4722    2.8371    0.0000 H   0  0  0  0  0  0  0  0  0  0  0  0
   -7.0925    2.0895    0.0000 H   0  0  0  0  0  0  0  0  0  0  0  0
   -2.9792    0.4196    0.0000 H   0  0  0  0  0  0  0  0  0  0  0  0
   -4.0528   -0.3397    0.0000 H   0  0  0  0  0  0  0  0  0  0  0  0
   -2.8743    3.7314    0.0000 H   0  0  0  0  0  0  0  0  0  0  0  0
   -4.5736    3.1868    0.0000 H   0  0  0  0  0  0  0  0  0  0  0  0
   -1.0072    0.8584    0.0000 H   0  0  0  0  0  0  0  0  0  0  0  0
    1.4863    4.1956    0.0000 H   0  0  0  0  0  0  0  0  0  0  0  0
   -0.5404    5.8212    0.0000 H   0  0  0  0  0  0  0  0  0  0  0  0
   -2.9616    4.8788    0.0000 H   0  0  0  0  0  0  0  0  0  0  0  0
   -3.7876    1.7189    0.0000 H   0  0  0  0  0  0  0  0  0  0  0  0
   -3.8771   -1.5123    0.0000 H   0  0  0  0  0  0  0  0  0  0  0  0
   -0.4982   -2.3138    0.0000 H   0  0  0  0  0  0  0  0  0  0  0  0
   -0.6198   -0.6845    0.0000 H   0  0  0  0  0  0  0  0  0  0  0  0
   -3.3694   -4.0603    0.0000 H   0  0  0  0  0  0  0  0  0  0  0  0
   -3.6887   -2.4579    0.0000 H   0  0  0  0  0  0  0  0  0  0  0  0
    0.0094   -4.8618    0.0000 H   0  0  0  0  0  0  0  0  0  0  0  0
   -0.2318   -3.0938    0.0000 H   0  0  0  0  0  0  0  0  0  0  0  0
   -2.7262   -6.7314    0.0000 H   0  0  0  0  0  0  0  0  0  0  0  0
   -3.1810   -5.0059    0.0000 H   0  0  0  0  0  0  0  0  0  0  0  0
   -1.2800   -8.1093    0.0000 H   0  0  0  0  0  0  0  0  0  0  0  0
    0.6728   -6.3957    0.0000 H   0  0  0  0  0  0  0  0  0  0  0  0
    0.0103   -1.8922    0.0000 H   0  0  0  0  0  0  0  0  0  0  0  0
    0.0873    1.4982    0.0000 H   0  0  0  0  0  0  0  0  0  0  0  0
    3.4311    2.0360    0.0000 H   0  0  0  0  0  0  0  0  0  0  0  0
    2.4969    2.9614    0.0000 H   0  0  0  0  0  0  0  0  0  0  0  0
    0.6218    2.0962    0.0000 H   0  0  0  0  0  0  0  0  0  0  0  0
    3.6409    1.9279    0.0000 H   0  0  0  0  0  0  0  0  0  0  0  0
    3.8239   -1.6362    0.0000 H   0  0  0  0  0  0  0  0  0  0  0  0
    4.4400   -2.9716    0.0000 H   0  0  0  0  0  0  0  0  0  0  0  0
    4.6519   -3.5594    0.0000 H   0  0  0  0  0  0  0  0  0  0  0  0
    5.4141   -4.4086    0.0000 H   0  0  0  0  0  0  0  0  0  0  0  0
    5.8592   -4.8238    0.0000 H   0  0  0  0  0  0  0  0  0  0  0  0
    7.1205   -5.5801    0.0000 H   0  0  0  0  0  0  0  0  0  0  0  0
    8.0656   -6.1674    0.0000 H   0  0  0  0  0  0  0  0  0  0  0  0
    3.5678   -2.7039    0.0000 H   0  0  0  0  0  0  0  0  0  0  0  0
    2.4385   -1.7915    0.0000 H   0  0  0  0  0  0  0  0  0  0  0  0
    2.8413   -0.0339    0.0000 H   0  0  0  0  0  0  0  0  0  0  0  0
    4.3607    3.3510    0.0000 H   0  0  0  0  0  0  0  0  0  0  0  0
    5.1088    3.9619    0.0000 H   0  0  0  0  0  0  0  0  0  0  0  0
    6.7824    6.6787    0.0000 H   0  0  0  0  0  0  0  0  0  0  0  0
    7.7963    5.6043    0.0000 H   0  0  0  0  0  0  0  0  0  0  0  0
    3.4317    5.7666    0.0000 H   0  0  0  0  0  0  0  0  0  0  0  0
    4.4891    4.3292    0.0000 H   0  0  0  0  0  0  0  0  0  0  0  0
    4.9400    8.7168    0.0000 H   0  0  0  0  0  0  0  0  0  0  0  0
    6.1647    7.4190    0.0000 H   0  0  0  0  0  0  0  0  0  0  0  0
    2.1155    6.7964    0.0000 H   0  0  0  0  0  0  0  0  0  0  0  0
    1.3466   11.2302    0.0000 H   0  0  0  0  0  0  0  0  0  0  0  0
    3.9064   11.6742    0.0000 H   0  0  0  0  0  0  0  0  0  0  0  0
    5.5709    9.6793    0.0000 H   0  0  0  0  0  0  0  0  0  0  0  0
    9.0531    6.5310    0.0000 H   0  0  0  0  0  0  0  0  0  0  0  0
    9.9971    6.3269    0.0000 H   0  0  0  0  0  0  0  0  0  0  0  0
   13.1646    6.7123    0.0000 H   0  0  0  0  0  0  0  0  0  0  0  0
   12.9568    5.2498    0.0000 H   0  0  0  0  0  0  0  0  0  0  0  0
    9.8979    7.0405    0.0000 H   0  0  0  0  0  0  0  0  0  0  0  0
   11.9934   10.1802    0.0000 H   0  0  0  0  0  0  0  0  0  0  0  0
   13.6094    9.4236    0.0000 H   0  0  0  0  0  0  0  0  0  0  0  0
   13.3584    7.6569    0.0000 H   0  0  0  0  0  0  0  0  0  0  0  0
   10.7403   10.2150    0.0000 H   0  0  0  0  0  0  0  0  0  0  0  0
    9.0847    9.5491    0.0000 H   0  0  0  0  0  0  0  0  0  0  0  0
    9.3668    7.6415    0.0000 H   0  0  0  0  0  0  0  0  0  0  0  0
   14.3236    4.9616    0.0000 H   0  0  0  0  0  0  0  0  0  0  0  0
   15.0616    3.9058    0.0000 H   0  0  0  0  0  0  0  0  0  0  0  0
   17.2520    1.9074    0.0000 H   0  0  0  0  0  0  0  0  0  0  0  0
   15.8972    0.9942    0.0000 H   0  0  0  0  0  0  0  0  0  0  0  0
   18.8672    2.3360    0.0000 H   0  0  0  0  0  0  0  0  0  0  0  0
   20.5020    4.8515    0.0000 H   0  0  0  0  0  0  0  0  0  0  0  0
   19.1408    7.5249    0.0000 H   0  0  0  0  0  0  0  0  0  0  0  0
   16.1450    7.6829    0.0000 H   0  0  0  0  0  0  0  0  0  0  0  0
   14.5311    5.3494    0.0000 H   0  0  0  0  0  0  0  0  0  0  0  0
   16.5210   -0.4373    0.0000 H   0  0  0  0  0  0  0  0  0  0  0  0
   14.4077   -4.5026    0.0000 H   0  0  0  0  0  0  0  0  0  0  0  0
   15.3446   -3.5895    0.0000 H   0  0  0  0  0  0  0  0  0  0  0  0
   13.0472   -5.5810    0.0000 H   0  0  0  0  0  0  0  0  0  0  0  0
   14.0291   -4.9997    0.0000 H   0  0  0  0  0  0  0  0  0  0  0  0
   11.0679   -6.1864    0.0000 H   0  0  0  0  0  0  0  0  0  0  0  0
   12.4981   -5.8435    0.0000 H   0  0  0  0  0  0  0  0  0  0  0  0
    9.9901   -6.4630    0.0000 H   0  0  0  0  0  0  0  0  0  0  0  0
   17.3915   -2.3439    0.0000 H   0  0  0  0  0  0  0  0  0  0  0  0
   17.3363   -0.5604    0.0000 H   0  0  0  0  0  0  0  0  0  0  0  0
   15.9690   -0.0014    0.0000 H   0  0  0  0  0  0  0  0  0  0  0  0
   17.8353   -1.5780    0.0000 H   0  0  0  0  0  0  0  0  0  0  0  0
   16.5717   -4.7251    0.0000 H   0  0  0  0  0  0  0  0  0  0  0  0
   19.0441   -6.8407    0.0000 H   0  0  0  0  0  0  0  0  0  0  0  0
   19.7968   -5.2228    0.0000 H   0  0  0  0  0  0  0  0  0  0  0  0
   17.6790   -8.0391    0.0000 H   0  0  0  0  0  0  0  0  0  0  0  0
   19.8404   -6.5843    0.0000 H   0  0  0  0  0  0  0  0  0  0  0  0
   21.3808   -3.5630    0.0000 H   0  0  0  0  0  0  0  0  0  0  0  0
   24.1867   -3.2902    0.0000 H   0  0  0  0  0  0  0  0  0  0  0  0
   22.2641   -3.1407    0.0000 H   0  0  0  0  0  0  0  0  0  0  0  0
   22.9927   -7.5122    0.0000 H   0  0  0  0  0  0  0  0  0  0  0  0
   25.3777   -9.0490    0.0000 H   0  0  0  0  0  0  0  0  0  0  0  0
   29.4375   -7.1079    0.0000 H   0  0  0  0  0  0  0  0  0  0  0  0
   28.3168   -4.7639    0.0000 H   0  0  0  0  0  0  0  0  0  0  0  0
   25.8429   -3.0670    0.0000 H   0  0  0  0  0  0  0  0  0  0  0  0
   22.9067   -8.8143    0.0000 H   0  0  0  0  0  0  0  0  0  0  0  0
  1  2  1  0
  2  3  1  0
  3  4  2  0
  4  5  1  0
  5  6  2  0
  6  7  1  0
  7  8  2  0
  7  9  1  0
  9 10  1  0
 10 11  1  0
 11 12  2  0
  9 13  1  0
 13 14  1  0
 14 15  2  0
 15 16  1  0
 16 17  2  0
 17 18  1  0
 16 19  1  0
 14 20  1  0
 20 21  1  0
 21 22  2  0
 22 23  1  0
 23 24  2  0
 24 25  1  0
 25 26  2  0
 25 27  1  0
  1 28  2  0
  1 29  1  0
 29 30  1  0
 30 31  1  0
 31 32  1  0
 32 33  1  0
 33 34  1  0
 34 35  1  0
 35 36  1  0
 36 37  1  0
 37 38  1  0
 38 39  1  0
 39 40  1  0
 40 41  2  0
 40 42  1  0
 42 43  1  0
 43 44  1  0
 44 45  1  0
 45 46  1  0
 46 47  1  0
 47 48  1  0
 48 49  2  3
 48 50  1  0
 43 51  1  0
 51 52  2  0
 51 53  1  0
 53 54  1  0
 54 55  1  0
 55 56  1  0
 56 57  1  0
 57 58  1  0
 58 59  1  0
 54 60  1  0
 60 61  2  0
 60 62  1  0
 62 63  1  0
 63 64  1  0
 63 65  1  0
 65 66  2  0
 65 67  1  0
 68 67  1  6
 68 69  1  0
 69 70  1  0
 70 71  1  0
 71 72  1  0
 68 73  1  0
 68 74  1  0
 74 75  2  0
 74 76  1  0
 76 77  1  0
 77 78  1  0
 78 79  1  0
 79 80  1  0
 80 81  1  0
 81 82  1  0
 82 83  2  3
 82 84  1  0
 77 85  1  0
 85 86  2  0
 85 87  1  0
 87 88  1  0
 88 89  1  0
 89 90  1  0
 90 91  1  0
 90 92  1  0
 88 93  1  0
 93 94  2  0
 93 95  1  0
 95 96  1  0
 96 97  1  0
 97 98  1  0
 98 99  2  0
 99100  1  0
100101  2  0
101102  1  0
102103  2  0
 96104  1  0
104105  2  0
104106  1  0
106107  1  0
107108  1  0
108109  1  0
109110  1  0
110111  1  0
107112  1  0
107113  1  6
113114  2  0
113115  1  0
115116  1  0
116117  1  0
117118  1  0
116119  1  0
119120  2  0
119121  1  0
121122  1  0
122123  1  0
123124  1  0
124125  2  0
125126  1  0
126127  2  0
127128  1  0
127129  1  0
129130  2  0
122131  1  0
131132  2  0
131133  1  0
  8  3  1  0
103 98  1  0
130124  1  0
 11  6  1  0
 72111  2  0
 18 13  2  0
 22  9  1  0
 26 21  1  0
  2134  1  0
  4135  1  0
  5136  1  0
  8137  1  0
 15138  1  0
 17139  1  0
 18140  1  0
 19141  1  0
 23142  1  0
 24143  1  0
 26144  1  0
 27145  1  0
 29146  1  0
 30147  1  0
 30148  1  0
 31149  1  0
 31150  1  0
 33151  1  0
 33152  1  0
 35153  1  0
 35154  1  0
 36155  1  0
 36156  1  0
 38157  1  0
 38158  1  0
 39159  1  0
 39160  1  0
 42161  1  0
 43162  1  1
 44163  1  0
 44164  1  0
 45165  1  0
 45166  1  0
 46167  1  0
 46168  1  0
 47169  1  0
 49170  1  0
 50171  1  0
 50172  1  0
 53173  1  0
 54174  1  6
 55175  1  0
 55176  1  0
 56177  1  0
 56178  1  0
 57179  1  0
 57180  1  0
 58181  1  0
 58182  1  0
 59183  1  0
 59184  1  0
 62185  1  0
 63186  1  1
 64187  1  0
 64188  1  0
 64189  1  0
 67190  1  0
 69191  1  0
 69192  1  0
 70193  1  0
 70194  1  0
 71195  1  0
 71196  1  0
 72197  1  0
 73198  1  0
 73199  1  0
 73200  1  0
 76201  1  0
 77202  1  1
 78203  1  0
 78204  1  0
 79205  1  0
 79206  1  0
 80207  1  0
 80208  1  0
 81209  1  0
 83210  1  0
 84211  1  0
 84212  1  0
 87213  1  0
 88214  1  1
 89215  1  0
 89216  1  0
 90217  1  0
 91218  1  0
 91219  1  0
 91220  1  0
 92221  1  0
 92222  1  0
 92223  1  0
 95224  1  0
 96225  1  1
 97226  1  0
 97227  1  0
 99228  1  0
100229  1  0
101230  1  0
102231  1  0
103232  1  0
106233  1  0
108234  1  0
108235  1  0
109236  1  0
109237  1  0
110238  1  0
110239  1  0
111240  1  0
112241  1  0
112242  1  0
112243  1  0
115244  1  0
116245  1  6
117246  1  0
117247  1  0
118248  1  0
121249  1  0
122250  1  1
123251  1  0
123252  1  0
125253  1  0
126254  1  0
128255  1  0
129256  1  0
130257  1  0
133258  1  0
M  END
