
     RDKit          2D

362368  0  0  0  0  0  0  0  0999 V2000
  -22.1365    5.0711    0.0000 C   0  0  0  0  0  0  0  0  0  0  0  0
  -23.3275    5.9830    0.0000 N   0  0  0  0  0  0  0  0  0  0  0  0
  -23.1333    7.4704    0.0000 C   0  0  0  0  0  0  0  0  0  0  0  0
  -21.7481    8.0459    0.0000 C   0  0  0  0  0  0  0  0  0  0  0  0
  -21.5539    9.5332    0.0000 C   0  0  0  0  0  0  0  0  0  0  0  0
  -22.7450   10.4451    0.0000 C   0  0  0  0  0  0  0  0  0  0  0  0
  -24.1302    9.8696    0.0000 C   0  0  0  0  0  0  0  0  0  0  0  0
  -24.3243    8.3822    0.0000 C   0  0  0  0  0  0  0  0  0  0  0  0
  -25.1056   11.0091    0.0000 C   0  0  0  0  0  0  0  0  0  0  0  0
  -24.3232   12.2890    0.0000 O   0  0  0  0  0  0  0  0  0  0  0  0
  -22.8643   11.9404    0.0000 C   0  0  0  0  0  0  0  0  0  0  0  0
  -21.7247   12.9158    0.0000 O   0  0  0  0  0  0  0  0  0  0  0  0
  -25.9565   12.2444    0.0000 C   0  0  0  0  0  0  0  0  0  0  0  0
  -27.4517   12.1251    0.0000 C   0  0  0  0  0  0  0  0  0  0  0  0
  -28.3027   13.3604    0.0000 C   0  0  0  0  0  0  0  0  0  0  0  0
  -27.6584   14.7150    0.0000 C   0  0  0  0  0  0  0  0  0  0  0  0
  -26.1631   14.8343    0.0000 C   0  0  0  0  0  0  0  0  0  0  0  0
  -25.3122   13.5990    0.0000 C   0  0  0  0  0  0  0  0  0  0  0  0
  -28.5093   15.9502    0.0000 O   0  0  0  0  0  0  0  0  0  0  0  0
  -28.0961   10.7705    0.0000 O   0  0  0  0  0  0  0  0  0  0  0  0
  -27.2451    9.5353    0.0000 C   0  0  0  0  0  0  0  0  0  0  0  0
  -25.7499    9.6546    0.0000 C   0  0  0  0  0  0  0  0  0  0  0  0
  -25.5967    8.3636    0.0000 C   0  0  0  0  0  0  0  0  0  0  0  0
  -25.9403    7.6412    0.0000 C   0  0  0  0  0  0  0  0  0  0  0  0
  -26.7378    7.5776    0.0000 C   0  0  0  0  0  0  0  0  0  0  0  0
  -27.1916    8.2364    0.0000 C   0  0  0  0  0  0  0  0  0  0  0  0
  -27.6828    5.5909    0.0000 O   0  0  0  0  0  0  0  0  0  0  0  0
  -20.8318    5.8112    0.0000 S   0  0  0  0  0  0  0  0  0  0  0  0
  -22.3307    3.5837    0.0000 N   0  0  0  0  0  0  0  0  0  0  0  0
  -21.1397    2.6719    0.0000 C   0  0  0  0  0  0  0  0  0  0  0  0
  -21.3339    1.1845    0.0000 C   0  0  0  0  0  0  0  0  0  0  0  0
  -20.1429    0.2726    0.0000 C   0  0  0  0  0  0  0  0  0  0  0  0
  -19.5026    0.7475    0.0000 O   0  0  0  0  0  0  0  0  0  0  0  0
  -20.3370   -1.2147    0.0000 N   0  0  0  0  0  0  0  0  0  0  0  0
  -19.1460   -2.1266    0.0000 C   0  0  0  0  0  0  0  0  0  0  0  0
  -18.4548   -0.7953    0.0000 C   0  0  0  0  0  0  0  0  0  0  0  0
  -19.2622    0.4689    0.0000 C   0  0  0  0  0  0  0  0  0  0  0  0
  -18.5710    1.8001    0.0000 C   0  0  0  0  0  0  0  0  0  0  0  0
  -19.3783    3.0644    0.0000 N   0  0  0  0  0  0  0  0  0  0  0  0
  -18.6871    4.3956    0.0000 C   0  0  0  0  0  0  0  0  0  0  0  0
  -19.4944    5.6598    0.0000 N   0  0  0  0  0  0  0  0  0  0  0  0
  -17.1886    4.4627    0.0000 N   0  0  0  0  0  0  0  0  0  0  0  0
  -18.3387   -3.3908    0.0000 C   0  0  0  0  0  0  0  0  0  0  0  0
  -16.8402   -3.3238    0.0000 O   0  0  0  0  0  0  0  0  0  0  0  0
  -19.0299   -4.7221    0.0000 N   0  0  0  0  0  0  0  0  0  0  0  0
  -18.2226   -5.9863    0.0000 C   0  0  0  0  0  0  0  0  0  0  0  0
  -19.6078   -6.5618    0.0000 C   0  0  0  0  0  0  0  0  0  0  0  0
  -20.7988   -5.6500    0.0000 C   0  0  0  0  0  0  0  0  0  0  0  0
  -22.1840   -6.2255    0.0000 C   0  0  0  0  0  0  0  0  0  0  0  0
  -23.3750   -5.3136    0.0000 N   0  0  0  0  0  0  0  0  0  0  0  0
  -24.7602   -5.8891    0.0000 C   0  0  0  0  0  0  0  0  0  0  0  0
  -25.9512   -4.9773    0.0000 N   0  0  0  0  0  0  0  0  0  0  0  0
  -24.9544   -7.3765    0.0000 N   0  0  0  0  0  0  0  0  0  0  0  0
  -17.0316   -6.8982    0.0000 C   0  0  0  0  0  0  0  0  0  0  0  0
  -17.2258   -8.3855    0.0000 O   0  0  0  0  0  0  0  0  0  0  0  0
  -15.6464   -6.3226    0.0000 N   0  0  0  0  0  0  0  0  0  0  0  0
  -14.4554   -7.2345    0.0000 C   0  0  0  0  0  0  0  0  0  0  0  0
  -13.0702   -6.6590    0.0000 C   0  0  0  0  0  0  0  0  0  0  0  0
  -13.0587   -5.1590    0.0000 O   0  0  0  0  0  0  0  0  0  0  0  0
  -11.8792   -7.5708    0.0000 N   0  0  0  0  0  0  0  0  0  0  0  0
  -10.4940   -6.9953    0.0000 C   0  0  0  0  0  0  0  0  0  0  0  0
  -11.3013   -5.7311    0.0000 C   0  0  0  0  0  0  0  0  0  0  0  0
  -12.7968   -5.6150    0.0000 O   0  0  0  0  0  0  0  0  0  0  0  0
   -8.9955   -6.9283    0.0000 C   0  0  0  0  0  0  0  0  0  0  0  0
   -8.6469   -5.4693    0.0000 O   0  0  0  0  0  0  0  0  0  0  0  0
   -8.1881   -8.1925    0.0000 N   0  0  0  0  0  0  0  0  0  0  0  0
   -6.6896   -8.1255    0.0000 C   0  0  0  0  0  0  0  0  0  0  0  0
   -7.0159   -6.6614    0.0000 C   0  0  0  0  0  0  0  0  0  0  0  0
   -8.4469   -6.2118    0.0000 C   0  0  0  0  0  0  0  0  0  0  0  0
   -8.7732   -4.7478    0.0000 C   0  0  0  0  0  0  0  0  0  0  0  0
  -10.2042   -4.2982    0.0000 N   0  0  0  0  0  0  0  0  0  0  0  0
  -10.5305   -2.8341    0.0000 C   0  0  0  0  0  0  0  0  0  0  0  0
  -11.9615   -2.3846    0.0000 N   0  0  0  0  0  0  0  0  0  0  0  0
   -9.4256   -1.8196    0.0000 N   0  0  0  0  0  0  0  0  0  0  0  0
   -5.2586   -8.5750    0.0000 C   0  0  0  0  0  0  0  0  0  0  0  0
   -4.1538   -7.5604    0.0000 O   0  0  0  0  0  0  0  0  0  0  0  0
   -4.9323  -10.0391    0.0000 N   0  0  0  0  0  0  0  0  0  0  0  0
   -5.9251  -11.1636    0.0000 C   0  0  0  0  0  0  0  0  0  0  0  0
   -5.1624  -12.4552    0.0000 C   0  0  0  0  0  0  0  0  0  0  0  0
   -3.6983  -12.1290    0.0000 C   0  0  0  0  0  0  0  0  0  0  0  0
   -3.5561  -10.6357    0.0000 C   0  0  0  0  0  0  0  0  0  0  0  0
   -2.0859  -10.9332    0.0000 C   0  0  0  0  0  0  0  0  0  0  0  0
   -1.0932   -9.8087    0.0000 O   0  0  0  0  0  0  0  0  0  0  0  0
   -1.6084  -12.3551    0.0000 N   0  0  0  0  0  0  0  0  0  0  0  0
   -0.1382  -12.6526    0.0000 C   0  0  0  0  0  0  0  0  0  0  0  0
   -0.6865  -14.0488    0.0000 C   0  0  0  0  0  0  0  0  0  0  0  0
   -2.1315  -14.4513    0.0000 O   0  0  0  0  0  0  0  0  0  0  0  0
    1.3451  -12.4293    0.0000 C   0  0  0  0  0  0  0  0  0  0  0  0
    2.2801  -13.6022    0.0000 O   0  0  0  0  0  0  0  0  0  0  0  0
    1.8933  -11.0331    0.0000 N   0  0  0  0  0  0  0  0  0  0  0  0
    3.3766  -10.8098    0.0000 C   0  0  0  0  0  0  0  0  0  0  0  0
    3.9249   -9.4136    0.0000 C   0  0  0  0  0  0  0  0  0  0  0  0
    2.8538   -8.3634    0.0000 O   0  0  0  0  0  0  0  0  0  0  0  0
    5.4081   -9.1902    0.0000 N   0  0  0  0  0  0  0  0  0  0  0  0
    5.9564   -7.7940    0.0000 C   0  0  0  0  0  0  0  0  0  0  0  0
    4.4862   -7.4966    0.0000 C   0  0  0  0  0  0  0  0  0  0  0  0
    6.9491   -6.6695    0.0000 C   0  0  0  0  0  0  0  0  0  0  0  0
    6.1417   -5.4054    0.0000 O   0  0  0  0  0  0  0  0  0  0  0  0
    8.4193   -6.9670    0.0000 N   0  0  0  0  0  0  0  0  0  0  0  0
    9.4120   -5.8425    0.0000 C   0  0  0  0  0  0  0  0  0  0  0  0
    7.9637   -5.4524    0.0000 C   0  0  0  0  0  0  0  0  0  0  0  0
    6.6153   -4.7952    0.0000 C   0  0  0  0  0  0  0  0  0  0  0  0
    5.4156   -3.8947    0.0000 C   0  0  0  0  0  0  0  0  0  0  0  0
    4.4081   -2.7835    0.0000 C   0  0  0  0  0  0  0  0  0  0  0  0
    3.6291   -1.5016    0.0000 C   0  0  0  0  0  0  0  0  0  0  0  0
    3.1067   -0.0955    0.0000 C   0  0  0  0  0  0  0  0  0  0  0  0
    2.8599    1.3840    0.0000 C   0  0  0  0  0  0  0  0  0  0  0  0
    9.9788   -7.2313    0.0000 C   0  0  0  0  0  0  0  0  0  0  0  0
   10.9081   -5.9514    0.0000 C   0  0  0  0  0  0  0  0  0  0  0  0
   11.1244   -7.4358    0.0000 O   0  0  0  0  0  0  0  0  0  0  0  0
   12.3977   -5.7753    0.0000 N   0  0  0  0  0  0  0  0  0  0  0  0
   13.8271   -5.3204    0.0000 C   0  0  0  0  0  0  0  0  0  0  0  0
   15.0547   -6.1824    0.0000 C   0  0  0  0  0  0  0  0  0  0  0  0
   14.9220   -7.6765    0.0000 C   0  0  0  0  0  0  0  0  0  0  0  0
   16.1496   -8.5385    0.0000 C   0  0  0  0  0  0  0  0  0  0  0  0
   16.0169  -10.0326    0.0000 N   0  0  0  0  0  0  0  0  0  0  0  0
   17.2445  -10.8946    0.0000 C   0  0  0  0  0  0  0  0  0  0  0  0
   17.1118  -12.3887    0.0000 N   0  0  0  0  0  0  0  0  0  0  0  0
   18.6048  -10.2624    0.0000 N   0  0  0  0  0  0  0  0  0  0  0  0
   15.1445   -4.6033    0.0000 C   0  0  0  0  0  0  0  0  0  0  0  0
   16.1290   -5.7350    0.0000 O   0  0  0  0  0  0  0  0  0  0  0  0
   16.3024   -3.6498    0.0000 N   0  0  0  0  0  0  0  0  0  0  0  0
   17.2590   -2.4943    0.0000 C   0  0  0  0  0  0  0  0  0  0  0  0
   18.7577   -2.5558    0.0000 C   0  0  0  0  0  0  0  0  0  0  0  0
   19.4539   -3.8844    0.0000 C   0  0  0  0  0  0  0  0  0  0  0  0
   20.9526   -3.9459    0.0000 C   0  0  0  0  0  0  0  0  0  0  0  0
   21.6488   -5.2745    0.0000 N   0  0  0  0  0  0  0  0  0  0  0  0
   23.1475   -5.3360    0.0000 C   0  0  0  0  0  0  0  0  0  0  0  0
   23.8437   -6.6646    0.0000 N   0  0  0  0  0  0  0  0  0  0  0  0
   23.9501   -4.0687    0.0000 N   0  0  0  0  0  0  0  0  0  0  0  0
   17.9796   -1.1787    0.0000 C   0  0  0  0  0  0  0  0  0  0  0  0
   19.4196   -1.5986    0.0000 O   0  0  0  0  0  0  0  0  0  0  0  0
   18.4382    0.2494    0.0000 N   0  0  0  0  0  0  0  0  0  0  0  0
   18.6182    1.7386    0.0000 C   0  0  0  0  0  0  0  0  0  0  0  0
   19.9122    2.4972    0.0000 C   0  0  0  0  0  0  0  0  0  0  0  0
   21.2162    1.7558    0.0000 C   0  0  0  0  0  0  0  0  0  0  0  0
   22.5102    2.5144    0.0000 C   0  0  0  0  0  0  0  0  0  0  0  0
   23.8142    1.7730    0.0000 N   0  0  0  0  0  0  0  0  0  0  0  0
   25.1083    2.5316    0.0000 C   0  0  0  0  0  0  0  0  0  0  0  0
   26.4122    1.7903    0.0000 N   0  0  0  0  0  0  0  0  0  0  0  0
   25.0983    4.0316    0.0000 N   0  0  0  0  0  0  0  0  0  0  0  0
   18.5131    3.2349    0.0000 C   0  0  0  0  0  0  0  0  0  0  0  0
   19.9516    3.6602    0.0000 O   0  0  0  0  0  0  0  0  0  0  0  0
   18.1268    4.6843    0.0000 N   0  0  0  0  0  0  0  0  0  0  0  0
   17.4731    6.0344    0.0000 C   0  0  0  0  0  0  0  0  0  0  0  0
   18.1516    7.3722    0.0000 C   0  0  0  0  0  0  0  0  0  0  0  0
   19.6494    7.4535    0.0000 C   0  0  0  0  0  0  0  0  0  0  0  0
   20.3279    8.7913    0.0000 C   0  0  0  0  0  0  0  0  0  0  0  0
   21.8257    8.8726    0.0000 N   0  0  0  0  0  0  0  0  0  0  0  0
   22.5042   10.2103    0.0000 C   0  0  0  0  0  0  0  0  0  0  0  0
   24.0020   10.2916    0.0000 N   0  0  0  0  0  0  0  0  0  0  0  0
   21.6849   11.4668    0.0000 N   0  0  0  0  0  0  0  0  0  0  0  0
   16.5758    7.2364    0.0000 C   0  0  0  0  0  0  0  0  0  0  0  0
   17.5559    8.3719    0.0000 O   0  0  0  0  0  0  0  0  0  0  0  0
   15.4672    8.2468    0.0000 N   0  0  0  0  0  0  0  0  0  0  0  0
   14.1874    9.0292    0.0000 C   0  0  0  0  0  0  0  0  0  0  0  0
   14.0349   10.5214    0.0000 C   0  0  0  0  0  0  0  0  0  0  0  0
   15.2509   11.3996    0.0000 C   0  0  0  0  0  0  0  0  0  0  0  0
   15.0985   12.8918    0.0000 C   0  0  0  0  0  0  0  0  0  0  0  0
   16.3145   13.7700    0.0000 N   0  0  0  0  0  0  0  0  0  0  0  0
   16.1621   15.2622    0.0000 C   0  0  0  0  0  0  0  0  0  0  0  0
   17.3781   16.1404    0.0000 N   0  0  0  0  0  0  0  0  0  0  0  0
   14.7935   15.8763    0.0000 N   0  0  0  0  0  0  0  0  0  0  0  0
   12.7826    9.5552    0.0000 C   0  0  0  0  0  0  0  0  0  0  0  0
   12.9933   11.0403    0.0000 O   0  0  0  0  0  0  0  0  0  0  0  0
   11.3037    9.8059    0.0000 N   0  0  0  0  0  0  0  0  0  0  0  0
    9.8041    9.7721    0.0000 C   0  0  0  0  0  0  0  0  0  0  0  0
    8.8691   10.9450    0.0000 C   0  0  0  0  0  0  0  0  0  0  0  0
    8.3380    9.4552    0.0000 C   0  0  0  0  0  0  0  0  0  0  0  0
    7.7122   10.8185    0.0000 O   0  0  0  0  0  0  0  0  0  0  0  0
    6.9583    8.8665    0.0000 N   0  0  0  0  0  0  0  0  0  0  0  0
    5.7150    8.0274    0.0000 C   0  0  0  0  0  0  0  0  0  0  0  0
    4.6529    6.9681    0.0000 C   0  0  0  0  0  0  0  0  0  0  0  0
    3.8106    5.7270    0.0000 C   0  0  0  0  0  0  0  0  0  0  0  0
    3.2183    4.3489    0.0000 C   0  0  0  0  0  0  0  0  0  0  0  0
    2.8975    2.8835    0.0000 C   0  0  0  0  0  0  0  0  0  0  0  0
    5.5152    9.5140    0.0000 C   0  0  0  0  0  0  0  0  0  0  0  0
    4.2943    8.5086    0.0000 C   0  0  0  0  0  0  0  0  0  0  0  0
    3.8235    9.9328    0.0000 O   0  0  0  0  0  0  0  0  0  0  0  0
    2.9612    7.8209    0.0000 O   0  0  0  0  0  0  0  0  0  0  0  0
  -24.6322    5.2429    0.0000 H   0  0  0  0  0  0  0  0  0  0  0  0
  -20.5571    7.1340    0.0000 H   0  0  0  0  0  0  0  0  0  0  0  0
  -20.1687   10.1088    0.0000 H   0  0  0  0  0  0  0  0  0  0  0  0
  -25.5291    7.4886    0.0000 H   0  0  0  0  0  0  0  0  0  0  0  0
  -29.7979   13.2411    0.0000 H   0  0  0  0  0  0  0  0  0  0  0  0
  -25.5188   16.1888    0.0000 H   0  0  0  0  0  0  0  0  0  0  0  0
  -23.8169   13.7183    0.0000 H   0  0  0  0  0  0  0  0  0  0  0  0
  -27.8650   17.3048    0.0000 H   0  0  0  0  0  0  0  0  0  0  0  0
  -23.4037    8.5386    0.0000 H   0  0  0  0  0  0  0  0  0  0  0  0
  -24.8492    5.7349    0.0000 H   0  0  0  0  0  0  0  0  0  0  0  0
  -29.3847    8.0614    0.0000 H   0  0  0  0  0  0  0  0  0  0  0  0
  -29.1780    5.4716    0.0000 H   0  0  0  0  0  0  0  0  0  0  0  0
  -23.7159    3.0082    0.0000 H   0  0  0  0  0  0  0  0  0  0  0  0
  -20.4485    4.0031    0.0000 H   0  0  0  0  0  0  0  0  0  0  0  0
  -19.6424    2.5820    0.0000 H   0  0  0  0  0  0  0  0  0  0  0  0
  -22.7649    1.6340    0.0000 H   0  0  0  0  0  0  0  0  0  0  0  0
  -22.0251   -0.1468    0.0000 H   0  0  0  0  0  0  0  0  0  0  0  0
  -21.7222   -1.7903    0.0000 H   0  0  0  0  0  0  0  0  0  0  0  0
  -20.2509   -3.1412    0.0000 H   0  0  0  0  0  0  0  0  0  0  0  0
  -17.2346    0.0770    0.0000 H   0  0  0  0  0  0  0  0  0  0  0  0
  -17.2638   -1.7072    0.0000 H   0  0  0  0  0  0  0  0  0  0  0  0
  -20.4532    1.3807    0.0000 H   0  0  0  0  0  0  0  0  0  0  0  0
  -20.5796   -0.2482    0.0000 H   0  0  0  0  0  0  0  0  0  0  0  0
  -17.4661    2.8147    0.0000 H   0  0  0  0  0  0  0  0  0  0  0  0
  -17.2777    1.0403    0.0000 H   0  0  0  0  0  0  0  0  0  0  0  0
  -20.8485    3.3619    0.0000 H   0  0  0  0  0  0  0  0  0  0  0  0
  -18.8032    6.9911    0.0000 H   0  0  0  0  0  0  0  0  0  0  0  0
  -20.9899    5.7760    0.0000 H   0  0  0  0  0  0  0  0  0  0  0  0
  -16.4974    5.7939    0.0000 H   0  0  0  0  0  0  0  0  0  0  0  0
  -16.3813    3.1984    0.0000 H   0  0  0  0  0  0  0  0  0  0  0  0
  -20.5254   -4.6060    0.0000 H   0  0  0  0  0  0  0  0  0  0  0  0
  -17.1178   -4.9717    0.0000 H   0  0  0  0  0  0  0  0  0  0  0  0
  -20.5807   -7.7035    0.0000 H   0  0  0  0  0  0  0  0  0  0  0  0
  -18.8005   -7.8260    0.0000 H   0  0  0  0  0  0  0  0  0  0  0  0
  -21.6061   -4.3857    0.0000 H   0  0  0  0  0  0  0  0  0  0  0  0
  -20.1311   -4.3068    0.0000 H   0  0  0  0  0  0  0  0  0  0  0  0
  -23.2888   -7.2400    0.0000 H   0  0  0  0  0  0  0  0  0  0  0  0
  -21.5368   -7.5787    0.0000 H   0  0  0  0  0  0  0  0  0  0  0  0
  -23.1808   -3.8262    0.0000 H   0  0  0  0  0  0  0  0  0  0  0  0
  -27.3364   -5.5528    0.0000 H   0  0  0  0  0  0  0  0  0  0  0  0
  -25.7570   -3.4899    0.0000 H   0  0  0  0  0  0  0  0  0  0  0  0
  -26.3396   -7.9520    0.0000 H   0  0  0  0  0  0  0  0  0  0  0  0
  -23.7634   -8.2884    0.0000 H   0  0  0  0  0  0  0  0  0  0  0  0
  -15.4522   -4.8353    0.0000 H   0  0  0  0  0  0  0  0  0  0  0  0
  -15.5602   -8.2491    0.0000 H   0  0  0  0  0  0  0  0  0  0  0  0
  -13.6481   -8.4987    0.0000 H   0  0  0  0  0  0  0  0  0  0  0  0
  -12.0733   -9.0582    0.0000 H   0  0  0  0  0  0  0  0  0  0  0  0
  -10.1677   -8.4594    0.0000 H   0  0  0  0  0  0  0  0  0  0  0  0
  -11.6275   -4.2670    0.0000 H   0  0  0  0  0  0  0  0  0  0  0  0
  -10.0965   -4.8375    0.0000 H   0  0  0  0  0  0  0  0  0  0  0  0
  -13.6071   -4.5339    0.0000 H   0  0  0  0  0  0  0  0  0  0  0  0
   -8.8793   -9.5238    0.0000 H   0  0  0  0  0  0  0  0  0  0  0  0
   -7.0637   -9.5781    0.0000 H   0  0  0  0  0  0  0  0  0  0  0  0
   -6.6418   -5.2087    0.0000 H   0  0  0  0  0  0  0  0  0  0  0  0
   -5.5174   -6.5943    0.0000 H   0  0  0  0  0  0  0  0  0  0  0  0
   -9.9454   -6.2789    0.0000 H   0  0  0  0  0  0  0  0  0  0  0  0
   -8.9953   -7.6080    0.0000 H   0  0  0  0  0  0  0  0  0  0  0  0
   -8.5790   -3.2604    0.0000 H   0  0  0  0  0  0  0  0  0  0  0  0
   -7.2940   -4.4985    0.0000 H   0  0  0  0  0  0  0  0  0  0  0  0
  -11.5217   -5.0153    0.0000 H   0  0  0  0  0  0  0  0  0  0  0  0
  -12.2878   -0.9205    0.0000 H   0  0  0  0  0  0  0  0  0  0  0  0
  -13.0664   -3.3992    0.0000 H   0  0  0  0  0  0  0  0  0  0  0  0
   -9.7519   -0.3555    0.0000 H   0  0  0  0  0  0  0  0  0  0  0  0
   -7.9946   -2.2691    0.0000 H   0  0  0  0  0  0  0  0  0  0  0  0
   -7.0667  -10.1907    0.0000 H   0  0  0  0  0  0  0  0  0  0  0  0
   -7.1299  -12.0571    0.0000 H   0  0  0  0  0  0  0  0  0  0  0  0
   -6.5266  -13.0787    0.0000 H   0  0  0  0  0  0  0  0  0  0  0  0
   -4.6849  -13.8772    0.0000 H   0  0  0  0  0  0  0  0  0  0  0  0
   -3.5269  -13.6191    0.0000 H   0  0  0  0  0  0  0  0  0  0  0  0
   -2.2394  -12.4776    0.0000 H   0  0  0  0  0  0  0  0  0  0  0  0
   -3.1066   -9.2046    0.0000 H   0  0  0  0  0  0  0  0  0  0  0  0
   -2.7308  -13.3503    0.0000 H   0  0  0  0  0  0  0  0  0  0  0  0
   -0.1006  -11.1531    0.0000 H   0  0  0  0  0  0  0  0  0  0  0  0
   -0.7241  -15.5484    0.0000 H   0  0  0  0  0  0  0  0  0  0  0  0
    0.7838  -14.3463    0.0000 H   0  0  0  0  0  0  0  0  0  0  0  0
   -2.7180  -15.6684    0.0000 H   0  0  0  0  0  0  0  0  0  0  0  0
    0.9583   -9.8602    0.0000 H   0  0  0  0  0  0  0  0  0  0  0  0
    3.3390  -12.3093    0.0000 H   0  0  0  0  0  0  0  0  0  0  0  0
    4.8468  -11.1072    0.0000 H   0  0  0  0  0  0  0  0  0  0  0  0
    6.3432  -10.3632    0.0000 H   0  0  0  0  0  0  0  0  0  0  0  0
    7.2362   -8.5764    0.0000 H   0  0  0  0  0  0  0  0  0  0  0  0
    3.3638   -8.4917    0.0000 H   0  0  0  0  0  0  0  0  0  0  0  0
    3.2064   -6.7142    0.0000 H   0  0  0  0  0  0  0  0  0  0  0  0
    5.0344   -6.1003    0.0000 H   0  0  0  0  0  0  0  0  0  0  0  0
    8.7199   -8.4366    0.0000 H   0  0  0  0  0  0  0  0  0  0  0  0
    7.8926   -6.9507    0.0000 H   0  0  0  0  0  0  0  0  0  0  0  0
    6.6732   -6.2171    0.0000 H   0  0  0  0  0  0  0  0  0  0  0  0
    6.0869   -6.1991    0.0000 H   0  0  0  0  0  0  0  0  0  0  0  0
    5.2757   -5.4702    0.0000 H   0  0  0  0  0  0  0  0  0  0  0  0
    5.1415   -5.3695    0.0000 H   0  0  0  0  0  0  0  0  0  0  0  0
    4.0332   -4.4769    0.0000 H   0  0  0  0  0  0  0  0  0  0  0  0
    3.6937   -4.1025    0.0000 H   0  0  0  0  0  0  0  0  0  0  0  0
    2.9405   -3.0935    0.0000 H   0  0  0  0  0  0  0  0  0  0  0  0
    2.6780   -2.6616    0.0000 H   0  0  0  0  0  0  0  0  0  0  0  0
    2.1293   -1.5283    0.0000 H   0  0  0  0  0  0  0  0  0  0  0  0
    1.9533   -1.0545    0.0000 H   0  0  0  0  0  0  0  0  0  0  0  0
    1.6714    0.3403    0.0000 H   0  0  0  0  0  0  0  0  0  0  0  0
    1.3636    1.2790    0.0000 H   0  0  0  0  0  0  0  0  0  0  0  0
    9.2107   -8.5198    0.0000 H   0  0  0  0  0  0  0  0  0  0  0  0
   10.8433   -8.4571    0.0000 H   0  0  0  0  0  0  0  0  0  0  0  0
   11.4038   -6.7629    0.0000 H   0  0  0  0  0  0  0  0  0  0  0  0
   12.5336   -7.2691    0.0000 H   0  0  0  0  0  0  0  0  0  0  0  0
   13.4209   -6.7644    0.0000 H   0  0  0  0  0  0  0  0  0  0  0  0
   16.5031   -6.5725    0.0000 H   0  0  0  0  0  0  0  0  0  0  0  0
   16.0002   -5.0180    0.0000 H   0  0  0  0  0  0  0  0  0  0  0  0
   14.2863   -9.0352    0.0000 H   0  0  0  0  0  0  0  0  0  0  0  0
   13.4223   -7.6485    0.0000 H   0  0  0  0  0  0  0  0  0  0  0  0
   17.5980   -8.9286    0.0000 H   0  0  0  0  0  0  0  0  0  0  0  0
   16.9462   -7.2675    0.0000 H   0  0  0  0  0  0  0  0  0  0  0  0
   14.6566  -10.6648    0.0000 H   0  0  0  0  0  0  0  0  0  0  0  0
   18.3395  -13.2507    0.0000 H   0  0  0  0  0  0  0  0  0  0  0  0
   15.7516  -13.0209    0.0000 H   0  0  0  0  0  0  0  0  0  0  0  0
   19.8324  -11.1244    0.0000 H   0  0  0  0  0  0  0  0  0  0  0  0
   18.7375   -8.7683    0.0000 H   0  0  0  0  0  0  0  0  0  0  0  0
   17.2244   -4.8330    0.0000 H   0  0  0  0  0  0  0  0  0  0  0  0
   17.6979   -3.9287    0.0000 H   0  0  0  0  0  0  0  0  0  0  0  0
   20.1871   -2.1009    0.0000 H   0  0  0  0  0  0  0  0  0  0  0  0
   18.9236   -1.0650    0.0000 H   0  0  0  0  0  0  0  0  0  0  0  0
   19.6536   -5.3711    0.0000 H   0  0  0  0  0  0  0  0  0  0  0  0
   18.1771   -4.6716    0.0000 H   0  0  0  0  0  0  0  0  0  0  0  0
   22.3820   -3.4910    0.0000 H   0  0  0  0  0  0  0  0  0  0  0  0
   20.9356   -2.4460    0.0000 H   0  0  0  0  0  0  0  0  0  0  0  0
   20.8462   -6.5418    0.0000 H   0  0  0  0  0  0  0  0  0  0  0  0
   25.3424   -6.7261    0.0000 H   0  0  0  0  0  0  0  0  0  0  0  0
   23.0411   -7.9319    0.0000 H   0  0  0  0  0  0  0  0  0  0  0  0
   25.4489   -4.1302    0.0000 H   0  0  0  0  0  0  0  0  0  0  0  0
   23.2540   -2.7401    0.0000 H   0  0  0  0  0  0  0  0  0  0  0  0
   19.8534   -0.2475    0.0000 H   0  0  0  0  0  0  0  0  0  0  0  0
   19.7629    0.7692    0.0000 H   0  0  0  0  0  0  0  0  0  0  0  0
   20.8688    3.6526    0.0000 H   0  0  0  0  0  0  0  0  0  0  0  0
   19.2458    3.8410    0.0000 H   0  0  0  0  0  0  0  0  0  0  0  0
   22.1880    0.6132    0.0000 H   0  0  0  0  0  0  0  0  0  0  0  0
   20.5677    0.4033    0.0000 H   0  0  0  0  0  0  0  0  0  0  0  0
   23.4668    3.6699    0.0000 H   0  0  0  0  0  0  0  0  0  0  0  0
   21.6850    3.7670    0.0000 H   0  0  0  0  0  0  0  0  0  0  0  0
   23.8242    0.2731    0.0000 H   0  0  0  0  0  0  0  0  0  0  0  0
   27.7063    2.5489    0.0000 H   0  0  0  0  0  0  0  0  0  0  0  0
   26.4222    0.2903    0.0000 H   0  0  0  0  0  0  0  0  0  0  0  0
   26.3924    4.7902    0.0000 H   0  0  0  0  0  0  0  0  0  0  0  0
   23.7943    4.7730    0.0000 H   0  0  0  0  0  0  0  0  0  0  0  0
   19.5861    5.0314    0.0000 H   0  0  0  0  0  0  0  0  0  0  0  0
   18.9602    5.8378    0.0000 H   0  0  0  0  0  0  0  0  0  0  0  0
   18.3316    8.8613    0.0000 H   0  0  0  0  0  0  0  0  0  0  0  0
   16.8645    8.1424    0.0000 H   0  0  0  0  0  0  0  0  0  0  0  0
   21.0847    7.0176    0.0000 H   0  0  0  0  0  0  0  0  0  0  0  0
   19.8351    5.9650    0.0000 H   0  0  0  0  0  0  0  0  0  0  0  0
   20.5079   10.2804    0.0000 H   0  0  0  0  0  0  0  0  0  0  0  0
   18.9565    9.3988    0.0000 H   0  0  0  0  0  0  0  0  0  0  0  0
   22.6450    7.6161    0.0000 H   0  0  0  0  0  0  0  0  0  0  0  0
   24.6805   11.6294    0.0000 H   0  0  0  0  0  0  0  0  0  0  0  0
   24.8213    9.0352    0.0000 H   0  0  0  0  0  0  0  0  0  0  0  0
   22.3633   12.8046    0.0000 H   0  0  0  0  0  0  0  0  0  0  0  0
   20.1871   11.3855    0.0000 H   0  0  0  0  0  0  0  0  0  0  0  0
   16.5072    9.3277    0.0000 H   0  0  0  0  0  0  0  0  0  0  0  0
   15.5446    9.6678    0.0000 H   0  0  0  0  0  0  0  0  0  0  0  0
   13.3812   11.8715    0.0000 H   0  0  0  0  0  0  0  0  0  0  0  0
   12.5356   10.4735    0.0000 H   0  0  0  0  0  0  0  0  0  0  0  0
   16.6940   11.8089    0.0000 H   0  0  0  0  0  0  0  0  0  0  0  0
   16.2119   10.2478    0.0000 H   0  0  0  0  0  0  0  0  0  0  0  0
   14.4448   14.2419    0.0000 H   0  0  0  0  0  0  0  0  0  0  0  0
   13.6163   12.6615    0.0000 H   0  0  0  0  0  0  0  0  0  0  0  0
   17.6831   13.1559    0.0000 H   0  0  0  0  0  0  0  0  0  0  0  0
   17.2256   17.6326    0.0000 H   0  0  0  0  0  0  0  0  0  0  0  0
   18.7467   15.5263    0.0000 H   0  0  0  0  0  0  0  0  0  0  0  0
   14.6410   17.3685    0.0000 H   0  0  0  0  0  0  0  0  0  0  0  0
   13.5774   14.9981    0.0000 H   0  0  0  0  0  0  0  0  0  0  0  0
   11.4127   11.3019    0.0000 H   0  0  0  0  0  0  0  0  0  0  0  0
   10.4398   11.1308    0.0000 H   0  0  0  0  0  0  0  0  0  0  0  0
    9.4173   12.3413    0.0000 H   0  0  0  0  0  0  0  0  0  0  0  0
    7.6942   11.8776    0.0000 H   0  0  0  0  0  0  0  0  0  0  0  0
    7.6337   10.0942    0.0000 H   0  0  0  0  0  0  0  0  0  0  0  0
    6.4071   10.2616    0.0000 H   0  0  0  0  0  0  0  0  0  0  0  0
    3.1668    7.1717    0.0000 H   0  0  0  0  0  0  0  0  0  0  0  0
    3.8456    8.2323    0.0000 H   0  0  0  0  0  0  0  0  0  0  0  0
    2.3140    5.8288    0.0000 H   0  0  0  0  0  0  0  0  0  0  0  0
    2.7785    6.8155    0.0000 H   0  0  0  0  0  0  0  0  0  0  0  0
    1.7629    3.9856    0.0000 H   0  0  0  0  0  0  0  0  0  0  0  0
    2.1145    5.3645    0.0000 H   0  0  0  0  0  0  0  0  0  0  0  0
    1.4084    3.0636    0.0000 H   0  0  0  0  0  0  0  0  0  0  0  0
    4.2078   10.2492    0.0000 H   0  0  0  0  0  0  0  0  0  0  0  0
    5.6550   11.0075    0.0000 H   0  0  0  0  0  0  0  0  0  0  0  0
    6.9843    9.8171    0.0000 H   0  0  0  0  0  0  0  0  0  0  0  0
  1  2  1  0
  2  3  1  0
  3  4  2  0
  4  5  1  0
  5  6  2  0
  6  7  1  0
  7  8  2  0
  7  9  1  0
  9 10  1  0
 10 11  1  0
 11 12  2  0
  9 13  1  0
 13 14  1  0
 14 15  2  0
 15 16  1  0
 16 17  2  0
 17 18  1  0
 16 19  1  0
 14 20  1  0
 20 21  1  0
 21 22  2  0
 22 23  1  0
 23 24  2  0
 24 25  1  0
 25 26  2  0
 25 27  1  0
  1 28  2  0
  1 29  1  0
 29 30  1  0
 30 31  1  0
 31 32  1  0
 32 33  2  0
 32 34  1  0
 34 35  1  0
 35 36  1  0
 36 37  1  0
 37 38  1  0
 38 39  1  0
 39 40  1  0
 40 41  2  3
 40 42  1  0
 35 43  1  0
 43 44  2  0
 43 45  1  0
 45 46  1  0
 46 47  1  0
 47 48  1  0
 48 49  1  0
 49 50  1  0
 50 51  1  0
 51 52  2  3
 51 53  1  0
 46 54  1  0
 54 55  2  0
 54 56  1  0
 56 57  1  0
 57 58  1  0
 58 59  2  0
 58 60  1  0
 60 61  1  0
 61 62  1  0
 62 63  1  0
 61 64  1  0
 64 65  2  0
 64 66  1  0
 66 67  1  0
 67 68  1  0
 68 69  1  0
 69 70  1  0
 70 71  1  0
 71 72  1  0
 72 73  2  3
 72 74  1  0
 67 75  1  0
 75 76  2  0
 75 77  1  0
 77 78  1  0
 78 79  1  0
 79 80  1  0
 80 81  1  0
 81 82  1  0
 82 83  2  0
 82 84  1  0
 84 85  1  0
 85 86  1  0
 86 87  1  0
 85 88  1  0
 88 89  2  0
 88 90  1  0
 90 91  1  0
 91 92  1  0
 92 93  2  0
 92 94  1  0
 94 95  1  0
 95 96  1  0
 95 97  1  0
 97 98  2  0
 97 99  1  0
100 99  1  6
100101  1  0
101102  1  0
102103  1  0
103104  1  0
104105  1  0
105106  1  0
106107  1  0
100108  1  0
100109  1  0
109110  2  0
109111  1  0
111112  1  0
112113  1  0
113114  1  0
114115  1  0
115116  1  0
116117  1  0
117118  2  3
117119  1  0
112120  1  0
120121  2  0
120122  1  0
122123  1  0
123124  1  0
124125  1  0
125126  1  0
126127  1  0
127128  1  0
128129  2  3
128130  1  0
123131  1  0
131132  2  0
131133  1  0
133134  1  0
134135  1  0
135136  1  0
136137  1  0
137138  1  0
138139  1  0
139140  2  3
139141  1  0
134142  1  0
142143  2  0
142144  1  0
144145  1  0
145146  1  0
146147  1  0
147148  1  0
148149  1  0
149150  1  0
150151  2  3
150152  1  0
145153  1  0
153154  2  0
153155  1  0
155156  1  0
156157  1  0
157158  1  0
158159  1  0
159160  1  0
160161  1  0
161162  2  3
161163  1  0
156164  1  0
164165  2  0
164166  1  0
166167  1  0
167168  1  0
167169  1  0
169170  2  0
169171  1  0
171172  1  0
172173  1  0
173174  1  0
174175  1  0
175176  1  0
172177  1  0
172178  1  1
178179  2  0
178180  1  0
  8  3  1  0
 81 77  1  0
 11  6  1  0
107176  2  0
 18 13  2  0
 22  9  1  0
 26 21  1  0
  2181  1  0
  4182  1  0
  5183  1  0
  8184  1  0
 15185  1  0
 17186  1  0
 18187  1  0
 19188  1  0
 23189  1  0
 24190  1  0
 26191  1  0
 27192  1  0
 29193  1  0
 30194  1  0
 30195  1  0
 31196  1  0
 31197  1  0
 34198  1  0
 35199  1  1
 36200  1  0
 36201  1  0
 37202  1  0
 37203  1  0
 38204  1  0
 38205  1  0
 39206  1  0
 41207  1  0
 41208  1  0
 42209  1  0
 42210  1  0
 45211  1  0
 46212  1  6
 47213  1  0
 47214  1  0
 48215  1  0
 48216  1  0
 49217  1  0
 49218  1  0
 50219  1  0
 52220  1  0
 52221  1  0
 53222  1  0
 53223  1  0
 56224  1  0
 57225  1  0
 57226  1  0
 60227  1  0
 61228  1  1
 62229  1  0
 62230  1  0
 63231  1  0
 66232  1  0
 67233  1  1
 68234  1  0
 68235  1  0
 69236  1  0
 69237  1  0
 70238  1  0
 70239  1  0
 71240  1  0
 73241  1  0
 73242  1  0
 74243  1  0
 74244  1  0
 78245  1  0
 78246  1  0
 79247  1  0
 79248  1  0
 80249  1  0
 80250  1  0
 81251  1  0
 84252  1  0
 85253  1  6
 86254  1  0
 86255  1  0
 87256  1  0
 90257  1  0
 91258  1  0
 91259  1  0
 94260  1  0
 95261  1  1
 96262  1  0
 96263  1  0
 96264  1  0
 99265  1  0
101266  1  0
101267  1  0
102268  1  0
102269  1  0
103270  1  0
103271  1  0
104272  1  0
104273  1  0
105274  1  0
105275  1  0
106276  1  0
106277  1  0
107278  1  0
108279  1  0
108280  1  0
108281  1  0
111282  1  0
112283  1  6
113284  1  0
113285  1  0
114286  1  0
114287  1  0
115288  1  0
115289  1  0
116290  1  0
118291  1  0
118292  1  0
119293  1  0
119294  1  0
122295  1  0
123296  1  6
124297  1  0
124298  1  0
125299  1  0
125300  1  0
126301  1  0
126302  1  0
127303  1  0
129304  1  0
129305  1  0
130306  1  0
130307  1  0
133308  1  0
134309  1  6
135310  1  0
135311  1  0
136312  1  0
136313  1  0
137314  1  0
137315  1  0
138316  1  0
140317  1  0
140318  1  0
141319  1  0
141320  1  0
144321  1  0
145322  1  6
146323  1  0
146324  1  0
147325  1  0
147326  1  0
148327  1  0
148328  1  0
149329  1  0
151330  1  0
151331  1  0
152332  1  0
152333  1  0
155334  1  0
156335  1  6
157336  1  0
157337  1  0
158338  1  0
158339  1  0
159340  1  0
159341  1  0
160342  1  0
162343  1  0
162344  1  0
163345  1  0
163346  1  0
166347  1  0
167348  1  6
168349  1  0
168350  1  0
168351  1  0
171352  1  0
173353  1  0
173354  1  0
174355  1  0
174356  1  0
175357  1  0
175358  1  0
176359  1  0
177360  1  0
177361  1  0
177362  1  0
M  CHG  8  41   1  52   1  73   1 118   1 129   1 140   1 151   1 162   1
M  CHG  1 180  -1
M  END
