
     RDKit          2D

340347  0  0  0  0  0  0  0  0999 V2000
  -17.0014   -3.1272    0.0000 C   0  0  0  0  0  0  0  0  0  0  0  0
  -17.3120   -4.5947    0.0000 N   0  0  0  0  0  0  0  0  0  0  0  0
  -18.7381   -5.0594    0.0000 C   0  0  0  0  0  0  0  0  0  0  0  0
  -19.8537   -4.0567    0.0000 C   0  0  0  0  0  0  0  0  0  0  0  0
  -21.2799   -4.5215    0.0000 C   0  0  0  0  0  0  0  0  0  0  0  0
  -21.5905   -5.9890    0.0000 C   0  0  0  0  0  0  0  0  0  0  0  0
  -20.4749   -6.9917    0.0000 C   0  0  0  0  0  0  0  0  0  0  0  0
  -19.0487   -6.5269    0.0000 C   0  0  0  0  0  0  0  0  0  0  0  0
  -21.0838   -8.3625    0.0000 C   0  0  0  0  0  0  0  0  0  0  0  0
  -22.5757   -8.2070    0.0000 O   0  0  0  0  0  0  0  0  0  0  0  0
  -22.8889   -6.7401    0.0000 C   0  0  0  0  0  0  0  0  0  0  0  0
  -24.2597   -6.1312    0.0000 O   0  0  0  0  0  0  0  0  0  0  0  0
  -21.8327   -9.6622    0.0000 C   0  0  0  0  0  0  0  0  0  0  0  0
  -21.0816  -10.9606    0.0000 C   0  0  0  0  0  0  0  0  0  0  0  0
  -21.8304  -12.2603    0.0000 C   0  0  0  0  0  0  0  0  0  0  0  0
  -23.3304  -12.2616    0.0000 C   0  0  0  0  0  0  0  0  0  0  0  0
  -24.0816  -10.9632    0.0000 C   0  0  0  0  0  0  0  0  0  0  0  0
  -23.3327   -9.6635    0.0000 C   0  0  0  0  0  0  0  0  0  0  0  0
  -24.0793  -13.5613    0.0000 O   0  0  0  0  0  0  0  0  0  0  0  0
  -19.5816  -10.9593    0.0000 O   0  0  0  0  0  0  0  0  0  0  0  0
  -18.8327   -9.6596    0.0000 C   0  0  0  0  0  0  0  0  0  0  0  0
  -19.5838   -8.3612    0.0000 C   0  0  0  0  0  0  0  0  0  0  0  0
  -18.4844   -7.6674    0.0000 C   0  0  0  0  0  0  0  0  0  0  0  0
  -17.6844   -7.6668    0.0000 C   0  0  0  0  0  0  0  0  0  0  0  0
  -17.2838   -8.3592    0.0000 C   0  0  0  0  0  0  0  0  0  0  0  0
  -17.6832   -9.0524    0.0000 C   0  0  0  0  0  0  0  0  0  0  0  0
  -15.0838   -8.3573    0.0000 O   0  0  0  0  0  0  0  0  0  0  0  0
  -18.2309   -2.2679    0.0000 S   0  0  0  0  0  0  0  0  0  0  0  0
  -15.5752   -2.6624    0.0000 N   0  0  0  0  0  0  0  0  0  0  0  0
  -15.2646   -1.1949    0.0000 C   0  0  0  0  0  0  0  0  0  0  0  0
  -13.8384   -0.7301    0.0000 C   0  0  0  0  0  0  0  0  0  0  0  0
  -13.5278    0.7373    0.0000 C   0  0  0  0  0  0  0  0  0  0  0  0
  -14.2320    1.1109    0.0000 O   0  0  0  0  0  0  0  0  0  0  0  0
  -12.1016    1.2021    0.0000 N   0  0  0  0  0  0  0  0  0  0  0  0
  -11.7910    2.6696    0.0000 C   0  0  0  0  0  0  0  0  0  0  0  0
  -13.2902    2.7206    0.0000 C   0  0  0  0  0  0  0  0  0  0  0  0
  -14.0839    1.4479    0.0000 C   0  0  0  0  0  0  0  0  0  0  0  0
  -15.5831    1.4989    0.0000 C   0  0  0  0  0  0  0  0  0  0  0  0
  -16.3768    0.2262    0.0000 N   0  0  0  0  0  0  0  0  0  0  0  0
  -17.8760    0.2772    0.0000 C   0  0  0  0  0  0  0  0  0  0  0  0
  -18.6697   -0.9955    0.0000 N   0  0  0  0  0  0  0  0  0  0  0  0
  -18.5813    1.6010    0.0000 N   0  0  0  0  0  0  0  0  0  0  0  0
  -10.9973    3.9424    0.0000 C   0  0  0  0  0  0  0  0  0  0  0  0
  -12.0020    5.0562    0.0000 O   0  0  0  0  0  0  0  0  0  0  0  0
   -9.4981    3.8913    0.0000 N   0  0  0  0  0  0  0  0  0  0  0  0
   -8.7044    5.1641    0.0000 C   0  0  0  0  0  0  0  0  0  0  0  0
  -10.0956    5.7248    0.0000 C   0  0  0  0  0  0  0  0  0  0  0  0
  -11.2768    4.8003    0.0000 C   0  0  0  0  0  0  0  0  0  0  0  0
  -12.6681    5.3610    0.0000 C   0  0  0  0  0  0  0  0  0  0  0  0
  -13.8493    4.4364    0.0000 N   0  0  0  0  0  0  0  0  0  0  0  0
  -15.2406    4.9971    0.0000 C   0  0  0  0  0  0  0  0  0  0  0  0
  -16.4218    4.0726    0.0000 N   0  0  0  0  0  0  0  0  0  0  0  0
  -15.4506    6.4824    0.0000 N   0  0  0  0  0  0  0  0  0  0  0  0
   -7.5231    6.0886    0.0000 C   0  0  0  0  0  0  0  0  0  0  0  0
   -8.0863    7.4789    0.0000 O   0  0  0  0  0  0  0  0  0  0  0  0
   -6.1319    5.5279    0.0000 N   0  0  0  0  0  0  0  0  0  0  0  0
   -4.9507    6.4524    0.0000 C   0  0  0  0  0  0  0  0  0  0  0  0
   -6.0663    7.4551    0.0000 C   0  0  0  0  0  0  0  0  0  0  0  0
   -7.4924    6.9904    0.0000 C   0  0  0  0  0  0  0  0  0  0  0  0
   -8.6080    7.9931    0.0000 C   0  0  0  0  0  0  0  0  0  0  0  0
  -10.0342    7.5283    0.0000 N   0  0  0  0  0  0  0  0  0  0  0  0
  -11.1498    8.5311    0.0000 C   0  0  0  0  0  0  0  0  0  0  0  0
  -12.5760    8.0663    0.0000 N   0  0  0  0  0  0  0  0  0  0  0  0
  -10.8392    9.9986    0.0000 N   0  0  0  0  0  0  0  0  0  0  0  0
   -3.5245    6.9172    0.0000 C   0  0  0  0  0  0  0  0  0  0  0  0
   -3.5782    8.4162    0.0000 O   0  0  0  0  0  0  0  0  0  0  0  0
   -2.4089    5.9144    0.0000 N   0  0  0  0  0  0  0  0  0  0  0  0
   -0.9827    6.3792    0.0000 C   0  0  0  0  0  0  0  0  0  0  0  0
   -1.6881    7.7030    0.0000 C   0  0  0  0  0  0  0  0  0  0  0  0
   -3.1872    7.7541    0.0000 C   0  0  0  0  0  0  0  0  0  0  0  0
   -3.8926    9.0779    0.0000 C   0  0  0  0  0  0  0  0  0  0  0  0
   -5.3917    9.1289    0.0000 N   0  0  0  0  0  0  0  0  0  0  0  0
   -6.0970   10.4527    0.0000 C   0  0  0  0  0  0  0  0  0  0  0  0
   -7.5962   10.5038    0.0000 N   0  0  0  0  0  0  0  0  0  0  0  0
   -5.3033   11.7255    0.0000 N   0  0  0  0  0  0  0  0  0  0  0  0
    0.5164    6.3282    0.0000 C   0  0  0  0  0  0  0  0  0  0  0  0
    1.1491    7.6882    0.0000 O   0  0  0  0  0  0  0  0  0  0  0  0
    1.2218    5.0044    0.0000 N   0  0  0  0  0  0  0  0  0  0  0  0
    2.7209    4.9533    0.0000 C   0  0  0  0  0  0  0  0  0  0  0  0
    3.7412    6.0528    0.0000 C   0  0  0  0  0  0  0  0  0  0  0  0
    5.0300    6.8204    0.0000 C   0  0  0  0  0  0  0  0  0  0  0  0
    6.4827    7.1938    0.0000 C   0  0  0  0  0  0  0  0  0  0  0  0
    7.9819    7.1427    0.0000 C   0  0  0  0  0  0  0  0  0  0  0  0
    1.9801    6.2576    0.0000 C   0  0  0  0  0  0  0  0  0  0  0  0
    2.0517    3.6109    0.0000 C   0  0  0  0  0  0  0  0  0  0  0  0
    0.5809    3.9051    0.0000 O   0  0  0  0  0  0  0  0  0  0  0  0
    1.7878    2.1342    0.0000 N   0  0  0  0  0  0  0  0  0  0  0  0
    1.9507    0.6431    0.0000 C   0  0  0  0  0  0  0  0  0  0  0  0
    0.5266    1.1144    0.0000 C   0  0  0  0  0  0  0  0  0  0  0  0
   -0.5936    0.1169    0.0000 C   0  0  0  0  0  0  0  0  0  0  0  0
   -2.0176    0.5882    0.0000 C   0  0  0  0  0  0  0  0  0  0  0  0
   -3.1378   -0.4094    0.0000 N   0  0  0  0  0  0  0  0  0  0  0  0
   -4.5618    0.0620    0.0000 C   0  0  0  0  0  0  0  0  0  0  0  0
   -5.6820   -0.9356    0.0000 N   0  0  0  0  0  0  0  0  0  0  0  0
   -4.8656    1.5309    0.0000 N   0  0  0  0  0  0  0  0  0  0  0  0
    2.5270   -0.7418    0.0000 C   0  0  0  0  0  0  0  0  0  0  0  0
    1.2382   -1.5093    0.0000 O   0  0  0  0  0  0  0  0  0  0  0  0
    3.4701   -1.9081    0.0000 N   0  0  0  0  0  0  0  0  0  0  0  0
    4.7037   -2.7616    0.0000 C   0  0  0  0  0  0  0  0  0  0  0  0
    3.4149   -3.5291    0.0000 C   0  0  0  0  0  0  0  0  0  0  0  0
    3.4353   -5.0290    0.0000 C   0  0  0  0  0  0  0  0  0  0  0  0
    2.1465   -5.7965    0.0000 C   0  0  0  0  0  0  0  0  0  0  0  0
    2.1669   -7.2964    0.0000 N   0  0  0  0  0  0  0  0  0  0  0  0
    0.8781   -8.0640    0.0000 C   0  0  0  0  0  0  0  0  0  0  0  0
    0.8985   -9.5638    0.0000 N   0  0  0  0  0  0  0  0  0  0  0  0
   -0.4310   -7.3316    0.0000 N   0  0  0  0  0  0  0  0  0  0  0  0
    6.1277   -3.2329    0.0000 C   0  0  0  0  0  0  0  0  0  0  0  0
    5.8638   -4.7095    0.0000 O   0  0  0  0  0  0  0  0  0  0  0  0
    7.6268   -3.2840    0.0000 N   0  0  0  0  0  0  0  0  0  0  0  0
    9.0796   -2.9106    0.0000 C   0  0  0  0  0  0  0  0  0  0  0  0
    8.8157   -4.3872    0.0000 C   0  0  0  0  0  0  0  0  0  0  0  0
    9.9626   -5.3540    0.0000 C   0  0  0  0  0  0  0  0  0  0  0  0
    9.6987   -6.8306    0.0000 C   0  0  0  0  0  0  0  0  0  0  0  0
   10.8456   -7.7975    0.0000 N   0  0  0  0  0  0  0  0  0  0  0  0
   10.5817   -9.2741    0.0000 C   0  0  0  0  0  0  0  0  0  0  0  0
   11.7285  -10.2409    0.0000 N   0  0  0  0  0  0  0  0  0  0  0  0
    9.2436   -9.9520    0.0000 N   0  0  0  0  0  0  0  0  0  0  0  0
   10.3684   -2.1430    0.0000 C   0  0  0  0  0  0  0  0  0  0  0  0
   11.3115   -3.3094    0.0000 O   0  0  0  0  0  0  0  0  0  0  0  0
   11.3887   -1.0435    0.0000 N   0  0  0  0  0  0  0  0  0  0  0  0
   11.5028    1.6326    0.0000 C   0  0  0  0  0  0  0  0  0  0  0  0
   11.7666    3.1093    0.0000 C   0  0  0  0  0  0  0  0  0  0  0  0
   12.4737    4.4321    0.0000 C   0  0  0  0  0  0  0  0  0  0  0  0
   10.9771    4.3308    0.0000 C   0  0  0  0  0  0  0  0  0  0  0  0
    9.7656    5.2151    0.0000 N   0  0  0  0  0  0  0  0  0  0  0  0
    9.4059    6.6714    0.0000 C   0  0  0  0  0  0  0  0  0  0  0  0
   10.0664    8.0181    0.0000 C   0  0  0  0  0  0  0  0  0  0  0  0
   11.4381    8.6252    0.0000 C   0  0  0  0  0  0  0  0  0  0  0  0
   12.8791    8.2086    0.0000 C   0  0  0  0  0  0  0  0  0  0  0  0
   13.7151    6.9631    0.0000 C   0  0  0  0  0  0  0  0  0  0  0  0
   13.5550    5.4717    0.0000 C   0  0  0  0  0  0  0  0  0  0  0  0
   11.7083    0.1468    0.0000 C   0  0  0  0  0  0  0  0  0  0  0  0
   10.2729   -0.2886    0.0000 O   0  0  0  0  0  0  0  0  0  0  0  0
   12.3629   -1.2029    0.0000 N   0  0  0  0  0  0  0  0  0  0  0  0
   13.4025   -2.2842    0.0000 C   0  0  0  0  0  0  0  0  0  0  0  0
   11.9918   -2.7941    0.0000 C   0  0  0  0  0  0  0  0  0  0  0  0
   11.7281   -4.2707    0.0000 C   0  0  0  0  0  0  0  0  0  0  0  0
   10.3174   -4.7807    0.0000 C   0  0  0  0  0  0  0  0  0  0  0  0
   10.0537   -6.2573    0.0000 N   0  0  0  0  0  0  0  0  0  0  0  0
    8.6430   -6.7672    0.0000 C   0  0  0  0  0  0  0  0  0  0  0  0
    8.0298   -8.1361    0.0000 N   0  0  0  0  0  0  0  0  0  0  0  0
    7.3868   -5.9475    0.0000 N   0  0  0  0  0  0  0  0  0  0  0  0
   14.7254   -2.9913    0.0000 C   0  0  0  0  0  0  0  0  0  0  0  0
   14.2339   -4.4085    0.0000 O   0  0  0  0  0  0  0  0  0  0  0  0
   16.2020   -3.2551    0.0000 N   0  0  0  0  0  0  0  0  0  0  0  0
   17.6878   -3.0496    0.0000 C   0  0  0  0  0  0  0  0  0  0  0  0
   17.2712   -4.4906    0.0000 C   0  0  0  0  0  0  0  0  0  0  0  0
   18.3108   -5.5719    0.0000 C   0  0  0  0  0  0  0  0  0  0  0  0
   17.8942   -7.0128    0.0000 C   0  0  0  0  0  0  0  0  0  0  0  0
   18.9338   -8.0942    0.0000 N   0  0  0  0  0  0  0  0  0  0  0  0
   18.5171   -9.5351    0.0000 C   0  0  0  0  0  0  0  0  0  0  0  0
   19.5567  -10.6164    0.0000 N   0  0  0  0  0  0  0  0  0  0  0  0
   17.0609   -9.8948    0.0000 N   0  0  0  0  0  0  0  0  0  0  0  0
   19.0375   -2.3950    0.0000 C   0  0  0  0  0  0  0  0  0  0  0  0
   19.8951   -3.6256    0.0000 O   0  0  0  0  0  0  0  0  0  0  0  0
   20.1188   -1.3554    0.0000 N   0  0  0  0  0  0  0  0  0  0  0  0
   20.8259   -0.0325    0.0000 C   0  0  0  0  0  0  0  0  0  0  0  0
   21.0897    1.4441    0.0000 C   0  0  0  0  0  0  0  0  0  0  0  0
   20.8842    2.9299    0.0000 C   0  0  0  0  0  0  0  0  0  0  0  0
   20.2296    4.2796    0.0000 C   0  0  0  0  0  0  0  0  0  0  0  0
   19.1900    5.3609    0.0000 C   0  0  0  0  0  0  0  0  0  0  0  0
   17.8672    6.0680    0.0000 C   0  0  0  0  0  0  0  0  0  0  0  0
   16.3905    6.3318    0.0000 C   0  0  0  0  0  0  0  0  0  0  0  0
   14.9047    6.1263    0.0000 C   0  0  0  0  0  0  0  0  0  0  0  0
   22.3152    0.1469    0.0000 C   0  0  0  0  0  0  0  0  0  0  0  0
   21.7468   -1.2166    0.0000 C   0  0  0  0  0  0  0  0  0  0  0  0
   23.2466   -1.1938    0.0000 O   0  0  0  0  0  0  0  0  0  0  0  0
   21.3554   -2.6646    0.0000 O   0  0  0  0  0  0  0  0  0  0  0  0
  -16.0825   -5.4539    0.0000 H   0  0  0  0  0  0  0  0  0  0  0  0
  -19.5431   -2.5892    0.0000 H   0  0  0  0  0  0  0  0  0  0  0  0
  -22.3955   -3.5187    0.0000 H   0  0  0  0  0  0  0  0  0  0  0  0
  -17.7237   -7.2299    0.0000 H   0  0  0  0  0  0  0  0  0  0  0  0
  -21.0793  -13.5587    0.0000 H   0  0  0  0  0  0  0  0  0  0  0  0
  -25.5816  -10.9645    0.0000 H   0  0  0  0  0  0  0  0  0  0  0  0
  -24.0838   -8.3651    0.0000 H   0  0  0  0  0  0  0  0  0  0  0  0
  -25.5793  -13.5626    0.0000 H   0  0  0  0  0  0  0  0  0  0  0  0
  -19.5861   -5.7631    0.0000 H   0  0  0  0  0  0  0  0  0  0  0  0
  -16.4332   -5.8615    0.0000 H   0  0  0  0  0  0  0  0  0  0  0  0
  -16.5816  -10.9567    0.0000 H   0  0  0  0  0  0  0  0  0  0  0  0
  -14.3327   -9.6557    0.0000 H   0  0  0  0  0  0  0  0  0  0  0  0
  -14.4596   -3.6651    0.0000 H   0  0  0  0  0  0  0  0  0  0  0  0
  -16.7637   -1.1439    0.0000 H   0  0  0  0  0  0  0  0  0  0  0  0
  -15.8278    0.1953    0.0000 H   0  0  0  0  0  0  0  0  0  0  0  0
  -13.6284   -2.2154    0.0000 H   0  0  0  0  0  0  0  0  0  0  0  0
  -12.3393   -0.7812    0.0000 H   0  0  0  0  0  0  0  0  0  0  0  0
  -10.9860    0.1994    0.0000 H   0  0  0  0  0  0  0  0  0  0  0  0
  -10.3998    2.1089    0.0000 H   0  0  0  0  0  0  0  0  0  0  0  0
  -14.6027    3.4468    0.0000 H   0  0  0  0  0  0  0  0  0  0  0  0
  -13.3439    4.2197    0.0000 H   0  0  0  0  0  0  0  0  0  0  0  0
  -14.3945   -0.0196    0.0000 H   0  0  0  0  0  0  0  0  0  0  0  0
  -12.8697    0.5672    0.0000 H   0  0  0  0  0  0  0  0  0  0  0  0
  -16.9743    2.0596    0.0000 H   0  0  0  0  0  0  0  0  0  0  0  0
  -15.4537    2.9933    0.0000 H   0  0  0  0  0  0  0  0  0  0  0  0
  -16.0128   -1.2290    0.0000 H   0  0  0  0  0  0  0  0  0  0  0  0
  -20.1689   -0.9445    0.0000 H   0  0  0  0  0  0  0  0  0  0  0  0
  -18.1310   -2.3955    0.0000 H   0  0  0  0  0  0  0  0  0  0  0  0
  -20.0805    1.6521    0.0000 H   0  0  0  0  0  0  0  0  0  0  0  0
  -17.7876    2.8738    0.0000 H   0  0  0  0  0  0  0  0  0  0  0  0
   -8.7928    2.5675    0.0000 H   0  0  0  0  0  0  0  0  0  0  0  0
   -7.5888    4.1613    0.0000 H   0  0  0  0  0  0  0  0  0  0  0  0
  -11.0807    6.8560    0.0000 H   0  0  0  0  0  0  0  0  0  0  0  0
   -9.6334    7.1518    0.0000 H   0  0  0  0  0  0  0  0  0  0  0  0
  -12.0706    3.5275    0.0000 H   0  0  0  0  0  0  0  0  0  0  0  0
  -10.4370    3.5574    0.0000 H   0  0  0  0  0  0  0  0  0  0  0  0
  -13.7837    6.3637    0.0000 H   0  0  0  0  0  0  0  0  0  0  0  0
  -12.0354    6.7210    0.0000 H   0  0  0  0  0  0  0  0  0  0  0  0
  -14.0049    2.9445    0.0000 H   0  0  0  0  0  0  0  0  0  0  0  0
  -17.8130    4.6333    0.0000 H   0  0  0  0  0  0  0  0  0  0  0  0
  -16.2117    2.5874    0.0000 H   0  0  0  0  0  0  0  0  0  0  0  0
  -16.8419    7.0431    0.0000 H   0  0  0  0  0  0  0  0  0  0  0  0
  -14.2694    7.4069    0.0000 H   0  0  0  0  0  0  0  0  0  0  0  0
   -5.9218    4.0427    0.0000 H   0  0  0  0  0  0  0  0  0  0  0  0
   -4.2453    5.1286    0.0000 H   0  0  0  0  0  0  0  0  0  0  0  0
   -6.6050    8.8551    0.0000 H   0  0  0  0  0  0  0  0  0  0  0  0
   -5.1438    8.6380    0.0000 H   0  0  0  0  0  0  0  0  0  0  0  0
   -8.6736    6.0659    0.0000 H   0  0  0  0  0  0  0  0  0  0  0  0
   -7.1284    5.5352    0.0000 H   0  0  0  0  0  0  0  0  0  0  0  0
   -9.3134    9.3169    0.0000 H   0  0  0  0  0  0  0  0  0  0  0  0
   -7.5483    9.0547    0.0000 H   0  0  0  0  0  0  0  0  0  0  0  0
  -10.6907    6.1796    0.0000 H   0  0  0  0  0  0  0  0  0  0  0  0
  -13.6916    9.0690    0.0000 H   0  0  0  0  0  0  0  0  0  0  0  0
  -12.8866    6.5988    0.0000 H   0  0  0  0  0  0  0  0  0  0  0  0
  -11.9548   11.0013    0.0000 H   0  0  0  0  0  0  0  0  0  0  0  0
   -9.4130   10.4633    0.0000 H   0  0  0  0  0  0  0  0  0  0  0  0
   -2.7195    4.4470    0.0000 H   0  0  0  0  0  0  0  0  0  0  0  0
   -0.7727    4.8940    0.0000 H   0  0  0  0  0  0  0  0  0  0  0  0
   -1.7155    9.2028    0.0000 H   0  0  0  0  0  0  0  0  0  0  0  0
   -0.2619    8.1678    0.0000 H   0  0  0  0  0  0  0  0  0  0  0  0
   -4.6134    7.2893    0.0000 H   0  0  0  0  0  0  0  0  0  0  0  0
   -3.3428    6.2622    0.0000 H   0  0  0  0  0  0  0  0  0  0  0  0
   -4.1026   10.5631    0.0000 H   0  0  0  0  0  0  0  0  0  0  0  0
   -2.5337    9.7130    0.0000 H   0  0  0  0  0  0  0  0  0  0  0  0
   -6.4698    8.0861    0.0000 H   0  0  0  0  0  0  0  0  0  0  0  0
   -8.3015   11.8276    0.0000 H   0  0  0  0  0  0  0  0  0  0  0  0
   -8.3899    9.2310    0.0000 H   0  0  0  0  0  0  0  0  0  0  0  0
   -6.0086   13.0493    0.0000 H   0  0  0  0  0  0  0  0  0  0  0  0
   -3.8041   11.6744    0.0000 H   0  0  0  0  0  0  0  0  0  0  0  0
    0.2788    3.8378    0.0000 H   0  0  0  0  0  0  0  0  0  0  0  0
    3.5784    7.5440    0.0000 H   0  0  0  0  0  0  0  0  0  0  0  0
    2.3853    6.6942    0.0000 H   0  0  0  0  0  0  0  0  0  0  0  0
    5.1119    8.3182    0.0000 H   0  0  0  0  0  0  0  0  0  0  0  0
    3.9096    7.8178    0.0000 H   0  0  0  0  0  0  0  0  0  0  0  0
    7.1519    8.5362    0.0000 H   0  0  0  0  0  0  0  0  0  0  0  0
    5.6888    8.4664    0.0000 H   0  0  0  0  0  0  0  0  0  0  0  0
    8.2458    8.6193    0.0000 H   0  0  0  0  0  0  0  0  0  0  0  0
    0.7627    6.8435    0.0000 H   0  0  0  0  0  0  0  0  0  0  0  0
    2.2684    7.8131    0.0000 H   0  0  0  0  0  0  0  0  0  0  0  0
    3.3542    7.2219    0.0000 H   0  0  0  0  0  0  0  0  0  0  0  0
    0.2887    2.1853    0.0000 H   0  0  0  0  0  0  0  0  0  0  0  0
    1.0720   -0.5726    0.0000 H   0  0  0  0  0  0  0  0  0  0  0  0
   -0.5282    2.1809    0.0000 H   0  0  0  0  0  0  0  0  0  0  0  0
    0.8974    2.5679    0.0000 H   0  0  0  0  0  0  0  0  0  0  0  0
   -1.3050   -1.2037    0.0000 H   0  0  0  0  0  0  0  0  0  0  0  0
    0.4612   -0.9496    0.0000 H   0  0  0  0  0  0  0  0  0  0  0  0
   -3.1945    1.5182    0.0000 H   0  0  0  0  0  0  0  0  0  0  0  0
   -1.4724    1.9856    0.0000 H   0  0  0  0  0  0  0  0  0  0  0  0
   -2.8340   -1.8783    0.0000 H   0  0  0  0  0  0  0  0  0  0  0  0
   -7.1060   -0.4643    0.0000 H   0  0  0  0  0  0  0  0  0  0  0  0
   -5.3782   -2.4045    0.0000 H   0  0  0  0  0  0  0  0  0  0  0  0
   -6.2897    2.0022    0.0000 H   0  0  0  0  0  0  0  0  0  0  0  0
   -3.7454    2.5284    0.0000 H   0  0  0  0  0  0  0  0  0  0  0  0
    2.4498   -3.0077    0.0000 H   0  0  0  0  0  0  0  0  0  0  0  0
    5.0470   -4.2218    0.0000 H   0  0  0  0  0  0  0  0  0  0  0  0
    1.9182   -3.6279    0.0000 H   0  0  0  0  0  0  0  0  0  0  0  0
    2.5593   -2.2971    0.0000 H   0  0  0  0  0  0  0  0  0  0  0  0
    3.9674   -6.4314    0.0000 H   0  0  0  0  0  0  0  0  0  0  0  0
    4.9320   -4.9302    0.0000 H   0  0  0  0  0  0  0  0  0  0  0  0
    0.6730   -6.0770    0.0000 H   0  0  0  0  0  0  0  0  0  0  0  0
    1.4474   -4.4694    0.0000 H   0  0  0  0  0  0  0  0  0  0  0  0
    3.4760   -8.0287    0.0000 H   0  0  0  0  0  0  0  0  0  0  0  0
   -0.3903  -10.3314    0.0000 H   0  0  0  0  0  0  0  0  0  0  0  0
    2.2075  -10.2961    0.0000 H   0  0  0  0  0  0  0  0  0  0  0  0
   -1.7197   -8.0992    0.0000 H   0  0  0  0  0  0  0  0  0  0  0  0
   -0.4513   -5.8318    0.0000 H   0  0  0  0  0  0  0  0  0  0  0  0
    7.9702   -4.7441    0.0000 H   0  0  0  0  0  0  0  0  0  0  0  0
   10.4830   -3.4402    0.0000 H   0  0  0  0  0  0  0  0  0  0  0  0
    7.7712   -5.4637    0.0000 H   0  0  0  0  0  0  0  0  0  0  0  0
    7.3550   -4.0464    0.0000 H   0  0  0  0  0  0  0  0  0  0  0  0
   11.2975   -6.0381    0.0000 H   0  0  0  0  0  0  0  0  0  0  0  0
   10.8681   -4.1582    0.0000 H   0  0  0  0  0  0  0  0  0  0  0  0
    9.1095   -8.2101    0.0000 H   0  0  0  0  0  0  0  0  0  0  0  0
    8.1989   -6.8535    0.0000 H   0  0  0  0  0  0  0  0  0  0  0  0
   12.2563   -7.2877    0.0000 H   0  0  0  0  0  0  0  0  0  0  0  0
   11.4646  -11.7175    0.0000 H   0  0  0  0  0  0  0  0  0  0  0  0
   13.1392   -9.7311    0.0000 H   0  0  0  0  0  0  0  0  0  0  0  0
    8.9071  -11.2605    0.0000 H   0  0  0  0  0  0  0  0  0  0  0  0
    7.9148   -8.9640    0.0000 H   0  0  0  0  0  0  0  0  0  0  0  0
   12.3791   -2.1701    0.0000 H   0  0  0  0  0  0  0  0  0  0  0  0
   10.0031    1.6621    0.0000 H   0  0  0  0  0  0  0  0  0  0  0  0
   10.5866    4.0353    0.0000 H   0  0  0  0  0  0  0  0  0  0  0  0
   10.3650    2.5748    0.0000 H   0  0  0  0  0  0  0  0  0  0  0  0
   10.3880    2.9513    0.0000 H   0  0  0  0  0  0  0  0  0  0  0  0
    8.5202    4.3791    0.0000 H   0  0  0  0  0  0  0  0  0  0  0  0
    9.0268    9.0994    0.0000 H   0  0  0  0  0  0  0  0  0  0  0  0
   11.3368   10.1218    0.0000 H   0  0  0  0  0  0  0  0  0  0  0  0
   13.7634    9.4201    0.0000 H   0  0  0  0  0  0  0  0  0  0  0  0
   15.0410    7.6645    0.0000 H   0  0  0  0  0  0  0  0  0  0  0  0
   11.3764   -2.3328    0.0000 H   0  0  0  0  0  0  0  0  0  0  0  0
   13.4777   -3.7823    0.0000 H   0  0  0  0  0  0  0  0  0  0  0  0
   10.5026   -2.9737    0.0000 H   0  0  0  0  0  0  0  0  0  0  0  0
   11.0708   -1.6101    0.0000 H   0  0  0  0  0  0  0  0  0  0  0  0
   12.1635   -5.7061    0.0000 H   0  0  0  0  0  0  0  0  0  0  0  0
   13.2165   -4.4569    0.0000 H   0  0  0  0  0  0  0  0  0  0  0  0
    8.8612   -5.1404    0.0000 H   0  0  0  0  0  0  0  0  0  0  0  0
   10.0602   -3.3029    0.0000 H   0  0  0  0  0  0  0  0  0  0  0  0
   11.4004   -6.9177    0.0000 H   0  0  0  0  0  0  0  0  0  0  0  0
    6.9686   -8.7537    0.0000 H   0  0  0  0  0  0  0  0  0  0  0  0
    9.3841   -9.3849    0.0000 H   0  0  0  0  0  0  0  0  0  0  0  0
    6.0854   -6.3104    0.0000 H   0  0  0  0  0  0  0  0  0  0  0  0
    7.7598   -4.3238    0.0000 H   0  0  0  0  0  0  0  0  0  0  0  0
   16.1725   -4.7548    0.0000 H   0  0  0  0  0  0  0  0  0  0  0  0
   18.9441   -3.8693    0.0000 H   0  0  0  0  0  0  0  0  0  0  0  0
   16.2458   -5.5853    0.0000 H   0  0  0  0  0  0  0  0  0  0  0  0
   15.8047   -4.1755    0.0000 H   0  0  0  0  0  0  0  0  0  0  0  0
   19.6575   -6.2324    0.0000 H   0  0  0  0  0  0  0  0  0  0  0  0
   19.3363   -4.4771    0.0000 H   0  0  0  0  0  0  0  0  0  0  0  0
   17.0098   -8.2244    0.0000 H   0  0  0  0  0  0  0  0  0  0  0  0
   16.4770   -6.5214    0.0000 H   0  0  0  0  0  0  0  0  0  0  0  0
   20.3900   -7.7345    0.0000 H   0  0  0  0  0  0  0  0  0  0  0  0
   19.1401  -12.0574    0.0000 H   0  0  0  0  0  0  0  0  0  0  0  0
   21.0130  -10.2568    0.0000 H   0  0  0  0  0  0  0  0  0  0  0  0
   16.6442  -11.3358    0.0000 H   0  0  0  0  0  0  0  0  0  0  0  0
   16.0213   -8.8135    0.0000 H   0  0  0  0  0  0  0  0  0  0  0  0
   21.1955   -2.3998    0.0000 H   0  0  0  0  0  0  0  0  0  0  0  0
   22.4247    0.7602    0.0000 H   0  0  0  0  0  0  0  0  0  0  0  0
   22.3635    2.2361    0.0000 H   0  0  0  0  0  0  0  0  0  0  0  0
   22.3652    2.6921    0.0000 H   0  0  0  0  0  0  0  0  0  0  0  0
   21.9835    3.9505    0.0000 H   0  0  0  0  0  0  0  0  0  0  0  0
   21.7117    4.5110    0.0000 H   0  0  0  0  0  0  0  0  0  0  0  0
   20.9598    5.5899    0.0000 H   0  0  0  0  0  0  0  0  0  0  0  0
   20.5280    6.0390    0.0000 H   0  0  0  0  0  0  0  0  0  0  0  0
   19.4795    6.8327    0.0000 H   0  0  0  0  0  0  0  0  0  0  0  0
   18.9301    7.1264    0.0000 H   0  0  0  0  0  0  0  0  0  0  0  0
   17.6877    7.5573    0.0000 H   0  0  0  0  0  0  0  0  0  0  0  0
   17.0744    7.6668    0.0000 H   0  0  0  0  0  0  0  0  0  0  0  0
   15.7596    7.6926    0.0000 H   0  0  0  0  0  0  0  0  0  0  0  0
   14.6475    7.6041    0.0000 H   0  0  0  0  0  0  0  0  0  0  0  0
   23.4241   -0.6248    0.0000 H   0  0  0  0  0  0  0  0  0  0  0  0
   23.5276    1.1632    0.0000 H   0  0  0  0  0  0  0  0  0  0  0  0
   22.2739    1.8251    0.0000 H   0  0  0  0  0  0  0  0  0  0  0  0
  1  2  1  0
  2  3  1  0
  3  4  2  0
  4  5  1  0
  5  6  2  0
  6  7  1  0
  7  8  2  0
  7  9  1  0
  9 10  1  0
 10 11  1  0
 11 12  2  0
  9 13  1  0
 13 14  1  0
 14 15  2  0
 15 16  1  0
 16 17  2  0
 17 18  1  0
 16 19  1  0
 14 20  1  0
 20 21  1  0
 21 22  2  0
 22 23  1  0
 23 24  2  0
 24 25  1  0
 25 26  2  0
 25 27  1  0
  1 28  2  0
  1 29  1  0
 29 30  1  0
 30 31  1  0
 31 32  1  0
 32 33  2  0
 32 34  1  0
 34 35  1  0
 35 36  1  0
 36 37  1  0
 37 38  1  0
 38 39  1  0
 39 40  1  0
 40 41  2  3
 40 42  1  0
 35 43  1  0
 43 44  2  0
 43 45  1  0
 45 46  1  0
 46 47  1  0
 47 48  1  0
 48 49  1  0
 49 50  1  0
 50 51  1  0
 51 52  2  3
 51 53  1  0
 46 54  1  0
 54 55  2  0
 54 56  1  0
 56 57  1  0
 57 58  1  0
 58 59  1  0
 59 60  1  0
 60 61  1  0
 61 62  1  0
 62 63  2  3
 62 64  1  0
 57 65  1  0
 65 66  2  0
 65 67  1  0
 67 68  1  0
 68 69  1  0
 69 70  1  0
 70 71  1  0
 71 72  1  0
 72 73  1  0
 73 74  2  3
 73 75  1  0
 68 76  1  0
 76 77  2  0
 76 78  1  0
 79 78  1  6
 79 80  1  0
 80 81  1  0
 81 82  1  0
 82 83  1  0
 79 84  1  0
 79 85  1  0
 85 86  2  0
 85 87  1  0
 87 88  1  0
 88 89  1  0
 89 90  1  0
 90 91  1  0
 91 92  1  0
 92 93  1  0
 93 94  2  3
 93 95  1  0
 88 96  1  0
 96 97  2  0
 96 98  1  0
 98 99  1  0
 99100  1  0
100101  1  0
101102  1  0
102103  1  0
103104  1  0
104105  2  3
104106  1  0
 99107  1  0
107108  2  0
107109  1  0
109110  1  0
110111  1  0
111112  1  0
112113  1  0
113114  1  0
114115  1  0
115116  2  3
115117  1  0
110118  1  0
118119  2  0
118120  1  0
120121  1  0
121122  1  0
122123  1  0
123124  2  0
124125  1  0
125126  1  0
126127  1  0
127128  2  0
128129  1  0
129130  2  0
130131  1  0
121132  1  0
132133  2  0
132134  1  0
134135  1  0
135136  1  0
136137  1  0
137138  1  0
138139  1  0
139140  1  0
140141  2  3
140142  1  0
135143  1  0
143144  2  0
143145  1  0
145146  1  0
146147  1  0
147148  1  0
148149  1  0
149150  1  0
150151  1  0
151152  2  3
151153  1  0
146154  1  0
154155  2  0
154156  1  0
156157  1  0
157158  1  0
158159  1  0
159160  1  0
160161  1  0
161162  1  0
162163  1  0
163164  1  0
157165  1  0
157166  1  1
166167  2  0
166168  1  0
  8  3  1  0
131123  1  0
 11  6  1  0
 83126  2  0
164131  2  0
 18 13  2  0
 22  9  1  0
 26 21  1  0
  2169  1  0
  4170  1  0
  5171  1  0
  8172  1  0
 15173  1  0
 17174  1  0
 18175  1  0
 19176  1  0
 23177  1  0
 24178  1  0
 26179  1  0
 27180  1  0
 29181  1  0
 30182  1  0
 30183  1  0
 31184  1  0
 31185  1  0
 34186  1  0
 35187  1  1
 36188  1  0
 36189  1  0
 37190  1  0
 37191  1  0
 38192  1  0
 38193  1  0
 39194  1  0
 41195  1  0
 41196  1  0
 42197  1  0
 42198  1  0
 45199  1  0
 46200  1  1
 47201  1  0
 47202  1  0
 48203  1  0
 48204  1  0
 49205  1  0
 49206  1  0
 50207  1  0
 52208  1  0
 52209  1  0
 53210  1  0
 53211  1  0
 56212  1  0
 57213  1  1
 58214  1  0
 58215  1  0
 59216  1  0
 59217  1  0
 60218  1  0
 60219  1  0
 61220  1  0
 63221  1  0
 63222  1  0
 64223  1  0
 64224  1  0
 67225  1  0
 68226  1  1
 69227  1  0
 69228  1  0
 70229  1  0
 70230  1  0
 71231  1  0
 71232  1  0
 72233  1  0
 74234  1  0
 74235  1  0
 75236  1  0
 75237  1  0
 78238  1  0
 80239  1  0
 80240  1  0
 81241  1  0
 81242  1  0
 82243  1  0
 82244  1  0
 83245  1  0
 84246  1  0
 84247  1  0
 84248  1  0
 87249  1  0
 88250  1  6
 89251  1  0
 89252  1  0
 90253  1  0
 90254  1  0
 91255  1  0
 91256  1  0
 92257  1  0
 94258  1  0
 94259  1  0
 95260  1  0
 95261  1  0
 98262  1  0
 99263  1  6
100264  1  0
100265  1  0
101266  1  0
101267  1  0
102268  1  0
102269  1  0
103270  1  0
105271  1  0
105272  1  0
106273  1  0
106274  1  0
109275  1  0
110276  1  6
111277  1  0
111278  1  0
112279  1  0
112280  1  0
113281  1  0
113282  1  0
114283  1  0
116284  1  0
116285  1  0
117286  1  0
117287  1  0
120288  1  0
121289  1  1
122290  1  0
122291  1  0
124292  1  0
125293  1  0
127294  1  0
128295  1  0
129296  1  0
130297  1  0
134298  1  0
135299  1  6
136300  1  0
136301  1  0
137302  1  0
137303  1  0
138304  1  0
138305  1  0
139306  1  0
141307  1  0
141308  1  0
142309  1  0
142310  1  0
145311  1  0
146312  1  6
147313  1  0
147314  1  0
148315  1  0
148316  1  0
149317  1  0
149318  1  0
150319  1  0
152320  1  0
152321  1  0
153322  1  0
153323  1  0
156324  1  0
158325  1  0
158326  1  0
159327  1  0
159328  1  0
160329  1  0
160330  1  0
161331  1  0
161332  1  0
162333  1  0
162334  1  0
163335  1  0
163336  1  0
164337  1  0
165338  1  0
165339  1  0
165340  1  0
M  CHG  8  41   1  52   1  63   1  74   1  94   1 105   1 116   1 141   1
M  CHG  2 152   1 168  -1
M  END
