
     RDKit          2D

249257  0  0  0  0  0  0  0  0999 V2000
  -17.9622    1.1286    0.0000 C   0  0  0  0  0  0  0  0  0  0  0  0
  -19.2467    0.3540    0.0000 N   0  0  0  0  0  0  0  0  0  0  0  0
  -20.5598    1.0792    0.0000 C   0  0  0  0  0  0  0  0  0  0  0  0
  -20.5883    2.5789    0.0000 C   0  0  0  0  0  0  0  0  0  0  0  0
  -21.9014    3.3040    0.0000 C   0  0  0  0  0  0  0  0  0  0  0  0
  -23.1859    2.5294    0.0000 C   0  0  0  0  0  0  0  0  0  0  0  0
  -23.1574    1.0297    0.0000 C   0  0  0  0  0  0  0  0  0  0  0  0
  -21.8443    0.3046    0.0000 C   0  0  0  0  0  0  0  0  0  0  0  0
  -24.5749    0.5391    0.0000 C   0  0  0  0  0  0  0  0  0  0  0  0
  -25.4795    1.7356    0.0000 O   0  0  0  0  0  0  0  0  0  0  0  0
  -24.6211    2.9657    0.0000 C   0  0  0  0  0  0  0  0  0  0  0  0
  -25.1117    4.3832    0.0000 O   0  0  0  0  0  0  0  0  0  0  0  0
  -26.0359    0.1994    0.0000 C   0  0  0  0  0  0  0  0  0  0  0  0
  -26.4722   -1.2358    0.0000 C   0  0  0  0  0  0  0  0  0  0  0  0
  -27.9332   -1.5755    0.0000 C   0  0  0  0  0  0  0  0  0  0  0  0
  -28.9580   -0.4801    0.0000 C   0  0  0  0  0  0  0  0  0  0  0  0
  -28.5217    0.9551    0.0000 C   0  0  0  0  0  0  0  0  0  0  0  0
  -27.0606    1.2948    0.0000 C   0  0  0  0  0  0  0  0  0  0  0  0
  -30.4190   -0.8198    0.0000 O   0  0  0  0  0  0  0  0  0  0  0  0
  -25.4475   -2.3312    0.0000 O   0  0  0  0  0  0  0  0  0  0  0  0
  -23.9865   -1.9914    0.0000 C   0  0  0  0  0  0  0  0  0  0  0  0
  -23.5502   -0.5563    0.0000 C   0  0  0  0  0  0  0  0  0  0  0  0
  -22.2927   -0.8863    0.0000 C   0  0  0  0  0  0  0  0  0  0  0  0
  -21.7462   -1.4705    0.0000 C   0  0  0  0  0  0  0  0  0  0  0  0
  -21.9789   -2.2359    0.0000 C   0  0  0  0  0  0  0  0  0  0  0  0
  -22.7581   -2.4171    0.0000 C   0  0  0  0  0  0  0  0  0  0  0  0
  -20.4760   -3.8425    0.0000 O   0  0  0  0  0  0  0  0  0  0  0  0
  -17.9907    2.6283    0.0000 S   0  0  0  0  0  0  0  0  0  0  0  0
  -16.6491    0.4035    0.0000 N   0  0  0  0  0  0  0  0  0  0  0  0
  -15.3646    1.1781    0.0000 C   0  0  0  0  0  0  0  0  0  0  0  0
  -14.0515    0.4529    0.0000 C   0  0  0  0  0  0  0  0  0  0  0  0
  -12.7670    1.2275    0.0000 C   0  0  0  0  0  0  0  0  0  0  0  0
  -12.7955    2.7272    0.0000 O   0  0  0  0  0  0  0  0  0  0  0  0
  -11.4539    0.5024    0.0000 N   0  0  0  0  0  0  0  0  0  0  0  0
  -10.1694    1.2769    0.0000 C   0  0  0  0  0  0  0  0  0  0  0  0
   -9.2272    2.4442    0.0000 C   0  0  0  0  0  0  0  0  0  0  0  0
   -7.7453    2.2118    0.0000 C   0  0  0  0  0  0  0  0  0  0  0  0
   -6.8032    3.3791    0.0000 C   0  0  0  0  0  0  0  0  0  0  0  0
   -5.3213    3.1467    0.0000 C   0  0  0  0  0  0  0  0  0  0  0  0
   -4.3791    4.3140    0.0000 N   0  0  0  0  0  0  0  0  0  0  0  0
   -8.8563    0.5518    0.0000 C   0  0  0  0  0  0  0  0  0  0  0  0
   -8.8277   -0.9479    0.0000 O   0  0  0  0  0  0  0  0  0  0  0  0
   -7.5718    1.3264    0.0000 N   0  0  0  0  0  0  0  0  0  0  0  0
   -6.2587    0.6013    0.0000 C   0  0  0  0  0  0  0  0  0  0  0  0
   -5.2728   -0.5293    0.0000 C   0  0  0  0  0  0  0  0  0  0  0  0
   -5.7589   -1.9483    0.0000 C   0  0  0  0  0  0  0  0  0  0  0  0
   -4.7730   -3.0788    0.0000 C   0  0  0  0  0  0  0  0  0  0  0  0
   -5.2591   -4.4979    0.0000 C   0  0  0  0  0  0  0  0  0  0  0  0
   -4.2733   -5.6284    0.0000 N   0  0  0  0  0  0  0  0  0  0  0  0
   -4.9741    1.3758    0.0000 C   0  0  0  0  0  0  0  0  0  0  0  0
   -4.7026    2.5601    0.0000 O   0  0  0  0  0  0  0  0  0  0  0  0
   -3.6611    0.6507    0.0000 N   0  0  0  0  0  0  0  0  0  0  0  0
   -2.3765    1.4253    0.0000 C   0  0  0  0  0  0  0  0  0  0  0  0
   -1.4344    2.5925    0.0000 C   0  0  0  0  0  0  0  0  0  0  0  0
    0.0475    2.3602    0.0000 C   0  0  0  0  0  0  0  0  0  0  0  0
    0.5873    0.9607    0.0000 C   0  0  0  0  0  0  0  0  0  0  0  0
    2.0692    0.7284    0.0000 C   0  0  0  0  0  0  0  0  0  0  0  0
    3.0113    1.8956    0.0000 C   0  0  0  0  0  0  0  0  0  0  0  0
    2.4715    3.2951    0.0000 C   0  0  0  0  0  0  0  0  0  0  0  0
    0.9896    3.5274    0.0000 C   0  0  0  0  0  0  0  0  0  0  0  0
   -1.0635    0.7002    0.0000 C   0  0  0  0  0  0  0  0  0  0  0  0
   -1.2179   -0.7919    0.0000 O   0  0  0  0  0  0  0  0  0  0  0  0
    0.2211    1.4747    0.0000 N   0  0  0  0  0  0  0  0  0  0  0  0
    1.5341    0.7496    0.0000 C   0  0  0  0  0  0  0  0  0  0  0  0
    2.5200   -0.3809    0.0000 C   0  0  0  0  0  0  0  0  0  0  0  0
    2.0339   -1.8000    0.0000 C   0  0  0  0  0  0  0  0  0  0  0  0
    3.0198   -2.9305    0.0000 C   0  0  0  0  0  0  0  0  0  0  0  0
    2.5337   -4.3495    0.0000 N   0  0  0  0  0  0  0  0  0  0  0  0
    3.5196   -5.4800    0.0000 C   0  0  0  0  0  0  0  0  0  0  0  0
    3.0334   -6.8991    0.0000 N   0  0  0  0  0  0  0  0  0  0  0  0
    4.9915   -5.1915    0.0000 N   0  0  0  0  0  0  0  0  0  0  0  0
    2.8187    1.5242    0.0000 C   0  0  0  0  0  0  0  0  0  0  0  0
    2.9731    3.0162    0.0000 O   0  0  0  0  0  0  0  0  0  0  0  0
    4.1317    0.7991    0.0000 N   0  0  0  0  0  0  0  0  0  0  0  0
    5.4163    1.5736    0.0000 C   0  0  0  0  0  0  0  0  0  0  0  0
    5.6855    3.0493    0.0000 C   0  0  0  0  0  0  0  0  0  0  0  0
    6.3776    4.3800    0.0000 C   0  0  0  0  0  0  0  0  0  0  0  0
    7.4313    5.4476    0.0000 C   0  0  0  0  0  0  0  0  0  0  0  0
    8.7528    6.1572    0.0000 C   0  0  0  0  0  0  0  0  0  0  0  0
    4.0872    2.2691    0.0000 C   0  0  0  0  0  0  0  0  0  0  0  0
    5.5940    0.0842    0.0000 C   0  0  0  0  0  0  0  0  0  0  0  0
    4.2869   -0.6517    0.0000 O   0  0  0  0  0  0  0  0  0  0  0  0
    6.2029   -1.2867    0.0000 N   0  0  0  0  0  0  0  0  0  0  0  0
    7.1887   -2.4172    0.0000 C   0  0  0  0  0  0  0  0  0  0  0  0
    6.9934   -3.9044    0.0000 C   0  0  0  0  0  0  0  0  0  0  0  0
    5.6078   -4.4789    0.0000 C   0  0  0  0  0  0  0  0  0  0  0  0
    5.5953   -5.9788    0.0000 C   0  0  0  0  0  0  0  0  0  0  0  0
    4.1093   -4.5448    0.0000 C   0  0  0  0  0  0  0  0  0  0  0  0
    8.4640   -3.2069    0.0000 C   0  0  0  0  0  0  0  0  0  0  0  0
    7.8732   -4.5856    0.0000 O   0  0  0  0  0  0  0  0  0  0  0  0
    9.9154   -3.5856    0.0000 N   0  0  0  0  0  0  0  0  0  0  0  0
   11.4140   -3.5196    0.0000 C   0  0  0  0  0  0  0  0  0  0  0  0
   12.4550   -4.5996    0.0000 C   0  0  0  0  0  0  0  0  0  0  0  0
   12.0402   -6.0411    0.0000 C   0  0  0  0  0  0  0  0  0  0  0  0
   10.5845   -6.4027    0.0000 C   0  0  0  0  0  0  0  0  0  0  0  0
   10.1697   -7.8442    0.0000 C   0  0  0  0  0  0  0  0  0  0  0  0
   11.2107   -8.9241    0.0000 C   0  0  0  0  0  0  0  0  0  0  0  0
   12.6665   -8.5626    0.0000 C   0  0  0  0  0  0  0  0  0  0  0  0
   13.0812   -7.1211    0.0000 C   0  0  0  0  0  0  0  0  0  0  0  0
   12.8265   -3.0149    0.0000 C   0  0  0  0  0  0  0  0  0  0  0  0
   13.5361   -4.3365    0.0000 O   0  0  0  0  0  0  0  0  0  0  0  0
   14.0276   -2.1163    0.0000 N   0  0  0  0  0  0  0  0  0  0  0  0
   14.9103   -0.9036    0.0000 C   0  0  0  0  0  0  0  0  0  0  0  0
   16.4037   -0.7630    0.0000 C   0  0  0  0  0  0  0  0  0  0  0  0
   17.2722   -1.9861    0.0000 C   0  0  0  0  0  0  0  0  0  0  0  0
   16.6472   -3.3497    0.0000 C   0  0  0  0  0  0  0  0  0  0  0  0
   17.5156   -4.5727    0.0000 C   0  0  0  0  0  0  0  0  0  0  0  0
   19.0090   -4.4322    0.0000 C   0  0  0  0  0  0  0  0  0  0  0  0
   19.6340   -3.0686    0.0000 C   0  0  0  0  0  0  0  0  0  0  0  0
   18.7656   -1.8455    0.0000 C   0  0  0  0  0  0  0  0  0  0  0  0
   15.3965    0.5155    0.0000 C   0  0  0  0  0  0  0  0  0  0  0  0
   16.8721    0.2463    0.0000 O   0  0  0  0  0  0  0  0  0  0  0  0
   15.4427    2.0148    0.0000 N   0  0  0  0  0  0  0  0  0  0  0  0
   15.0450    3.4611    0.0000 C   0  0  0  0  0  0  0  0  0  0  0  0
   14.2386    4.7259    0.0000 C   0  0  0  0  0  0  0  0  0  0  0  0
   13.0952    5.6968    0.0000 C   0  0  0  0  0  0  0  0  0  0  0  0
   11.7165    6.2876    0.0000 C   0  0  0  0  0  0  0  0  0  0  0  0
   10.2248    6.4458    0.0000 C   0  0  0  0  0  0  0  0  0  0  0  0
   16.5269    3.2288    0.0000 C   0  0  0  0  0  0  0  0  0  0  0  0
   15.8662    4.7163    0.0000 C   0  0  0  0  0  0  0  0  0  0  0  0
   15.5338    6.1790    0.0000 O   0  0  0  0  0  0  0  0  0  0  0  0
   17.3639    4.6327    0.0000 N   0  0  0  0  0  0  0  0  0  0  0  0
   18.1851    5.8879    0.0000 C   0  0  0  0  0  0  0  0  0  0  0  0
   18.5275    7.3483    0.0000 C   0  0  0  0  0  0  0  0  0  0  0  0
   19.8999    7.9538    0.0000 O   0  0  0  0  0  0  0  0  0  0  0  0
   19.6828    5.8043    0.0000 C   0  0  0  0  0  0  0  0  0  0  0  0
   20.6509    6.9500    0.0000 O   0  0  0  0  0  0  0  0  0  0  0  0
   20.3592    4.4655    0.0000 O   0  0  0  0  0  0  0  0  0  0  0  0
  -19.0356   -1.1311    0.0000 H   0  0  0  0  0  0  0  0  0  0  0  0
  -19.3038    3.3535    0.0000 H   0  0  0  0  0  0  0  0  0  0  0  0
  -21.9300    4.8037    0.0000 H   0  0  0  0  0  0  0  0  0  0  0  0
  -21.4537   -1.1437    0.0000 H   0  0  0  0  0  0  0  0  0  0  0  0
  -28.3695   -3.0107    0.0000 H   0  0  0  0  0  0  0  0  0  0  0  0
  -29.5464    2.0505    0.0000 H   0  0  0  0  0  0  0  0  0  0  0  0
  -26.6244    2.7299    0.0000 H   0  0  0  0  0  0  0  0  0  0  0  0
  -31.4437    0.2756    0.0000 H   0  0  0  0  0  0  0  0  0  0  0  0
  -21.6529    1.2186    0.0000 H   0  0  0  0  0  0  0  0  0  0  0  0
  -19.5729   -1.1529    0.0000 H   0  0  0  0  0  0  0  0  0  0  0  0
  -23.3980   -4.5220    0.0000 H   0  0  0  0  0  0  0  0  0  0  0  0
  -20.9123   -5.2777    0.0000 H   0  0  0  0  0  0  0  0  0  0  0  0
  -16.6205   -1.0963    0.0000 H   0  0  0  0  0  0  0  0  0  0  0  0
  -14.4224    2.3453    0.0000 H   0  0  0  0  0  0  0  0  0  0  0  0
  -16.3504    2.3086    0.0000 H   0  0  0  0  0  0  0  0  0  0  0  0
  -13.0656   -0.6776    0.0000 H   0  0  0  0  0  0  0  0  0  0  0  0
  -14.9936   -0.7143    0.0000 H   0  0  0  0  0  0  0  0  0  0  0  0
  -11.4253   -0.9974    0.0000 H   0  0  0  0  0  0  0  0  0  0  0  0
  -11.1552    2.4075    0.0000 H   0  0  0  0  0  0  0  0  0  0  0  0
   -8.9177    3.9119    0.0000 H   0  0  0  0  0  0  0  0  0  0  0  0
  -10.5403    3.1693    0.0000 H   0  0  0  0  0  0  0  0  0  0  0  0
   -6.5304    1.3321    0.0000 H   0  0  0  0  0  0  0  0  0  0  0  0
   -7.5082    0.7307    0.0000 H   0  0  0  0  0  0  0  0  0  0  0  0
   -6.4937    4.8468    0.0000 H   0  0  0  0  0  0  0  0  0  0  0  0
   -8.0181    4.2588    0.0000 H   0  0  0  0  0  0  0  0  0  0  0  0
   -3.9296    2.5871    0.0000 H   0  0  0  0  0  0  0  0  0  0  0  0
   -5.6308    1.6790    0.0000 H   0  0  0  0  0  0  0  0  0  0  0  0
   -2.9366    3.9027    0.0000 H   0  0  0  0  0  0  0  0  0  0  0  0
   -3.8930    5.7330    0.0000 H   0  0  0  0  0  0  0  0  0  0  0  0
   -5.5940    5.1937    0.0000 H   0  0  0  0  0  0  0  0  0  0  0  0
   -7.2366    2.7885    0.0000 H   0  0  0  0  0  0  0  0  0  0  0  0
   -7.3361   -0.4424    0.0000 H   0  0  0  0  0  0  0  0  0  0  0  0
   -3.9597   -1.2544    0.0000 H   0  0  0  0  0  0  0  0  0  0  0  0
   -4.0762    0.3753    0.0000 H   0  0  0  0  0  0  0  0  0  0  0  0
   -6.8363   -2.9920    0.0000 H   0  0  0  0  0  0  0  0  0  0  0  0
   -7.1506   -1.3886    0.0000 H   0  0  0  0  0  0  0  0  0  0  0  0
   -3.3814   -3.6385    0.0000 H   0  0  0  0  0  0  0  0  0  0  0  0
   -3.6956   -2.0351    0.0000 H   0  0  0  0  0  0  0  0  0  0  0  0
   -6.2013   -5.6651    0.0000 H   0  0  0  0  0  0  0  0  0  0  0  0
   -6.6508   -3.9382    0.0000 H   0  0  0  0  0  0  0  0  0  0  0  0
   -4.7594   -7.0474    0.0000 H   0  0  0  0  0  0  0  0  0  0  0  0
   -2.9602   -6.3535    0.0000 H   0  0  0  0  0  0  0  0  0  0  0  0
   -3.1959   -4.5847    0.0000 H   0  0  0  0  0  0  0  0  0  0  0  0
   -3.4499   -0.8344    0.0000 H   0  0  0  0  0  0  0  0  0  0  0  0
   -3.2173    2.6675    0.0000 H   0  0  0  0  0  0  0  0  0  0  0  0
   -0.9483    4.0116    0.0000 H   0  0  0  0  0  0  0  0  0  0  0  0
   -2.8261    3.1522    0.0000 H   0  0  0  0  0  0  0  0  0  0  0  0
   -0.2056   -0.3127    0.0000 H   0  0  0  0  0  0  0  0  0  0  0  0
    2.9315   -0.4990    0.0000 H   0  0  0  0  0  0  0  0  0  0  0  0
    4.4932    1.6633    0.0000 H   0  0  0  0  0  0  0  0  0  0  0  0
    3.4137    4.4623    0.0000 H   0  0  0  0  0  0  0  0  0  0  0  0
    0.4499    4.9269    0.0000 H   0  0  0  0  0  0  0  0  0  0  0  0
    0.5563    2.9368    0.0000 H   0  0  0  0  0  0  0  0  0  0  0  0
    0.4568   -0.2941    0.0000 H   0  0  0  0  0  0  0  0  0  0  0  0
    3.7349   -1.2607    0.0000 H   0  0  0  0  0  0  0  0  0  0  0  0
    3.5974    0.6628    0.0000 H   0  0  0  0  0  0  0  0  0  0  0  0
    1.0918   -2.9672    0.0000 H   0  0  0  0  0  0  0  0  0  0  0  0
    0.6422   -1.2403    0.0000 H   0  0  0  0  0  0  0  0  0  0  0  0
    4.4115   -3.4901    0.0000 H   0  0  0  0  0  0  0  0  0  0  0  0
    4.0972   -1.8868    0.0000 H   0  0  0  0  0  0  0  0  0  0  0  0
    1.0617   -4.6380    0.0000 H   0  0  0  0  0  0  0  0  0  0  0  0
    4.0193   -8.0296    0.0000 H   0  0  0  0  0  0  0  0  0  0  0  0
    1.5615   -7.1876    0.0000 H   0  0  0  0  0  0  0  0  0  0  0  0
    5.8323   -6.4337    0.0000 H   0  0  0  0  0  0  0  0  0  0  0  0
    4.9367   -3.6925    0.0000 H   0  0  0  0  0  0  0  0  0  0  0  0
    4.1603   -0.7007    0.0000 H   0  0  0  0  0  0  0  0  0  0  0  0
    4.1965    2.8679    0.0000 H   0  0  0  0  0  0  0  0  0  0  0  0
    4.7572    4.2275    0.0000 H   0  0  0  0  0  0  0  0  0  0  0  0
    4.9447    4.8236    0.0000 H   0  0  0  0  0  0  0  0  0  0  0  0
    5.6713    5.7033    0.0000 H   0  0  0  0  0  0  0  0  0  0  0  0
    6.0989    6.1365    0.0000 H   0  0  0  0  0  0  0  0  0  0  0  0
    7.3280    6.9441    0.0000 H   0  0  0  0  0  0  0  0  0  0  0  0
    8.2481    7.5698    0.0000 H   0  0  0  0  0  0  0  0  0  0  0  0
    3.8967    3.9241    0.0000 H   0  0  0  0  0  0  0  0  0  0  0  0
    2.6754    2.6352    0.0000 H   0  0  0  0  0  0  0  0  0  0  0  0
    3.1596    1.3326    0.0000 H   0  0  0  0  0  0  0  0  0  0  0  0
    4.9380   -2.0930    0.0000 H   0  0  0  0  0  0  0  0  0  0  0  0
    5.7106   -2.6726    0.0000 H   0  0  0  0  0  0  0  0  0  0  0  0
    7.4947   -5.3182    0.0000 H   0  0  0  0  0  0  0  0  0  0  0  0
    8.4634   -4.2030    0.0000 H   0  0  0  0  0  0  0  0  0  0  0  0
    5.2827   -3.0146    0.0000 H   0  0  0  0  0  0  0  0  0  0  0  0
    4.1071   -6.7276    0.0000 H   0  0  0  0  0  0  0  0  0  0  0  0
    5.7377   -7.4305    0.0000 H   0  0  0  0  0  0  0  0  0  0  0  0
    6.9108   -6.0612    0.0000 H   0  0  0  0  0  0  0  0  0  0  0  0
    3.5845   -5.9500    0.0000 H   0  0  0  0  0  0  0  0  0  0  0  0
    2.6120   -4.4538    0.0000 H   0  0  0  0  0  0  0  0  0  0  0  0
    4.4844   -3.0925    0.0000 H   0  0  0  0  0  0  0  0  0  0  0  0
    9.5766   -5.0468    0.0000 H   0  0  0  0  0  0  0  0  0  0  0  0
   10.8578   -4.9127    0.0000 H   0  0  0  0  0  0  0  0  0  0  0  0
   13.8026   -5.2584    0.0000 H   0  0  0  0  0  0  0  0  0  0  0  0
   13.6050   -3.6365    0.0000 H   0  0  0  0  0  0  0  0  0  0  0  0
    9.4196   -5.4577    0.0000 H   0  0  0  0  0  0  0  0  0  0  0  0
    8.7139   -8.2057    0.0000 H   0  0  0  0  0  0  0  0  0  0  0  0
   10.7959  -10.3657    0.0000 H   0  0  0  0  0  0  0  0  0  0  0  0
   13.7075   -9.6425    0.0000 H   0  0  0  0  0  0  0  0  0  0  0  0
   14.5370   -6.7595    0.0000 H   0  0  0  0  0  0  0  0  0  0  0  0
   14.9588   -3.2922    0.0000 H   0  0  0  0  0  0  0  0  0  0  0  0
   15.6527   -2.2070    0.0000 H   0  0  0  0  0  0  0  0  0  0  0  0
   17.7590   -0.1202    0.0000 H   0  0  0  0  0  0  0  0  0  0  0  0
   16.3678    0.7365    0.0000 H   0  0  0  0  0  0  0  0  0  0  0  0
   15.1820   -3.6712    0.0000 H   0  0  0  0  0  0  0  0  0  0  0  0
   16.8906   -5.9363    0.0000 H   0  0  0  0  0  0  0  0  0  0  0  0
   19.8774   -5.6552    0.0000 H   0  0  0  0  0  0  0  0  0  0  0  0
   21.1274   -2.9280    0.0000 H   0  0  0  0  0  0  0  0  0  0  0  0
   19.3905   -0.4819    0.0000 H   0  0  0  0  0  0  0  0  0  0  0  0
   16.9321    2.1925    0.0000 H   0  0  0  0  0  0  0  0  0  0  0  0
   14.6534    6.1674    0.0000 H   0  0  0  0  0  0  0  0  0  0  0  0
   15.6270    5.2935    0.0000 H   0  0  0  0  0  0  0  0  0  0  0  0
   13.2497    7.1889    0.0000 H   0  0  0  0  0  0  0  0  0  0  0  0
   14.2547    6.6485    0.0000 H   0  0  0  0  0  0  0  0  0  0  0  0
   11.2471    7.7123    0.0000 H   0  0  0  0  0  0  0  0  0  0  0  0
   12.6902    7.4286    0.0000 H   0  0  0  0  0  0  0  0  0  0  0  0
   10.1589    7.9443    0.0000 H   0  0  0  0  0  0  0  0  0  0  0  0
   17.7234    4.1333    0.0000 H   0  0  0  0  0  0  0  0  0  0  0  0
   17.7418    2.3490    0.0000 H   0  0  0  0  0  0  0  0  0  0  0  0
   16.3986    1.7343    0.0000 H   0  0  0  0  0  0  0  0  0  0  0  0
   18.1984    3.3863    0.0000 H   0  0  0  0  0  0  0  0  0  0  0  0
   16.8063    6.4787    0.0000 H   0  0  0  0  0  0  0  0  0  0  0  0
   18.3498    8.8377    0.0000 H   0  0  0  0  0  0  0  0  0  0  0  0
   17.0298    7.4319    0.0000 H   0  0  0  0  0  0  0  0  0  0  0  0
   20.3059    9.2424    0.0000 H   0  0  0  0  0  0  0  0  0  0  0  0
  1  2  1  0
  2  3  1  0
  3  4  2  0
  4  5  1  0
  5  6  2  0
  6  7  1  0
  7  8  2  0
  7  9  1  0
  9 10  1  0
 10 11  1  0
 11 12  2  0
  9 13  1  0
 13 14  1  0
 14 15  2  0
 15 16  1  0
 16 17  2  0
 17 18  1  0
 16 19  1  0
 14 20  1  0
 20 21  1  0
 21 22  2  0
 22 23  1  0
 23 24  2  0
 24 25  1  0
 25 26  2  0
 25 27  1  0
  1 28  2  0
  1 29  1  0
 29 30  1  0
 30 31  1  0
 31 32  1  0
 32 33  2  0
 32 34  1  0
 34 35  1  0
 35 36  1  0
 36 37  1  0
 37 38  1  0
 38 39  1  0
 39 40  1  0
 35 41  1  0
 41 42  2  0
 41 43  1  0
 43 44  1  0
 44 45  1  0
 45 46  1  0
 46 47  1  0
 47 48  1  0
 48 49  1  0
 44 50  1  0
 50 51  2  0
 50 52  1  0
 52 53  1  0
 53 54  1  0
 54 55  1  0
 55 56  2  0
 56 57  1  0
 57 58  2  0
 58 59  1  0
 59 60  2  0
 53 61  1  0
 61 62  2  0
 61 63  1  0
 63 64  1  0
 64 65  1  0
 65 66  1  0
 66 67  1  0
 67 68  1  0
 68 69  1  0
 69 70  2  3
 69 71  1  0
 64 72  1  0
 72 73  2  0
 72 74  1  0
 75 74  1  1
 75 76  1  0
 76 77  1  0
 77 78  1  0
 78 79  1  0
 75 80  1  0
 75 81  1  0
 81 82  2  0
 81 83  1  0
 83 84  1  0
 84 85  1  0
 85 86  1  0
 86 87  1  0
 86 88  1  0
 84 89  1  0
 89 90  2  0
 89 91  1  0
 91 92  1  0
 92 93  1  0
 93 94  1  0
 94 95  2  0
 95 96  1  0
 96 97  2  0
 97 98  1  0
 98 99  2  0
 92100  1  0
100101  2  0
100102  1  0
102103  1  0
103104  1  0
104105  1  0
105106  2  0
106107  1  0
107108  2  0
108109  1  0
109110  2  0
103111  1  0
111112  2  0
111113  1  0
113114  1  0
114115  1  0
115116  1  0
116117  1  0
117118  1  0
114119  1  0
114120  1  1
120121  2  0
120122  1  0
122123  1  0
123124  1  0
124125  1  0
123126  1  0
126127  2  0
126128  1  0
  8  3  1  0
 60 55  1  0
 99 94  1  0
110105  1  0
 11  6  1  0
 18 13  2  0
 79118  2  0
 22  9  1  0
 26 21  1  0
  2129  1  0
  4130  1  0
  5131  1  0
  8132  1  0
 15133  1  0
 17134  1  0
 18135  1  0
 19136  1  0
 23137  1  0
 24138  1  0
 26139  1  0
 27140  1  0
 29141  1  0
 30142  1  0
 30143  1  0
 31144  1  0
 31145  1  0
 34146  1  0
 35147  1  1
 36148  1  0
 36149  1  0
 37150  1  0
 37151  1  0
 38152  1  0
 38153  1  0
 39154  1  0
 39155  1  0
 40156  1  0
 40157  1  0
 40158  1  0
 43159  1  0
 44160  1  6
 45161  1  0
 45162  1  0
 46163  1  0
 46164  1  0
 47165  1  0
 47166  1  0
 48167  1  0
 48168  1  0
 49169  1  0
 49170  1  0
 49171  1  0
 52172  1  0
 53173  1  1
 54174  1  0
 54175  1  0
 56176  1  0
 57177  1  0
 58178  1  0
 59179  1  0
 60180  1  0
 63181  1  0
 64182  1  6
 65183  1  0
 65184  1  0
 66185  1  0
 66186  1  0
 67187  1  0
 67188  1  0
 68189  1  0
 70190  1  0
 70191  1  0
 71192  1  0
 71193  1  0
 74194  1  0
 76195  1  0
 76196  1  0
 77197  1  0
 77198  1  0
 78199  1  0
 78200  1  0
 79201  1  0
 80202  1  0
 80203  1  0
 80204  1  0
 83205  1  0
 84206  1  6
 85207  1  0
 85208  1  0
 86209  1  0
 87210  1  0
 87211  1  0
 87212  1  0
 88213  1  0
 88214  1  0
 88215  1  0
 91216  1  0
 92217  1  6
 93218  1  0
 93219  1  0
 95220  1  0
 96221  1  0
 97222  1  0
 98223  1  0
 99224  1  0
102225  1  0
103226  1  6
104227  1  0
104228  1  0
106229  1  0
107230  1  0
108231  1  0
109232  1  0
110233  1  0
113234  1  0
115235  1  0
115236  1  0
116237  1  0
116238  1  0
117239  1  0
117240  1  0
118241  1  0
119242  1  0
119243  1  0
119244  1  0
122245  1  0
123246  1  1
124247  1  0
124248  1  0
125249  1  0
M  CHG  4  40   1  49   1  70   1 128  -1
M  END
