
     RDKit          2D

206214  0  0  0  0  0  0  0  0999 V2000
  -13.0291    0.3602    0.0000 C   0  0  0  0  0  0  0  0  0  0  0  0
  -13.8340   -0.9056    0.0000 N   0  0  0  0  0  0  0  0  0  0  0  0
  -15.3326   -0.8414    0.0000 C   0  0  0  0  0  0  0  0  0  0  0  0
  -16.0263    0.4886    0.0000 C   0  0  0  0  0  0  0  0  0  0  0  0
  -17.5250    0.5528    0.0000 C   0  0  0  0  0  0  0  0  0  0  0  0
  -18.3299   -0.7130    0.0000 C   0  0  0  0  0  0  0  0  0  0  0  0
  -17.6362   -2.0429    0.0000 C   0  0  0  0  0  0  0  0  0  0  0  0
  -16.1376   -2.1071    0.0000 C   0  0  0  0  0  0  0  0  0  0  0  0
  -18.6867   -3.1136    0.0000 C   0  0  0  0  0  0  0  0  0  0  0  0
  -20.0296   -2.4454    0.0000 O   0  0  0  0  0  0  0  0  0  0  0  0
  -19.8091   -0.9617    0.0000 C   0  0  0  0  0  0  0  0  0  0  0  0
  -20.8798    0.0888    0.0000 O   0  0  0  0  0  0  0  0  0  0  0  0
  -19.8433   -4.0687    0.0000 C   0  0  0  0  0  0  0  0  0  0  0  0
  -19.5946   -5.5479    0.0000 C   0  0  0  0  0  0  0  0  0  0  0  0
  -20.7512   -6.5030    0.0000 C   0  0  0  0  0  0  0  0  0  0  0  0
  -22.1567   -5.9788    0.0000 C   0  0  0  0  0  0  0  0  0  0  0  0
  -22.4054   -4.4996    0.0000 C   0  0  0  0  0  0  0  0  0  0  0  0
  -21.2488   -3.5445    0.0000 C   0  0  0  0  0  0  0  0  0  0  0  0
  -23.3133   -6.9339    0.0000 O   0  0  0  0  0  0  0  0  0  0  0  0
  -18.1891   -6.0721    0.0000 O   0  0  0  0  0  0  0  0  0  0  0  0
  -17.0325   -5.1170    0.0000 C   0  0  0  0  0  0  0  0  0  0  0  0
  -17.2812   -3.6378    0.0000 C   0  0  0  0  0  0  0  0  0  0  0  0
  -16.0085   -3.3731    0.0000 C   0  0  0  0  0  0  0  0  0  0  0  0
  -15.2589   -3.6526    0.0000 C   0  0  0  0  0  0  0  0  0  0  0  0
  -15.1262   -4.4415    0.0000 C   0  0  0  0  0  0  0  0  0  0  0  0
  -15.7431   -4.9509    0.0000 C   0  0  0  0  0  0  0  0  0  0  0  0
  -13.0649   -5.2103    0.0000 O   0  0  0  0  0  0  0  0  0  0  0  0
  -13.7228    1.6901    0.0000 S   0  0  0  0  0  0  0  0  0  0  0  0
  -11.5305    0.2959    0.0000 N   0  0  0  0  0  0  0  0  0  0  0  0
  -10.7255    1.5617    0.0000 C   0  0  0  0  0  0  0  0  0  0  0  0
   -9.2269    1.4975    0.0000 C   0  0  0  0  0  0  0  0  0  0  0  0
   -8.4220    2.7632    0.0000 C   0  0  0  0  0  0  0  0  0  0  0  0
   -8.9507    3.3598    0.0000 O   0  0  0  0  0  0  0  0  0  0  0  0
   -6.9234    2.6990    0.0000 N   0  0  0  0  0  0  0  0  0  0  0  0
   -6.1184    3.9647    0.0000 C   0  0  0  0  0  0  0  0  0  0  0  0
   -7.5047    4.5376    0.0000 C   0  0  0  0  0  0  0  0  0  0  0  0
   -8.6940    3.6235    0.0000 C   0  0  0  0  0  0  0  0  0  0  0  0
  -10.0803    4.1964    0.0000 C   0  0  0  0  0  0  0  0  0  0  0  0
  -11.2696    3.2823    0.0000 C   0  0  0  0  0  0  0  0  0  0  0  0
  -11.0726    1.7953    0.0000 C   0  0  0  0  0  0  0  0  0  0  0  0
   -9.6863    1.2224    0.0000 C   0  0  0  0  0  0  0  0  0  0  0  0
   -8.4970    2.1365    0.0000 C   0  0  0  0  0  0  0  0  0  0  0  0
   -4.9292    4.8789    0.0000 C   0  0  0  0  0  0  0  0  0  0  0  0
   -5.3059    6.3308    0.0000 O   0  0  0  0  0  0  0  0  0  0  0  0
   -3.5429    4.3060    0.0000 N   0  0  0  0  0  0  0  0  0  0  0  0
   -2.3536    5.2201    0.0000 C   0  0  0  0  0  0  0  0  0  0  0  0
   -3.4603    6.2325    0.0000 C   0  0  0  0  0  0  0  0  0  0  0  0
   -4.9350    5.9580    0.0000 O   0  0  0  0  0  0  0  0  0  0  0  0
   -0.9234    5.6723    0.0000 C   0  0  0  0  0  0  0  0  0  0  0  0
   -0.7809    7.1655    0.0000 O   0  0  0  0  0  0  0  0  0  0  0  0
    0.1834    4.6598    0.0000 N   0  0  0  0  0  0  0  0  0  0  0  0
    1.6136    5.1120    0.0000 C   0  0  0  0  0  0  0  0  0  0  0  0
    2.3051    6.4431    0.0000 C   0  0  0  0  0  0  0  0  0  0  0  0
    3.4534    7.4082    0.0000 C   0  0  0  0  0  0  0  0  0  0  0  0
    4.8836    7.8604    0.0000 C   0  0  0  0  0  0  0  0  0  0  0  0
    6.3780    7.7309    0.0000 C   0  0  0  0  0  0  0  0  0  0  0  0
    0.5157    6.1341    0.0000 C   0  0  0  0  0  0  0  0  0  0  0  0
    1.4841    3.6176    0.0000 C   0  0  0  0  0  0  0  0  0  0  0  0
    0.0243    3.2726    0.0000 O   0  0  0  0  0  0  0  0  0  0  0  0
    1.9363    2.1874    0.0000 N   0  0  0  0  0  0  0  0  0  0  0  0
    2.9014    1.0391    0.0000 C   0  0  0  0  0  0  0  0  0  0  0  0
    1.4712    0.5869    0.0000 C   0  0  0  0  0  0  0  0  0  0  0  0
    1.1477   -0.8778    0.0000 C   0  0  0  0  0  0  0  0  0  0  0  0
   -0.2825   -1.3300    0.0000 C   0  0  0  0  0  0  0  0  0  0  0  0
    1.3447   -2.3648    0.0000 C   0  0  0  0  0  0  0  0  0  0  0  0
    4.2325    0.3476    0.0000 C   0  0  0  0  0  0  0  0  0  0  0  0
    3.8139   -1.0928    0.0000 O   0  0  0  0  0  0  0  0  0  0  0  0
    5.7269    0.2181    0.0000 N   0  0  0  0  0  0  0  0  0  0  0  0
    7.2085    1.2640    0.0000 C   0  0  0  0  0  0  0  0  0  0  0  0
    7.8947    2.5978    0.0000 C   0  0  0  0  0  0  0  0  0  0  0  0
    9.0917    3.5018    0.0000 C   0  0  0  0  0  0  0  0  0  0  0  0
    7.7754    4.2211    0.0000 C   0  0  0  0  0  0  0  0  0  0  0  0
    7.2293    5.6182    0.0000 N   0  0  0  0  0  0  0  0  0  0  0  0
    7.7091    7.0394    0.0000 C   0  0  0  0  0  0  0  0  0  0  0  0
    8.9901    7.8197    0.0000 C   0  0  0  0  0  0  0  0  0  0  0  0
   10.4731    7.5941    0.0000 C   0  0  0  0  0  0  0  0  0  0  0  0
   11.4640    6.4680    0.0000 C   0  0  0  0  0  0  0  0  0  0  0  0
   11.4993    4.9684    0.0000 C   0  0  0  0  0  0  0  0  0  0  0  0
   10.5624    3.7970    0.0000 C   0  0  0  0  0  0  0  0  0  0  0  0
    7.1690   -0.2355    0.0000 C   0  0  0  0  0  0  0  0  0  0  0  0
    5.9019   -1.0382    0.0000 O   0  0  0  0  0  0  0  0  0  0  0  0
    7.7840   -1.6036    0.0000 N   0  0  0  0  0  0  0  0  0  0  0  0
    8.9317   -2.5694    0.0000 C   0  0  0  0  0  0  0  0  0  0  0  0
    7.6134   -3.2850    0.0000 C   0  0  0  0  0  0  0  0  0  0  0  0
    7.5739   -4.7844    0.0000 C   0  0  0  0  0  0  0  0  0  0  0  0
    6.2555   -5.5000    0.0000 C   0  0  0  0  0  0  0  0  0  0  0  0
    6.2160   -6.9994    0.0000 C   0  0  0  0  0  0  0  0  0  0  0  0
    4.8977   -7.7150    0.0000 N   0  0  0  0  0  0  0  0  0  0  0  0
   10.3848   -2.9416    0.0000 C   0  0  0  0  0  0  0  0  0  0  0  0
   10.3453   -4.4411    0.0000 O   0  0  0  0  0  0  0  0  0  0  0  0
   11.8555   -2.6465    0.0000 N   0  0  0  0  0  0  0  0  0  0  0  0
   13.0525   -1.7425    0.0000 C   0  0  0  0  0  0  0  0  0  0  0  0
   13.7387   -0.4086    0.0000 C   0  0  0  0  0  0  0  0  0  0  0  0
   13.7782    1.0909    0.0000 C   0  0  0  0  0  0  0  0  0  0  0  0
   13.1632    2.4590    0.0000 C   0  0  0  0  0  0  0  0  0  0  0  0
   12.0155    3.4248    0.0000 C   0  0  0  0  0  0  0  0  0  0  0  0
   14.5152   -2.0747    0.0000 C   0  0  0  0  0  0  0  0  0  0  0  0
   13.4567   -3.1870    0.0000 C   0  0  0  0  0  0  0  0  0  0  0  0
   12.5463   -4.3792    0.0000 O   0  0  0  0  0  0  0  0  0  0  0  0
   14.9098   -3.5592    0.0000 N   0  0  0  0  0  0  0  0  0  0  0  0
   15.3140   -5.0037    0.0000 C   0  0  0  0  0  0  0  0  0  0  0  0
   15.1998   -6.4993    0.0000 C   0  0  0  0  0  0  0  0  0  0  0  0
   13.8474   -7.1482    0.0000 C   0  0  0  0  0  0  0  0  0  0  0  0
   13.7332   -8.6439    0.0000 C   0  0  0  0  0  0  0  0  0  0  0  0
   12.3547   -7.2955    0.0000 C   0  0  0  0  0  0  0  0  0  0  0  0
   16.7671   -5.3759    0.0000 C   0  0  0  0  0  0  0  0  0  0  0  0
   17.3444   -6.7603    0.0000 O   0  0  0  0  0  0  0  0  0  0  0  0
   17.8160   -4.3035    0.0000 O   0  0  0  0  0  0  0  0  0  0  0  0
  -12.9834   -2.1411    0.0000 H   0  0  0  0  0  0  0  0  0  0  0  0
  -15.2214    1.7543    0.0000 H   0  0  0  0  0  0  0  0  0  0  0  0
  -18.2187    1.8827    0.0000 H   0  0  0  0  0  0  0  0  0  0  0  0
  -15.1427   -3.2297    0.0000 H   0  0  0  0  0  0  0  0  0  0  0  0
  -20.5024   -7.9822    0.0000 H   0  0  0  0  0  0  0  0  0  0  0  0
  -23.8109   -3.9754    0.0000 H   0  0  0  0  0  0  0  0  0  0  0  0
  -21.4975   -2.0653    0.0000 H   0  0  0  0  0  0  0  0  0  0  0  0
  -24.7188   -6.4097    0.0000 H   0  0  0  0  0  0  0  0  0  0  0  0
  -16.3733   -1.2035    0.0000 H   0  0  0  0  0  0  0  0  0  0  0  0
  -13.4547   -2.4000    0.0000 H   0  0  0  0  0  0  0  0  0  0  0  0
  -15.3783   -7.1204    0.0000 H   0  0  0  0  0  0  0  0  0  0  0  0
  -12.8162   -6.6895    0.0000 H   0  0  0  0  0  0  0  0  0  0  0  0
  -10.8368   -1.0340    0.0000 H   0  0  0  0  0  0  0  0  0  0  0  0
  -12.1118    2.1346    0.0000 H   0  0  0  0  0  0  0  0  0  0  0  0
  -10.4021    3.0264    0.0000 H   0  0  0  0  0  0  0  0  0  0  0  0
   -9.3694    0.0043    0.0000 H   0  0  0  0  0  0  0  0  0  0  0  0
   -7.8406    0.9246    0.0000 H   0  0  0  0  0  0  0  0  0  0  0  0
   -6.0727    1.4635    0.0000 H   0  0  0  0  0  0  0  0  0  0  0  0
   -5.0117    2.9523    0.0000 H   0  0  0  0  0  0  0  0  0  0  0  0
   -8.6115    5.5501    0.0000 H   0  0  0  0  0  0  0  0  0  0  0  0
   -6.6998    5.8034    0.0000 H   0  0  0  0  0  0  0  0  0  0  0  0
  -10.2773    5.6834    0.0000 H   0  0  0  0  0  0  0  0  0  0  0  0
  -12.6559    3.8552    0.0000 H   0  0  0  0  0  0  0  0  0  0  0  0
  -12.2619    0.8812    0.0000 H   0  0  0  0  0  0  0  0  0  0  0  0
   -9.6720   -0.2775    0.0000 H   0  0  0  0  0  0  0  0  0  0  0  0
   -7.1909    1.3989    0.0000 H   0  0  0  0  0  0  0  0  0  0  0  0
   -3.3459    2.8189    0.0000 H   0  0  0  0  0  0  0  0  0  0  0  0
   -1.6599    3.8901    0.0000 H   0  0  0  0  0  0  0  0  0  0  0  0
   -4.1540    7.5625    0.0000 H   0  0  0  0  0  0  0  0  0  0  0  0
   -2.2710    7.1467    0.0000 H   0  0  0  0  0  0  0  0  0  0  0  0
   -5.9973    6.7928    0.0000 H   0  0  0  0  0  0  0  0  0  0  0  0
   -0.3162    3.2454    0.0000 H   0  0  0  0  0  0  0  0  0  0  0  0
    1.8529    7.8733    0.0000 H   0  0  0  0  0  0  0  0  0  0  0  0
    0.8376    6.7538    0.0000 H   0  0  0  0  0  0  0  0  0  0  0  0
    3.3998    8.9072    0.0000 H   0  0  0  0  0  0  0  0  0  0  0  0
    2.2165    8.2568    0.0000 H   0  0  0  0  0  0  0  0  0  0  0  0
    5.5751    9.1915    0.0000 H   0  0  0  0  0  0  0  0  0  0  0  0
    4.0657    9.1178    0.0000 H   0  0  0  0  0  0  0  0  0  0  0  0
    6.7966    9.1713    0.0000 H   0  0  0  0  0  0  0  0  0  0  0  0
   -0.8214    6.3279    0.0000 H   0  0  0  0  0  0  0  0  0  0  0  0
    0.3243    7.7045    0.0000 H   0  0  0  0  0  0  0  0  0  0  0  0
    1.5373    7.4661    0.0000 H   0  0  0  0  0  0  0  0  0  0  0  0
    0.5435    1.6305    0.0000 H   0  0  0  0  0  0  0  0  0  0  0  0
    2.9550   -0.4599    0.0000 H   0  0  0  0  0  0  0  0  0  0  0  0
   -0.0084    0.8333    0.0000 H   0  0  0  0  0  0  0  0  0  0  0  0
    0.7543    1.9045    0.0000 H   0  0  0  0  0  0  0  0  0  0  0  0
    2.6273   -1.1242    0.0000 H   0  0  0  0  0  0  0  0  0  0  0  0
   -0.7821   -2.7444    0.0000 H   0  0  0  0  0  0  0  0  0  0  0  0
   -1.7811   -1.2658    0.0000 H   0  0  0  0  0  0  0  0  0  0  0  0
   -0.6593    0.1219    0.0000 H   0  0  0  0  0  0  0  0  0  0  0  0
    0.2757   -3.4171    0.0000 H   0  0  0  0  0  0  0  0  0  0  0  0
    2.0384   -3.6948    0.0000 H   0  0  0  0  0  0  0  0  0  0  0  0
    2.7749   -1.9126    0.0000 H   0  0  0  0  0  0  0  0  0  0  0  0
    5.7084   -1.2818    0.0000 H   0  0  0  0  0  0  0  0  0  0  0  0
    5.7554    1.6362    0.0000 H   0  0  0  0  0  0  0  0  0  0  0  0
    7.1530    3.9016    0.0000 H   0  0  0  0  0  0  0  0  0  0  0  0
    6.3951    2.5662    0.0000 H   0  0  0  0  0  0  0  0  0  0  0  0
    6.5369    3.3748    0.0000 H   0  0  0  0  0  0  0  0  0  0  0  0
    5.7298    5.5829    0.0000 H   0  0  0  0  0  0  0  0  0  0  0  0
    8.6950    9.2904    0.0000 H   0  0  0  0  0  0  0  0  0  0  0  0
   11.1923    8.9104    0.0000 H   0  0  0  0  0  0  0  0  0  0  0  0
   12.8611    7.0140    0.0000 H   0  0  0  0  0  0  0  0  0  0  0  0
   12.9684    4.6655    0.0000 H   0  0  0  0  0  0  0  0  0  0  0  0
    6.4858   -2.3550    0.0000 H   0  0  0  0  0  0  0  0  0  0  0  0
    9.2962   -4.0245    0.0000 H   0  0  0  0  0  0  0  0  0  0  0  0
    6.1139   -3.3239    0.0000 H   0  0  0  0  0  0  0  0  0  0  0  0
    6.6594   -2.1274    0.0000 H   0  0  0  0  0  0  0  0  0  0  0  0
    8.2194   -6.1384    0.0000 H   0  0  0  0  0  0  0  0  0  0  0  0
    9.0734   -4.7455    0.0000 H   0  0  0  0  0  0  0  0  0  0  0  0
    4.7720   -5.7214    0.0000 H   0  0  0  0  0  0  0  0  0  0  0  0
    5.6099   -4.1460    0.0000 H   0  0  0  0  0  0  0  0  0  0  0  0
    6.6917   -8.4220    0.0000 H   0  0  0  0  0  0  0  0  0  0  0  0
    7.7155   -6.9605    0.0000 H   0  0  0  0  0  0  0  0  0  0  0  0
    4.8581   -9.2144    0.0000 H   0  0  0  0  0  0  0  0  0  0  0  0
    3.6188   -6.9310    0.0000 H   0  0  0  0  0  0  0  0  0  0  0  0
   12.2991   -4.0794    0.0000 H   0  0  0  0  0  0  0  0  0  0  0  0
   14.8595   -1.4055    0.0000 H   0  0  0  0  0  0  0  0  0  0  0  0
   15.1489    0.1024    0.0000 H   0  0  0  0  0  0  0  0  0  0  0  0
   15.2205    0.6790    0.0000 H   0  0  0  0  0  0  0  0  0  0  0  0
   14.9499    2.0273    0.0000 H   0  0  0  0  0  0  0  0  0  0  0  0
   14.6414    2.7137    0.0000 H   0  0  0  0  0  0  0  0  0  0  0  0
   13.6429    3.8802    0.0000 H   0  0  0  0  0  0  0  0  0  0  0  0
   12.8591    4.6650    0.0000 H   0  0  0  0  0  0  0  0  0  0  0  0
   15.4279   -3.0708    0.0000 H   0  0  0  0  0  0  0  0  0  0  0  0
   15.9989   -1.5258    0.0000 H   0  0  0  0  0  0  0  0  0  0  0  0
   15.0412   -0.4806    0.0000 H   0  0  0  0  0  0  0  0  0  0  0  0
   15.9586   -2.4868    0.0000 H   0  0  0  0  0  0  0  0  0  0  0  0
   13.8144   -4.9679    0.0000 H   0  0  0  0  0  0  0  0  0  0  0  0
   15.7771   -7.8838    0.0000 H   0  0  0  0  0  0  0  0  0  0  0  0
   16.6994   -6.5351    0.0000 H   0  0  0  0  0  0  0  0  0  0  0  0
   13.2701   -5.7638    0.0000 H   0  0  0  0  0  0  0  0  0  0  0  0
   12.4700   -9.4528    0.0000 H   0  0  0  0  0  0  0  0  0  0  0  0
   14.1374  -10.0884    0.0000 H   0  0  0  0  0  0  0  0  0  0  0  0
   15.2328   -8.6797    0.0000 H   0  0  0  0  0  0  0  0  0  0  0  0
   11.5739   -8.5762    0.0000 H   0  0  0  0  0  0  0  0  0  0  0  0
   10.9016   -6.9233    0.0000 H   0  0  0  0  0  0  0  0  0  0  0  0
   12.4689   -5.7998    0.0000 H   0  0  0  0  0  0  0  0  0  0  0  0
   19.2691   -4.6757    0.0000 H   0  0  0  0  0  0  0  0  0  0  0  0
  1  2  1  0
  2  3  1  0
  3  4  2  0
  4  5  1  0
  5  6  2  0
  6  7  1  0
  7  8  2  0
  7  9  1  0
  9 10  1  0
 10 11  1  0
 11 12  2  0
  9 13  1  0
 13 14  1  0
 14 15  2  0
 15 16  1  0
 16 17  2  0
 17 18  1  0
 16 19  1  0
 14 20  1  0
 20 21  1  0
 21 22  2  0
 22 23  1  0
 23 24  2  0
 24 25  1  0
 25 26  2  0
 25 27  1  0
  1 28  2  0
  1 29  1  0
 29 30  1  0
 30 31  1  0
 31 32  1  0
 32 33  2  0
 32 34  1  0
 34 35  1  0
 35 36  1  0
 36 37  1  0
 37 38  2  0
 38 39  1  0
 39 40  2  0
 40 41  1  0
 41 42  2  0
 35 43  1  0
 43 44  2  0
 43 45  1  0
 45 46  1  0
 46 47  1  0
 47 48  1  0
 46 49  1  0
 49 50  2  0
 49 51  1  0
 52 51  1  1
 52 53  1  0
 53 54  1  0
 54 55  1  0
 55 56  1  0
 52 57  1  0
 52 58  1  0
 58 59  2  0
 58 60  1  0
 60 61  1  0
 61 62  1  0
 62 63  1  0
 63 64  1  0
 63 65  1  0
 61 66  1  0
 66 67  2  0
 66 68  1  0
 68 69  1  0
 69 70  1  0
 70 71  1  0
 71 72  2  0
 72 73  1  0
 73 74  1  0
 74 75  1  0
 75 76  2  0
 76 77  1  0
 77 78  2  0
 78 79  1  0
 69 80  1  0
 80 81  2  0
 80 82  1  0
 82 83  1  0
 83 84  1  0
 84 85  1  0
 85 86  1  0
 86 87  1  0
 87 88  1  0
 83 89  1  0
 89 90  2  0
 89 91  1  0
 91 92  1  0
 92 93  1  0
 93 94  1  0
 94 95  1  0
 95 96  1  0
 92 97  1  0
 92 98  1  1
 98 99  2  0
 98100  1  0
100101  1  0
101102  1  0
102103  1  0
103104  1  0
103105  1  0
101106  1  0
106107  2  0
106108  1  0
  8  3  1  0
 42 37  1  0
 79 71  1  0
 11  6  1  0
 56 74  2  0
 96 79  2  0
 18 13  2  0
 22  9  1  0
 26 21  1  0
  2109  1  0
  4110  1  0
  5111  1  0
  8112  1  0
 15113  1  0
 17114  1  0
 18115  1  0
 19116  1  0
 23117  1  0
 24118  1  0
 26119  1  0
 27120  1  0
 29121  1  0
 30122  1  0
 30123  1  0
 31124  1  0
 31125  1  0
 34126  1  0
 35127  1  1
 36128  1  0
 36129  1  0
 38130  1  0
 39131  1  0
 40132  1  0
 41133  1  0
 42134  1  0
 45135  1  0
 46136  1  1
 47137  1  0
 47138  1  0
 48139  1  0
 51140  1  0
 53141  1  0
 53142  1  0
 54143  1  0
 54144  1  0
 55145  1  0
 55146  1  0
 56147  1  0
 57148  1  0
 57149  1  0
 57150  1  0
 60151  1  0
 61152  1  6
 62153  1  0
 62154  1  0
 63155  1  0
 64156  1  0
 64157  1  0
 64158  1  0
 65159  1  0
 65160  1  0
 65161  1  0
 68162  1  0
 69163  1  1
 70164  1  0
 70165  1  0
 72166  1  0
 73167  1  0
 75168  1  0
 76169  1  0
 77170  1  0
 78171  1  0
 82172  1  0
 83173  1  6
 84174  1  0
 84175  1  0
 85176  1  0
 85177  1  0
 86178  1  0
 86179  1  0
 87180  1  0
 87181  1  0
 88182  1  0
 88183  1  0
 91184  1  0
 93185  1  0
 93186  1  0
 94187  1  0
 94188  1  0
 95189  1  0
 95190  1  0
 96191  1  0
 97192  1  0
 97193  1  0
 97194  1  0
100195  1  0
101196  1  6
102197  1  0
102198  1  0
103199  1  0
104200  1  0
104201  1  0
104202  1  0
105203  1  0
105204  1  0
105205  1  0
108206  1  0
M  END
