
     RDKit          2D

315318  0  0  0  0  0  0  0  0999 V2000
   24.1963    5.2465    0.0000 N   0  0  0  0  0  0  0  0  0  0  0  0
   22.8185    4.6535    0.0000 C   0  0  0  0  0  0  0  0  0  0  0  0
   21.6160    5.5501    0.0000 C   0  0  0  0  0  0  0  0  0  0  0  0
   20.2382    4.9571    0.0000 C   0  0  0  0  0  0  0  0  0  0  0  0
   20.0629    3.4673    0.0000 O   0  0  0  0  0  0  0  0  0  0  0  0
   19.0357    5.8537    0.0000 N   0  0  0  0  0  0  0  0  0  0  0  0
   17.6580    5.2607    0.0000 C   0  0  0  0  0  0  0  0  0  0  0  0
   17.3132    6.7205    0.0000 C   0  0  0  0  0  0  0  0  0  0  0  0
   18.4050    7.7490    0.0000 C   0  0  0  0  0  0  0  0  0  0  0  0
   18.0602    9.2089    0.0000 C   0  0  0  0  0  0  0  0  0  0  0  0
   19.1521   10.2374    0.0000 O   0  0  0  0  0  0  0  0  0  0  0  0
   16.6236    9.6402    0.0000 O   0  0  0  0  0  0  0  0  0  0  0  0
   16.5661    4.2322    0.0000 C   0  0  0  0  0  0  0  0  0  0  0  0
   15.1927    4.8354    0.0000 O   0  0  0  0  0  0  0  0  0  0  0  0
   16.9109    2.7723    0.0000 N   0  0  0  0  0  0  0  0  0  0  0  0
   15.8190    1.7438    0.0000 C   0  0  0  0  0  0  0  0  0  0  0  0
   14.9957    2.9977    0.0000 C   0  0  0  0  0  0  0  0  0  0  0  0
   13.4982    2.9116    0.0000 C   0  0  0  0  0  0  0  0  0  0  0  0
   12.6749    4.1655    0.0000 C   0  0  0  0  0  0  0  0  0  0  0  0
   11.1774    4.0794    0.0000 N   0  0  0  0  0  0  0  0  0  0  0  0
   10.3541    5.3333    0.0000 C   0  0  0  0  0  0  0  0  0  0  0  0
    8.8566    5.2472    0.0000 N   0  0  0  0  0  0  0  0  0  0  0  0
   11.0283    6.6732    0.0000 N   0  0  0  0  0  0  0  0  0  0  0  0
   15.1448    0.4039    0.0000 C   0  0  0  0  0  0  0  0  0  0  0  0
   13.6473    0.3178    0.0000 O   0  0  0  0  0  0  0  0  0  0  0  0
   15.9681   -0.8500    0.0000 N   0  0  0  0  0  0  0  0  0  0  0  0
   15.2939   -2.1899    0.0000 C   0  0  0  0  0  0  0  0  0  0  0  0
   16.7305   -2.6212    0.0000 C   0  0  0  0  0  0  0  0  0  0  0  0
   17.8224   -1.5927    0.0000 C   0  0  0  0  0  0  0  0  0  0  0  0
   19.2590   -2.0240    0.0000 C   0  0  0  0  0  0  0  0  0  0  0  0
   18.4966   -0.2528    0.0000 C   0  0  0  0  0  0  0  0  0  0  0  0
   14.2020   -3.2184    0.0000 C   0  0  0  0  0  0  0  0  0  0  0  0
   14.5675   -3.9268    0.0000 O   0  0  0  0  0  0  0  0  0  0  0  0
   12.7653   -2.7871    0.0000 N   0  0  0  0  0  0  0  0  0  0  0  0
   11.6735   -3.8156    0.0000 C   0  0  0  0  0  0  0  0  0  0  0  0
   12.8760   -4.7123    0.0000 C   0  0  0  0  0  0  0  0  0  0  0  0
   14.2538   -4.1192    0.0000 C   0  0  0  0  0  0  0  0  0  0  0  0
   15.4563   -5.0159    0.0000 C   0  0  0  0  0  0  0  0  0  0  0  0
   16.8340   -4.4229    0.0000 N   0  0  0  0  0  0  0  0  0  0  0  0
   18.0365   -5.3195    0.0000 C   0  0  0  0  0  0  0  0  0  0  0  0
   19.4143   -4.7265    0.0000 N   0  0  0  0  0  0  0  0  0  0  0  0
   17.8612   -6.8092    0.0000 N   0  0  0  0  0  0  0  0  0  0  0  0
   10.2957   -4.4087    0.0000 C   0  0  0  0  0  0  0  0  0  0  0  0
   10.4861   -5.8965    0.0000 O   0  0  0  0  0  0  0  0  0  0  0  0
    9.0932   -3.5120    0.0000 N   0  0  0  0  0  0  0  0  0  0  0  0
    7.7154   -4.1051    0.0000 C   0  0  0  0  0  0  0  0  0  0  0  0
    8.5387   -5.3589    0.0000 C   0  0  0  0  0  0  0  0  0  0  0  0
   10.0363   -5.2729    0.0000 C   0  0  0  0  0  0  0  0  0  0  0  0
   10.8595   -6.5267    0.0000 C   0  0  0  0  0  0  0  0  0  0  0  0
   12.3571   -6.4407    0.0000 N   0  0  0  0  0  0  0  0  0  0  0  0
   13.1804   -7.6946    0.0000 C   0  0  0  0  0  0  0  0  0  0  0  0
   14.6779   -7.6085    0.0000 N   0  0  0  0  0  0  0  0  0  0  0  0
   12.5061   -9.0345    0.0000 N   0  0  0  0  0  0  0  0  0  0  0  0
    6.2179   -4.1911    0.0000 C   0  0  0  0  0  0  0  0  0  0  0  0
    6.0688   -5.6837    0.0000 O   0  0  0  0  0  0  0  0  0  0  0  0
    5.3946   -2.9373    0.0000 N   0  0  0  0  0  0  0  0  0  0  0  0
    3.8971   -3.0233    0.0000 C   0  0  0  0  0  0  0  0  0  0  0  0
    4.2419   -4.4831    0.0000 C   0  0  0  0  0  0  0  0  0  0  0  0
    5.6785   -4.9145    0.0000 C   0  0  0  0  0  0  0  0  0  0  0  0
    6.0233   -6.3743    0.0000 C   0  0  0  0  0  0  0  0  0  0  0  0
    7.4600   -6.8056    0.0000 N   0  0  0  0  0  0  0  0  0  0  0  0
    7.8048   -8.2654    0.0000 C   0  0  0  0  0  0  0  0  0  0  0  0
    9.2414   -8.6968    0.0000 N   0  0  0  0  0  0  0  0  0  0  0  0
    6.7129   -9.2940    0.0000 N   0  0  0  0  0  0  0  0  0  0  0  0
    2.4604   -2.5920    0.0000 C   0  0  0  0  0  0  0  0  0  0  0  0
    1.6499   -3.8541    0.0000 O   0  0  0  0  0  0  0  0  0  0  0  0
    2.1156   -1.1322    0.0000 N   0  0  0  0  0  0  0  0  0  0  0  0
    0.6790   -0.7008    0.0000 C   0  0  0  0  0  0  0  0  0  0  0  0
    0.5037   -2.1906    0.0000 C   0  0  0  0  0  0  0  0  0  0  0  0
    1.7062   -3.0872    0.0000 C   0  0  0  0  0  0  0  0  0  0  0  0
    1.5309   -4.5770    0.0000 C   0  0  0  0  0  0  0  0  0  0  0  0
    2.7334   -5.4736    0.0000 C   0  0  0  0  0  0  0  0  0  0  0  0
    4.1112   -4.8806    0.0000 C   0  0  0  0  0  0  0  0  0  0  0  0
    4.2865   -3.3908    0.0000 C   0  0  0  0  0  0  0  0  0  0  0  0
    3.0840   -2.4942    0.0000 C   0  0  0  0  0  0  0  0  0  0  0  0
   -0.5235    0.1958    0.0000 C   0  0  0  0  0  0  0  0  0  0  0  0
   -1.5972   -0.8517    0.0000 O   0  0  0  0  0  0  0  0  0  0  0  0
   -0.3482    1.6855    0.0000 N   0  0  0  0  0  0  0  0  0  0  0  0
   -1.5507    2.5822    0.0000 C   0  0  0  0  0  0  0  0  0  0  0  0
   -1.8735    1.1174    0.0000 C   0  0  0  0  0  0  0  0  0  0  0  0
   -2.6136   -0.1873    0.0000 C   0  0  0  0  0  0  0  0  0  0  0  0
   -3.7055   -1.2158    0.0000 C   0  0  0  0  0  0  0  0  0  0  0  0
   -5.0520   -1.8768    0.0000 C   0  0  0  0  0  0  0  0  0  0  0  0
   -0.2388    3.3095    0.0000 C   0  0  0  0  0  0  0  0  0  0  0  0
   -1.6741    4.0771    0.0000 C   0  0  0  0  0  0  0  0  0  0  0  0
   -0.2142    4.4219    0.0000 O   0  0  0  0  0  0  0  0  0  0  0  0
   -2.2326    5.4693    0.0000 N   0  0  0  0  0  0  0  0  0  0  0  0
   -3.1766    6.6349    0.0000 C   0  0  0  0  0  0  0  0  0  0  0  0
   -2.9273    8.1141    0.0000 C   0  0  0  0  0  0  0  0  0  0  0  0
   -1.5217    8.6377    0.0000 C   0  0  0  0  0  0  0  0  0  0  0  0
   -1.2723   10.1168    0.0000 C   0  0  0  0  0  0  0  0  0  0  0  0
   -0.0217    8.6490    0.0000 C   0  0  0  0  0  0  0  0  0  0  0  0
   -4.4223    7.4706    0.0000 C   0  0  0  0  0  0  0  0  0  0  0  0
   -3.7817    8.8269    0.0000 O   0  0  0  0  0  0  0  0  0  0  0  0
   -5.8590    7.9019    0.0000 N   0  0  0  0  0  0  0  0  0  0  0  0
   -7.3589    7.8906    0.0000 C   0  0  0  0  0  0  0  0  0  0  0  0
   -8.3599    9.0077    0.0000 C   0  0  0  0  0  0  0  0  0  0  0  0
   -7.8929   10.4332    0.0000 S   0  0  0  0  0  0  0  0  0  0  0  0
   -8.7889    7.4376    0.0000 C   0  0  0  0  0  0  0  0  0  0  0  0
   -9.4499    8.7842    0.0000 O   0  0  0  0  0  0  0  0  0  0  0  0
  -10.0219    6.5833    0.0000 N   0  0  0  0  0  0  0  0  0  0  0  0
  -10.9482    5.4036    0.0000 C   0  0  0  0  0  0  0  0  0  0  0  0
  -12.4458    5.3175    0.0000 C   0  0  0  0  0  0  0  0  0  0  0  0
  -13.2691    6.5714    0.0000 C   0  0  0  0  0  0  0  0  0  0  0  0
  -14.7666    6.4853    0.0000 C   0  0  0  0  0  0  0  0  0  0  0  0
  -15.5899    7.7392    0.0000 N   0  0  0  0  0  0  0  0  0  0  0  0
  -17.0874    7.6531    0.0000 C   0  0  0  0  0  0  0  0  0  0  0  0
  -17.9107    8.9070    0.0000 N   0  0  0  0  0  0  0  0  0  0  0  0
  -17.7617    6.3132    0.0000 N   0  0  0  0  0  0  0  0  0  0  0  0
  -11.4857    4.0032    0.0000 C   0  0  0  0  0  0  0  0  0  0  0  0
  -12.9506    4.3259    0.0000 O   0  0  0  0  0  0  0  0  0  0  0  0
  -11.5865    2.5066    0.0000 N   0  0  0  0  0  0  0  0  0  0  0  0
  -11.2417    1.0467    0.0000 C   0  0  0  0  0  0  0  0  0  0  0  0
  -10.4820   -0.2466    0.0000 C   0  0  0  0  0  0  0  0  0  0  0  0
   -9.3747   -1.2586    0.0000 C   0  0  0  0  0  0  0  0  0  0  0  0
   -8.0184   -1.8992    0.0000 C   0  0  0  0  0  0  0  0  0  0  0  0
   -6.5335   -2.1116    0.0000 C   0  0  0  0  0  0  0  0  0  0  0  0
  -12.7142    1.3329    0.0000 C   0  0  0  0  0  0  0  0  0  0  0  0
  -12.1082   -0.1777    0.0000 C   0  0  0  0  0  0  0  0  0  0  0  0
  -11.8293   -1.6516    0.0000 O   0  0  0  0  0  0  0  0  0  0  0  0
  -13.6018   -0.0396    0.0000 N   0  0  0  0  0  0  0  0  0  0  0  0
  -14.4682   -1.2641    0.0000 C   0  0  0  0  0  0  0  0  0  0  0  0
  -14.8636   -2.7111    0.0000 C   0  0  0  0  0  0  0  0  0  0  0  0
  -16.3143   -3.0921    0.0000 C   0  0  0  0  0  0  0  0  0  0  0  0
  -16.8588   -4.4898    0.0000 C   0  0  0  0  0  0  0  0  0  0  0  0
  -18.3563   -4.4040    0.0000 N   0  0  0  0  0  0  0  0  0  0  0  0
  -18.7374   -2.9532    0.0000 C   0  0  0  0  0  0  0  0  0  0  0  0
  -17.4754   -2.1424    0.0000 N   0  0  0  0  0  0  0  0  0  0  0  0
  -15.9618   -1.1260    0.0000 C   0  0  0  0  0  0  0  0  0  0  0  0
  -16.5890    0.2366    0.0000 O   0  0  0  0  0  0  0  0  0  0  0  0
  -16.8282   -2.3505    0.0000 N   0  0  0  0  0  0  0  0  0  0  0  0
  -18.3219   -2.2124    0.0000 C   0  0  0  0  0  0  0  0  0  0  0  0
  -19.6782   -1.5718    0.0000 C   0  0  0  0  0  0  0  0  0  0  0  0
  -19.8015   -0.0768    0.0000 C   0  0  0  0  0  0  0  0  0  0  0  0
  -21.0835    0.7020    0.0000 C   0  0  0  0  0  0  0  0  0  0  0  0
  -20.7388    2.1619    0.0000 N   0  0  0  0  0  0  0  0  0  0  0  0
  -19.2439    2.2853    0.0000 C   0  0  0  0  0  0  0  0  0  0  0  0
  -18.6646    0.9017    0.0000 N   0  0  0  0  0  0  0  0  0  0  0  0
  -19.1883   -3.4369    0.0000 C   0  0  0  0  0  0  0  0  0  0  0  0
  -18.9094   -4.9107    0.0000 O   0  0  0  0  0  0  0  0  0  0  0  0
  -20.6819   -3.2988    0.0000 N   0  0  0  0  0  0  0  0  0  0  0  0
  -21.5483   -4.5232    0.0000 C   0  0  0  0  0  0  0  0  0  0  0  0
  -21.9437   -5.9702    0.0000 C   0  0  0  0  0  0  0  0  0  0  0  0
  -23.1615   -6.8460    0.0000 O   0  0  0  0  0  0  0  0  0  0  0  0
  -23.0419   -4.3851    0.0000 C   0  0  0  0  0  0  0  0  0  0  0  0
  -23.6692   -3.0226    0.0000 O   0  0  0  0  0  0  0  0  0  0  0  0
  -23.9084   -5.6096    0.0000 N   0  0  0  0  0  0  0  0  0  0  0  0
  -25.4020   -5.4715    0.0000 C   0  0  0  0  0  0  0  0  0  0  0  0
  -26.7583   -4.8309    0.0000 C   0  0  0  0  0  0  0  0  0  0  0  0
  -28.2519   -4.6928    0.0000 O   0  0  0  0  0  0  0  0  0  0  0  0
  -26.8817   -3.3360    0.0000 C   0  0  0  0  0  0  0  0  0  0  0  0
  -26.2684   -6.6960    0.0000 C   0  0  0  0  0  0  0  0  0  0  0  0
  -27.7677   -6.7410    0.0000 O   0  0  0  0  0  0  0  0  0  0  0  0
  -25.6412   -8.0585    0.0000 O   0  0  0  0  0  0  0  0  0  0  0  0
   25.3988    4.3498    0.0000 H   0  0  0  0  0  0  0  0  0  0  0  0
   24.3716    6.7362    0.0000 H   0  0  0  0  0  0  0  0  0  0  0  0
   23.6418    3.3996    0.0000 H   0  0  0  0  0  0  0  0  0  0  0  0
   21.7266    3.6249    0.0000 H   0  0  0  0  0  0  0  0  0  0  0  0
   22.7079    6.5786    0.0000 H   0  0  0  0  0  0  0  0  0  0  0  0
   20.7927    6.8040    0.0000 H   0  0  0  0  0  0  0  0  0  0  0  0
   19.3913    7.3110    0.0000 H   0  0  0  0  0  0  0  0  0  0  0  0
   18.4812    4.0068    0.0000 H   0  0  0  0  0  0  0  0  0  0  0  0
   16.4899    7.9744    0.0000 H   0  0  0  0  0  0  0  0  0  0  0  0
   15.9354    6.1275    0.0000 H   0  0  0  0  0  0  0  0  0  0  0  0
   19.7828    8.3421    0.0000 H   0  0  0  0  0  0  0  0  0  0  0  0
   19.6230    6.8736    0.0000 H   0  0  0  0  0  0  0  0  0  0  0  0
   18.3475    2.3410    0.0000 H   0  0  0  0  0  0  0  0  0  0  0  0
   16.9033    0.7073    0.0000 H   0  0  0  0  0  0  0  0  0  0  0  0
   14.6509    4.4575    0.0000 H   0  0  0  0  0  0  0  0  0  0  0  0
   16.1891    3.9065    0.0000 H   0  0  0  0  0  0  0  0  0  0  0  0
   12.1204    2.3186    0.0000 H   0  0  0  0  0  0  0  0  0  0  0  0
   13.8430    1.4518    0.0000 H   0  0  0  0  0  0  0  0  0  0  0  0
   12.3301    5.6253    0.0000 H   0  0  0  0  0  0  0  0  0  0  0  0
   13.9701    4.9221    0.0000 H   0  0  0  0  0  0  0  0  0  0  0  0
   10.5032    2.7395    0.0000 H   0  0  0  0  0  0  0  0  0  0  0  0
    8.0333    6.5011    0.0000 H   0  0  0  0  0  0  0  0  0  0  0  0
    8.1823    3.9073    0.0000 H   0  0  0  0  0  0  0  0  0  0  0  0
   10.2050    7.9271    0.0000 H   0  0  0  0  0  0  0  0  0  0  0  0
   12.5259    6.7593    0.0000 H   0  0  0  0  0  0  0  0  0  0  0  0
   17.4440   -0.5820    0.0000 H   0  0  0  0  0  0  0  0  0  0  0  0
   14.0914   -1.2932    0.0000 H   0  0  0  0  0  0  0  0  0  0  0  0
   17.8147   -3.6578    0.0000 H   0  0  0  0  0  0  0  0  0  0  0  0
   16.4005   -4.0845    0.0000 H   0  0  0  0  0  0  0  0  0  0  0  0
   17.0212   -0.3246    0.0000 H   0  0  0  0  0  0  0  0  0  0  0  0
   20.4681   -1.1363    0.0000 H   0  0  0  0  0  0  0  0  0  0  0  0
   20.4615   -2.9207    0.0000 H   0  0  0  0  0  0  0  0  0  0  0  0
   18.7531   -3.4361    0.0000 H   0  0  0  0  0  0  0  0  0  0  0  0
   19.9725    0.0152    0.0000 H   0  0  0  0  0  0  0  0  0  0  0  0
   18.6719    1.2369    0.0000 H   0  0  0  0  0  0  0  0  0  0  0  0
   17.0181    0.0002    0.0000 H   0  0  0  0  0  0  0  0  0  0  0  0
   12.4206   -1.3273    0.0000 H   0  0  0  0  0  0  0  0  0  0  0  0
   10.8502   -2.5618    0.0000 H   0  0  0  0  0  0  0  0  0  0  0  0
   13.5403   -6.0572    0.0000 H   0  0  0  0  0  0  0  0  0  0  0  0
   12.0654   -5.9744    0.0000 H   0  0  0  0  0  0  0  0  0  0  0  0
   15.3456   -3.0907    0.0000 H   0  0  0  0  0  0  0  0  0  0  0  0
   13.7583   -2.7034    0.0000 H   0  0  0  0  0  0  0  0  0  0  0  0
   16.2796   -6.2698    0.0000 H   0  0  0  0  0  0  0  0  0  0  0  0
   14.4979   -6.1699    0.0000 H   0  0  0  0  0  0  0  0  0  0  0  0
   17.3646   -3.0198    0.0000 H   0  0  0  0  0  0  0  0  0  0  0  0
   20.6168   -5.6231    0.0000 H   0  0  0  0  0  0  0  0  0  0  0  0
   19.5896   -3.2368    0.0000 H   0  0  0  0  0  0  0  0  0  0  0  0
   19.0637   -7.7059    0.0000 H   0  0  0  0  0  0  0  0  0  0  0  0
   16.4835   -7.4023    0.0000 H   0  0  0  0  0  0  0  0  0  0  0  0
    9.2685   -2.0223    0.0000 H   0  0  0  0  0  0  0  0  0  0  0  0
    7.3706   -2.6452    0.0000 H   0  0  0  0  0  0  0  0  0  0  0  0
    8.7030   -6.8499    0.0000 H   0  0  0  0  0  0  0  0  0  0  0  0
    7.3454   -6.2678    0.0000 H   0  0  0  0  0  0  0  0  0  0  0  0
   11.4140   -4.6798    0.0000 H   0  0  0  0  0  0  0  0  0  0  0  0
   10.0550   -3.7730    0.0000 H   0  0  0  0  0  0  0  0  0  0  0  0
   11.2043   -7.9866    0.0000 H   0  0  0  0  0  0  0  0  0  0  0  0
    9.5643   -7.2833    0.0000 H   0  0  0  0  0  0  0  0  0  0  0  0
   13.3355   -5.3037    0.0000 H   0  0  0  0  0  0  0  0  0  0  0  0
   15.5012   -8.8624    0.0000 H   0  0  0  0  0  0  0  0  0  0  0  0
   15.3521   -6.2686    0.0000 H   0  0  0  0  0  0  0  0  0  0  0  0
   13.3294  -10.2884    0.0000 H   0  0  0  0  0  0  0  0  0  0  0  0
   11.0086   -9.1205    0.0000 H   0  0  0  0  0  0  0  0  0  0  0  0
    6.0688   -1.5973    0.0000 H   0  0  0  0  0  0  0  0  0  0  0  0
    4.0724   -1.5336    0.0000 H   0  0  0  0  0  0  0  0  0  0  0  0
    3.8863   -5.9404    0.0000 H   0  0  0  0  0  0  0  0  0  0  0  0
    2.7443   -4.5692    0.0000 H   0  0  0  0  0  0  0  0  0  0  0  0
    7.1761   -4.8284    0.0000 H   0  0  0  0  0  0  0  0  0  0  0  0
    6.3762   -3.5866    0.0000 H   0  0  0  0  0  0  0  0  0  0  0  0
    5.8480   -7.8640    0.0000 H   0  0  0  0  0  0  0  0  0  0  0  0
    4.5474   -6.6423    0.0000 H   0  0  0  0  0  0  0  0  0  0  0  0
    8.7683   -6.0719    0.0000 H   0  0  0  0  0  0  0  0  0  0  0  0
    9.5862  -10.1566    0.0000 H   0  0  0  0  0  0  0  0  0  0  0  0
   10.3333   -7.6682    0.0000 H   0  0  0  0  0  0  0  0  0  0  0  0
    7.0577  -10.7538    0.0000 H   0  0  0  0  0  0  0  0  0  0  0  0
    5.2763   -8.8627    0.0000 H   0  0  0  0  0  0  0  0  0  0  0  0
    3.0740    0.0218    0.0000 H   0  0  0  0  0  0  0  0  0  0  0  0
    1.3532    0.6391    0.0000 H   0  0  0  0  0  0  0  0  0  0  0  0
   -0.1705   -3.5305    0.0000 H   0  0  0  0  0  0  0  0  0  0  0  0
   -0.9330   -1.7592    0.0000 H   0  0  0  0  0  0  0  0  0  0  0  0
    0.1531   -5.1700    0.0000 H   0  0  0  0  0  0  0  0  0  0  0  0
    2.5581   -6.9633    0.0000 H   0  0  0  0  0  0  0  0  0  0  0  0
    5.1954   -5.9171    0.0000 H   0  0  0  0  0  0  0  0  0  0  0  0
    5.7263   -2.9702    0.0000 H   0  0  0  0  0  0  0  0  0  0  0  0
    3.4395   -1.0369    0.0000 H   0  0  0  0  0  0  0  0  0  0  0  0
    1.0916    2.1062    0.0000 H   0  0  0  0  0  0  0  0  0  0  0  0
   -0.3745    1.0613    0.0000 H   0  0  0  0  0  0  0  0  0  0  0  0
   -1.1429   -0.1927    0.0000 H   0  0  0  0  0  0  0  0  0  0  0  0
   -1.3598   -1.0106    0.0000 H   0  0  0  0  0  0  0  0  0  0  0  0
   -1.9560   -1.5354    0.0000 H   0  0  0  0  0  0  0  0  0  0  0  0
   -2.3990   -1.9528    0.0000 H   0  0  0  0  0  0  0  0  0  0  0  0
   -3.6568   -2.7150    0.0000 H   0  0  0  0  0  0  0  0  0  0  0  0
   -4.5991   -3.3068    0.0000 H   0  0  0  0  0  0  0  0  0  0  0  0
    1.1316    2.6995    0.0000 H   0  0  0  0  0  0  0  0  0  0  0  0
    0.7452    4.4416    0.0000 H   0  0  0  0  0  0  0  0  0  0  0  0
   -0.8727    4.6690    0.0000 H   0  0  0  0  0  0  0  0  0  0  0  0
   -0.9392    6.2290    0.0000 H   0  0  0  0  0  0  0  0  0  0  0  0
   -1.6902    6.8363    0.0000 H   0  0  0  0  0  0  0  0  0  0  0  0
   -3.3767    9.5452    0.0000 H   0  0  0  0  0  0  0  0  0  0  0  0
   -4.3854    8.4661    0.0000 H   0  0  0  0  0  0  0  0  0  0  0  0
   -1.0723    7.2066    0.0000 H   0  0  0  0  0  0  0  0  0  0  0  0
    0.0590   10.8079    0.0000 H   0  0  0  0  0  0  0  0  0  0  0  0
   -1.5439   11.5921    0.0000 H   0  0  0  0  0  0  0  0  0  0  0  0
   -2.7625   10.2885    0.0000 H   0  0  0  0  0  0  0  0  0  0  0  0
    0.8720    9.8537    0.0000 H   0  0  0  0  0  0  0  0  0  0  0  0
    1.3916    8.1466    0.0000 H   0  0  0  0  0  0  0  0  0  0  0  0
   -0.2710    7.1699    0.0000 H   0  0  0  0  0  0  0  0  0  0  0  0
   -5.6466    9.3868    0.0000 H   0  0  0  0  0  0  0  0  0  0  0  0
   -6.7523    9.2624    0.0000 H   0  0  0  0  0  0  0  0  0  0  0  0
   -9.6826    9.7152    0.0000 H   0  0  0  0  0  0  0  0  0  0  0  0
   -9.5442    8.0872    0.0000 H   0  0  0  0  0  0  0  0  0  0  0  0
   -8.8939   11.5503    0.0000 H   0  0  0  0  0  0  0  0  0  0  0  0
  -11.0504    7.6752    0.0000 H   0  0  0  0  0  0  0  0  0  0  0  0
  -11.4754    6.8079    0.0000 H   0  0  0  0  0  0  0  0  0  0  0  0
  -13.7410    4.5609    0.0000 H   0  0  0  0  0  0  0  0  0  0  0  0
  -12.4645    3.8176    0.0000 H   0  0  0  0  0  0  0  0  0  0  0  0
  -13.6139    8.0312    0.0000 H   0  0  0  0  0  0  0  0  0  0  0  0
  -11.9738    7.3280    0.0000 H   0  0  0  0  0  0  0  0  0  0  0  0
  -16.1444    5.8923    0.0000 H   0  0  0  0  0  0  0  0  0  0  0  0
  -14.6023    4.9944    0.0000 H   0  0  0  0  0  0  0  0  0  0  0  0
  -14.9157    9.0791    0.0000 H   0  0  0  0  0  0  0  0  0  0  0  0
  -19.4082    8.8210    0.0000 H   0  0  0  0  0  0  0  0  0  0  0  0
  -17.2365   10.2469    0.0000 H   0  0  0  0  0  0  0  0  0  0  0  0
  -19.2592    6.2272    0.0000 H   0  0  0  0  0  0  0  0  0  0  0  0
  -16.9384    5.0594    0.0000 H   0  0  0  0  0  0  0  0  0  0  0  0
  -13.0815    2.3832    0.0000 H   0  0  0  0  0  0  0  0  0  0  0  0
  -10.9490   -1.6721    0.0000 H   0  0  0  0  0  0  0  0  0  0  0  0
  -11.8902   -0.7633    0.0000 H   0  0  0  0  0  0  0  0  0  0  0  0
   -9.5835   -2.7440    0.0000 H   0  0  0  0  0  0  0  0  0  0  0  0
  -10.5681   -2.1674    0.0000 H   0  0  0  0  0  0  0  0  0  0  0  0
   -7.6013   -3.3400    0.0000 H   0  0  0  0  0  0  0  0  0  0  0  0
   -9.0331   -3.0039    0.0000 H   0  0  0  0  0  0  0  0  0  0  0  0
   -6.5222   -3.6115    0.0000 H   0  0  0  0  0  0  0  0  0  0  0  0
  -13.9429    0.4725    0.0000 H   0  0  0  0  0  0  0  0  0  0  0  0
  -13.8962    2.2563    0.0000 H   0  0  0  0  0  0  0  0  0  0  0  0
  -12.5316    2.8217    0.0000 H   0  0  0  0  0  0  0  0  0  0  0  0
  -14.3904    1.2363    0.0000 H   0  0  0  0  0  0  0  0  0  0  0  0
  -13.1119   -1.9047    0.0000 H   0  0  0  0  0  0  0  0  0  0  0  0
  -14.7402   -4.2060    0.0000 H   0  0  0  0  0  0  0  0  0  0  0  0
  -13.3699   -2.8492    0.0000 H   0  0  0  0  0  0  0  0  0  0  0  0
  -16.0480   -5.7519    0.0000 H   0  0  0  0  0  0  0  0  0  0  0  0
  -19.3060   -5.5650    0.0000 H   0  0  0  0  0  0  0  0  0  0  0  0
  -20.1911   -2.5832    0.0000 H   0  0  0  0  0  0  0  0  0  0  0  0
  -16.5494   -3.8243    0.0000 H   0  0  0  0  0  0  0  0  0  0  0  0
  -17.9265   -0.7654    0.0000 H   0  0  0  0  0  0  0  0  0  0  0  0
  -21.1438   -1.2526    0.0000 H   0  0  0  0  0  0  0  0  0  0  0  0
  -20.5659   -2.7809    0.0000 H   0  0  0  0  0  0  0  0  0  0  0  0
  -22.4671    0.1228    0.0000 H   0  0  0  0  0  0  0  0  0  0  0  0
  -21.7173    3.2988    0.0000 H   0  0  0  0  0  0  0  0  0  0  0  0
  -18.4650    3.5672    0.0000 H   0  0  0  0  0  0  0  0  0  0  0  0
  -21.4705   -2.0228    0.0000 H   0  0  0  0  0  0  0  0  0  0  0  0
  -20.1920   -5.1638    0.0000 H   0  0  0  0  0  0  0  0  0  0  0  0
  -21.8203   -7.4651    0.0000 H   0  0  0  0  0  0  0  0  0  0  0  0
  -20.4501   -6.1083    0.0000 H   0  0  0  0  0  0  0  0  0  0  0  0
  -23.7898   -7.7982    0.0000 H   0  0  0  0  0  0  0  0  0  0  0  0
  -23.4519   -7.0385    0.0000 H   0  0  0  0  0  0  0  0  0  0  0  0
  -24.8332   -4.0835    0.0000 H   0  0  0  0  0  0  0  0  0  0  0  0
  -27.3271   -6.2189    0.0000 H   0  0  0  0  0  0  0  0  0  0  0  0
  -29.0406   -3.4168    0.0000 H   0  0  0  0  0  0  0  0  0  0  0  0
  -28.1498   -2.5348    0.0000 H   0  0  0  0  0  0  0  0  0  0  0  0
  -26.4863   -1.8890    0.0000 H   0  0  0  0  0  0  0  0  0  0  0  0
  -25.3823   -3.2910    0.0000 H   0  0  0  0  0  0  0  0  0  0  0  0
  1  2  1  0
  2  3  1  0
  3  4  1  0
  4  5  2  0
  4  6  1  0
  6  7  1  0
  7  8  1  0
  8  9  1  0
  9 10  1  0
 10 11  2  0
 10 12  1  0
  7 13  1  0
 13 14  2  0
 13 15  1  0
 15 16  1  0
 16 17  1  0
 17 18  1  0
 18 19  1  0
 19 20  1  0
 20 21  1  0
 21 22  2  3
 21 23  1  0
 16 24  1  0
 24 25  2  0
 24 26  1  0
 26 27  1  0
 27 28  1  0
 28 29  1  0
 29 30  1  0
 29 31  1  0
 27 32  1  0
 32 33  2  0
 32 34  1  0
 34 35  1  0
 35 36  1  0
 36 37  1  0
 37 38  1  0
 38 39  1  0
 39 40  1  0
 40 41  2  3
 40 42  1  0
 35 43  1  0
 43 44  2  0
 43 45  1  0
 45 46  1  0
 46 47  1  0
 47 48  1  0
 48 49  1  0
 49 50  1  0
 50 51  1  0
 51 52  2  3
 51 53  1  0
 46 54  1  0
 54 55  2  0
 54 56  1  0
 56 57  1  0
 57 58  1  0
 58 59  1  0
 59 60  1  0
 60 61  1  0
 61 62  1  0
 62 63  2  3
 62 64  1  0
 57 65  1  0
 65 66  2  0
 65 67  1  0
 67 68  1  0
 68 69  1  0
 69 70  1  0
 70 71  2  0
 71 72  1  0
 72 73  2  0
 73 74  1  0
 74 75  2  0
 68 76  1  0
 76 77  2  0
 76 78  1  0
 79 78  1  1
 79 80  1  0
 80 81  1  0
 81 82  1  0
 82 83  1  0
 79 84  1  0
 79 85  1  0
 85 86  2  0
 85 87  1  0
 87 88  1  0
 88 89  1  0
 89 90  1  0
 90 91  1  0
 90 92  1  0
 88 93  1  0
 93 94  2  0
 93 95  1  0
 95 96  1  0
 96 97  1  0
 97 98  1  0
 96 99  1  0
 99100  2  0
 99101  1  0
101102  1  0
102103  1  0
103104  1  0
104105  1  0
105106  1  0
106107  1  0
107108  2  3
107109  1  0
102110  1  0
110111  2  0
110112  1  0
112113  1  0
113114  1  0
114115  1  0
115116  1  0
116117  1  0
113118  1  0
113119  1  1
119120  2  0
119121  1  0
121122  1  0
122123  1  0
123124  1  0
124125  2  0
125126  1  0
126127  1  0
127128  2  0
122129  1  0
129130  2  0
129131  1  0
131132  1  0
132133  1  0
133134  1  0
134135  2  0
135136  1  0
136137  1  0
137138  2  0
132139  1  0
139140  2  0
139141  1  0
141142  1  0
142143  1  0
143144  1  0
142145  1  0
145146  2  0
145147  1  0
147148  1  0
148149  1  0
149150  1  0
149151  1  0
148152  1  0
152153  2  0
152154  1  0
 75 70  1  0
128124  1  0
138134  1  0
 83117  2  0
  1155  1  0
  1156  1  0
  2157  1  0
  2158  1  0
  3159  1  0
  3160  1  0
  6161  1  0
  7162  1  6
  8163  1  0
  8164  1  0
  9165  1  0
  9166  1  0
 15167  1  0
 16168  1  6
 17169  1  0
 17170  1  0
 18171  1  0
 18172  1  0
 19173  1  0
 19174  1  0
 20175  1  0
 22176  1  0
 22177  1  0
 23178  1  0
 23179  1  0
 26180  1  0
 27181  1  1
 28182  1  0
 28183  1  0
 29184  1  0
 30185  1  0
 30186  1  0
 30187  1  0
 31188  1  0
 31189  1  0
 31190  1  0
 34191  1  0
 35192  1  1
 36193  1  0
 36194  1  0
 37195  1  0
 37196  1  0
 38197  1  0
 38198  1  0
 39199  1  0
 41200  1  0
 41201  1  0
 42202  1  0
 42203  1  0
 45204  1  0
 46205  1  1
 47206  1  0
 47207  1  0
 48208  1  0
 48209  1  0
 49210  1  0
 49211  1  0
 50212  1  0
 52213  1  0
 52214  1  0
 53215  1  0
 53216  1  0
 56217  1  0
 57218  1  1
 58219  1  0
 58220  1  0
 59221  1  0
 59222  1  0
 60223  1  0
 60224  1  0
 61225  1  0
 63226  1  0
 63227  1  0
 64228  1  0
 64229  1  0
 67230  1  0
 68231  1  1
 69232  1  0
 69233  1  0
 71234  1  0
 72235  1  0
 73236  1  0
 74237  1  0
 75238  1  0
 78239  1  0
 80240  1  0
 80241  1  0
 81242  1  0
 81243  1  0
 82244  1  0
 82245  1  0
 83246  1  0
 84247  1  0
 84248  1  0
 84249  1  0
 87250  1  0
 88251  1  6
 89252  1  0
 89253  1  0
 90254  1  0
 91255  1  0
 91256  1  0
 91257  1  0
 92258  1  0
 92259  1  0
 92260  1  0
 95261  1  0
 96262  1  6
 97263  1  0
 97264  1  0
 98265  1  0
101266  1  0
102267  1  6
103268  1  0
103269  1  0
104270  1  0
104271  1  0
105272  1  0
105273  1  0
106274  1  0
108275  1  0
108276  1  0
109277  1  0
109278  1  0
112279  1  0
114280  1  0
114281  1  0
115282  1  0
115283  1  0
116284  1  0
116285  1  0
117286  1  0
118287  1  0
118288  1  0
118289  1  0
121290  1  0
122291  1  1
123292  1  0
123293  1  0
125294  1  0
126295  1  0
127296  1  0
131297  1  0
132298  1  6
133299  1  0
133300  1  0
135301  1  0
136302  1  0
137303  1  0
141304  1  0
142305  1  1
143306  1  0
143307  1  0
144308  1  0
147309  1  0
148310  1  6
149311  1  1
150312  1  0
151313  1  0
151314  1  0
151315  1  0
M  CHG  7  12  -1  22   1  41   1  52   1  63   1 108   1 154  -1
M  END
