
     RDKit          2D

301304  0  0  0  0  0  0  0  0999 V2000
   27.7840   -6.7094    0.0000 N   0  0  0  0  0  0  0  0  0  0  0  0
   27.2665   -5.3014    0.0000 C   0  0  0  0  0  0  0  0  0  0  0  0
   25.7885   -5.0456    0.0000 C   0  0  0  0  0  0  0  0  0  0  0  0
   25.2711   -3.6377    0.0000 C   0  0  0  0  0  0  0  0  0  0  0  0
   26.1571   -2.8063    0.0000 O   0  0  0  0  0  0  0  0  0  0  0  0
   23.7930   -3.3818    0.0000 N   0  0  0  0  0  0  0  0  0  0  0  0
   23.2756   -1.9739    0.0000 C   0  0  0  0  0  0  0  0  0  0  0  0
   24.7520   -1.7088    0.0000 C   0  0  0  0  0  0  0  0  0  0  0  0
   25.2606   -0.2977    0.0000 C   0  0  0  0  0  0  0  0  0  0  0  0
   26.7370   -0.0326    0.0000 C   0  0  0  0  0  0  0  0  0  0  0  0
   25.2559    1.2023    0.0000 C   0  0  0  0  0  0  0  0  0  0  0  0
   22.3078   -0.8278    0.0000 C   0  0  0  0  0  0  0  0  0  0  0  0
   22.9170    0.3769    0.0000 O   0  0  0  0  0  0  0  0  0  0  0  0
   20.8314   -1.0929    0.0000 N   0  0  0  0  0  0  0  0  0  0  0  0
   19.8637    0.0531    0.0000 C   0  0  0  0  0  0  0  0  0  0  0  0
   21.1604    0.8072    0.0000 C   0  0  0  0  0  0  0  0  0  0  0  0
   21.1557    2.3072    0.0000 O   0  0  0  0  0  0  0  0  0  0  0  0
   18.5623    0.7991    0.0000 C   0  0  0  0  0  0  0  0  0  0  0  0
   18.7227    2.1395    0.0000 O   0  0  0  0  0  0  0  0  0  0  0  0
   17.2656    0.0450    0.0000 N   0  0  0  0  0  0  0  0  0  0  0  0
   15.9642    0.7909    0.0000 C   0  0  0  0  0  0  0  0  0  0  0  0
   16.9248    1.9430    0.0000 C   0  0  0  0  0  0  0  0  0  0  0  0
   16.4074    3.3509    0.0000 C   0  0  0  0  0  0  0  0  0  0  0  0
   17.3680    4.5030    0.0000 C   0  0  0  0  0  0  0  0  0  0  0  0
   16.8505    5.9109    0.0000 N   0  0  0  0  0  0  0  0  0  0  0  0
   18.8460    4.2472    0.0000 O   0  0  0  0  0  0  0  0  0  0  0  0
   14.4862    1.0468    0.0000 C   0  0  0  0  0  0  0  0  0  0  0  0
   14.1443    2.5073    0.0000 O   0  0  0  0  0  0  0  0  0  0  0  0
   13.5256   -0.1053    0.0000 N   0  0  0  0  0  0  0  0  0  0  0  0
   12.0476    0.1506    0.0000 C   0  0  0  0  0  0  0  0  0  0  0  0
   12.5562    1.5617    0.0000 C   0  0  0  0  0  0  0  0  0  0  0  0
   11.5885    2.7077    0.0000 C   0  0  0  0  0  0  0  0  0  0  0  0
   12.0971    4.1189    0.0000 C   0  0  0  0  0  0  0  0  0  0  0  0
   11.1293    5.2649    0.0000 O   0  0  0  0  0  0  0  0  0  0  0  0
   13.5735    4.3840    0.0000 O   0  0  0  0  0  0  0  0  0  0  0  0
   10.5712   -0.1145    0.0000 C   0  0  0  0  0  0  0  0  0  0  0  0
    9.6035    1.0315    0.0000 O   0  0  0  0  0  0  0  0  0  0  0  0
   10.0626   -1.5257    0.0000 N   0  0  0  0  0  0  0  0  0  0  0  0
    8.5862   -1.7908    0.0000 C   0  0  0  0  0  0  0  0  0  0  0  0
    9.1037   -3.1987    0.0000 C   0  0  0  0  0  0  0  0  0  0  0  0
    9.4712   -4.6530    0.0000 O   0  0  0  0  0  0  0  0  0  0  0  0
   10.5817   -3.4545    0.0000 C   0  0  0  0  0  0  0  0  0  0  0  0
    7.1082   -1.5349    0.0000 C   0  0  0  0  0  0  0  0  0  0  0  0
    6.5908   -0.1270    0.0000 O   0  0  0  0  0  0  0  0  0  0  0  0
    6.1476   -2.6870    0.0000 N   0  0  0  0  0  0  0  0  0  0  0  0
    4.6696   -2.4311    0.0000 C   0  0  0  0  0  0  0  0  0  0  0  0
    4.6743   -3.9311    0.0000 C   0  0  0  0  0  0  0  0  0  0  0  0
    5.9757   -4.6770    0.0000 C   0  0  0  0  0  0  0  0  0  0  0  0
    5.9804   -6.1770    0.0000 C   0  0  0  0  0  0  0  0  0  0  0  0
    7.2817   -6.9230    0.0000 C   0  0  0  0  0  0  0  0  0  0  0  0
    8.5784   -6.1689    0.0000 C   0  0  0  0  0  0  0  0  0  0  0  0
    8.5737   -4.6689    0.0000 C   0  0  0  0  0  0  0  0  0  0  0  0
    7.2723   -3.9230    0.0000 C   0  0  0  0  0  0  0  0  0  0  0  0
    3.3682   -1.6852    0.0000 C   0  0  0  0  0  0  0  0  0  0  0  0
    2.4001   -2.6261    0.0000 O   0  0  0  0  0  0  0  0  0  0  0  0
    3.3635   -0.1852    0.0000 N   0  0  0  0  0  0  0  0  0  0  0  0
    2.0622    0.5607    0.0000 C   0  0  0  0  0  0  0  0  0  0  0  0
    1.9717   -0.9365    0.0000 C   0  0  0  0  0  0  0  0  0  0  0  0
    1.5995   -2.3896    0.0000 C   0  0  0  0  0  0  0  0  0  0  0  0
    0.9591   -3.7460    0.0000 C   0  0  0  0  0  0  0  0  0  0  0  0
    0.0735   -4.9567    0.0000 C   0  0  0  0  0  0  0  0  0  0  0  0
   -1.0252   -5.9779    0.0000 C   0  0  0  0  0  0  0  0  0  0  0  0
   -2.2973   -6.7727    0.0000 C   0  0  0  0  0  0  0  0  0  0  0  0
   -3.6969   -7.3124    0.0000 C   0  0  0  0  0  0  0  0  0  0  0  0
    3.3084    1.3955    0.0000 C   0  0  0  0  0  0  0  0  0  0  0  0
    1.8676    2.0481    0.0000 C   0  0  0  0  0  0  0  0  0  0  0  0
    3.2780    2.5588    0.0000 O   0  0  0  0  0  0  0  0  0  0  0  0
    1.3951    3.4717    0.0000 N   0  0  0  0  0  0  0  0  0  0  0  0
    0.6617    4.7802    0.0000 C   0  0  0  0  0  0  0  0  0  0  0  0
    1.2588    6.1562    0.0000 C   0  0  0  0  0  0  0  0  0  0  0  0
    2.7490    6.3271    0.0000 C   0  0  0  0  0  0  0  0  0  0  0  0
    3.3461    7.7032    0.0000 O   0  0  0  0  0  0  0  0  0  0  0  0
    3.6422    5.1220    0.0000 O   0  0  0  0  0  0  0  0  0  0  0  0
   -0.3061    5.9262    0.0000 C   0  0  0  0  0  0  0  0  0  0  0  0
    0.6043    7.1184    0.0000 O   0  0  0  0  0  0  0  0  0  0  0  0
   -1.4732    6.8684    0.0000 N   0  0  0  0  0  0  0  0  0  0  0  0
   -2.7976    7.5727    0.0000 C   0  0  0  0  0  0  0  0  0  0  0  0
   -3.0392    9.0531    0.0000 C   0  0  0  0  0  0  0  0  0  0  0  0
   -1.8780   10.0026    0.0000 C   0  0  0  0  0  0  0  0  0  0  0  0
   -2.1196   11.4830    0.0000 C   0  0  0  0  0  0  0  0  0  0  0  0
   -0.4620   10.4976    0.0000 C   0  0  0  0  0  0  0  0  0  0  0  0
   -4.2314    8.0136    0.0000 C   0  0  0  0  0  0  0  0  0  0  0  0
   -4.1101    9.5087    0.0000 O   0  0  0  0  0  0  0  0  0  0  0  0
   -5.7226    8.1752    0.0000 N   0  0  0  0  0  0  0  0  0  0  0  0
   -7.2175    8.0516    0.0000 C   0  0  0  0  0  0  0  0  0  0  0  0
   -8.2212    9.1664    0.0000 C   0  0  0  0  0  0  0  0  0  0  0  0
   -7.7576   10.5930    0.0000 C   0  0  0  0  0  0  0  0  0  0  0  0
   -6.3310   11.0564    0.0000 C   0  0  0  0  0  0  0  0  0  0  0  0
   -6.3309   12.5564    0.0000 N   0  0  0  0  0  0  0  0  0  0  0  0
   -7.7575   13.0200    0.0000 C   0  0  0  0  0  0  0  0  0  0  0  0
   -8.3675   14.3904    0.0000 C   0  0  0  0  0  0  0  0  0  0  0  0
   -9.8593   14.5472    0.0000 C   0  0  0  0  0  0  0  0  0  0  0  0
  -10.7410   13.3337    0.0000 C   0  0  0  0  0  0  0  0  0  0  0  0
  -10.1310   11.9634    0.0000 C   0  0  0  0  0  0  0  0  0  0  0  0
   -8.6392   11.8065    0.0000 C   0  0  0  0  0  0  0  0  0  0  0  0
   -8.6620    7.6474    0.0000 C   0  0  0  0  0  0  0  0  0  0  0  0
   -9.3683    8.9707    0.0000 O   0  0  0  0  0  0  0  0  0  0  0  0
  -10.0039    6.9771    0.0000 N   0  0  0  0  0  0  0  0  0  0  0  0
  -11.1947    6.0650    0.0000 C   0  0  0  0  0  0  0  0  0  0  0  0
  -12.6417    6.4602    0.0000 C   0  0  0  0  0  0  0  0  0  0  0  0
  -13.0230    7.9109    0.0000 C   0  0  0  0  0  0  0  0  0  0  0  0
  -14.4700    8.3061    0.0000 C   0  0  0  0  0  0  0  0  0  0  0  0
  -14.8513    9.7568    0.0000 C   0  0  0  0  0  0  0  0  0  0  0  0
  -16.2983   10.1520    0.0000 N   0  0  0  0  0  0  0  0  0  0  0  0
  -12.1914    4.9440    0.0000 C   0  0  0  0  0  0  0  0  0  0  0  0
  -13.5010    5.6754    0.0000 O   0  0  0  0  0  0  0  0  0  0  0  0
  -12.9579    3.6546    0.0000 N   0  0  0  0  0  0  0  0  0  0  0  0
  -13.4665    2.2434    0.0000 C   0  0  0  0  0  0  0  0  0  0  0  0
  -14.8974    1.7936    0.0000 C   0  0  0  0  0  0  0  0  0  0  0  0
  -16.0025    2.8079    0.0000 C   0  0  0  0  0  0  0  0  0  0  0  0
  -17.4335    2.3580    0.0000 C   0  0  0  0  0  0  0  0  0  0  0  0
  -16.6940    4.1390    0.0000 C   0  0  0  0  0  0  0  0  0  0  0  0
  -13.6989    0.7615    0.0000 C   0  0  0  0  0  0  0  0  0  0  0  0
  -15.1960    0.6688    0.0000 O   0  0  0  0  0  0  0  0  0  0  0  0
  -13.6466   -0.7375    0.0000 N   0  0  0  0  0  0  0  0  0  0  0  0
  -13.3115   -2.1996    0.0000 C   0  0  0  0  0  0  0  0  0  0  0  0
  -14.2721   -3.3517    0.0000 C   0  0  0  0  0  0  0  0  0  0  0  0
  -15.7501   -3.0959    0.0000 C   0  0  0  0  0  0  0  0  0  0  0  0
  -16.7107   -4.2479    0.0000 C   0  0  0  0  0  0  0  0  0  0  0  0
  -17.0515   -2.3499    0.0000 C   0  0  0  0  0  0  0  0  0  0  0  0
  -12.7059   -3.5719    0.0000 C   0  0  0  0  0  0  0  0  0  0  0  0
  -13.9152   -4.4593    0.0000 O   0  0  0  0  0  0  0  0  0  0  0  0
  -11.8514   -4.8048    0.0000 N   0  0  0  0  0  0  0  0  0  0  0  0
  -10.7791   -5.8536    0.0000 C   0  0  0  0  0  0  0  0  0  0  0  0
   -9.5276   -6.6806    0.0000 C   0  0  0  0  0  0  0  0  0  0  0  0
   -8.1423   -7.2558    0.0000 C   0  0  0  0  0  0  0  0  0  0  0  0
   -6.6731   -7.5584    0.0000 C   0  0  0  0  0  0  0  0  0  0  0  0
   -5.1733   -7.5775    0.0000 C   0  0  0  0  0  0  0  0  0  0  0  0
  -12.1950   -6.3487    0.0000 C   0  0  0  0  0  0  0  0  0  0  0  0
  -10.9643   -7.3422    0.0000 C   0  0  0  0  0  0  0  0  0  0  0  0
  -10.0223   -8.5095    0.0000 O   0  0  0  0  0  0  0  0  0  0  0  0
  -12.3460   -7.9260    0.0000 N   0  0  0  0  0  0  0  0  0  0  0  0
  -12.5313   -9.4145    0.0000 C   0  0  0  0  0  0  0  0  0  0  0  0
  -12.1962  -10.8766    0.0000 C   0  0  0  0  0  0  0  0  0  0  0  0
  -13.2949  -11.8978    0.0000 C   0  0  0  0  0  0  0  0  0  0  0  0
  -12.9599  -13.3599    0.0000 C   0  0  0  0  0  0  0  0  0  0  0  0
  -13.7424  -14.2894    0.0000 O   0  0  0  0  0  0  0  0  0  0  0  0
  -11.5261  -13.8008    0.0000 O   0  0  0  0  0  0  0  0  0  0  0  0
  -13.9130   -9.9984    0.0000 C   0  0  0  0  0  0  0  0  0  0  0  0
  -15.1095   -9.0937    0.0000 O   0  0  0  0  0  0  0  0  0  0  0  0
  -14.0982  -11.4869    0.0000 N   0  0  0  0  0  0  0  0  0  0  0  0
  -15.4799  -12.0707    0.0000 C   0  0  0  0  0  0  0  0  0  0  0  0
  -16.9780  -12.1468    0.0000 C   0  0  0  0  0  0  0  0  0  0  0  0
  -17.7929  -10.8874    0.0000 C   0  0  0  0  0  0  0  0  0  0  0  0
  -19.2910  -10.9635    0.0000 N   0  0  0  0  0  0  0  0  0  0  0  0
  -17.1097   -9.5520    0.0000 O   0  0  0  0  0  0  0  0  0  0  0  0
  -15.6652  -13.5592    0.0000 C   0  0  0  0  0  0  0  0  0  0  0  0
  -16.9654  -14.3071    0.0000 O   0  0  0  0  0  0  0  0  0  0  0  0
  -14.7926  -14.4047    0.0000 O   0  0  0  0  0  0  0  0  0  0  0  0
   29.2620   -6.9652    0.0000 H   0  0  0  0  0  0  0  0  0  0  0  0
   26.8234   -7.8614    0.0000 H   0  0  0  0  0  0  0  0  0  0  0  0
   28.7429   -5.0363    0.0000 H   0  0  0  0  0  0  0  0  0  0  0  0
   27.2618   -3.8014    0.0000 H   0  0  0  0  0  0  0  0  0  0  0  0
   25.7932   -6.5456    0.0000 H   0  0  0  0  0  0  0  0  0  0  0  0
   24.3121   -5.3107    0.0000 H   0  0  0  0  0  0  0  0  0  0  0  0
   22.8325   -4.5339    0.0000 H   0  0  0  0  0  0  0  0  0  0  0  0
   21.9789   -2.7279    0.0000 H   0  0  0  0  0  0  0  0  0  0  0  0
   25.9492   -1.9160    0.0000 H   0  0  0  0  0  0  0  0  0  0  0  0
   25.0199   -2.7690    0.0000 H   0  0  0  0  0  0  0  0  0  0  0  0
   23.7826   -0.0418    0.0000 H   0  0  0  0  0  0  0  0  0  0  0  0
   27.4138    1.3061    0.0000 H   0  0  0  0  0  0  0  0  0  0  0  0
   28.2150   -0.2884    0.0000 H   0  0  0  0  0  0  0  0  0  0  0  0
   26.9245   -1.5208    0.0000 H   0  0  0  0  0  0  0  0  0  0  0  0
   26.4510    2.1088    0.0000 H   0  0  0  0  0  0  0  0  0  0  0  0
   24.7385    2.6103    0.0000 H   0  0  0  0  0  0  0  0  0  0  0  0
   23.9272    0.9638    0.0000 H   0  0  0  0  0  0  0  0  0  0  0  0
   20.3228   -2.5041    0.0000 H   0  0  0  0  0  0  0  0  0  0  0  0
   18.9031   -1.0990    0.0000 H   0  0  0  0  0  0  0  0  0  0  0  0
   22.5934    1.2503    0.0000 H   0  0  0  0  0  0  0  0  0  0  0  0
   21.7747   -0.0974    0.0000 H   0  0  0  0  0  0  0  0  0  0  0  0
   22.4524    3.0612    0.0000 H   0  0  0  0  0  0  0  0  0  0  0  0
   17.2703   -1.4550    0.0000 H   0  0  0  0  0  0  0  0  0  0  0  0
   15.4556   -0.6202    0.0000 H   0  0  0  0  0  0  0  0  0  0  0  0
   18.0004    2.7589    0.0000 H   0  0  0  0  0  0  0  0  0  0  0  0
   17.9100    1.2320    0.0000 H   0  0  0  0  0  0  0  0  0  0  0  0
   15.4396    4.4970    0.0000 H   0  0  0  0  0  0  0  0  0  0  0  0
   15.1107    2.5969    0.0000 H   0  0  0  0  0  0  0  0  0  0  0  0
   17.8111    7.0630    0.0000 H   0  0  0  0  0  0  0  0  0  0  0  0
   15.3725    6.1668    0.0000 H   0  0  0  0  0  0  0  0  0  0  0  0
   14.0431   -1.5132    0.0000 H   0  0  0  0  0  0  0  0  0  0  0  0
   12.0523   -1.3494    0.0000 H   0  0  0  0  0  0  0  0  0  0  0  0
   13.3692    2.8223    0.0000 H   0  0  0  0  0  0  0  0  0  0  0  0
   13.9994    1.1528    0.0000 H   0  0  0  0  0  0  0  0  0  0  0  0
   10.2871    3.4537    0.0000 H   0  0  0  0  0  0  0  0  0  0  0  0
   10.6279    1.5557    0.0000 H   0  0  0  0  0  0  0  0  0  0  0  0
   11.1629   -2.5452    0.0000 H   0  0  0  0  0  0  0  0  0  0  0  0
    8.5815   -0.2908    0.0000 H   0  0  0  0  0  0  0  0  0  0  0  0
    7.6070   -3.0986    0.0000 H   0  0  0  0  0  0  0  0  0  0  0  0
   10.3062   -5.5531    0.0000 H   0  0  0  0  0  0  0  0  0  0  0  0
   11.2669   -4.7889    0.0000 H   0  0  0  0  0  0  0  0  0  0  0  0
   12.0581   -3.1894    0.0000 H   0  0  0  0  0  0  0  0  0  0  0  0
   11.1150   -2.0525    0.0000 H   0  0  0  0  0  0  0  0  0  0  0  0
    6.9904   -3.9279    0.0000 H   0  0  0  0  0  0  0  0  0  0  0  0
    5.1782   -1.0200    0.0000 H   0  0  0  0  0  0  0  0  0  0  0  0
    4.1657   -5.3423    0.0000 H   0  0  0  0  0  0  0  0  0  0  0  0
    3.1963   -3.6753    0.0000 H   0  0  0  0  0  0  0  0  0  0  0  0
    4.6837   -6.9311    0.0000 H   0  0  0  0  0  0  0  0  0  0  0  0
    7.2864   -8.4230    0.0000 H   0  0  0  0  0  0  0  0  0  0  0  0
    9.8798   -6.9149    0.0000 H   0  0  0  0  0  0  0  0  0  0  0  0
    9.8704   -3.9149    0.0000 H   0  0  0  0  0  0  0  0  0  0  0  0
    7.2677   -2.4230    0.0000 H   0  0  0  0  0  0  0  0  0  0  0  0
    4.7425    0.4052    0.0000 H   0  0  0  0  0  0  0  0  0  0  0  0
    3.4536   -0.7044    0.0000 H   0  0  0  0  0  0  0  0  0  0  0  0
    2.9806   -2.0465    0.0000 H   0  0  0  0  0  0  0  0  0  0  0  0
    3.0810   -2.6245    0.0000 H   0  0  0  0  0  0  0  0  0  0  0  0
    2.5304   -3.5658    0.0000 H   0  0  0  0  0  0  0  0  0  0  0  0
    2.4588   -3.7175    0.0000 H   0  0  0  0  0  0  0  0  0  0  0  0
    1.8077   -4.9829    0.0000 H   0  0  0  0  0  0  0  0  0  0  0  0
    1.5093   -5.3908    0.0000 H   0  0  0  0  0  0  0  0  0  0  0  0
    0.6727   -6.3318    0.0000 H   0  0  0  0  0  0  0  0  0  0  0  0
    0.3025   -6.6759    0.0000 H   0  0  0  0  0  0  0  0  0  0  0  0
   -0.6971   -7.4416    0.0000 H   0  0  0  0  0  0  0  0  0  0  0  0
   -1.1257   -7.7094    0.0000 H   0  0  0  0  0  0  0  0  0  0  0  0
   -2.4352   -8.2664    0.0000 H   0  0  0  0  0  0  0  0  0  0  0  0
   -3.2926   -8.7569    0.0000 H   0  0  0  0  0  0  0  0  0  0  0  0
    4.7251    0.9026    0.0000 H   0  0  0  0  0  0  0  0  0  0  0  0
    4.3350    2.4892    0.0000 H   0  0  0  0  0  0  0  0  0  0  0  0
    2.5627    2.6970    0.0000 H   0  0  0  0  0  0  0  0  0  0  0  0
    2.7674    4.0774    0.0000 H   0  0  0  0  0  0  0  0  0  0  0  0
    2.1598    4.8563    0.0000 H   0  0  0  0  0  0  0  0  0  0  0  0
    1.5311    7.6313    0.0000 H   0  0  0  0  0  0  0  0  0  0  0  0
   -0.0722    6.8479    0.0000 H   0  0  0  0  0  0  0  0  0  0  0  0
   -0.4999    8.0097    0.0000 H   0  0  0  0  0  0  0  0  0  0  0  0
   -1.4810    8.2915    0.0000 H   0  0  0  0  0  0  0  0  0  0  0  0
   -3.7726   10.3616    0.0000 H   0  0  0  0  0  0  0  0  0  0  0  0
   -4.5329    8.9154    0.0000 H   0  0  0  0  0  0  0  0  0  0  0  0
   -0.8498    8.9104    0.0000 H   0  0  0  0  0  0  0  0  0  0  0  0
   -1.0828   12.5669    0.0000 H   0  0  0  0  0  0  0  0  0  0  0  0
   -2.8530   12.7915    0.0000 H   0  0  0  0  0  0  0  0  0  0  0  0
   -3.5854   11.1642    0.0000 H   0  0  0  0  0  0  0  0  0  0  0  0
   -0.0052   11.9263    0.0000 H   0  0  0  0  0  0  0  0  0  0  0  0
    1.0379   10.4785    0.0000 H   0  0  0  0  0  0  0  0  0  0  0  0
   -0.2204    9.0172    0.0000 H   0  0  0  0  0  0  0  0  0  0  0  0
   -5.5208    9.6616    0.0000 H   0  0  0  0  0  0  0  0  0  0  0  0
   -6.6644    9.4459    0.0000 H   0  0  0  0  0  0  0  0  0  0  0  0
   -9.4498   10.0269    0.0000 H   0  0  0  0  0  0  0  0  0  0  0  0
   -9.4033    8.2430    0.0000 H   0  0  0  0  0  0  0  0  0  0  0  0
   -5.0191   10.3292    0.0000 H   0  0  0  0  0  0  0  0  0  0  0  0
   -5.1173   13.4380    0.0000 H   0  0  0  0  0  0  0  0  0  0  0  0
   -7.4858   15.6038    0.0000 H   0  0  0  0  0  0  0  0  0  0  0  0
  -10.4693   15.9176    0.0000 H   0  0  0  0  0  0  0  0  0  0  0  0
  -12.2328   13.4906    0.0000 H   0  0  0  0  0  0  0  0  0  0  0  0
  -11.0127   10.7499    0.0000 H   0  0  0  0  0  0  0  0  0  0  0  0
  -10.6378    8.3366    0.0000 H   0  0  0  0  0  0  0  0  0  0  0  0
  -11.3016    7.5612    0.0000 H   0  0  0  0  0  0  0  0  0  0  0  0
  -14.1366    6.3366    0.0000 H   0  0  0  0  0  0  0  0  0  0  0  0
  -13.1370    5.0443    0.0000 H   0  0  0  0  0  0  0  0  0  0  0  0
  -12.7040    9.3766    0.0000 H   0  0  0  0  0  0  0  0  0  0  0  0
  -11.6024    8.3925    0.0000 H   0  0  0  0  0  0  0  0  0  0  0  0
  -15.9387    8.0012    0.0000 H   0  0  0  0  0  0  0  0  0  0  0  0
  -14.7890    6.8404    0.0000 H   0  0  0  0  0  0  0  0  0  0  0  0
  -14.7133   11.2505    0.0000 H   0  0  0  0  0  0  0  0  0  0  0  0
  -13.3826   10.0617    0.0000 H   0  0  0  0  0  0  0  0  0  0  0  0
  -16.6795   11.6027    0.0000 H   0  0  0  0  0  0  0  0  0  0  0  0
  -17.7932   10.0285    0.0000 H   0  0  0  0  0  0  0  0  0  0  0  0
  -16.6172    8.6863    0.0000 H   0  0  0  0  0  0  0  0  0  0  0  0
  -14.2261    4.4556    0.0000 H   0  0  0  0  0  0  0  0  0  0  0  0
  -14.3653    3.4443    0.0000 H   0  0  0  0  0  0  0  0  0  0  0  0
  -16.0882    0.8814    0.0000 H   0  0  0  0  0  0  0  0  0  0  0  0
  -14.5486    0.3347    0.0000 H   0  0  0  0  0  0  0  0  0  0  0  0
  -15.0678    3.9811    0.0000 H   0  0  0  0  0  0  0  0  0  0  0  0
  -18.6539    3.2301    0.0000 H   0  0  0  0  0  0  0  0  0  0  0  0
  -18.6243    1.4459    0.0000 H   0  0  0  0  0  0  0  0  0  0  0  0
  -16.9094    0.9526    0.0000 H   0  0  0  0  0  0  0  0  0  0  0  0
  -18.1732    4.3878    0.0000 H   0  0  0  0  0  0  0  0  0  0  0  0
  -16.8886    5.6263    0.0000 H   0  0  0  0  0  0  0  0  0  0  0  0
  -15.2631    4.5888    0.0000 H   0  0  0  0  0  0  0  0  0  0  0  0
  -15.1465   -0.7493    0.0000 H   0  0  0  0  0  0  0  0  0  0  0  0
  -14.7169   -1.6753    0.0000 H   0  0  0  0  0  0  0  0  0  0  0  0
  -14.7807   -4.7629    0.0000 H   0  0  0  0  0  0  0  0  0  0  0  0
  -13.1899   -4.3904    0.0000 H   0  0  0  0  0  0  0  0  0  0  0  0
  -15.5981   -1.6036    0.0000 H   0  0  0  0  0  0  0  0  0  0  0  0
  -18.2089   -4.1742    0.0000 H   0  0  0  0  0  0  0  0  0  0  0  0
  -17.2193   -5.6591    0.0000 H   0  0  0  0  0  0  0  0  0  0  0  0
  -15.5100   -5.1470    0.0000 H   0  0  0  0  0  0  0  0  0  0  0  0
  -18.4305   -2.9403    0.0000 H   0  0  0  0  0  0  0  0  0  0  0  0
  -18.0193   -1.2039    0.0000 H   0  0  0  0  0  0  0  0  0  0  0  0
  -16.0909   -1.1979    0.0000 H   0  0  0  0  0  0  0  0  0  0  0  0
  -13.1069   -5.6256    0.0000 H   0  0  0  0  0  0  0  0  0  0  0  0
   -9.4278   -8.1773    0.0000 H   0  0  0  0  0  0  0  0  0  0  0  0
  -10.6033   -7.7260    0.0000 H   0  0  0  0  0  0  0  0  0  0  0  0
   -7.9407   -8.7422    0.0000 H   0  0  0  0  0  0  0  0  0  0  0  0
   -9.0007   -8.4859    0.0000 H   0  0  0  0  0  0  0  0  0  0  0  0
   -6.0242   -8.9108    0.0000 H   0  0  0  0  0  0  0  0  0  0  0  0
   -7.4457   -8.8442    0.0000 H   0  0  0  0  0  0  0  0  0  0  0  0
   -5.0497   -9.0724    0.0000 H   0  0  0  0  0  0  0  0  0  0  0  0
  -12.8226   -7.7111    0.0000 H   0  0  0  0  0  0  0  0  0  0  0  0
  -13.6949   -6.3296    0.0000 H   0  0  0  0  0  0  0  0  0  0  0  0
  -12.7877   -4.9707    0.0000 H   0  0  0  0  0  0  0  0  0  0  0  0
  -13.6439   -7.1739    0.0000 H   0  0  0  0  0  0  0  0  0  0  0  0
  -11.0332   -9.3385    0.0000 H   0  0  0  0  0  0  0  0  0  0  0  0
  -11.3813  -12.1360    0.0000 H   0  0  0  0  0  0  0  0  0  0  0  0
  -10.8145  -10.2928    0.0000 H   0  0  0  0  0  0  0  0  0  0  0  0
  -14.6766  -12.4817    0.0000 H   0  0  0  0  0  0  0  0  0  0  0  0
  -14.6057  -11.1686    0.0000 H   0  0  0  0  0  0  0  0  0  0  0  0
  -13.1562  -12.6542    0.0000 H   0  0  0  0  0  0  0  0  0  0  0  0
  -15.8150  -10.6086    0.0000 H   0  0  0  0  0  0  0  0  0  0  0  0
  -18.3597  -12.7306    0.0000 H   0  0  0  0  0  0  0  0  0  0  0  0
  -16.8237  -13.6388    0.0000 H   0  0  0  0  0  0  0  0  0  0  0  0
  -20.1059   -9.7042    0.0000 H   0  0  0  0  0  0  0  0  0  0  0  0
  -19.9741  -12.2989    0.0000 H   0  0  0  0  0  0  0  0  0  0  0  0
  1  2  1  0
  2  3  1  0
  3  4  1  0
  4  5  2  0
  4  6  1  0
  6  7  1  0
  7  8  1  0
  8  9  1  0
  9 10  1  0
  9 11  1  0
  7 12  1  0
 12 13  2  0
 12 14  1  0
 14 15  1  0
 15 16  1  0
 16 17  1  0
 15 18  1  0
 18 19  2  0
 18 20  1  0
 20 21  1  0
 21 22  1  0
 22 23  1  0
 23 24  1  0
 24 25  1  0
 24 26  2  0
 21 27  1  0
 27 28  2  0
 27 29  1  0
 29 30  1  0
 30 31  1  0
 31 32  1  0
 32 33  1  0
 33 34  2  0
 33 35  1  0
 30 36  1  0
 36 37  2  0
 36 38  1  0
 38 39  1  0
 39 40  1  0
 40 41  1  0
 40 42  1  0
 39 43  1  0
 43 44  2  0
 43 45  1  0
 45 46  1  0
 46 47  1  0
 47 48  1  0
 48 49  2  0
 49 50  1  0
 50 51  2  0
 51 52  1  0
 52 53  2  0
 46 54  1  0
 54 55  2  0
 54 56  1  0
 57 56  1  6
 57 58  1  0
 58 59  1  0
 59 60  1  0
 60 61  1  0
 61 62  1  0
 62 63  1  0
 63 64  1  0
 57 65  1  0
 57 66  1  0
 66 67  2  0
 66 68  1  0
 68 69  1  0
 69 70  1  0
 70 71  1  0
 71 72  2  0
 71 73  1  0
 69 74  1  0
 74 75  2  0
 74 76  1  0
 76 77  1  0
 77 78  1  0
 78 79  1  0
 79 80  1  0
 79 81  1  0
 77 82  1  0
 82 83  2  0
 82 84  1  0
 84 85  1  0
 85 86  1  0
 86 87  1  0
 87 88  2  0
 88 89  1  0
 89 90  1  0
 90 91  2  0
 91 92  1  0
 92 93  2  0
 93 94  1  0
 94 95  2  0
 85 96  1  0
 96 97  2  0
 96 98  1  0
 98 99  1  0
 99100  1  0
100101  1  0
101102  1  0
102103  1  0
103104  1  0
 99105  1  0
105106  2  0
105107  1  0
107108  1  0
108109  1  0
109110  1  0
110111  1  0
110112  1  0
108113  1  0
113114  2  0
113115  1  0
115116  1  0
116117  1  0
117118  1  0
118119  1  0
118120  1  0
116121  1  0
121122  2  0
121123  1  0
123124  1  0
124125  1  0
125126  1  0
126127  1  0
127128  1  0
124129  1  0
124130  1  1
130131  2  0
130132  1  0
132133  1  0
133134  1  0
134135  1  0
135136  1  0
136137  2  0
136138  1  0
133139  1  0
139140  2  0
139141  1  0
141142  1  0
142143  1  0
143144  1  0
144145  1  0
144146  2  0
142147  1  0
147148  2  0
147149  1  0
 53 48  1  0
 95 87  1  0
 95 90  1  0
 64128  2  0
  1150  1  0
  1151  1  0
  2152  1  0
  2153  1  0
  3154  1  0
  3155  1  0
  6156  1  0
  7157  1  6
  8158  1  0
  8159  1  0
  9160  1  0
 10161  1  0
 10162  1  0
 10163  1  0
 11164  1  0
 11165  1  0
 11166  1  0
 14167  1  0
 15168  1  6
 16169  1  0
 16170  1  0
 17171  1  0
 20172  1  0
 21173  1  6
 22174  1  0
 22175  1  0
 23176  1  0
 23177  1  0
 25178  1  0
 25179  1  0
 29180  1  0
 30181  1  6
 31182  1  0
 31183  1  0
 32184  1  0
 32185  1  0
 38186  1  0
 39187  1  1
 40188  1  6
 41189  1  0
 42190  1  0
 42191  1  0
 42192  1  0
 45193  1  0
 46194  1  1
 47195  1  0
 47196  1  0
 49197  1  0
 50198  1  0
 51199  1  0
 52200  1  0
 53201  1  0
 56202  1  0
 58203  1  0
 58204  1  0
 59205  1  0
 59206  1  0
 60207  1  0
 60208  1  0
 61209  1  0
 61210  1  0
 62211  1  0
 62212  1  0
 63213  1  0
 63214  1  0
 64215  1  0
 65216  1  0
 65217  1  0
 65218  1  0
 68219  1  0
 69220  1  6
 70221  1  0
 70222  1  0
 76223  1  0
 77224  1  6
 78225  1  0
 78226  1  0
 79227  1  0
 80228  1  0
 80229  1  0
 80230  1  0
 81231  1  0
 81232  1  0
 81233  1  0
 84234  1  0
 85235  1  6
 86236  1  0
 86237  1  0
 88238  1  0
 89239  1  0
 91240  1  0
 92241  1  0
 93242  1  0
 94243  1  0
 98244  1  0
 99245  1  6
100246  1  0
100247  1  0
101248  1  0
101249  1  0
102250  1  0
102251  1  0
103252  1  0
103253  1  0
104254  1  0
104255  1  0
104256  1  0
107257  1  0
108258  1  6
109259  1  0
109260  1  0
110261  1  0
111262  1  0
111263  1  0
111264  1  0
112265  1  0
112266  1  0
112267  1  0
115268  1  0
116269  1  6
117270  1  0
117271  1  0
118272  1  0
119273  1  0
119274  1  0
119275  1  0
120276  1  0
120277  1  0
120278  1  0
123279  1  0
125280  1  0
125281  1  0
126282  1  0
126283  1  0
127284  1  0
127285  1  0
128286  1  0
129287  1  0
129288  1  0
129289  1  0
132290  1  0
133291  1  1
134292  1  0
134293  1  0
135294  1  0
135295  1  0
141296  1  0
142297  1  6
143298  1  0
143299  1  0
145300  1  0
145301  1  0
M  CHG  5  35  -1  73  -1 104   1 138  -1 149  -1
M  END
