
     RDKit          2D

261263  0  0  0  0  0  0  0  0999 V2000
   15.1964  -14.2851    0.0000 N   0  0  0  0  0  0  0  0  0  0  0  0
   14.7674  -12.8478    0.0000 C   0  0  0  0  0  0  0  0  0  0  0  0
   13.3081  -12.5007    0.0000 C   0  0  0  0  0  0  0  0  0  0  0  0
   12.8790  -11.0634    0.0000 C   0  0  0  0  0  0  0  0  0  0  0  0
   13.9093   -9.9731    0.0000 O   0  0  0  0  0  0  0  0  0  0  0  0
   11.4197  -10.7163    0.0000 N   0  0  0  0  0  0  0  0  0  0  0  0
   10.9907   -9.2789    0.0000 C   0  0  0  0  0  0  0  0  0  0  0  0
    9.6497   -9.9511    0.0000 C   0  0  0  0  0  0  0  0  0  0  0  0
    9.5613  -11.4485    0.0000 C   0  0  0  0  0  0  0  0  0  0  0  0
    8.2203  -12.1206    0.0000 C   0  0  0  0  0  0  0  0  0  0  0  0
    8.1319  -13.6180    0.0000 O   0  0  0  0  0  0  0  0  0  0  0  0
    6.9677  -11.2953    0.0000 O   0  0  0  0  0  0  0  0  0  0  0  0
   11.0791   -7.7815    0.0000 C   0  0  0  0  0  0  0  0  0  0  0  0
    9.7353   -7.1151    0.0000 O   0  0  0  0  0  0  0  0  0  0  0  0
   12.4201   -7.1094    0.0000 N   0  0  0  0  0  0  0  0  0  0  0  0
   12.5085   -5.6120    0.0000 C   0  0  0  0  0  0  0  0  0  0  0  0
   11.0185   -5.7850    0.0000 C   0  0  0  0  0  0  0  0  0  0  0  0
   10.1237   -4.5811    0.0000 C   0  0  0  0  0  0  0  0  0  0  0  0
    8.6337   -4.7540    0.0000 N   0  0  0  0  0  0  0  0  0  0  0  0
   10.5467   -3.1419    0.0000 O   0  0  0  0  0  0  0  0  0  0  0  0
   13.1037   -4.2352    0.0000 C   0  0  0  0  0  0  0  0  0  0  0  0
   12.3493   -3.4436    0.0000 O   0  0  0  0  0  0  0  0  0  0  0  0
   14.5937   -4.0622    0.0000 N   0  0  0  0  0  0  0  0  0  0  0  0
   15.6094   -5.1660    0.0000 C   0  0  0  0  0  0  0  0  0  0  0  0
   16.9731   -4.5411    0.0000 C   0  0  0  0  0  0  0  0  0  0  0  0
   16.8001   -3.0511    0.0000 C   0  0  0  0  0  0  0  0  0  0  0  0
   15.3296   -2.7551    0.0000 C   0  0  0  0  0  0  0  0  0  0  0  0
   13.9527   -2.1599    0.0000 C   0  0  0  0  0  0  0  0  0  0  0  0
   13.3757   -2.7099    0.0000 O   0  0  0  0  0  0  0  0  0  0  0  0
   13.7798   -0.6699    0.0000 N   0  0  0  0  0  0  0  0  0  0  0  0
   12.4029   -0.0747    0.0000 C   0  0  0  0  0  0  0  0  0  0  0  0
   12.0559   -1.5340    0.0000 C   0  0  0  0  0  0  0  0  0  0  0  0
   13.1461   -2.5642    0.0000 C   0  0  0  0  0  0  0  0  0  0  0  0
   12.7990   -4.0235    0.0000 C   0  0  0  0  0  0  0  0  0  0  0  0
   14.0067   -4.9132    0.0000 O   0  0  0  0  0  0  0  0  0  0  0  0
   11.3617   -4.4526    0.0000 O   0  0  0  0  0  0  0  0  0  0  0  0
   11.3127    0.9555    0.0000 C   0  0  0  0  0  0  0  0  0  0  0  0
   10.1247    0.0398    0.0000 O   0  0  0  0  0  0  0  0  0  0  0  0
   11.6598    2.4148    0.0000 N   0  0  0  0  0  0  0  0  0  0  0  0
   10.5696    3.4451    0.0000 C   0  0  0  0  0  0  0  0  0  0  0  0
   10.0789    2.0276    0.0000 C   0  0  0  0  0  0  0  0  0  0  0  0
    9.1922    0.8177    0.0000 C   0  0  0  0  0  0  0  0  0  0  0  0
    7.9883   -0.0771    0.0000 C   0  0  0  0  0  0  0  0  0  0  0  0
    6.5742   -0.5773    0.0000 C   0  0  0  0  0  0  0  0  0  0  0  0
   11.9570    4.0151    0.0000 C   0  0  0  0  0  0  0  0  0  0  0  0
   10.6206    4.9442    0.0000 C   0  0  0  0  0  0  0  0  0  0  0  0
   12.1106    5.1171    0.0000 O   0  0  0  0  0  0  0  0  0  0  0  0
   10.2275    6.3918    0.0000 N   0  0  0  0  0  0  0  0  0  0  0  0
    9.4252    7.6592    0.0000 C   0  0  0  0  0  0  0  0  0  0  0  0
    9.8446    9.0993    0.0000 C   0  0  0  0  0  0  0  0  0  0  0  0
   11.3342    9.2760    0.0000 C   0  0  0  0  0  0  0  0  0  0  0  0
    9.7461   10.5961    0.0000 C   0  0  0  0  0  0  0  0  0  0  0  0
   10.9931   11.4298    0.0000 C   0  0  0  0  0  0  0  0  0  0  0  0
    8.2850    8.6338    0.0000 C   0  0  0  0  0  0  0  0  0  0  0  0
    8.9177    9.9938    0.0000 O   0  0  0  0  0  0  0  0  0  0  0  0
    6.9081    9.2290    0.0000 N   0  0  0  0  0  0  0  0  0  0  0  0
    5.4170    9.3919    0.0000 C   0  0  0  0  0  0  0  0  0  0  0  0
    4.5525   10.6178    0.0000 C   0  0  0  0  0  0  0  0  0  0  0  0
    5.1819   11.9793    0.0000 C   0  0  0  0  0  0  0  0  0  0  0  0
    4.3174   13.2052    0.0000 C   0  0  0  0  0  0  0  0  0  0  0  0
    6.2390   13.0436    0.0000 C   0  0  0  0  0  0  0  0  0  0  0  0
    3.9441    9.1081    0.0000 C   0  0  0  0  0  0  0  0  0  0  0  0
    3.4439   10.5223    0.0000 O   0  0  0  0  0  0  0  0  0  0  0  0
    2.6203    8.4028    0.0000 N   0  0  0  0  0  0  0  0  0  0  0  0
    1.5632    7.3386    0.0000 C   0  0  0  0  0  0  0  0  0  0  0  0
    0.0658    7.4270    0.0000 C   0  0  0  0  0  0  0  0  0  0  0  0
   -0.6063    8.7679    0.0000 C   0  0  0  0  0  0  0  0  0  0  0  0
   -2.1037    8.8564    0.0000 O   0  0  0  0  0  0  0  0  0  0  0  0
    0.2189   10.0205    0.0000 O   0  0  0  0  0  0  0  0  0  0  0  0
    0.8667    6.0100    0.0000 C   0  0  0  0  0  0  0  0  0  0  0  0
   -0.5507    6.5007    0.0000 O   0  0  0  0  0  0  0  0  0  0  0  0
    0.5928    4.5353    0.0000 N   0  0  0  0  0  0  0  0  0  0  0  0
    0.7658    3.0453    0.0000 C   0  0  0  0  0  0  0  0  0  0  0  0
    1.3702    1.6724    0.0000 C   0  0  0  0  0  0  0  0  0  0  0  0
    2.3525    0.5388    0.0000 C   0  0  0  0  0  0  0  0  0  0  0  0
    3.6252   -0.2550    0.0000 C   0  0  0  0  0  0  0  0  0  0  0  0
    5.0754   -0.6384    0.0000 C   0  0  0  0  0  0  0  0  0  0  0  0
   -0.6635    3.5004    0.0000 C   0  0  0  0  0  0  0  0  0  0  0  0
   -0.2370    1.9297    0.0000 C   0  0  0  0  0  0  0  0  0  0  0  0
   -0.1311    0.4334    0.0000 O   0  0  0  0  0  0  0  0  0  0  0  0
   -1.7044    2.2403    0.0000 N   0  0  0  0  0  0  0  0  0  0  0  0
   -2.7072    1.1247    0.0000 C   0  0  0  0  0  0  0  0  0  0  0  0
   -3.2679   -0.2666    0.0000 C   0  0  0  0  0  0  0  0  0  0  0  0
   -4.7531   -0.4766    0.0000 C   0  0  0  0  0  0  0  0  0  0  0  0
   -5.4562   -1.8016    0.0000 C   0  0  0  0  0  0  0  0  0  0  0  0
   -6.9336   -1.5424    0.0000 N   0  0  0  0  0  0  0  0  0  0  0  0
   -7.1437   -0.0572    0.0000 C   0  0  0  0  0  0  0  0  0  0  0  0
   -5.7960    0.6015    0.0000 N   0  0  0  0  0  0  0  0  0  0  0  0
   -4.1747    1.4353    0.0000 C   0  0  0  0  0  0  0  0  0  0  0  0
   -4.6394    2.8615    0.0000 O   0  0  0  0  0  0  0  0  0  0  0  0
   -5.1774    0.3197    0.0000 N   0  0  0  0  0  0  0  0  0  0  0  0
   -6.6449    0.6303    0.0000 C   0  0  0  0  0  0  0  0  0  0  0  0
   -7.9177    1.4241    0.0000 C   0  0  0  0  0  0  0  0  0  0  0  0
   -7.8666    2.9232    0.0000 C   0  0  0  0  0  0  0  0  0  0  0  0
   -7.6476   -0.4853    0.0000 C   0  0  0  0  0  0  0  0  0  0  0  0
   -7.5418   -1.9815    0.0000 O   0  0  0  0  0  0  0  0  0  0  0  0
   -9.1151   -0.1747    0.0000 N   0  0  0  0  0  0  0  0  0  0  0  0
  -10.1178   -1.2903    0.0000 C   0  0  0  0  0  0  0  0  0  0  0  0
  -10.6786   -2.6815    0.0000 C   0  0  0  0  0  0  0  0  0  0  0  0
  -12.1638   -2.8916    0.0000 C   0  0  0  0  0  0  0  0  0  0  0  0
  -12.7245   -4.2828    0.0000 C   0  0  0  0  0  0  0  0  0  0  0  0
  -14.1730   -4.6723    0.0000 N   0  0  0  0  0  0  0  0  0  0  0  0
  -11.8000   -5.4640    0.0000 O   0  0  0  0  0  0  0  0  0  0  0  0
  -11.5853   -0.9797    0.0000 C   0  0  0  0  0  0  0  0  0  0  0  0
  -12.0501    0.4465    0.0000 O   0  0  0  0  0  0  0  0  0  0  0  0
  -12.5881   -2.0952    0.0000 N   0  0  0  0  0  0  0  0  0  0  0  0
  -14.0556   -1.7847    0.0000 C   0  0  0  0  0  0  0  0  0  0  0  0
  -15.3283   -0.9909    0.0000 C   0  0  0  0  0  0  0  0  0  0  0  0
  -15.2773    0.5083    0.0000 C   0  0  0  0  0  0  0  0  0  0  0  0
  -16.5500    1.3020    0.0000 C   0  0  0  0  0  0  0  0  0  0  0  0
  -16.4990    2.8012    0.0000 N   0  0  0  0  0  0  0  0  0  0  0  0
  -17.7717    3.5949    0.0000 C   0  0  0  0  0  0  0  0  0  0  0  0
  -17.7207    5.0941    0.0000 N   0  0  0  0  0  0  0  0  0  0  0  0
  -19.0955    2.8896    0.0000 N   0  0  0  0  0  0  0  0  0  0  0  0
  -15.0583   -2.9002    0.0000 C   0  0  0  0  0  0  0  0  0  0  0  0
  -14.7708   -4.3724    0.0000 O   0  0  0  0  0  0  0  0  0  0  0  0
  -16.5258   -2.5896    0.0000 N   0  0  0  0  0  0  0  0  0  0  0  0
  -17.5285   -3.7052    0.0000 C   0  0  0  0  0  0  0  0  0  0  0  0
  -18.0892   -5.0965    0.0000 C   0  0  0  0  0  0  0  0  0  0  0  0
  -19.5378   -5.4860    0.0000 C   0  0  0  0  0  0  0  0  0  0  0  0
  -18.9960   -3.3946    0.0000 C   0  0  0  0  0  0  0  0  0  0  0  0
  -19.4608   -1.9684    0.0000 O   0  0  0  0  0  0  0  0  0  0  0  0
  -19.9987   -4.5102    0.0000 N   0  0  0  0  0  0  0  0  0  0  0  0
  -21.4662   -4.1996    0.0000 C   0  0  0  0  0  0  0  0  0  0  0  0
  -22.7390   -3.4058    0.0000 C   0  0  0  0  0  0  0  0  0  0  0  0
  -22.6879   -1.9067    0.0000 C   0  0  0  0  0  0  0  0  0  0  0  0
  -23.9607   -1.1129    0.0000 S   0  0  0  0  0  0  0  0  0  0  0  0
  -23.9096    0.3862    0.0000 C   0  0  0  0  0  0  0  0  0  0  0  0
  -22.4690   -5.3152    0.0000 C   0  0  0  0  0  0  0  0  0  0  0  0
  -23.9634   -5.1858    0.0000 O   0  0  0  0  0  0  0  0  0  0  0  0
  -22.0042   -6.7414    0.0000 O   0  0  0  0  0  0  0  0  0  0  0  0
   16.6557  -14.6322    0.0000 H   0  0  0  0  0  0  0  0  0  0  0  0
   14.1662  -15.3753    0.0000 H   0  0  0  0  0  0  0  0  0  0  0  0
   16.2574  -12.6748    0.0000 H   0  0  0  0  0  0  0  0  0  0  0  0
   14.8558  -11.3504    0.0000 H   0  0  0  0  0  0  0  0  0  0  0  0
   13.2197  -13.9981    0.0000 H   0  0  0  0  0  0  0  0  0  0  0  0
   11.8181  -12.6736    0.0000 H   0  0  0  0  0  0  0  0  0  0  0  0
   10.5301  -11.9240    0.0000 H   0  0  0  0  0  0  0  0  0  0  0  0
   12.4807   -9.1060    0.0000 H   0  0  0  0  0  0  0  0  0  0  0  0
    8.1597  -10.1240    0.0000 H   0  0  0  0  0  0  0  0  0  0  0  0
    9.2206   -8.5137    0.0000 H   0  0  0  0  0  0  0  0  0  0  0  0
    9.9903  -12.8858    0.0000 H   0  0  0  0  0  0  0  0  0  0  0  0
   11.0143  -11.8211    0.0000 H   0  0  0  0  0  0  0  0  0  0  0  0
   13.6727   -7.9347    0.0000 H   0  0  0  0  0  0  0  0  0  0  0  0
   13.8404   -6.3019    0.0000 H   0  0  0  0  0  0  0  0  0  0  0  0
    9.6056   -6.2886    0.0000 H   0  0  0  0  0  0  0  0  0  0  0  0
   11.0870   -7.2834    0.0000 H   0  0  0  0  0  0  0  0  0  0  0  0
    7.7390   -3.5501    0.0000 H   0  0  0  0  0  0  0  0  0  0  0  0
    8.0385   -6.1309    0.0000 H   0  0  0  0  0  0  0  0  0  0  0  0
   16.3735   -6.4568    0.0000 H   0  0  0  0  0  0  0  0  0  0  0  0
   14.5236   -6.2009    0.0000 H   0  0  0  0  0  0  0  0  0  0  0  0
   18.4368   -4.2133    0.0000 H   0  0  0  0  0  0  0  0  0  0  0  0
   17.4520   -5.9626    0.0000 H   0  0  0  0  0  0  0  0  0  0  0  0
   16.9407   -1.5577    0.0000 H   0  0  0  0  0  0  0  0  0  0  0  0
   18.3000   -3.0348    0.0000 H   0  0  0  0  0  0  0  0  0  0  0  0
   15.7776   -1.3236    0.0000 H   0  0  0  0  0  0  0  0  0  0  0  0
   14.9837    0.2249    0.0000 H   0  0  0  0  0  0  0  0  0  0  0  0
   13.2282    1.1779    0.0000 H   0  0  0  0  0  0  0  0  0  0  0  0
   11.0841   -2.6766    0.0000 H   0  0  0  0  0  0  0  0  0  0  0  0
   10.6790   -0.9388    0.0000 H   0  0  0  0  0  0  0  0  0  0  0  0
   14.3380   -3.4749    0.0000 H   0  0  0  0  0  0  0  0  0  0  0  0
   14.2499   -1.5486    0.0000 H   0  0  0  0  0  0  0  0  0  0  0  0
   13.1387    2.6655    0.0000 H   0  0  0  0  0  0  0  0  0  0  0  0
   11.5612    1.7978    0.0000 H   0  0  0  0  0  0  0  0  0  0  0  0
   10.6523    0.6415    0.0000 H   0  0  0  0  0  0  0  0  0  0  0  0
   10.3420   -0.1456    0.0000 H   0  0  0  0  0  0  0  0  0  0  0  0
    9.6889   -0.5977    0.0000 H   0  0  0  0  0  0  0  0  0  0  0  0
    9.2004   -0.9608    0.0000 H   0  0  0  0  0  0  0  0  0  0  0  0
    7.8626   -1.5718    0.0000 H   0  0  0  0  0  0  0  0  0  0  0  0
    6.8580   -2.0502    0.0000 H   0  0  0  0  0  0  0  0  0  0  0  0
   13.2473    3.2501    0.0000 H   0  0  0  0  0  0  0  0  0  0  0  0
   13.0658    5.0253    0.0000 H   0  0  0  0  0  0  0  0  0  0  0  0
   11.4852    5.4390    0.0000 H   0  0  0  0  0  0  0  0  0  0  0  0
   11.6003    6.9962    0.0000 H   0  0  0  0  0  0  0  0  0  0  0  0
   10.9250    7.6866    0.0000 H   0  0  0  0  0  0  0  0  0  0  0  0
    8.4372    9.6183    0.0000 H   0  0  0  0  0  0  0  0  0  0  0  0
   11.9156   10.8372    0.0000 H   0  0  0  0  0  0  0  0  0  0  0  0
   12.7927    9.2933    0.0000 H   0  0  0  0  0  0  0  0  0  0  0  0
   11.5817    7.9826    0.0000 H   0  0  0  0  0  0  0  0  0  0  0  0
    9.1417   11.9689    0.0000 H   0  0  0  0  0  0  0  0  0  0  0  0
    8.2566   10.4195    0.0000 H   0  0  0  0  0  0  0  0  0  0  0  0
   10.8947   12.9265    0.0000 H   0  0  0  0  0  0  0  0  0  0  0  0
   12.4501   11.7866    0.0000 H   0  0  0  0  0  0  0  0  0  0  0  0
   11.9118   10.2440    0.0000 H   0  0  0  0  0  0  0  0  0  0  0  0
    7.2915   10.6792    0.0000 H   0  0  0  0  0  0  0  0  0  0  0  0
    6.3306   10.5816    0.0000 H   0  0  0  0  0  0  0  0  0  0  0  0
    3.2257   11.3175    0.0000 H   0  0  0  0  0  0  0  0  0  0  0  0
    3.2693    9.8410    0.0000 H   0  0  0  0  0  0  0  0  0  0  0  0
    6.5087   11.2796    0.0000 H   0  0  0  0  0  0  0  0  0  0  0  0
    4.7761   14.6333    0.0000 H   0  0  0  0  0  0  0  0  0  0  0  0
    3.0858   14.0614    0.0000 H   0  0  0  0  0  0  0  0  0  0  0  0
    3.1385   12.2778    0.0000 H   0  0  0  0  0  0  0  0  0  0  0  0
    6.0253   14.5283    0.0000 H   0  0  0  0  0  0  0  0  0  0  0  0
    7.5963   13.6821    0.0000 H   0  0  0  0  0  0  0  0  0  0  0  0
    7.1034   11.8177    0.0000 H   0  0  0  0  0  0  0  0  0  0  0  0
    1.7255    9.6067    0.0000 H   0  0  0  0  0  0  0  0  0  0  0  0
    1.0279    8.7398    0.0000 H   0  0  0  0  0  0  0  0  0  0  0  0
   -1.3715    6.9979    0.0000 H   0  0  0  0  0  0  0  0  0  0  0  0
   -0.1269    5.9394    0.0000 H   0  0  0  0  0  0  0  0  0  0  0  0
   -0.9063    4.5863    0.0000 H   0  0  0  0  0  0  0  0  0  0  0  0
    0.7409    0.3109    0.0000 H   0  0  0  0  0  0  0  0  0  0  0  0
   -0.0884    1.3227    0.0000 H   0  0  0  0  0  0  0  0  0  0  0  0
    1.9727   -0.9124    0.0000 H   0  0  0  0  0  0  0  0  0  0  0  0
    1.0617   -0.2253    0.0000 H   0  0  0  0  0  0  0  0  0  0  0  0
    3.8722   -1.7345    0.0000 H   0  0  0  0  0  0  0  0  0  0  0  0
    2.4891   -1.2345    0.0000 H   0  0  0  0  0  0  0  0  0  0  0  0
    4.9125   -2.1295    0.0000 H   0  0  0  0  0  0  0  0  0  0  0  0
   -1.9838    2.7886    0.0000 H   0  0  0  0  0  0  0  0  0  0  0  0
   -1.7303    4.5549    0.0000 H   0  0  0  0  0  0  0  0  0  0  0  0
   -0.3092    4.9580    0.0000 H   0  0  0  0  0  0  0  0  0  0  0  0
   -2.3396    3.5992    0.0000 H   0  0  0  0  0  0  0  0  0  0  0  0
   -1.4344    0.3309    0.0000 H   0  0  0  0  0  0  0  0  0  0  0  0
   -3.3189   -1.7657    0.0000 H   0  0  0  0  0  0  0  0  0  0  0  0
   -1.8004   -0.5772    0.0000 H   0  0  0  0  0  0  0  0  0  0  0  0
   -4.7975   -3.1493    0.0000 H   0  0  0  0  0  0  0  0  0  0  0  0
   -8.0117   -2.5854    0.0000 H   0  0  0  0  0  0  0  0  0  0  0  0
   -8.5445    0.4791    0.0000 H   0  0  0  0  0  0  0  0  0  0  0  0
   -5.0716   -1.1766    0.0000 H   0  0  0  0  0  0  0  0  0  0  0  0
   -5.9188    1.9428    0.0000 H   0  0  0  0  0  0  0  0  0  0  0  0
   -9.3363    1.9112    0.0000 H   0  0  0  0  0  0  0  0  0  0  0  0
   -8.9398    0.3263    0.0000 H   0  0  0  0  0  0  0  0  0  0  0  0
   -9.1394    3.7170    0.0000 H   0  0  0  0  0  0  0  0  0  0  0  0
   -7.3059    4.3145    0.0000 H   0  0  0  0  0  0  0  0  0  0  0  0
   -6.3722    2.7938    0.0000 H   0  0  0  0  0  0  0  0  0  0  0  0
   -9.7503    1.1842    0.0000 H   0  0  0  0  0  0  0  0  0  0  0  0
   -8.8451   -2.0840    0.0000 H   0  0  0  0  0  0  0  0  0  0  0  0
  -10.7296   -4.1807    0.0000 H   0  0  0  0  0  0  0  0  0  0  0  0
   -9.2111   -2.9921    0.0000 H   0  0  0  0  0  0  0  0  0  0  0  0
  -13.6313   -2.5810    0.0000 H   0  0  0  0  0  0  0  0  0  0  0  0
  -12.8226   -1.5440    0.0000 H   0  0  0  0  0  0  0  0  0  0  0  0
  -14.7704   -5.8841    0.0000 H   0  0  0  0  0  0  0  0  0  0  0  0
  -15.4349   -3.5847    0.0000 H   0  0  0  0  0  0  0  0  0  0  0  0
  -12.4822   -3.5915    0.0000 H   0  0  0  0  0  0  0  0  0  0  0  0
  -13.3294   -0.4721    0.0000 H   0  0  0  0  0  0  0  0  0  0  0  0
  -16.7958   -0.6803    0.0000 H   0  0  0  0  0  0  0  0  0  0  0  0
  -16.2090   -2.2051    0.0000 H   0  0  0  0  0  0  0  0  0  0  0  0
  -14.7166    1.8995    0.0000 H   0  0  0  0  0  0  0  0  0  0  0  0
  -13.7829    0.3789    0.0000 H   0  0  0  0  0  0  0  0  0  0  0  0
  -18.0175    1.6126    0.0000 H   0  0  0  0  0  0  0  0  0  0  0  0
  -17.2761   -0.0105    0.0000 H   0  0  0  0  0  0  0  0  0  0  0  0
  -15.1752    3.5065    0.0000 H   0  0  0  0  0  0  0  0  0  0  0  0
  -18.9934    5.8879    0.0000 H   0  0  0  0  0  0  0  0  0  0  0  0
  -16.3969    5.7994    0.0000 H   0  0  0  0  0  0  0  0  0  0  0  0
  -20.3683    3.6834    0.0000 H   0  0  0  0  0  0  0  0  0  0  0  0
  -19.1466    1.3905    0.0000 H   0  0  0  0  0  0  0  0  0  0  0  0
  -17.1609   -1.2307    0.0000 H   0  0  0  0  0  0  0  0  0  0  0  0
  -16.2558   -4.4990    0.0000 H   0  0  0  0  0  0  0  0  0  0  0  0
  -18.1403   -6.5956    0.0000 H   0  0  0  0  0  0  0  0  0  0  0  0
  -16.6217   -5.4071    0.0000 H   0  0  0  0  0  0  0  0  0  0  0  0
  -20.1352   -6.6978    0.0000 H   0  0  0  0  0  0  0  0  0  0  0  0
  -21.0419   -4.9959    0.0000 H   0  0  0  0  0  0  0  0  0  0  0  0
  -20.2333   -3.9590    0.0000 H   0  0  0  0  0  0  0  0  0  0  0  0
  -19.7113   -5.9824    0.0000 H   0  0  0  0  0  0  0  0  0  0  0  0
  -20.7401   -2.8871    0.0000 H   0  0  0  0  0  0  0  0  0  0  0  0
  -24.2065   -3.0952    0.0000 H   0  0  0  0  0  0  0  0  0  0  0  0
  -23.4651   -4.7184    0.0000 H   0  0  0  0  0  0  0  0  0  0  0  0
  -21.9618   -0.5942    0.0000 H   0  0  0  0  0  0  0  0  0  0  0  0
  -21.1935   -2.0361    0.0000 H   0  0  0  0  0  0  0  0  0  0  0  0
  -25.1824    1.1800    0.0000 H   0  0  0  0  0  0  0  0  0  0  0  0
  -23.3489    1.7775    0.0000 H   0  0  0  0  0  0  0  0  0  0  0  0
  -22.4152    0.2568    0.0000 H   0  0  0  0  0  0  0  0  0  0  0  0
  1  2  1  0
  2  3  1  0
  3  4  1  0
  4  5  2  0
  4  6  1  0
  6  7  1  0
  7  8  1  0
  8  9  1  0
  9 10  1  0
 10 11  2  0
 10 12  1  0
  7 13  1  0
 13 14  2  0
 13 15  1  0
 15 16  1  0
 16 17  1  0
 17 18  1  0
 18 19  1  0
 18 20  2  0
 16 21  1  0
 21 22  2  0
 21 23  1  0
 23 24  1  0
 24 25  1  0
 25 26  1  0
 26 27  1  0
 27 28  1  0
 28 29  2  0
 28 30  1  0
 30 31  1  0
 31 32  1  0
 32 33  1  0
 33 34  1  0
 34 35  2  0
 34 36  1  0
 31 37  1  0
 37 38  2  0
 37 39  1  0
 40 39  1  1
 40 41  1  0
 41 42  1  0
 42 43  1  0
 43 44  1  0
 40 45  1  0
 40 46  1  0
 46 47  2  0
 46 48  1  0
 48 49  1  0
 49 50  1  0
 50 51  1  0
 50 52  1  0
 52 53  1  0
 49 54  1  0
 54 55  2  0
 54 56  1  0
 56 57  1  0
 57 58  1  0
 58 59  1  0
 59 60  1  0
 59 61  1  0
 57 62  1  0
 62 63  2  0
 62 64  1  0
 64 65  1  0
 65 66  1  0
 66 67  1  0
 67 68  2  0
 67 69  1  0
 65 70  1  0
 70 71  2  0
 70 72  1  0
 72 73  1  0
 73 74  1  0
 74 75  1  0
 75 76  1  0
 76 77  1  0
 73 78  1  0
 73 79  1  1
 79 80  2  0
 79 81  1  0
 81 82  1  0
 82 83  1  0
 83 84  1  0
 84 85  2  0
 85 86  1  0
 86 87  1  0
 87 88  2  0
 82 89  1  0
 89 90  2  0
 89 91  1  0
 91 92  1  0
 92 93  1  0
 93 94  1  0
 92 95  1  0
 95 96  2  0
 95 97  1  0
 97 98  1  0
 98 99  1  0
 99100  1  0
100101  1  0
101102  1  0
101103  2  0
 98104  1  0
104105  2  0
104106  1  0
106107  1  0
107108  1  0
108109  1  0
109110  1  0
110111  1  0
111112  1  0
112113  2  3
112114  1  0
107115  1  0
115116  2  0
115117  1  0
117118  1  0
118119  1  0
119120  1  0
118121  1  0
121122  2  0
121123  1  0
123124  1  0
124125  1  0
125126  1  0
126127  1  0
127128  1  0
124129  1  0
129130  2  0
129131  1  0
 27 23  1  0
 88 84  1  0
 44 77  2  0
  1132  1  0
  1133  1  0
  2134  1  0
  2135  1  0
  3136  1  0
  3137  1  0
  6138  1  0
  7139  1  1
  8140  1  0
  8141  1  0
  9142  1  0
  9143  1  0
 15144  1  0
 16145  1  1
 17146  1  0
 17147  1  0
 19148  1  0
 19149  1  0
 24150  1  0
 24151  1  0
 25152  1  0
 25153  1  0
 26154  1  0
 26155  1  0
 27156  1  0
 30157  1  0
 31158  1  1
 32159  1  0
 32160  1  0
 33161  1  0
 33162  1  0
 39163  1  0
 41164  1  0
 41165  1  0
 42166  1  0
 42167  1  0
 43168  1  0
 43169  1  0
 44170  1  0
 45171  1  0
 45172  1  0
 45173  1  0
 48174  1  0
 49175  1  6
 50176  1  1
 51177  1  0
 51178  1  0
 51179  1  0
 52180  1  0
 52181  1  0
 53182  1  0
 53183  1  0
 53184  1  0
 56185  1  0
 57186  1  6
 58187  1  0
 58188  1  0
 59189  1  0
 60190  1  0
 60191  1  0
 60192  1  0
 61193  1  0
 61194  1  0
 61195  1  0
 64196  1  0
 65197  1  6
 66198  1  0
 66199  1  0
 72200  1  0
 74201  1  0
 74202  1  0
 75203  1  0
 75204  1  0
 76205  1  0
 76206  1  0
 77207  1  0
 78208  1  0
 78209  1  0
 78210  1  0
 81211  1  0
 82212  1  1
 83213  1  0
 83214  1  0
 85215  1  0
 86216  1  0
 87217  1  0
 91218  1  0
 92219  1  6
 93220  1  0
 93221  1  0
 94222  1  0
 94223  1  0
 94224  1  0
 97225  1  0
 98226  1  1
 99227  1  0
 99228  1  0
100229  1  0
100230  1  0
102231  1  0
102232  1  0
106233  1  0
107234  1  6
108235  1  0
108236  1  0
109237  1  0
109238  1  0
110239  1  0
110240  1  0
111241  1  0
113242  1  0
113243  1  0
114244  1  0
114245  1  0
117246  1  0
118247  1  1
119248  1  0
119249  1  0
120250  1  0
120251  1  0
120252  1  0
123253  1  0
124254  1  6
125255  1  0
125256  1  0
126257  1  0
126258  1  0
128259  1  0
128260  1  0
128261  1  0
M  CHG  5  12  -1  36  -1  69  -1 113   1 131  -1
M  END
