
     RDKit          2D

379384  0  0  0  0  0  0  0  0999 V2000
   26.5637   -4.3676    0.0000 C   0  0  0  0  0  0  0  0  0  0  0  0
   28.0495   -4.1613    0.0000 N   0  0  0  0  0  0  0  0  0  0  0  0
   28.9710   -5.3448    0.0000 C   0  0  0  0  0  0  0  0  0  0  0  0
   28.4068   -6.7347    0.0000 C   0  0  0  0  0  0  0  0  0  0  0  0
   29.3284   -7.9182    0.0000 C   0  0  0  0  0  0  0  0  0  0  0  0
   30.8141   -7.7119    0.0000 C   0  0  0  0  0  0  0  0  0  0  0  0
   31.3783   -6.3221    0.0000 C   0  0  0  0  0  0  0  0  0  0  0  0
   30.4568   -5.1385    0.0000 C   0  0  0  0  0  0  0  0  0  0  0  0
   32.8745   -6.4292    0.0000 C   0  0  0  0  0  0  0  0  0  0  0  0
   33.2350   -7.8852    0.0000 O   0  0  0  0  0  0  0  0  0  0  0  0
   31.9616   -8.6780    0.0000 C   0  0  0  0  0  0  0  0  0  0  0  0
   31.8545  -10.1742    0.0000 O   0  0  0  0  0  0  0  0  0  0  0  0
   34.3513   -6.6921    0.0000 C   0  0  0  0  0  0  0  0  0  0  0  0
   35.3173   -5.5446    0.0000 C   0  0  0  0  0  0  0  0  0  0  0  0
   36.7941   -5.8075    0.0000 C   0  0  0  0  0  0  0  0  0  0  0  0
   37.3048   -7.2179    0.0000 C   0  0  0  0  0  0  0  0  0  0  0  0
   36.3387   -8.3654    0.0000 C   0  0  0  0  0  0  0  0  0  0  0  0
   34.8620   -8.1025    0.0000 C   0  0  0  0  0  0  0  0  0  0  0  0
   38.7816   -7.4808    0.0000 O   0  0  0  0  0  0  0  0  0  0  0  0
   34.8066   -4.1342    0.0000 O   0  0  0  0  0  0  0  0  0  0  0  0
   33.3298   -3.8713    0.0000 C   0  0  0  0  0  0  0  0  0  0  0  0
   32.3638   -5.0188    0.0000 C   0  0  0  0  0  0  0  0  0  0  0  0
   31.3378   -4.2204    0.0000 C   0  0  0  0  0  0  0  0  0  0  0  0
   31.0654   -3.4682    0.0000 C   0  0  0  0  0  0  0  0  0  0  0  0
   31.5807   -2.8562    0.0000 C   0  0  0  0  0  0  0  0  0  0  0  0
   32.3683   -2.9964    0.0000 C   0  0  0  0  0  0  0  0  0  0  0  0
   30.8317   -0.7876    0.0000 O   0  0  0  0  0  0  0  0  0  0  0  0
   25.9995   -5.7575    0.0000 S   0  0  0  0  0  0  0  0  0  0  0  0
   25.6422   -3.1841    0.0000 N   0  0  0  0  0  0  0  0  0  0  0  0
   24.1564   -3.3904    0.0000 C   0  0  0  0  0  0  0  0  0  0  0  0
   23.2349   -2.2068    0.0000 C   0  0  0  0  0  0  0  0  0  0  0  0
   21.7492   -2.4132    0.0000 C   0  0  0  0  0  0  0  0  0  0  0  0
   21.3586   -3.8614    0.0000 O   0  0  0  0  0  0  0  0  0  0  0  0
   20.8276   -1.2296    0.0000 N   0  0  0  0  0  0  0  0  0  0  0  0
   19.3419   -1.4359    0.0000 C   0  0  0  0  0  0  0  0  0  0  0  0
   18.5135   -2.6864    0.0000 C   0  0  0  0  0  0  0  0  0  0  0  0
   17.3533   -3.6372    0.0000 C   0  0  0  0  0  0  0  0  0  0  0  0
   15.9644   -4.2037    0.0000 C   0  0  0  0  0  0  0  0  0  0  0  0
   14.4702   -4.3357    0.0000 C   0  0  0  0  0  0  0  0  0  0  0  0
   20.2898   -2.5985    0.0000 C   0  0  0  0  0  0  0  0  0  0  0  0
   19.7649    0.0032    0.0000 C   0  0  0  0  0  0  0  0  0  0  0  0
   21.2647   -0.0179    0.0000 O   0  0  0  0  0  0  0  0  0  0  0  0
   19.7449    1.5031    0.0000 N   0  0  0  0  0  0  0  0  0  0  0  0
   19.2837    2.9304    0.0000 C   0  0  0  0  0  0  0  0  0  0  0  0
   20.0488    4.2206    0.0000 C   0  0  0  0  0  0  0  0  0  0  0  0
   21.5487    4.2032    0.0000 C   0  0  0  0  0  0  0  0  0  0  0  0
   22.3137    5.4934    0.0000 C   0  0  0  0  0  0  0  0  0  0  0  0
   23.8136    5.4760    0.0000 N   0  0  0  0  0  0  0  0  0  0  0  0
   24.5787    6.7662    0.0000 C   0  0  0  0  0  0  0  0  0  0  0  0
   26.0786    6.7488    0.0000 N   0  0  0  0  0  0  0  0  0  0  0  0
   23.8438    8.0739    0.0000 N   0  0  0  0  0  0  0  0  0  0  0  0
   18.4223    4.1584    0.0000 C   0  0  0  0  0  0  0  0  0  0  0  0
   19.5082    5.1932    0.0000 O   0  0  0  0  0  0  0  0  0  0  0  0
   17.2373    5.0779    0.0000 N   0  0  0  0  0  0  0  0  0  0  0  0
   15.8338    5.6073    0.0000 C   0  0  0  0  0  0  0  0  0  0  0  0
   15.3020    7.0099    0.0000 C   0  0  0  0  0  0  0  0  0  0  0  0
   16.2508    8.1717    0.0000 C   0  0  0  0  0  0  0  0  0  0  0  0
   15.7191    9.5743    0.0000 C   0  0  0  0  0  0  0  0  0  0  0  0
   16.6679   10.7361    0.0000 N   0  0  0  0  0  0  0  0  0  0  0  0
   16.1361   12.1387    0.0000 C   0  0  0  0  0  0  0  0  0  0  0  0
   17.0849   13.3005    0.0000 N   0  0  0  0  0  0  0  0  0  0  0  0
   14.6556   12.3795    0.0000 N   0  0  0  0  0  0  0  0  0  0  0  0
   14.3366    5.6995    0.0000 C   0  0  0  0  0  0  0  0  0  0  0  0
   14.2046    7.1937    0.0000 O   0  0  0  0  0  0  0  0  0  0  0  0
   12.8788    5.3463    0.0000 N   0  0  0  0  0  0  0  0  0  0  0  0
   11.5898    4.5790    0.0000 C   0  0  0  0  0  0  0  0  0  0  0  0
   10.1617    5.0378    0.0000 C   0  0  0  0  0  0  0  0  0  0  0  0
    9.8450    6.5040    0.0000 C   0  0  0  0  0  0  0  0  0  0  0  0
    8.4168    6.9627    0.0000 C   0  0  0  0  0  0  0  0  0  0  0  0
    8.1001    8.4289    0.0000 N   0  0  0  0  0  0  0  0  0  0  0  0
    7.3055    5.9553    0.0000 O   0  0  0  0  0  0  0  0  0  0  0  0
   10.5843    3.4660    0.0000 C   0  0  0  0  0  0  0  0  0  0  0  0
    9.3338    4.2944    0.0000 O   0  0  0  0  0  0  0  0  0  0  0  0
    9.9515    2.1060    0.0000 N   0  0  0  0  0  0  0  0  0  0  0  0
    9.7477    0.6199    0.0000 C   0  0  0  0  0  0  0  0  0  0  0  0
    9.9910   -0.8602    0.0000 C   0  0  0  0  0  0  0  0  0  0  0  0
   10.6598   -2.2029    0.0000 C   0  0  0  0  0  0  0  0  0  0  0  0
   11.6946   -3.2888    0.0000 C   0  0  0  0  0  0  0  0  0  0  0  0
   13.0035   -4.0214    0.0000 C   0  0  0  0  0  0  0  0  0  0  0  0
    8.4770    1.4169    0.0000 C   0  0  0  0  0  0  0  0  0  0  0  0
    8.4986   -0.2106    0.0000 C   0  0  0  0  0  0  0  0  0  0  0  0
    8.2283   -1.6861    0.0000 O   0  0  0  0  0  0  0  0  0  0  0  0
    7.1548    0.4559    0.0000 N   0  0  0  0  0  0  0  0  0  0  0  0
    5.9057   -0.3747    0.0000 C   0  0  0  0  0  0  0  0  0  0  0  0
    5.0160   -1.5823    0.0000 C   0  0  0  0  0  0  0  0  0  0  0  0
    3.5253   -1.4156    0.0000 C   0  0  0  0  0  0  0  0  0  0  0  0
    2.6356   -2.6233    0.0000 C   0  0  0  0  0  0  0  0  0  0  0  0
    1.1449   -2.4566    0.0000 N   0  0  0  0  0  0  0  0  0  0  0  0
    0.2552   -3.6642    0.0000 C   0  0  0  0  0  0  0  0  0  0  0  0
   -1.2041   -3.3171    0.0000 N   0  0  0  0  0  0  0  0  0  0  0  0
    0.8562   -5.0386    0.0000 N   0  0  0  0  0  0  0  0  0  0  0  0
    4.5619    0.2918    0.0000 C   0  0  0  0  0  0  0  0  0  0  0  0
    4.4672    1.7888    0.0000 O   0  0  0  0  0  0  0  0  0  0  0  0
    3.3129   -0.5387    0.0000 N   0  0  0  0  0  0  0  0  0  0  0  0
    1.9691    0.1278    0.0000 C   0  0  0  0  0  0  0  0  0  0  0  0
    0.9343    1.2137    0.0000 C   0  0  0  0  0  0  0  0  0  0  0  0
    1.3573    2.6528    0.0000 C   0  0  0  0  0  0  0  0  0  0  0  0
    0.3225    3.7387    0.0000 C   0  0  0  0  0  0  0  0  0  0  0  0
    0.7455    5.1778    0.0000 N   0  0  0  0  0  0  0  0  0  0  0  0
   -0.2893    6.2637    0.0000 C   0  0  0  0  0  0  0  0  0  0  0  0
    0.1337    7.7029    0.0000 N   0  0  0  0  0  0  0  0  0  0  0  0
   -1.7472    5.9105    0.0000 N   0  0  0  0  0  0  0  0  0  0  0  0
    0.7200   -0.7027    0.0000 C   0  0  0  0  0  0  0  0  0  0  0  0
    0.5229   -1.7783    0.0000 O   0  0  0  0  0  0  0  0  0  0  0  0
   -0.6238   -0.0362    0.0000 N   0  0  0  0  0  0  0  0  0  0  0  0
   -1.8729   -0.8667    0.0000 C   0  0  0  0  0  0  0  0  0  0  0  0
   -2.7626   -2.0744    0.0000 C   0  0  0  0  0  0  0  0  0  0  0  0
   -4.2534   -1.9077    0.0000 C   0  0  0  0  0  0  0  0  0  0  0  0
   -5.1431   -3.1154    0.0000 C   0  0  0  0  0  0  0  0  0  0  0  0
   -6.6338   -2.9487    0.0000 N   0  0  0  0  0  0  0  0  0  0  0  0
   -7.5235   -4.1563    0.0000 C   0  0  0  0  0  0  0  0  0  0  0  0
   -8.9828   -3.8092    0.0000 N   0  0  0  0  0  0  0  0  0  0  0  0
   -6.9225   -5.5307    0.0000 N   0  0  0  0  0  0  0  0  0  0  0  0
   -3.2167   -0.2003    0.0000 C   0  0  0  0  0  0  0  0  0  0  0  0
   -3.3114    1.2967    0.0000 O   0  0  0  0  0  0  0  0  0  0  0  0
   -4.4658   -1.0308    0.0000 N   0  0  0  0  0  0  0  0  0  0  0  0
   -5.8096   -0.3643    0.0000 C   0  0  0  0  0  0  0  0  0  0  0  0
   -6.8444    0.7216    0.0000 C   0  0  0  0  0  0  0  0  0  0  0  0
   -6.4214    2.1607    0.0000 C   0  0  0  0  0  0  0  0  0  0  0  0
   -7.4562    3.2466    0.0000 C   0  0  0  0  0  0  0  0  0  0  0  0
   -7.0332    4.6857    0.0000 N   0  0  0  0  0  0  0  0  0  0  0  0
   -8.0680    5.7716    0.0000 C   0  0  0  0  0  0  0  0  0  0  0  0
   -7.6450    7.2108    0.0000 N   0  0  0  0  0  0  0  0  0  0  0  0
   -9.5258    5.4184    0.0000 N   0  0  0  0  0  0  0  0  0  0  0  0
   -7.0587   -1.1948    0.0000 C   0  0  0  0  0  0  0  0  0  0  0  0
   -7.2558   -2.2704    0.0000 O   0  0  0  0  0  0  0  0  0  0  0  0
   -8.4025   -0.5283    0.0000 N   0  0  0  0  0  0  0  0  0  0  0  0
   -9.6516   -1.3588    0.0000 C   0  0  0  0  0  0  0  0  0  0  0  0
  -10.5413   -2.5665    0.0000 C   0  0  0  0  0  0  0  0  0  0  0  0
  -12.0320   -2.3998    0.0000 C   0  0  0  0  0  0  0  0  0  0  0  0
  -12.9217   -3.6075    0.0000 C   0  0  0  0  0  0  0  0  0  0  0  0
  -14.4217   -3.6237    0.0000 N   0  0  0  0  0  0  0  0  0  0  0  0
  -12.3207   -4.9818    0.0000 O   0  0  0  0  0  0  0  0  0  0  0  0
  -10.9954   -0.6924    0.0000 C   0  0  0  0  0  0  0  0  0  0  0  0
  -11.0901    0.8047    0.0000 O   0  0  0  0  0  0  0  0  0  0  0  0
  -12.2445   -1.5229    0.0000 N   0  0  0  0  0  0  0  0  0  0  0  0
  -13.5883   -0.8564    0.0000 C   0  0  0  0  0  0  0  0  0  0  0  0
  -14.6231    0.2295    0.0000 C   0  0  0  0  0  0  0  0  0  0  0  0
  -14.2001    1.6686    0.0000 C   0  0  0  0  0  0  0  0  0  0  0  0
  -15.2349    2.7545    0.0000 C   0  0  0  0  0  0  0  0  0  0  0  0
  -14.8119    4.1936    0.0000 N   0  0  0  0  0  0  0  0  0  0  0  0
  -15.8467    5.2795    0.0000 C   0  0  0  0  0  0  0  0  0  0  0  0
  -15.4237    6.7187    0.0000 N   0  0  0  0  0  0  0  0  0  0  0  0
  -17.3045    4.9263    0.0000 N   0  0  0  0  0  0  0  0  0  0  0  0
  -14.8374   -1.6869    0.0000 C   0  0  0  0  0  0  0  0  0  0  0  0
  -14.9019   -2.7785    0.0000 O   0  0  0  0  0  0  0  0  0  0  0  0
  -16.1812   -1.0204    0.0000 N   0  0  0  0  0  0  0  0  0  0  0  0
  -17.4303   -1.8509    0.0000 C   0  0  0  0  0  0  0  0  0  0  0  0
  -18.3200   -3.0586    0.0000 C   0  0  0  0  0  0  0  0  0  0  0  0
  -19.8107   -2.8919    0.0000 C   0  0  0  0  0  0  0  0  0  0  0  0
  -20.7004   -4.0995    0.0000 C   0  0  0  0  0  0  0  0  0  0  0  0
  -22.1911   -3.9329    0.0000 N   0  0  0  0  0  0  0  0  0  0  0  0
  -23.0808   -5.1405    0.0000 C   0  0  0  0  0  0  0  0  0  0  0  0
  -24.5401   -4.7934    0.0000 N   0  0  0  0  0  0  0  0  0  0  0  0
  -22.4798   -6.5148    0.0000 N   0  0  0  0  0  0  0  0  0  0  0  0
  -18.7741   -1.1845    0.0000 C   0  0  0  0  0  0  0  0  0  0  0  0
  -18.8688    0.3126    0.0000 O   0  0  0  0  0  0  0  0  0  0  0  0
  -20.0232   -2.0150    0.0000 N   0  0  0  0  0  0  0  0  0  0  0  0
  -21.3670   -1.3485    0.0000 C   0  0  0  0  0  0  0  0  0  0  0  0
  -22.4018   -0.2626    0.0000 C   0  0  0  0  0  0  0  0  0  0  0  0
  -21.9788    1.1765    0.0000 C   0  0  0  0  0  0  0  0  0  0  0  0
  -23.0136    2.2624    0.0000 C   0  0  0  0  0  0  0  0  0  0  0  0
  -22.5906    3.7016    0.0000 N   0  0  0  0  0  0  0  0  0  0  0  0
  -23.6254    4.7875    0.0000 C   0  0  0  0  0  0  0  0  0  0  0  0
  -23.2024    6.2266    0.0000 N   0  0  0  0  0  0  0  0  0  0  0  0
  -25.0832    4.4342    0.0000 N   0  0  0  0  0  0  0  0  0  0  0  0
  -22.6161   -2.1790    0.0000 C   0  0  0  0  0  0  0  0  0  0  0  0
  -22.8132   -3.2546    0.0000 O   0  0  0  0  0  0  0  0  0  0  0  0
  -23.9599   -1.5125    0.0000 N   0  0  0  0  0  0  0  0  0  0  0  0
  -25.2090   -2.3430    0.0000 C   0  0  0  0  0  0  0  0  0  0  0  0
  -26.0987   -3.5507    0.0000 C   0  0  0  0  0  0  0  0  0  0  0  0
  -27.5894   -3.3840    0.0000 C   0  0  0  0  0  0  0  0  0  0  0  0
  -28.4791   -4.5916    0.0000 C   0  0  0  0  0  0  0  0  0  0  0  0
  -29.9698   -4.4250    0.0000 N   0  0  0  0  0  0  0  0  0  0  0  0
  -30.8595   -5.6326    0.0000 C   0  0  0  0  0  0  0  0  0  0  0  0
  -32.3502   -5.4659    0.0000 N   0  0  0  0  0  0  0  0  0  0  0  0
  -30.2585   -7.0069    0.0000 N   0  0  0  0  0  0  0  0  0  0  0  0
  -26.5528   -1.6765    0.0000 C   0  0  0  0  0  0  0  0  0  0  0  0
  -26.6475   -0.1795    0.0000 O   0  0  0  0  0  0  0  0  0  0  0  0
  -27.8019   -2.5071    0.0000 N   0  0  0  0  0  0  0  0  0  0  0  0
  -29.1457   -1.8406    0.0000 C   0  0  0  0  0  0  0  0  0  0  0  0
  -30.1805   -0.7547    0.0000 C   0  0  0  0  0  0  0  0  0  0  0  0
  -29.7575    0.6844    0.0000 C   0  0  0  0  0  0  0  0  0  0  0  0
  -30.7923    1.7703    0.0000 C   0  0  0  0  0  0  0  0  0  0  0  0
  -30.3692    3.2095    0.0000 N   0  0  0  0  0  0  0  0  0  0  0  0
  -31.4040    4.2954    0.0000 C   0  0  0  0  0  0  0  0  0  0  0  0
  -30.9810    5.7345    0.0000 N   0  0  0  0  0  0  0  0  0  0  0  0
  -32.8619    3.9421    0.0000 N   0  0  0  0  0  0  0  0  0  0  0  0
  -30.3948   -2.6711    0.0000 C   0  0  0  0  0  0  0  0  0  0  0  0
  -31.8098   -2.1734    0.0000 O   0  0  0  0  0  0  0  0  0  0  0  0
  -30.6651   -4.1465    0.0000 O   0  0  0  0  0  0  0  0  0  0  0  0
   28.4401   -2.7130    0.0000 H   0  0  0  0  0  0  0  0  0  0  0  0
   26.9211   -6.9410    0.0000 H   0  0  0  0  0  0  0  0  0  0  0  0
   28.7642   -9.3081    0.0000 H   0  0  0  0  0  0  0  0  0  0  0  0
   30.6679   -3.6535    0.0000 H   0  0  0  0  0  0  0  0  0  0  0  0
   37.7602   -4.6600    0.0000 H   0  0  0  0  0  0  0  0  0  0  0  0
   36.8494   -9.7757    0.0000 H   0  0  0  0  0  0  0  0  0  0  0  0
   33.8959   -9.2499    0.0000 H   0  0  0  0  0  0  0  0  0  0  0  0
   39.2923   -8.8912    0.0000 H   0  0  0  0  0  0  0  0  0  0  0  0
   29.9209   -5.9034    0.0000 H   0  0  0  0  0  0  0  0  0  0  0  0
   28.9426   -2.9045    0.0000 H   0  0  0  0  0  0  0  0  0  0  0  0
   33.7852   -1.3134    0.0000 H   0  0  0  0  0  0  0  0  0  0  0  0
   31.7977    0.3598    0.0000 H   0  0  0  0  0  0  0  0  0  0  0  0
   26.2064   -1.7942    0.0000 H   0  0  0  0  0  0  0  0  0  0  0  0
   22.8309   -4.0924    0.0000 H   0  0  0  0  0  0  0  0  0  0  0  0
   24.6176   -4.8177    0.0000 H   0  0  0  0  0  0  0  0  0  0  0  0
   22.7737   -0.7795    0.0000 H   0  0  0  0  0  0  0  0  0  0  0  0
   24.5605   -1.5048    0.0000 H   0  0  0  0  0  0  0  0  0  0  0  0
   21.5570    0.0811    0.0000 H   0  0  0  0  0  0  0  0  0  0  0  0
   19.9536   -3.1059    0.0000 H   0  0  0  0  0  0  0  0  0  0  0  0
   18.9029   -4.1350    0.0000 H   0  0  0  0  0  0  0  0  0  0  0  0
   18.4959   -4.6090    0.0000 H   0  0  0  0  0  0  0  0  0  0  0  0
   17.4816   -5.1317    0.0000 H   0  0  0  0  0  0  0  0  0  0  0  0
   16.9180   -5.3616    0.0000 H   0  0  0  0  0  0  0  0  0  0  0  0
   15.4702   -5.6200    0.0000 H   0  0  0  0  0  0  0  0  0  0  0  0
   14.3780   -5.8329    0.0000 H   0  0  0  0  0  0  0  0  0  0  0  0
   19.8133   -4.1948    0.0000 H   0  0  0  0  0  0  0  0  0  0  0  0
   21.1932   -3.7436    0.0000 H   0  0  0  0  0  0  0  0  0  0  0  0
   21.4417   -1.9576    0.0000 H   0  0  0  0  0  0  0  0  0  0  0  0
   21.2251    1.7463    0.0000 H   0  0  0  0  0  0  0  0  0  0  0  0
   20.7430    2.5832    0.0000 H   0  0  0  0  0  0  0  0  0  0  0  0
   20.1447    5.7176    0.0000 H   0  0  0  0  0  0  0  0  0  0  0  0
   18.8151    5.0739    0.0000 H   0  0  0  0  0  0  0  0  0  0  0  0
   22.9522    3.6738    0.0000 H   0  0  0  0  0  0  0  0  0  0  0  0
   21.4528    2.7063    0.0000 H   0  0  0  0  0  0  0  0  0  0  0  0
   22.5914    6.9675    0.0000 H   0  0  0  0  0  0  0  0  0  0  0  0
   20.9853    6.1899    0.0000 H   0  0  0  0  0  0  0  0  0  0  0  0
   24.5485    4.1683    0.0000 H   0  0  0  0  0  0  0  0  0  0  0  0
   26.8436    8.0390    0.0000 H   0  0  0  0  0  0  0  0  0  0  0  0
   24.6089    9.3641    0.0000 H   0  0  0  0  0  0  0  0  0  0  0  0
   22.3439    8.0913    0.0000 H   0  0  0  0  0  0  0  0  0  0  0  0
   17.9699    6.3868    0.0000 H   0  0  0  0  0  0  0  0  0  0  0  0
   17.0150    6.5318    0.0000 H   0  0  0  0  0  0  0  0  0  0  0  0
   14.1914    8.0182    0.0000 H   0  0  0  0  0  0  0  0  0  0  0  0
   13.8657    6.5774    0.0000 H   0  0  0  0  0  0  0  0  0  0  0  0
   17.5398    8.9389    0.0000 H   0  0  0  0  0  0  0  0  0  0  0  0
   17.3614    7.1634    0.0000 H   0  0  0  0  0  0  0  0  0  0  0  0
   14.7397   10.7104    0.0000 H   0  0  0  0  0  0  0  0  0  0  0  0
   14.3462    8.9699    0.0000 H   0  0  0  0  0  0  0  0  0  0  0  0
   18.1484   10.4953    0.0000 H   0  0  0  0  0  0  0  0  0  0  0  0
   16.5532   14.7031    0.0000 H   0  0  0  0  0  0  0  0  0  0  0  0
   14.1238   13.7820    0.0000 H   0  0  0  0  0  0  0  0  0  0  0  0
   13.7068   11.2177    0.0000 H   0  0  0  0  0  0  0  0  0  0  0  0
   12.3122    6.7352    0.0000 H   0  0  0  0  0  0  0  0  0  0  0  0
   11.6036    6.0790    0.0000 H   0  0  0  0  0  0  0  0  0  0  0  0
    8.6628    4.9805    0.0000 H   0  0  0  0  0  0  0  0  0  0  0  0
    9.6044    3.6452    0.0000 H   0  0  0  0  0  0  0  0  0  0  0  0
   10.0488    7.9901    0.0000 H   0  0  0  0  0  0  0  0  0  0  0  0
   11.3257    6.7436    0.0000 H   0  0  0  0  0  0  0  0  0  0  0  0
    6.6719    8.8877    0.0000 H   0  0  0  0  0  0  0  0  0  0  0  0
    9.2114    9.4363    0.0000 H   0  0  0  0  0  0  0  0  0  0  0  0
    8.5124    2.5290    0.0000 H   0  0  0  0  0  0  0  0  0  0  0  0
    9.0422   -2.0220    0.0000 H   0  0  0  0  0  0  0  0  0  0  0  0
    8.4912   -0.8354    0.0000 H   0  0  0  0  0  0  0  0  0  0  0  0
    9.9304   -3.5136    0.0000 H   0  0  0  0  0  0  0  0  0  0  0  0
    9.2193   -2.6213    0.0000 H   0  0  0  0  0  0  0  0  0  0  0  0
   11.5651   -4.7832    0.0000 H   0  0  0  0  0  0  0  0  0  0  0  0
   10.3503   -3.9543    0.0000 H   0  0  0  0  0  0  0  0  0  0  0  0
   12.4741   -5.4249    0.0000 H   0  0  0  0  0  0  0  0  0  0  0  0
    7.0209    1.0565    0.0000 H   0  0  0  0  0  0  0  0  0  0  0  0
    7.7066    2.7039    0.0000 H   0  0  0  0  0  0  0  0  0  0  0  0
    9.1833    2.7402    0.0000 H   0  0  0  0  0  0  0  0  0  0  0  0
    6.8784    1.9302    0.0000 H   0  0  0  0  0  0  0  0  0  0  0  0
    6.9406   -1.4605    0.0000 H   0  0  0  0  0  0  0  0  0  0  0  0
    4.7716   -3.0622    0.0000 H   0  0  0  0  0  0  0  0  0  0  0  0
    6.3598   -2.2488    0.0000 H   0  0  0  0  0  0  0  0  0  0  0  0
    2.1815   -0.7491    0.0000 H   0  0  0  0  0  0  0  0  0  0  0  0
    3.2230    0.0536    0.0000 H   0  0  0  0  0  0  0  0  0  0  0  0
    2.2126   -4.0624    0.0000 H   0  0  0  0  0  0  0  0  0  0  0  0
    3.8882   -3.4486    0.0000 H   0  0  0  0  0  0  0  0  0  0  0  0
    0.2292   -1.2685    0.0000 H   0  0  0  0  0  0  0  0  0  0  0  0
   -2.1252   -4.7052    0.0000 H   0  0  0  0  0  0  0  0  0  0  0  0
   -0.0335   -6.2462    0.0000 H   0  0  0  0  0  0  0  0  0  0  0  0
    2.3469   -5.2052    0.0000 H   0  0  0  0  0  0  0  0  0  0  0  0
    3.0425   -2.0141    0.0000 H   0  0  0  0  0  0  0  0  0  0  0  0
    2.9993    1.2180    0.0000 H   0  0  0  0  0  0  0  0  0  0  0  0
   -0.4095    1.8802    0.0000 H   0  0  0  0  0  0  0  0  0  0  0  0
   -0.2212    0.2572    0.0000 H   0  0  0  0  0  0  0  0  0  0  0  0
    2.2470    3.8605    0.0000 H   0  0  0  0  0  0  0  0  0  0  0  0
    2.7723    2.1551    0.0000 H   0  0  0  0  0  0  0  0  0  0  0  0
   -1.0213    4.4052    0.0000 H   0  0  0  0  0  0  0  0  0  0  0  0
   -0.7078    2.6485    0.0000 H   0  0  0  0  0  0  0  0  0  0  0  0
    2.2033    5.5311    0.0000 H   0  0  0  0  0  0  0  0  0  0  0  0
   -0.9011    8.7888    0.0000 H   0  0  0  0  0  0  0  0  0  0  0  0
   -2.7820    6.9964    0.0000 H   0  0  0  0  0  0  0  0  0  0  0  0
   -2.1702    4.4714    0.0000 H   0  0  0  0  0  0  0  0  0  0  0  0
   -0.9003    1.4381    0.0000 H   0  0  0  0  0  0  0  0  0  0  0  0
   -0.8381   -1.9526    0.0000 H   0  0  0  0  0  0  0  0  0  0  0  0
   -3.0071   -3.5543    0.0000 H   0  0  0  0  0  0  0  0  0  0  0  0
   -1.3476   -2.5721    0.0000 H   0  0  0  0  0  0  0  0  0  0  0  0
   -5.5972   -1.2412    0.0000 H   0  0  0  0  0  0  0  0  0  0  0  0
   -4.5556   -0.4385    0.0000 H   0  0  0  0  0  0  0  0  0  0  0  0
   -5.5661   -4.5545    0.0000 H   0  0  0  0  0  0  0  0  0  0  0  0
   -3.8905   -3.9407    0.0000 H   0  0  0  0  0  0  0  0  0  0  0  0
   -7.5495   -1.7606    0.0000 H   0  0  0  0  0  0  0  0  0  0  0  0
   -9.9039   -5.1973    0.0000 H   0  0  0  0  0  0  0  0  0  0  0  0
   -7.8122   -6.7383    0.0000 H   0  0  0  0  0  0  0  0  0  0  0  0
   -5.4318   -5.6973    0.0000 H   0  0  0  0  0  0  0  0  0  0  0  0
   -4.7362   -2.5062    0.0000 H   0  0  0  0  0  0  0  0  0  0  0  0
   -4.7793    0.7259    0.0000 H   0  0  0  0  0  0  0  0  0  0  0  0
   -8.1882    1.3881    0.0000 H   0  0  0  0  0  0  0  0  0  0  0  0
   -7.9999   -0.2349    0.0000 H   0  0  0  0  0  0  0  0  0  0  0  0
   -5.5317    3.3684    0.0000 H   0  0  0  0  0  0  0  0  0  0  0  0
   -5.0064    1.6630    0.0000 H   0  0  0  0  0  0  0  0  0  0  0  0
   -8.8000    3.9131    0.0000 H   0  0  0  0  0  0  0  0  0  0  0  0
   -8.4865    2.1564    0.0000 H   0  0  0  0  0  0  0  0  0  0  0  0
   -5.5754    5.0390    0.0000 H   0  0  0  0  0  0  0  0  0  0  0  0
   -8.6798    8.2967    0.0000 H   0  0  0  0  0  0  0  0  0  0  0  0
  -10.5606    6.5043    0.0000 H   0  0  0  0  0  0  0  0  0  0  0  0
   -9.9488    3.9793    0.0000 H   0  0  0  0  0  0  0  0  0  0  0  0
   -8.6790    0.9460    0.0000 H   0  0  0  0  0  0  0  0  0  0  0  0
   -8.6168   -2.4447    0.0000 H   0  0  0  0  0  0  0  0  0  0  0  0
  -10.9643   -4.0056    0.0000 H   0  0  0  0  0  0  0  0  0  0  0  0
   -9.1263   -3.0642    0.0000 H   0  0  0  0  0  0  0  0  0  0  0  0
  -13.3758   -1.7333    0.0000 H   0  0  0  0  0  0  0  0  0  0  0  0
  -12.3343   -0.9306    0.0000 H   0  0  0  0  0  0  0  0  0  0  0  0
  -15.3022   -4.6484    0.0000 H   0  0  0  0  0  0  0  0  0  0  0  0
  -15.3727   -2.2559    0.0000 H   0  0  0  0  0  0  0  0  0  0  0  0
  -12.5149   -2.9983    0.0000 H   0  0  0  0  0  0  0  0  0  0  0  0
  -12.5580    0.2338    0.0000 H   0  0  0  0  0  0  0  0  0  0  0  0
  -15.9669    0.8960    0.0000 H   0  0  0  0  0  0  0  0  0  0  0  0
  -15.7786   -0.7270    0.0000 H   0  0  0  0  0  0  0  0  0  0  0  0
  -13.3104    2.8763    0.0000 H   0  0  0  0  0  0  0  0  0  0  0  0
  -12.7851    1.1709    0.0000 H   0  0  0  0  0  0  0  0  0  0  0  0
  -16.5787    3.4210    0.0000 H   0  0  0  0  0  0  0  0  0  0  0  0
  -16.2652    1.6643    0.0000 H   0  0  0  0  0  0  0  0  0  0  0  0
  -13.3541    4.5469    0.0000 H   0  0  0  0  0  0  0  0  0  0  0  0
  -16.4585    7.8046    0.0000 H   0  0  0  0  0  0  0  0  0  0  0  0
  -18.3393    6.0122    0.0000 H   0  0  0  0  0  0  0  0  0  0  0  0
  -17.7275    3.4872    0.0000 H   0  0  0  0  0  0  0  0  0  0  0  0
  -16.4577    0.4539    0.0000 H   0  0  0  0  0  0  0  0  0  0  0  0
  -16.3955   -2.9368    0.0000 H   0  0  0  0  0  0  0  0  0  0  0  0
  -18.5644   -4.5385    0.0000 H   0  0  0  0  0  0  0  0  0  0  0  0
  -16.9762   -3.7251    0.0000 H   0  0  0  0  0  0  0  0  0  0  0  0
  -21.1545   -2.2254    0.0000 H   0  0  0  0  0  0  0  0  0  0  0  0
  -20.1130   -1.4227    0.0000 H   0  0  0  0  0  0  0  0  0  0  0  0
  -21.1234   -5.5387    0.0000 H   0  0  0  0  0  0  0  0  0  0  0  0
  -19.4479   -4.9249    0.0000 H   0  0  0  0  0  0  0  0  0  0  0  0
  -23.1068   -2.7448    0.0000 H   0  0  0  0  0  0  0  0  0  0  0  0
  -25.4613   -6.1815    0.0000 H   0  0  0  0  0  0  0  0  0  0  0  0
  -23.3696   -7.7225    0.0000 H   0  0  0  0  0  0  0  0  0  0  0  0
  -20.9891   -6.6815    0.0000 H   0  0  0  0  0  0  0  0  0  0  0  0
  -20.2935   -3.4904    0.0000 H   0  0  0  0  0  0  0  0  0  0  0  0
  -20.3367   -0.2583    0.0000 H   0  0  0  0  0  0  0  0  0  0  0  0
  -23.7456    0.4039    0.0000 H   0  0  0  0  0  0  0  0  0  0  0  0
  -23.5573   -1.2191    0.0000 H   0  0  0  0  0  0  0  0  0  0  0  0
  -21.0891    2.3842    0.0000 H   0  0  0  0  0  0  0  0  0  0  0  0
  -20.5638    0.6788    0.0000 H   0  0  0  0  0  0  0  0  0  0  0  0
  -24.3574    2.9289    0.0000 H   0  0  0  0  0  0  0  0  0  0  0  0
  -24.0439    1.1722    0.0000 H   0  0  0  0  0  0  0  0  0  0  0  0
  -21.1327    4.0548    0.0000 H   0  0  0  0  0  0  0  0  0  0  0  0
  -24.2372    7.3125    0.0000 H   0  0  0  0  0  0  0  0  0  0  0  0
  -26.1180    5.5201    0.0000 H   0  0  0  0  0  0  0  0  0  0  0  0
  -25.5062    2.9951    0.0000 H   0  0  0  0  0  0  0  0  0  0  0  0
  -24.2364   -0.0382    0.0000 H   0  0  0  0  0  0  0  0  0  0  0  0
  -24.1742   -3.4289    0.0000 H   0  0  0  0  0  0  0  0  0  0  0  0
  -26.3431   -5.0306    0.0000 H   0  0  0  0  0  0  0  0  0  0  0  0
  -24.6837   -4.0484    0.0000 H   0  0  0  0  0  0  0  0  0  0  0  0
  -28.9332   -2.7175    0.0000 H   0  0  0  0  0  0  0  0  0  0  0  0
  -27.8917   -1.9148    0.0000 H   0  0  0  0  0  0  0  0  0  0  0  0
  -28.9021   -6.0308    0.0000 H   0  0  0  0  0  0  0  0  0  0  0  0
  -27.2266   -5.4170    0.0000 H   0  0  0  0  0  0  0  0  0  0  0  0
  -30.8855   -3.2369    0.0000 H   0  0  0  0  0  0  0  0  0  0  0  0
  -33.2399   -6.6736    0.0000 H   0  0  0  0  0  0  0  0  0  0  0  0
  -31.1482   -8.2146    0.0000 H   0  0  0  0  0  0  0  0  0  0  0  0
  -28.7678   -7.1736    0.0000 H   0  0  0  0  0  0  0  0  0  0  0  0
  -28.0722   -3.9825    0.0000 H   0  0  0  0  0  0  0  0  0  0  0  0
  -28.1154   -0.7504    0.0000 H   0  0  0  0  0  0  0  0  0  0  0  0
  -31.5955   -0.2570    0.0000 H   0  0  0  0  0  0  0  0  0  0  0  0
  -31.2107   -1.8449    0.0000 H   0  0  0  0  0  0  0  0  0  0  0  0
  -28.8677    1.8921    0.0000 H   0  0  0  0  0  0  0  0  0  0  0  0
  -28.3424    0.1867    0.0000 H   0  0  0  0  0  0  0  0  0  0  0  0
  -32.1361    2.4368    0.0000 H   0  0  0  0  0  0  0  0  0  0  0  0
  -31.8225    0.6801    0.0000 H   0  0  0  0  0  0  0  0  0  0  0  0
  -28.9114    3.5627    0.0000 H   0  0  0  0  0  0  0  0  0  0  0  0
  -32.0158    6.8204    0.0000 H   0  0  0  0  0  0  0  0  0  0  0  0
  -33.8967    5.0280    0.0000 H   0  0  0  0  0  0  0  0  0  0  0  0
  -33.2849    2.5030    0.0000 H   0  0  0  0  0  0  0  0  0  0  0  0
  -31.5491   -4.9986    0.0000 H   0  0  0  0  0  0  0  0  0  0  0  0
  1  2  1  0
  2  3  1  0
  3  4  2  0
  4  5  1  0
  5  6  2  0
  6  7  1  0
  7  8  2  0
  7  9  1  0
  9 10  1  0
 10 11  1  0
 11 12  2  0
  9 13  1  0
 13 14  1  0
 14 15  2  0
 15 16  1  0
 16 17  2  0
 17 18  1  0
 16 19  1  0
 14 20  1  0
 20 21  1  0
 21 22  2  0
 22 23  1  0
 23 24  2  0
 24 25  1  0
 25 26  2  0
 25 27  1  0
  1 28  2  0
  1 29  1  0
 29 30  1  0
 30 31  1  0
 31 32  1  0
 32 33  2  0
 32 34  1  0
 35 34  1  1
 35 36  1  0
 36 37  1  0
 37 38  1  0
 38 39  1  0
 35 40  1  0
 35 41  1  0
 41 42  2  0
 41 43  1  0
 43 44  1  0
 44 45  1  0
 45 46  1  0
 46 47  1  0
 47 48  1  0
 48 49  1  0
 49 50  2  3
 49 51  1  0
 44 52  1  0
 52 53  2  0
 52 54  1  0
 54 55  1  0
 55 56  1  0
 56 57  1  0
 57 58  1  0
 58 59  1  0
 59 60  1  0
 60 61  2  3
 60 62  1  0
 55 63  1  0
 63 64  2  0
 63 65  1  0
 65 66  1  0
 66 67  1  0
 67 68  1  0
 68 69  1  0
 69 70  1  0
 69 71  2  0
 66 72  1  0
 72 73  2  0
 72 74  1  0
 74 75  1  0
 75 76  1  0
 76 77  1  0
 77 78  1  0
 78 79  1  0
 75 80  1  0
 75 81  1  1
 81 82  2  0
 81 83  1  0
 83 84  1  0
 84 85  1  0
 85 86  1  0
 86 87  1  0
 87 88  1  0
 88 89  1  0
 89 90  2  3
 89 91  1  0
 84 92  1  0
 92 93  2  0
 92 94  1  0
 94 95  1  0
 95 96  1  0
 96 97  1  0
 97 98  1  0
 98 99  1  0
 99100  1  0
100101  2  3
100102  1  0
 95103  1  0
103104  2  0
103105  1  0
105106  1  0
106107  1  0
107108  1  0
108109  1  0
109110  1  0
110111  1  0
111112  2  3
111113  1  0
106114  1  0
114115  2  0
114116  1  0
116117  1  0
117118  1  0
118119  1  0
119120  1  0
120121  1  0
121122  1  0
122123  2  3
122124  1  0
117125  1  0
125126  2  0
125127  1  0
127128  1  0
128129  1  0
129130  1  0
130131  1  0
131132  1  0
131133  2  0
128134  1  0
134135  2  0
134136  1  0
136137  1  0
137138  1  0
138139  1  0
139140  1  0
140141  1  0
141142  1  0
142143  2  3
142144  1  0
137145  1  0
145146  2  0
145147  1  0
147148  1  0
148149  1  0
149150  1  0
150151  1  0
151152  1  0
152153  1  0
153154  2  3
153155  1  0
148156  1  0
156157  2  0
156158  1  0
158159  1  0
159160  1  0
160161  1  0
161162  1  0
162163  1  0
163164  1  0
164165  2  3
164166  1  0
159167  1  0
167168  2  0
167169  1  0
169170  1  0
170171  1  0
171172  1  0
172173  1  0
173174  1  0
174175  1  0
175176  2  3
175177  1  0
170178  1  0
178179  2  0
178180  1  0
180181  1  0
181182  1  0
182183  1  0
183184  1  0
184185  1  0
185186  1  0
186187  2  3
186188  1  0
181189  1  0
189190  2  0
189191  1  0
  8  3  1  0
 11  6  1  0
 39 79  2  0
 18 13  2  0
 22  9  1  0
 26 21  1  0
  2192  1  0
  4193  1  0
  5194  1  0
  8195  1  0
 15196  1  0
 17197  1  0
 18198  1  0
 19199  1  0
 23200  1  0
 24201  1  0
 26202  1  0
 27203  1  0
 29204  1  0
 30205  1  0
 30206  1  0
 31207  1  0
 31208  1  0
 34209  1  0
 36210  1  0
 36211  1  0
 37212  1  0
 37213  1  0
 38214  1  0
 38215  1  0
 39216  1  0
 40217  1  0
 40218  1  0
 40219  1  0
 43220  1  0
 44221  1  6
 45222  1  0
 45223  1  0
 46224  1  0
 46225  1  0
 47226  1  0
 47227  1  0
 48228  1  0
 50229  1  0
 51230  1  0
 51231  1  0
 54232  1  0
 55233  1  6
 56234  1  0
 56235  1  0
 57236  1  0
 57237  1  0
 58238  1  0
 58239  1  0
 59240  1  0
 61241  1  0
 62242  1  0
 62243  1  0
 65244  1  0
 66245  1  6
 67246  1  0
 67247  1  0
 68248  1  0
 68249  1  0
 70250  1  0
 70251  1  0
 74252  1  0
 76253  1  0
 76254  1  0
 77255  1  0
 77256  1  0
 78257  1  0
 78258  1  0
 79259  1  0
 80260  1  0
 80261  1  0
 80262  1  0
 83263  1  0
 84264  1  1
 85265  1  0
 85266  1  0
 86267  1  0
 86268  1  0
 87269  1  0
 87270  1  0
 88271  1  0
 90272  1  0
 91273  1  0
 91274  1  0
 94275  1  0
 95276  1  6
 96277  1  0
 96278  1  0
 97279  1  0
 97280  1  0
 98281  1  0
 98282  1  0
 99283  1  0
101284  1  0
102285  1  0
102286  1  0
105287  1  0
106288  1  1
107289  1  0
107290  1  0
108291  1  0
108292  1  0
109293  1  0
109294  1  0
110295  1  0
112296  1  0
113297  1  0
113298  1  0
116299  1  0
117300  1  6
118301  1  0
118302  1  0
119303  1  0
119304  1  0
120305  1  0
120306  1  0
121307  1  0
123308  1  0
124309  1  0
124310  1  0
127311  1  0
128312  1  1
129313  1  0
129314  1  0
130315  1  0
130316  1  0
132317  1  0
132318  1  0
136319  1  0
137320  1  6
138321  1  0
138322  1  0
139323  1  0
139324  1  0
140325  1  0
140326  1  0
141327  1  0
143328  1  0
144329  1  0
144330  1  0
147331  1  0
148332  1  1
149333  1  0
149334  1  0
150335  1  0
150336  1  0
151337  1  0
151338  1  0
152339  1  0
154340  1  0
155341  1  0
155342  1  0
158343  1  0
159344  1  6
160345  1  0
160346  1  0
161347  1  0
161348  1  0
162349  1  0
162350  1  0
163351  1  0
165352  1  0
166353  1  0
166354  1  0
169355  1  0
170356  1  1
171357  1  0
171358  1  0
172359  1  0
172360  1  0
173361  1  0
173362  1  0
174363  1  0
176364  1  0
177365  1  0
177366  1  0
180367  1  0
181368  1  6
182369  1  0
182370  1  0
183371  1  0
183372  1  0
184373  1  0
184374  1  0
185375  1  0
187376  1  0
188377  1  0
188378  1  0
191379  1  0
M  END
