
     RDKit          2D

315318  0  0  0  0  0  0  0  0999 V2000
  -24.3731   -6.3659    0.0000 N   0  0  0  0  0  0  0  0  0  0  0  0
  -23.0651   -5.6317    0.0000 C   0  0  0  0  0  0  0  0  0  0  0  0
  -21.7752   -6.3974    0.0000 C   0  0  0  0  0  0  0  0  0  0  0  0
  -20.4672   -5.6632    0.0000 C   0  0  0  0  0  0  0  0  0  0  0  0
  -20.4490   -4.1633    0.0000 O   0  0  0  0  0  0  0  0  0  0  0  0
  -19.1773   -6.4289    0.0000 N   0  0  0  0  0  0  0  0  0  0  0  0
  -17.8693   -5.6948    0.0000 C   0  0  0  0  0  0  0  0  0  0  0  0
  -17.3734   -7.1104    0.0000 C   0  0  0  0  0  0  0  0  0  0  0  0
  -18.3515   -8.2477    0.0000 C   0  0  0  0  0  0  0  0  0  0  0  0
  -17.8556   -9.6634    0.0000 C   0  0  0  0  0  0  0  0  0  0  0  0
  -18.8336  -10.8006    0.0000 O   0  0  0  0  0  0  0  0  0  0  0  0
  -16.3816   -9.9417    0.0000 O   0  0  0  0  0  0  0  0  0  0  0  0
  -16.8912   -4.5575    0.0000 C   0  0  0  0  0  0  0  0  0  0  0  0
  -15.4622   -5.0135    0.0000 O   0  0  0  0  0  0  0  0  0  0  0  0
  -17.3871   -3.1418    0.0000 N   0  0  0  0  0  0  0  0  0  0  0  0
  -16.4091   -2.0045    0.0000 C   0  0  0  0  0  0  0  0  0  0  0  0
  -17.6989   -1.2388    0.0000 C   0  0  0  0  0  0  0  0  0  0  0  0
  -19.0070   -1.9730    0.0000 C   0  0  0  0  0  0  0  0  0  0  0  0
  -20.2968   -1.2073    0.0000 C   0  0  0  0  0  0  0  0  0  0  0  0
  -21.6048   -1.9415    0.0000 N   0  0  0  0  0  0  0  0  0  0  0  0
  -22.8947   -1.1758    0.0000 C   0  0  0  0  0  0  0  0  0  0  0  0
  -24.2027   -1.9100    0.0000 N   0  0  0  0  0  0  0  0  0  0  0  0
  -22.8765    0.3241    0.0000 N   0  0  0  0  0  0  0  0  0  0  0  0
  -15.1010   -1.2704    0.0000 C   0  0  0  0  0  0  0  0  0  0  0  0
  -13.8112   -2.0361    0.0000 O   0  0  0  0  0  0  0  0  0  0  0  0
  -15.0828    0.2295    0.0000 N   0  0  0  0  0  0  0  0  0  0  0  0
  -13.7748    0.9637    0.0000 C   0  0  0  0  0  0  0  0  0  0  0  0
  -14.7250    2.1244    0.0000 C   0  0  0  0  0  0  0  0  0  0  0  0
  -16.2052    1.8819    0.0000 C   0  0  0  0  0  0  0  0  0  0  0  0
  -17.1554    3.0425    0.0000 C   0  0  0  0  0  0  0  0  0  0  0  0
  -18.6356    2.8000    0.0000 C   0  0  0  0  0  0  0  0  0  0  0  0
  -19.1657    1.3968    0.0000 C   0  0  0  0  0  0  0  0  0  0  0  0
  -18.2156    0.2361    0.0000 C   0  0  0  0  0  0  0  0  0  0  0  0
  -16.7353    0.4787    0.0000 C   0  0  0  0  0  0  0  0  0  0  0  0
  -12.2945    1.2062    0.0000 C   0  0  0  0  0  0  0  0  0  0  0  0
  -11.7644    2.6094    0.0000 O   0  0  0  0  0  0  0  0  0  0  0  0
  -11.3444    0.0455    0.0000 N   0  0  0  0  0  0  0  0  0  0  0  0
   -9.8641    0.2881    0.0000 C   0  0  0  0  0  0  0  0  0  0  0  0
   -9.8823   -1.2118    0.0000 C   0  0  0  0  0  0  0  0  0  0  0  0
  -11.1903   -1.9460    0.0000 C   0  0  0  0  0  0  0  0  0  0  0  0
  -11.2085   -3.4459    0.0000 C   0  0  0  0  0  0  0  0  0  0  0  0
  -12.5166   -4.1801    0.0000 N   0  0  0  0  0  0  0  0  0  0  0  0
  -12.5348   -5.6800    0.0000 C   0  0  0  0  0  0  0  0  0  0  0  0
  -13.8428   -6.4141    0.0000 N   0  0  0  0  0  0  0  0  0  0  0  0
  -11.2450   -6.4457    0.0000 N   0  0  0  0  0  0  0  0  0  0  0  0
   -8.5560    1.0223    0.0000 C   0  0  0  0  0  0  0  0  0  0  0  0
   -7.2662    0.2565    0.0000 O   0  0  0  0  0  0  0  0  0  0  0  0
   -8.5378    2.5221    0.0000 N   0  0  0  0  0  0  0  0  0  0  0  0
   -7.2298    3.2563    0.0000 C   0  0  0  0  0  0  0  0  0  0  0  0
   -8.1800    4.4170    0.0000 C   0  0  0  0  0  0  0  0  0  0  0  0
   -9.6602    4.1745    0.0000 C   0  0  0  0  0  0  0  0  0  0  0  0
  -10.6104    5.3352    0.0000 C   0  0  0  0  0  0  0  0  0  0  0  0
  -12.0907    5.0926    0.0000 N   0  0  0  0  0  0  0  0  0  0  0  0
  -13.0408    6.2533    0.0000 C   0  0  0  0  0  0  0  0  0  0  0  0
  -14.5211    6.0108    0.0000 N   0  0  0  0  0  0  0  0  0  0  0  0
  -12.5107    7.6565    0.0000 N   0  0  0  0  0  0  0  0  0  0  0  0
   -5.7495    3.4989    0.0000 C   0  0  0  0  0  0  0  0  0  0  0  0
   -5.2194    4.9021    0.0000 O   0  0  0  0  0  0  0  0  0  0  0  0
   -4.7994    2.3382    0.0000 N   0  0  0  0  0  0  0  0  0  0  0  0
   -3.3191    2.5807    0.0000 C   0  0  0  0  0  0  0  0  0  0  0  0
   -3.3373    1.0808    0.0000 C   0  0  0  0  0  0  0  0  0  0  0  0
   -4.6454    0.3466    0.0000 C   0  0  0  0  0  0  0  0  0  0  0  0
   -4.6636   -1.1533    0.0000 C   0  0  0  0  0  0  0  0  0  0  0  0
   -5.9716   -1.8874    0.0000 N   0  0  0  0  0  0  0  0  0  0  0  0
   -5.9898   -3.3873    0.0000 C   0  0  0  0  0  0  0  0  0  0  0  0
   -7.2979   -4.1215    0.0000 N   0  0  0  0  0  0  0  0  0  0  0  0
   -4.7000   -4.1530    0.0000 N   0  0  0  0  0  0  0  0  0  0  0  0
   -2.0111    3.3149    0.0000 C   0  0  0  0  0  0  0  0  0  0  0  0
   -0.7212    2.5492    0.0000 O   0  0  0  0  0  0  0  0  0  0  0  0
   -1.9929    4.8148    0.0000 N   0  0  0  0  0  0  0  0  0  0  0  0
   -0.6848    5.5489    0.0000 C   0  0  0  0  0  0  0  0  0  0  0  0
   -1.6350    6.7096    0.0000 C   0  0  0  0  0  0  0  0  0  0  0  0
   -3.0746    6.2885    0.0000 C   0  0  0  0  0  0  0  0  0  0  0  0
   -2.1309    8.1253    0.0000 C   0  0  0  0  0  0  0  0  0  0  0  0
   -3.6048    8.4037    0.0000 C   0  0  0  0  0  0  0  0  0  0  0  0
    0.7955    5.7915    0.0000 C   0  0  0  0  0  0  0  0  0  0  0  0
    1.1505    7.2488    0.0000 O   0  0  0  0  0  0  0  0  0  0  0  0
    1.7456    4.6308    0.0000 N   0  0  0  0  0  0  0  0  0  0  0  0
    3.2259    4.8733    0.0000 C   0  0  0  0  0  0  0  0  0  0  0  0
    2.8381    3.4243    0.0000 C   0  0  0  0  0  0  0  0  0  0  0  0
    2.8947    1.9254    0.0000 C   0  0  0  0  0  0  0  0  0  0  0  0
    3.3906    0.5097    0.0000 C   0  0  0  0  0  0  0  0  0  0  0  0
    4.2817   -0.6969    0.0000 C   0  0  0  0  0  0  0  0  0  0  0  0
    2.3960    6.1228    0.0000 C   0  0  0  0  0  0  0  0  0  0  0  0
    4.0235    6.1437    0.0000 C   0  0  0  0  0  0  0  0  0  0  0  0
    2.8862    7.1217    0.0000 O   0  0  0  0  0  0  0  0  0  0  0  0
    5.1601    7.1225    0.0000 N   0  0  0  0  0  0  0  0  0  0  0  0
    6.5348    7.7228    0.0000 C   0  0  0  0  0  0  0  0  0  0  0  0
    6.9943    9.1506    0.0000 C   0  0  0  0  0  0  0  0  0  0  0  0
    5.9874   10.2625    0.0000 C   0  0  0  0  0  0  0  0  0  0  0  0
    6.4469   11.6904    0.0000 C   0  0  0  0  0  0  0  0  0  0  0  0
    4.6610   10.9630    0.0000 C   0  0  0  0  0  0  0  0  0  0  0  0
    8.0253    7.8912    0.0000 C   0  0  0  0  0  0  0  0  0  0  0  0
    8.0809    9.3902    0.0000 O   0  0  0  0  0  0  0  0  0  0  0  0
    9.4992    7.6128    0.0000 N   0  0  0  0  0  0  0  0  0  0  0  0
   10.8256    6.9124    0.0000 C   0  0  0  0  0  0  0  0  0  0  0  0
   12.2285    7.4434    0.0000 C   0  0  0  0  0  0  0  0  0  0  0  0
   12.4701    8.9238    0.0000 S   0  0  0  0  0  0  0  0  0  0  0  0
   11.8867    5.8520    0.0000 C   0  0  0  0  0  0  0  0  0  0  0  0
   13.0933    6.7432    0.0000 O   0  0  0  0  0  0  0  0  0  0  0  0
   12.5880    4.5261    0.0000 N   0  0  0  0  0  0  0  0  0  0  0  0
   12.8674    3.0523    0.0000 C   0  0  0  0  0  0  0  0  0  0  0  0
   14.1572    2.2866    0.0000 C   0  0  0  0  0  0  0  0  0  0  0  0
   15.4652    3.0208    0.0000 C   0  0  0  0  0  0  0  0  0  0  0  0
   16.7551    2.2551    0.0000 C   0  0  0  0  0  0  0  0  0  0  0  0
   18.0631    2.9893    0.0000 N   0  0  0  0  0  0  0  0  0  0  0  0
   19.3530    2.2236    0.0000 C   0  0  0  0  0  0  0  0  0  0  0  0
   20.6610    2.9578    0.0000 N   0  0  0  0  0  0  0  0  0  0  0  0
   19.3348    0.7237    0.0000 N   0  0  0  0  0  0  0  0  0  0  0  0
   12.6999    1.5617    0.0000 C   0  0  0  0  0  0  0  0  0  0  0  0
   14.1489    1.1740    0.0000 O   0  0  0  0  0  0  0  0  0  0  0  0
   12.1005    0.1867    0.0000 N   0  0  0  0  0  0  0  0  0  0  0  0
   11.1225   -0.9506    0.0000 C   0  0  0  0  0  0  0  0  0  0  0  0
    9.8526   -1.7491    0.0000 C   0  0  0  0  0  0  0  0  0  0  0  0
    8.4039   -2.1378    0.0000 C   0  0  0  0  0  0  0  0  0  0  0  0
    6.9049   -2.0822    0.0000 C   0  0  0  0  0  0  0  0  0  0  0  0
    5.4889   -1.5872    0.0000 C   0  0  0  0  0  0  0  0  0  0  0  0
   12.5614   -1.3744    0.0000 C   0  0  0  0  0  0  0  0  0  0  0  0
   11.3280   -2.4365    0.0000 C   0  0  0  0  0  0  0  0  0  0  0  0
   10.4020   -3.6165    0.0000 O   0  0  0  0  0  0  0  0  0  0  0  0
   12.7176   -3.0014    0.0000 N   0  0  0  0  0  0  0  0  0  0  0  0
   12.9231   -4.4872    0.0000 C   0  0  0  0  0  0  0  0  0  0  0  0
   12.6081   -5.9538    0.0000 C   0  0  0  0  0  0  0  0  0  0  0  0
   11.1805   -6.4142    0.0000 C   0  0  0  0  0  0  0  0  0  0  0  0
   10.7139   -7.8398    0.0000 C   0  0  0  0  0  0  0  0  0  0  0  0
    9.2139   -7.8365    0.0000 N   0  0  0  0  0  0  0  0  0  0  0  0
    8.7534   -6.4090    0.0000 C   0  0  0  0  0  0  0  0  0  0  0  0
    9.9689   -5.5299    0.0000 N   0  0  0  0  0  0  0  0  0  0  0  0
   14.3127   -5.0521    0.0000 C   0  0  0  0  0  0  0  0  0  0  0  0
   14.6978   -6.5018    0.0000 O   0  0  0  0  0  0  0  0  0  0  0  0
   15.4967   -4.1312    0.0000 N   0  0  0  0  0  0  0  0  0  0  0  0
   16.8862   -4.6961    0.0000 C   0  0  0  0  0  0  0  0  0  0  0  0
   17.9988   -5.7022    0.0000 C   0  0  0  0  0  0  0  0  0  0  0  0
   17.6837   -7.1688    0.0000 C   0  0  0  0  0  0  0  0  0  0  0  0
   18.6850   -8.2856    0.0000 C   0  0  0  0  0  0  0  0  0  0  0  0
   17.9322   -9.5831    0.0000 N   0  0  0  0  0  0  0  0  0  0  0  0
   16.4657   -9.2680    0.0000 C   0  0  0  0  0  0  0  0  0  0  0  0
   16.3121   -7.7759    0.0000 N   0  0  0  0  0  0  0  0  0  0  0  0
   18.0702   -3.7752    0.0000 C   0  0  0  0  0  0  0  0  0  0  0  0
   17.8647   -2.2893    0.0000 O   0  0  0  0  0  0  0  0  0  0  0  0
   19.4598   -4.3401    0.0000 N   0  0  0  0  0  0  0  0  0  0  0  0
   20.6438   -3.4192    0.0000 C   0  0  0  0  0  0  0  0  0  0  0  0
   21.4414   -2.1488    0.0000 C   0  0  0  0  0  0  0  0  0  0  0  0
   22.9360   -2.0213    0.0000 O   0  0  0  0  0  0  0  0  0  0  0  0
   22.0334   -3.9841    0.0000 C   0  0  0  0  0  0  0  0  0  0  0  0
   23.3208   -3.2143    0.0000 O   0  0  0  0  0  0  0  0  0  0  0  0
   22.2389   -5.4699    0.0000 N   0  0  0  0  0  0  0  0  0  0  0  0
   23.6285   -6.0348    0.0000 C   0  0  0  0  0  0  0  0  0  0  0  0
   25.1274   -6.0904    0.0000 C   0  0  0  0  0  0  0  0  0  0  0  0
   26.5170   -6.6554    0.0000 O   0  0  0  0  0  0  0  0  0  0  0  0
   25.9251   -4.8201    0.0000 C   0  0  0  0  0  0  0  0  0  0  0  0
   23.8340   -7.5207    0.0000 C   0  0  0  0  0  0  0  0  0  0  0  0
   25.1444   -8.2508    0.0000 O   0  0  0  0  0  0  0  0  0  0  0  0
   22.6500   -8.4416    0.0000 O   0  0  0  0  0  0  0  0  0  0  0  0
  -25.6630   -5.6002    0.0000 H   0  0  0  0  0  0  0  0  0  0  0  0
  -24.3913   -7.8658    0.0000 H   0  0  0  0  0  0  0  0  0  0  0  0
  -24.0152   -4.4710    0.0000 H   0  0  0  0  0  0  0  0  0  0  0  0
  -22.0870   -4.4944    0.0000 H   0  0  0  0  0  0  0  0  0  0  0  0
  -22.7533   -7.5347    0.0000 H   0  0  0  0  0  0  0  0  0  0  0  0
  -20.8251   -7.5581    0.0000 H   0  0  0  0  0  0  0  0  0  0  0  0
  -19.2841   -7.2189    0.0000 H   0  0  0  0  0  0  0  0  0  0  0  0
  -18.8195   -4.5341    0.0000 H   0  0  0  0  0  0  0  0  0  0  0  0
  -16.4232   -8.2711    0.0000 H   0  0  0  0  0  0  0  0  0  0  0  0
  -16.0654   -6.3762    0.0000 H   0  0  0  0  0  0  0  0  0  0  0  0
  -19.6595   -8.9819    0.0000 H   0  0  0  0  0  0  0  0  0  0  0  0
  -19.1209   -7.8090    0.0000 H   0  0  0  0  0  0  0  0  0  0  0  0
  -18.8840   -3.0452    0.0000 H   0  0  0  0  0  0  0  0  0  0  0  0
  -15.4589   -3.1652    0.0000 H   0  0  0  0  0  0  0  0  0  0  0  0
  -18.7835   -0.2026    0.0000 H   0  0  0  0  0  0  0  0  0  0  0  0
  -16.4747   -0.3720    0.0000 H   0  0  0  0  0  0  0  0  0  0  0  0
  -19.9850   -3.1103    0.0000 H   0  0  0  0  0  0  0  0  0  0  0  0
  -18.5360   -3.3972    0.0000 H   0  0  0  0  0  0  0  0  0  0  0  0
  -21.2470   -0.0466    0.0000 H   0  0  0  0  0  0  0  0  0  0  0  0
  -19.4647    0.0407    0.0000 H   0  0  0  0  0  0  0  0  0  0  0  0
  -21.6231   -3.4414    0.0000 H   0  0  0  0  0  0  0  0  0  0  0  0
  -25.4926   -1.1442    0.0000 H   0  0  0  0  0  0  0  0  0  0  0  0
  -24.2209   -3.4098    0.0000 H   0  0  0  0  0  0  0  0  0  0  0  0
  -24.1663    1.0898    0.0000 H   0  0  0  0  0  0  0  0  0  0  0  0
  -21.5684    1.0583    0.0000 H   0  0  0  0  0  0  0  0  0  0  0  0
  -16.5196    0.6604    0.0000 H   0  0  0  0  0  0  0  0  0  0  0  0
  -13.2789   -0.4520    0.0000 H   0  0  0  0  0  0  0  0  0  0  0  0
  -15.2208    3.5401    0.0000 H   0  0  0  0  0  0  0  0  0  0  0  0
  -13.4169    2.8586    0.0000 H   0  0  0  0  0  0  0  0  0  0  0  0
  -16.6253    4.4458    0.0000 H   0  0  0  0  0  0  0  0  0  0  0  0
  -19.5858    3.9607    0.0000 H   0  0  0  0  0  0  0  0  0  0  0  0
  -20.6460    1.1543    0.0000 H   0  0  0  0  0  0  0  0  0  0  0  0
  -18.7457   -1.1671    0.0000 H   0  0  0  0  0  0  0  0  0  0  0  0
  -15.7851   -0.6820    0.0000 H   0  0  0  0  0  0  0  0  0  0  0  0
  -12.0415   -1.2826    0.0000 H   0  0  0  0  0  0  0  0  0  0  0  0
  -10.3600    1.7037    0.0000 H   0  0  0  0  0  0  0  0  0  0  0  0
   -9.2175   -2.5565    0.0000 H   0  0  0  0  0  0  0  0  0  0  0  0
   -8.4020   -0.9693    0.0000 H   0  0  0  0  0  0  0  0  0  0  0  0
  -12.6706   -2.1885    0.0000 H   0  0  0  0  0  0  0  0  0  0  0  0
  -12.1607   -0.8021    0.0000 H   0  0  0  0  0  0  0  0  0  0  0  0
  -10.7127   -4.8615    0.0000 H   0  0  0  0  0  0  0  0  0  0  0  0
   -9.7098   -3.3856    0.0000 H   0  0  0  0  0  0  0  0  0  0  0  0
  -13.8064   -3.4144    0.0000 H   0  0  0  0  0  0  0  0  0  0  0  0
  -13.8610   -7.9140    0.0000 H   0  0  0  0  0  0  0  0  0  0  0  0
  -15.2164   -5.8114    0.0000 H   0  0  0  0  0  0  0  0  0  0  0  0
  -11.2632   -7.9456    0.0000 H   0  0  0  0  0  0  0  0  0  0  0  0
   -9.9369   -5.7115    0.0000 H   0  0  0  0  0  0  0  0  0  0  0  0
   -9.9114    3.1249    0.0000 H   0  0  0  0  0  0  0  0  0  0  0  0
   -6.7339    1.8407    0.0000 H   0  0  0  0  0  0  0  0  0  0  0  0
   -8.4996    5.8826    0.0000 H   0  0  0  0  0  0  0  0  0  0  0  0
   -6.8719    5.1512    0.0000 H   0  0  0  0  0  0  0  0  0  0  0  0
  -10.9683    3.4403    0.0000 H   0  0  0  0  0  0  0  0  0  0  0  0
   -9.7047    2.6751    0.0000 H   0  0  0  0  0  0  0  0  0  0  0  0
  -11.1063    6.7508    0.0000 H   0  0  0  0  0  0  0  0  0  0  0  0
   -9.4016    6.2233    0.0000 H   0  0  0  0  0  0  0  0  0  0  0  0
  -12.6208    3.6894    0.0000 H   0  0  0  0  0  0  0  0  0  0  0  0
  -15.4713    7.1715    0.0000 H   0  0  0  0  0  0  0  0  0  0  0  0
  -15.0512    4.6076    0.0000 H   0  0  0  0  0  0  0  0  0  0  0  0
  -13.4609    8.8172    0.0000 H   0  0  0  0  0  0  0  0  0  0  0  0
  -11.0305    7.8991    0.0000 H   0  0  0  0  0  0  0  0  0  0  0  0
   -5.4966    1.0100    0.0000 H   0  0  0  0  0  0  0  0  0  0  0  0
   -3.8150    3.9964    0.0000 H   0  0  0  0  0  0  0  0  0  0  0  0
   -2.6726   -0.2639    0.0000 H   0  0  0  0  0  0  0  0  0  0  0  0
   -1.8570    1.3233    0.0000 H   0  0  0  0  0  0  0  0  0  0  0  0
   -6.1256    0.1041    0.0000 H   0  0  0  0  0  0  0  0  0  0  0  0
   -5.6157    1.4905    0.0000 H   0  0  0  0  0  0  0  0  0  0  0  0
   -4.1677   -2.5689    0.0000 H   0  0  0  0  0  0  0  0  0  0  0  0
   -3.1648   -1.0930    0.0000 H   0  0  0  0  0  0  0  0  0  0  0  0
   -7.2614   -1.1217    0.0000 H   0  0  0  0  0  0  0  0  0  0  0  0
   -7.3161   -5.6214    0.0000 H   0  0  0  0  0  0  0  0  0  0  0  0
   -8.5877   -3.3558    0.0000 H   0  0  0  0  0  0  0  0  0  0  0  0
   -4.7182   -5.6529    0.0000 H   0  0  0  0  0  0  0  0  0  0  0  0
   -3.3919   -3.4189    0.0000 H   0  0  0  0  0  0  0  0  0  0  0  0
   -3.3664    5.4175    0.0000 H   0  0  0  0  0  0  0  0  0  0  0  0
   -0.1889    4.1333    0.0000 H   0  0  0  0  0  0  0  0  0  0  0  0
   -0.3269    7.4438    0.0000 H   0  0  0  0  0  0  0  0  0  0  0  0
   -4.2213    7.4970    0.0000 H   0  0  0  0  0  0  0  0  0  0  0  0
   -4.4233    5.7329    0.0000 H   0  0  0  0  0  0  0  0  0  0  0  0
   -3.1597    4.9678    0.0000 H   0  0  0  0  0  0  0  0  0  0  0  0
   -2.1127    9.6252    0.0000 H   0  0  0  0  0  0  0  0  0  0  0  0
   -0.6506    8.3678    0.0000 H   0  0  0  0  0  0  0  0  0  0  0  0
   -4.1007    9.8193    0.0000 H   0  0  0  0  0  0  0  0  0  0  0  0
   -5.0851    8.1611    0.0000 H   0  0  0  0  0  0  0  0  0  0  0  0
   -3.9854    6.9528    0.0000 H   0  0  0  0  0  0  0  0  0  0  0  0
    0.8917    3.3975    0.0000 H   0  0  0  0  0  0  0  0  0  0  0  0
    1.4816    4.0645    0.0000 H   0  0  0  0  0  0  0  0  0  0  0  0
    1.4951    2.7562    0.0000 H   0  0  0  0  0  0  0  0  0  0  0  0
    1.4098    2.1373    0.0000 H   0  0  0  0  0  0  0  0  0  0  0  0
    1.6903    1.0313    0.0000 H   0  0  0  0  0  0  0  0  0  0  0  0
    1.8915    0.4568    0.0000 H   0  0  0  0  0  0  0  0  0  0  0  0
    2.6573   -0.7988    0.0000 H   0  0  0  0  0  0  0  0  0  0  0  0
    3.2214   -1.7579    0.0000 H   0  0  0  0  0  0  0  0  0  0  0  0
    0.9207    6.3939    0.0000 H   0  0  0  0  0  0  0  0  0  0  0  0
    2.2239    7.6129    0.0000 H   0  0  0  0  0  0  0  0  0  0  0  0
    3.5845    7.0379    0.0000 H   0  0  0  0  0  0  0  0  0  0  0  0
    4.3617    8.3923    0.0000 H   0  0  0  0  0  0  0  0  0  0  0  0
    5.3079    8.5857    0.0000 H   0  0  0  0  0  0  0  0  0  0  0  0
    8.0520   10.2143    0.0000 H   0  0  0  0  0  0  0  0  0  0  0  0
    8.4508    8.7920    0.0000 H   0  0  0  0  0  0  0  0  0  0  0  0
    4.9298    9.1989    0.0000 H   0  0  0  0  0  0  0  0  0  0  0  0
    5.5831   12.9167    0.0000 H   0  0  0  0  0  0  0  0  0  0  0  0
    7.3671   12.8750    0.0000 H   0  0  0  0  0  0  0  0  0  0  0  0
    7.8488   11.1569    0.0000 H   0  0  0  0  0  0  0  0  0  0  0  0
    4.4222   12.4438    0.0000 H   0  0  0  0  0  0  0  0  0  0  0  0
    3.1751   11.1676    0.0000 H   0  0  0  0  0  0  0  0  0  0  0  0
    4.2015    9.5351    0.0000 H   0  0  0  0  0  0  0  0  0  0  0  0
    9.9942    9.0288    0.0000 H   0  0  0  0  0  0  0  0  0  0  0  0
   10.9186    8.4095    0.0000 H   0  0  0  0  0  0  0  0  0  0  0  0
   13.7284    7.4626    0.0000 H   0  0  0  0  0  0  0  0  0  0  0  0
   12.8562    6.0810    0.0000 H   0  0  0  0  0  0  0  0  0  0  0  0
   13.8729    9.4548    0.0000 H   0  0  0  0  0  0  0  0  0  0  0  0
   14.0037    5.0220    0.0000 H   0  0  0  0  0  0  0  0  0  0  0  0
   13.9817    4.0564    0.0000 H   0  0  0  0  0  0  0  0  0  0  0  0
   14.9588    1.0188    0.0000 H   0  0  0  0  0  0  0  0  0  0  0  0
   13.4834    0.9465    0.0000 H   0  0  0  0  0  0  0  0  0  0  0  0
   16.4433    4.1581    0.0000 H   0  0  0  0  0  0  0  0  0  0  0  0
   14.6636    4.2887    0.0000 H   0  0  0  0  0  0  0  0  0  0  0  0
   17.7052    1.0944    0.0000 H   0  0  0  0  0  0  0  0  0  0  0  0
   15.9229    1.0071    0.0000 H   0  0  0  0  0  0  0  0  0  0  0  0
   18.0813    4.4892    0.0000 H   0  0  0  0  0  0  0  0  0  0  0  0
   21.9508    2.1920    0.0000 H   0  0  0  0  0  0  0  0  0  0  0  0
   20.6792    4.4576    0.0000 H   0  0  0  0  0  0  0  0  0  0  0  0
   20.6246   -0.0420    0.0000 H   0  0  0  0  0  0  0  0  0  0  0  0
   18.0267   -0.0105    0.0000 H   0  0  0  0  0  0  0  0  0  0  0  0
   13.3709   -0.6109    0.0000 H   0  0  0  0  0  0  0  0  0  0  0  0
    9.6111   -3.2295    0.0000 H   0  0  0  0  0  0  0  0  0  0  0  0
   10.8649   -2.8560    0.0000 H   0  0  0  0  0  0  0  0  0  0  0  0
    7.9054   -3.5525    0.0000 H   0  0  0  0  0  0  0  0  0  0  0  0
    9.0450   -3.4939    0.0000 H   0  0  0  0  0  0  0  0  0  0  0  0
    5.8714   -3.1693    0.0000 H   0  0  0  0  0  0  0  0  0  0  0  0
    7.2972   -3.5300    0.0000 H   0  0  0  0  0  0  0  0  0  0  0  0
    4.7885   -2.9136    0.0000 H   0  0  0  0  0  0  0  0  0  0  0  0
   13.2562   -2.7037    0.0000 H   0  0  0  0  0  0  0  0  0  0  0  0
   14.0358   -1.0986    0.0000 H   0  0  0  0  0  0  0  0  0  0  0  0
   13.0845    0.0315    0.0000 H   0  0  0  0  0  0  0  0  0  0  0  0
   14.0050   -2.2316    0.0000 H   0  0  0  0  0  0  0  0  0  0  0  0
   11.4241   -4.4316    0.0000 H   0  0  0  0  0  0  0  0  0  0  0  0
   12.8136   -7.4396    0.0000 H   0  0  0  0  0  0  0  0  0  0  0  0
   14.0891   -6.1917    0.0000 H   0  0  0  0  0  0  0  0  0  0  0  0
   11.5929   -9.0552    0.0000 H   0  0  0  0  0  0  0  0  0  0  0  0
    8.3296   -9.0481    0.0000 H   0  0  0  0  0  0  0  0  0  0  0  0
    7.3279   -5.9423    0.0000 H   0  0  0  0  0  0  0  0  0  0  0  0
   15.2911   -2.6453    0.0000 H   0  0  0  0  0  0  0  0  0  0  0  0
   16.0886   -5.9665    0.0000 H   0  0  0  0  0  0  0  0  0  0  0  0
   19.3091   -6.4323    0.0000 H   0  0  0  0  0  0  0  0  0  0  0  0
   19.0801   -4.6626    0.0000 H   0  0  0  0  0  0  0  0  0  0  0  0
   20.1771   -8.1321    0.0000 H   0  0  0  0  0  0  0  0  0  0  0  0
   18.5394  -10.9547    0.0000 H   0  0  0  0  0  0  0  0  0  0  0  0
   15.3488  -10.2693    0.0000 H   0  0  0  0  0  0  0  0  0  0  0  0
   19.8449   -5.7898    0.0000 H   0  0  0  0  0  0  0  0  0  0  0  0
   19.5313   -2.4131    0.0000 H   0  0  0  0  0  0  0  0  0  0  0  0
   21.7565   -0.6823    0.0000 H   0  0  0  0  0  0  0  0  0  0  0  0
   20.0519   -1.5839    0.0000 H   0  0  0  0  0  0  0  0  0  0  0  0
   23.7380   -0.9341    0.0000 H   0  0  0  0  0  0  0  0  0  0  0  0
   21.0549   -6.3909    0.0000 H   0  0  0  0  0  0  0  0  0  0  0  0
   23.7624   -4.5408    0.0000 H   0  0  0  0  0  0  0  0  0  0  0  0
   24.9935   -7.5844    0.0000 H   0  0  0  0  0  0  0  0  0  0  0  0
   27.8044   -5.8856    0.0000 H   0  0  0  0  0  0  0  0  0  0  0  0
   27.4196   -4.6925    0.0000 H   0  0  0  0  0  0  0  0  0  0  0  0
   26.2401   -3.3535    0.0000 H   0  0  0  0  0  0  0  0  0  0  0  0
   24.6147   -4.0900    0.0000 H   0  0  0  0  0  0  0  0  0  0  0  0
  1  2  1  0
  2  3  1  0
  3  4  1  0
  4  5  2  0
  4  6  1  0
  6  7  1  0
  7  8  1  0
  8  9  1  0
  9 10  1  0
 10 11  2  0
 10 12  1  0
  7 13  1  0
 13 14  2  0
 13 15  1  0
 15 16  1  0
 16 17  1  0
 17 18  1  0
 18 19  1  0
 19 20  1  0
 20 21  1  0
 21 22  2  3
 21 23  1  0
 16 24  1  0
 24 25  2  0
 24 26  1  0
 26 27  1  0
 27 28  1  0
 28 29  1  0
 29 30  2  0
 30 31  1  0
 31 32  2  0
 32 33  1  0
 33 34  2  0
 27 35  1  0
 35 36  2  0
 35 37  1  0
 37 38  1  0
 38 39  1  0
 39 40  1  0
 40 41  1  0
 41 42  1  0
 42 43  1  0
 43 44  2  3
 43 45  1  0
 38 46  1  0
 46 47  2  0
 46 48  1  0
 48 49  1  0
 49 50  1  0
 50 51  1  0
 51 52  1  0
 52 53  1  0
 53 54  1  0
 54 55  2  3
 54 56  1  0
 49 57  1  0
 57 58  2  0
 57 59  1  0
 59 60  1  0
 60 61  1  0
 61 62  1  0
 62 63  1  0
 63 64  1  0
 64 65  1  0
 65 66  2  3
 65 67  1  0
 60 68  1  0
 68 69  2  0
 68 70  1  0
 70 71  1  0
 71 72  1  0
 72 73  1  0
 72 74  1  0
 74 75  1  0
 71 76  1  0
 76 77  2  0
 76 78  1  0
 79 78  1  6
 79 80  1  0
 80 81  1  0
 81 82  1  0
 82 83  1  0
 79 84  1  0
 79 85  1  0
 85 86  2  0
 85 87  1  0
 87 88  1  0
 88 89  1  0
 89 90  1  0
 90 91  1  0
 90 92  1  0
 88 93  1  0
 93 94  2  0
 93 95  1  0
 95 96  1  0
 96 97  1  0
 97 98  1  0
 96 99  1  0
 99100  2  0
 99101  1  0
101102  1  0
102103  1  0
103104  1  0
104105  1  0
105106  1  0
106107  1  0
107108  2  3
107109  1  0
102110  1  0
110111  2  0
110112  1  0
112113  1  0
113114  1  0
114115  1  0
115116  1  0
116117  1  0
113118  1  0
113119  1  6
119120  2  0
119121  1  0
121122  1  0
122123  1  0
123124  1  0
124125  2  0
125126  1  0
126127  1  0
127128  2  0
122129  1  0
129130  2  0
129131  1  0
131132  1  0
132133  1  0
133134  1  0
134135  2  0
135136  1  0
136137  1  0
137138  2  0
132139  1  0
139140  2  0
139141  1  0
141142  1  0
142143  1  0
143144  1  0
142145  1  0
145146  2  0
145147  1  0
147148  1  0
148149  1  0
149150  1  0
149151  1  0
148152  1  0
152153  2  0
152154  1  0
 34 29  1  0
128124  1  0
138134  1  0
 83117  2  0
  1155  1  0
  1156  1  0
  2157  1  0
  2158  1  0
  3159  1  0
  3160  1  0
  6161  1  0
  7162  1  6
  8163  1  0
  8164  1  0
  9165  1  0
  9166  1  0
 15167  1  0
 16168  1  1
 17169  1  0
 17170  1  0
 18171  1  0
 18172  1  0
 19173  1  0
 19174  1  0
 20175  1  0
 22176  1  0
 22177  1  0
 23178  1  0
 23179  1  0
 26180  1  0
 27181  1  1
 28182  1  0
 28183  1  0
 30184  1  0
 31185  1  0
 32186  1  0
 33187  1  0
 34188  1  0
 37189  1  0
 38190  1  6
 39191  1  0
 39192  1  0
 40193  1  0
 40194  1  0
 41195  1  0
 41196  1  0
 42197  1  0
 44198  1  0
 44199  1  0
 45200  1  0
 45201  1  0
 48202  1  0
 49203  1  1
 50204  1  0
 50205  1  0
 51206  1  0
 51207  1  0
 52208  1  0
 52209  1  0
 53210  1  0
 55211  1  0
 55212  1  0
 56213  1  0
 56214  1  0
 59215  1  0
 60216  1  6
 61217  1  0
 61218  1  0
 62219  1  0
 62220  1  0
 63221  1  0
 63222  1  0
 64223  1  0
 66224  1  0
 66225  1  0
 67226  1  0
 67227  1  0
 70228  1  0
 71229  1  1
 72230  1  6
 73231  1  0
 73232  1  0
 73233  1  0
 74234  1  0
 74235  1  0
 75236  1  0
 75237  1  0
 75238  1  0
 78239  1  0
 80240  1  0
 80241  1  0
 81242  1  0
 81243  1  0
 82244  1  0
 82245  1  0
 83246  1  0
 84247  1  0
 84248  1  0
 84249  1  0
 87250  1  0
 88251  1  1
 89252  1  0
 89253  1  0
 90254  1  0
 91255  1  0
 91256  1  0
 91257  1  0
 92258  1  0
 92259  1  0
 92260  1  0
 95261  1  0
 96262  1  1
 97263  1  0
 97264  1  0
 98265  1  0
101266  1  0
102267  1  1
103268  1  0
103269  1  0
104270  1  0
104271  1  0
105272  1  0
105273  1  0
106274  1  0
108275  1  0
108276  1  0
109277  1  0
109278  1  0
112279  1  0
114280  1  0
114281  1  0
115282  1  0
115283  1  0
116284  1  0
116285  1  0
117286  1  0
118287  1  0
118288  1  0
118289  1  0
121290  1  0
122291  1  6
123292  1  0
123293  1  0
125294  1  0
126295  1  0
127296  1  0
131297  1  0
132298  1  6
133299  1  0
133300  1  0
135301  1  0
136302  1  0
137303  1  0
141304  1  0
142305  1  1
143306  1  0
143307  1  0
144308  1  0
147309  1  0
148310  1  1
149311  1  6
150312  1  0
151313  1  0
151314  1  0
151315  1  0
M  CHG  7  12  -1  22   1  44   1  55   1  66   1 108   1 154  -1
M  END
