
     RDKit          2D

184186  0  0  0  0  0  0  0  0999 V2000
  -25.1606    7.0161    0.0000 N   0  0  0  0  0  0  0  0  0  0  0  0
  -24.3653    5.7442    0.0000 C   0  0  0  0  0  0  0  0  0  0  0  0
  -22.8662    5.7971    0.0000 C   0  0  0  0  0  0  0  0  0  0  0  0
  -22.0709    4.5252    0.0000 O   0  0  0  0  0  0  0  0  0  0  0  0
  -20.5719    4.5780    0.0000 C   0  0  0  0  0  0  0  0  0  0  0  0
  -19.7766    3.3062    0.0000 O   0  0  0  0  0  0  0  0  0  0  0  0
  -18.2775    3.3590    0.0000 C   0  0  0  0  0  0  0  0  0  0  0  0
  -17.4823    2.0872    0.0000 C   0  0  0  0  0  0  0  0  0  0  0  0
  -15.9832    2.1400    0.0000 O   0  0  0  0  0  0  0  0  0  0  0  0
  -15.1879    0.8682    0.0000 C   0  0  0  0  0  0  0  0  0  0  0  0
  -13.6889    0.9210    0.0000 C   0  0  0  0  0  0  0  0  0  0  0  0
  -12.8936   -0.3508    0.0000 C   0  0  0  0  0  0  0  0  0  0  0  0
  -13.5974   -1.6755    0.0000 O   0  0  0  0  0  0  0  0  0  0  0  0
  -11.3945   -0.2980    0.0000 N   0  0  0  0  0  0  0  0  0  0  0  0
  -10.5992   -1.5699    0.0000 C   0  0  0  0  0  0  0  0  0  0  0  0
   -9.1002   -1.5171    0.0000 C   0  0  0  0  0  0  0  0  0  0  0  0
   -8.8148   -0.7727    0.0000 O   0  0  0  0  0  0  0  0  0  0  0  0
   -8.3049   -2.7889    0.0000 N   0  0  0  0  0  0  0  0  0  0  0  0
   -6.8058   -2.7361    0.0000 C   0  0  0  0  0  0  0  0  0  0  0  0
   -7.1182   -1.2689    0.0000 C   0  0  0  0  0  0  0  0  0  0  0  0
   -5.3791   -3.1992    0.0000 C   0  0  0  0  0  0  0  0  0  0  0  0
   -4.2647   -2.1951    0.0000 O   0  0  0  0  0  0  0  0  0  0  0  0
   -5.0668   -4.6663    0.0000 N   0  0  0  0  0  0  0  0  0  0  0  0
   -3.6401   -5.1294    0.0000 C   0  0  0  0  0  0  0  0  0  0  0  0
   -4.3439   -6.4540    0.0000 C   0  0  0  0  0  0  0  0  0  0  0  0
   -5.8429   -6.5068    0.0000 C   0  0  0  0  0  0  0  0  0  0  0  0
   -6.5467   -7.8315    0.0000 C   0  0  0  0  0  0  0  0  0  0  0  0
   -8.0458   -7.8843    0.0000 C   0  0  0  0  0  0  0  0  0  0  0  0
   -8.8411   -6.6124    0.0000 C   0  0  0  0  0  0  0  0  0  0  0  0
   -8.1373   -5.2878    0.0000 C   0  0  0  0  0  0  0  0  0  0  0  0
   -6.6382   -5.2350    0.0000 C   0  0  0  0  0  0  0  0  0  0  0  0
   -2.1410   -5.0766    0.0000 C   0  0  0  0  0  0  0  0  0  0  0  0
   -1.5067   -6.4358    0.0000 O   0  0  0  0  0  0  0  0  0  0  0  0
   -1.4372   -3.7519    0.0000 N   0  0  0  0  0  0  0  0  0  0  0  0
    0.0619   -3.6991    0.0000 C   0  0  0  0  0  0  0  0  0  0  0  0
   -0.6028   -2.3544    0.0000 C   0  0  0  0  0  0  0  0  0  0  0  0
   -0.8416   -0.8735    0.0000 C   0  0  0  0  0  0  0  0  0  0  0  0
   -0.6333    0.6119    0.0000 C   0  0  0  0  0  0  0  0  0  0  0  0
    0.0036    1.9700    0.0000 C   0  0  0  0  0  0  0  0  0  0  0  0
   -0.5065   -5.0872    0.0000 C   0  0  0  0  0  0  0  0  0  0  0  0
    1.0934   -4.7881    0.0000 C   0  0  0  0  0  0  0  0  0  0  0  0
    0.1703   -5.9704    0.0000 O   0  0  0  0  0  0  0  0  0  0  0  0
    2.4001   -5.5247    0.0000 N   0  0  0  0  0  0  0  0  0  0  0  0
    3.8658   -5.8435    0.0000 C   0  0  0  0  0  0  0  0  0  0  0  0
    4.5967   -7.1534    0.0000 C   0  0  0  0  0  0  0  0  0  0  0  0
    3.8277   -8.4413    0.0000 C   0  0  0  0  0  0  0  0  0  0  0  0
    4.5586   -9.7512    0.0000 N   0  0  0  0  0  0  0  0  0  0  0  0
    2.3279   -8.4193    0.0000 O   0  0  0  0  0  0  0  0  0  0  0  0
    5.3604   -5.7160    0.0000 C   0  0  0  0  0  0  0  0  0  0  0  0
    5.7092   -7.1749    0.0000 O   0  0  0  0  0  0  0  0  0  0  0  0
    6.7510   -5.1537    0.0000 N   0  0  0  0  0  0  0  0  0  0  0  0
    7.9141   -4.2064    0.0000 C   0  0  0  0  0  0  0  0  0  0  0  0
    9.3939   -4.4517    0.0000 C   0  0  0  0  0  0  0  0  0  0  0  0
    9.9214   -5.8559    0.0000 C   0  0  0  0  0  0  0  0  0  0  0  0
   11.4012   -6.1012    0.0000 C   0  0  0  0  0  0  0  0  0  0  0  0
    9.9368   -7.3558    0.0000 C   0  0  0  0  0  0  0  0  0  0  0  0
    8.7463   -2.9584    0.0000 C   0  0  0  0  0  0  0  0  0  0  0  0
   10.1043   -3.5953    0.0000 O   0  0  0  0  0  0  0  0  0  0  0  0
    9.1736   -1.5206    0.0000 N   0  0  0  0  0  0  0  0  0  0  0  0
    9.1582   -0.0207    0.0000 C   0  0  0  0  0  0  0  0  0  0  0  0
   10.2726    0.9833    0.0000 C   0  0  0  0  0  0  0  0  0  0  0  0
   11.6993    0.5203    0.0000 C   0  0  0  0  0  0  0  0  0  0  0  0
   12.0117   -0.9469    0.0000 C   0  0  0  0  0  0  0  0  0  0  0  0
   13.4384   -1.4100    0.0000 C   0  0  0  0  0  0  0  0  0  0  0  0
   14.5528   -0.4059    0.0000 C   0  0  0  0  0  0  0  0  0  0  0  0
   14.2405    1.0612    0.0000 C   0  0  0  0  0  0  0  0  0  0  0  0
   12.8137    1.5243    0.0000 C   0  0  0  0  0  0  0  0  0  0  0  0
    8.7014    1.4080    0.0000 C   0  0  0  0  0  0  0  0  0  0  0  0
   10.0461    2.0727    0.0000 O   0  0  0  0  0  0  0  0  0  0  0  0
    7.8437    2.6386    0.0000 N   0  0  0  0  0  0  0  0  0  0  0  0
    6.6614    3.5618    0.0000 C   0  0  0  0  0  0  0  0  0  0  0  0
    5.2595    4.0954    0.0000 C   0  0  0  0  0  0  0  0  0  0  0  0
    3.7626    4.1921    0.0000 C   0  0  0  0  0  0  0  0  0  0  0  0
    2.3037    3.8433    0.0000 C   0  0  0  0  0  0  0  0  0  0  0  0
    1.0125    3.0800    0.0000 C   0  0  0  0  0  0  0  0  0  0  0  0
    7.9891    4.2598    0.0000 C   0  0  0  0  0  0  0  0  0  0  0  0
    6.5712    5.0591    0.0000 C   0  0  0  0  0  0  0  0  0  0  0  0
    5.4316    6.0344    0.0000 O   0  0  0  0  0  0  0  0  0  0  0  0
    7.8228    5.8858    0.0000 N   0  0  0  0  0  0  0  0  0  0  0  0
    7.7327    7.3831    0.0000 C   0  0  0  0  0  0  0  0  0  0  0  0
    7.1358    8.7592    0.0000 C   0  0  0  0  0  0  0  0  0  0  0  0
    7.8756   10.0641    0.0000 O   0  0  0  0  0  0  0  0  0  0  0  0
    8.9843    8.2098    0.0000 C   0  0  0  0  0  0  0  0  0  0  0  0
    9.0773    9.7069    0.0000 O   0  0  0  0  0  0  0  0  0  0  0  0
   10.3260    7.5393    0.0000 N   0  0  0  0  0  0  0  0  0  0  0  0
   11.5776    8.3660    0.0000 C   0  0  0  0  0  0  0  0  0  0  0  0
   12.4710    9.5709    0.0000 C   0  0  0  0  0  0  0  0  0  0  0  0
   11.8742   10.9471    0.0000 C   0  0  0  0  0  0  0  0  0  0  0  0
   12.9194    7.6954    0.0000 C   0  0  0  0  0  0  0  0  0  0  0  0
   14.2625    8.3634    0.0000 O   0  0  0  0  0  0  0  0  0  0  0  0
   13.0096    6.1981    0.0000 O   0  0  0  0  0  0  0  0  0  0  0  0
  -26.6596    6.9633    0.0000 H   0  0  0  0  0  0  0  0  0  0  0  0
  -24.4568    8.3407    0.0000 H   0  0  0  0  0  0  0  0  0  0  0  0
  -25.7559    5.1819    0.0000 H   0  0  0  0  0  0  0  0  0  0  0  0
  -24.0530    4.2771    0.0000 H   0  0  0  0  0  0  0  0  0  0  0  0
  -23.1785    7.2642    0.0000 H   0  0  0  0  0  0  0  0  0  0  0  0
  -21.5545    6.5247    0.0000 H   0  0  0  0  0  0  0  0  0  0  0  0
  -20.7030    6.0723    0.0000 H   0  0  0  0  0  0  0  0  0  0  0  0
  -19.2602    5.3057    0.0000 H   0  0  0  0  0  0  0  0  0  0  0  0
  -18.4087    4.8533    0.0000 H   0  0  0  0  0  0  0  0  0  0  0  0
  -16.8869    3.9214    0.0000 H   0  0  0  0  0  0  0  0  0  0  0  0
  -18.8729    1.5249    0.0000 H   0  0  0  0  0  0  0  0  0  0  0  0
  -17.3511    0.5929    0.0000 H   0  0  0  0  0  0  0  0  0  0  0  0
  -16.4996    0.1405    0.0000 H   0  0  0  0  0  0  0  0  0  0  0  0
  -14.8756   -0.5990    0.0000 H   0  0  0  0  0  0  0  0  0  0  0  0
  -14.0012    2.3881    0.0000 H   0  0  0  0  0  0  0  0  0  0  0  0
  -12.2983    1.4833    0.0000 H   0  0  0  0  0  0  0  0  0  0  0  0
  -10.6907    1.0266    0.0000 H   0  0  0  0  0  0  0  0  0  0  0  0
  -11.9899   -2.1322    0.0000 H   0  0  0  0  0  0  0  0  0  0  0  0
  -10.2869   -3.0370    0.0000 H   0  0  0  0  0  0  0  0  0  0  0  0
   -9.1649   -4.0178    0.0000 H   0  0  0  0  0  0  0  0  0  0  0  0
   -7.0141   -4.2215    0.0000 H   0  0  0  0  0  0  0  0  0  0  0  0
   -7.8407   -0.9323    0.0000 H   0  0  0  0  0  0  0  0  0  0  0  0
   -6.9099    0.2165    0.0000 H   0  0  0  0  0  0  0  0  0  0  0  0
   -5.6191   -1.2161    0.0000 H   0  0  0  0  0  0  0  0  0  0  0  0
   -6.3910   -5.3708    0.0000 H   0  0  0  0  0  0  0  0  0  0  0  0
   -3.4318   -3.6439    0.0000 H   0  0  0  0  0  0  0  0  0  0  0  0
   -4.5522   -7.9395    0.0000 H   0  0  0  0  0  0  0  0  0  0  0  0
   -2.9171   -6.9171    0.0000 H   0  0  0  0  0  0  0  0  0  0  0  0
   -5.7515   -9.1033    0.0000 H   0  0  0  0  0  0  0  0  0  0  0  0
   -8.7496   -9.2089    0.0000 H   0  0  0  0  0  0  0  0  0  0  0  0
  -10.3401   -6.6652    0.0000 H   0  0  0  0  0  0  0  0  0  0  0  0
   -9.0816   -4.1224    0.0000 H   0  0  0  0  0  0  0  0  0  0  0  0
   -5.9344   -3.9103    0.0000 H   0  0  0  0  0  0  0  0  0  0  0  0
   -2.5166   -2.7103    0.0000 H   0  0  0  0  0  0  0  0  0  0  0  0
   -1.8073   -3.2485    0.0000 H   0  0  0  0  0  0  0  0  0  0  0  0
   -2.0508   -1.9630    0.0000 H   0  0  0  0  0  0  0  0  0  0  0  0
   -2.2561   -1.3729    0.0000 H   0  0  0  0  0  0  0  0  0  0  0  0
   -2.1981   -0.2333    0.0000 H   0  0  0  0  0  0  0  0  0  0  0  0
   -2.1136    0.3695    0.0000 H   0  0  0  0  0  0  0  0  0  0  0  0
   -1.6093    1.7510    0.0000 H   0  0  0  0  0  0  0  0  0  0  0  0
   -1.2444    2.8022    0.0000 H   0  0  0  0  0  0  0  0  0  0  0  0
   -1.8999   -5.6427    0.0000 H   0  0  0  0  0  0  0  0  0  0  0  0
   -0.3828   -6.5821    0.0000 H   0  0  0  0  0  0  0  0  0  0  0  0
    0.8385   -5.7512    0.0000 H   0  0  0  0  0  0  0  0  0  0  0  0
    1.8664   -6.9266    0.0000 H   0  0  0  0  0  0  0  0  0  0  0  0
    2.9724   -7.0484    0.0000 H   0  0  0  0  0  0  0  0  0  0  0  0
    5.7315   -8.1343    0.0000 H   0  0  0  0  0  0  0  0  0  0  0  0
    5.9544   -6.5157    0.0000 H   0  0  0  0  0  0  0  0  0  0  0  0
    3.7897  -11.0391    0.0000 H   0  0  0  0  0  0  0  0  0  0  0  0
    6.0585   -9.7731    0.0000 H   0  0  0  0  0  0  0  0  0  0  0  0
    7.5143   -6.4449    0.0000 H   0  0  0  0  0  0  0  0  0  0  0  0
    8.1195   -5.6923    0.0000 H   0  0  0  0  0  0  0  0  0  0  0  0
   10.8237   -3.9984    0.0000 H   0  0  0  0  0  0  0  0  0  0  0  0
    9.7418   -2.9926    0.0000 H   0  0  0  0  0  0  0  0  0  0  0  0
    8.4915   -6.3092    0.0000 H   0  0  0  0  0  0  0  0  0  0  0  0
   12.0959   -7.4306    0.0000 H   0  0  0  0  0  0  0  0  0  0  0  0
   12.8756   -5.8255    0.0000 H   0  0  0  0  0  0  0  0  0  0  0  0
   11.5687   -4.6105    0.0000 H   0  0  0  0  0  0  0  0  0  0  0  0
   11.1439   -8.2462    0.0000 H   0  0  0  0  0  0  0  0  0  0  0  0
    9.4383   -8.7705    0.0000 H   0  0  0  0  0  0  0  0  0  0  0  0
    8.4570   -7.1105    0.0000 H   0  0  0  0  0  0  0  0  0  0  0  0
   10.6226   -1.9084    0.0000 H   0  0  0  0  0  0  0  0  0  0  0  0
   10.5317   -0.6235    0.0000 H   0  0  0  0  0  0  0  0  0  0  0  0
   10.9764    2.3080    0.0000 H   0  0  0  0  0  0  0  0  0  0  0  0
    9.3488    2.1651    0.0000 H   0  0  0  0  0  0  0  0  0  0  0  0
   11.0279   -2.0793    0.0000 H   0  0  0  0  0  0  0  0  0  0  0  0
   13.7507   -2.8771    0.0000 H   0  0  0  0  0  0  0  0  0  0  0  0
   15.9795   -0.8690    0.0000 H   0  0  0  0  0  0  0  0  0  0  0  0
   15.3549    2.0652    0.0000 H   0  0  0  0  0  0  0  0  0  0  0  0
   12.5014    2.9914    0.0000 H   0  0  0  0  0  0  0  0  0  0  0  0
    8.9327    3.6702    0.0000 H   0  0  0  0  0  0  0  0  0  0  0  0
    4.7320    5.4996    0.0000 H   0  0  0  0  0  0  0  0  0  0  0  0
    6.0348    5.3795    0.0000 H   0  0  0  0  0  0  0  0  0  0  0  0
    2.9961    5.4815    0.0000 H   0  0  0  0  0  0  0  0  0  0  0  0
    4.1250    5.6477    0.0000 H   0  0  0  0  0  0  0  0  0  0  0  0
    1.0769    4.7064    0.0000 H   0  0  0  0  0  0  0  0  0  0  0  0
    2.4042    5.3400    0.0000 H   0  0  0  0  0  0  0  0  0  0  0  0
    0.0652    4.2431    0.0000 H   0  0  0  0  0  0  0  0  0  0  0  0
    8.4094    5.6997    0.0000 H   0  0  0  0  0  0  0  0  0  0  0  0
    9.4890    4.2789    0.0000 H   0  0  0  0  0  0  0  0  0  0  0  0
    8.7781    2.9840    0.0000 H   0  0  0  0  0  0  0  0  0  0  0  0
    9.2363    5.3838    0.0000 H   0  0  0  0  0  0  0  0  0  0  0  0
    6.2738    7.0343    0.0000 H   0  0  0  0  0  0  0  0  0  0  0  0
    6.1043    9.8483    0.0000 H   0  0  0  0  0  0  0  0  0  0  0  0
    5.8842    7.9325    0.0000 H   0  0  0  0  0  0  0  0  0  0  0  0
    7.4324   11.3403    0.0000 H   0  0  0  0  0  0  0  0  0  0  0  0
   10.4162    6.0420    0.0000 H   0  0  0  0  0  0  0  0  0  0  0  0
   10.4211    9.3212    0.0000 H   0  0  0  0  0  0  0  0  0  0  0  0
   13.7226   10.3977    0.0000 H   0  0  0  0  0  0  0  0  0  0  0  0
   13.6276    8.6158    0.0000 H   0  0  0  0  0  0  0  0  0  0  0  0
   12.7675   12.1520    0.0000 H   0  0  0  0  0  0  0  0  0  0  0  0
   10.8427   12.0361    0.0000 H   0  0  0  0  0  0  0  0  0  0  0  0
   10.5311   10.2791    0.0000 H   0  0  0  0  0  0  0  0  0  0  0  0
  1  2  1  0
  2  3  1  0
  3  4  1  0
  4  5  1  0
  5  6  1  0
  6  7  1  0
  7  8  1  0
  8  9  1  0
  9 10  1  0
 10 11  1  0
 11 12  1  0
 12 13  2  0
 12 14  1  0
 14 15  1  0
 15 16  1  0
 16 17  2  0
 16 18  1  0
 18 19  1  0
 19 20  1  0
 19 21  1  0
 21 22  2  0
 21 23  1  0
 23 24  1  0
 24 25  1  0
 25 26  1  0
 26 27  2  0
 27 28  1  0
 28 29  2  0
 29 30  1  0
 30 31  2  0
 24 32  1  0
 32 33  2  0
 32 34  1  0
 35 34  1  1
 35 36  1  0
 36 37  1  0
 37 38  1  0
 38 39  1  0
 35 40  1  0
 35 41  1  0
 41 42  2  0
 41 43  1  0
 43 44  1  0
 44 45  1  0
 45 46  1  0
 46 47  1  0
 46 48  2  0
 44 49  1  0
 49 50  2  0
 49 51  1  0
 51 52  1  0
 52 53  1  0
 53 54  1  0
 54 55  1  0
 54 56  1  0
 52 57  1  0
 57 58  2  0
 57 59  1  0
 59 60  1  0
 60 61  1  0
 61 62  1  0
 62 63  2  0
 63 64  1  0
 64 65  2  0
 65 66  1  0
 66 67  2  0
 60 68  1  0
 68 69  2  0
 68 70  1  0
 70 71  1  0
 71 72  1  0
 72 73  1  0
 73 74  1  0
 74 75  1  0
 71 76  1  0
 71 77  1  1
 77 78  2  0
 77 79  1  0
 79 80  1  0
 80 81  1  0
 81 82  1  0
 80 83  1  0
 83 84  2  0
 83 85  1  0
 85 86  1  0
 86 87  1  0
 87 88  1  0
 86 89  1  0
 89 90  2  0
 89 91  1  0
 31 26  1  0
 67 62  1  0
 39 75  2  0
  1 92  1  0
  1 93  1  0
  2 94  1  0
  2 95  1  0
  3 96  1  0
  3 97  1  0
  5 98  1  0
  5 99  1  0
  7100  1  0
  7101  1  0
  8102  1  0
  8103  1  0
 10104  1  0
 10105  1  0
 11106  1  0
 11107  1  0
 14108  1  0
 15109  1  0
 15110  1  0
 18111  1  0
 19112  1  1
 20113  1  0
 20114  1  0
 20115  1  0
 23116  1  0
 24117  1  6
 25118  1  0
 25119  1  0
 27120  1  0
 28121  1  0
 29122  1  0
 30123  1  0
 31124  1  0
 34125  1  0
 36126  1  0
 36127  1  0
 37128  1  0
 37129  1  0
 38130  1  0
 38131  1  0
 39132  1  0
 40133  1  0
 40134  1  0
 40135  1  0
 43136  1  0
 44137  1  6
 45138  1  0
 45139  1  0
 47140  1  0
 47141  1  0
 51142  1  0
 52143  1  6
 53144  1  0
 53145  1  0
 54146  1  0
 55147  1  0
 55148  1  0
 55149  1  0
 56150  1  0
 56151  1  0
 56152  1  0
 59153  1  0
 60154  1  6
 61155  1  0
 61156  1  0
 63157  1  0
 64158  1  0
 65159  1  0
 66160  1  0
 67161  1  0
 70162  1  0
 72163  1  0
 72164  1  0
 73165  1  0
 73166  1  0
 74167  1  0
 74168  1  0
 75169  1  0
 76170  1  0
 76171  1  0
 76172  1  0
 79173  1  0
 80174  1  1
 81175  1  0
 81176  1  0
 82177  1  0
 85178  1  0
 86179  1  1
 87180  1  0
 87181  1  0
 88182  1  0
 88183  1  0
 88184  1  0
M  CHG  1  91  -1
M  END
