
     RDKit          2D

299305  0  0  0  0  0  0  0  0999 V2000
   28.3695   -0.5885    0.0000 C   0  0  0  0  0  0  0  0  0  0  0  0
   29.6687    0.1613    0.0000 N   0  0  0  0  0  0  0  0  0  0  0  0
   30.9676   -0.5889    0.0000 C   0  0  0  0  0  0  0  0  0  0  0  0
   30.9674   -2.0889    0.0000 C   0  0  0  0  0  0  0  0  0  0  0  0
   32.2663   -2.8391    0.0000 C   0  0  0  0  0  0  0  0  0  0  0  0
   33.5654   -2.0892    0.0000 C   0  0  0  0  0  0  0  0  0  0  0  0
   33.5657   -0.5892    0.0000 C   0  0  0  0  0  0  0  0  0  0  0  0
   32.2667    0.1609    0.0000 C   0  0  0  0  0  0  0  0  0  0  0  0
   34.9923   -0.1259    0.0000 C   0  0  0  0  0  0  0  0  0  0  0  0
   35.8738   -1.3396    0.0000 O   0  0  0  0  0  0  0  0  0  0  0  0
   34.9920   -2.5530    0.0000 C   0  0  0  0  0  0  0  0  0  0  0  0
   35.4553   -3.9796    0.0000 O   0  0  0  0  0  0  0  0  0  0  0  0
   36.4596    0.1857    0.0000 C   0  0  0  0  0  0  0  0  0  0  0  0
   36.9233    1.6122    0.0000 C   0  0  0  0  0  0  0  0  0  0  0  0
   38.3906    1.9239    0.0000 C   0  0  0  0  0  0  0  0  0  0  0  0
   39.3941    0.8090    0.0000 C   0  0  0  0  0  0  0  0  0  0  0  0
   38.9304   -0.6175    0.0000 C   0  0  0  0  0  0  0  0  0  0  0  0
   37.4631   -0.9292    0.0000 C   0  0  0  0  0  0  0  0  0  0  0  0
   40.8614    1.1206    0.0000 O   0  0  0  0  0  0  0  0  0  0  0  0
   35.9198    2.7271    0.0000 O   0  0  0  0  0  0  0  0  0  0  0  0
   34.4525    2.4154    0.0000 C   0  0  0  0  0  0  0  0  0  0  0  0
   33.9888    0.9889    0.0000 C   0  0  0  0  0  0  0  0  0  0  0  0
   32.7379    1.3430    0.0000 C   0  0  0  0  0  0  0  0  0  0  0  0
   32.2027    1.9376    0.0000 C   0  0  0  0  0  0  0  0  0  0  0  0
   32.4501    2.6984    0.0000 C   0  0  0  0  0  0  0  0  0  0  0  0
   33.2326    2.8646    0.0000 C   0  0  0  0  0  0  0  0  0  0  0  0
   30.9782    4.3335    0.0000 O   0  0  0  0  0  0  0  0  0  0  0  0
   28.3693   -2.0885    0.0000 S   0  0  0  0  0  0  0  0  0  0  0  0
   27.0706    0.1617    0.0000 N   0  0  0  0  0  0  0  0  0  0  0  0
   25.7714   -0.5881    0.0000 C   0  0  0  0  0  0  0  0  0  0  0  0
   24.4725    0.1621    0.0000 C   0  0  0  0  0  0  0  0  0  0  0  0
   23.1734   -0.5877    0.0000 C   0  0  0  0  0  0  0  0  0  0  0  0
   23.1731   -2.0877    0.0000 O   0  0  0  0  0  0  0  0  0  0  0  0
   21.8744    0.1625    0.0000 N   0  0  0  0  0  0  0  0  0  0  0  0
   20.5753   -0.5873    0.0000 C   0  0  0  0  0  0  0  0  0  0  0  0
   19.6109   -1.7362    0.0000 C   0  0  0  0  0  0  0  0  0  0  0  0
   18.1338   -1.4755    0.0000 C   0  0  0  0  0  0  0  0  0  0  0  0
   17.1694   -2.6244    0.0000 N   0  0  0  0  0  0  0  0  0  0  0  0
   17.6881   -0.8146    0.0000 O   0  0  0  0  0  0  0  0  0  0  0  0
   19.2764    0.1629    0.0000 C   0  0  0  0  0  0  0  0  0  0  0  0
   19.2766    1.6629    0.0000 O   0  0  0  0  0  0  0  0  0  0  0  0
   17.9772   -0.5869    0.0000 N   0  0  0  0  0  0  0  0  0  0  0  0
   16.6783    0.1633    0.0000 C   0  0  0  0  0  0  0  0  0  0  0  0
   15.7143    1.3125    0.0000 C   0  0  0  0  0  0  0  0  0  0  0  0
   14.2370    1.0523    0.0000 C   0  0  0  0  0  0  0  0  0  0  0  0
   13.2730    2.2015    0.0000 C   0  0  0  0  0  0  0  0  0  0  0  0
   11.7751    2.1233    0.0000 N   0  0  0  0  0  0  0  0  0  0  0  0
   13.7863    3.6110    0.0000 O   0  0  0  0  0  0  0  0  0  0  0  0
   15.3791   -0.5865    0.0000 C   0  0  0  0  0  0  0  0  0  0  0  0
   15.1961   -2.0753    0.0000 O   0  0  0  0  0  0  0  0  0  0  0  0
   14.0802    0.1637    0.0000 N   0  0  0  0  0  0  0  0  0  0  0  0
   12.7811   -0.5861    0.0000 C   0  0  0  0  0  0  0  0  0  0  0  0
   11.8167   -1.7350    0.0000 C   0  0  0  0  0  0  0  0  0  0  0  0
   10.3395   -1.4743    0.0000 C   0  0  0  0  0  0  0  0  0  0  0  0
    9.3752   -2.6232    0.0000 C   0  0  0  0  0  0  0  0  0  0  0  0
    9.0406   -0.7241    0.0000 C   0  0  0  0  0  0  0  0  0  0  0  0
   11.4821    0.1641    0.0000 C   0  0  0  0  0  0  0  0  0  0  0  0
   11.2995    1.6529    0.0000 O   0  0  0  0  0  0  0  0  0  0  0  0
   10.1830   -0.5857    0.0000 N   0  0  0  0  0  0  0  0  0  0  0  0
    8.8841    0.1645    0.0000 C   0  0  0  0  0  0  0  0  0  0  0  0
    7.9201    1.3137    0.0000 C   0  0  0  0  0  0  0  0  0  0  0  0
    6.4428    1.0535    0.0000 C   0  0  0  0  0  0  0  0  0  0  0  0
    5.4788    2.2027    0.0000 C   0  0  0  0  0  0  0  0  0  0  0  0
    4.0015    1.9424    0.0000 C   0  0  0  0  0  0  0  0  0  0  0  0
    3.0375    3.0916    0.0000 N   0  0  0  0  0  0  0  0  0  0  0  0
    7.5849   -0.5853    0.0000 C   0  0  0  0  0  0  0  0  0  0  0  0
    7.2217   -2.0407    0.0000 O   0  0  0  0  0  0  0  0  0  0  0  0
    6.2860    0.1649    0.0000 N   0  0  0  0  0  0  0  0  0  0  0  0
    4.9868   -0.5849    0.0000 C   0  0  0  0  0  0  0  0  0  0  0  0
    4.0225   -1.7338    0.0000 C   0  0  0  0  0  0  0  0  0  0  0  0
    2.5453   -1.4731    0.0000 C   0  0  0  0  0  0  0  0  0  0  0  0
    1.5810   -2.6221    0.0000 C   0  0  0  0  0  0  0  0  0  0  0  0
    0.1038   -2.3614    0.0000 N   0  0  0  0  0  0  0  0  0  0  0  0
   -0.8606   -3.5103    0.0000 C   0  0  0  0  0  0  0  0  0  0  0  0
   -2.2950   -3.0715    0.0000 N   0  0  0  0  0  0  0  0  0  0  0  0
   -0.3478   -4.9199    0.0000 N   0  0  0  0  0  0  0  0  0  0  0  0
    3.6879    0.1653    0.0000 C   0  0  0  0  0  0  0  0  0  0  0  0
    3.3252    1.6208    0.0000 O   0  0  0  0  0  0  0  0  0  0  0  0
    2.3888   -0.5845    0.0000 N   0  0  0  0  0  0  0  0  0  0  0  0
    1.0898    0.1657    0.0000 C   0  0  0  0  0  0  0  0  0  0  0  0
    0.1258    1.3149    0.0000 C   0  0  0  0  0  0  0  0  0  0  0  0
   -1.3465    1.6014    0.0000 O   0  0  0  0  0  0  0  0  0  0  0  0
   -0.2093   -0.5841    0.0000 C   0  0  0  0  0  0  0  0  0  0  0  0
   -0.5725   -2.0395    0.0000 O   0  0  0  0  0  0  0  0  0  0  0  0
   -1.5082    0.1661    0.0000 N   0  0  0  0  0  0  0  0  0  0  0  0
   -2.8074   -0.5837    0.0000 C   0  0  0  0  0  0  0  0  0  0  0  0
   -3.7717   -1.7326    0.0000 C   0  0  0  0  0  0  0  0  0  0  0  0
   -5.2489   -1.4720    0.0000 C   0  0  0  0  0  0  0  0  0  0  0  0
   -5.7617   -0.0623    0.0000 C   0  0  0  0  0  0  0  0  0  0  0  0
   -7.2389    0.1984    0.0000 C   0  0  0  0  0  0  0  0  0  0  0  0
   -8.2033   -0.9506    0.0000 C   0  0  0  0  0  0  0  0  0  0  0  0
   -7.6904   -2.3602    0.0000 C   0  0  0  0  0  0  0  0  0  0  0  0
   -6.2133   -2.6209    0.0000 C   0  0  0  0  0  0  0  0  0  0  0  0
   -4.1063    0.1665    0.0000 C   0  0  0  0  0  0  0  0  0  0  0  0
   -3.7431    1.6218    0.0000 O   0  0  0  0  0  0  0  0  0  0  0  0
   -5.4055   -0.5833    0.0000 N   0  0  0  0  0  0  0  0  0  0  0  0
   -6.7044    0.1669    0.0000 C   0  0  0  0  0  0  0  0  0  0  0  0
   -7.6684    1.3161    0.0000 C   0  0  0  0  0  0  0  0  0  0  0  0
   -7.1552    2.7255    0.0000 C   0  0  0  0  0  0  0  0  0  0  0  0
   -5.6779    2.9858    0.0000 C   0  0  0  0  0  0  0  0  0  0  0  0
   -5.1647    4.3952    0.0000 C   0  0  0  0  0  0  0  0  0  0  0  0
   -6.1287    5.5445    0.0000 C   0  0  0  0  0  0  0  0  0  0  0  0
   -7.6059    5.2842    0.0000 C   0  0  0  0  0  0  0  0  0  0  0  0
   -8.1192    3.8748    0.0000 C   0  0  0  0  0  0  0  0  0  0  0  0
   -8.0035   -0.5829    0.0000 C   0  0  0  0  0  0  0  0  0  0  0  0
   -8.3667   -2.0383    0.0000 O   0  0  0  0  0  0  0  0  0  0  0  0
   -9.3025    0.1673    0.0000 N   0  0  0  0  0  0  0  0  0  0  0  0
  -10.6016   -0.5825    0.0000 C   0  0  0  0  0  0  0  0  0  0  0  0
  -11.5660   -1.7315    0.0000 C   0  0  0  0  0  0  0  0  0  0  0  0
  -11.9005    0.1677    0.0000 C   0  0  0  0  0  0  0  0  0  0  0  0
  -11.9003    1.6677    0.0000 O   0  0  0  0  0  0  0  0  0  0  0  0
  -13.1997   -0.5822    0.0000 N   0  0  0  0  0  0  0  0  0  0  0  0
  -14.4986    0.1680    0.0000 C   0  0  0  0  0  0  0  0  0  0  0  0
  -15.4626    1.3173    0.0000 C   0  0  0  0  0  0  0  0  0  0  0  0
  -14.9494    2.7267    0.0000 C   0  0  0  0  0  0  0  0  0  0  0  0
  -15.9134    3.8759    0.0000 C   0  0  0  0  0  0  0  0  0  0  0  0
  -13.9850    3.8756    0.0000 C   0  0  0  0  0  0  0  0  0  0  0  0
  -15.7978   -0.5818    0.0000 C   0  0  0  0  0  0  0  0  0  0  0  0
  -15.7980   -2.0818    0.0000 O   0  0  0  0  0  0  0  0  0  0  0  0
  -17.0967    0.1684    0.0000 N   0  0  0  0  0  0  0  0  0  0  0  0
  -18.3959   -0.5814    0.0000 C   0  0  0  0  0  0  0  0  0  0  0  0
  -19.3602   -1.7303    0.0000 C   0  0  0  0  0  0  0  0  0  0  0  0
  -20.8374   -1.4696    0.0000 C   0  0  0  0  0  0  0  0  0  0  0  0
  -21.8017   -2.6185    0.0000 C   0  0  0  0  0  0  0  0  0  0  0  0
  -23.2789   -2.3578    0.0000 N   0  0  0  0  0  0  0  0  0  0  0  0
  -24.2433   -3.5067    0.0000 C   0  0  0  0  0  0  0  0  0  0  0  0
  -25.6776   -3.0679    0.0000 N   0  0  0  0  0  0  0  0  0  0  0  0
  -23.7304   -4.9163    0.0000 N   0  0  0  0  0  0  0  0  0  0  0  0
  -19.6948    0.1688    0.0000 C   0  0  0  0  0  0  0  0  0  0  0  0
  -19.6945    1.6688    0.0000 O   0  0  0  0  0  0  0  0  0  0  0  0
  -20.9939   -0.5810    0.0000 N   0  0  0  0  0  0  0  0  0  0  0  0
  -22.2929    0.1692    0.0000 C   0  0  0  0  0  0  0  0  0  0  0  0
  -23.2569    1.3184    0.0000 C   0  0  0  0  0  0  0  0  0  0  0  0
  -22.7436    2.7279    0.0000 C   0  0  0  0  0  0  0  0  0  0  0  0
  -23.7076    3.8771    0.0000 O   0  0  0  0  0  0  0  0  0  0  0  0
  -21.2664    2.9882    0.0000 O   0  0  0  0  0  0  0  0  0  0  0  0
  -23.5920   -0.5806    0.0000 C   0  0  0  0  0  0  0  0  0  0  0  0
  -23.9552   -2.0359    0.0000 O   0  0  0  0  0  0  0  0  0  0  0  0
  -24.8909    0.1696    0.0000 N   0  0  0  0  0  0  0  0  0  0  0  0
  -26.1901   -0.5802    0.0000 C   0  0  0  0  0  0  0  0  0  0  0  0
  -27.1544   -1.7291    0.0000 C   0  0  0  0  0  0  0  0  0  0  0  0
  -28.6316   -1.4684    0.0000 C   0  0  0  0  0  0  0  0  0  0  0  0
  -29.5960   -2.6173    0.0000 C   0  0  0  0  0  0  0  0  0  0  0  0
  -31.0939   -2.5386    0.0000 N   0  0  0  0  0  0  0  0  0  0  0  0
  -29.0831   -4.0269    0.0000 O   0  0  0  0  0  0  0  0  0  0  0  0
  -27.4890    0.1700    0.0000 C   0  0  0  0  0  0  0  0  0  0  0  0
  -27.4888    1.6700    0.0000 O   0  0  0  0  0  0  0  0  0  0  0  0
  -28.7882   -0.5798    0.0000 N   0  0  0  0  0  0  0  0  0  0  0  0
  -30.0871    0.1704    0.0000 C   0  0  0  0  0  0  0  0  0  0  0  0
  -31.0511    1.3196    0.0000 C   0  0  0  0  0  0  0  0  0  0  0  0
  -30.3699    2.6560    0.0000 C   0  0  0  0  0  0  0  0  0  0  0  0
  -32.3500    2.0698    0.0000 C   0  0  0  0  0  0  0  0  0  0  0  0
  -32.3498    3.5698    0.0000 C   0  0  0  0  0  0  0  0  0  0  0  0
  -31.3862   -0.5794    0.0000 C   0  0  0  0  0  0  0  0  0  0  0  0
  -32.8281   -0.1658    0.0000 O   0  0  0  0  0  0  0  0  0  0  0  0
  -31.5693   -2.0682    0.0000 O   0  0  0  0  0  0  0  0  0  0  0  0
   29.4861    1.6502    0.0000 H   0  0  0  0  0  0  0  0  0  0  0  0
   29.6682   -2.8387    0.0000 H   0  0  0  0  0  0  0  0  0  0  0  0
   32.2661   -4.3391    0.0000 H   0  0  0  0  0  0  0  0  0  0  0  0
   31.9040    1.6164    0.0000 H   0  0  0  0  0  0  0  0  0  0  0  0
   38.8543    3.3504    0.0000 H   0  0  0  0  0  0  0  0  0  0  0  0
   39.9339   -1.7324    0.0000 H   0  0  0  0  0  0  0  0  0  0  0  0
   36.9994   -2.3557    0.0000 H   0  0  0  0  0  0  0  0  0  0  0  0
   41.8649    0.0058    0.0000 H   0  0  0  0  0  0  0  0  0  0  0  0
   32.0578   -0.7492    0.0000 H   0  0  0  0  0  0  0  0  0  0  0  0
   30.0237    1.6617    0.0000 H   0  0  0  0  0  0  0  0  0  0  0  0
   33.9128    4.9568    0.0000 H   0  0  0  0  0  0  0  0  0  0  0  0
   31.4420    5.7601    0.0000 H   0  0  0  0  0  0  0  0  0  0  0  0
   27.0708    1.6617    0.0000 H   0  0  0  0  0  0  0  0  0  0  0  0
   24.8071   -1.7370    0.0000 H   0  0  0  0  0  0  0  0  0  0  0  0
   26.7355   -1.7373    0.0000 H   0  0  0  0  0  0  0  0  0  0  0  0
   23.5085    1.3113    0.0000 H   0  0  0  0  0  0  0  0  0  0  0  0
   25.4369    1.3111    0.0000 H   0  0  0  0  0  0  0  0  0  0  0  0
   21.8747    1.6625    0.0000 H   0  0  0  0  0  0  0  0  0  0  0  0
   21.5393   -1.7365    0.0000 H   0  0  0  0  0  0  0  0  0  0  0  0
   19.0977   -3.1457    0.0000 H   0  0  0  0  0  0  0  0  0  0  0  0
   20.9099   -2.4864    0.0000 H   0  0  0  0  0  0  0  0  0  0  0  0
   15.6715   -2.5457    0.0000 H   0  0  0  0  0  0  0  0  0  0  0  0
   17.6822   -4.0340    0.0000 H   0  0  0  0  0  0  0  0  0  0  0  0
   17.6140   -2.0423    0.0000 H   0  0  0  0  0  0  0  0  0  0  0  0
   17.6426    1.3122    0.0000 H   0  0  0  0  0  0  0  0  0  0  0  0
   15.2015    2.7221    0.0000 H   0  0  0  0  0  0  0  0  0  0  0  0
   17.0134    2.0623    0.0000 H   0  0  0  0  0  0  0  0  0  0  0  0
   12.9379    0.3025    0.0000 H   0  0  0  0  0  0  0  0  0  0  0  0
   14.0279   -0.4331    0.0000 H   0  0  0  0  0  0  0  0  0  0  0  0
   10.8318    3.0905    0.0000 H   0  0  0  0  0  0  0  0  0  0  0  0
   10.7448    0.8141    0.0000 H   0  0  0  0  0  0  0  0  0  0  0  0
   13.7175    1.6192    0.0000 H   0  0  0  0  0  0  0  0  0  0  0  0
   13.7451   -1.7353    0.0000 H   0  0  0  0  0  0  0  0  0  0  0  0
   11.4791   -3.1965    0.0000 H   0  0  0  0  0  0  0  0  0  0  0  0
   13.1156   -2.4852    0.0000 H   0  0  0  0  0  0  0  0  0  0  0  0
    9.9513   -0.0254    0.0000 H   0  0  0  0  0  0  0  0  0  0  0  0
    7.8788   -2.7277    0.0000 H   0  0  0  0  0  0  0  0  0  0  0  0
    8.8619   -4.0327    0.0000 H   0  0  0  0  0  0  0  0  0  0  0  0
   10.5730   -3.5262    0.0000 H   0  0  0  0  0  0  0  0  0  0  0  0
    7.7415   -1.4739    0.0000 H   0  0  0  0  0  0  0  0  0  0  0  0
    8.0766    0.4251    0.0000 H   0  0  0  0  0  0  0  0  0  0  0  0
   10.1378    0.2987    0.0000 H   0  0  0  0  0  0  0  0  0  0  0  0
    9.8198   -2.0411    0.0000 H   0  0  0  0  0  0  0  0  0  0  0  0
    9.7012    1.4224    0.0000 H   0  0  0  0  0  0  0  0  0  0  0  0
    7.5829    2.7753    0.0000 H   0  0  0  0  0  0  0  0  0  0  0  0
    9.2192    2.0635    0.0000 H   0  0  0  0  0  0  0  0  0  0  0  0
    5.2447    0.1509    0.0000 H   0  0  0  0  0  0  0  0  0  0  0  0
    6.2337   -0.4319    0.0000 H   0  0  0  0  0  0  0  0  0  0  0  0
    5.1416    3.6643    0.0000 H   0  0  0  0  0  0  0  0  0  0  0  0
    6.6769    3.1052    0.0000 H   0  0  0  0  0  0  0  0  0  0  0  0
    2.6207    1.3566    0.0000 H   0  0  0  0  0  0  0  0  0  0  0  0
    4.3387    0.4808    0.0000 H   0  0  0  0  0  0  0  0  0  0  0  0
    1.6030    2.6533    0.0000 H   0  0  0  0  0  0  0  0  0  0  0  0
    2.5247    4.5013    0.0000 H   0  0  0  0  0  0  0  0  0  0  0  0
    4.2356    3.9942    0.0000 H   0  0  0  0  0  0  0  0  0  0  0  0
    5.9232    1.6204    0.0000 H   0  0  0  0  0  0  0  0  0  0  0  0
    5.9508   -1.7341    0.0000 H   0  0  0  0  0  0  0  0  0  0  0  0
    3.6849   -3.1953    0.0000 H   0  0  0  0  0  0  0  0  0  0  0  0
    5.3214   -2.4840    0.0000 H   0  0  0  0  0  0  0  0  0  0  0  0
    1.2464   -0.7229    0.0000 H   0  0  0  0  0  0  0  0  0  0  0  0
    2.3366    0.0123    0.0000 H   0  0  0  0  0  0  0  0  0  0  0  0
    1.0677   -4.0315    0.0000 H   0  0  0  0  0  0  0  0  0  0  0  0
    2.7787   -3.5250    0.0000 H   0  0  0  0  0  0  0  0  0  0  0  0
   -0.7349   -1.1177    0.0000 H   0  0  0  0  0  0  0  0  0  0  0  0
   -3.3021   -4.3985    0.0000 H   0  0  0  0  0  0  0  0  0  0  0  0
   -2.6963   -1.7814    0.0000 H   0  0  0  0  0  0  0  0  0  0  0  0
   -1.3121   -6.0688    0.0000 H   0  0  0  0  0  0  0  0  0  0  0  0
    1.1294   -5.1806    0.0000 H   0  0  0  0  0  0  0  0  0  0  0  0
    2.0256   -2.0399    0.0000 H   0  0  0  0  0  0  0  0  0  0  0  0
    1.9069    1.4236    0.0000 H   0  0  0  0  0  0  0  0  0  0  0  0
   -0.3870    2.7245    0.0000 H   0  0  0  0  0  0  0  0  0  0  0  0
    1.5067    1.9007    0.0000 H   0  0  0  0  0  0  0  0  0  0  0  0
   -2.3154    2.2039    0.0000 H   0  0  0  0  0  0  0  0  0  0  0  0
   -1.6909    1.6549    0.0000 H   0  0  0  0  0  0  0  0  0  0  0  0
   -1.8434   -1.7329    0.0000 H   0  0  0  0  0  0  0  0  0  0  0  0
   -4.2850   -3.1421    0.0000 H   0  0  0  0  0  0  0  0  0  0  0  0
   -2.3299   -2.1462    0.0000 H   0  0  0  0  0  0  0  0  0  0  0  0
   -4.7974    1.0866    0.0000 H   0  0  0  0  0  0  0  0  0  0  0  0
   -8.0776    1.4420    0.0000 H   0  0  0  0  0  0  0  0  0  0  0  0
   -9.6804   -0.6899    0.0000 H   0  0  0  0  0  0  0  0  0  0  0  0
   -8.6548   -3.5091    0.0000 H   0  0  0  0  0  0  0  0  0  0  0  0
   -5.7005   -4.0305    0.0000 H   0  0  0  0  0  0  0  0  0  0  0  0
   -5.7687   -2.0387    0.0000 H   0  0  0  0  0  0  0  0  0  0  0  0
   -5.7400    1.3158    0.0000 H   0  0  0  0  0  0  0  0  0  0  0  0
   -8.8662    2.2190    0.0000 H   0  0  0  0  0  0  0  0  0  0  0  0
   -8.8821    0.4346    0.0000 H   0  0  0  0  0  0  0  0  0  0  0  0
   -4.4645    2.1040    0.0000 H   0  0  0  0  0  0  0  0  0  0  0  0
   -3.6874    4.6555    0.0000 H   0  0  0  0  0  0  0  0  0  0  0  0
   -5.6154    6.9539    0.0000 H   0  0  0  0  0  0  0  0  0  0  0  0
   -8.5699    6.4334    0.0000 H   0  0  0  0  0  0  0  0  0  0  0  0
   -9.5964    3.6145    0.0000 H   0  0  0  0  0  0  0  0  0  0  0  0
   -9.4851    1.6561    0.0000 H   0  0  0  0  0  0  0  0  0  0  0  0
   -9.6376   -1.7318    0.0000 H   0  0  0  0  0  0  0  0  0  0  0  0
  -13.0384   -2.0176    0.0000 H   0  0  0  0  0  0  0  0  0  0  0  0
  -12.0792   -3.1409    0.0000 H   0  0  0  0  0  0  0  0  0  0  0  0
  -10.2671   -2.4817    0.0000 H   0  0  0  0  0  0  0  0  0  0  0  0
  -13.3828   -2.0709    0.0000 H   0  0  0  0  0  0  0  0  0  0  0  0
  -13.4014    1.1908    0.0000 H   0  0  0  0  0  0  0  0  0  0  0  0
  -16.7616    2.0675    0.0000 H   0  0  0  0  0  0  0  0  0  0  0  0
  -16.6763    0.4358    0.0000 H   0  0  0  0  0  0  0  0  0  0  0  0
  -13.5687    2.1405    0.0000 H   0  0  0  0  0  0  0  0  0  0  0  0
  -15.5758    5.3374    0.0000 H   0  0  0  0  0  0  0  0  0  0  0  0
  -17.2123    4.6261    0.0000 H   0  0  0  0  0  0  0  0  0  0  0  0
  -17.0106    2.8531    0.0000 H   0  0  0  0  0  0  0  0  0  0  0  0
  -14.3222    5.3373    0.0000 H   0  0  0  0  0  0  0  0  0  0  0  0
  -12.6859    4.6254    0.0000 H   0  0  0  0  0  0  0  0  0  0  0  0
  -13.0210    2.7264    0.0000 H   0  0  0  0  0  0  0  0  0  0  0  0
  -17.2793    1.6573    0.0000 H   0  0  0  0  0  0  0  0  0  0  0  0
  -17.4318   -1.7306    0.0000 H   0  0  0  0  0  0  0  0  0  0  0  0
  -19.6978   -3.1918    0.0000 H   0  0  0  0  0  0  0  0  0  0  0  0
  -18.0613   -2.4805    0.0000 H   0  0  0  0  0  0  0  0  0  0  0  0
  -22.1363   -0.7194    0.0000 H   0  0  0  0  0  0  0  0  0  0  0  0
  -21.0461    0.0158    0.0000 H   0  0  0  0  0  0  0  0  0  0  0  0
  -22.3150   -4.0280    0.0000 H   0  0  0  0  0  0  0  0  0  0  0  0
  -20.6039   -3.5214    0.0000 H   0  0  0  0  0  0  0  0  0  0  0  0
  -24.1176   -1.1142    0.0000 H   0  0  0  0  0  0  0  0  0  0  0  0
  -26.6848   -4.3950    0.0000 H   0  0  0  0  0  0  0  0  0  0  0  0
  -26.0790   -1.7779    0.0000 H   0  0  0  0  0  0  0  0  0  0  0  0
  -24.6948   -6.0653    0.0000 H   0  0  0  0  0  0  0  0  0  0  0  0
  -22.2533   -5.1770    0.0000 H   0  0  0  0  0  0  0  0  0  0  0  0
  -21.3571   -2.0363    0.0000 H   0  0  0  0  0  0  0  0  0  0  0  0
  -21.3285    1.3181    0.0000 H   0  0  0  0  0  0  0  0  0  0  0  0
  -24.4547    2.2214    0.0000 H   0  0  0  0  0  0  0  0  0  0  0  0
  -24.4706    0.4370    0.0000 H   0  0  0  0  0  0  0  0  0  0  0  0
  -25.0735    1.6585    0.0000 H   0  0  0  0  0  0  0  0  0  0  0  0
  -25.2261   -1.7294    0.0000 H   0  0  0  0  0  0  0  0  0  0  0  0
  -27.6677   -3.1386    0.0000 H   0  0  0  0  0  0  0  0  0  0  0  0
  -25.7126   -2.1427    0.0000 H   0  0  0  0  0  0  0  0  0  0  0  0
  -29.9305   -0.7182    0.0000 H   0  0  0  0  0  0  0  0  0  0  0  0
  -28.8403    0.0170    0.0000 H   0  0  0  0  0  0  0  0  0  0  0  0
  -32.0375   -3.5055    0.0000 H   0  0  0  0  0  0  0  0  0  0  0  0
  -31.9565   -1.1134    0.0000 H   0  0  0  0  0  0  0  0  0  0  0  0
  -29.1513   -2.0352    0.0000 H   0  0  0  0  0  0  0  0  0  0  0  0
  -28.9899    1.1932    0.0000 H   0  0  0  0  0  0  0  0  0  0  0  0
  -32.1483    0.2968    0.0000 H   0  0  0  0  0  0  0  0  0  0  0  0
  -31.3444    4.0072    0.0000 H   0  0  0  0  0  0  0  0  0  0  0  0
  -29.5735    3.8780    0.0000 H   0  0  0  0  0  0  0  0  0  0  0  0
  -29.1572    2.1428    0.0000 H   0  0  0  0  0  0  0  0  0  0  0  0
  -33.8272    2.3305    0.0000 H   0  0  0  0  0  0  0  0  0  0  0  0
  -33.0312    0.7334    0.0000 H   0  0  0  0  0  0  0  0  0  0  0  0
  -33.6487    4.3200    0.0000 H   0  0  0  0  0  0  0  0  0  0  0  0
  -31.8365    4.9793    0.0000 H   0  0  0  0  0  0  0  0  0  0  0  0
  -30.8534    3.6743    0.0000 H   0  0  0  0  0  0  0  0  0  0  0  0
  1  2  1  0
  2  3  1  0
  3  4  2  0
  4  5  1  0
  5  6  2  0
  6  7  1  0
  7  8  2  0
  7  9  1  0
  9 10  1  0
 10 11  1  0
 11 12  2  0
  9 13  1  0
 13 14  1  0
 14 15  2  0
 15 16  1  0
 16 17  2  0
 17 18  1  0
 16 19  1  0
 14 20  1  0
 20 21  1  0
 21 22  2  0
 22 23  1  0
 23 24  2  0
 24 25  1  0
 25 26  2  0
 25 27  1  0
  1 28  2  0
  1 29  1  0
 29 30  1  0
 30 31  1  0
 31 32  1  0
 32 33  2  0
 32 34  1  0
 34 35  1  0
 35 36  1  0
 36 37  1  0
 37 38  1  0
 37 39  2  0
 35 40  1  0
 40 41  2  0
 40 42  1  0
 42 43  1  0
 43 44  1  0
 44 45  1  0
 45 46  1  0
 46 47  1  0
 46 48  2  0
 43 49  1  0
 49 50  2  0
 49 51  1  0
 51 52  1  0
 52 53  1  0
 53 54  1  0
 54 55  1  0
 54 56  1  0
 52 57  1  0
 57 58  2  0
 57 59  1  0
 59 60  1  0
 60 61  1  0
 61 62  1  0
 62 63  1  0
 63 64  1  0
 64 65  1  0
 60 66  1  0
 66 67  2  0
 66 68  1  0
 68 69  1  0
 69 70  1  0
 70 71  1  0
 71 72  1  0
 72 73  1  0
 73 74  1  0
 74 75  2  3
 74 76  1  0
 69 77  1  0
 77 78  2  0
 77 79  1  0
 79 80  1  0
 80 81  1  0
 81 82  1  0
 80 83  1  0
 83 84  2  0
 83 85  1  0
 85 86  1  0
 86 87  1  0
 87 88  1  0
 88 89  2  0
 89 90  1  0
 90 91  2  0
 91 92  1  0
 92 93  2  0
 86 94  1  0
 94 95  2  0
 94 96  1  0
 96 97  1  0
 97 98  1  0
 98 99  1  0
 99100  2  0
100101  1  0
101102  2  0
102103  1  0
103104  2  0
 97105  1  0
105106  2  0
105107  1  0
107108  1  0
108109  1  0
108110  1  0
110111  2  0
110112  1  0
112113  1  0
113114  1  0
114115  1  0
115116  1  0
115117  1  0
113118  1  0
118119  2  0
118120  1  0
120121  1  0
121122  1  0
122123  1  0
123124  1  0
124125  1  0
125126  1  0
126127  2  3
126128  1  0
121129  1  0
129130  2  0
129131  1  0
131132  1  0
132133  1  0
133134  1  0
134135  2  0
134136  1  0
132137  1  0
137138  2  0
137139  1  0
139140  1  0
140141  1  0
141142  1  0
142143  1  0
143144  1  0
143145  2  0
140146  1  0
146147  2  0
146148  1  0
148149  1  0
149150  1  0
150151  1  0
150152  1  0
152153  1  0
149154  1  0
154155  2  0
154156  1  0
  8  3  1  0
 93 88  1  0
104 99  1  0
 11  6  1  0
 18 13  2  0
 22  9  1  0
 26 21  1  0
  2157  1  0
  4158  1  0
  5159  1  0
  8160  1  0
 15161  1  0
 17162  1  0
 18163  1  0
 19164  1  0
 23165  1  0
 24166  1  0
 26167  1  0
 27168  1  0
 29169  1  0
 30170  1  0
 30171  1  0
 31172  1  0
 31173  1  0
 34174  1  0
 35175  1  1
 36176  1  0
 36177  1  0
 38178  1  0
 38179  1  0
 42180  1  0
 43181  1  6
 44182  1  0
 44183  1  0
 45184  1  0
 45185  1  0
 47186  1  0
 47187  1  0
 51188  1  0
 52189  1  1
 53190  1  0
 53191  1  0
 54192  1  0
 55193  1  0
 55194  1  0
 55195  1  0
 56196  1  0
 56197  1  0
 56198  1  0
 59199  1  0
 60200  1  6
 61201  1  0
 61202  1  0
 62203  1  0
 62204  1  0
 63205  1  0
 63206  1  0
 64207  1  0
 64208  1  0
 65209  1  0
 65210  1  0
 65211  1  0
 68212  1  0
 69213  1  1
 70214  1  0
 70215  1  0
 71216  1  0
 71217  1  0
 72218  1  0
 72219  1  0
 73220  1  0
 75221  1  0
 75222  1  0
 76223  1  0
 76224  1  0
 79225  1  0
 80226  1  6
 81227  1  0
 81228  1  0
 82229  1  0
 85230  1  0
 86231  1  1
 87232  1  0
 87233  1  0
 89234  1  0
 90235  1  0
 91236  1  0
 92237  1  0
 93238  1  0
 96239  1  0
 97240  1  6
 98241  1  0
 98242  1  0
100243  1  0
101244  1  0
102245  1  0
103246  1  0
104247  1  0
107248  1  0
108249  1  1
109250  1  0
109251  1  0
109252  1  0
112253  1  0
113254  1  6
114255  1  0
114256  1  0
115257  1  0
116258  1  0
116259  1  0
116260  1  0
117261  1  0
117262  1  0
117263  1  0
120264  1  0
121265  1  1
122266  1  0
122267  1  0
123268  1  0
123269  1  0
124270  1  0
124271  1  0
125272  1  0
127273  1  0
127274  1  0
128275  1  0
128276  1  0
131277  1  0
132278  1  6
133279  1  0
133280  1  0
139281  1  0
140282  1  1
141283  1  0
141284  1  0
142285  1  0
142286  1  0
144287  1  0
144288  1  0
148289  1  0
149290  1  6
150291  1  1
151292  1  0
151293  1  0
151294  1  0
152295  1  0
152296  1  0
153297  1  0
153298  1  0
153299  1  0
M  CHG  5  65   1  75   1 127   1 136  -1 156  -1
M  END
