
     RDKit          2D

417418  0  0  0  0  0  0  0  0999 V2000
  -18.5820    7.5309    0.0000 N   0  0  0  0  0  0  0  0  0  0  0  0
  -19.9329    6.8789    0.0000 C   0  0  0  0  0  0  0  0  0  0  0  0
  -21.1730    7.7227    0.0000 C   0  0  0  0  0  0  0  0  0  0  0  0
  -22.5238    7.0707    0.0000 C   0  0  0  0  0  0  0  0  0  0  0  0
  -22.6346    5.5748    0.0000 O   0  0  0  0  0  0  0  0  0  0  0  0
  -23.7640    7.9145    0.0000 N   0  0  0  0  0  0  0  0  0  0  0  0
  -25.1148    7.2625    0.0000 C   0  0  0  0  0  0  0  0  0  0  0  0
  -25.5224    8.7060    0.0000 C   0  0  0  0  0  0  0  0  0  0  0  0
  -24.6148    9.9003    0.0000 O   0  0  0  0  0  0  0  0  0  0  0  0
  -26.1612    6.1877    0.0000 C   0  0  0  0  0  0  0  0  0  0  0  0
  -27.4195    6.6767    0.0000 O   0  0  0  0  0  0  0  0  0  0  0  0
  -25.7536    4.7442    0.0000 N   0  0  0  0  0  0  0  0  0  0  0  0
  -26.8000    3.6694    0.0000 C   0  0  0  0  0  0  0  0  0  0  0  0
  -27.6767    4.8865    0.0000 C   0  0  0  0  0  0  0  0  0  0  0  0
  -29.1692    4.7358    0.0000 C   0  0  0  0  0  0  0  0  0  0  0  0
  -30.0459    5.9529    0.0000 C   0  0  0  0  0  0  0  0  0  0  0  0
  -31.5383    5.8022    0.0000 O   0  0  0  0  0  0  0  0  0  0  0  0
  -29.4302    7.3208    0.0000 O   0  0  0  0  0  0  0  0  0  0  0  0
  -27.4157    2.3016    0.0000 C   0  0  0  0  0  0  0  0  0  0  0  0
  -28.7654    2.3307    0.0000 O   0  0  0  0  0  0  0  0  0  0  0  0
  -26.5390    1.0845    0.0000 N   0  0  0  0  0  0  0  0  0  0  0  0
  -27.1547   -0.2833    0.0000 C   0  0  0  0  0  0  0  0  0  0  0  0
  -28.3948    0.5605    0.0000 C   0  0  0  0  0  0  0  0  0  0  0  0
  -29.7457   -0.0915    0.0000 C   0  0  0  0  0  0  0  0  0  0  0  0
  -30.9858    0.7523    0.0000 C   0  0  0  0  0  0  0  0  0  0  0  0
  -32.3367    0.1003    0.0000 O   0  0  0  0  0  0  0  0  0  0  0  0
  -30.8751    2.2482    0.0000 O   0  0  0  0  0  0  0  0  0  0  0  0
  -27.2654   -1.7792    0.0000 C   0  0  0  0  0  0  0  0  0  0  0  0
  -28.4159   -2.1701    0.0000 O   0  0  0  0  0  0  0  0  0  0  0  0
  -26.0253   -2.6231    0.0000 N   0  0  0  0  0  0  0  0  0  0  0  0
  -26.1360   -4.1190    0.0000 C   0  0  0  0  0  0  0  0  0  0  0  0
  -27.5900   -3.7502    0.0000 C   0  0  0  0  0  0  0  0  0  0  0  0
  -28.6364   -4.8249    0.0000 C   0  0  0  0  0  0  0  0  0  0  0  0
  -30.0903   -4.4561    0.0000 C   0  0  0  0  0  0  0  0  0  0  0  0
  -29.2521   -6.1928    0.0000 C   0  0  0  0  0  0  0  0  0  0  0  0
  -25.7285   -5.5626    0.0000 C   0  0  0  0  0  0  0  0  0  0  0  0
  -26.8981   -6.5018    0.0000 O   0  0  0  0  0  0  0  0  0  0  0  0
  -24.2745   -5.9314    0.0000 N   0  0  0  0  0  0  0  0  0  0  0  0
  -23.8670   -7.3750    0.0000 C   0  0  0  0  0  0  0  0  0  0  0  0
  -25.3594   -7.5257    0.0000 C   0  0  0  0  0  0  0  0  0  0  0  0
  -25.9751   -8.8935    0.0000 C   0  0  0  0  0  0  0  0  0  0  0  0
  -22.9902   -8.5921    0.0000 C   0  0  0  0  0  0  0  0  0  0  0  0
  -23.7681   -9.8746    0.0000 O   0  0  0  0  0  0  0  0  0  0  0  0
  -21.4978   -8.4414    0.0000 N   0  0  0  0  0  0  0  0  0  0  0  0
  -20.6211   -9.6585    0.0000 C   0  0  0  0  0  0  0  0  0  0  0  0
  -21.9720  -10.3105    0.0000 C   0  0  0  0  0  0  0  0  0  0  0  0
  -19.3810  -10.5023    0.0000 C   0  0  0  0  0  0  0  0  0  0  0  0
  -19.6733  -11.9736    0.0000 O   0  0  0  0  0  0  0  0  0  0  0  0
  -18.0301   -9.8503    0.0000 N   0  0  0  0  0  0  0  0  0  0  0  0
  -16.7900  -10.6941    0.0000 C   0  0  0  0  0  0  0  0  0  0  0  0
  -17.8364  -11.7689    0.0000 C   0  0  0  0  0  0  0  0  0  0  0  0
  -17.4288  -13.2125    0.0000 C   0  0  0  0  0  0  0  0  0  0  0  0
  -18.4752  -14.2872    0.0000 C   0  0  0  0  0  0  0  0  0  0  0  0
  -18.0676  -15.7308    0.0000 O   0  0  0  0  0  0  0  0  0  0  0  0
  -19.9292  -13.9184    0.0000 O   0  0  0  0  0  0  0  0  0  0  0  0
  -15.3361  -11.0630    0.0000 C   0  0  0  0  0  0  0  0  0  0  0  0
  -15.1075  -12.5455    0.0000 O   0  0  0  0  0  0  0  0  0  0  0  0
  -14.2897   -9.9882    0.0000 N   0  0  0  0  0  0  0  0  0  0  0  0
  -12.8357  -10.3570    0.0000 C   0  0  0  0  0  0  0  0  0  0  0  0
  -13.4514  -11.7249    0.0000 C   0  0  0  0  0  0  0  0  0  0  0  0
  -11.3433  -10.2063    0.0000 C   0  0  0  0  0  0  0  0  0  0  0  0
  -10.6215  -11.5212    0.0000 O   0  0  0  0  0  0  0  0  0  0  0  0
  -10.7276   -8.8385    0.0000 N   0  0  0  0  0  0  0  0  0  0  0  0
   -9.2352   -8.6878    0.0000 C   0  0  0  0  0  0  0  0  0  0  0  0
   -9.3460  -10.1837    0.0000 C   0  0  0  0  0  0  0  0  0  0  0  0
   -8.1058  -11.0276    0.0000 C   0  0  0  0  0  0  0  0  0  0  0  0
   -6.6942  -10.5203    0.0000 C   0  0  0  0  0  0  0  0  0  0  0  0
   -5.7755  -11.7061    0.0000 N   0  0  0  0  0  0  0  0  0  0  0  0
   -6.6194  -12.9462    0.0000 C   0  0  0  0  0  0  0  0  0  0  0  0
   -8.0596  -12.5269    0.0000 N   0  0  0  0  0  0  0  0  0  0  0  0
   -7.8843   -8.0358    0.0000 C   0  0  0  0  0  0  0  0  0  0  0  0
   -6.6442   -8.8796    0.0000 O   0  0  0  0  0  0  0  0  0  0  0  0
   -7.7736   -6.5399    0.0000 N   0  0  0  0  0  0  0  0  0  0  0  0
   -6.4227   -5.8878    0.0000 C   0  0  0  0  0  0  0  0  0  0  0  0
   -6.0152   -7.3314    0.0000 C   0  0  0  0  0  0  0  0  0  0  0  0
   -4.5612   -7.7002    0.0000 C   0  0  0  0  0  0  0  0  0  0  0  0
   -4.1537   -9.1438    0.0000 N   0  0  0  0  0  0  0  0  0  0  0  0
   -3.5148   -6.6254    0.0000 O   0  0  0  0  0  0  0  0  0  0  0  0
   -5.3764   -4.8131    0.0000 C   0  0  0  0  0  0  0  0  0  0  0  0
   -3.9782   -5.3564    0.0000 O   0  0  0  0  0  0  0  0  0  0  0  0
   -5.7839   -3.3695    0.0000 N   0  0  0  0  0  0  0  0  0  0  0  0
   -4.7375   -2.2947    0.0000 C   0  0  0  0  0  0  0  0  0  0  0  0
   -3.8608   -3.5119    0.0000 C   0  0  0  0  0  0  0  0  0  0  0  0
   -2.3684   -3.3612    0.0000 C   0  0  0  0  0  0  0  0  0  0  0  0
   -1.4917   -4.5783    0.0000 C   0  0  0  0  0  0  0  0  0  0  0  0
   -1.0176   -2.7091    0.0000 C   0  0  0  0  0  0  0  0  0  0  0  0
   -4.1219   -0.9269    0.0000 C   0  0  0  0  0  0  0  0  0  0  0  0
   -2.6222   -0.9593    0.0000 O   0  0  0  0  0  0  0  0  0  0  0  0
   -4.9986    0.2902    0.0000 N   0  0  0  0  0  0  0  0  0  0  0  0
   -4.3829    1.6580    0.0000 C   0  0  0  0  0  0  0  0  0  0  0  0
   -3.1428    0.8141    0.0000 C   0  0  0  0  0  0  0  0  0  0  0  0
   -1.7919    1.4662    0.0000 S   0  0  0  0  0  0  0  0  0  0  0  0
   -4.2721    3.1539    0.0000 C   0  0  0  0  0  0  0  0  0  0  0  0
   -2.9213    3.8060    0.0000 O   0  0  0  0  0  0  0  0  0  0  0  0
   -5.5123    3.9978    0.0000 N   0  0  0  0  0  0  0  0  0  0  0  0
   -5.4015    5.4937    0.0000 C   0  0  0  0  0  0  0  0  0  0  0  0
   -6.8939    5.3430    0.0000 C   0  0  0  0  0  0  0  0  0  0  0  0
   -8.2448    4.6909    0.0000 O   0  0  0  0  0  0  0  0  0  0  0  0
   -7.7707    6.5601    0.0000 C   0  0  0  0  0  0  0  0  0  0  0  0
   -4.7858    6.8615    0.0000 C   0  0  0  0  0  0  0  0  0  0  0  0
   -5.8044    7.9627    0.0000 O   0  0  0  0  0  0  0  0  0  0  0  0
   -3.2934    7.0122    0.0000 N   0  0  0  0  0  0  0  0  0  0  0  0
   -2.6777    8.3800    0.0000 C   0  0  0  0  0  0  0  0  0  0  0  0
   -4.1317    8.7488    0.0000 C   0  0  0  0  0  0  0  0  0  0  0  0
   -4.5392   10.1924    0.0000 C   0  0  0  0  0  0  0  0  0  0  0  0
   -5.9932   10.5612    0.0000 C   0  0  0  0  0  0  0  0  0  0  0  0
   -4.4285   11.6883    0.0000 C   0  0  0  0  0  0  0  0  0  0  0  0
   -1.6313    9.4548    0.0000 C   0  0  0  0  0  0  0  0  0  0  0  0
   -2.2118   10.8379    0.0000 O   0  0  0  0  0  0  0  0  0  0  0  0
   -0.1774    9.0859    0.0000 N   0  0  0  0  0  0  0  0  0  0  0  0
    0.8690   10.1607    0.0000 C   0  0  0  0  0  0  0  0  0  0  0  0
   -0.3711   11.0045    0.0000 C   0  0  0  0  0  0  0  0  0  0  0  0
   -0.2604   12.5005    0.0000 C   0  0  0  0  0  0  0  0  0  0  0  0
   -1.5005   13.3443    0.0000 C   0  0  0  0  0  0  0  0  0  0  0  0
    0.3553   13.8683    0.0000 C   0  0  0  0  0  0  0  0  0  0  0  0
    2.2198   10.8127    0.0000 C   0  0  0  0  0  0  0  0  0  0  0  0
    2.1474   12.3110    0.0000 O   0  0  0  0  0  0  0  0  0  0  0  0
    3.4600    9.9689    0.0000 N   0  0  0  0  0  0  0  0  0  0  0  0
    4.8108   10.6209    0.0000 C   0  0  0  0  0  0  0  0  0  0  0  0
    3.9341   11.8380    0.0000 C   0  0  0  0  0  0  0  0  0  0  0  0
    4.5498   13.2059    0.0000 C   0  0  0  0  0  0  0  0  0  0  0  0
    3.6731   14.4230    0.0000 C   0  0  0  0  0  0  0  0  0  0  0  0
    4.2888   15.7908    0.0000 O   0  0  0  0  0  0  0  0  0  0  0  0
    2.1807   14.2723    0.0000 O   0  0  0  0  0  0  0  0  0  0  0  0
    6.3032   10.7716    0.0000 C   0  0  0  0  0  0  0  0  0  0  0  0
    6.7476   12.2043    0.0000 O   0  0  0  0  0  0  0  0  0  0  0  0
    7.1800    9.5545    0.0000 N   0  0  0  0  0  0  0  0  0  0  0  0
    8.6724    9.7052    0.0000 C   0  0  0  0  0  0  0  0  0  0  0  0
    8.1959    8.2829    0.0000 C   0  0  0  0  0  0  0  0  0  0  0  0
    8.1599    6.7833    0.0000 C   0  0  0  0  0  0  0  0  0  0  0  0
    8.5675    5.3398    0.0000 C   0  0  0  0  0  0  0  0  0  0  0  0
    9.3824    4.0805    0.0000 C   0  0  0  0  0  0  0  0  0  0  0  0
    7.9212   11.0036    0.0000 C   0  0  0  0  0  0  0  0  0  0  0  0
    9.5469   10.9239    0.0000 C   0  0  0  0  0  0  0  0  0  0  0  0
    8.4721   11.9703    0.0000 O   0  0  0  0  0  0  0  0  0  0  0  0
   10.7418   11.8307    0.0000 N   0  0  0  0  0  0  0  0  0  0  0  0
   12.1508   12.3450    0.0000 C   0  0  0  0  0  0  0  0  0  0  0  0
   12.6976   13.7418    0.0000 C   0  0  0  0  0  0  0  0  0  0  0  0
   13.6489   12.4211    0.0000 C   0  0  0  0  0  0  0  0  0  0  0  0
   13.7969   13.9138    0.0000 O   0  0  0  0  0  0  0  0  0  0  0  0
   15.1029   12.0523    0.0000 N   0  0  0  0  0  0  0  0  0  0  0  0
   16.3835   11.2713    0.0000 C   0  0  0  0  0  0  0  0  0  0  0  0
   17.8165   11.7148    0.0000 C   0  0  0  0  0  0  0  0  0  0  0  0
   17.9681   13.2071    0.0000 C   0  0  0  0  0  0  0  0  0  0  0  0
   19.3147   11.6413    0.0000 C   0  0  0  0  0  0  0  0  0  0  0  0
   20.1273   12.9021    0.0000 C   0  0  0  0  0  0  0  0  0  0  0  0
   17.3770   10.1476    0.0000 C   0  0  0  0  0  0  0  0  0  0  0  0
   18.7263   10.8029    0.0000 O   0  0  0  0  0  0  0  0  0  0  0  0
   17.9952    8.7809    0.0000 N   0  0  0  0  0  0  0  0  0  0  0  0
   18.1831    7.2927    0.0000 C   0  0  0  0  0  0  0  0  0  0  0  0
   19.4232    6.4488    0.0000 C   0  0  0  0  0  0  0  0  0  0  0  0
   20.7741    7.1009    0.0000 C   0  0  0  0  0  0  0  0  0  0  0  0
   22.0142    6.2570    0.0000 C   0  0  0  0  0  0  0  0  0  0  0  0
   23.3651    6.9091    0.0000 N   0  0  0  0  0  0  0  0  0  0  0  0
   21.9034    4.7611    0.0000 O   0  0  0  0  0  0  0  0  0  0  0  0
   17.9239    5.8152    0.0000 C   0  0  0  0  0  0  0  0  0  0  0  0
   19.3463    5.3388    0.0000 O   0  0  0  0  0  0  0  0  0  0  0  0
   17.2408    4.4798    0.0000 N   0  0  0  0  0  0  0  0  0  0  0  0
   16.1945    3.4050    0.0000 C   0  0  0  0  0  0  0  0  0  0  0  0
   14.8778    2.6865    0.0000 C   0  0  0  0  0  0  0  0  0  0  0  0
   13.4078    2.3879    0.0000 C   0  0  0  0  0  0  0  0  0  0  0  0
   11.9151    2.5359    0.0000 C   0  0  0  0  0  0  0  0  0  0  0  0
   10.5324    3.1173    0.0000 C   0  0  0  0  0  0  0  0  0  0  0  0
   17.6045    2.8933    0.0000 C   0  0  0  0  0  0  0  0  0  0  0  0
   16.3079    1.9093    0.0000 C   0  0  0  0  0  0  0  0  0  0  0  0
   15.3109    0.7887    0.0000 O   0  0  0  0  0  0  0  0  0  0  0  0
   17.6599    1.2597    0.0000 N   0  0  0  0  0  0  0  0  0  0  0  0
   17.7734   -0.2360    0.0000 C   0  0  0  0  0  0  0  0  0  0  0  0
   17.3684   -1.6803    0.0000 C   0  0  0  0  0  0  0  0  0  0  0  0
   16.4939   -2.8990    0.0000 O   0  0  0  0  0  0  0  0  0  0  0  0
   18.2782   -2.8729    0.0000 C   0  0  0  0  0  0  0  0  0  0  0  0
   19.1254   -0.8856    0.0000 C   0  0  0  0  0  0  0  0  0  0  0  0
   20.3640   -0.0395    0.0000 O   0  0  0  0  0  0  0  0  0  0  0  0
   19.2389   -2.3813    0.0000 N   0  0  0  0  0  0  0  0  0  0  0  0
   20.5909   -3.0309    0.0000 C   0  0  0  0  0  0  0  0  0  0  0  0
   22.0836   -3.1789    0.0000 C   0  0  0  0  0  0  0  0  0  0  0  0
   22.9581   -1.9602    0.0000 C   0  0  0  0  0  0  0  0  0  0  0  0
   20.7044   -4.5266    0.0000 C   0  0  0  0  0  0  0  0  0  0  0  0
   19.4658   -5.3727    0.0000 O   0  0  0  0  0  0  0  0  0  0  0  0
   22.0564   -5.1762    0.0000 N   0  0  0  0  0  0  0  0  0  0  0  0
   22.1699   -6.6719    0.0000 C   0  0  0  0  0  0  0  0  0  0  0  0
   21.7649   -8.1162    0.0000 C   0  0  0  0  0  0  0  0  0  0  0  0
   22.8132   -9.1890    0.0000 C   0  0  0  0  0  0  0  0  0  0  0  0
   22.4083  -10.6333    0.0000 C   0  0  0  0  0  0  0  0  0  0  0  0
   23.4566  -11.7062    0.0000 N   0  0  0  0  0  0  0  0  0  0  0  0
   23.0517  -13.1505    0.0000 C   0  0  0  0  0  0  0  0  0  0  0  0
   24.2230  -14.0876    0.0000 N   0  0  0  0  0  0  0  0  0  0  0  0
   21.5984  -13.5219    0.0000 N   0  0  0  0  0  0  0  0  0  0  0  0
   23.5219   -7.3215    0.0000 C   0  0  0  0  0  0  0  0  0  0  0  0
   24.7605   -6.4754    0.0000 O   0  0  0  0  0  0  0  0  0  0  0  0
   23.6354   -8.8172    0.0000 N   0  0  0  0  0  0  0  0  0  0  0  0
   24.9874   -9.4668    0.0000 C   0  0  0  0  0  0  0  0  0  0  0  0
   26.4801   -9.6148    0.0000 C   0  0  0  0  0  0  0  0  0  0  0  0
   27.3546   -8.3961    0.0000 C   0  0  0  0  0  0  0  0  0  0  0  0
   28.8473   -8.5441    0.0000 C   0  0  0  0  0  0  0  0  0  0  0  0
   29.7218   -7.3254    0.0000 O   0  0  0  0  0  0  0  0  0  0  0  0
   29.4655   -9.9108    0.0000 O   0  0  0  0  0  0  0  0  0  0  0  0
   25.1009  -10.9625    0.0000 C   0  0  0  0  0  0  0  0  0  0  0  0
   24.3740  -11.7795    0.0000 O   0  0  0  0  0  0  0  0  0  0  0  0
   26.4529  -11.6121    0.0000 N   0  0  0  0  0  0  0  0  0  0  0  0
   26.5663  -13.1078    0.0000 C   0  0  0  0  0  0  0  0  0  0  0  0
   26.1614  -14.5521    0.0000 C   0  0  0  0  0  0  0  0  0  0  0  0
   27.2097  -15.6249    0.0000 C   0  0  0  0  0  0  0  0  0  0  0  0
   26.8048  -17.0693    0.0000 C   0  0  0  0  0  0  0  0  0  0  0  0
   27.8531  -18.1421    0.0000 N   0  0  0  0  0  0  0  0  0  0  0  0
   25.3515  -17.4407    0.0000 O   0  0  0  0  0  0  0  0  0  0  0  0
   27.9184  -13.7574    0.0000 C   0  0  0  0  0  0  0  0  0  0  0  0
   28.2133  -15.2281    0.0000 O   0  0  0  0  0  0  0  0  0  0  0  0
   29.1570  -12.9113    0.0000 O   0  0  0  0  0  0  0  0  0  0  0  0
  -17.3419    6.6871    0.0000 H   0  0  0  0  0  0  0  0  0  0  0  0
  -18.4713    9.0268    0.0000 H   0  0  0  0  0  0  0  0  0  0  0  0
  -19.0561    5.6617    0.0000 H   0  0  0  0  0  0  0  0  0  0  0  0
  -20.9792    5.8041    0.0000 H   0  0  0  0  0  0  0  0  0  0  0  0
  -20.1266    8.7975    0.0000 H   0  0  0  0  0  0  0  0  0  0  0  0
  -22.0497    8.9398    0.0000 H   0  0  0  0  0  0  0  0  0  0  0  0
  -23.4717    9.3858    0.0000 H   0  0  0  0  0  0  0  0  0  0  0  0
  -24.2381    6.0454    0.0000 H   0  0  0  0  0  0  0  0  0  0  0  0
  -26.3991    9.9232    0.0000 H   0  0  0  0  0  0  0  0  0  0  0  0
  -26.8733    8.0540    0.0000 H   0  0  0  0  0  0  0  0  0  0  0  0
  -24.8836   11.2244    0.0000 H   0  0  0  0  0  0  0  0  0  0  0  0
  -24.2997    4.3753    0.0000 H   0  0  0  0  0  0  0  0  0  0  0  0
  -25.5599    2.8256    0.0000 H   0  0  0  0  0  0  0  0  0  0  0  0
  -28.1992    6.1313    0.0000 H   0  0  0  0  0  0  0  0  0  0  0  0
  -26.8363    5.5860    0.0000 H   0  0  0  0  0  0  0  0  0  0  0  0
  -30.5200    4.0838    0.0000 H   0  0  0  0  0  0  0  0  0  0  0  0
  -28.7616    3.2923    0.0000 H   0  0  0  0  0  0  0  0  0  0  0  0
  -25.0466    1.2352    0.0000 H   0  0  0  0  0  0  0  0  0  0  0  0
  -25.7007   -0.6522    0.0000 H   0  0  0  0  0  0  0  0  0  0  0  0
  -29.3115    1.5516    0.0000 H   0  0  0  0  0  0  0  0  0  0  0  0
  -27.8443    1.5053    0.0000 H   0  0  0  0  0  0  0  0  0  0  0  0
  -30.7921   -1.1663    0.0000 H   0  0  0  0  0  0  0  0  0  0  0  0
  -28.8690   -1.3086    0.0000 H   0  0  0  0  0  0  0  0  0  0  0  0
  -24.6744   -1.9710    0.0000 H   0  0  0  0  0  0  0  0  0  0  0  0
  -24.6436   -3.9683    0.0000 H   0  0  0  0  0  0  0  0  0  0  0  0
  -28.5945   -3.0667    0.0000 H   0  0  0  0  0  0  0  0  0  0  0  0
  -27.3742   -2.5545    0.0000 H   0  0  0  0  0  0  0  0  0  0  0  0
  -27.3963   -5.6688    0.0000 H   0  0  0  0  0  0  0  0  0  0  0  0
  -31.2599   -5.3953    0.0000 H   0  0  0  0  0  0  0  0  0  0  0  0
  -31.3305   -3.6123    0.0000 H   0  0  0  0  0  0  0  0  0  0  0  0
  -29.6460   -3.0234    0.0000 H   0  0  0  0  0  0  0  0  0  0  0  0
  -30.7150   -6.5242    0.0000 H   0  0  0  0  0  0  0  0  0  0  0  0
  -29.3628   -7.6887    0.0000 H   0  0  0  0  0  0  0  0  0  0  0  0
  -27.7981   -6.5616    0.0000 H   0  0  0  0  0  0  0  0  0  0  0  0
  -23.2281   -4.8566    0.0000 H   0  0  0  0  0  0  0  0  0  0  0  0
  -22.5161   -6.7229    0.0000 H   0  0  0  0  0  0  0  0  0  0  0  0
  -26.8474   -7.3368    0.0000 H   0  0  0  0  0  0  0  0  0  0  0  0
  -25.6139   -6.0474    0.0000 H   0  0  0  0  0  0  0  0  0  0  0  0
  -27.4675   -9.0442    0.0000 H   0  0  0  0  0  0  0  0  0  0  0  0
  -26.0858  -10.3894    0.0000 H   0  0  0  0  0  0  0  0  0  0  0  0
  -24.5211   -9.2623    0.0000 H   0  0  0  0  0  0  0  0  0  0  0  0
  -20.8821   -7.0736    0.0000 H   0  0  0  0  0  0  0  0  0  0  0  0
  -19.5747   -8.5837    0.0000 H   0  0  0  0  0  0  0  0  0  0  0  0
  -23.3057   -9.6241    0.0000 H   0  0  0  0  0  0  0  0  0  0  0  0
  -23.0184  -11.3853    0.0000 H   0  0  0  0  0  0  0  0  0  0  0  0
  -21.0953  -11.5276    0.0000 H   0  0  0  0  0  0  0  0  0  0  0  0
  -17.9194   -8.3544    0.0000 H   0  0  0  0  0  0  0  0  0  0  0  0
  -16.1743   -9.3263    0.0000 H   0  0  0  0  0  0  0  0  0  0  0  0
  -19.0977  -12.5807    0.0000 H   0  0  0  0  0  0  0  0  0  0  0  0
  -18.9816  -10.8001    0.0000 H   0  0  0  0  0  0  0  0  0  0  0  0
  -16.5521  -14.4296    0.0000 H   0  0  0  0  0  0  0  0  0  0  0  0
  -16.0780  -12.5604    0.0000 H   0  0  0  0  0  0  0  0  0  0  0  0
  -14.6972   -8.5447    0.0000 H   0  0  0  0  0  0  0  0  0  0  0  0
  -12.7250   -8.8611    0.0000 H   0  0  0  0  0  0  0  0  0  0  0  0
  -14.9143  -12.0564    0.0000 H   0  0  0  0  0  0  0  0  0  0  0  0
  -13.5622  -13.2208    0.0000 H   0  0  0  0  0  0  0  0  0  0  0  0
  -11.9975  -12.0937    0.0000 H   0  0  0  0  0  0  0  0  0  0  0  0
  -11.6043   -7.6214    0.0000 H   0  0  0  0  0  0  0  0  0  0  0  0
   -9.6428   -7.2442    0.0000 H   0  0  0  0  0  0  0  0  0  0  0  0
   -9.7903  -11.6164    0.0000 H   0  0  0  0  0  0  0  0  0  0  0  0
  -10.8459  -10.1777    0.0000 H   0  0  0  0  0  0  0  0  0  0  0  0
   -5.9388   -9.2244    0.0000 H   0  0  0  0  0  0  0  0  0  0  0  0
   -4.2763  -11.6598    0.0000 H   0  0  0  0  0  0  0  0  0  0  0  0
   -6.1121  -14.3578    0.0000 H   0  0  0  0  0  0  0  0  0  0  0  0
   -9.0137   -5.6960    0.0000 H   0  0  0  0  0  0  0  0  0  0  0  0
   -7.2995   -4.6707    0.0000 H   0  0  0  0  0  0  0  0  0  0  0  0
   -5.7607   -8.8096    0.0000 H   0  0  0  0  0  0  0  0  0  0  0  0
   -7.4268   -7.8387    0.0000 H   0  0  0  0  0  0  0  0  0  0  0  0
   -2.6997   -9.5126    0.0000 H   0  0  0  0  0  0  0  0  0  0  0  0
   -5.2000  -10.2185    0.0000 H   0  0  0  0  0  0  0  0  0  0  0  0
   -7.2379   -3.0007    0.0000 H   0  0  0  0  0  0  0  0  0  0  0  0
   -5.9777   -1.4509    0.0000 H   0  0  0  0  0  0  0  0  0  0  0  0
   -3.4533   -4.9554    0.0000 H   0  0  0  0  0  0  0  0  0  0  0  0
   -5.0138   -4.4714    0.0000 H   0  0  0  0  0  0  0  0  0  0  0  0
   -2.7760   -1.9176    0.0000 H   0  0  0  0  0  0  0  0  0  0  0  0
    0.0080   -4.6106    0.0000 H   0  0  0  0  0  0  0  0  0  0  0  0
   -1.0841   -6.0218    0.0000 H   0  0  0  0  0  0  0  0  0  0  0  0
   -2.7530   -5.3901    0.0000 H   0  0  0  0  0  0  0  0  0  0  0  0
    0.3162   -3.3955    0.0000 H   0  0  0  0  0  0  0  0  0  0  0  0
    0.0288   -1.6344    0.0000 H   0  0  0  0  0  0  0  0  0  0  0  0
   -1.8943   -1.4920    0.0000 H   0  0  0  0  0  0  0  0  0  0  0  0
   -6.4910    0.1395    0.0000 H   0  0  0  0  0  0  0  0  0  0  0  0
   -5.8368    2.0268    0.0000 H   0  0  0  0  0  0  0  0  0  0  0  0
   -2.1242   -0.2870    0.0000 H   0  0  0  0  0  0  0  0  0  0  0  0
   -3.8980   -0.4819    0.0000 H   0  0  0  0  0  0  0  0  0  0  0  0
   -0.5518    0.6223    0.0000 H   0  0  0  0  0  0  0  0  0  0  0  0
   -6.7736    3.1859    0.0000 H   0  0  0  0  0  0  0  0  0  0  0  0
   -3.9476    5.1249    0.0000 H   0  0  0  0  0  0  0  0  0  0  0  0
   -6.6654    3.8605    0.0000 H   0  0  0  0  0  0  0  0  0  0  0  0
   -9.5785    5.3773    0.0000 H   0  0  0  0  0  0  0  0  0  0  0  0
   -9.2703    6.5924    0.0000 H   0  0  0  0  0  0  0  0  0  0  0  0
   -8.1782    8.0036    0.0000 H   0  0  0  0  0  0  0  0  0  0  0  0
   -6.4198    7.2121    0.0000 H   0  0  0  0  0  0  0  0  0  0  0  0
   -2.4167    5.7951    0.0000 H   0  0  0  0  0  0  0  0  0  0  0  0
   -1.4376    7.5362    0.0000 H   0  0  0  0  0  0  0  0  0  0  0  0
   -5.6241    8.5981    0.0000 H   0  0  0  0  0  0  0  0  0  0  0  0
   -4.6011    7.3242    0.0000 H   0  0  0  0  0  0  0  0  0  0  0  0
   -3.0468   10.3431    0.0000 H   0  0  0  0  0  0  0  0  0  0  0  0
   -6.5737   11.9443    0.0000 H   0  0  0  0  0  0  0  0  0  0  0  0
   -7.4856   10.4105    0.0000 H   0  0  0  0  0  0  0  0  0  0  0  0
   -6.2855    9.0900    0.0000 H   0  0  0  0  0  0  0  0  0  0  0  0
   -5.5565   12.6770    0.0000 H   0  0  0  0  0  0  0  0  0  0  0  0
   -3.8128   13.0561    0.0000 H   0  0  0  0  0  0  0  0  0  0  0  0
   -2.9746   11.3195    0.0000 H   0  0  0  0  0  0  0  0  0  0  0  0
    0.2302    7.6424    0.0000 H   0  0  0  0  0  0  0  0  0  0  0  0
    1.7457    8.9436    0.0000 H   0  0  0  0  0  0  0  0  0  0  0  0
   -1.8251   11.3734    0.0000 H   0  0  0  0  0  0  0  0  0  0  0  0
   -1.2995    9.8264    0.0000 H   0  0  0  0  0  0  0  0  0  0  0  0
    1.1936   12.1316    0.0000 H   0  0  0  0  0  0  0  0  0  0  0  0
   -1.5730   14.8426    0.0000 H   0  0  0  0  0  0  0  0  0  0  0  0
   -2.9545   13.7131    0.0000 H   0  0  0  0  0  0  0  0  0  0  0  0
   -2.2784   12.0617    0.0000 H   0  0  0  0  0  0  0  0  0  0  0  0
   -0.3665   15.1832    0.0000 H   0  0  0  0  0  0  0  0  0  0  0  0
    1.4017   14.9430    0.0000 H   0  0  0  0  0  0  0  0  0  0  0  0
    1.5954   13.0244    0.0000 H   0  0  0  0  0  0  0  0  0  0  0  0
    3.3492    8.4730    0.0000 H   0  0  0  0  0  0  0  0  0  0  0  0
    5.2184    9.1774    0.0000 H   0  0  0  0  0  0  0  0  0  0  0  0
    2.8061   12.8268    0.0000 H   0  0  0  0  0  0  0  0  0  0  0  0
    2.6588   11.0484    0.0000 H   0  0  0  0  0  0  0  0  0  0  0  0
    5.5962   14.2806    0.0000 H   0  0  0  0  0  0  0  0  0  0  0  0
    5.7899   12.3620    0.0000 H   0  0  0  0  0  0  0  0  0  0  0  0
    6.2516    8.3763    0.0000 H   0  0  0  0  0  0  0  0  0  0  0  0
    6.8815    9.0056    0.0000 H   0  0  0  0  0  0  0  0  0  0  0  0
    6.8142    7.6990    0.0000 H   0  0  0  0  0  0  0  0  0  0  0  0
    6.6908    7.0865    0.0000 H   0  0  0  0  0  0  0  0  0  0  0  0
    6.9026    5.9653    0.0000 H   0  0  0  0  0  0  0  0  0  0  0  0
    7.0680    5.3795    0.0000 H   0  0  0  0  0  0  0  0  0  0  0  0
    7.7548    4.0790    0.0000 H   0  0  0  0  0  0  0  0  0  0  0  0
    8.2587    3.0869    0.0000 H   0  0  0  0  0  0  0  0  0  0  0  0
    6.4654   11.3652    0.0000 H   0  0  0  0  0  0  0  0  0  0  0  0
    7.8414   12.5015    0.0000 H   0  0  0  0  0  0  0  0  0  0  0  0
    9.1639   11.8436    0.0000 H   0  0  0  0  0  0  0  0  0  0  0  0
   10.0232   13.1474    0.0000 H   0  0  0  0  0  0  0  0  0  0  0  0
   11.1025   13.4179    0.0000 H   0  0  0  0  0  0  0  0  0  0  0  0
   11.7613   14.9137    0.0000 H   0  0  0  0  0  0  0  0  0  0  0  0
   13.6891   14.8674    0.0000 H   0  0  0  0  0  0  0  0  0  0  0  0
   14.1292   13.2939    0.0000 H   0  0  0  0  0  0  0  0  0  0  0  0
   15.6843   13.4351    0.0000 H   0  0  0  0  0  0  0  0  0  0  0  0
   16.3858   12.7713    0.0000 H   0  0  0  0  0  0  0  0  0  0  0  0
   18.3588   10.3163    0.0000 H   0  0  0  0  0  0  0  0  0  0  0  0
   19.5194   13.8145    0.0000 H   0  0  0  0  0  0  0  0  0  0  0  0
   17.9611   14.6656    0.0000 H   0  0  0  0  0  0  0  0  0  0  0  0
   16.6708   13.4329    0.0000 H   0  0  0  0  0  0  0  0  0  0  0  0
   20.6974   11.0599    0.0000 H   0  0  0  0  0  0  0  0  0  0  0  0
   19.1630   10.1490    0.0000 H   0  0  0  0  0  0  0  0  0  0  0  0
   21.6255   12.8287    0.0000 H   0  0  0  0  0  0  0  0  0  0  0  0
   20.4598   14.3648    0.0000 H   0  0  0  0  0  0  0  0  0  0  0  0
   18.9264   13.8008    0.0000 H   0  0  0  0  0  0  0  0  0  0  0  0
   19.4388    9.1884    0.0000 H   0  0  0  0  0  0  0  0  0  0  0  0
   19.3573    8.2261    0.0000 H   0  0  0  0  0  0  0  0  0  0  0  0
   20.2999    5.2317    0.0000 H   0  0  0  0  0  0  0  0  0  0  0  0
   18.6680    5.1528    0.0000 H   0  0  0  0  0  0  0  0  0  0  0  0
   21.8204    8.1756    0.0000 H   0  0  0  0  0  0  0  0  0  0  0  0
   20.0522    8.4158    0.0000 H   0  0  0  0  0  0  0  0  0  0  0  0
   24.6052    6.0652    0.0000 H   0  0  0  0  0  0  0  0  0  0  0  0
   23.4758    8.4050    0.0000 H   0  0  0  0  0  0  0  0  0  0  0  0
   18.4595    3.6053    0.0000 H   0  0  0  0  0  0  0  0  0  0  0  0
   14.5453    1.2238    0.0000 H   0  0  0  0  0  0  0  0  0  0  0  0
   15.8198    1.5192    0.0000 H   0  0  0  0  0  0  0  0  0  0  0  0
   12.8230    1.0066    0.0000 H   0  0  0  0  0  0  0  0  0  0  0  0
   13.9639    0.9948    0.0000 H   0  0  0  0  0  0  0  0  0  0  0  0
   10.8165    1.5147    0.0000 H   0  0  0  0  0  0  0  0  0  0  0  0
   12.2173    1.0667    0.0000 H   0  0  0  0  0  0  0  0  0  0  0  0
    9.7514    1.8367    0.0000 H   0  0  0  0  0  0  0  0  0  0  0  0
   18.2159    1.5236    0.0000 H   0  0  0  0  0  0  0  0  0  0  0  0
   19.0931    3.0775    0.0000 H   0  0  0  0  0  0  0  0  0  0  0  0
   18.2134    4.2641    0.0000 H   0  0  0  0  0  0  0  0  0  0  0  0
   18.9924    1.9486    0.0000 H   0  0  0  0  0  0  0  0  0  0  0  0
   16.2807   -0.0880    0.0000 H   0  0  0  0  0  0  0  0  0  0  0  0
   16.0164   -1.0307    0.0000 H   0  0  0  0  0  0  0  0  0  0  0  0
   15.0013   -2.7510    0.0000 H   0  0  0  0  0  0  0  0  0  0  0  0
   18.0118   -4.1974    0.0000 H   0  0  0  0  0  0  0  0  0  0  0  0
   19.7688   -3.4027    0.0000 H   0  0  0  0  0  0  0  0  0  0  0  0
   19.7611   -2.0878    0.0000 H   0  0  0  0  0  0  0  0  0  0  0  0
   18.1127   -3.3720    0.0000 H   0  0  0  0  0  0  0  0  0  0  0  0
   20.8168   -1.5480    0.0000 H   0  0  0  0  0  0  0  0  0  0  0  0
   23.5048   -3.6588    0.0000 H   0  0  0  0  0  0  0  0  0  0  0  0
   22.0402   -4.6782    0.0000 H   0  0  0  0  0  0  0  0  0  0  0  0
   24.4508   -2.1082    0.0000 H   0  0  0  0  0  0  0  0  0  0  0  0
   23.3631   -0.5159    0.0000 H   0  0  0  0  0  0  0  0  0  0  0  0
   21.6953   -1.1506    0.0000 H   0  0  0  0  0  0  0  0  0  0  0  0
   23.3889   -4.4874    0.0000 H   0  0  0  0  0  0  0  0  0  0  0  0
   20.6772   -6.5239    0.0000 H   0  0  0  0  0  0  0  0  0  0  0  0
   20.7484   -9.2192    0.0000 H   0  0  0  0  0  0  0  0  0  0  0  0
   20.4129   -7.4666    0.0000 H   0  0  0  0  0  0  0  0  0  0  0  0
   24.1653   -9.8386    0.0000 H   0  0  0  0  0  0  0  0  0  0  0  0
   24.1576   -8.5237    0.0000 H   0  0  0  0  0  0  0  0  0  0  0  0
   21.5338  -11.8520    0.0000 H   0  0  0  0  0  0  0  0  0  0  0  0
   20.9872  -10.1534    0.0000 H   0  0  0  0  0  0  0  0  0  0  0  0
   24.9566  -11.6974    0.0000 H   0  0  0  0  0  0  0  0  0  0  0  0
   23.6950  -15.6676    0.0000 H   0  0  0  0  0  0  0  0  0  0  0  0
   25.5146  -13.6915    0.0000 H   0  0  0  0  0  0  0  0  0  0  0  0
   21.1934  -14.9662    0.0000 H   0  0  0  0  0  0  0  0  0  0  0  0
   20.5501  -12.4491    0.0000 H   0  0  0  0  0  0  0  0  0  0  0  0
   22.6383   -9.9378    0.0000 H   0  0  0  0  0  0  0  0  0  0  0  0
   25.2133   -7.9839    0.0000 H   0  0  0  0  0  0  0  0  0  0  0  0
   27.9012  -10.0947    0.0000 H   0  0  0  0  0  0  0  0  0  0  0  0
   26.4367  -11.1142    0.0000 H   0  0  0  0  0  0  0  0  0  0  0  0
   27.7596   -6.9518    0.0000 H   0  0  0  0  0  0  0  0  0  0  0  0
   26.0918   -7.5865    0.0000 H   0  0  0  0  0  0  0  0  0  0  0  0
   27.7854  -10.9233    0.0000 H   0  0  0  0  0  0  0  0  0  0  0  0
   25.0737  -12.9598    0.0000 H   0  0  0  0  0  0  0  0  0  0  0  0
   25.2869  -15.7708    0.0000 H   0  0  0  0  0  0  0  0  0  0  0  0
   25.0067  -13.5946    0.0000 H   0  0  0  0  0  0  0  0  0  0  0  0
   28.5618  -16.2745    0.0000 H   0  0  0  0  0  0  0  0  0  0  0  0
   28.4630  -14.8007    0.0000 H   0  0  0  0  0  0  0  0  0  0  0  0
   27.4481  -19.5864    0.0000 H   0  0  0  0  0  0  0  0  0  0  0  0
   29.3064  -17.7706    0.0000 H   0  0  0  0  0  0  0  0  0  0  0  0
  1  2  1  0
  2  3  1  0
  3  4  1  0
  4  5  2  0
  4  6  1  0
  6  7  1  0
  7  8  1  0
  8  9  1  0
  7 10  1  0
 10 11  2  0
 10 12  1  0
 12 13  1  0
 13 14  1  0
 14 15  1  0
 15 16  1  0
 16 17  2  0
 16 18  1  0
 13 19  1  0
 19 20  2  0
 19 21  1  0
 21 22  1  0
 22 23  1  0
 23 24  1  0
 24 25  1  0
 25 26  2  0
 25 27  1  0
 22 28  1  0
 28 29  2  0
 28 30  1  0
 30 31  1  0
 31 32  1  0
 32 33  1  0
 33 34  1  0
 33 35  1  0
 31 36  1  0
 36 37  2  0
 36 38  1  0
 38 39  1  0
 39 40  1  0
 40 41  1  0
 39 42  1  0
 42 43  2  0
 42 44  1  0
 44 45  1  0
 45 46  1  0
 45 47  1  0
 47 48  2  0
 47 49  1  0
 49 50  1  0
 50 51  1  0
 51 52  1  0
 52 53  1  0
 53 54  2  0
 53 55  1  0
 50 56  1  0
 56 57  2  0
 56 58  1  0
 58 59  1  0
 59 60  1  0
 59 61  1  0
 61 62  2  0
 61 63  1  0
 63 64  1  0
 64 65  1  0
 65 66  1  0
 66 67  2  0
 67 68  1  0
 68 69  1  0
 69 70  2  0
 64 71  1  0
 71 72  2  0
 71 73  1  0
 73 74  1  0
 74 75  1  0
 75 76  1  0
 76 77  1  0
 76 78  2  0
 74 79  1  0
 79 80  2  0
 79 81  1  0
 81 82  1  0
 82 83  1  0
 83 84  1  0
 84 85  1  0
 84 86  1  0
 82 87  1  0
 87 88  2  0
 87 89  1  0
 89 90  1  0
 90 91  1  0
 91 92  1  0
 90 93  1  0
 93 94  2  0
 93 95  1  0
 95 96  1  0
 96 97  1  0
 97 98  1  0
 97 99  1  0
 96100  1  0
100101  2  0
100102  1  0
102103  1  0
103104  1  0
104105  1  0
105106  1  0
105107  1  0
103108  1  0
108109  2  0
108110  1  0
110111  1  0
111112  1  0
112113  1  0
113114  1  0
113115  1  0
111116  1  0
116117  2  0
116118  1  0
118119  1  0
119120  1  0
120121  1  0
121122  1  0
122123  2  0
122124  1  0
119125  1  0
125126  2  0
125127  1  0
128127  1  6
128129  1  0
129130  1  0
130131  1  0
131132  1  0
128133  1  0
128134  1  0
134135  2  0
134136  1  0
136137  1  0
137138  1  0
137139  1  0
139140  2  0
139141  1  0
141142  1  0
142143  1  0
143144  1  0
143145  1  0
145146  1  0
142147  1  0
147148  2  0
147149  1  0
149150  1  0
150151  1  0
151152  1  0
152153  1  0
153154  1  0
153155  2  0
150156  1  0
156157  2  0
156158  1  0
158159  1  0
159160  1  0
160161  1  0
161162  1  0
162163  1  0
159164  1  0
159165  1  6
165166  2  0
165167  1  0
167168  1  0
168169  1  0
169170  1  0
169171  1  0
168172  1  0
172173  2  0
172174  1  0
174175  1  0
175176  1  0
176177  1  0
175178  1  0
178179  2  0
178180  1  0
180181  1  0
181182  1  0
182183  1  0
183184  1  0
184185  1  0
185186  1  0
186187  2  3
186188  1  0
181189  1  0
189190  2  0
189191  1  0
191192  1  0
192193  1  0
193194  1  0
194195  1  0
195196  2  0
195197  1  0
192198  1  0
198199  2  0
198200  1  0
200201  1  0
201202  1  0
202203  1  0
203204  1  0
204205  1  0
204206  2  0
201207  1  0
207208  2  0
207209  1  0
 70 66  1  0
132163  2  0
  1210  1  0
  1211  1  0
  2212  1  0
  2213  1  0
  3214  1  0
  3215  1  0
  6216  1  0
  7217  1  6
  8218  1  0
  8219  1  0
  9220  1  0
 12221  1  0
 13222  1  6
 14223  1  0
 14224  1  0
 15225  1  0
 15226  1  0
 21227  1  0
 22228  1  6
 23229  1  0
 23230  1  0
 24231  1  0
 24232  1  0
 30233  1  0
 31234  1  6
 32235  1  0
 32236  1  0
 33237  1  0
 34238  1  0
 34239  1  0
 34240  1  0
 35241  1  0
 35242  1  0
 35243  1  0
 38244  1  0
 39245  1  6
 40246  1  0
 40247  1  0
 41248  1  0
 41249  1  0
 41250  1  0
 44251  1  0
 45252  1  6
 46253  1  0
 46254  1  0
 46255  1  0
 49256  1  0
 50257  1  6
 51258  1  0
 51259  1  0
 52260  1  0
 52261  1  0
 58262  1  0
 59263  1  6
 60264  1  0
 60265  1  0
 60266  1  0
 63267  1  0
 64268  1  6
 65269  1  0
 65270  1  0
 67271  1  0
 68272  1  0
 69273  1  0
 73274  1  0
 74275  1  6
 75276  1  0
 75277  1  0
 77278  1  0
 77279  1  0
 81280  1  0
 82281  1  6
 83282  1  0
 83283  1  0
 84284  1  0
 85285  1  0
 85286  1  0
 85287  1  0
 86288  1  0
 86289  1  0
 86290  1  0
 89291  1  0
 90292  1  6
 91293  1  0
 91294  1  0
 92295  1  0
 95296  1  0
 96297  1  1
 97298  1  1
 98299  1  0
 99300  1  0
 99301  1  0
 99302  1  0
102303  1  0
103304  1  1
104305  1  0
104306  1  0
105307  1  0
106308  1  0
106309  1  0
106310  1  0
107311  1  0
107312  1  0
107313  1  0
110314  1  0
111315  1  1
112316  1  0
112317  1  0
113318  1  0
114319  1  0
114320  1  0
114321  1  0
115322  1  0
115323  1  0
115324  1  0
118325  1  0
119326  1  1
120327  1  0
120328  1  0
121329  1  0
121330  1  0
127331  1  0
129332  1  0
129333  1  0
130334  1  0
130335  1  0
131336  1  0
131337  1  0
132338  1  0
133339  1  0
133340  1  0
133341  1  0
136342  1  0
137343  1  1
138344  1  0
138345  1  0
138346  1  0
141347  1  0
142348  1  1
143349  1  6
144350  1  0
144351  1  0
144352  1  0
145353  1  0
145354  1  0
146355  1  0
146356  1  0
146357  1  0
149358  1  0
150359  1  1
151360  1  0
151361  1  0
152362  1  0
152363  1  0
154364  1  0
154365  1  0
158366  1  0
160367  1  0
160368  1  0
161369  1  0
161370  1  0
162371  1  0
162372  1  0
163373  1  0
164374  1  0
164375  1  0
164376  1  0
167377  1  0
168378  1  6
169379  1  6
170380  1  0
171381  1  0
171382  1  0
171383  1  0
174384  1  0
175385  1  1
176386  1  0
176387  1  0
177388  1  0
177389  1  0
177390  1  0
180391  1  0
181392  1  6
182393  1  0
182394  1  0
183395  1  0
183396  1  0
184397  1  0
184398  1  0
185399  1  0
187400  1  0
187401  1  0
188402  1  0
188403  1  0
191404  1  0
192405  1  1
193406  1  0
193407  1  0
194408  1  0
194409  1  0
200410  1  0
201411  1  6
202412  1  0
202413  1  0
203414  1  0
203415  1  0
205416  1  0
205417  1  0
M  CHG  7  18  -1  27  -1  55  -1 124  -1 187   1 197  -1 209  -1
M  END
