
     RDKit          2D

231239  0  0  0  0  0  0  0  0999 V2000
  -16.1925   -2.0997    0.0000 C   0  0  0  0  0  0  0  0  0  0  0  0
  -16.5332   -3.5606    0.0000 N   0  0  0  0  0  0  0  0  0  0  0  0
  -17.9686   -3.9960    0.0000 C   0  0  0  0  0  0  0  0  0  0  0  0
  -19.0634   -2.9706    0.0000 C   0  0  0  0  0  0  0  0  0  0  0  0
  -20.4988   -3.4060    0.0000 C   0  0  0  0  0  0  0  0  0  0  0  0
  -20.8394   -4.8668    0.0000 C   0  0  0  0  0  0  0  0  0  0  0  0
  -19.7446   -5.8922    0.0000 C   0  0  0  0  0  0  0  0  0  0  0  0
  -18.3092   -5.4568    0.0000 C   0  0  0  0  0  0  0  0  0  0  0  0
  -20.3815   -7.2503    0.0000 C   0  0  0  0  0  0  0  0  0  0  0  0
  -21.8699   -7.0642    0.0000 O   0  0  0  0  0  0  0  0  0  0  0  0
  -22.1529   -5.5912    0.0000 C   0  0  0  0  0  0  0  0  0  0  0  0
  -23.5110   -4.9543    0.0000 O   0  0  0  0  0  0  0  0  0  0  0  0
  -21.1569   -8.5344    0.0000 C   0  0  0  0  0  0  0  0  0  0  0  0
  -20.4325   -9.8479    0.0000 C   0  0  0  0  0  0  0  0  0  0  0  0
  -21.2079  -11.1319    0.0000 C   0  0  0  0  0  0  0  0  0  0  0  0
  -22.7076  -11.1025    0.0000 C   0  0  0  0  0  0  0  0  0  0  0  0
  -23.4319   -9.7890    0.0000 C   0  0  0  0  0  0  0  0  0  0  0  0
  -22.6566   -8.5049    0.0000 C   0  0  0  0  0  0  0  0  0  0  0  0
  -23.4829  -12.3865    0.0000 O   0  0  0  0  0  0  0  0  0  0  0  0
  -18.9328   -9.8773    0.0000 O   0  0  0  0  0  0  0  0  0  0  0  0
  -18.1574   -8.5933    0.0000 C   0  0  0  0  0  0  0  0  0  0  0  0
  -18.8818   -7.2798    0.0000 C   0  0  0  0  0  0  0  0  0  0  0  0
  -17.7684   -6.6087    0.0000 C   0  0  0  0  0  0  0  0  0  0  0  0
  -16.9685   -6.6244    0.0000 C   0  0  0  0  0  0  0  0  0  0  0  0
  -16.5822   -7.3249    0.0000 C   0  0  0  0  0  0  0  0  0  0  0  0
  -16.9957   -8.0097    0.0000 C   0  0  0  0  0  0  0  0  0  0  0  0
  -14.3826   -7.3681    0.0000 O   0  0  0  0  0  0  0  0  0  0  0  0
  -17.2873   -1.0744    0.0000 S   0  0  0  0  0  0  0  0  0  0  0  0
  -14.7571   -1.6643    0.0000 N   0  0  0  0  0  0  0  0  0  0  0  0
  -14.4165   -0.2035    0.0000 C   0  0  0  0  0  0  0  0  0  0  0  0
  -12.9811    0.2319    0.0000 C   0  0  0  0  0  0  0  0  0  0  0  0
  -12.6405    1.6927    0.0000 C   0  0  0  0  0  0  0  0  0  0  0  0
  -13.3369    2.0807    0.0000 O   0  0  0  0  0  0  0  0  0  0  0  0
  -11.2051    2.1282    0.0000 N   0  0  0  0  0  0  0  0  0  0  0  0
  -10.8645    3.5890    0.0000 C   0  0  0  0  0  0  0  0  0  0  0  0
  -12.3622    3.6707    0.0000 C   0  0  0  0  0  0  0  0  0  0  0  0
  -13.1819    2.4145    0.0000 C   0  0  0  0  0  0  0  0  0  0  0  0
  -14.6797    2.4963    0.0000 C   0  0  0  0  0  0  0  0  0  0  0  0
  -15.6464    1.3494    0.0000 N   0  0  0  0  0  0  0  0  0  0  0  0
  -15.3578    3.8343    0.0000 O   0  0  0  0  0  0  0  0  0  0  0  0
  -10.0447    4.8452    0.0000 C   0  0  0  0  0  0  0  0  0  0  0  0
  -11.0264    5.9793    0.0000 O   0  0  0  0  0  0  0  0  0  0  0  0
   -8.5470    4.7634    0.0000 N   0  0  0  0  0  0  0  0  0  0  0  0
   -7.7273    6.0196    0.0000 C   0  0  0  0  0  0  0  0  0  0  0  0
   -9.1067    6.6087    0.0000 C   0  0  0  0  0  0  0  0  0  0  0  0
  -10.2015    7.6341    0.0000 O   0  0  0  0  0  0  0  0  0  0  0  0
  -10.4074    5.8616    0.0000 C   0  0  0  0  0  0  0  0  0  0  0  0
   -6.5274    6.9197    0.0000 C   0  0  0  0  0  0  0  0  0  0  0  0
   -7.0619    8.3213    0.0000 O   0  0  0  0  0  0  0  0  0  0  0  0
   -5.1479    6.3306    0.0000 N   0  0  0  0  0  0  0  0  0  0  0  0
   -3.9480    7.2307    0.0000 C   0  0  0  0  0  0  0  0  0  0  0  0
   -5.0428    8.2561    0.0000 C   0  0  0  0  0  0  0  0  0  0  0  0
   -6.4782    7.8207    0.0000 C   0  0  0  0  0  0  0  0  0  0  0  0
   -7.5730    8.8461    0.0000 C   0  0  0  0  0  0  0  0  0  0  0  0
   -9.0084    8.4107    0.0000 C   0  0  0  0  0  0  0  0  0  0  0  0
   -9.3490    6.9499    0.0000 C   0  0  0  0  0  0  0  0  0  0  0  0
   -8.2542    5.9245    0.0000 C   0  0  0  0  0  0  0  0  0  0  0  0
   -6.8188    6.3599    0.0000 C   0  0  0  0  0  0  0  0  0  0  0  0
   -2.5125    7.6662    0.0000 C   0  0  0  0  0  0  0  0  0  0  0  0
   -2.3525    9.1576    0.0000 O   0  0  0  0  0  0  0  0  0  0  0  0
   -1.4178    6.6408    0.0000 N   0  0  0  0  0  0  0  0  0  0  0  0
    0.0177    7.0762    0.0000 C   0  0  0  0  0  0  0  0  0  0  0  0
   -0.6604    8.4142    0.0000 C   0  0  0  0  0  0  0  0  0  0  0  0
   -2.1370    8.6779    0.0000 O   0  0  0  0  0  0  0  0  0  0  0  0
    1.5154    6.9944    0.0000 C   0  0  0  0  0  0  0  0  0  0  0  0
    2.0068    8.4117    0.0000 O   0  0  0  0  0  0  0  0  0  0  0  0
    2.1935    5.6564    0.0000 N   0  0  0  0  0  0  0  0  0  0  0  0
    3.6913    5.5746    0.0000 C   0  0  0  0  0  0  0  0  0  0  0  0
    3.5117    7.0639    0.0000 C   0  0  0  0  0  0  0  0  0  0  0  0
    2.1322    7.6530    0.0000 C   0  0  0  0  0  0  0  0  0  0  0  0
    1.9527    9.1422    0.0000 O   0  0  0  0  0  0  0  0  0  0  0  0
    0.7502    7.0700    0.0000 O   0  0  0  0  0  0  0  0  0  0  0  0
    5.0707    4.9855    0.0000 C   0  0  0  0  0  0  0  0  0  0  0  0
    6.0172    6.1492    0.0000 O   0  0  0  0  0  0  0  0  0  0  0  0
    5.2503    3.4963    0.0000 N   0  0  0  0  0  0  0  0  0  0  0  0
    6.6298    2.9072    0.0000 C   0  0  0  0  0  0  0  0  0  0  0  0
    6.6914    4.4059    0.0000 C   0  0  0  0  0  0  0  0  0  0  0  0
    7.4425    5.7044    0.0000 C   0  0  0  0  0  0  0  0  0  0  0  0
    8.7110    6.5050    0.0000 C   0  0  0  0  0  0  0  0  0  0  0  0
   10.2062    6.6244    0.0000 C   0  0  0  0  0  0  0  0  0  0  0  0
    5.5898    1.8263    0.0000 C   0  0  0  0  0  0  0  0  0  0  0  0
    7.2717    1.5515    0.0000 C   0  0  0  0  0  0  0  0  0  0  0  0
    6.2331    0.4691    0.0000 O   0  0  0  0  0  0  0  0  0  0  0  0
    8.4701    0.6494    0.0000 N   0  0  0  0  0  0  0  0  0  0  0  0
    9.9504    0.4075    0.0000 C   0  0  0  0  0  0  0  0  0  0  0  0
   10.8836    1.5819    0.0000 C   0  0  0  0  0  0  0  0  0  0  0  0
   12.2340    2.2350    0.0000 C   0  0  0  0  0  0  0  0  0  0  0  0
   11.0832    3.1972    0.0000 C   0  0  0  0  0  0  0  0  0  0  0  0
   10.8202    4.6740    0.0000 N   0  0  0  0  0  0  0  0  0  0  0  0
   11.5680    5.9743    0.0000 C   0  0  0  0  0  0  0  0  0  0  0  0
   12.9766    6.4898    0.0000 C   0  0  0  0  0  0  0  0  0  0  0  0
   14.3870    5.9792    0.0000 C   0  0  0  0  0  0  0  0  0  0  0  0
   15.1393    4.6815    0.0000 C   0  0  0  0  0  0  0  0  0  0  0  0
   14.8814    3.2038    0.0000 C   0  0  0  0  0  0  0  0  0  0  0  0
   13.7340    2.2376    0.0000 C   0  0  0  0  0  0  0  0  0  0  0  0
    9.6192   -1.0555    0.0000 C   0  0  0  0  0  0  0  0  0  0  0  0
    8.1307   -1.2409    0.0000 O   0  0  0  0  0  0  0  0  0  0  0  0
    9.9555   -2.5173    0.0000 N   0  0  0  0  0  0  0  0  0  0  0  0
   10.8928   -3.6884    0.0000 C   0  0  0  0  0  0  0  0  0  0  0  0
   10.7833   -5.1844    0.0000 C   0  0  0  0  0  0  0  0  0  0  0  0
    9.4329   -5.8376    0.0000 C   0  0  0  0  0  0  0  0  0  0  0  0
    9.3234   -7.3336    0.0000 C   0  0  0  0  0  0  0  0  0  0  0  0
    7.9731   -7.9867    0.0000 C   0  0  0  0  0  0  0  0  0  0  0  0
    7.8636   -9.4827    0.0000 N   0  0  0  0  0  0  0  0  0  0  0  0
   12.2453   -4.3369    0.0000 C   0  0  0  0  0  0  0  0  0  0  0  0
   12.0949   -5.8293    0.0000 O   0  0  0  0  0  0  0  0  0  0  0  0
   13.7453   -4.3343    0.0000 N   0  0  0  0  0  0  0  0  0  0  0  0
   15.0957   -3.6811    0.0000 C   0  0  0  0  0  0  0  0  0  0  0  0
   16.0289   -2.5068    0.0000 C   0  0  0  0  0  0  0  0  0  0  0  0
   16.3601   -1.0438    0.0000 C   0  0  0  0  0  0  0  0  0  0  0  0
   16.0238    0.4180    0.0000 C   0  0  0  0  0  0  0  0  0  0  0  0
   15.0865    1.5891    0.0000 C   0  0  0  0  0  0  0  0  0  0  0  0
   15.2103   -5.1767    0.0000 C   0  0  0  0  0  0  0  0  0  0  0  0
   16.5298   -4.1208    0.0000 C   0  0  0  0  0  0  0  0  0  0  0  0
   17.7440   -3.2401    0.0000 O   0  0  0  0  0  0  0  0  0  0  0  0
   16.8661   -5.5826    0.0000 N   0  0  0  0  0  0  0  0  0  0  0  0
   18.3002   -6.0222    0.0000 C   0  0  0  0  0  0  0  0  0  0  0  0
   19.7982   -5.9449    0.0000 C   0  0  0  0  0  0  0  0  0  0  0  0
   20.6142   -7.2035    0.0000 C   0  0  0  0  0  0  0  0  0  0  0  0
   22.1122   -7.1262    0.0000 C   0  0  0  0  0  0  0  0  0  0  0  0
   20.9505   -8.6653    0.0000 C   0  0  0  0  0  0  0  0  0  0  0  0
   18.6365   -7.4841    0.0000 C   0  0  0  0  0  0  0  0  0  0  0  0
   20.0064   -8.0952    0.0000 O   0  0  0  0  0  0  0  0  0  0  0  0
   17.5387   -8.5062    0.0000 O   0  0  0  0  0  0  0  0  0  0  0  0
  -15.3215   -4.4449    0.0000 H   0  0  0  0  0  0  0  0  0  0  0  0
  -18.7227   -1.5098    0.0000 H   0  0  0  0  0  0  0  0  0  0  0  0
  -21.5936   -2.3806    0.0000 H   0  0  0  0  0  0  0  0  0  0  0  0
  -16.9988   -6.1868    0.0000 H   0  0  0  0  0  0  0  0  0  0  0  0
  -20.4835  -12.4454    0.0000 H   0  0  0  0  0  0  0  0  0  0  0  0
  -24.9316   -9.7595    0.0000 H   0  0  0  0  0  0  0  0  0  0  0  0
  -23.3809   -7.1914    0.0000 H   0  0  0  0  0  0  0  0  0  0  0  0
  -24.9827  -12.3571    0.0000 H   0  0  0  0  0  0  0  0  0  0  0  0
  -18.8308   -4.6822    0.0000 H   0  0  0  0  0  0  0  0  0  0  0  0
  -15.6806   -4.8452    0.0000 H   0  0  0  0  0  0  0  0  0  0  0  0
  -15.9334   -9.9362    0.0000 H   0  0  0  0  0  0  0  0  0  0  0  0
  -13.6583   -8.6816    0.0000 H   0  0  0  0  0  0  0  0  0  0  0  0
  -13.6623   -2.6897    0.0000 H   0  0  0  0  0  0  0  0  0  0  0  0
  -15.9143   -0.1217    0.0000 H   0  0  0  0  0  0  0  0  0  0  0  0
  -14.7763    1.2527    0.0000 H   0  0  0  0  0  0  0  0  0  0  0  0
  -12.8015   -1.2573    0.0000 H   0  0  0  0  0  0  0  0  0  0  0  0
  -11.4833    0.1501    0.0000 H   0  0  0  0  0  0  0  0  0  0  0  0
  -10.1103    1.1028    0.0000 H   0  0  0  0  0  0  0  0  0  0  0  0
   -9.4850    2.9999    0.0000 H   0  0  0  0  0  0  0  0  0  0  0  0
  -13.7417    4.2599    0.0000 H   0  0  0  0  0  0  0  0  0  0  0  0
  -12.0216    5.1316    0.0000 H   0  0  0  0  0  0  0  0  0  0  0  0
  -13.5225    0.9537    0.0000 H   0  0  0  0  0  0  0  0  0  0  0  0
  -11.9860    1.5091    0.0000 H   0  0  0  0  0  0  0  0  0  0  0  0
  -16.9972    1.3219    0.0000 H   0  0  0  0  0  0  0  0  0  0  0  0
  -15.1961   -0.2546    0.0000 H   0  0  0  0  0  0  0  0  0  0  0  0
   -7.8689    3.4254    0.0000 H   0  0  0  0  0  0  0  0  0  0  0  0
   -6.6325    4.9942    0.0000 H   0  0  0  0  0  0  0  0  0  0  0  0
   -8.2870    7.8650    0.0000 H   0  0  0  0  0  0  0  0  0  0  0  0
  -11.6793    7.3769    0.0000 H   0  0  0  0  0  0  0  0  0  0  0  0
  -11.7298    6.1386    0.0000 H   0  0  0  0  0  0  0  0  0  0  0  0
  -11.1264    4.4524    0.0000 H   0  0  0  0  0  0  0  0  0  0  0  0
   -9.7137    4.3330    0.0000 H   0  0  0  0  0  0  0  0  0  0  0  0
   -4.7881    4.8744    0.0000 H   0  0  0  0  0  0  0  0  0  0  0  0
   -3.2699    5.8927    0.0000 H   0  0  0  0  0  0  0  0  0  0  0  0
   -5.7208    9.5941    0.0000 H   0  0  0  0  0  0  0  0  0  0  0  0
   -3.8428    9.1562    0.0000 H   0  0  0  0  0  0  0  0  0  0  0  0
   -7.2323   10.3069    0.0000 H   0  0  0  0  0  0  0  0  0  0  0  0
  -10.1032    9.4361    0.0000 H   0  0  0  0  0  0  0  0  0  0  0  0
  -10.8268    6.6926    0.0000 H   0  0  0  0  0  0  0  0  0  0  0  0
   -8.7703    4.5161    0.0000 H   0  0  0  0  0  0  0  0  0  0  0  0
   -5.8571    5.2087    0.0000 H   0  0  0  0  0  0  0  0  0  0  0  0
   -1.7584    5.1800    0.0000 H   0  0  0  0  0  0  0  0  0  0  0  0
    0.1972    5.5870    0.0000 H   0  0  0  0  0  0  0  0  0  0  0  0
   -0.8400    9.9034    0.0000 H   0  0  0  0  0  0  0  0  0  0  0  0
    0.7750    8.8496    0.0000 H   0  0  0  0  0  0  0  0  0  0  0  0
   -2.8362    9.8340    0.0000 H   0  0  0  0  0  0  0  0  0  0  0  0
    1.3738    4.4002    0.0000 H   0  0  0  0  0  0  0  0  0  0  0  0
    3.3506    4.1138    0.0000 H   0  0  0  0  0  0  0  0  0  0  0  0
    3.8523    8.5247    0.0000 H   0  0  0  0  0  0  0  0  0  0  0  0
    5.0095    6.9821    0.0000 H   0  0  0  0  0  0  0  0  0  0  0  0
   -0.4774    7.0442    0.0000 H   0  0  0  0  0  0  0  0  0  0  0  0
    3.9496    2.7492    0.0000 H   0  0  0  0  0  0  0  0  0  0  0  0
    5.1959    4.2906    0.0000 H   0  0  0  0  0  0  0  0  0  0  0  0
    5.7437    5.5686    0.0000 H   0  0  0  0  0  0  0  0  0  0  0  0
    6.0647    6.2972    0.0000 H   0  0  0  0  0  0  0  0  0  0  0  0
    6.9668    7.1269    0.0000 H   0  0  0  0  0  0  0  0  0  0  0  0
    7.6315    7.5465    0.0000 H   0  0  0  0  0  0  0  0  0  0  0  0
    9.1295    7.9454    0.0000 H   0  0  0  0  0  0  0  0  0  0  0  0
   10.4481    8.1048    0.0000 H   0  0  0  0  0  0  0  0  0  0  0  0
    4.1006    2.0063    0.0000 H   0  0  0  0  0  0  0  0  0  0  0  0
    4.9822    0.4548    0.0000 H   0  0  0  0  0  0  0  0  0  0  0  0
    6.4523    0.5991    0.0000 H   0  0  0  0  0  0  0  0  0  0  0  0
    7.7172   -0.6480    0.0000 H   0  0  0  0  0  0  0  0  0  0  0  0
    8.4811    0.7094    0.0000 H   0  0  0  0  0  0  0  0  0  0  0  0
    9.4066    1.8434    0.0000 H   0  0  0  0  0  0  0  0  0  0  0  0
   10.4105    3.0053    0.0000 H   0  0  0  0  0  0  0  0  0  0  0  0
    9.7035    2.6088    0.0000 H   0  0  0  0  0  0  0  0  0  0  0  0
    9.3426    4.9319    0.0000 H   0  0  0  0  0  0  0  0  0  0  0  0
   12.9740    7.9898    0.0000 H   0  0  0  0  0  0  0  0  0  0  0  0
   15.3492    7.1299    0.0000 H   0  0  0  0  0  0  0  0  0  0  0  0
   16.6160    4.9445    0.0000 H   0  0  0  0  0  0  0  0  0  0  0  0
   16.2632    2.6201    0.0000 H   0  0  0  0  0  0  0  0  0  0  0  0
    8.6052   -3.1704    0.0000 H   0  0  0  0  0  0  0  0  0  0  0  0
    9.4167   -3.9551    0.0000 H   0  0  0  0  0  0  0  0  0  0  0  0
   11.3649   -6.5670    0.0000 H   0  0  0  0  0  0  0  0  0  0  0  0
   12.2308   -5.5775    0.0000 H   0  0  0  0  0  0  0  0  0  0  0  0
    7.9333   -5.8065    0.0000 H   0  0  0  0  0  0  0  0  0  0  0  0
    8.8513   -4.4549    0.0000 H   0  0  0  0  0  0  0  0  0  0  0  0
    9.7322   -8.7768    0.0000 H   0  0  0  0  0  0  0  0  0  0  0  0
   10.8231   -7.3647    0.0000 H   0  0  0  0  0  0  0  0  0  0  0  0
    6.4808   -8.1386    0.0000 H   0  0  0  0  0  0  0  0  0  0  0  0
    7.3915   -6.6041    0.0000 H   0  0  0  0  0  0  0  0  0  0  0  0
    6.5133  -10.1359    0.0000 H   0  0  0  0  0  0  0  0  0  0  0  0
    9.1044  -10.3255    0.0000 H   0  0  0  0  0  0  0  0  0  0  0  0
   13.9010   -5.8262    0.0000 H   0  0  0  0  0  0  0  0  0  0  0  0
   17.5117   -2.2806    0.0000 H   0  0  0  0  0  0  0  0  0  0  0  0
   17.0728   -3.5839    0.0000 H   0  0  0  0  0  0  0  0  0  0  0  0
   17.6920   -0.3539    0.0000 H   0  0  0  0  0  0  0  0  0  0  0  0
   17.6944   -1.7291    0.0000 H   0  0  0  0  0  0  0  0  0  0  0  0
   16.7716    1.7184    0.0000 H   0  0  0  0  0  0  0  0  0  0  0  0
   17.5233    0.3795    0.0000 H   0  0  0  0  0  0  0  0  0  0  0  0
   16.1559    2.6410    0.0000 H   0  0  0  0  0  0  0  0  0  0  0  0
   16.3658   -6.1332    0.0000 H   0  0  0  0  0  0  0  0  0  0  0  0
   14.8066   -6.6214    0.0000 H   0  0  0  0  0  0  0  0  0  0  0  0
   13.7641   -5.5748    0.0000 H   0  0  0  0  0  0  0  0  0  0  0  0
   15.7683   -6.6047    0.0000 H   0  0  0  0  0  0  0  0  0  0  0  0
   18.4842   -4.5336    0.0000 H   0  0  0  0  0  0  0  0  0  0  0  0
   21.0978   -5.1958    0.0000 H   0  0  0  0  0  0  0  0  0  0  0  0
   19.4619   -4.4831    0.0000 H   0  0  0  0  0  0  0  0  0  0  0  0
   19.5345   -8.2448    0.0000 H   0  0  0  0  0  0  0  0  0  0  0  0
   23.0756   -8.2759    0.0000 H   0  0  0  0  0  0  0  0  0  0  0  0
   23.4934   -6.5411    0.0000 H   0  0  0  0  0  0  0  0  0  0  0  0
   21.9566   -5.6342    0.0000 H   0  0  0  0  0  0  0  0  0  0  0  0
   22.3204   -9.2765    0.0000 H   0  0  0  0  0  0  0  0  0  0  0  0
   20.7666  -10.1540    0.0000 H   0  0  0  0  0  0  0  0  0  0  0  0
   19.4525   -8.7427    0.0000 H   0  0  0  0  0  0  0  0  0  0  0  0
   17.8750   -9.9680    0.0000 H   0  0  0  0  0  0  0  0  0  0  0  0
  1  2  1  0
  2  3  1  0
  3  4  2  0
  4  5  1  0
  5  6  2  0
  6  7  1  0
  7  8  2  0
  7  9  1  0
  9 10  1  0
 10 11  1  0
 11 12  2  0
  9 13  1  0
 13 14  1  0
 14 15  2  0
 15 16  1  0
 16 17  2  0
 17 18  1  0
 16 19  1  0
 14 20  1  0
 20 21  1  0
 21 22  2  0
 22 23  1  0
 23 24  2  0
 24 25  1  0
 25 26  2  0
 25 27  1  0
  1 28  2  0
  1 29  1  0
 29 30  1  0
 30 31  1  0
 31 32  1  0
 32 33  2  0
 32 34  1  0
 34 35  1  0
 35 36  1  0
 36 37  1  0
 37 38  1  0
 38 39  1  0
 38 40  2  0
 35 41  1  0
 41 42  2  0
 41 43  1  0
 43 44  1  0
 44 45  1  0
 45 46  1  0
 45 47  1  0
 44 48  1  0
 48 49  2  0
 48 50  1  0
 50 51  1  0
 51 52  1  0
 52 53  1  0
 53 54  2  0
 54 55  1  0
 55 56  2  0
 56 57  1  0
 57 58  2  0
 51 59  1  0
 59 60  2  0
 59 61  1  0
 61 62  1  0
 62 63  1  0
 63 64  1  0
 62 65  1  0
 65 66  2  0
 65 67  1  0
 67 68  1  0
 68 69  1  0
 69 70  1  0
 70 71  2  0
 70 72  1  0
 68 73  1  0
 73 74  2  0
 73 75  1  0
 76 75  1  6
 76 77  1  0
 77 78  1  0
 78 79  1  0
 79 80  1  0
 76 81  1  0
 76 82  1  0
 82 83  2  0
 82 84  1  0
 84 85  1  0
 85 86  1  0
 86 87  1  0
 87 88  2  0
 88 89  1  0
 89 90  1  0
 90 91  1  0
 91 92  2  0
 92 93  1  0
 93 94  2  0
 94 95  1  0
 85 96  1  0
 96 97  2  0
 96 98  1  0
 98 99  1  0
 99100  1  0
100101  1  0
101102  1  0
102103  1  0
103104  1  0
 99105  1  0
105106  2  0
105107  1  0
107108  1  0
108109  1  0
109110  1  0
110111  1  0
111112  1  0
108113  1  0
108114  1  1
114115  2  0
114116  1  0
116117  1  0
117118  1  0
118119  1  0
119120  1  0
119121  1  0
117122  1  0
122123  2  0
122124  1  0
  8  3  1  0
 58 53  1  0
 95 87  1  0
 11  6  1  0
 80 90  2  0
112 95  2  0
 18 13  2  0
 22  9  1  0
 26 21  1  0
  2125  1  0
  4126  1  0
  5127  1  0
  8128  1  0
 15129  1  0
 17130  1  0
 18131  1  0
 19132  1  0
 23133  1  0
 24134  1  0
 26135  1  0
 27136  1  0
 29137  1  0
 30138  1  0
 30139  1  0
 31140  1  0
 31141  1  0
 34142  1  0
 35143  1  1
 36144  1  0
 36145  1  0
 37146  1  0
 37147  1  0
 39148  1  0
 39149  1  0
 43150  1  0
 44151  1  1
 45152  1  6
 46153  1  0
 47154  1  0
 47155  1  0
 47156  1  0
 50157  1  0
 51158  1  1
 52159  1  0
 52160  1  0
 54161  1  0
 55162  1  0
 56163  1  0
 57164  1  0
 58165  1  0
 61166  1  0
 62167  1  1
 63168  1  0
 63169  1  0
 64170  1  0
 67171  1  0
 68172  1  1
 69173  1  0
 69174  1  0
 72175  1  0
 75176  1  0
 77177  1  0
 77178  1  0
 78179  1  0
 78180  1  0
 79181  1  0
 79182  1  0
 80183  1  0
 81184  1  0
 81185  1  0
 81186  1  0
 84187  1  0
 85188  1  1
 86189  1  0
 86190  1  0
 88191  1  0
 89192  1  0
 91193  1  0
 92194  1  0
 93195  1  0
 94196  1  0
 98197  1  0
 99198  1  6
100199  1  0
100200  1  0
101201  1  0
101202  1  0
102203  1  0
102204  1  0
103205  1  0
103206  1  0
104207  1  0
104208  1  0
107209  1  0
109210  1  0
109211  1  0
110212  1  0
110213  1  0
111214  1  0
111215  1  0
112216  1  0
113217  1  0
113218  1  0
113219  1  0
116220  1  0
117221  1  1
118222  1  0
118223  1  0
119224  1  0
120225  1  0
120226  1  0
120227  1  0
121228  1  0
121229  1  0
121230  1  0
124231  1  0
M  END
