
     RDKit          2D

301301  0  0  0  0  0  0  0  0999 V2000
  -20.8478    1.0733    0.0000 N   0  0  0  0  0  0  0  0  0  0  0  0
  -19.4684    0.4838    0.0000 C   0  0  0  0  0  0  0  0  0  0  0  0
  -18.2683    1.3835    0.0000 C   0  0  0  0  0  0  0  0  0  0  0  0
  -16.8890    0.7940    0.0000 C   0  0  0  0  0  0  0  0  0  0  0  0
  -16.7098   -0.6952    0.0000 O   0  0  0  0  0  0  0  0  0  0  0  0
  -15.6888    1.6938    0.0000 N   0  0  0  0  0  0  0  0  0  0  0  0
  -14.3095    1.1043    0.0000 C   0  0  0  0  0  0  0  0  0  0  0  0
  -13.9684    2.5650    0.0000 C   0  0  0  0  0  0  0  0  0  0  0  0
  -15.0630    3.5907    0.0000 C   0  0  0  0  0  0  0  0  0  0  0  0
  -14.7219    5.0514    0.0000 C   0  0  0  0  0  0  0  0  0  0  0  0
  -15.8164    6.0771    0.0000 N   0  0  0  0  0  0  0  0  0  0  0  0
  -15.4754    7.5378    0.0000 C   0  0  0  0  0  0  0  0  0  0  0  0
  -16.5699    8.5635    0.0000 N   0  0  0  0  0  0  0  0  0  0  0  0
  -14.0399    7.9729    0.0000 N   0  0  0  0  0  0  0  0  0  0  0  0
  -13.2150    0.0786    0.0000 C   0  0  0  0  0  0  0  0  0  0  0  0
  -11.7794    0.5136    0.0000 O   0  0  0  0  0  0  0  0  0  0  0  0
  -13.5560   -1.3821    0.0000 N   0  0  0  0  0  0  0  0  0  0  0  0
  -12.4615   -2.4078    0.0000 C   0  0  0  0  0  0  0  0  0  0  0  0
  -13.6617   -3.3076    0.0000 C   0  0  0  0  0  0  0  0  0  0  0  0
  -15.0410   -2.7181    0.0000 C   0  0  0  0  0  0  0  0  0  0  0  0
  -16.2411   -3.6179    0.0000 C   0  0  0  0  0  0  0  0  0  0  0  0
  -17.6205   -3.0284    0.0000 N   0  0  0  0  0  0  0  0  0  0  0  0
  -18.8206   -3.9281    0.0000 C   0  0  0  0  0  0  0  0  0  0  0  0
  -20.1999   -3.3386    0.0000 N   0  0  0  0  0  0  0  0  0  0  0  0
  -18.6415   -5.4174    0.0000 N   0  0  0  0  0  0  0  0  0  0  0  0
  -11.0822   -2.9973    0.0000 C   0  0  0  0  0  0  0  0  0  0  0  0
  -11.0859   -4.4973    0.0000 O   0  0  0  0  0  0  0  0  0  0  0  0
   -9.8820   -2.0975    0.0000 N   0  0  0  0  0  0  0  0  0  0  0  0
   -8.5027   -2.6870    0.0000 C   0  0  0  0  0  0  0  0  0  0  0  0
   -9.3228   -3.9430    0.0000 C   0  0  0  0  0  0  0  0  0  0  0  0
   -8.6451   -5.2812    0.0000 C   0  0  0  0  0  0  0  0  0  0  0  0
   -9.4651   -6.5372    0.0000 C   0  0  0  0  0  0  0  0  0  0  0  0
   -8.7874   -7.8754    0.0000 N   0  0  0  0  0  0  0  0  0  0  0  0
   -9.6075   -9.1314    0.0000 C   0  0  0  0  0  0  0  0  0  0  0  0
   -8.9298  -10.4696    0.0000 N   0  0  0  0  0  0  0  0  0  0  0  0
  -11.1052   -9.0492    0.0000 N   0  0  0  0  0  0  0  0  0  0  0  0
   -7.0050   -2.7692    0.0000 C   0  0  0  0  0  0  0  0  0  0  0  0
   -6.3273   -4.1074    0.0000 O   0  0  0  0  0  0  0  0  0  0  0  0
   -6.1849   -1.5133    0.0000 N   0  0  0  0  0  0  0  0  0  0  0  0
   -4.6871   -1.5954    0.0000 C   0  0  0  0  0  0  0  0  0  0  0  0
   -4.8663   -0.1062    0.0000 C   0  0  0  0  0  0  0  0  0  0  0  0
   -6.2456    0.4833    0.0000 C   0  0  0  0  0  0  0  0  0  0  0  0
   -6.4247    1.9726    0.0000 C   0  0  0  0  0  0  0  0  0  0  0  0
   -7.8040    2.5621    0.0000 N   0  0  0  0  0  0  0  0  0  0  0  0
   -7.9832    4.0513    0.0000 C   0  0  0  0  0  0  0  0  0  0  0  0
   -9.3625    4.6408    0.0000 N   0  0  0  0  0  0  0  0  0  0  0  0
   -6.7830    4.9511    0.0000 N   0  0  0  0  0  0  0  0  0  0  0  0
   -3.3078   -2.1849    0.0000 C   0  0  0  0  0  0  0  0  0  0  0  0
   -2.2263   -1.1456    0.0000 O   0  0  0  0  0  0  0  0  0  0  0  0
   -3.1287   -3.6742    0.0000 N   0  0  0  0  0  0  0  0  0  0  0  0
   -1.7494   -4.2637    0.0000 C   0  0  0  0  0  0  0  0  0  0  0  0
   -1.3832   -5.7183    0.0000 C   0  0  0  0  0  0  0  0  0  0  0  0
   -0.7483   -7.0773    0.0000 C   0  0  0  0  0  0  0  0  0  0  0  0
    0.1323   -8.2916    0.0000 C   0  0  0  0  0  0  0  0  0  0  0  0
    1.2268   -9.3173    0.0000 C   0  0  0  0  0  0  0  0  0  0  0  0
   -3.0003   -5.0915    0.0000 C   0  0  0  0  0  0  0  0  0  0  0  0
   -1.8337   -2.7661    0.0000 C   0  0  0  0  0  0  0  0  0  0  0  0
   -2.5991   -2.5432    0.0000 O   0  0  0  0  0  0  0  0  0  0  0  0
   -1.6331   -1.2796    0.0000 N   0  0  0  0  0  0  0  0  0  0  0  0
   -1.1548    0.1421    0.0000 C   0  0  0  0  0  0  0  0  0  0  0  0
   -2.6410   -0.0606    0.0000 C   0  0  0  0  0  0  0  0  0  0  0  0
   -3.5597    1.1251    0.0000 C   0  0  0  0  0  0  0  0  0  0  0  0
   -5.0459    0.9224    0.0000 C   0  0  0  0  0  0  0  0  0  0  0  0
   -5.9646    2.1081    0.0000 N   0  0  0  0  0  0  0  0  0  0  0  0
   -7.4509    1.9054    0.0000 C   0  0  0  0  0  0  0  0  0  0  0  0
   -8.6292    2.8336    0.0000 N   0  0  0  0  0  0  0  0  0  0  0  0
   -8.1834    0.5965    0.0000 N   0  0  0  0  0  0  0  0  0  0  0  0
   -0.4160    1.4476    0.0000 C   0  0  0  0  0  0  0  0  0  0  0  0
   -1.5314    2.4505    0.0000 O   0  0  0  0  0  0  0  0  0  0  0  0
    0.5565    2.5897    0.0000 N   0  0  0  0  0  0  0  0  0  0  0  0
    1.7275    3.5271    0.0000 C   0  0  0  0  0  0  0  0  0  0  0  0
    0.3676    4.1600    0.0000 C   0  0  0  0  0  0  0  0  0  0  0  0
    0.2358    5.6542    0.0000 C   0  0  0  0  0  0  0  0  0  0  0  0
   -1.1241    6.2872    0.0000 C   0  0  0  0  0  0  0  0  0  0  0  0
   -1.2559    7.7814    0.0000 N   0  0  0  0  0  0  0  0  0  0  0  0
   -2.6158    8.4144    0.0000 C   0  0  0  0  0  0  0  0  0  0  0  0
   -2.7476    9.9086    0.0000 N   0  0  0  0  0  0  0  0  0  0  0  0
   -3.8440    7.5531    0.0000 N   0  0  0  0  0  0  0  0  0  0  0  0
    3.0547    4.2259    0.0000 C   0  0  0  0  0  0  0  0  0  0  0  0
    2.6586    5.6727    0.0000 O   0  0  0  0  0  0  0  0  0  0  0  0
    4.4903    4.6609    0.0000 N   0  0  0  0  0  0  0  0  0  0  0  0
    5.9822    4.8164    0.0000 C   0  0  0  0  0  0  0  0  0  0  0  0
    5.1804    6.0841    0.0000 C   0  0  0  0  0  0  0  0  0  0  0  0
    5.8773    7.4124    0.0000 C   0  0  0  0  0  0  0  0  0  0  0  0
    5.0755    8.6801    0.0000 C   0  0  0  0  0  0  0  0  0  0  0  0
    5.7724   10.0083    0.0000 N   0  0  0  0  0  0  0  0  0  0  0  0
    4.9706   11.2760    0.0000 C   0  0  0  0  0  0  0  0  0  0  0  0
    5.6676   12.6043    0.0000 N   0  0  0  0  0  0  0  0  0  0  0  0
    3.4718   11.2155    0.0000 N   0  0  0  0  0  0  0  0  0  0  0  0
    7.4766    4.6867    0.0000 C   0  0  0  0  0  0  0  0  0  0  0  0
    7.9255    6.1180    0.0000 O   0  0  0  0  0  0  0  0  0  0  0  0
    8.9194    4.2766    0.0000 N   0  0  0  0  0  0  0  0  0  0  0  0
   10.2586    3.6008    0.0000 C   0  0  0  0  0  0  0  0  0  0  0  0
   10.2694    5.1008    0.0000 C   0  0  0  0  0  0  0  0  0  0  0  0
   11.5738    5.8414    0.0000 C   0  0  0  0  0  0  0  0  0  0  0  0
   11.5847    7.3413    0.0000 C   0  0  0  0  0  0  0  0  0  0  0  0
   12.8891    8.0819    0.0000 N   0  0  0  0  0  0  0  0  0  0  0  0
   12.8999    9.5819    0.0000 C   0  0  0  0  0  0  0  0  0  0  0  0
   14.2043   10.3225    0.0000 N   0  0  0  0  0  0  0  0  0  0  0  0
   11.6063   10.3412    0.0000 N   0  0  0  0  0  0  0  0  0  0  0  0
   11.4456    2.6838    0.0000 C   0  0  0  0  0  0  0  0  0  0  0  0
   12.5971    3.6451    0.0000 O   0  0  0  0  0  0  0  0  0  0  0  0
   12.4377    1.5587    0.0000 N   0  0  0  0  0  0  0  0  0  0  0  0
   13.1989    0.2662    0.0000 C   0  0  0  0  0  0  0  0  0  0  0  0
   14.0189    1.5222    0.0000 C   0  0  0  0  0  0  0  0  0  0  0  0
   15.5167    1.4400    0.0000 C   0  0  0  0  0  0  0  0  0  0  0  0
   16.3367    2.6960    0.0000 C   0  0  0  0  0  0  0  0  0  0  0  0
   17.8345    2.6138    0.0000 N   0  0  0  0  0  0  0  0  0  0  0  0
   18.6545    3.8698    0.0000 C   0  0  0  0  0  0  0  0  0  0  0  0
   20.1523    3.7876    0.0000 N   0  0  0  0  0  0  0  0  0  0  0  0
   17.9768    5.2080    0.0000 N   0  0  0  0  0  0  0  0  0  0  0  0
   13.7017   -1.1470    0.0000 C   0  0  0  0  0  0  0  0  0  0  0  0
   15.1901   -0.9608    0.0000 O   0  0  0  0  0  0  0  0  0  0  0  0
   13.9280   -2.6299    0.0000 N   0  0  0  0  0  0  0  0  0  0  0  0
   13.8696   -4.1287    0.0000 C   0  0  0  0  0  0  0  0  0  0  0  0
   15.2385   -3.5155    0.0000 C   0  0  0  0  0  0  0  0  0  0  0  0
   16.4540   -4.3944    0.0000 C   0  0  0  0  0  0  0  0  0  0  0  0
   17.8229   -3.7811    0.0000 C   0  0  0  0  0  0  0  0  0  0  0  0
   19.0385   -4.6600    0.0000 N   0  0  0  0  0  0  0  0  0  0  0  0
   20.4074   -4.0467    0.0000 C   0  0  0  0  0  0  0  0  0  0  0  0
   21.6229   -4.9256    0.0000 N   0  0  0  0  0  0  0  0  0  0  0  0
   20.5608   -2.5546    0.0000 N   0  0  0  0  0  0  0  0  0  0  0  0
   13.5285   -5.5894    0.0000 C   0  0  0  0  0  0  0  0  0  0  0  0
   14.8813   -6.2375    0.0000 O   0  0  0  0  0  0  0  0  0  0  0  0
   12.9172   -6.9592    0.0000 N   0  0  0  0  0  0  0  0  0  0  0  0
   12.0577   -8.1886    0.0000 C   0  0  0  0  0  0  0  0  0  0  0  0
   10.9811   -9.2330    0.0000 C   0  0  0  0  0  0  0  0  0  0  0  0
    9.7263  -10.0549    0.0000 C   0  0  0  0  0  0  0  0  0  0  0  0
    8.3386  -10.6244    0.0000 C   0  0  0  0  0  0  0  0  0  0  0  0
    6.8682  -10.9210    0.0000 C   0  0  0  0  0  0  0  0  0  0  0  0
    5.3683  -10.9339    0.0000 C   0  0  0  0  0  0  0  0  0  0  0  0
    3.8930  -10.6628    0.0000 C   0  0  0  0  0  0  0  0  0  0  0  0
    2.4957  -10.1173    0.0000 C   0  0  0  0  0  0  0  0  0  0  0  0
   12.6862   -9.5506    0.0000 C   0  0  0  0  0  0  0  0  0  0  0  0
   13.5409   -8.4127    0.0000 C   0  0  0  0  0  0  0  0  0  0  0  0
   14.0883   -9.8093    0.0000 O   0  0  0  0  0  0  0  0  0  0  0  0
   14.6125   -7.3632    0.0000 O   0  0  0  0  0  0  0  0  0  0  0  0
  -22.0479    0.1735    0.0000 H   0  0  0  0  0  0  0  0  0  0  0  0
  -21.0269    2.5625    0.0000 H   0  0  0  0  0  0  0  0  0  0  0  0
  -20.2885   -0.7722    0.0000 H   0  0  0  0  0  0  0  0  0  0  0  0
  -18.3739   -0.5419    0.0000 H   0  0  0  0  0  0  0  0  0  0  0  0
  -19.3628    2.4092    0.0000 H   0  0  0  0  0  0  0  0  0  0  0  0
  -17.4482    2.6395    0.0000 H   0  0  0  0  0  0  0  0  0  0  0  0
  -16.0481    3.1501    0.0000 H   0  0  0  0  0  0  0  0  0  0  0  0
  -15.1295   -0.1517    0.0000 H   0  0  0  0  0  0  0  0  0  0  0  0
  -13.0014    3.7117    0.0000 H   0  0  0  0  0  0  0  0  0  0  0  0
  -12.5891    1.9755    0.0000 H   0  0  0  0  0  0  0  0  0  0  0  0
  -16.4423    4.1802    0.0000 H   0  0  0  0  0  0  0  0  0  0  0  0
  -16.2787    2.7121    0.0000 H   0  0  0  0  0  0  0  0  0  0  0  0
  -13.9019    6.3074    0.0000 H   0  0  0  0  0  0  0  0  0  0  0  0
  -13.2810    4.6345    0.0000 H   0  0  0  0  0  0  0  0  0  0  0  0
  -17.2520    5.6421    0.0000 H   0  0  0  0  0  0  0  0  0  0  0  0
  -16.2289   10.0243    0.0000 H   0  0  0  0  0  0  0  0  0  0  0  0
  -18.0054    8.1285    0.0000 H   0  0  0  0  0  0  0  0  0  0  0  0
  -13.6988    9.4336    0.0000 H   0  0  0  0  0  0  0  0  0  0  0  0
  -12.9454    6.9472    0.0000 H   0  0  0  0  0  0  0  0  0  0  0  0
  -15.0339   -1.6389    0.0000 H   0  0  0  0  0  0  0  0  0  0  0  0
  -11.6414   -1.1518    0.0000 H   0  0  0  0  0  0  0  0  0  0  0  0
  -14.3225   -4.6542    0.0000 H   0  0  0  0  0  0  0  0  0  0  0  0
  -12.5672   -4.3333    0.0000 H   0  0  0  0  0  0  0  0  0  0  0  0
  -16.1355   -1.6924    0.0000 H   0  0  0  0  0  0  0  0  0  0  0  0
  -14.7256   -1.2516    0.0000 H   0  0  0  0  0  0  0  0  0  0  0  0
  -17.0612   -4.8738    0.0000 H   0  0  0  0  0  0  0  0  0  0  0  0
  -15.2798   -4.7693    0.0000 H   0  0  0  0  0  0  0  0  0  0  0  0
  -17.7996   -1.5391    0.0000 H   0  0  0  0  0  0  0  0  0  0  0  0
  -21.4001   -4.2384    0.0000 H   0  0  0  0  0  0  0  0  0  0  0  0
  -20.3791   -1.8494    0.0000 H   0  0  0  0  0  0  0  0  0  0  0  0
  -19.8417   -6.3172    0.0000 H   0  0  0  0  0  0  0  0  0  0  0  0
  -17.2622   -6.0069    0.0000 H   0  0  0  0  0  0  0  0  0  0  0  0
  -10.0611   -0.6083    0.0000 H   0  0  0  0  0  0  0  0  0  0  0  0
   -8.1617   -1.2263    0.0000 H   0  0  0  0  0  0  0  0  0  0  0  0
  -10.5229   -4.8428    0.0000 H   0  0  0  0  0  0  0  0  0  0  0  0
  -10.6329   -3.2127    0.0000 H   0  0  0  0  0  0  0  0  0  0  0  0
   -7.5506   -6.3069    0.0000 H   0  0  0  0  0  0  0  0  0  0  0  0
   -7.4449   -4.3814    0.0000 H   0  0  0  0  0  0  0  0  0  0  0  0
  -10.6653   -7.4370    0.0000 H   0  0  0  0  0  0  0  0  0  0  0  0
  -10.6765   -5.6526    0.0000 H   0  0  0  0  0  0  0  0  0  0  0  0
   -7.2897   -7.9576    0.0000 H   0  0  0  0  0  0  0  0  0  0  0  0
   -9.7498  -11.7256    0.0000 H   0  0  0  0  0  0  0  0  0  0  0  0
   -7.4320  -10.5518    0.0000 H   0  0  0  0  0  0  0  0  0  0  0  0
  -11.9253  -10.3052    0.0000 H   0  0  0  0  0  0  0  0  0  0  0  0
  -11.7829   -7.7110    0.0000 H   0  0  0  0  0  0  0  0  0  0  0  0
   -7.2972   -0.5069    0.0000 H   0  0  0  0  0  0  0  0  0  0  0  0
   -5.0282   -3.0562    0.0000 H   0  0  0  0  0  0  0  0  0  0  0  0
   -4.7059    1.3852    0.0000 H   0  0  0  0  0  0  0  0  0  0  0  0
   -3.5825   -0.8820    0.0000 H   0  0  0  0  0  0  0  0  0  0  0  0
   -7.7422    0.3823    0.0000 H   0  0  0  0  0  0  0  0  0  0  0  0
   -6.9299   -0.8515    0.0000 H   0  0  0  0  0  0  0  0  0  0  0  0
   -6.2643    3.4640    0.0000 H   0  0  0  0  0  0  0  0  0  0  0  0
   -4.9281    2.0736    0.0000 H   0  0  0  0  0  0  0  0  0  0  0  0
   -9.0042    1.6623    0.0000 H   0  0  0  0  0  0  0  0  0  0  0  0
   -9.5416    6.1301    0.0000 H   0  0  0  0  0  0  0  0  0  0  0  0
  -10.5627    3.7411    0.0000 H   0  0  0  0  0  0  0  0  0  0  0  0
   -6.9621    6.4404    0.0000 H   0  0  0  0  0  0  0  0  0  0  0  0
   -5.3421    4.5341    0.0000 H   0  0  0  0  0  0  0  0  0  0  0  0
   -4.4296   -4.4210    0.0000 H   0  0  0  0  0  0  0  0  0  0  0  0
   -2.4548   -6.7679    0.0000 H   0  0  0  0  0  0  0  0  0  0  0  0
   -2.8769   -5.5816    0.0000 H   0  0  0  0  0  0  0  0  0  0  0  0
   -1.6019   -8.3107    0.0000 H   0  0  0  0  0  0  0  0  0  0  0  0
   -2.2409   -7.2257    0.0000 H   0  0  0  0  0  0  0  0  0  0  0  0
   -0.3007   -9.7278    0.0000 H   0  0  0  0  0  0  0  0  0  0  0  0
   -1.3052   -8.7198    0.0000 H   0  0  0  0  0  0  0  0  0  0  0  0
    0.3098  -10.5044    0.0000 H   0  0  0  0  0  0  0  0  0  0  0  0
   -4.3375   -4.8985    0.0000 H   0  0  0  0  0  0  0  0  0  0  0  0
   -3.6288   -6.5433    0.0000 H   0  0  0  0  0  0  0  0  0  0  0  0
   -2.0367   -6.4660    0.0000 H   0  0  0  0  0  0  0  0  0  0  0  0
   -3.1329   -1.3021    0.0000 H   0  0  0  0  0  0  0  0  0  0  0  0
   -1.8388    1.4771    0.0000 H   0  0  0  0  0  0  0  0  0  0  0  0
   -3.8732   -0.9160    0.0000 H   0  0  0  0  0  0  0  0  0  0  0  0
   -2.3608   -1.5342    0.0000 H   0  0  0  0  0  0  0  0  0  0  0  0
   -4.0174    2.5536    0.0000 H   0  0  0  0  0  0  0  0  0  0  0  0
   -2.4410    2.1244    0.0000 H   0  0  0  0  0  0  0  0  0  0  0  0
   -6.5355    0.7457    0.0000 H   0  0  0  0  0  0  0  0  0  0  0  0
   -4.4175   -0.4396    0.0000 H   0  0  0  0  0  0  0  0  0  0  0  0
   -5.0780    3.3180    0.0000 H   0  0  0  0  0  0  0  0  0  0  0  0
   -9.8558    2.8884    0.0000 H   0  0  0  0  0  0  0  0  0  0  0  0
   -8.2249    4.6309    0.0000 H   0  0  0  0  0  0  0  0  0  0  0  0
   -9.5046    0.3142    0.0000 H   0  0  0  0  0  0  0  0  0  0  0  0
   -7.4381   -0.8935    0.0000 H   0  0  0  0  0  0  0  0  0  0  0  0
   -0.6115    3.5309    0.0000 H   0  0  0  0  0  0  0  0  0  0  0  0
    1.8738    5.0199    0.0000 H   0  0  0  0  0  0  0  0  0  0  0  0
   -1.1268    4.2897    0.0000 H   0  0  0  0  0  0  0  0  0  0  0  0
   -0.3588    2.8476    0.0000 H   0  0  0  0  0  0  0  0  0  0  0  0
    0.6230    7.1034    0.0000 H   0  0  0  0  0  0  0  0  0  0  0  0
    1.7171    5.8900    0.0000 H   0  0  0  0  0  0  0  0  0  0  0  0
   -2.6185    6.4169    0.0000 H   0  0  0  0  0  0  0  0  0  0  0  0
   -1.6851    4.8960    0.0000 H   0  0  0  0  0  0  0  0  0  0  0  0
   -0.0278    8.6426    0.0000 H   0  0  0  0  0  0  0  0  0  0  0  0
   -4.1076   10.5415    0.0000 H   0  0  0  0  0  0  0  0  0  0  0  0
   -1.5195   10.7698    0.0000 H   0  0  0  0  0  0  0  0  0  0  0  0
   -5.2039    8.1861    0.0000 H   0  0  0  0  0  0  0  0  0  0  0  0
   -3.7122    6.0589    0.0000 H   0  0  0  0  0  0  0  0  0  0  0  0
    4.0167    6.0842    0.0000 H   0  0  0  0  0  0  0  0  0  0  0  0
    6.9124    5.9932    0.0000 H   0  0  0  0  0  0  0  0  0  0  0  0
    3.9933    7.0011    0.0000 H   0  0  0  0  0  0  0  0  0  0  0  0
    3.8598    5.3727    0.0000 H   0  0  0  0  0  0  0  0  0  0  0  0
    6.9865    8.4221    0.0000 H   0  0  0  0  0  0  0  0  0  0  0  0
    7.2510    6.8098    0.0000 H   0  0  0  0  0  0  0  0  0  0  0  0
    3.8884    9.5971    0.0000 H   0  0  0  0  0  0  0  0  0  0  0  0
    3.8515    7.8130    0.0000 H   0  0  0  0  0  0  0  0  0  0  0  0
    7.2712   10.0689    0.0000 H   0  0  0  0  0  0  0  0  0  0  0  0
    4.8658   13.8720    0.0000 H   0  0  0  0  0  0  0  0  0  0  0  0
    7.1664   12.6648    0.0000 H   0  0  0  0  0  0  0  0  0  0  0  0
    2.6700   12.4832    0.0000 H   0  0  0  0  0  0  0  0  0  0  0  0
    2.7749    9.8872    0.0000 H   0  0  0  0  0  0  0  0  0  0  0  0
    9.2905    5.7300    0.0000 H   0  0  0  0  0  0  0  0  0  0  0  0
   11.6773    4.0879    0.0000 H   0  0  0  0  0  0  0  0  0  0  0  0
    9.7666    6.5140    0.0000 H   0  0  0  0  0  0  0  0  0  0  0  0
    8.7738    5.2163    0.0000 H   0  0  0  0  0  0  0  0  0  0  0  0
   13.0529    6.0912    0.0000 H   0  0  0  0  0  0  0  0  0  0  0  0
   12.4037    4.5918    0.0000 H   0  0  0  0  0  0  0  0  0  0  0  0
   11.0818    8.7545    0.0000 H   0  0  0  0  0  0  0  0  0  0  0  0
   10.0862    7.2737    0.0000 H   0  0  0  0  0  0  0  0  0  0  0  0
   14.1827    7.3226    0.0000 H   0  0  0  0  0  0  0  0  0  0  0  0
   14.2152   11.8224    0.0000 H   0  0  0  0  0  0  0  0  0  0  0  0
   15.4979    9.5631    0.0000 H   0  0  0  0  0  0  0  0  0  0  0  0
   11.6172   11.8412    0.0000 H   0  0  0  0  0  0  0  0  0  0  0  0
   10.3019    9.6006    0.0000 H   0  0  0  0  0  0  0  0  0  0  0  0
   13.5356    2.5808    0.0000 H   0  0  0  0  0  0  0  0  0  0  0  0
   14.6557   -0.0911    0.0000 H   0  0  0  0  0  0  0  0  0  0  0  0
   14.3599    2.9829    0.0000 H   0  0  0  0  0  0  0  0  0  0  0  0
   12.8232    2.4279    0.0000 H   0  0  0  0  0  0  0  0  0  0  0  0
   16.8960    0.8505    0.0000 H   0  0  0  0  0  0  0  0  0  0  0  0
   15.5392   -0.0598    0.0000 H   0  0  0  0  0  0  0  0  0  0  0  0
   16.6777    4.1567    0.0000 H   0  0  0  0  0  0  0  0  0  0  0  0
   15.0395    3.4492    0.0000 H   0  0  0  0  0  0  0  0  0  0  0  0
   18.5122    1.2756    0.0000 H   0  0  0  0  0  0  0  0  0  0  0  0
   20.9723    5.0436    0.0000 H   0  0  0  0  0  0  0  0  0  0  0  0
   20.8300    2.4494    0.0000 H   0  0  0  0  0  0  0  0  0  0  0  0
   18.7969    6.4639    0.0000 H   0  0  0  0  0  0  0  0  0  0  0  0
   16.4791    5.2901    0.0000 H   0  0  0  0  0  0  0  0  0  0  0  0
   15.4042   -2.3636    0.0000 H   0  0  0  0  0  0  0  0  0  0  0  0
   14.9020   -5.2169    0.0000 H   0  0  0  0  0  0  0  0  0  0  0  0
   16.3151   -2.4710    0.0000 H   0  0  0  0  0  0  0  0  0  0  0  0
   14.7223   -2.1071    0.0000 H   0  0  0  0  0  0  0  0  0  0  0  0
   17.2957   -5.6360    0.0000 H   0  0  0  0  0  0  0  0  0  0  0  0
   15.6621   -5.6683    0.0000 H   0  0  0  0  0  0  0  0  0  0  0  0
   18.8996   -2.7366    0.0000 H   0  0  0  0  0  0  0  0  0  0  0  0
   17.1389   -2.4461    0.0000 H   0  0  0  0  0  0  0  0  0  0  0  0
   18.8851   -6.1521    0.0000 H   0  0  0  0  0  0  0  0  0  0  0  0
   22.9919   -4.3124    0.0000 H   0  0  0  0  0  0  0  0  0  0  0  0
   21.4696   -6.4178    0.0000 H   0  0  0  0  0  0  0  0  0  0  0  0
   21.9297   -1.9414    0.0000 H   0  0  0  0  0  0  0  0  0  0  0  0
   19.3452   -1.6757    0.0000 H   0  0  0  0  0  0  0  0  0  0  0  0
   14.3030   -7.5333    0.0000 H   0  0  0  0  0  0  0  0  0  0  0  0
   12.3235   -9.9025    0.0000 H   0  0  0  0  0  0  0  0  0  0  0  0
   11.1603  -10.7223    0.0000 H   0  0  0  0  0  0  0  0  0  0  0  0
   10.7977  -11.1047    0.0000 H   0  0  0  0  0  0  0  0  0  0  0  0
    9.8035  -11.5529    0.0000 H   0  0  0  0  0  0  0  0  0  0  0  0
    9.3360  -11.7447    0.0000 H   0  0  0  0  0  0  0  0  0  0  0  0
    8.1310  -12.1099    0.0000 H   0  0  0  0  0  0  0  0  0  0  0  0
    7.6355  -12.2098    0.0000 H   0  0  0  0  0  0  0  0  0  0  0  0
    6.3832  -12.3404    0.0000 H   0  0  0  0  0  0  0  0  0  0  0  0
    5.8778  -12.3447    0.0000 H   0  0  0  0  0  0  0  0  0  0  0  0
    4.6234  -12.2359    0.0000 H   0  0  0  0  0  0  0  0  0  0  0  0
    4.1263  -12.1445    0.0000 H   0  0  0  0  0  0  0  0  0  0  0  0
    2.7838  -11.6726    0.0000 H   0  0  0  0  0  0  0  0  0  0  0  0
    1.8199  -11.4565    0.0000 H   0  0  0  0  0  0  0  0  0  0  0  0
   11.8271  -10.9779    0.0000 H   0  0  0  0  0  0  0  0  0  0  0  0
   13.4342  -10.8027    0.0000 H   0  0  0  0  0  0  0  0  0  0  0  0
   13.9614   -9.2168    0.0000 H   0  0  0  0  0  0  0  0  0  0  0  0
  1  2  1  0
  2  3  1  0
  3  4  1  0
  4  5  2  0
  4  6  1  0
  6  7  1  0
  7  8  1  0
  8  9  1  0
  9 10  1  0
 10 11  1  0
 11 12  1  0
 12 13  2  3
 12 14  1  0
  7 15  1  0
 15 16  2  0
 15 17  1  0
 17 18  1  0
 18 19  1  0
 19 20  1  0
 20 21  1  0
 21 22  1  0
 22 23  1  0
 23 24  2  3
 23 25  1  0
 18 26  1  0
 26 27  2  0
 26 28  1  0
 28 29  1  0
 29 30  1  0
 30 31  1  0
 31 32  1  0
 32 33  1  0
 33 34  1  0
 34 35  2  3
 34 36  1  0
 29 37  1  0
 37 38  2  0
 37 39  1  0
 39 40  1  0
 40 41  1  0
 41 42  1  0
 42 43  1  0
 43 44  1  0
 44 45  1  0
 45 46  2  3
 45 47  1  0
 40 48  1  0
 48 49  2  0
 48 50  1  0
 51 50  1  1
 51 52  1  0
 52 53  1  0
 53 54  1  0
 54 55  1  0
 51 56  1  0
 51 57  1  0
 57 58  2  0
 57 59  1  0
 59 60  1  0
 60 61  1  0
 61 62  1  0
 62 63  1  0
 63 64  1  0
 64 65  1  0
 65 66  2  3
 65 67  1  0
 60 68  1  0
 68 69  2  0
 68 70  1  0
 70 71  1  0
 71 72  1  0
 72 73  1  0
 73 74  1  0
 74 75  1  0
 75 76  1  0
 76 77  2  3
 76 78  1  0
 71 79  1  0
 79 80  2  0
 79 81  1  0
 81 82  1  0
 82 83  1  0
 83 84  1  0
 84 85  1  0
 85 86  1  0
 86 87  1  0
 87 88  2  3
 87 89  1  0
 82 90  1  0
 90 91  2  0
 90 92  1  0
 92 93  1  0
 93 94  1  0
 94 95  1  0
 95 96  1  0
 96 97  1  0
 97 98  1  0
 98 99  2  3
 98100  1  0
 93101  1  0
101102  2  0
101103  1  0
103104  1  0
104105  1  0
105106  1  0
106107  1  0
107108  1  0
108109  1  0
109110  2  3
109111  1  0
104112  1  0
112113  2  0
112114  1  0
114115  1  0
115116  1  0
116117  1  0
117118  1  0
118119  1  0
119120  1  0
120121  2  3
120122  1  0
115123  1  0
123124  2  0
123125  1  0
125126  1  0
126127  1  0
127128  1  0
128129  1  0
129130  1  0
130131  1  0
131132  1  0
132133  1  0
126134  1  0
126135  1  6
135136  2  0
135137  1  0
 55133  2  0
  1138  1  0
  1139  1  0
  2140  1  0
  2141  1  0
  3142  1  0
  3143  1  0
  6144  1  0
  7145  1  1
  8146  1  0
  8147  1  0
  9148  1  0
  9149  1  0
 10150  1  0
 10151  1  0
 11152  1  0
 13153  1  0
 13154  1  0
 14155  1  0
 14156  1  0
 17157  1  0
 18158  1  6
 19159  1  0
 19160  1  0
 20161  1  0
 20162  1  0
 21163  1  0
 21164  1  0
 22165  1  0
 24166  1  0
 24167  1  0
 25168  1  0
 25169  1  0
 28170  1  0
 29171  1  6
 30172  1  0
 30173  1  0
 31174  1  0
 31175  1  0
 32176  1  0
 32177  1  0
 33178  1  0
 35179  1  0
 35180  1  0
 36181  1  0
 36182  1  0
 39183  1  0
 40184  1  1
 41185  1  0
 41186  1  0
 42187  1  0
 42188  1  0
 43189  1  0
 43190  1  0
 44191  1  0
 46192  1  0
 46193  1  0
 47194  1  0
 47195  1  0
 50196  1  0
 52197  1  0
 52198  1  0
 53199  1  0
 53200  1  0
 54201  1  0
 54202  1  0
 55203  1  0
 56204  1  0
 56205  1  0
 56206  1  0
 59207  1  0
 60208  1  1
 61209  1  0
 61210  1  0
 62211  1  0
 62212  1  0
 63213  1  0
 63214  1  0
 64215  1  0
 66216  1  0
 66217  1  0
 67218  1  0
 67219  1  0
 70220  1  0
 71221  1  1
 72222  1  0
 72223  1  0
 73224  1  0
 73225  1  0
 74226  1  0
 74227  1  0
 75228  1  0
 77229  1  0
 77230  1  0
 78231  1  0
 78232  1  0
 81233  1  0
 82234  1  1
 83235  1  0
 83236  1  0
 84237  1  0
 84238  1  0
 85239  1  0
 85240  1  0
 86241  1  0
 88242  1  0
 88243  1  0
 89244  1  0
 89245  1  0
 92246  1  0
 93247  1  1
 94248  1  0
 94249  1  0
 95250  1  0
 95251  1  0
 96252  1  0
 96253  1  0
 97254  1  0
 99255  1  0
 99256  1  0
100257  1  0
100258  1  0
103259  1  0
104260  1  1
105261  1  0
105262  1  0
106263  1  0
106264  1  0
107265  1  0
107266  1  0
108267  1  0
110268  1  0
110269  1  0
111270  1  0
111271  1  0
114272  1  0
115273  1  1
116274  1  0
116275  1  0
117276  1  0
117277  1  0
118278  1  0
118279  1  0
119280  1  0
121281  1  0
121282  1  0
122283  1  0
122284  1  0
125285  1  0
127286  1  0
127287  1  0
128288  1  0
128289  1  0
129290  1  0
129291  1  0
130292  1  0
130293  1  0
131294  1  0
131295  1  0
132296  1  0
132297  1  0
133298  1  0
134299  1  0
134300  1  0
134301  1  0
M  CHG  8  13   1  24   1  35   1  46   1  66   1  77   1  88   1  99   1
M  CHG  3 110   1 121   1 137  -1
M  END
