
     RDKit          2D

323324  0  0  0  0  0  0  0  0999 V2000
  -29.1918    6.5373    0.0000 N   0  0  0  0  0  0  0  0  0  0  0  0
  -27.8115    5.9500    0.0000 C   0  0  0  0  0  0  0  0  0  0  0  0
  -27.6299    4.4611    0.0000 C   0  0  0  0  0  0  0  0  0  0  0  0
  -26.2496    3.8739    0.0000 C   0  0  0  0  0  0  0  0  0  0  0  0
  -25.1698    4.9150    0.0000 O   0  0  0  0  0  0  0  0  0  0  0  0
  -26.0680    2.3849    0.0000 N   0  0  0  0  0  0  0  0  0  0  0  0
  -24.6877    1.7977    0.0000 C   0  0  0  0  0  0  0  0  0  0  0  0
  -24.3491    3.2590    0.0000 C   0  0  0  0  0  0  0  0  0  0  0  0
  -22.9143    3.6963    0.0000 C   0  0  0  0  0  0  0  0  0  0  0  0
  -22.5757    5.1576    0.0000 C   0  0  0  0  0  0  0  0  0  0  0  0
  -21.1409    5.5950    0.0000 N   0  0  0  0  0  0  0  0  0  0  0  0
  -20.8023    7.0563    0.0000 C   0  0  0  0  0  0  0  0  0  0  0  0
  -19.3675    7.4937    0.0000 N   0  0  0  0  0  0  0  0  0  0  0  0
  -21.8985    8.0802    0.0000 N   0  0  0  0  0  0  0  0  0  0  0  0
  -23.5916    0.7738    0.0000 C   0  0  0  0  0  0  0  0  0  0  0  0
  -22.1567    1.2112    0.0000 O   0  0  0  0  0  0  0  0  0  0  0  0
  -23.9302   -0.6875    0.0000 N   0  0  0  0  0  0  0  0  0  0  0  0
  -22.8340   -1.7114    0.0000 C   0  0  0  0  0  0  0  0  0  0  0  0
  -24.0327   -2.6131    0.0000 C   0  0  0  0  0  0  0  0  0  0  0  0
  -25.4129   -2.0259    0.0000 C   0  0  0  0  0  0  0  0  0  0  0  0
  -26.6116   -2.9277    0.0000 C   0  0  0  0  0  0  0  0  0  0  0  0
  -27.9919   -2.3404    0.0000 N   0  0  0  0  0  0  0  0  0  0  0  0
  -29.1906   -3.2422    0.0000 C   0  0  0  0  0  0  0  0  0  0  0  0
  -30.5709   -2.6550    0.0000 N   0  0  0  0  0  0  0  0  0  0  0  0
  -29.0090   -4.7312    0.0000 N   0  0  0  0  0  0  0  0  0  0  0  0
  -21.4537   -2.2986    0.0000 C   0  0  0  0  0  0  0  0  0  0  0  0
  -21.2721   -3.7876    0.0000 O   0  0  0  0  0  0  0  0  0  0  0  0
  -20.2550   -1.3969    0.0000 N   0  0  0  0  0  0  0  0  0  0  0  0
  -18.8747   -1.9841    0.0000 C   0  0  0  0  0  0  0  0  0  0  0  0
  -17.6760   -1.0823    0.0000 C   0  0  0  0  0  0  0  0  0  0  0  0
  -17.8683   -0.3087    0.0000 O   0  0  0  0  0  0  0  0  0  0  0  0
  -16.2958   -1.6696    0.0000 N   0  0  0  0  0  0  0  0  0  0  0  0
  -15.0971   -0.7678    0.0000 C   0  0  0  0  0  0  0  0  0  0  0  0
  -16.1933    0.2561    0.0000 C   0  0  0  0  0  0  0  0  0  0  0  0
  -17.6707   -0.0032    0.0000 O   0  0  0  0  0  0  0  0  0  0  0  0
  -13.6623   -0.3304    0.0000 C   0  0  0  0  0  0  0  0  0  0  0  0
  -13.3236    1.1309    0.0000 O   0  0  0  0  0  0  0  0  0  0  0  0
  -12.5661   -1.3543    0.0000 N   0  0  0  0  0  0  0  0  0  0  0  0
  -11.1312   -0.9169    0.0000 C   0  0  0  0  0  0  0  0  0  0  0  0
  -10.9497   -2.4059    0.0000 C   0  0  0  0  0  0  0  0  0  0  0  0
  -12.1483   -3.3076    0.0000 C   0  0  0  0  0  0  0  0  0  0  0  0
  -11.9667   -4.7966    0.0000 C   0  0  0  0  0  0  0  0  0  0  0  0
  -13.1654   -5.6984    0.0000 N   0  0  0  0  0  0  0  0  0  0  0  0
  -12.9838   -7.1873    0.0000 C   0  0  0  0  0  0  0  0  0  0  0  0
  -14.1825   -8.0891    0.0000 N   0  0  0  0  0  0  0  0  0  0  0  0
  -11.6036   -7.7745    0.0000 N   0  0  0  0  0  0  0  0  0  0  0  0
   -9.9326   -0.0152    0.0000 C   0  0  0  0  0  0  0  0  0  0  0  0
   -8.7354   -0.9189    0.0000 O   0  0  0  0  0  0  0  0  0  0  0  0
  -10.1141    1.4738    0.0000 N   0  0  0  0  0  0  0  0  0  0  0  0
  -11.4255    2.2021    0.0000 C   0  0  0  0  0  0  0  0  0  0  0  0
  -11.1381    3.6743    0.0000 C   0  0  0  0  0  0  0  0  0  0  0  0
   -9.6491    3.8559    0.0000 C   0  0  0  0  0  0  0  0  0  0  0  0
   -9.0163    2.4959    0.0000 C   0  0  0  0  0  0  0  0  0  0  0  0
   -8.1145    1.2972    0.0000 C   0  0  0  0  0  0  0  0  0  0  0  0
   -6.6256    1.4788    0.0000 O   0  0  0  0  0  0  0  0  0  0  0  0
   -8.7018   -0.0831    0.0000 N   0  0  0  0  0  0  0  0  0  0  0  0
   -7.8000   -1.2818    0.0000 C   0  0  0  0  0  0  0  0  0  0  0  0
   -9.1371   -1.9617    0.0000 C   0  0  0  0  0  0  0  0  0  0  0  0
  -10.6041   -1.6487    0.0000 O   0  0  0  0  0  0  0  0  0  0  0  0
   -6.5427   -2.0997    0.0000 C   0  0  0  0  0  0  0  0  0  0  0  0
   -6.6224   -3.5976    0.0000 O   0  0  0  0  0  0  0  0  0  0  0  0
   -5.2056   -1.4199    0.0000 N   0  0  0  0  0  0  0  0  0  0  0  0
   -3.9483   -2.2378    0.0000 C   0  0  0  0  0  0  0  0  0  0  0  0
   -2.6112   -1.5579    0.0000 C   0  0  0  0  0  0  0  0  0  0  0  0
   -2.7147   -0.0615    0.0000 O   0  0  0  0  0  0  0  0  0  0  0  0
   -1.3539   -2.3759    0.0000 N   0  0  0  0  0  0  0  0  0  0  0  0
   -0.0168   -1.6960    0.0000 C   0  0  0  0  0  0  0  0  0  0  0  0
   -0.9185   -0.4973    0.0000 C   0  0  0  0  0  0  0  0  0  0  0  0
    1.4722   -1.5144    0.0000 C   0  0  0  0  0  0  0  0  0  0  0  0
    1.7079   -0.0331    0.0000 O   0  0  0  0  0  0  0  0  0  0  0  0
    2.3739   -2.7131    0.0000 N   0  0  0  0  0  0  0  0  0  0  0  0
    3.8629   -2.5315    0.0000 C   0  0  0  0  0  0  0  0  0  0  0  0
    3.0390   -1.2781    0.0000 C   0  0  0  0  0  0  0  0  0  0  0  0
    2.4672    0.1087    0.0000 C   0  0  0  0  0  0  0  0  0  0  0  0
    2.1682    1.5786    0.0000 C   0  0  0  0  0  0  0  0  0  0  0  0
    2.1527    3.0785    0.0000 C   0  0  0  0  0  0  0  0  0  0  0  0
    2.4214    4.5542    0.0000 C   0  0  0  0  0  0  0  0  0  0  0  0
    2.9646    5.9524    0.0000 C   0  0  0  0  0  0  0  0  0  0  0  0
    3.7625    7.2226    0.0000 C   0  0  0  0  0  0  0  0  0  0  0  0
    3.3644   -3.9463    0.0000 C   0  0  0  0  0  0  0  0  0  0  0  0
    4.9091   -3.6064    0.0000 C   0  0  0  0  0  0  0  0  0  0  0  0
    4.0852   -4.8599    0.0000 O   0  0  0  0  0  0  0  0  0  0  0  0
    6.1399   -4.4639    0.0000 N   0  0  0  0  0  0  0  0  0  0  0  0
    7.5107   -5.0729    0.0000 C   0  0  0  0  0  0  0  0  0  0  0  0
    7.8562   -6.5326    0.0000 C   0  0  0  0  0  0  0  0  0  0  0  0
    6.7648   -7.5616    0.0000 C   0  0  0  0  0  0  0  0  0  0  0  0
    7.1103   -9.0213    0.0000 C   0  0  0  0  0  0  0  0  0  0  0  0
    6.0190  -10.0504    0.0000 N   0  0  0  0  0  0  0  0  0  0  0  0
    6.3645  -11.5100    0.0000 C   0  0  0  0  0  0  0  0  0  0  0  0
    5.2731  -12.5391    0.0000 N   0  0  0  0  0  0  0  0  0  0  0  0
    7.8013  -11.9406    0.0000 N   0  0  0  0  0  0  0  0  0  0  0  0
    8.9719   -5.4115    0.0000 C   0  0  0  0  0  0  0  0  0  0  0  0
    8.9565   -6.9115    0.0000 O   0  0  0  0  0  0  0  0  0  0  0  0
   10.4709   -5.4675    0.0000 N   0  0  0  0  0  0  0  0  0  0  0  0
   11.9534   -5.2388    0.0000 C   0  0  0  0  0  0  0  0  0  0  0  0
   13.0332   -6.2799    0.0000 C   0  0  0  0  0  0  0  0  0  0  0  0
   12.6714   -7.7356    0.0000 C   0  0  0  0  0  0  0  0  0  0  0  0
   13.7512   -8.7768    0.0000 C   0  0  0  0  0  0  0  0  0  0  0  0
   13.3895  -10.2325    0.0000 N   0  0  0  0  0  0  0  0  0  0  0  0
   14.4693  -11.2737    0.0000 C   0  0  0  0  0  0  0  0  0  0  0  0
   14.1075  -12.7294    0.0000 N   0  0  0  0  0  0  0  0  0  0  0  0
   15.9109  -10.8591    0.0000 N   0  0  0  0  0  0  0  0  0  0  0  0
   13.3657   -4.7336    0.0000 C   0  0  0  0  0  0  0  0  0  0  0  0
   14.1636   -6.0038    0.0000 O   0  0  0  0  0  0  0  0  0  0  0  0
   14.6570   -3.9703    0.0000 N   0  0  0  0  0  0  0  0  0  0  0  0
   15.7804   -2.9764    0.0000 C   0  0  0  0  0  0  0  0  0  0  0  0
   17.2517   -3.2684    0.0000 C   0  0  0  0  0  0  0  0  0  0  0  0
   17.7344   -4.6886    0.0000 C   0  0  0  0  0  0  0  0  0  0  0  0
   19.2057   -4.9807    0.0000 C   0  0  0  0  0  0  0  0  0  0  0  0
   19.6884   -6.4009    0.0000 N   0  0  0  0  0  0  0  0  0  0  0  0
   21.1597   -6.6930    0.0000 C   0  0  0  0  0  0  0  0  0  0  0  0
   21.6424   -8.1132    0.0000 N   0  0  0  0  0  0  0  0  0  0  0  0
   22.1483   -5.5649    0.0000 N   0  0  0  0  0  0  0  0  0  0  0  0
   16.6955   -1.7878    0.0000 C   0  0  0  0  0  0  0  0  0  0  0  0
   18.0534   -2.4249    0.0000 O   0  0  0  0  0  0  0  0  0  0  0  0
   17.3691   -0.4475    0.0000 N   0  0  0  0  0  0  0  0  0  0  0  0
   17.7768    0.9960    0.0000 C   0  0  0  0  0  0  0  0  0  0  0  0
   19.1725    1.5457    0.0000 C   0  0  0  0  0  0  0  0  0  0  0  0
   20.3464    0.6119    0.0000 C   0  0  0  0  0  0  0  0  0  0  0  0
   21.7420    1.1616    0.0000 C   0  0  0  0  0  0  0  0  0  0  0  0
   22.9159    0.2278    0.0000 N   0  0  0  0  0  0  0  0  0  0  0  0
   24.3115    0.7776    0.0000 C   0  0  0  0  0  0  0  0  0  0  0  0
   25.4854   -0.1562    0.0000 N   0  0  0  0  0  0  0  0  0  0  0  0
   24.5333    2.2611    0.0000 N   0  0  0  0  0  0  0  0  0  0  0  0
   17.9040    2.4906    0.0000 C   0  0  0  0  0  0  0  0  0  0  0  0
   19.3909    2.6887    0.0000 O   0  0  0  0  0  0  0  0  0  0  0  0
   17.7461    3.9822    0.0000 N   0  0  0  0  0  0  0  0  0  0  0  0
   17.3087    5.4170    0.0000 C   0  0  0  0  0  0  0  0  0  0  0  0
   18.1856    6.6340    0.0000 C   0  0  0  0  0  0  0  0  0  0  0  0
   19.6780    6.4831    0.0000 C   0  0  0  0  0  0  0  0  0  0  0  0
   20.5549    7.7001    0.0000 C   0  0  0  0  0  0  0  0  0  0  0  0
   22.0473    7.5492    0.0000 N   0  0  0  0  0  0  0  0  0  0  0  0
   22.9241    8.7662    0.0000 C   0  0  0  0  0  0  0  0  0  0  0  0
   24.4165    8.6153    0.0000 N   0  0  0  0  0  0  0  0  0  0  0  0
   22.3086   10.1341    0.0000 N   0  0  0  0  0  0  0  0  0  0  0  0
   16.6077    6.7432    0.0000 C   0  0  0  0  0  0  0  0  0  0  0  0
   17.7514    7.7137    0.0000 O   0  0  0  0  0  0  0  0  0  0  0  0
   15.6684    7.9126    0.0000 N   0  0  0  0  0  0  0  0  0  0  0  0
   14.5247    8.8832    0.0000 C   0  0  0  0  0  0  0  0  0  0  0  0
   14.6044   10.3811    0.0000 C   0  0  0  0  0  0  0  0  0  0  0  0
   13.2180    9.6198    0.0000 C   0  0  0  0  0  0  0  0  0  0  0  0
   13.6554   11.0546    0.0000 O   0  0  0  0  0  0  0  0  0  0  0  0
   11.7955   10.0958    0.0000 N   0  0  0  0  0  0  0  0  0  0  0  0
   10.3087   10.2940    0.0000 C   0  0  0  0  0  0  0  0  0  0  0  0
    8.8112   10.2072    0.0000 C   0  0  0  0  0  0  0  0  0  0  0  0
    7.3572    9.8385    0.0000 C   0  0  0  0  0  0  0  0  0  0  0  0
    5.9992    9.2014    0.0000 C   0  0  0  0  0  0  0  0  0  0  0  0
    4.7864    8.3188    0.0000 C   0  0  0  0  0  0  0  0  0  0  0  0
   11.1465   11.5382    0.0000 C   0  0  0  0  0  0  0  0  0  0  0  0
    9.5659   11.5972    0.0000 C   0  0  0  0  0  0  0  0  0  0  0  0
   10.1597   12.9746    0.0000 O   0  0  0  0  0  0  0  0  0  0  0  0
    8.1125   11.9682    0.0000 O   0  0  0  0  0  0  0  0  0  0  0  0
  -29.3734    8.0262    0.0000 H   0  0  0  0  0  0  0  0  0  0  0  0
  -30.3905    5.6355    0.0000 H   0  0  0  0  0  0  0  0  0  0  0  0
  -27.4729    7.4113    0.0000 H   0  0  0  0  0  0  0  0  0  0  0  0
  -26.3136    5.8703    0.0000 H   0  0  0  0  0  0  0  0  0  0  0  0
  -29.1278    4.5408    0.0000 H   0  0  0  0  0  0  0  0  0  0  0  0
  -27.9685    2.9998    0.0000 H   0  0  0  0  0  0  0  0  0  0  0  0
  -27.2667    1.4831    0.0000 H   0  0  0  0  0  0  0  0  0  0  0  0
  -25.5057    0.5403    0.0000 H   0  0  0  0  0  0  0  0  0  0  0  0
  -24.5307    4.7479    0.0000 H   0  0  0  0  0  0  0  0  0  0  0  0
  -25.7832    3.6988    0.0000 H   0  0  0  0  0  0  0  0  0  0  0  0
  -21.4164    3.6166    0.0000 H   0  0  0  0  0  0  0  0  0  0  0  0
  -22.7327    2.2074    0.0000 H   0  0  0  0  0  0  0  0  0  0  0  0
  -22.7573    6.6466    0.0000 H   0  0  0  0  0  0  0  0  0  0  0  0
  -24.0527    5.4193    0.0000 H   0  0  0  0  0  0  0  0  0  0  0  0
  -20.0447    4.5711    0.0000 H   0  0  0  0  0  0  0  0  0  0  0  0
  -19.0288    8.9550    0.0000 H   0  0  0  0  0  0  0  0  0  0  0  0
  -18.2713    6.4698    0.0000 H   0  0  0  0  0  0  0  0  0  0  0  0
  -21.5598    9.5415    0.0000 H   0  0  0  0  0  0  0  0  0  0  0  0
  -23.3333    7.6428    0.0000 H   0  0  0  0  0  0  0  0  0  0  0  0
  -25.4076   -0.9467    0.0000 H   0  0  0  0  0  0  0  0  0  0  0  0
  -22.0160   -0.4541    0.0000 H   0  0  0  0  0  0  0  0  0  0  0  0
  -24.6913   -3.9608    0.0000 H   0  0  0  0  0  0  0  0  0  0  0  0
  -22.9365   -3.6370    0.0000 H   0  0  0  0  0  0  0  0  0  0  0  0
  -26.5091   -1.0020    0.0000 H   0  0  0  0  0  0  0  0  0  0  0  0
  -25.1000   -0.5589    0.0000 H   0  0  0  0  0  0  0  0  0  0  0  0
  -27.4296   -4.1850    0.0000 H   0  0  0  0  0  0  0  0  0  0  0  0
  -25.6484   -4.0775    0.0000 H   0  0  0  0  0  0  0  0  0  0  0  0
  -28.1735   -0.8515    0.0000 H   0  0  0  0  0  0  0  0  0  0  0  0
  -31.7696   -3.5567    0.0000 H   0  0  0  0  0  0  0  0  0  0  0  0
  -30.7525   -1.1660    0.0000 H   0  0  0  0  0  0  0  0  0  0  0  0
  -30.2077   -5.6329    0.0000 H   0  0  0  0  0  0  0  0  0  0  0  0
  -27.6287   -5.3184    0.0000 H   0  0  0  0  0  0  0  0  0  0  0  0
  -20.4366    0.0921    0.0000 H   0  0  0  0  0  0  0  0  0  0  0  0
  -19.6927   -3.2414    0.0000 H   0  0  0  0  0  0  0  0  0  0  0  0
  -17.7785   -3.0080    0.0000 H   0  0  0  0  0  0  0  0  0  0  0  0
  -16.1142   -3.1585    0.0000 H   0  0  0  0  0  0  0  0  0  0  0  0
  -14.4172   -2.1049    0.0000 H   0  0  0  0  0  0  0  0  0  0  0  0
  -16.8732    1.5931    0.0000 H   0  0  0  0  0  0  0  0  0  0  0  0
  -14.9946    1.1578    0.0000 H   0  0  0  0  0  0  0  0  0  0  0  0
  -18.7243    0.8426    0.0000 H   0  0  0  0  0  0  0  0  0  0  0  0
  -13.0803   -2.7634    0.0000 H   0  0  0  0  0  0  0  0  0  0  0  0
  -11.9691    0.3273    0.0000 H   0  0  0  0  0  0  0  0  0  0  0  0
  -10.2698   -3.7430    0.0000 H   0  0  0  0  0  0  0  0  0  0  0  0
   -9.4516   -2.3287    0.0000 H   0  0  0  0  0  0  0  0  0  0  0  0
  -13.5832   -3.7450    0.0000 H   0  0  0  0  0  0  0  0  0  0  0  0
  -13.2623   -2.3031    0.0000 H   0  0  0  0  0  0  0  0  0  0  0  0
  -11.2869   -6.1337    0.0000 H   0  0  0  0  0  0  0  0  0  0  0  0
  -10.4893   -4.5374    0.0000 H   0  0  0  0  0  0  0  0  0  0  0  0
  -14.5457   -5.1111    0.0000 H   0  0  0  0  0  0  0  0  0  0  0  0
  -14.0009   -9.5780    0.0000 H   0  0  0  0  0  0  0  0  0  0  0  0
  -15.5628   -7.5018    0.0000 H   0  0  0  0  0  0  0  0  0  0  0  0
  -11.4220   -9.2635    0.0000 H   0  0  0  0  0  0  0  0  0  0  0  0
  -10.4049   -6.8728    0.0000 H   0  0  0  0  0  0  0  0  0  0  0  0
  -12.8596    2.6418    0.0000 H   0  0  0  0  0  0  0  0  0  0  0  0
  -12.1766    0.9037    0.0000 H   0  0  0  0  0  0  0  0  0  0  0  0
  -11.1630    5.1741    0.0000 H   0  0  0  0  0  0  0  0  0  0  0  0
  -12.6323    3.8062    0.0000 H   0  0  0  0  0  0  0  0  0  0  0  0
   -8.2304    4.3431    0.0000 H   0  0  0  0  0  0  0  0  0  0  0  0
   -9.9853    5.3177    0.0000 H   0  0  0  0  0  0  0  0  0  0  0  0
   -7.7299    3.2674    0.0000 H   0  0  0  0  0  0  0  0  0  0  0  0
  -10.1575   -0.4448    0.0000 H   0  0  0  0  0  0  0  0  0  0  0  0
   -6.7761   -0.1856    0.0000 H   0  0  0  0  0  0  0  0  0  0  0  0
  -10.0197   -3.1745    0.0000 H   0  0  0  0  0  0  0  0  0  0  0  0
   -8.2353   -3.1603    0.0000 H   0  0  0  0  0  0  0  0  0  0  0  0
  -11.7315   -1.8236    0.0000 H   0  0  0  0  0  0  0  0  0  0  0  0
   -5.1259    0.0780    0.0000 H   0  0  0  0  0  0  0  0  0  0  0  0
   -4.9722   -3.3340    0.0000 H   0  0  0  0  0  0  0  0  0  0  0  0
   -3.0465   -3.4365    0.0000 H   0  0  0  0  0  0  0  0  0  0  0  0
   -1.4336   -3.8738    0.0000 H   0  0  0  0  0  0  0  0  0  0  0  0
    0.4206   -3.1308    0.0000 H   0  0  0  0  0  0  0  0  0  0  0  0
   -2.4185   -0.4961    0.0000 H   0  0  0  0  0  0  0  0  0  0  0  0
   -1.3559    0.9375    0.0000 H   0  0  0  0  0  0  0  0  0  0  0  0
    0.4185    0.1826    0.0000 H   0  0  0  0  0  0  0  0  0  0  0  0
    1.6228   -4.0115    0.0000 H   0  0  0  0  0  0  0  0  0  0  0  0
    1.9909   -2.3512    0.0000 H   0  0  0  0  0  0  0  0  0  0  0  0
    1.5663   -0.9929    0.0000 H   0  0  0  0  0  0  0  0  0  0  0  0
    1.1399   -0.5901    0.0000 H   0  0  0  0  0  0  0  0  0  0  0  0
    1.0174    0.4935    0.0000 H   0  0  0  0  0  0  0  0  0  0  0  0
    0.9839    0.6579    0.0000 H   0  0  0  0  0  0  0  0  0  0  0  0
    0.7480    2.0613    0.0000 H   0  0  0  0  0  0  0  0  0  0  0  0
    0.7428    2.5666    0.0000 H   0  0  0  0  0  0  0  0  0  0  0  0
    0.8495    3.8213    0.0000 H   0  0  0  0  0  0  0  0  0  0  0  0
    0.9401    4.3185    0.0000 H   0  0  0  0  0  0  0  0  0  0  0  0
    1.2824    5.5302    0.0000 H   0  0  0  0  0  0  0  0  0  0  0  0
    1.4654    6.0013    0.0000 H   0  0  0  0  0  0  0  0  0  0  0  0
    2.1808    7.2314    0.0000 H   0  0  0  0  0  0  0  0  0  0  0  0
    2.5739    8.1377    0.0000 H   0  0  0  0  0  0  0  0  0  0  0  0
    1.9345   -4.3996    0.0000 H   0  0  0  0  0  0  0  0  0  0  0  0
    3.1969   -5.4369    0.0000 H   0  0  0  0  0  0  0  0  0  0  0  0
    4.7409   -4.5423    0.0000 H   0  0  0  0  0  0  0  0  0  0  0  0
    5.2495   -5.6710    0.0000 H   0  0  0  0  0  0  0  0  0  0  0  0
    6.2481   -5.8828    0.0000 H   0  0  0  0  0  0  0  0  0  0  0  0
    8.6801   -7.7861    0.0000 H   0  0  0  0  0  0  0  0  0  0  0  0
    9.3364   -6.2898    0.0000 H   0  0  0  0  0  0  0  0  0  0  0  0
    5.3873   -8.1554    0.0000 H   0  0  0  0  0  0  0  0  0  0  0  0
    5.6621   -6.5448    0.0000 H   0  0  0  0  0  0  0  0  0  0  0  0
    7.9342  -10.2748    0.0000 H   0  0  0  0  0  0  0  0  0  0  0  0
    8.5499   -8.5999    0.0000 H   0  0  0  0  0  0  0  0  0  0  0  0
    4.5821   -9.6197    0.0000 H   0  0  0  0  0  0  0  0  0  0  0  0
    5.6186  -13.9987    0.0000 H   0  0  0  0  0  0  0  0  0  0  0  0
    3.8363  -12.1085    0.0000 H   0  0  0  0  0  0  0  0  0  0  0  0
    8.1468  -13.4003    0.0000 H   0  0  0  0  0  0  0  0  0  0  0  0
    8.8927  -10.9116    0.0000 H   0  0  0  0  0  0  0  0  0  0  0  0
   10.3745   -6.9644    0.0000 H   0  0  0  0  0  0  0  0  0  0  0  0
   11.3291   -6.6027    0.0000 H   0  0  0  0  0  0  0  0  0  0  0  0
   14.4040   -6.8890    0.0000 H   0  0  0  0  0  0  0  0  0  0  0  0
   14.1472   -5.2754    0.0000 H   0  0  0  0  0  0  0  0  0  0  0  0
   11.8336   -8.9798    0.0000 H   0  0  0  0  0  0  0  0  0  0  0  0
   11.1940   -7.4764    0.0000 H   0  0  0  0  0  0  0  0  0  0  0  0
   15.1220   -9.3858    0.0000 H   0  0  0  0  0  0  0  0  0  0  0  0
   14.7345   -7.6440    0.0000 H   0  0  0  0  0  0  0  0  0  0  0  0
   11.9479  -10.6471    0.0000 H   0  0  0  0  0  0  0  0  0  0  0  0
   15.1873  -13.7705    0.0000 H   0  0  0  0  0  0  0  0  0  0  0  0
   12.6659  -13.1440    0.0000 H   0  0  0  0  0  0  0  0  0  0  0  0
   16.9907  -11.9002    0.0000 H   0  0  0  0  0  0  0  0  0  0  0  0
   16.2726   -9.4034    0.0000 H   0  0  0  0  0  0  0  0  0  0  0  0
   15.3852   -5.2816    0.0000 H   0  0  0  0  0  0  0  0  0  0  0  0
   15.9927   -4.4613    0.0000 H   0  0  0  0  0  0  0  0  0  0  0  0
   18.7342   -3.0397    0.0000 H   0  0  0  0  0  0  0  0  0  0  0  0
   17.6458   -1.8211    0.0000 H   0  0  0  0  0  0  0  0  0  0  0  0
   17.7023   -6.1883    0.0000 H   0  0  0  0  0  0  0  0  0  0  0  0
   16.3514   -5.2693    0.0000 H   0  0  0  0  0  0  0  0  0  0  0  0
   20.6882   -4.7520    0.0000 H   0  0  0  0  0  0  0  0  0  0  0  0
   19.4204   -3.4962    0.0000 H   0  0  0  0  0  0  0  0  0  0  0  0
   18.6998   -7.5291    0.0000 H   0  0  0  0  0  0  0  0  0  0  0  0
   23.1137   -8.4053    0.0000 H   0  0  0  0  0  0  0  0  0  0  0  0
   20.6538   -9.2414    0.0000 H   0  0  0  0  0  0  0  0  0  0  0  0
   23.6196   -5.8570    0.0000 H   0  0  0  0  0  0  0  0  0  0  0  0
   21.6656   -4.1447    0.0000 H   0  0  0  0  0  0  0  0  0  0  0  0
   18.6907   -1.1571    0.0000 H   0  0  0  0  0  0  0  0  0  0  0  0
   18.7582   -0.1385    0.0000 H   0  0  0  0  0  0  0  0  0  0  0  0
   20.2959    2.5396    0.0000 H   0  0  0  0  0  0  0  0  0  0  0  0
   18.7215    2.9763    0.0000 H   0  0  0  0  0  0  0  0  0  0  0  0
   21.1301   -0.6671    0.0000 H   0  0  0  0  0  0  0  0  0  0  0  0
   19.4968   -0.6243    0.0000 H   0  0  0  0  0  0  0  0  0  0  0  0
   22.8655    2.1555    0.0000 H   0  0  0  0  0  0  0  0  0  0  0  0
   21.1200    2.5266    0.0000 H   0  0  0  0  0  0  0  0  0  0  0  0
   22.6942   -1.2557    0.0000 H   0  0  0  0  0  0  0  0  0  0  0  0
   26.8811    0.3935    0.0000 H   0  0  0  0  0  0  0  0  0  0  0  0
   25.2637   -1.6398    0.0000 H   0  0  0  0  0  0  0  0  0  0  0  0
   25.9289    2.8108    0.0000 H   0  0  0  0  0  0  0  0  0  0  0  0
   23.3594    3.1949    0.0000 H   0  0  0  0  0  0  0  0  0  0  0  0
   19.2415    4.0999    0.0000 H   0  0  0  0  0  0  0  0  0  0  0  0
   18.7476    4.9932    0.0000 H   0  0  0  0  0  0  0  0  0  0  0  0
   18.5934    8.0776    0.0000 H   0  0  0  0  0  0  0  0  0  0  0  0
   17.0328    7.5937    0.0000 H   0  0  0  0  0  0  0  0  0  0  0  0
   21.0288    5.8309    0.0000 H   0  0  0  0  0  0  0  0  0  0  0  0
   19.6316    4.9839    0.0000 H   0  0  0  0  0  0  0  0  0  0  0  0
   20.9626    9.1436    0.0000 H   0  0  0  0  0  0  0  0  0  0  0  0
   19.2937    8.5122    0.0000 H   0  0  0  0  0  0  0  0  0  0  0  0
   22.6628    6.1813    0.0000 H   0  0  0  0  0  0  0  0  0  0  0  0
   25.2934    9.8323    0.0000 H   0  0  0  0  0  0  0  0  0  0  0  0
   25.0320    7.2474    0.0000 H   0  0  0  0  0  0  0  0  0  0  0  0
   23.1855   11.3511    0.0000 H   0  0  0  0  0  0  0  0  0  0  0  0
   20.8162   10.2850    0.0000 H   0  0  0  0  0  0  0  0  0  0  0  0
   16.7433    8.9589    0.0000 H   0  0  0  0  0  0  0  0  0  0  0  0
   15.9022    9.4769    0.0000 H   0  0  0  0  0  0  0  0  0  0  0  0
   15.9415   11.0610    0.0000 H   0  0  0  0  0  0  0  0  0  0  0  0
   14.3452   11.8585    0.0000 H   0  0  0  0  0  0  0  0  0  0  0  0
   13.1158   10.5652    0.0000 H   0  0  0  0  0  0  0  0  0  0  0  0
   12.3097   11.5049    0.0000 H   0  0  0  0  0  0  0  0  0  0  0  0
    7.8352   11.3463    0.0000 H   0  0  0  0  0  0  0  0  0  0  0  0
    9.0470   11.6885    0.0000 H   0  0  0  0  0  0  0  0  0  0  0  0
    6.3059   10.9085    0.0000 H   0  0  0  0  0  0  0  0  0  0  0  0
    7.3084   11.3378    0.0000 H   0  0  0  0  0  0  0  0  0  0  0  0
    4.6698    9.8962    0.0000 H   0  0  0  0  0  0  0  0  0  0  0  0
    5.8483   10.6938    0.0000 H   0  0  0  0  0  0  0  0  0  0  0  0
    3.7925    9.4423    0.0000 H   0  0  0  0  0  0  0  0  0  0  0  0
   10.6571   12.9561    0.0000 H   0  0  0  0  0  0  0  0  0  0  0  0
   12.2427   12.5620    0.0000 H   0  0  0  0  0  0  0  0  0  0  0  0
   12.4462   10.7892    0.0000 H   0  0  0  0  0  0  0  0  0  0  0  0
  1  2  1  0
  2  3  1  0
  3  4  1  0
  4  5  2  0
  4  6  1  0
  6  7  1  0
  7  8  1  0
  8  9  1  0
  9 10  1  0
 10 11  1  0
 11 12  1  0
 12 13  2  3
 12 14  1  0
  7 15  1  0
 15 16  2  0
 15 17  1  0
 17 18  1  0
 18 19  1  0
 19 20  1  0
 20 21  1  0
 21 22  1  0
 22 23  1  0
 23 24  2  3
 23 25  1  0
 18 26  1  0
 26 27  2  0
 26 28  1  0
 28 29  1  0
 29 30  1  0
 30 31  2  0
 30 32  1  0
 32 33  1  0
 33 34  1  0
 34 35  1  0
 33 36  1  0
 36 37  2  0
 36 38  1  0
 38 39  1  0
 39 40  1  0
 40 41  1  0
 41 42  1  0
 42 43  1  0
 43 44  1  0
 44 45  2  3
 44 46  1  0
 39 47  1  0
 47 48  2  0
 47 49  1  0
 49 50  1  0
 50 51  1  0
 51 52  1  0
 52 53  1  0
 53 54  1  0
 54 55  2  0
 54 56  1  0
 56 57  1  0
 57 58  1  0
 58 59  1  0
 57 60  1  0
 60 61  2  0
 60 62  1  0
 62 63  1  0
 63 64  1  0
 64 65  2  0
 64 66  1  0
 66 67  1  0
 67 68  1  0
 67 69  1  0
 69 70  2  0
 69 71  1  0
 72 71  1  6
 72 73  1  0
 73 74  1  0
 74 75  1  0
 75 76  1  0
 76 77  1  0
 77 78  1  0
 78 79  1  0
 72 80  1  0
 72 81  1  0
 81 82  2  0
 81 83  1  0
 83 84  1  0
 84 85  1  0
 85 86  1  0
 86 87  1  0
 87 88  1  0
 88 89  1  0
 89 90  2  3
 89 91  1  0
 84 92  1  0
 92 93  2  0
 92 94  1  0
 94 95  1  0
 95 96  1  0
 96 97  1  0
 97 98  1  0
 98 99  1  0
 99100  1  0
100101  2  3
100102  1  0
 95103  1  0
103104  2  0
103105  1  0
105106  1  0
106107  1  0
107108  1  0
108109  1  0
109110  1  0
110111  1  0
111112  2  3
111113  1  0
106114  1  0
114115  2  0
114116  1  0
116117  1  0
117118  1  0
118119  1  0
119120  1  0
120121  1  0
121122  1  0
122123  2  3
122124  1  0
117125  1  0
125126  2  0
125127  1  0
127128  1  0
128129  1  0
129130  1  0
130131  1  0
131132  1  0
132133  1  0
133134  2  3
133135  1  0
128136  1  0
136137  2  0
136138  1  0
138139  1  0
139140  1  0
139141  1  0
141142  2  0
141143  1  0
143144  1  0
144145  1  0
145146  1  0
146147  1  0
147148  1  0
144149  1  0
144150  1  1
150151  2  0
150152  1  0
 53 49  1  0
 79148  2  0
  1153  1  0
  1154  1  0
  2155  1  0
  2156  1  0
  3157  1  0
  3158  1  0
  6159  1  0
  7160  1  1
  8161  1  0
  8162  1  0
  9163  1  0
  9164  1  0
 10165  1  0
 10166  1  0
 11167  1  0
 13168  1  0
 13169  1  0
 14170  1  0
 14171  1  0
 17172  1  0
 18173  1  6
 19174  1  0
 19175  1  0
 20176  1  0
 20177  1  0
 21178  1  0
 21179  1  0
 22180  1  0
 24181  1  0
 24182  1  0
 25183  1  0
 25184  1  0
 28185  1  0
 29186  1  0
 29187  1  0
 32188  1  0
 33189  1  1
 34190  1  0
 34191  1  0
 35192  1  0
 38193  1  0
 39194  1  6
 40195  1  0
 40196  1  0
 41197  1  0
 41198  1  0
 42199  1  0
 42200  1  0
 43201  1  0
 45202  1  0
 45203  1  0
 46204  1  0
 46205  1  0
 50206  1  0
 50207  1  0
 51208  1  0
 51209  1  0
 52210  1  0
 52211  1  0
 53212  1  0
 56213  1  0
 57214  1  6
 58215  1  0
 58216  1  0
 59217  1  0
 62218  1  0
 63219  1  0
 63220  1  0
 66221  1  0
 67222  1  1
 68223  1  0
 68224  1  0
 68225  1  0
 71226  1  0
 73227  1  0
 73228  1  0
 74229  1  0
 74230  1  0
 75231  1  0
 75232  1  0
 76233  1  0
 76234  1  0
 77235  1  0
 77236  1  0
 78237  1  0
 78238  1  0
 79239  1  0
 80240  1  0
 80241  1  0
 80242  1  0
 83243  1  0
 84244  1  6
 85245  1  0
 85246  1  0
 86247  1  0
 86248  1  0
 87249  1  0
 87250  1  0
 88251  1  0
 90252  1  0
 90253  1  0
 91254  1  0
 91255  1  0
 94256  1  0
 95257  1  6
 96258  1  0
 96259  1  0
 97260  1  0
 97261  1  0
 98262  1  0
 98263  1  0
 99264  1  0
101265  1  0
101266  1  0
102267  1  0
102268  1  0
105269  1  0
106270  1  6
107271  1  0
107272  1  0
108273  1  0
108274  1  0
109275  1  0
109276  1  0
110277  1  0
112278  1  0
112279  1  0
113280  1  0
113281  1  0
116282  1  0
117283  1  6
118284  1  0
118285  1  0
119286  1  0
119287  1  0
120288  1  0
120289  1  0
121290  1  0
123291  1  0
123292  1  0
124293  1  0
124294  1  0
127295  1  0
128296  1  6
129297  1  0
129298  1  0
130299  1  0
130300  1  0
131301  1  0
131302  1  0
132303  1  0
134304  1  0
134305  1  0
135306  1  0
135307  1  0
138308  1  0
139309  1  6
140310  1  0
140311  1  0
140312  1  0
143313  1  0
145314  1  0
145315  1  0
146316  1  0
146317  1  0
147318  1  0
147319  1  0
148320  1  0
149321  1  0
149322  1  0
149323  1  0
M  CHG  8  13   1  24   1  45   1  90   1 101   1 112   1 123   1 134   1
M  CHG  1 152  -1
M  END
