
     RDKit          2D

352358  0  0  0  0  0  0  0  0999 V2000
   22.0186   -9.8318    0.0000 C   0  0  0  0  0  0  0  0  0  0  0  0
   23.5142   -9.7178    0.0000 N   0  0  0  0  0  0  0  0  0  0  0  0
   24.3608  -10.9561    0.0000 C   0  0  0  0  0  0  0  0  0  0  0  0
   23.7116  -12.3084    0.0000 C   0  0  0  0  0  0  0  0  0  0  0  0
   24.5582  -13.5467    0.0000 C   0  0  0  0  0  0  0  0  0  0  0  0
   26.0538  -13.4327    0.0000 C   0  0  0  0  0  0  0  0  0  0  0  0
   26.7030  -12.0805    0.0000 C   0  0  0  0  0  0  0  0  0  0  0  0
   25.8564  -10.8422    0.0000 C   0  0  0  0  0  0  0  0  0  0  0  0
   28.1896  -12.2799    0.0000 C   0  0  0  0  0  0  0  0  0  0  0  0
   28.4593  -13.7555    0.0000 O   0  0  0  0  0  0  0  0  0  0  0  0
   27.1393  -14.4680    0.0000 C   0  0  0  0  0  0  0  0  0  0  0  0
   26.9398  -15.9546    0.0000 O   0  0  0  0  0  0  0  0  0  0  0  0
   29.6473  -12.6337    0.0000 C   0  0  0  0  0  0  0  0  0  0  0  0
   30.6826  -11.5482    0.0000 C   0  0  0  0  0  0  0  0  0  0  0  0
   32.1402  -11.9020    0.0000 C   0  0  0  0  0  0  0  0  0  0  0  0
   32.5627  -13.3413    0.0000 C   0  0  0  0  0  0  0  0  0  0  0  0
   31.5275  -14.4268    0.0000 C   0  0  0  0  0  0  0  0  0  0  0  0
   30.0698  -14.0730    0.0000 C   0  0  0  0  0  0  0  0  0  0  0  0
   34.0204  -13.6951    0.0000 O   0  0  0  0  0  0  0  0  0  0  0  0
   30.2601  -10.1090    0.0000 O   0  0  0  0  0  0  0  0  0  0  0  0
   28.8024   -9.7552    0.0000 C   0  0  0  0  0  0  0  0  0  0  0  0
   27.7672  -10.8407    0.0000 C   0  0  0  0  0  0  0  0  0  0  0  0
   26.7926   -9.9803    0.0000 C   0  0  0  0  0  0  0  0  0  0  0  0
   26.5673   -9.2127    0.0000 C   0  0  0  0  0  0  0  0  0  0  0  0
   27.1195   -8.6338    0.0000 C   0  0  0  0  0  0  0  0  0  0  0  0
   27.8969   -8.8224    0.0000 C   0  0  0  0  0  0  0  0  0  0  0  0
   26.4999   -6.5228    0.0000 O   0  0  0  0  0  0  0  0  0  0  0  0
   21.3694  -11.1841    0.0000 S   0  0  0  0  0  0  0  0  0  0  0  0
   21.1720   -8.5935    0.0000 N   0  0  0  0  0  0  0  0  0  0  0  0
   19.6764   -8.7075    0.0000 C   0  0  0  0  0  0  0  0  0  0  0  0
   18.8299   -7.4692    0.0000 C   0  0  0  0  0  0  0  0  0  0  0  0
   17.3342   -7.5831    0.0000 C   0  0  0  0  0  0  0  0  0  0  0  0
   17.1734   -8.3639    0.0000 O   0  0  0  0  0  0  0  0  0  0  0  0
   16.4877   -6.3448    0.0000 N   0  0  0  0  0  0  0  0  0  0  0  0
   14.9920   -6.4588    0.0000 C   0  0  0  0  0  0  0  0  0  0  0  0
   15.3639   -7.9120    0.0000 C   0  0  0  0  0  0  0  0  0  0  0  0
   16.8084   -8.3164    0.0000 C   0  0  0  0  0  0  0  0  0  0  0  0
   17.1803   -9.7696    0.0000 C   0  0  0  0  0  0  0  0  0  0  0  0
   18.5647  -10.3471    0.0000 O   0  0  0  0  0  0  0  0  0  0  0  0
   16.1079  -10.8183    0.0000 O   0  0  0  0  0  0  0  0  0  0  0  0
   13.5475   -6.0544    0.0000 C   0  0  0  0  0  0  0  0  0  0  0  0
   12.7607   -7.3314    0.0000 O   0  0  0  0  0  0  0  0  0  0  0  0
   13.1756   -4.6012    0.0000 N   0  0  0  0  0  0  0  0  0  0  0  0
   11.7311   -4.1968    0.0000 C   0  0  0  0  0  0  0  0  0  0  0  0
   11.5837   -5.6895    0.0000 C   0  0  0  0  0  0  0  0  0  0  0  0
   12.8027   -6.5636    0.0000 C   0  0  0  0  0  0  0  0  0  0  0  0
   12.6552   -8.0563    0.0000 C   0  0  0  0  0  0  0  0  0  0  0  0
   13.7586   -9.0725    0.0000 O   0  0  0  0  0  0  0  0  0  0  0  0
   11.2887   -8.6750    0.0000 O   0  0  0  0  0  0  0  0  0  0  0  0
   10.5121   -3.3227    0.0000 C   0  0  0  0  0  0  0  0  0  0  0  0
    9.2313   -4.1033    0.0000 O   0  0  0  0  0  0  0  0  0  0  0  0
   10.6596   -1.8299    0.0000 N   0  0  0  0  0  0  0  0  0  0  0  0
    9.4406   -0.9558    0.0000 C   0  0  0  0  0  0  0  0  0  0  0  0
    8.7915   -2.3081    0.0000 C   0  0  0  0  0  0  0  0  0  0  0  0
    8.5941    0.2825    0.0000 C   0  0  0  0  0  0  0  0  0  0  0  0
    7.1704   -0.1900    0.0000 O   0  0  0  0  0  0  0  0  0  0  0  0
    9.2432    1.6347    0.0000 N   0  0  0  0  0  0  0  0  0  0  0  0
    8.3967    2.8730    0.0000 C   0  0  0  0  0  0  0  0  0  0  0  0
    7.6631    1.5646    0.0000 C   0  0  0  0  0  0  0  0  0  0  0  0
    6.6952    0.4187    0.0000 C   0  0  0  0  0  0  0  0  0  0  0  0
    5.5278   -0.5233    0.0000 C   0  0  0  0  0  0  0  0  0  0  0  0
    4.2033   -1.2273    0.0000 C   0  0  0  0  0  0  0  0  0  0  0  0
    2.7695   -1.6680    0.0000 C   0  0  0  0  0  0  0  0  0  0  0  0
    1.2782   -1.8294    0.0000 C   0  0  0  0  0  0  0  0  0  0  0  0
   -0.2166   -1.7056    0.0000 C   0  0  0  0  0  0  0  0  0  0  0  0
    9.8821    3.0816    0.0000 C   0  0  0  0  0  0  0  0  0  0  0  0
    8.8694    4.2966    0.0000 C   0  0  0  0  0  0  0  0  0  0  0  0
   10.3614    4.1420    0.0000 O   0  0  0  0  0  0  0  0  0  0  0  0
    9.0642    5.7839    0.0000 N   0  0  0  0  0  0  0  0  0  0  0  0
    8.9740    7.2812    0.0000 C   0  0  0  0  0  0  0  0  0  0  0  0
   10.1108    8.2597    0.0000 C   0  0  0  0  0  0  0  0  0  0  0  0
   11.5267    7.7645    0.0000 C   0  0  0  0  0  0  0  0  0  0  0  0
   12.6635    8.7431    0.0000 C   0  0  0  0  0  0  0  0  0  0  0  0
   14.0794    8.2478    0.0000 C   0  0  0  0  0  0  0  0  0  0  0  0
   15.2162    9.2264    0.0000 N   0  0  0  0  0  0  0  0  0  0  0  0
    8.6020    8.7343    0.0000 C   0  0  0  0  0  0  0  0  0  0  0  0
    9.9407    9.4110    0.0000 O   0  0  0  0  0  0  0  0  0  0  0  0
    7.9618   10.0908    0.0000 N   0  0  0  0  0  0  0  0  0  0  0  0
    7.0764   11.3016    0.0000 C   0  0  0  0  0  0  0  0  0  0  0  0
    7.5037   12.7395    0.0000 C   0  0  0  0  0  0  0  0  0  0  0  0
    8.9625   13.0883    0.0000 C   0  0  0  0  0  0  0  0  0  0  0  0
    9.3899   14.5262    0.0000 C   0  0  0  0  0  0  0  0  0  0  0  0
   10.8487   14.8750    0.0000 N   0  0  0  0  0  0  0  0  0  0  0  0
   11.2760   16.3129    0.0000 C   0  0  0  0  0  0  0  0  0  0  0  0
   12.7349   16.6617    0.0000 N   0  0  0  0  0  0  0  0  0  0  0  0
   10.2445   17.4019    0.0000 N   0  0  0  0  0  0  0  0  0  0  0  0
    5.9778   12.3230    0.0000 C   0  0  0  0  0  0  0  0  0  0  0  0
    6.7382   13.6160    0.0000 O   0  0  0  0  0  0  0  0  0  0  0  0
    4.7058   13.1180    0.0000 N   0  0  0  0  0  0  0  0  0  0  0  0
    3.3064   13.6579    0.0000 C   0  0  0  0  0  0  0  0  0  0  0  0
    2.8885   15.0986    0.0000 C   0  0  0  0  0  0  0  0  0  0  0  0
    3.9272   16.1808    0.0000 C   0  0  0  0  0  0  0  0  0  0  0  0
    3.5093   17.6214    0.0000 C   0  0  0  0  0  0  0  0  0  0  0  0
    4.5480   18.7036    0.0000 N   0  0  0  0  0  0  0  0  0  0  0  0
    4.1301   20.1442    0.0000 C   0  0  0  0  0  0  0  0  0  0  0  0
    5.1688   21.2264    0.0000 N   0  0  0  0  0  0  0  0  0  0  0  0
    2.6735   20.5026    0.0000 N   0  0  0  0  0  0  0  0  0  0  0  0
    1.8300   13.9233    0.0000 C   0  0  0  0  0  0  0  0  0  0  0  0
    1.7707   15.4221    0.0000 O   0  0  0  0  0  0  0  0  0  0  0  0
    0.3301   13.9044    0.0000 N   0  0  0  0  0  0  0  0  0  0  0  0
   -1.1391   13.6020    0.0000 C   0  0  0  0  0  0  0  0  0  0  0  0
   -2.2695   14.5880    0.0000 C   0  0  0  0  0  0  0  0  0  0  0  0
   -2.5245   13.0270    0.0000 C   0  0  0  0  0  0  0  0  0  0  0  0
   -3.3848   14.2558    0.0000 O   0  0  0  0  0  0  0  0  0  0  0  0
   -3.7761   12.2002    0.0000 N   0  0  0  0  0  0  0  0  0  0  0  0
   -4.8486   11.1515    0.0000 C   0  0  0  0  0  0  0  0  0  0  0  0
   -6.3326   11.3699    0.0000 C   0  0  0  0  0  0  0  0  0  0  0  0
   -6.8855   12.7643    0.0000 C   0  0  0  0  0  0  0  0  0  0  0  0
   -8.3386   13.1365    0.0000 C   0  0  0  0  0  0  0  0  0  0  0  0
   -8.4335   14.6335    0.0000 N   0  0  0  0  0  0  0  0  0  0  0  0
   -7.0392   15.1864    0.0000 C   0  0  0  0  0  0  0  0  0  0  0  0
   -6.0824   14.0312    0.0000 N   0  0  0  0  0  0  0  0  0  0  0  0
   -5.7032    9.9188    0.0000 C   0  0  0  0  0  0  0  0  0  0  0  0
   -7.0912   10.4875    0.0000 O   0  0  0  0  0  0  0  0  0  0  0  0
   -6.3091    8.5466    0.0000 N   0  0  0  0  0  0  0  0  0  0  0  0
   -6.6444    7.0846    0.0000 C   0  0  0  0  0  0  0  0  0  0  0  0
   -8.0108    6.4659    0.0000 C   0  0  0  0  0  0  0  0  0  0  0  0
   -6.6969    5.5855    0.0000 C   0  0  0  0  0  0  0  0  0  0  0  0
   -8.1720    5.3134    0.0000 O   0  0  0  0  0  0  0  0  0  0  0  0
   -6.4647    4.1036    0.0000 N   0  0  0  0  0  0  0  0  0  0  0  0
   -5.9563    2.6924    0.0000 C   0  0  0  0  0  0  0  0  0  0  0  0
   -5.1900    1.4029    0.0000 C   0  0  0  0  0  0  0  0  0  0  0  0
   -4.1935    0.2817    0.0000 C   0  0  0  0  0  0  0  0  0  0  0  0
   -3.0029   -0.6306    0.0000 C   0  0  0  0  0  0  0  0  0  0  0  0
   -1.6611   -1.3011    0.0000 C   0  0  0  0  0  0  0  0  0  0  0  0
   -7.4465    2.8635    0.0000 C   0  0  0  0  0  0  0  0  0  0  0  0
   -6.7714    1.4331    0.0000 C   0  0  0  0  0  0  0  0  0  0  0  0
   -6.4319   -0.0279    0.0000 O   0  0  0  0  0  0  0  0  0  0  0  0
   -8.2695    1.5094    0.0000 N   0  0  0  0  0  0  0  0  0  0  0  0
   -9.0846    0.2502    0.0000 C   0  0  0  0  0  0  0  0  0  0  0  0
   -9.4198   -1.2118    0.0000 C   0  0  0  0  0  0  0  0  0  0  0  0
  -10.5826    0.3265    0.0000 C   0  0  0  0  0  0  0  0  0  0  0  0
  -11.2656    1.6620    0.0000 O   0  0  0  0  0  0  0  0  0  0  0  0
  -11.3977   -0.9327    0.0000 N   0  0  0  0  0  0  0  0  0  0  0  0
  -12.8958   -0.8564    0.0000 C   0  0  0  0  0  0  0  0  0  0  0  0
  -14.2774   -0.2724    0.0000 C   0  0  0  0  0  0  0  0  0  0  0  0
  -14.4624    1.2162    0.0000 C   0  0  0  0  0  0  0  0  0  0  0  0
  -15.8440    1.8002    0.0000 C   0  0  0  0  0  0  0  0  0  0  0  0
  -16.0290    3.2888    0.0000 O   0  0  0  0  0  0  0  0  0  0  0  0
  -17.0407    0.8957    0.0000 O   0  0  0  0  0  0  0  0  0  0  0  0
  -13.7109   -2.1156    0.0000 C   0  0  0  0  0  0  0  0  0  0  0  0
  -13.0279   -3.4511    0.0000 O   0  0  0  0  0  0  0  0  0  0  0  0
  -15.2089   -2.0393    0.0000 N   0  0  0  0  0  0  0  0  0  0  0  0
  -16.0240   -3.2986    0.0000 C   0  0  0  0  0  0  0  0  0  0  0  0
  -16.3593   -4.7606    0.0000 C   0  0  0  0  0  0  0  0  0  0  0  0
  -17.7931   -5.2013    0.0000 C   0  0  0  0  0  0  0  0  0  0  0  0
  -18.1284   -6.6633    0.0000 C   0  0  0  0  0  0  0  0  0  0  0  0
  -19.5622   -7.1040    0.0000 N   0  0  0  0  0  0  0  0  0  0  0  0
  -19.8974   -8.5661    0.0000 C   0  0  0  0  0  0  0  0  0  0  0  0
  -21.3743   -8.8287    0.0000 N   0  0  0  0  0  0  0  0  0  0  0  0
  -18.7989   -9.5874    0.0000 N   0  0  0  0  0  0  0  0  0  0  0  0
  -17.5221   -3.2223    0.0000 C   0  0  0  0  0  0  0  0  0  0  0  0
  -18.2051   -1.8868    0.0000 O   0  0  0  0  0  0  0  0  0  0  0  0
  -18.3372   -4.4815    0.0000 N   0  0  0  0  0  0  0  0  0  0  0  0
  -19.8352   -4.4052    0.0000 C   0  0  0  0  0  0  0  0  0  0  0  0
  -21.2169   -3.8211    0.0000 C   0  0  0  0  0  0  0  0  0  0  0  0
  -20.6503   -5.6644    0.0000 C   0  0  0  0  0  0  0  0  0  0  0  0
  -20.3108   -7.1255    0.0000 O   0  0  0  0  0  0  0  0  0  0  0  0
  -22.1484   -5.5881    0.0000 N   0  0  0  0  0  0  0  0  0  0  0  0
  -22.9635   -6.8473    0.0000 C   0  0  0  0  0  0  0  0  0  0  0  0
  -23.2988   -8.3094    0.0000 C   0  0  0  0  0  0  0  0  0  0  0  0
  -24.7326   -8.7501    0.0000 C   0  0  0  0  0  0  0  0  0  0  0  0
  -25.0678  -10.2121    0.0000 C   0  0  0  0  0  0  0  0  0  0  0  0
  -26.5016  -10.6528    0.0000 N   0  0  0  0  0  0  0  0  0  0  0  0
  -26.8369  -12.1149    0.0000 C   0  0  0  0  0  0  0  0  0  0  0  0
  -28.2707  -12.5555    0.0000 N   0  0  0  0  0  0  0  0  0  0  0  0
  -25.7384  -13.1362    0.0000 N   0  0  0  0  0  0  0  0  0  0  0  0
  -24.4616   -6.7710    0.0000 C   0  0  0  0  0  0  0  0  0  0  0  0
  -25.1445   -5.4355    0.0000 O   0  0  0  0  0  0  0  0  0  0  0  0
  -25.2767   -8.0303    0.0000 N   0  0  0  0  0  0  0  0  0  0  0  0
  -26.7747   -7.9540    0.0000 C   0  0  0  0  0  0  0  0  0  0  0  0
  -28.1563   -7.3699    0.0000 C   0  0  0  0  0  0  0  0  0  0  0  0
  -28.3413   -5.8814    0.0000 C   0  0  0  0  0  0  0  0  0  0  0  0
  -29.7230   -5.2973    0.0000 C   0  0  0  0  0  0  0  0  0  0  0  0
  -29.9080   -3.8088    0.0000 N   0  0  0  0  0  0  0  0  0  0  0  0
  -31.2896   -3.2247    0.0000 C   0  0  0  0  0  0  0  0  0  0  0  0
  -31.4746   -1.7362    0.0000 N   0  0  0  0  0  0  0  0  0  0  0  0
  -32.4862   -4.1292    0.0000 N   0  0  0  0  0  0  0  0  0  0  0  0
  -27.5898   -9.2132    0.0000 C   0  0  0  0  0  0  0  0  0  0  0  0
  -29.0860   -9.3201    0.0000 O   0  0  0  0  0  0  0  0  0  0  0  0
  -27.2503  -10.6743    0.0000 O   0  0  0  0  0  0  0  0  0  0  0  0
   23.9937   -8.2965    0.0000 H   0  0  0  0  0  0  0  0  0  0  0  0
   22.2160  -12.4224    0.0000 H   0  0  0  0  0  0  0  0  0  0  0  0
   23.9090  -14.8990    0.0000 H   0  0  0  0  0  0  0  0  0  0  0  0
   26.1591   -9.3730    0.0000 H   0  0  0  0  0  0  0  0  0  0  0  0
   33.1755  -10.8166    0.0000 H   0  0  0  0  0  0  0  0  0  0  0  0
   31.9499  -15.8661    0.0000 H   0  0  0  0  0  0  0  0  0  0  0  0
   29.0345  -15.1585    0.0000 H   0  0  0  0  0  0  0  0  0  0  0  0
   34.4428  -15.1344    0.0000 H   0  0  0  0  0  0  0  0  0  0  0  0
   25.2743  -11.5724    0.0000 H   0  0  0  0  0  0  0  0  0  0  0  0
   24.4834   -8.5187    0.0000 H   0  0  0  0  0  0  0  0  0  0  0  0
   29.4152   -7.2304    0.0000 H   0  0  0  0  0  0  0  0  0  0  0  0
   27.5351   -5.4373    0.0000 H   0  0  0  0  0  0  0  0  0  0  0  0
   21.8212   -7.2412    0.0000 H   0  0  0  0  0  0  0  0  0  0  0  0
   20.0483  -10.1606    0.0000 H   0  0  0  0  0  0  0  0  0  0  0  0
   18.3955   -9.4881    0.0000 H   0  0  0  0  0  0  0  0  0  0  0  0
   20.1963   -6.8505    0.0000 H   0  0  0  0  0  0  0  0  0  0  0  0
   18.4579   -6.0160    0.0000 H   0  0  0  0  0  0  0  0  0  0  0  0
   17.1368   -4.9926    0.0000 H   0  0  0  0  0  0  0  0  0  0  0  0
   15.1395   -4.9661    0.0000 H   0  0  0  0  0  0  0  0  0  0  0  0
   15.2165   -9.4047    0.0000 H   0  0  0  0  0  0  0  0  0  0  0  0
   13.8933   -8.2074    0.0000 H   0  0  0  0  0  0  0  0  0  0  0  0
   18.3041   -8.2024    0.0000 H   0  0  0  0  0  0  0  0  0  0  0  0
   17.3127   -6.9037    0.0000 H   0  0  0  0  0  0  0  0  0  0  0  0
   16.4798  -12.2714    0.0000 H   0  0  0  0  0  0  0  0  0  0  0  0
   14.2481   -3.5525    0.0000 H   0  0  0  0  0  0  0  0  0  0  0  0
   12.3803   -2.8445    0.0000 H   0  0  0  0  0  0  0  0  0  0  0  0
   10.9345   -7.0418    0.0000 H   0  0  0  0  0  0  0  0  0  0  0  0
   10.1392   -5.2850    0.0000 H   0  0  0  0  0  0  0  0  0  0  0  0
   14.2471   -6.9680    0.0000 H   0  0  0  0  0  0  0  0  0  0  0  0
   13.7597   -5.4086    0.0000 H   0  0  0  0  0  0  0  0  0  0  0  0
   11.1412  -10.1677    0.0000 H   0  0  0  0  0  0  0  0  0  0  0  0
   12.0261   -1.2113    0.0000 H   0  0  0  0  0  0  0  0  0  0  0  0
   10.5131    0.0929    0.0000 H   0  0  0  0  0  0  0  0  0  0  0  0
    9.4808   -3.6404    0.0000 H   0  0  0  0  0  0  0  0  0  0  0  0
    7.7190   -3.3568    0.0000 H   0  0  0  0  0  0  0  0  0  0  0  0
    7.5725   -1.4340    0.0000 H   0  0  0  0  0  0  0  0  0  0  0  0
   10.7416    1.5655    0.0000 H   0  0  0  0  0  0  0  0  0  0  0  0
    9.0982    1.1281    0.0000 H   0  0  0  0  0  0  0  0  0  0  0  0
    8.0878    0.1260    0.0000 H   0  0  0  0  0  0  0  0  0  0  0  0
    7.9264   -0.4379    0.0000 H   0  0  0  0  0  0  0  0  0  0  0  0
    7.0208   -1.0455    0.0000 H   0  0  0  0  0  0  0  0  0  0  0  0
    6.8902   -1.1509    0.0000 H   0  0  0  0  0  0  0  0  0  0  0  0
    5.7530   -2.0063    0.0000 H   0  0  0  0  0  0  0  0  0  0  0  0
    5.3067   -2.2435    0.0000 H   0  0  0  0  0  0  0  0  0  0  0  0
    4.1437   -2.7261    0.0000 H   0  0  0  0  0  0  0  0  0  0  0  0
    3.6606   -2.8746    0.0000 H   0  0  0  0  0  0  0  0  0  0  0  0
    2.4274   -3.1285    0.0000 H   0  0  0  0  0  0  0  0  0  0  0  0
    1.9249   -3.1828    0.0000 H   0  0  0  0  0  0  0  0  0  0  0  0
    0.5035   -3.1138    0.0000 H   0  0  0  0  0  0  0  0  0  0  0  0
   -0.4820   -3.1819    0.0000 H   0  0  0  0  0  0  0  0  0  0  0  0
   10.9427    2.0209    0.0000 H   0  0  0  0  0  0  0  0  0  0  0  0
   11.2826    3.6190    0.0000 H   0  0  0  0  0  0  0  0  0  0  0  0
    9.7777    4.5780    0.0000 H   0  0  0  0  0  0  0  0  0  0  0  0
   10.5457    5.5490    0.0000 H   0  0  0  0  0  0  0  0  0  0  0  0
   10.2741    6.5331    0.0000 H   0  0  0  0  0  0  0  0  0  0  0  0
   10.8444    9.5681    0.0000 H   0  0  0  0  0  0  0  0  0  0  0  0
    9.2140    9.4621    0.0000 H   0  0  0  0  0  0  0  0  0  0  0  0
   12.5634    6.6804    0.0000 H   0  0  0  0  0  0  0  0  0  0  0  0
   11.1315    6.3175    0.0000 H   0  0  0  0  0  0  0  0  0  0  0  0
   13.3971   10.0514    0.0000 H   0  0  0  0  0  0  0  0  0  0  0  0
   11.6268    9.8271    0.0000 H   0  0  0  0  0  0  0  0  0  0  0  0
   15.2405    7.2982    0.0000 H   0  0  0  0  0  0  0  0  0  0  0  0
   13.5108    6.8598    0.0000 H   0  0  0  0  0  0  0  0  0  0  0  0
   16.6321    8.7311    0.0000 H   0  0  0  0  0  0  0  0  0  0  0  0
   14.9372   10.7002    0.0000 H   0  0  0  0  0  0  0  0  0  0  0  0
    9.3350   10.6942    0.0000 H   0  0  0  0  0  0  0  0  0  0  0  0
    8.5746   11.3752    0.0000 H   0  0  0  0  0  0  0  0  0  0  0  0
    7.4135   14.2368    0.0000 H   0  0  0  0  0  0  0  0  0  0  0  0
    6.0992   13.2661    0.0000 H   0  0  0  0  0  0  0  0  0  0  0  0
   10.4527   12.9172    0.0000 H   0  0  0  0  0  0  0  0  0  0  0  0
    9.4124   11.6574    0.0000 H   0  0  0  0  0  0  0  0  0  0  0  0
    9.2996   16.0235    0.0000 H   0  0  0  0  0  0  0  0  0  0  0  0
    7.9316   14.8777    0.0000 H   0  0  0  0  0  0  0  0  0  0  0  0
   11.8803   13.7860    0.0000 H   0  0  0  0  0  0  0  0  0  0  0  0
   13.1622   18.0996    0.0000 H   0  0  0  0  0  0  0  0  0  0  0  0
   10.6718   18.8397    0.0000 H   0  0  0  0  0  0  0  0  0  0  0  0
    8.7856   17.0530    0.0000 H   0  0  0  0  0  0  0  0  0  0  0  0
    5.5349   14.3681    0.0000 H   0  0  0  0  0  0  0  0  0  0  0  0
    4.5270   14.5298    0.0000 H   0  0  0  0  0  0  0  0  0  0  0  0
    2.0031   16.3094    0.0000 H   0  0  0  0  0  0  0  0  0  0  0  0
    1.4222   14.7823    0.0000 H   0  0  0  0  0  0  0  0  0  0  0  0
    5.2733   16.8424    0.0000 H   0  0  0  0  0  0  0  0  0  0  0  0
    5.0792   15.2202    0.0000 H   0  0  0  0  0  0  0  0  0  0  0  0
    2.6239   18.8322    0.0000 H   0  0  0  0  0  0  0  0  0  0  0  0
    2.0925   17.1287    0.0000 H   0  0  0  0  0  0  0  0  0  0  0  0
    6.0045   18.3452    0.0000 H   0  0  0  0  0  0  0  0  0  0  0  0
    4.7509   22.6670    0.0000 H   0  0  0  0  0  0  0  0  0  0  0  0
    2.2557   21.9432    0.0000 H   0  0  0  0  0  0  0  0  0  0  0  0
    1.6349   19.4204    0.0000 H   0  0  0  0  0  0  0  0  0  0  0  0
    0.1688   15.3957    0.0000 H   0  0  0  0  0  0  0  0  0  0  0  0
   -0.7576   15.0527    0.0000 H   0  0  0  0  0  0  0  0  0  0  0  0
   -1.9808   16.0599    0.0000 H   0  0  0  0  0  0  0  0  0  0  0  0
   -3.5927   15.2945    0.0000 H   0  0  0  0  0  0  0  0  0  0  0  0
   -3.3320   13.5292    0.0000 H   0  0  0  0  0  0  0  0  0  0  0  0
   -4.7181   13.3676    0.0000 H   0  0  0  0  0  0  0  0  0  0  0  0
   -5.3119   12.5782    0.0000 H   0  0  0  0  0  0  0  0  0  0  0  0
   -7.8277   11.2488    0.0000 H   0  0  0  0  0  0  0  0  0  0  0  0
   -6.6540    9.9047    0.0000 H   0  0  0  0  0  0  0  0  0  0  0  0
   -9.4938   12.1798    0.0000 H   0  0  0  0  0  0  0  0  0  0  0  0
   -9.7005   15.4366    0.0000 H   0  0  0  0  0  0  0  0  0  0  0  0
   -6.6669   16.6395    0.0000 H   0  0  0  0  0  0  0  0  0  0  0  0
   -7.7327    9.0194    0.0000 H   0  0  0  0  0  0  0  0  0  0  0  0
   -7.8055    8.0342    0.0000 H   0  0  0  0  0  0  0  0  0  0  0  0
   -9.2298    7.3400    0.0000 H   0  0  0  0  0  0  0  0  0  0  0  0
   -9.2032    5.5558    0.0000 H   0  0  0  0  0  0  0  0  0  0  0  0
   -7.4891    5.0596    0.0000 H   0  0  0  0  0  0  0  0  0  0  0  0
   -7.9524    3.9115    0.0000 H   0  0  0  0  0  0  0  0  0  0  0  0
   -5.7521    0.0121    0.0000 H   0  0  0  0  0  0  0  0  0  0  0  0
   -6.6137    0.9304    0.0000 H   0  0  0  0  0  0  0  0  0  0  0  0
   -4.6595   -1.1441    0.0000 H   0  0  0  0  0  0  0  0  0  0  0  0
   -5.5020   -0.4517    0.0000 H   0  0  0  0  0  0  0  0  0  0  0  0
   -3.0078   -2.1306    0.0000 H   0  0  0  0  0  0  0  0  0  0  0  0
   -4.2584   -1.4515    0.0000 H   0  0  0  0  0  0  0  0  0  0  0  0
   -2.2010   -2.7006    0.0000 H   0  0  0  0  0  0  0  0  0  0  0  0
   -8.6049    1.9105    0.0000 H   0  0  0  0  0  0  0  0  0  0  0  0
   -8.7883    3.5340    0.0000 H   0  0  0  0  0  0  0  0  0  0  0  0
   -7.3798    4.3620    0.0000 H   0  0  0  0  0  0  0  0  0  0  0  0
   -9.1101    2.7517    0.0000 H   0  0  0  0  0  0  0  0  0  0  0  0
   -7.7029   -0.3338    0.0000 H   0  0  0  0  0  0  0  0  0  0  0  0
  -10.6004   -2.1372    0.0000 H   0  0  0  0  0  0  0  0  0  0  0  0
   -9.2348   -2.7004    0.0000 H   0  0  0  0  0  0  0  0  0  0  0  0
   -7.9218   -1.2881    0.0000 H   0  0  0  0  0  0  0  0  0  0  0  0
  -10.8826   -2.3415    0.0000 H   0  0  0  0  0  0  0  0  0  0  0  0
  -12.3848    0.5539    0.0000 H   0  0  0  0  0  0  0  0  0  0  0  0
  -15.7550   -0.0140    0.0000 H   0  0  0  0  0  0  0  0  0  0  0  0
  -14.9565   -1.6098    0.0000 H   0  0  0  0  0  0  0  0  0  0  0  0
  -14.1271    2.6782    0.0000 H   0  0  0  0  0  0  0  0  0  0  0  0
  -12.9662    1.3231    0.0000 H   0  0  0  0  0  0  0  0  0  0  0  0
  -18.4223    1.4798    0.0000 H   0  0  0  0  0  0  0  0  0  0  0  0
  -16.0496   -0.7971    0.0000 H   0  0  0  0  0  0  0  0  0  0  0  0
  -14.6424   -3.8826    0.0000 H   0  0  0  0  0  0  0  0  0  0  0  0
  -15.9942   -6.2155    0.0000 H   0  0  0  0  0  0  0  0  0  0  0  0
  -14.8612   -4.8369    0.0000 H   0  0  0  0  0  0  0  0  0  0  0  0
  -19.2912   -5.1250    0.0000 H   0  0  0  0  0  0  0  0  0  0  0  0
  -18.6554   -3.9739    0.0000 H   0  0  0  0  0  0  0  0  0  0  0  0
  -17.9434   -8.1519    0.0000 H   0  0  0  0  0  0  0  0  0  0  0  0
  -16.6508   -6.9217    0.0000 H   0  0  0  0  0  0  0  0  0  0  0  0
  -20.8752   -6.3788    0.0000 H   0  0  0  0  0  0  0  0  0  0  0  0
  -21.6665  -10.4688    0.0000 H   0  0  0  0  0  0  0  0  0  0  0  0
  -19.1342  -11.0495    0.0000 H   0  0  0  0  0  0  0  0  0  0  0  0
  -17.3651   -9.1468    0.0000 H   0  0  0  0  0  0  0  0  0  0  0  0
  -17.9977   -5.9426    0.0000 H   0  0  0  0  0  0  0  0  0  0  0  0
  -19.5000   -2.9431    0.0000 H   0  0  0  0  0  0  0  0  0  0  0  0
  -21.4019   -2.3326    0.0000 H   0  0  0  0  0  0  0  0  0  0  0  0
  -22.6945   -3.5628    0.0000 H   0  0  0  0  0  0  0  0  0  0  0  0
  -21.8960   -5.1586    0.0000 H   0  0  0  0  0  0  0  0  0  0  0  0
  -22.9891   -4.3458    0.0000 H   0  0  0  0  0  0  0  0  0  0  0  0
  -21.5819   -7.4314    0.0000 H   0  0  0  0  0  0  0  0  0  0  0  0
  -22.9337   -9.7643    0.0000 H   0  0  0  0  0  0  0  0  0  0  0  0
  -21.8026   -8.2025    0.0000 H   0  0  0  0  0  0  0  0  0  0  0  0
  -26.2306   -8.6738    0.0000 H   0  0  0  0  0  0  0  0  0  0  0  0
  -25.5949   -7.5227    0.0000 H   0  0  0  0  0  0  0  0  0  0  0  0
  -24.8828  -11.7007    0.0000 H   0  0  0  0  0  0  0  0  0  0  0  0
  -23.5902  -10.4704    0.0000 H   0  0  0  0  0  0  0  0  0  0  0  0
  -27.8147   -9.9276    0.0000 H   0  0  0  0  0  0  0  0  0  0  0  0
  -28.6060  -14.0176    0.0000 H   0  0  0  0  0  0  0  0  0  0  0  0
  -26.0736  -14.5983    0.0000 H   0  0  0  0  0  0  0  0  0  0  0  0
  -24.3046  -12.6955    0.0000 H   0  0  0  0  0  0  0  0  0  0  0  0
  -24.9371   -9.4913    0.0000 H   0  0  0  0  0  0  0  0  0  0  0  0
  -26.2637   -6.5437    0.0000 H   0  0  0  0  0  0  0  0  0  0  0  0
  -29.6525   -7.4768    0.0000 H   0  0  0  0  0  0  0  0  0  0  0  0
  -28.6673   -8.7802    0.0000 H   0  0  0  0  0  0  0  0  0  0  0  0
  -28.0061   -4.4193    0.0000 H   0  0  0  0  0  0  0  0  0  0  0  0
  -26.8452   -5.7745    0.0000 H   0  0  0  0  0  0  0  0  0  0  0  0
  -31.2210   -5.2210    0.0000 H   0  0  0  0  0  0  0  0  0  0  0  0
  -30.2339   -6.7076    0.0000 H   0  0  0  0  0  0  0  0  0  0  0  0
  -28.7114   -2.9043    0.0000 H   0  0  0  0  0  0  0  0  0  0  0  0
  -32.8562   -1.1521    0.0000 H   0  0  0  0  0  0  0  0  0  0  0  0
  -33.8678   -3.5452    0.0000 H   0  0  0  0  0  0  0  0  0  0  0  0
  -32.3012   -5.6178    0.0000 H   0  0  0  0  0  0  0  0  0  0  0  0
  -27.7219  -11.8079    0.0000 H   0  0  0  0  0  0  0  0  0  0  0  0
  1  2  1  0
  2  3  1  0
  3  4  2  0
  4  5  1  0
  5  6  2  0
  6  7  1  0
  7  8  2  0
  7  9  1  0
  9 10  1  0
 10 11  1  0
 11 12  2  0
  9 13  1  0
 13 14  1  0
 14 15  2  0
 15 16  1  0
 16 17  2  0
 17 18  1  0
 16 19  1  0
 14 20  1  0
 20 21  1  0
 21 22  2  0
 22 23  1  0
 23 24  2  0
 24 25  1  0
 25 26  2  0
 25 27  1  0
  1 28  2  0
  1 29  1  0
 29 30  1  0
 30 31  1  0
 31 32  1  0
 32 33  2  0
 32 34  1  0
 34 35  1  0
 35 36  1  0
 36 37  1  0
 37 38  1  0
 38 39  2  0
 38 40  1  0
 35 41  1  0
 41 42  2  0
 41 43  1  0
 43 44  1  0
 44 45  1  0
 45 46  1  0
 46 47  1  0
 47 48  2  0
 47 49  1  0
 44 50  1  0
 50 51  2  0
 50 52  1  0
 52 53  1  0
 53 54  1  0
 53 55  1  0
 55 56  2  0
 55 57  1  0
 58 57  1  6
 58 59  1  0
 59 60  1  0
 60 61  1  0
 61 62  1  0
 62 63  1  0
 63 64  1  0
 64 65  1  0
 58 66  1  0
 58 67  1  0
 67 68  2  0
 67 69  1  0
 69 70  1  0
 70 71  1  0
 71 72  1  0
 72 73  1  0
 73 74  1  0
 74 75  1  0
 70 76  1  0
 76 77  2  0
 76 78  1  0
 78 79  1  0
 79 80  1  0
 80 81  1  0
 81 82  1  0
 82 83  1  0
 83 84  1  0
 84 85  2  3
 84 86  1  0
 79 87  1  0
 87 88  2  0
 87 89  1  0
 89 90  1  0
 90 91  1  0
 91 92  1  0
 92 93  1  0
 93 94  1  0
 94 95  1  0
 95 96  2  3
 95 97  1  0
 90 98  1  0
 98 99  2  0
 98100  1  0
100101  1  0
101102  1  0
101103  1  0
103104  2  0
103105  1  0
105106  1  0
106107  1  0
107108  1  0
108109  2  0
109110  1  0
110111  1  0
111112  2  0
106113  1  0
113114  2  0
113115  1  0
115116  1  0
116117  1  0
116118  1  0
118119  2  0
118120  1  0
120121  1  0
121122  1  0
122123  1  0
123124  1  0
124125  1  0
121126  1  0
121127  1  1
127128  2  0
127129  1  0
129130  1  0
130131  1  0
130132  1  0
132133  2  0
132134  1  0
134135  1  0
135136  1  0
136137  1  0
137138  1  0
138139  2  0
138140  1  0
135141  1  0
141142  2  0
141143  1  0
143144  1  0
144145  1  0
145146  1  0
146147  1  0
147148  1  0
148149  1  0
149150  2  3
149151  1  0
144152  1  0
152153  2  0
152154  1  0
154155  1  0
155156  1  0
155157  1  0
157158  2  0
157159  1  0
159160  1  0
160161  1  0
161162  1  0
162163  1  0
163164  1  0
164165  1  0
165166  2  3
165167  1  0
160168  1  0
168169  2  0
168170  1  0
170171  1  0
171172  1  0
172173  1  0
173174  1  0
174175  1  0
175176  1  0
176177  2  3
176178  1  0
171179  1  0
179180  2  0
179181  1  0
  8  3  1  0
112108  1  0
 11  6  1  0
 65125  2  0
 18 13  2  0
 22  9  1  0
 26 21  1  0
  2182  1  0
  4183  1  0
  5184  1  0
  8185  1  0
 15186  1  0
 17187  1  0
 18188  1  0
 19189  1  0
 23190  1  0
 24191  1  0
 26192  1  0
 27193  1  0
 29194  1  0
 30195  1  0
 30196  1  0
 31197  1  0
 31198  1  0
 34199  1  0
 35200  1  1
 36201  1  0
 36202  1  0
 37203  1  0
 37204  1  0
 40205  1  0
 43206  1  0
 44207  1  1
 45208  1  0
 45209  1  0
 46210  1  0
 46211  1  0
 49212  1  0
 52213  1  0
 53214  1  1
 54215  1  0
 54216  1  0
 54217  1  0
 57218  1  0
 59219  1  0
 59220  1  0
 60221  1  0
 60222  1  0
 61223  1  0
 61224  1  0
 62225  1  0
 62226  1  0
 63227  1  0
 63228  1  0
 64229  1  0
 64230  1  0
 65231  1  0
 66232  1  0
 66233  1  0
 66234  1  0
 69235  1  0
 70236  1  6
 71237  1  0
 71238  1  0
 72239  1  0
 72240  1  0
 73241  1  0
 73242  1  0
 74243  1  0
 74244  1  0
 75245  1  0
 75246  1  0
 78247  1  0
 79248  1  6
 80249  1  0
 80250  1  0
 81251  1  0
 81252  1  0
 82253  1  0
 82254  1  0
 83255  1  0
 85256  1  0
 86257  1  0
 86258  1  0
 89259  1  0
 90260  1  6
 91261  1  0
 91262  1  0
 92263  1  0
 92264  1  0
 93265  1  0
 93266  1  0
 94267  1  0
 96268  1  0
 97269  1  0
 97270  1  0
100271  1  0
101272  1  6
102273  1  0
102274  1  0
102275  1  0
105276  1  0
106277  1  6
107278  1  0
107279  1  0
109280  1  0
110281  1  0
111282  1  0
115283  1  0
116284  1  6
117285  1  0
117286  1  0
117287  1  0
120288  1  0
122289  1  0
122290  1  0
123291  1  0
123292  1  0
124293  1  0
124294  1  0
125295  1  0
126296  1  0
126297  1  0
126298  1  0
129299  1  0
130300  1  1
131301  1  0
131302  1  0
131303  1  0
134304  1  0
135305  1  6
136306  1  0
136307  1  0
137308  1  0
137309  1  0
140310  1  0
143311  1  0
144312  1  1
145313  1  0
145314  1  0
146315  1  0
146316  1  0
147317  1  0
147318  1  0
148319  1  0
150320  1  0
151321  1  0
151322  1  0
154323  1  0
155324  1  6
156325  1  0
156326  1  0
156327  1  0
159328  1  0
160329  1  1
161330  1  0
161331  1  0
162332  1  0
162333  1  0
163334  1  0
163335  1  0
164336  1  0
166337  1  0
167338  1  0
167339  1  0
170340  1  0
171341  1  6
172342  1  0
172343  1  0
173344  1  0
173345  1  0
174346  1  0
174347  1  0
175348  1  0
177349  1  0
178350  1  0
178351  1  0
181352  1  0
M  END
