
     RDKit          2D

464473  0  0  0  0  0  0  0  0999 V2000
  -30.3709   -2.8849    0.0000 C   0  0  0  0  0  0  0  0  0  0  0  0
  -31.1391   -4.1733    0.0000 N   0  0  0  0  0  0  0  0  0  0  0  0
  -32.6389   -4.1522    0.0000 C   0  0  0  0  0  0  0  0  0  0  0  0
  -33.3706   -2.8427    0.0000 C   0  0  0  0  0  0  0  0  0  0  0  0
  -34.8705   -2.8217    0.0000 C   0  0  0  0  0  0  0  0  0  0  0  0
  -35.6386   -4.1101    0.0000 C   0  0  0  0  0  0  0  0  0  0  0  0
  -34.9070   -5.4195    0.0000 C   0  0  0  0  0  0  0  0  0  0  0  0
  -33.4071   -5.4406    0.0000 C   0  0  0  0  0  0  0  0  0  0  0  0
  -35.9262   -6.5200    0.0000 C   0  0  0  0  0  0  0  0  0  0  0  0
  -37.2878   -5.8907    0.0000 O   0  0  0  0  0  0  0  0  0  0  0  0
  -37.1101   -4.4013    0.0000 C   0  0  0  0  0  0  0  0  0  0  0  0
  -38.2106   -3.3820    0.0000 O   0  0  0  0  0  0  0  0  0  0  0  0
  -37.0549   -7.5080    0.0000 C   0  0  0  0  0  0  0  0  0  0  0  0
  -36.7637   -8.9794    0.0000 C   0  0  0  0  0  0  0  0  0  0  0  0
  -37.8924   -9.9674    0.0000 C   0  0  0  0  0  0  0  0  0  0  0  0
  -39.3123   -9.4838    0.0000 C   0  0  0  0  0  0  0  0  0  0  0  0
  -39.6036   -8.0124    0.0000 C   0  0  0  0  0  0  0  0  0  0  0  0
  -38.4748   -7.0244    0.0000 C   0  0  0  0  0  0  0  0  0  0  0  0
  -40.4410  -10.4718    0.0000 O   0  0  0  0  0  0  0  0  0  0  0  0
  -35.3437   -9.4629    0.0000 O   0  0  0  0  0  0  0  0  0  0  0  0
  -34.2150   -8.4750    0.0000 C   0  0  0  0  0  0  0  0  0  0  0  0
  -34.5063   -7.0035    0.0000 C   0  0  0  0  0  0  0  0  0  0  0  0
  -33.2417   -6.7023    0.0000 C   0  0  0  0  0  0  0  0  0  0  0  0
  -32.4844   -6.9601    0.0000 C   0  0  0  0  0  0  0  0  0  0  0  0
  -32.3290   -7.7449    0.0000 C   0  0  0  0  0  0  0  0  0  0  0  0
  -32.9310   -8.2718    0.0000 C   0  0  0  0  0  0  0  0  0  0  0  0
  -30.2465   -8.4541    0.0000 O   0  0  0  0  0  0  0  0  0  0  0  0
  -31.1026   -1.5754    0.0000 S   0  0  0  0  0  0  0  0  0  0  0  0
  -28.8711   -2.9059    0.0000 N   0  0  0  0  0  0  0  0  0  0  0  0
  -28.1029   -1.6176    0.0000 C   0  0  0  0  0  0  0  0  0  0  0  0
  -26.6030   -1.6386    0.0000 C   0  0  0  0  0  0  0  0  0  0  0  0
  -25.8349   -0.3503    0.0000 C   0  0  0  0  0  0  0  0  0  0  0  0
  -26.3806    0.2309    0.0000 O   0  0  0  0  0  0  0  0  0  0  0  0
  -24.3350   -0.3713    0.0000 N   0  0  0  0  0  0  0  0  0  0  0  0
  -23.5669    0.9171    0.0000 C   0  0  0  0  0  0  0  0  0  0  0  0
  -24.9691    1.4498    0.0000 C   0  0  0  0  0  0  0  0  0  0  0  0
  -26.1315    0.5019    0.0000 C   0  0  0  0  0  0  0  0  0  0  0  0
  -27.5337    1.0347    0.0000 N   0  0  0  0  0  0  0  0  0  0  0  0
  -26.2573   -0.9928    0.0000 O   0  0  0  0  0  0  0  0  0  0  0  0
  -22.4044    1.8650    0.0000 C   0  0  0  0  0  0  0  0  0  0  0  0
  -22.9952    3.2437    0.0000 O   0  0  0  0  0  0  0  0  0  0  0  0
  -21.0022    1.3322    0.0000 N   0  0  0  0  0  0  0  0  0  0  0  0
  -19.8397    2.2802    0.0000 C   0  0  0  0  0  0  0  0  0  0  0  0
  -20.9751    3.2604    0.0000 C   0  0  0  0  0  0  0  0  0  0  0  0
  -22.3917    2.7672    0.0000 C   0  0  0  0  0  0  0  0  0  0  0  0
  -23.5271    3.7474    0.0000 C   0  0  0  0  0  0  0  0  0  0  0  0
  -24.9933    3.4306    0.0000 O   0  0  0  0  0  0  0  0  0  0  0  0
  -23.2459    5.2209    0.0000 O   0  0  0  0  0  0  0  0  0  0  0  0
  -18.4231    2.7734    0.0000 C   0  0  0  0  0  0  0  0  0  0  0  0
  -18.5068    4.2710    0.0000 O   0  0  0  0  0  0  0  0  0  0  0  0
  -17.2877    1.7931    0.0000 N   0  0  0  0  0  0  0  0  0  0  0  0
  -15.8711    2.2863    0.0000 C   0  0  0  0  0  0  0  0  0  0  0  0
  -16.6027    3.5958    0.0000 C   0  0  0  0  0  0  0  0  0  0  0  0
  -18.1026    3.6168    0.0000 C   0  0  0  0  0  0  0  0  0  0  0  0
  -18.8343    4.9263    0.0000 C   0  0  0  0  0  0  0  0  0  0  0  0
  -19.5192    3.1237    0.0000 C   0  0  0  0  0  0  0  0  0  0  0  0
  -14.3712    2.2653    0.0000 C   0  0  0  0  0  0  0  0  0  0  0  0
  -13.9376    3.7012    0.0000 O   0  0  0  0  0  0  0  0  0  0  0  0
  -13.6395    0.9558    0.0000 N   0  0  0  0  0  0  0  0  0  0  0  0
  -12.1397    0.9348    0.0000 C   0  0  0  0  0  0  0  0  0  0  0  0
  -12.3794    2.4155    0.0000 C   0  0  0  0  0  0  0  0  0  0  0  0
  -13.7816    2.9483    0.0000 C   0  0  0  0  0  0  0  0  0  0  0  0
  -14.0213    4.4290    0.0000 C   0  0  0  0  0  0  0  0  0  0  0  0
  -15.4235    4.9618    0.0000 C   0  0  0  0  0  0  0  0  0  0  0  0
  -15.6632    6.4425    0.0000 N   0  0  0  0  0  0  0  0  0  0  0  0
  -10.7375    0.4020    0.0000 C   0  0  0  0  0  0  0  0  0  0  0  0
   -9.8389    1.6031    0.0000 O   0  0  0  0  0  0  0  0  0  0  0  0
  -10.4978   -1.0787    0.0000 N   0  0  0  0  0  0  0  0  0  0  0  0
   -9.0956   -1.6115    0.0000 C   0  0  0  0  0  0  0  0  0  0  0  0
   -9.2409   -0.1186    0.0000 C   0  0  0  0  0  0  0  0  0  0  0  0
   -9.1010    1.3749    0.0000 C   0  0  0  0  0  0  0  0  0  0  0  0
   -8.6810    2.8149    0.0000 C   0  0  0  0  0  0  0  0  0  0  0  0
   -7.9961    4.1494    0.0000 C   0  0  0  0  0  0  0  0  0  0  0  0
   -7.0710    5.3302    0.0000 C   0  0  0  0  0  0  0  0  0  0  0  0
   -5.9392    6.3145    0.0000 C   0  0  0  0  0  0  0  0  0  0  0  0
   -4.6415    7.0669    0.0000 C   0  0  0  0  0  0  0  0  0  0  0  0
  -10.1956   -2.6313    0.0000 C   0  0  0  0  0  0  0  0  0  0  0  0
   -8.6703   -3.0500    0.0000 C   0  0  0  0  0  0  0  0  0  0  0  0
   -9.9832   -3.7755    0.0000 O   0  0  0  0  0  0  0  0  0  0  0  0
   -7.9806   -4.3820    0.0000 N   0  0  0  0  0  0  0  0  0  0  0  0
   -7.0512   -5.5594    0.0000 C   0  0  0  0  0  0  0  0  0  0  0  0
   -7.4253   -7.0120    0.0000 C   0  0  0  0  0  0  0  0  0  0  0  0
   -8.8703   -7.4143    0.0000 O   0  0  0  0  0  0  0  0  0  0  0  0
   -5.9158   -6.5396    0.0000 C   0  0  0  0  0  0  0  0  0  0  0  0
   -6.6280   -7.8597    0.0000 O   0  0  0  0  0  0  0  0  0  0  0  0
   -4.6154   -7.2872    0.0000 N   0  0  0  0  0  0  0  0  0  0  0  0
   -3.1970   -7.7752    0.0000 C   0  0  0  0  0  0  0  0  0  0  0  0
   -2.7263   -9.1995    0.0000 C   0  0  0  0  0  0  0  0  0  0  0  0
   -3.7245  -10.3192    0.0000 C   0  0  0  0  0  0  0  0  0  0  0  0
   -5.1932  -10.0147    0.0000 C   0  0  0  0  0  0  0  0  0  0  0  0
   -6.1913  -11.1344    0.0000 C   0  0  0  0  0  0  0  0  0  0  0  0
   -5.7207  -12.5586    0.0000 C   0  0  0  0  0  0  0  0  0  0  0  0
   -4.2519  -12.8632    0.0000 C   0  0  0  0  0  0  0  0  0  0  0  0
   -3.2538  -11.7435    0.0000 C   0  0  0  0  0  0  0  0  0  0  0  0
   -1.7119   -7.9860    0.0000 C   0  0  0  0  0  0  0  0  0  0  0  0
   -1.5973   -9.4816    0.0000 O   0  0  0  0  0  0  0  0  0  0  0  0
   -0.2137   -7.9119    0.0000 N   0  0  0  0  0  0  0  0  0  0  0  0
    1.2434   -7.5556    0.0000 C   0  0  0  0  0  0  0  0  0  0  0  0
    2.4093   -8.4993    0.0000 C   0  0  0  0  0  0  0  0  0  0  0  0
    2.1750   -9.9809    0.0000 C   0  0  0  0  0  0  0  0  0  0  0  0
    0.7748  -10.5188    0.0000 C   0  0  0  0  0  0  0  0  0  0  0  0
    0.5405  -12.0004    0.0000 C   0  0  0  0  0  0  0  0  0  0  0  0
    1.7064  -12.9441    0.0000 C   0  0  0  0  0  0  0  0  0  0  0  0
    3.1067  -12.4062    0.0000 C   0  0  0  0  0  0  0  0  0  0  0  0
    3.3410  -10.9246    0.0000 C   0  0  0  0  0  0  0  0  0  0  0  0
    2.6067   -6.9300    0.0000 C   0  0  0  0  0  0  0  0  0  0  0  0
    3.5116   -8.1263    0.0000 O   0  0  0  0  0  0  0  0  0  0  0  0
    3.8270   -6.0577    0.0000 N   0  0  0  0  0  0  0  0  0  0  0  0
    4.8601   -4.9702    0.0000 C   0  0  0  0  0  0  0  0  0  0  0  0
    6.3512   -5.1337    0.0000 C   0  0  0  0  0  0  0  0  0  0  0  0
    5.6688   -3.7068    0.0000 C   0  0  0  0  0  0  0  0  0  0  0  0
    7.0768   -4.2240    0.0000 O   0  0  0  0  0  0  0  0  0  0  0  0
    6.2237   -2.3133    0.0000 N   0  0  0  0  0  0  0  0  0  0  0  0
    6.5049   -0.8399    0.0000 C   0  0  0  0  0  0  0  0  0  0  0  0
    7.8477   -0.1713    0.0000 C   0  0  0  0  0  0  0  0  0  0  0  0
    9.0980   -0.9999    0.0000 C   0  0  0  0  0  0  0  0  0  0  0  0
   10.4408   -0.3314    0.0000 C   0  0  0  0  0  0  0  0  0  0  0  0
    9.9896   -2.2062    0.0000 C   0  0  0  0  0  0  0  0  0  0  0  0
    6.5022    0.6601    0.0000 C   0  0  0  0  0  0  0  0  0  0  0  0
    7.9663    0.9863    0.0000 O   0  0  0  0  0  0  0  0  0  0  0  0
    6.2156    2.1325    0.0000 N   0  0  0  0  0  0  0  0  0  0  0  0
    5.6556    3.5240    0.0000 C   0  0  0  0  0  0  0  0  0  0  0  0
    6.4237    4.8124    0.0000 C   0  0  0  0  0  0  0  0  0  0  0  0
    7.9236    4.7913    0.0000 C   0  0  0  0  0  0  0  0  0  0  0  0
    8.6918    6.0797    0.0000 C   0  0  0  0  0  0  0  0  0  0  0  0
   10.1916    6.0587    0.0000 N   0  0  0  0  0  0  0  0  0  0  0  0
   10.9598    7.3470    0.0000 C   0  0  0  0  0  0  0  0  0  0  0  0
   12.4596    7.3260    0.0000 N   0  0  0  0  0  0  0  0  0  0  0  0
    9.9330    8.4405    0.0000 N   0  0  0  0  0  0  0  0  0  0  0  0
    4.8423    4.7844    0.0000 C   0  0  0  0  0  0  0  0  0  0  0  0
    5.8976    5.8504    0.0000 O   0  0  0  0  0  0  0  0  0  0  0  0
    3.8052    5.8681    0.0000 N   0  0  0  0  0  0  0  0  0  0  0  0
    2.5818    6.7360    0.0000 C   0  0  0  0  0  0  0  0  0  0  0  0
    1.2162    7.3566    0.0000 C   0  0  0  0  0  0  0  0  0  0  0  0
   -0.2422    7.7076    0.0000 C   0  0  0  0  0  0  0  0  0  0  0  0
   -1.7406    7.7763    0.0000 C   0  0  0  0  0  0  0  0  0  0  0  0
   -3.2249    7.5601    0.0000 C   0  0  0  0  0  0  0  0  0  0  0  0
    3.9027    7.4468    0.0000 C   0  0  0  0  0  0  0  0  0  0  0  0
    2.5314    8.2352    0.0000 C   0  0  0  0  0  0  0  0  0  0  0  0
    1.4181    9.2404    0.0000 O   0  0  0  0  0  0  0  0  0  0  0  0
    3.8046    9.0283    0.0000 N   0  0  0  0  0  0  0  0  0  0  0  0
    3.7543   10.5275    0.0000 C   0  0  0  0  0  0  0  0  0  0  0  0
    3.1942   11.9190    0.0000 C   0  0  0  0  0  0  0  0  0  0  0  0
    4.1193   13.0998    0.0000 C   0  0  0  0  0  0  0  0  0  0  0  0
    3.5593   14.4913    0.0000 C   0  0  0  0  0  0  0  0  0  0  0  0
    4.3336   15.7760    0.0000 N   0  0  0  0  0  0  0  0  0  0  0  0
    2.0742   14.7021    0.0000 O   0  0  0  0  0  0  0  0  0  0  0  0
    5.0274   11.3206    0.0000 C   0  0  0  0  0  0  0  0  0  0  0  0
    6.3509   10.6146    0.0000 O   0  0  0  0  0  0  0  0  0  0  0  0
    4.9771   12.8198    0.0000 N   0  0  0  0  0  0  0  0  0  0  0  0
    6.2502   13.6129    0.0000 C   0  0  0  0  0  0  0  0  0  0  0  0
    7.7179   13.9228    0.0000 C   0  0  0  0  0  0  0  0  0  0  0  0
    8.4202   12.5974    0.0000 C   0  0  0  0  0  0  0  0  0  0  0  0
    8.9910   14.7160    0.0000 C   0  0  0  0  0  0  0  0  0  0  0  0
   10.1043   13.7107    0.0000 C   0  0  0  0  0  0  0  0  0  0  0  0
    6.1999   15.1121    0.0000 C   0  0  0  0  0  0  0  0  0  0  0  0
    4.9724   15.9742    0.0000 O   0  0  0  0  0  0  0  0  0  0  0  0
    7.4731   15.9053    0.0000 N   0  0  0  0  0  0  0  0  0  0  0  0
    7.5797   17.4015    0.0000 C   0  0  0  0  0  0  0  0  0  0  0  0
    9.0356   17.7624    0.0000 C   0  0  0  0  0  0  0  0  0  0  0  0
    9.8288   16.4892    0.0000 C   0  0  0  0  0  0  0  0  0  0  0  0
    8.8631   15.3415    0.0000 C   0  0  0  0  0  0  0  0  0  0  0  0
   10.1055   14.5010    0.0000 C   0  0  0  0  0  0  0  0  0  0  0  0
   11.4546   15.1567    0.0000 O   0  0  0  0  0  0  0  0  0  0  0  0
    9.9988   13.0048    0.0000 N   0  0  0  0  0  0  0  0  0  0  0  0
   11.2413   12.1643    0.0000 C   0  0  0  0  0  0  0  0  0  0  0  0
   12.6962   11.7995    0.0000 C   0  0  0  0  0  0  0  0  0  0  0  0
   13.1077   10.3570    0.0000 C   0  0  0  0  0  0  0  0  0  0  0  0
   14.5627    9.9922    0.0000 C   0  0  0  0  0  0  0  0  0  0  0  0
   15.1469    8.6107    0.0000 O   0  0  0  0  0  0  0  0  0  0  0  0
   15.6061   11.0698    0.0000 O   0  0  0  0  0  0  0  0  0  0  0  0
   11.1346   10.6681    0.0000 C   0  0  0  0  0  0  0  0  0  0  0  0
    9.7855   10.0124    0.0000 O   0  0  0  0  0  0  0  0  0  0  0  0
   12.3770    9.8277    0.0000 N   0  0  0  0  0  0  0  0  0  0  0  0
   12.2704    8.3315    0.0000 C   0  0  0  0  0  0  0  0  0  0  0  0
   11.6584    6.9620    0.0000 C   0  0  0  0  0  0  0  0  0  0  0  0
   12.5385    5.7473    0.0000 C   0  0  0  0  0  0  0  0  0  0  0  0
   11.9265    4.3778    0.0000 C   0  0  0  0  0  0  0  0  0  0  0  0
   13.7809    4.9068    0.0000 C   0  0  0  0  0  0  0  0  0  0  0  0
   13.5128    7.4910    0.0000 C   0  0  0  0  0  0  0  0  0  0  0  0
   14.9317    7.9774    0.0000 O   0  0  0  0  0  0  0  0  0  0  0  0
   13.4061    5.9948    0.0000 N   0  0  0  0  0  0  0  0  0  0  0  0
   14.6486    5.1543    0.0000 C   0  0  0  0  0  0  0  0  0  0  0  0
   16.1035    4.7895    0.0000 C   0  0  0  0  0  0  0  0  0  0  0  0
   16.5150    3.3470    0.0000 C   0  0  0  0  0  0  0  0  0  0  0  0
   17.9700    2.9822    0.0000 C   0  0  0  0  0  0  0  0  0  0  0  0
   18.5542    1.6006    0.0000 O   0  0  0  0  0  0  0  0  0  0  0  0
   19.0134    4.0598    0.0000 O   0  0  0  0  0  0  0  0  0  0  0  0
   14.5419    3.6581    0.0000 C   0  0  0  0  0  0  0  0  0  0  0  0
   13.3916    2.6954    0.0000 O   0  0  0  0  0  0  0  0  0  0  0  0
   15.7843    2.8177    0.0000 N   0  0  0  0  0  0  0  0  0  0  0  0
   15.6777    1.3214    0.0000 C   0  0  0  0  0  0  0  0  0  0  0  0
   15.0657   -0.0480    0.0000 C   0  0  0  0  0  0  0  0  0  0  0  0
   15.9458   -1.2628    0.0000 C   0  0  0  0  0  0  0  0  0  0  0  0
   15.3338   -2.6323    0.0000 N   0  0  0  0  0  0  0  0  0  0  0  0
   17.4309   -1.4736    0.0000 O   0  0  0  0  0  0  0  0  0  0  0  0
   16.9201    0.4810    0.0000 C   0  0  0  0  0  0  0  0  0  0  0  0
   18.3390    0.9674    0.0000 O   0  0  0  0  0  0  0  0  0  0  0  0
   16.8134   -1.0152    0.0000 N   0  0  0  0  0  0  0  0  0  0  0  0
   18.0559   -1.8557    0.0000 C   0  0  0  0  0  0  0  0  0  0  0  0
   19.5108   -2.2205    0.0000 C   0  0  0  0  0  0  0  0  0  0  0  0
   19.9223   -3.6630    0.0000 C   0  0  0  0  0  0  0  0  0  0  0  0
   21.3773   -4.0278    0.0000 N   0  0  0  0  0  0  0  0  0  0  0  0
   19.1706   -4.9611    0.0000 O   0  0  0  0  0  0  0  0  0  0  0  0
   17.9492   -3.3519    0.0000 C   0  0  0  0  0  0  0  0  0  0  0  0
   16.6901   -4.1672    0.0000 O   0  0  0  0  0  0  0  0  0  0  0  0
   19.1916   -4.1924    0.0000 N   0  0  0  0  0  0  0  0  0  0  0  0
   19.0850   -5.6886    0.0000 C   0  0  0  0  0  0  0  0  0  0  0  0
   18.4730   -7.0581    0.0000 C   0  0  0  0  0  0  0  0  0  0  0  0
   19.3531   -8.2728    0.0000 C   0  0  0  0  0  0  0  0  0  0  0  0
   18.7411   -9.6423    0.0000 C   0  0  0  0  0  0  0  0  0  0  0  0
   19.4665  -10.9552    0.0000 O   0  0  0  0  0  0  0  0  0  0  0  0
   17.2491   -9.7970    0.0000 O   0  0  0  0  0  0  0  0  0  0  0  0
   20.3274   -6.5290    0.0000 C   0  0  0  0  0  0  0  0  0  0  0  0
   21.7463   -6.0426    0.0000 O   0  0  0  0  0  0  0  0  0  0  0  0
   20.2207   -8.0252    0.0000 N   0  0  0  0  0  0  0  0  0  0  0  0
   21.4632   -8.8657    0.0000 C   0  0  0  0  0  0  0  0  0  0  0  0
   22.9181   -9.2306    0.0000 C   0  0  0  0  0  0  0  0  0  0  0  0
   23.3296  -10.6730    0.0000 C   0  0  0  0  0  0  0  0  0  0  0  0
   24.7846  -11.0379    0.0000 C   0  0  0  0  0  0  0  0  0  0  0  0
   25.1961  -12.4803    0.0000 C   0  0  0  0  0  0  0  0  0  0  0  0
   26.6510  -12.8451    0.0000 N   0  0  0  0  0  0  0  0  0  0  0  0
   21.3565  -10.3619    0.0000 C   0  0  0  0  0  0  0  0  0  0  0  0
   20.0974  -11.1772    0.0000 O   0  0  0  0  0  0  0  0  0  0  0  0
   22.5989  -11.2024    0.0000 N   0  0  0  0  0  0  0  0  0  0  0  0
   22.4923  -12.6986    0.0000 C   0  0  0  0  0  0  0  0  0  0  0  0
   21.7179  -13.9833    0.0000 C   0  0  0  0  0  0  0  0  0  0  0  0
   23.7347  -13.5390    0.0000 C   0  0  0  0  0  0  0  0  0  0  0  0
   25.2024  -13.2292    0.0000 O   0  0  0  0  0  0  0  0  0  0  0  0
   23.6280  -15.0353    0.0000 N   0  0  0  0  0  0  0  0  0  0  0  0
   24.7758  -16.0010    0.0000 C   0  0  0  0  0  0  0  0  0  0  0  0
   24.2120  -17.3910    0.0000 C   0  0  0  0  0  0  0  0  0  0  0  0
   22.7158  -17.2843    0.0000 C   0  0  0  0  0  0  0  0  0  0  0  0
   22.3549  -15.8284    0.0000 C   0  0  0  0  0  0  0  0  0  0  0  0
   20.9447  -16.3395    0.0000 C   0  0  0  0  0  0  0  0  0  0  0  0
   19.7969  -15.3738    0.0000 O   0  0  0  0  0  0  0  0  0  0  0  0
   20.5041  -17.7734    0.0000 O   0  0  0  0  0  0  0  0  0  0  0  0
  -30.2532   -5.3837    0.0000 H   0  0  0  0  0  0  0  0  0  0  0  0
  -32.6025   -1.5544    0.0000 H   0  0  0  0  0  0  0  0  0  0  0  0
  -35.6022   -1.5122    0.0000 H   0  0  0  0  0  0  0  0  0  0  0  0
  -32.3803   -6.5340    0.0000 H   0  0  0  0  0  0  0  0  0  0  0  0
  -37.6012  -11.4388    0.0000 H   0  0  0  0  0  0  0  0  0  0  0  0
  -41.0235   -7.5289    0.0000 H   0  0  0  0  0  0  0  0  0  0  0  0
  -38.7661   -5.5530    0.0000 H   0  0  0  0  0  0  0  0  0  0  0  0
  -41.8610   -9.9883    0.0000 H   0  0  0  0  0  0  0  0  0  0  0  0
  -33.6688   -4.5441    0.0000 H   0  0  0  0  0  0  0  0  0  0  0  0
  -30.7169   -5.6561    0.0000 H   0  0  0  0  0  0  0  0  0  0  0  0
  -32.5039  -10.4300    0.0000 H   0  0  0  0  0  0  0  0  0  0  0  0
  -29.9552   -9.9255    0.0000 H   0  0  0  0  0  0  0  0  0  0  0  0
  -28.1394   -4.2154    0.0000 H   0  0  0  0  0  0  0  0  0  0  0  0
  -29.5051   -1.0848    0.0000 H   0  0  0  0  0  0  0  0  0  0  0  0
  -28.0034   -0.1209    0.0000 H   0  0  0  0  0  0  0  0  0  0  0  0
  -26.8842   -3.1120    0.0000 H   0  0  0  0  0  0  0  0  0  0  0  0
  -25.2009   -2.1714    0.0000 H   0  0  0  0  0  0  0  0  0  0  0  0
  -23.6033   -1.6808    0.0000 H   0  0  0  0  0  0  0  0  0  0  0  0
  -22.4314   -0.0632    0.0000 H   0  0  0  0  0  0  0  0  0  0  0  0
  -26.1045    2.4301    0.0000 H   0  0  0  0  0  0  0  0  0  0  0  0
  -24.3637    2.8222    0.0000 H   0  0  0  0  0  0  0  0  0  0  0  0
  -28.8031    0.2355    0.0000 H   0  0  0  0  0  0  0  0  0  0  0  0
  -27.7734    2.5154    0.0000 H   0  0  0  0  0  0  0  0  0  0  0  0
  -20.7625   -0.1485    0.0000 H   0  0  0  0  0  0  0  0  0  0  0  0
  -19.2731    0.8913    0.0000 H   0  0  0  0  0  0  0  0  0  0  0  0
  -21.7068    4.5698    0.0000 H   0  0  0  0  0  0  0  0  0  0  0  0
  -20.0765    4.4615    0.0000 H   0  0  0  0  0  0  0  0  0  0  0  0
  -23.5542    1.8193    0.0000 H   0  0  0  0  0  0  0  0  0  0  0  0
  -21.9986    1.3196    0.0000 H   0  0  0  0  0  0  0  0  0  0  0  0
  -24.3813    6.2011    0.0000 H   0  0  0  0  0  0  0  0  0  0  0  0
  -17.5688    0.3197    0.0000 H   0  0  0  0  0  0  0  0  0  0  0  0
  -15.6313    0.8056    0.0000 H   0  0  0  0  0  0  0  0  0  0  0  0
  -16.8424    5.0765    0.0000 H   0  0  0  0  0  0  0  0  0  0  0  0
  -15.1366    3.9126    0.0000 H   0  0  0  0  0  0  0  0  0  0  0  0
  -18.2283    2.1221    0.0000 H   0  0  0  0  0  0  0  0  0  0  0  0
  -20.2845    5.3096    0.0000 H   0  0  0  0  0  0  0  0  0  0  0  0
  -19.0740    6.4070    0.0000 H   0  0  0  0  0  0  0  0  0  0  0  0
  -17.5791    5.7476    0.0000 H   0  0  0  0  0  0  0  0  0  0  0  0
  -20.6546    4.1039    0.0000 H   0  0  0  0  0  0  0  0  0  0  0  0
  -20.8765    2.4852    0.0000 H   0  0  0  0  0  0  0  0  0  0  0  0
  -18.6333    1.9132    0.0000 H   0  0  0  0  0  0  0  0  0  0  0  0
  -14.4077   -0.3326    0.0000 H   0  0  0  0  0  0  0  0  0  0  0  0
  -12.4209   -0.5387    0.0000 H   0  0  0  0  0  0  0  0  0  0  0  0
  -11.9207    3.8436    0.0000 H   0  0  0  0  0  0  0  0  0  0  0  0
  -10.8795    2.3944    0.0000 H   0  0  0  0  0  0  0  0  0  0  0  0
  -15.2728    2.7863    0.0000 H   0  0  0  0  0  0  0  0  0  0  0  0
  -14.4109    1.5867    0.0000 H   0  0  0  0  0  0  0  0  0  0  0  0
  -13.7401    5.9024    0.0000 H   0  0  0  0  0  0  0  0  0  0  0  0
  -12.5300    4.5909    0.0000 H   0  0  0  0  0  0  0  0  0  0  0  0
  -16.8736    5.3451    0.0000 H   0  0  0  0  0  0  0  0  0  0  0  0
  -15.7046    3.4883    0.0000 H   0  0  0  0  0  0  0  0  0  0  0  0
  -17.0654    6.9753    0.0000 H   0  0  0  0  0  0  0  0  0  0  0  0
  -14.5007    7.3904    0.0000 H   0  0  0  0  0  0  0  0  0  0  0  0
  -11.7671   -1.8779    0.0000 H   0  0  0  0  0  0  0  0  0  0  0  0
  -10.6681   -0.5801    0.0000 H   0  0  0  0  0  0  0  0  0  0  0  0
  -10.4113    0.8196    0.0000 H   0  0  0  0  0  0  0  0  0  0  0  0
  -10.6010    1.3747    0.0000 H   0  0  0  0  0  0  0  0  0  0  0  0
  -10.2048    2.3906    0.0000 H   0  0  0  0  0  0  0  0  0  0  0  0
  -10.1578    2.5517    0.0000 H   0  0  0  0  0  0  0  0  0  0  0  0
   -9.7130    3.9035    0.0000 H   0  0  0  0  0  0  0  0  0  0  0  0
   -9.4822    4.3531    0.0000 H   0  0  0  0  0  0  0  0  0  0  0  0
   -8.8034    5.4136    0.0000 H   0  0  0  0  0  0  0  0  0  0  0  0
   -8.4917    5.8115    0.0000 H   0  0  0  0  0  0  0  0  0  0  0  0
   -7.6245    6.7243    0.0000 H   0  0  0  0  0  0  0  0  0  0  0  0
   -7.2431    7.0560    0.0000 H   0  0  0  0  0  0  0  0  0  0  0  0
   -6.0371    7.8113    0.0000 H   0  0  0  0  0  0  0  0  0  0  0  0
   -5.2672    8.4302    0.0000 H   0  0  0  0  0  0  0  0  0  0  0  0
  -11.6720   -2.3665    0.0000 H   0  0  0  0  0  0  0  0  0  0  0  0
  -11.0381   -3.8724    0.0000 H   0  0  0  0  0  0  0  0  0  0  0  0
   -9.2551   -3.7998    0.0000 H   0  0  0  0  0  0  0  0  0  0  0  0
   -9.2410   -5.1952    0.0000 H   0  0  0  0  0  0  0  0  0  0  0  0
   -8.5188   -5.8693    0.0000 H   0  0  0  0  0  0  0  0  0  0  0  0
   -7.4630   -8.5115    0.0000 H   0  0  0  0  0  0  0  0  0  0  0  0
   -6.0023   -7.4865    0.0000 H   0  0  0  0  0  0  0  0  0  0  0  0
   -9.2444   -8.8669    0.0000 H   0  0  0  0  0  0  0  0  0  0  0  0
   -5.3978   -8.5670    0.0000 H   0  0  0  0  0  0  0  0  0  0  0  0
   -4.2641   -8.8294    0.0000 H   0  0  0  0  0  0  0  0  0  0  0  0
   -1.9474  -10.4814    0.0000 H   0  0  0  0  0  0  0  0  0  0  0  0
   -1.2727   -8.8294    0.0000 H   0  0  0  0  0  0  0  0  0  0  0  0
   -5.8340   -8.6584    0.0000 H   0  0  0  0  0  0  0  0  0  0  0  0
   -7.6601  -10.8299    0.0000 H   0  0  0  0  0  0  0  0  0  0  0  0
   -6.7188  -13.6784    0.0000 H   0  0  0  0  0  0  0  0  0  0  0  0
   -3.7813  -14.2874    0.0000 H   0  0  0  0  0  0  0  0  0  0  0  0
   -1.7850  -12.0480    0.0000 H   0  0  0  0  0  0  0  0  0  0  0  0
   -0.1801   -9.4115    0.0000 H   0  0  0  0  0  0  0  0  0  0  0  0
    0.9156   -9.0194    0.0000 H   0  0  0  0  0  0  0  0  0  0  0  0
    3.7576   -9.1566    0.0000 H   0  0  0  0  0  0  0  0  0  0  0  0
    3.4321   -7.4021    0.0000 H   0  0  0  0  0  0  0  0  0  0  0  0
   -0.4975   -9.7242    0.0000 H   0  0  0  0  0  0  0  0  0  0  0  0
   -0.8598  -12.5383    0.0000 H   0  0  0  0  0  0  0  0  0  0  0  0
    1.4721  -14.4257    0.0000 H   0  0  0  0  0  0  0  0  0  0  0  0
    4.2726  -13.3499    0.0000 H   0  0  0  0  0  0  0  0  0  0  0  0
    4.7412  -10.3867    0.0000 H   0  0  0  0  0  0  0  0  0  0  0  0
    4.8113   -7.1895    0.0000 H   0  0  0  0  0  0  0  0  0  0  0  0
    5.3757   -6.3788    0.0000 H   0  0  0  0  0  0  0  0  0  0  0  0
    6.9551   -6.5068    0.0000 H   0  0  0  0  0  0  0  0  0  0  0  0
    7.8408   -4.9577    0.0000 H   0  0  0  0  0  0  0  0  0  0  0  0
    6.6184   -3.6577    0.0000 H   0  0  0  0  0  0  0  0  0  0  0  0
    7.6018   -2.9057    0.0000 H   0  0  0  0  0  0  0  0  0  0  0  0
    7.5808   -1.8851    0.0000 H   0  0  0  0  0  0  0  0  0  0  0  0
    8.8808    0.9162    0.0000 H   0  0  0  0  0  0  0  0  0  0  0  0
    7.2745    1.2148    0.0000 H   0  0  0  0  0  0  0  0  0  0  0  0
    8.3588   -2.3051    0.0000 H   0  0  0  0  0  0  0  0  0  0  0  0
   11.7829   -1.0014    0.0000 H   0  0  0  0  0  0  0  0  0  0  0  0
   11.4740    0.7561    0.0000 H   0  0  0  0  0  0  0  0  0  0  0  0
    9.7029    0.9746    0.0000 H   0  0  0  0  0  0  0  0  0  0  0  0
   11.4895   -2.2202    0.0000 H   0  0  0  0  0  0  0  0  0  0  0  0
   10.4148   -3.6447    0.0000 H   0  0  0  0  0  0  0  0  0  0  0  0
    8.6468   -2.8748    0.0000 H   0  0  0  0  0  0  0  0  0  0  0  0
    7.6952    2.3792    0.0000 H   0  0  0  0  0  0  0  0  0  0  0  0
    7.1258    3.2265    0.0000 H   0  0  0  0  0  0  0  0  0  0  0  0
    6.7049    6.2858    0.0000 H   0  0  0  0  0  0  0  0  0  0  0  0
    5.1921    5.6686    0.0000 H   0  0  0  0  0  0  0  0  0  0  0  0
    9.3258    4.2586    0.0000 H   0  0  0  0  0  0  0  0  0  0  0  0
    8.0073    3.2937    0.0000 H   0  0  0  0  0  0  0  0  0  0  0  0
    8.9730    7.5531    0.0000 H   0  0  0  0  0  0  0  0  0  0  0  0
    7.3650    6.7794    0.0000 H   0  0  0  0  0  0  0  0  0  0  0  0
   10.7582    4.6698    0.0000 H   0  0  0  0  0  0  0  0  0  0  0  0
   13.3791    8.5111    0.0000 H   0  0  0  0  0  0  0  0  0  0  0  0
   11.4070    9.5839    0.0000 H   0  0  0  0  0  0  0  0  0  0  0  0
    8.7283    8.6775    0.0000 H   0  0  0  0  0  0  0  0  0  0  0  0
    4.9165    6.8756    0.0000 H   0  0  0  0  0  0  0  0  0  0  0  0
    0.8831    8.8192    0.0000 H   0  0  0  0  0  0  0  0  0  0  0  0
    2.1148    8.5577    0.0000 H   0  0  0  0  0  0  0  0  0  0  0  0
   -0.6742    9.1441    0.0000 H   0  0  0  0  0  0  0  0  0  0  0  0
    0.4129    9.0570    0.0000 H   0  0  0  0  0  0  0  0  0  0  0  0
   -2.5934    9.0102    0.0000 H   0  0  0  0  0  0  0  0  0  0  0  0
   -1.1791    9.1672    0.0000 H   0  0  0  0  0  0  0  0  0  0  0  0
   -3.5812    9.0172    0.0000 H   0  0  0  0  0  0  0  0  0  0  0  0
    4.3090    8.8907    0.0000 H   0  0  0  0  0  0  0  0  0  0  0  0
    5.3870    7.6630    0.0000 H   0  0  0  0  0  0  0  0  0  0  0  0
    4.7040    6.1788    0.0000 H   0  0  0  0  0  0  0  0  0  0  0  0
    5.2042    8.4889    0.0000 H   0  0  0  0  0  0  0  0  0  0  0  0
    2.2866   10.2176    0.0000 H   0  0  0  0  0  0  0  0  0  0  0  0
    2.1920   13.0351    0.0000 H   0  0  0  0  0  0  0  0  0  0  0  0
    1.9211   11.1258    0.0000 H   0  0  0  0  0  0  0  0  0  0  0  0
    5.3925   13.8929    0.0000 H   0  0  0  0  0  0  0  0  0  0  0  0
    5.5282   12.5850    0.0000 H   0  0  0  0  0  0  0  0  0  0  0  0
    3.9243   17.0636    0.0000 H   0  0  0  0  0  0  0  0  0  0  0  0
    5.9970   15.8665    0.0000 H   0  0  0  0  0  0  0  0  0  0  0  0
    3.8638   13.8251    0.0000 H   0  0  0  0  0  0  0  0  0  0  0  0
    6.6365   12.1635    0.0000 H   0  0  0  0  0  0  0  0  0  0  0  0
    7.5112   15.4085    0.0000 H   0  0  0  0  0  0  0  0  0  0  0  0
   10.2141   12.5516    0.0000 H   0  0  0  0  0  0  0  0  0  0  0  0
    9.2801   11.4152    0.0000 H   0  0  0  0  0  0  0  0  0  0  0  0
    7.5531   11.8643    0.0000 H   0  0  0  0  0  0  0  0  0  0  0  0
   10.1743   15.6378    0.0000 H   0  0  0  0  0  0  0  0  0  0  0  0
    8.2887   16.0414    0.0000 H   0  0  0  0  0  0  0  0  0  0  0  0
   11.7097   14.6142    0.0000 H   0  0  0  0  0  0  0  0  0  0  0  0
   11.5289   13.3828    0.0000 H   0  0  0  0  0  0  0  0  0  0  0  0
    9.7529   12.6315    0.0000 H   0  0  0  0  0  0  0  0  0  0  0  0
    6.0806   17.3511    0.0000 H   0  0  0  0  0  0  0  0  0  0  0  0
    7.3730   18.8872    0.0000 H   0  0  0  0  0  0  0  0  0  0  0  0
    8.5245   19.1726    0.0000 H   0  0  0  0  0  0  0  0  0  0  0  0
   10.3847   18.4181    0.0000 H   0  0  0  0  0  0  0  0  0  0  0  0
   11.0121   17.4111    0.0000 H   0  0  0  0  0  0  0  0  0  0  0  0
   10.9933   15.5437    0.0000 H   0  0  0  0  0  0  0  0  0  0  0  0
    8.4983   13.8865    0.0000 H   0  0  0  0  0  0  0  0  0  0  0  0
    8.8485   12.0421    0.0000 H   0  0  0  0  0  0  0  0  0  0  0  0
   12.0156   13.4490    0.0000 H   0  0  0  0  0  0  0  0  0  0  0  0
   14.1882   11.9543    0.0000 H   0  0  0  0  0  0  0  0  0  0  0  0
   12.8029   13.2957    0.0000 H   0  0  0  0  0  0  0  0  0  0  0  0
   13.1842    8.8590    0.0000 H   0  0  0  0  0  0  0  0  0  0  0  0
   11.9745    9.3743    0.0000 H   0  0  0  0  0  0  0  0  0  0  0  0
   17.0611   10.7049    0.0000 H   0  0  0  0  0  0  0  0  0  0  0  0
   13.8447   10.1375    0.0000 H   0  0  0  0  0  0  0  0  0  0  0  0
   10.8707    8.8709    0.0000 H   0  0  0  0  0  0  0  0  0  0  0  0
   10.7541    5.7652    0.0000 H   0  0  0  0  0  0  0  0  0  0  0  0
   10.7998    8.1919    0.0000 H   0  0  0  0  0  0  0  0  0  0  0  0
   13.9657    6.2087    0.0000 H   0  0  0  0  0  0  0  0  0  0  0  0
   12.4865    2.9862    0.0000 H   0  0  0  0  0  0  0  0  0  0  0  0
   10.8831    3.3002    0.0000 H   0  0  0  0  0  0  0  0  0  0  0  0
   10.5176    4.8926    0.0000 H   0  0  0  0  0  0  0  0  0  0  0  0
   13.6742    3.4106    0.0000 H   0  0  0  0  0  0  0  0  0  0  0  0
   15.2358    4.5419    0.0000 H   0  0  0  0  0  0  0  0  0  0  0  0
   14.2213    6.3407    0.0000 H   0  0  0  0  0  0  0  0  0  0  0  0
   12.2558    5.0321    0.0000 H   0  0  0  0  0  0  0  0  0  0  0  0
   15.4229    6.4390    0.0000 H   0  0  0  0  0  0  0  0  0  0  0  0
   17.5955    4.9443    0.0000 H   0  0  0  0  0  0  0  0  0  0  0  0
   16.2102    6.2857    0.0000 H   0  0  0  0  0  0  0  0  0  0  0  0
   16.4084    1.8508    0.0000 H   0  0  0  0  0  0  0  0  0  0  0  0
   15.2704    2.5098    0.0000 H   0  0  0  0  0  0  0  0  0  0  0  0
   20.4684    3.6949    0.0000 H   0  0  0  0  0  0  0  0  0  0  0  0
   17.2520    3.1275    0.0000 H   0  0  0  0  0  0  0  0  0  0  0  0
   14.2227    1.6863    0.0000 H   0  0  0  0  0  0  0  0  0  0  0  0
   14.0223   -1.1256    0.0000 H   0  0  0  0  0  0  0  0  0  0  0  0
   13.8233    0.7924    0.0000 H   0  0  0  0  0  0  0  0  0  0  0  0
   16.0592   -3.9452    0.0000 H   0  0  0  0  0  0  0  0  0  0  0  0
   13.8418   -2.7870    0.0000 H   0  0  0  0  0  0  0  0  0  0  0  0
   15.6631   -1.9779    0.0000 H   0  0  0  0  0  0  0  0  0  0  0  0
   18.6678   -0.4862    0.0000 H   0  0  0  0  0  0  0  0  0  0  0  0
   21.0028   -2.0658    0.0000 H   0  0  0  0  0  0  0  0  0  0  0  0
   19.6175   -0.7243    0.0000 H   0  0  0  0  0  0  0  0  0  0  0  0
   21.9615   -5.4094    0.0000 H   0  0  0  0  0  0  0  0  0  0  0  0
   22.4207   -2.9502    0.0000 H   0  0  0  0  0  0  0  0  0  0  0  0
   20.6593   -3.8826    0.0000 H   0  0  0  0  0  0  0  0  0  0  0  0
   17.6300   -5.3237    0.0000 H   0  0  0  0  0  0  0  0  0  0  0  0
   17.4296   -8.1357    0.0000 H   0  0  0  0  0  0  0  0  0  0  0  0
   17.2306   -6.2176    0.0000 H   0  0  0  0  0  0  0  0  0  0  0  0
   20.5955   -9.1132    0.0000 H   0  0  0  0  0  0  0  0  0  0  0  0
   20.7803   -7.8113    0.0000 H   0  0  0  0  0  0  0  0  0  0  0  0
   16.6371  -11.1665    0.0000 H   0  0  0  0  0  0  0  0  0  0  0  0
   19.0704   -8.9879    0.0000 H   0  0  0  0  0  0  0  0  0  0  0  0
   22.0751   -7.4962    0.0000 H   0  0  0  0  0  0  0  0  0  0  0  0
   24.3801   -8.8951    0.0000 H   0  0  0  0  0  0  0  0  0  0  0  0
   23.0248   -7.7343    0.0000 H   0  0  0  0  0  0  0  0  0  0  0  0
   23.0414  -12.1450    0.0000 H   0  0  0  0  0  0  0  0  0  0  0  0
   22.0850  -11.5102    0.0000 H   0  0  0  0  0  0  0  0  0  0  0  0
   26.2766  -10.8831    0.0000 H   0  0  0  0  0  0  0  0  0  0  0  0
   25.0728   -9.5658    0.0000 H   0  0  0  0  0  0  0  0  0  0  0  0
   25.0894  -13.9765    0.0000 H   0  0  0  0  0  0  0  0  0  0  0  0
   23.7341  -12.8158    0.0000 H   0  0  0  0  0  0  0  0  0  0  0  0
   27.0625  -14.2876    0.0000 H   0  0  0  0  0  0  0  0  0  0  0  0
   27.6945  -11.7675    0.0000 H   0  0  0  0  0  0  0  0  0  0  0  0
   24.0666  -10.8926    0.0000 H   0  0  0  0  0  0  0  0  0  0  0  0
   21.0373  -12.3337    0.0000 H   0  0  0  0  0  0  0  0  0  0  0  0
   20.3883  -14.2229    0.0000 H   0  0  0  0  0  0  0  0  0  0  0  0
   21.4148  -15.4940    0.0000 H   0  0  0  0  0  0  0  0  0  0  0  0
   23.2037  -14.7741    0.0000 H   0  0  0  0  0  0  0  0  0  0  0  0
   25.6163  -14.7586    0.0000 H   0  0  0  0  0  0  0  0  0  0  0  0
   26.0993  -16.7070    0.0000 H   0  0  0  0  0  0  0  0  0  0  0  0
   25.6533  -17.8064    0.0000 H   0  0  0  0  0  0  0  0  0  0  0  0
   23.9495  -18.8679    0.0000 H   0  0  0  0  0  0  0  0  0  0  0  0
   22.7661  -18.7835    0.0000 H   0  0  0  0  0  0  0  0  0  0  0  0
   21.2664  -17.6707    0.0000 H   0  0  0  0  0  0  0  0  0  0  0  0
   21.5396  -14.5693    0.0000 H   0  0  0  0  0  0  0  0  0  0  0  0
   19.2720  -18.3275    0.0000 H   0  0  0  0  0  0  0  0  0  0  0  0
  1  2  1  0
  2  3  1  0
  3  4  2  0
  4  5  1  0
  5  6  2  0
  6  7  1  0
  7  8  2  0
  7  9  1  0
  9 10  1  0
 10 11  1  0
 11 12  2  0
  9 13  1  0
 13 14  1  0
 14 15  2  0
 15 16  1  0
 16 17  2  0
 17 18  1  0
 16 19  1  0
 14 20  1  0
 20 21  1  0
 21 22  2  0
 22 23  1  0
 23 24  2  0
 24 25  1  0
 25 26  2  0
 25 27  1  0
  1 28  2  0
  1 29  1  0
 29 30  1  0
 30 31  1  0
 31 32  1  0
 32 33  2  0
 32 34  1  0
 34 35  1  0
 35 36  1  0
 36 37  1  0
 37 38  1  0
 37 39  2  0
 35 40  1  0
 40 41  2  0
 40 42  1  0
 42 43  1  0
 43 44  1  0
 44 45  1  0
 45 46  1  0
 46 47  2  0
 46 48  1  0
 43 49  1  0
 49 50  2  0
 49 51  1  0
 51 52  1  0
 52 53  1  0
 53 54  1  0
 54 55  1  0
 54 56  1  0
 52 57  1  0
 57 58  2  0
 57 59  1  0
 59 60  1  0
 60 61  1  0
 61 62  1  0
 62 63  1  0
 63 64  1  0
 64 65  1  0
 60 66  1  0
 66 67  2  0
 66 68  1  0
 69 68  1  6
 69 70  1  0
 70 71  1  0
 71 72  1  0
 72 73  1  0
 73 74  1  0
 74 75  1  0
 75 76  1  0
 69 77  1  0
 69 78  1  0
 78 79  2  0
 78 80  1  0
 80 81  1  0
 81 82  1  0
 82 83  1  0
 81 84  1  0
 84 85  2  0
 84 86  1  0
 86 87  1  0
 87 88  1  0
 88 89  1  0
 89 90  2  0
 90 91  1  0
 91 92  2  0
 92 93  1  0
 93 94  2  0
 87 95  1  0
 95 96  2  0
 95 97  1  0
 97 98  1  0
 98 99  1  0
 99100  1  0
100101  2  0
101102  1  0
102103  2  0
103104  1  0
104105  2  0
 98106  1  0
106107  2  0
106108  1  0
108109  1  0
109110  1  0
109111  1  0
111112  2  0
111113  1  0
113114  1  0
114115  1  0
115116  1  0
116117  1  0
116118  1  0
114119  1  0
119120  2  0
119121  1  0
121122  1  0
122123  1  0
123124  1  0
124125  1  0
125126  1  0
126127  1  0
127128  2  3
127129  1  0
122130  1  0
130131  2  0
130132  1  0
132133  1  0
133134  1  0
134135  1  0
135136  1  0
136137  1  0
133138  1  0
133139  1  1
139140  2  0
139141  1  0
141142  1  0
142143  1  0
143144  1  0
144145  1  0
145146  1  0
145147  2  0
142148  1  0
148149  2  0
148150  1  0
150151  1  0
151152  1  0
152153  1  0
152154  1  0
154155  1  0
151156  1  0
156157  2  0
156158  1  0
158159  1  0
159160  1  0
160161  1  0
161162  1  0
162163  1  0
163164  2  0
163165  1  0
165166  1  0
166167  1  0
167168  1  0
168169  1  0
169170  2  0
169171  1  0
166172  1  0
172173  2  0
172174  1  0
174175  1  0
175176  1  0
176177  1  0
177178  1  0
177179  1  0
175180  1  0
180181  2  0
180182  1  0
182183  1  0
183184  1  0
184185  1  0
185186  1  0
186187  2  0
186188  1  0
183189  1  0
189190  2  0
189191  1  0
191192  1  0
192193  1  0
193194  1  0
194195  1  0
194196  2  0
192197  1  0
197198  2  0
197199  1  0
199200  1  0
200201  1  0
201202  1  0
202203  1  0
202204  2  0
200205  1  0
205206  2  0
205207  1  0
207208  1  0
208209  1  0
209210  1  0
210211  1  0
211212  2  0
211213  1  0
208214  1  0
214215  2  0
214216  1  0
216217  1  0
217218  1  0
218219  1  0
219220  1  0
220221  1  0
221222  1  0
217223  1  0
223224  2  0
223225  1  0
225226  1  0
226227  1  0
226228  1  0
228229  2  0
228230  1  0
230231  1  0
231232  1  0
232233  1  0
233234  1  0
234235  1  0
235236  2  0
235237  1  0
  8  3  1  0
 94 89  1  0
105100  1  0
162158  1  0
234230  1  0
 11  6  1  0
 76137  2  0
 18 13  2  0
 22  9  1  0
 26 21  1  0
  2238  1  0
  4239  1  0
  5240  1  0
  8241  1  0
 15242  1  0
 17243  1  0
 18244  1  0
 19245  1  0
 23246  1  0
 24247  1  0
 26248  1  0
 27249  1  0
 29250  1  0
 30251  1  0
 30252  1  0
 31253  1  0
 31254  1  0
 34255  1  0
 35256  1  1
 36257  1  0
 36258  1  0
 38259  1  0
 38260  1  0
 42261  1  0
 43262  1  1
 44263  1  0
 44264  1  0
 45265  1  0
 45266  1  0
 48267  1  0
 51268  1  0
 52269  1  1
 53270  1  0
 53271  1  0
 54272  1  0
 55273  1  0
 55274  1  0
 55275  1  0
 56276  1  0
 56277  1  0
 56278  1  0
 59279  1  0
 60280  1  1
 61281  1  0
 61282  1  0
 62283  1  0
 62284  1  0
 63285  1  0
 63286  1  0
 64287  1  0
 64288  1  0
 65289  1  0
 65290  1  0
 68291  1  0
 70292  1  0
 70293  1  0
 71294  1  0
 71295  1  0
 72296  1  0
 72297  1  0
 73298  1  0
 73299  1  0
 74300  1  0
 74301  1  0
 75302  1  0
 75303  1  0
 76304  1  0
 77305  1  0
 77306  1  0
 77307  1  0
 80308  1  0
 81309  1  6
 82310  1  0
 82311  1  0
 83312  1  0
 86313  1  0
 87314  1  6
 88315  1  0
 88316  1  0
 90317  1  0
 91318  1  0
 92319  1  0
 93320  1  0
 94321  1  0
 97322  1  0
 98323  1  6
 99324  1  0
 99325  1  0
101326  1  0
102327  1  0
103328  1  0
104329  1  0
105330  1  0
108331  1  0
109332  1  6
110333  1  0
110334  1  0
110335  1  0
113336  1  0
114337  1  6
115338  1  0
115339  1  0
116340  1  0
117341  1  0
117342  1  0
117343  1  0
118344  1  0
118345  1  0
118346  1  0
121347  1  0
122348  1  6
123349  1  0
123350  1  0
124351  1  0
124352  1  0
125353  1  0
125354  1  0
126355  1  0
128356  1  0
129357  1  0
129358  1  0
132359  1  0
134360  1  0
134361  1  0
135362  1  0
135363  1  0
136364  1  0
136365  1  0
137366  1  0
138367  1  0
138368  1  0
138369  1  0
141370  1  0
142371  1  1
143372  1  0
143373  1  0
144374  1  0
144375  1  0
146376  1  0
146377  1  0
150378  1  0
151379  1  6
152380  1  1
153381  1  0
153382  1  0
153383  1  0
154384  1  0
154385  1  0
155386  1  0
155387  1  0
155388  1  0
159389  1  0
159390  1  0
160391  1  0
160392  1  0
161393  1  0
161394  1  0
162395  1  0
165396  1  0
166397  1  1
167398  1  0
167399  1  0
168400  1  0
168401  1  0
171402  1  0
174403  1  0
175404  1  6
176405  1  0
176406  1  0
177407  1  0
178408  1  0
178409  1  0
178410  1  0
179411  1  0
179412  1  0
179413  1  0
182414  1  0
183415  1  1
184416  1  0
184417  1  0
185418  1  0
185419  1  0
188420  1  0
191421  1  0
192422  1  6
193423  1  0
193424  1  0
195425  1  0
195426  1  0
199427  1  0
200428  1  1
201429  1  0
201430  1  0
203431  1  0
203432  1  0
207433  1  0
208434  1  6
209435  1  0
209436  1  0
210437  1  0
210438  1  0
213439  1  0
216440  1  0
217441  1  1
218442  1  0
218443  1  0
219444  1  0
219445  1  0
220446  1  0
220447  1  0
221448  1  0
221449  1  0
222450  1  0
222451  1  0
225452  1  0
226453  1  6
227454  1  0
227455  1  0
227456  1  0
231457  1  0
231458  1  0
232459  1  0
232460  1  0
233461  1  0
233462  1  0
234463  1  0
237464  1  0
M  END
