
     RDKit          2D

461467  0  0  0  0  0  0  0  0999 V2000
   51.1266   -2.5301    0.0000 C   0  0  0  0  0  0  0  0  0  0  0  0
   52.4719   -1.8666    0.0000 N   0  0  0  0  0  0  0  0  0  0  0  0
   53.7191   -2.6999    0.0000 C   0  0  0  0  0  0  0  0  0  0  0  0
   53.6211   -4.1967    0.0000 C   0  0  0  0  0  0  0  0  0  0  0  0
   54.8683   -5.0300    0.0000 C   0  0  0  0  0  0  0  0  0  0  0  0
   56.2136   -4.3665    0.0000 C   0  0  0  0  0  0  0  0  0  0  0  0
   56.3116   -2.8697    0.0000 C   0  0  0  0  0  0  0  0  0  0  0  0
   55.0644   -2.0364    0.0000 C   0  0  0  0  0  0  0  0  0  0  0  0
   57.7655   -2.5004    0.0000 C   0  0  0  0  0  0  0  0  0  0  0  0
   58.5659   -3.7690    0.0000 O   0  0  0  0  0  0  0  0  0  0  0  0
   57.6068   -4.9223    0.0000 C   0  0  0  0  0  0  0  0  0  0  0  0
   57.9761   -6.3761    0.0000 O   0  0  0  0  0  0  0  0  0  0  0  0
   59.2499   -2.2851    0.0000 C   0  0  0  0  0  0  0  0  0  0  0  0
   59.8057   -0.8919    0.0000 C   0  0  0  0  0  0  0  0  0  0  0  0
   61.2902   -0.6765    0.0000 C   0  0  0  0  0  0  0  0  0  0  0  0
   62.2189   -1.8545    0.0000 C   0  0  0  0  0  0  0  0  0  0  0  0
   61.6631   -3.2477    0.0000 C   0  0  0  0  0  0  0  0  0  0  0  0
   60.1786   -3.4630    0.0000 C   0  0  0  0  0  0  0  0  0  0  0  0
   63.7033   -1.6392    0.0000 O   0  0  0  0  0  0  0  0  0  0  0  0
   58.8770    0.2861    0.0000 O   0  0  0  0  0  0  0  0  0  0  0  0
   57.3925    0.0708    0.0000 C   0  0  0  0  0  0  0  0  0  0  0  0
   56.8368   -1.3225    0.0000 C   0  0  0  0  0  0  0  0  0  0  0  0
   55.6116   -0.8876    0.0000 C   0  0  0  0  0  0  0  0  0  0  0  0
   55.1163   -0.2594    0.0000 C   0  0  0  0  0  0  0  0  0  0  0  0
   55.4128    0.4837    0.0000 C   0  0  0  0  0  0  0  0  0  0  0  0
   56.2045    0.5985    0.0000 C   0  0  0  0  0  0  0  0  0  0  0  0
   54.0507    2.2113    0.0000 O   0  0  0  0  0  0  0  0  0  0  0  0
   51.0285   -4.0269    0.0000 S   0  0  0  0  0  0  0  0  0  0  0  0
   49.8793   -1.6968    0.0000 N   0  0  0  0  0  0  0  0  0  0  0  0
   48.5341   -2.3603    0.0000 C   0  0  0  0  0  0  0  0  0  0  0  0
   47.2868   -1.5270    0.0000 C   0  0  0  0  0  0  0  0  0  0  0  0
   45.9415   -2.1905    0.0000 C   0  0  0  0  0  0  0  0  0  0  0  0
   45.8435   -3.6873    0.0000 O   0  0  0  0  0  0  0  0  0  0  0  0
   44.6943   -1.3572    0.0000 N   0  0  0  0  0  0  0  0  0  0  0  0
   43.3490   -2.0207    0.0000 C   0  0  0  0  0  0  0  0  0  0  0  0
   42.3118   -3.1043    0.0000 C   0  0  0  0  0  0  0  0  0  0  0  0
   40.8238   -3.2938    0.0000 O   0  0  0  0  0  0  0  0  0  0  0  0
   42.1018   -1.1874    0.0000 C   0  0  0  0  0  0  0  0  0  0  0  0
   42.1998    0.3094    0.0000 O   0  0  0  0  0  0  0  0  0  0  0  0
   40.7565   -1.8509    0.0000 N   0  0  0  0  0  0  0  0  0  0  0  0
   39.5093   -1.0176    0.0000 C   0  0  0  0  0  0  0  0  0  0  0  0
   38.6222    0.1920    0.0000 C   0  0  0  0  0  0  0  0  0  0  0  0
   39.2263    1.5650    0.0000 C   0  0  0  0  0  0  0  0  0  0  0  0
   38.3393    2.7746    0.0000 C   0  0  0  0  0  0  0  0  0  0  0  0
   38.9433    4.1476    0.0000 O   0  0  0  0  0  0  0  0  0  0  0  0
   36.8482    2.6113    0.0000 O   0  0  0  0  0  0  0  0  0  0  0  0
   38.1640   -1.6811    0.0000 C   0  0  0  0  0  0  0  0  0  0  0  0
   38.0659   -3.1779    0.0000 O   0  0  0  0  0  0  0  0  0  0  0  0
   36.9167   -0.8478    0.0000 N   0  0  0  0  0  0  0  0  0  0  0  0
   35.5715   -1.5113    0.0000 C   0  0  0  0  0  0  0  0  0  0  0  0
   34.5342   -2.5949    0.0000 C   0  0  0  0  0  0  0  0  0  0  0  0
   33.0772   -2.2384    0.0000 C   0  0  0  0  0  0  0  0  0  0  0  0
   32.0400   -3.3220    0.0000 C   0  0  0  0  0  0  0  0  0  0  0  0
   30.8334   -3.1793    0.0000 O   0  0  0  0  0  0  0  0  0  0  0  0
   32.4598   -4.7621    0.0000 O   0  0  0  0  0  0  0  0  0  0  0  0
   34.3242   -0.6780    0.0000 C   0  0  0  0  0  0  0  0  0  0  0  0
   34.4222    0.8188    0.0000 O   0  0  0  0  0  0  0  0  0  0  0  0
   32.9789   -1.3415    0.0000 N   0  0  0  0  0  0  0  0  0  0  0  0
   31.7317   -0.5082    0.0000 C   0  0  0  0  0  0  0  0  0  0  0  0
   30.8447    0.7014    0.0000 C   0  0  0  0  0  0  0  0  0  0  0  0
   31.4487    2.0744    0.0000 C   0  0  0  0  0  0  0  0  0  0  0  0
   30.5617    3.2840    0.0000 C   0  0  0  0  0  0  0  0  0  0  0  0
   32.4859    3.1580    0.0000 C   0  0  0  0  0  0  0  0  0  0  0  0
   30.3864   -1.1717    0.0000 C   0  0  0  0  0  0  0  0  0  0  0  0
   30.1598   -2.3654    0.0000 O   0  0  0  0  0  0  0  0  0  0  0  0
   29.1392   -0.3384    0.0000 N   0  0  0  0  0  0  0  0  0  0  0  0
   27.7939   -1.0019    0.0000 C   0  0  0  0  0  0  0  0  0  0  0  0
   26.7567   -2.0855    0.0000 C   0  0  0  0  0  0  0  0  0  0  0  0
   25.2671   -1.9093    0.0000 C   0  0  0  0  0  0  0  0  0  0  0  0
   26.5466   -0.1686    0.0000 C   0  0  0  0  0  0  0  0  0  0  0  0
   26.6447    1.3282    0.0000 O   0  0  0  0  0  0  0  0  0  0  0  0
   25.2014   -0.8321    0.0000 N   0  0  0  0  0  0  0  0  0  0  0  0
   23.9541    0.0012    0.0000 C   0  0  0  0  0  0  0  0  0  0  0  0
   23.0671    1.2108    0.0000 C   0  0  0  0  0  0  0  0  0  0  0  0
   22.6088   -0.6623    0.0000 C   0  0  0  0  0  0  0  0  0  0  0  0
   22.5108   -2.1591    0.0000 O   0  0  0  0  0  0  0  0  0  0  0  0
   21.3616    0.1710    0.0000 N   0  0  0  0  0  0  0  0  0  0  0  0
   20.0163   -0.4925    0.0000 C   0  0  0  0  0  0  0  0  0  0  0  0
   18.9791   -1.5761    0.0000 C   0  0  0  0  0  0  0  0  0  0  0  0
   17.5221   -1.2196    0.0000 C   0  0  0  0  0  0  0  0  0  0  0  0
   16.4849   -2.3032    0.0000 C   0  0  0  0  0  0  0  0  0  0  0  0
   15.2783   -2.1605    0.0000 O   0  0  0  0  0  0  0  0  0  0  0  0
   16.9047   -3.7433    0.0000 O   0  0  0  0  0  0  0  0  0  0  0  0
   18.7691    0.3408    0.0000 C   0  0  0  0  0  0  0  0  0  0  0  0
   18.8671    1.8376    0.0000 O   0  0  0  0  0  0  0  0  0  0  0  0
   17.4238   -0.3227    0.0000 N   0  0  0  0  0  0  0  0  0  0  0  0
   16.1766    0.5106    0.0000 C   0  0  0  0  0  0  0  0  0  0  0  0
   15.2895    1.7202    0.0000 C   0  0  0  0  0  0  0  0  0  0  0  0
   14.8313   -0.1529    0.0000 C   0  0  0  0  0  0  0  0  0  0  0  0
   14.6047   -1.3466    0.0000 O   0  0  0  0  0  0  0  0  0  0  0  0
   13.5840    0.6804    0.0000 N   0  0  0  0  0  0  0  0  0  0  0  0
   12.2388    0.0169    0.0000 C   0  0  0  0  0  0  0  0  0  0  0  0
   11.2015   -1.0667    0.0000 C   0  0  0  0  0  0  0  0  0  0  0  0
    9.7445   -0.7103    0.0000 C   0  0  0  0  0  0  0  0  0  0  0  0
    8.5997   -1.6795    0.0000 C   0  0  0  0  0  0  0  0  0  0  0  0
    7.3241   -0.8902    0.0000 N   0  0  0  0  0  0  0  0  0  0  0  0
    7.6806    0.5668    0.0000 C   0  0  0  0  0  0  0  0  0  0  0  0
    9.1765    0.6780    0.0000 N   0  0  0  0  0  0  0  0  0  0  0  0
   10.9915    0.8502    0.0000 C   0  0  0  0  0  0  0  0  0  0  0  0
   11.0895    2.3470    0.0000 O   0  0  0  0  0  0  0  0  0  0  0  0
    9.6462    0.1867    0.0000 N   0  0  0  0  0  0  0  0  0  0  0  0
    8.3990    1.0200    0.0000 C   0  0  0  0  0  0  0  0  0  0  0  0
    7.5120    2.2296    0.0000 C   0  0  0  0  0  0  0  0  0  0  0  0
    8.1160    3.6026    0.0000 C   0  0  0  0  0  0  0  0  0  0  0  0
    7.2290    4.8122    0.0000 N   0  0  0  0  0  0  0  0  0  0  0  0
    9.6071    3.7660    0.0000 O   0  0  0  0  0  0  0  0  0  0  0  0
    7.0537    0.3565    0.0000 C   0  0  0  0  0  0  0  0  0  0  0  0
    6.5964   -1.0721    0.0000 O   0  0  0  0  0  0  0  0  0  0  0  0
    5.8065    1.1898    0.0000 N   0  0  0  0  0  0  0  0  0  0  0  0
    4.4612    0.5263    0.0000 C   0  0  0  0  0  0  0  0  0  0  0  0
    3.4240   -0.5573    0.0000 C   0  0  0  0  0  0  0  0  0  0  0  0
    1.9669   -0.2009    0.0000 C   0  0  0  0  0  0  0  0  0  0  0  0
    0.9297   -1.2845    0.0000 C   0  0  0  0  0  0  0  0  0  0  0  0
    0.7197    0.6324    0.0000 C   0  0  0  0  0  0  0  0  0  0  0  0
    3.2139    1.3596    0.0000 C   0  0  0  0  0  0  0  0  0  0  0  0
    3.3120    2.8564    0.0000 O   0  0  0  0  0  0  0  0  0  0  0  0
    1.8687    0.6961    0.0000 N   0  0  0  0  0  0  0  0  0  0  0  0
    0.6214    1.5294    0.0000 C   0  0  0  0  0  0  0  0  0  0  0  0
   -0.2656    2.7390    0.0000 C   0  0  0  0  0  0  0  0  0  0  0  0
    0.3385    4.1120    0.0000 S   0  0  0  0  0  0  0  0  0  0  0  0
   -0.7239    0.8659    0.0000 C   0  0  0  0  0  0  0  0  0  0  0  0
   -1.0036   -0.6078    0.0000 O   0  0  0  0  0  0  0  0  0  0  0  0
   -1.9711    1.6992    0.0000 N   0  0  0  0  0  0  0  0  0  0  0  0
   -3.3164    1.0357    0.0000 C   0  0  0  0  0  0  0  0  0  0  0  0
   -4.3536   -0.0479    0.0000 C   0  0  0  0  0  0  0  0  0  0  0  0
   -4.9576   -1.4209    0.0000 O   0  0  0  0  0  0  0  0  0  0  0  0
   -5.8432    0.1283    0.0000 C   0  0  0  0  0  0  0  0  0  0  0  0
   -4.5636    1.8690    0.0000 C   0  0  0  0  0  0  0  0  0  0  0  0
   -4.4656    3.3658    0.0000 O   0  0  0  0  0  0  0  0  0  0  0  0
   -5.9089    1.2055    0.0000 N   0  0  0  0  0  0  0  0  0  0  0  0
   -7.1561    2.0388    0.0000 C   0  0  0  0  0  0  0  0  0  0  0  0
   -8.0432    3.2484    0.0000 C   0  0  0  0  0  0  0  0  0  0  0  0
   -7.4391    4.6214    0.0000 C   0  0  0  0  0  0  0  0  0  0  0  0
   -8.3261    5.8310    0.0000 C   0  0  0  0  0  0  0  0  0  0  0  0
   -6.4019    5.7050    0.0000 C   0  0  0  0  0  0  0  0  0  0  0  0
   -8.5014    1.3753    0.0000 C   0  0  0  0  0  0  0  0  0  0  0  0
   -8.5994   -0.1215    0.0000 O   0  0  0  0  0  0  0  0  0  0  0  0
   -9.7487    2.2086    0.0000 N   0  0  0  0  0  0  0  0  0  0  0  0
  -11.0939    1.5451    0.0000 C   0  0  0  0  0  0  0  0  0  0  0  0
  -12.1312    0.4615    0.0000 C   0  0  0  0  0  0  0  0  0  0  0  0
  -13.5882    0.8179    0.0000 C   0  0  0  0  0  0  0  0  0  0  0  0
  -14.6254   -0.2657    0.0000 C   0  0  0  0  0  0  0  0  0  0  0  0
  -14.8354    1.6512    0.0000 C   0  0  0  0  0  0  0  0  0  0  0  0
  -12.3412    2.3784    0.0000 C   0  0  0  0  0  0  0  0  0  0  0  0
  -12.2431    3.8752    0.0000 O   0  0  0  0  0  0  0  0  0  0  0  0
  -13.6865    1.7149    0.0000 N   0  0  0  0  0  0  0  0  0  0  0  0
  -14.9337    2.5482    0.0000 C   0  0  0  0  0  0  0  0  0  0  0  0
  -15.8207    3.7578    0.0000 C   0  0  0  0  0  0  0  0  0  0  0  0
  -15.2167    5.1308    0.0000 C   0  0  0  0  0  0  0  0  0  0  0  0
  -16.1037    6.3404    0.0000 C   0  0  0  0  0  0  0  0  0  0  0  0
  -15.4996    7.7134    0.0000 O   0  0  0  0  0  0  0  0  0  0  0  0
  -17.6036    6.3600    0.0000 O   0  0  0  0  0  0  0  0  0  0  0  0
  -16.2790    1.8847    0.0000 C   0  0  0  0  0  0  0  0  0  0  0  0
  -16.3770    0.3879    0.0000 O   0  0  0  0  0  0  0  0  0  0  0  0
  -17.5262    2.7180    0.0000 N   0  0  0  0  0  0  0  0  0  0  0  0
  -18.8715    2.0545    0.0000 C   0  0  0  0  0  0  0  0  0  0  0  0
  -19.2642    0.6068    0.0000 C   0  0  0  0  0  0  0  0  0  0  0  0
  -20.0661   -0.6609    0.0000 C   0  0  0  0  0  0  0  0  0  0  0  0
  -21.2061   -1.6358    0.0000 C   0  0  0  0  0  0  0  0  0  0  0  0
  -22.5828   -2.2314    0.0000 C   0  0  0  0  0  0  0  0  0  0  0  0
  -17.6059    1.2494    0.0000 C   0  0  0  0  0  0  0  0  0  0  0  0
  -18.9230    3.5536    0.0000 C   0  0  0  0  0  0  0  0  0  0  0  0
  -17.5585    4.1766    0.0000 O   0  0  0  0  0  0  0  0  0  0  0  0
  -19.4141    4.9709    0.0000 N   0  0  0  0  0  0  0  0  0  0  0  0
  -20.3011    6.1806    0.0000 C   0  0  0  0  0  0  0  0  0  0  0  0
  -19.9811    7.6460    0.0000 C   0  0  0  0  0  0  0  0  0  0  0  0
  -21.5052    7.0750    0.0000 C   0  0  0  0  0  0  0  0  0  0  0  0
  -20.8003    8.3990    0.0000 O   0  0  0  0  0  0  0  0  0  0  0  0
  -22.9195    7.5747    0.0000 N   0  0  0  0  0  0  0  0  0  0  0  0
  -24.4183    7.6354    0.0000 C   0  0  0  0  0  0  0  0  0  0  0  0
  -25.3645    8.7993    0.0000 C   0  0  0  0  0  0  0  0  0  0  0  0
  -24.6628   10.1251    0.0000 C   0  0  0  0  0  0  0  0  0  0  0  0
  -26.6518    9.5694    0.0000 C   0  0  0  0  0  0  0  0  0  0  0  0
  -26.6284   11.0692    0.0000 C   0  0  0  0  0  0  0  0  0  0  0  0
  -25.8684    7.2516    0.0000 C   0  0  0  0  0  0  0  0  0  0  0  0
  -26.6274    8.5455    0.0000 O   0  0  0  0  0  0  0  0  0  0  0  0
  -27.1409    6.4575    0.0000 N   0  0  0  0  0  0  0  0  0  0  0  0
  -28.1228    5.3236    0.0000 C   0  0  0  0  0  0  0  0  0  0  0  0
  -29.6228    5.3095    0.0000 C   0  0  0  0  0  0  0  0  0  0  0  0
  -30.3849    6.6014    0.0000 C   0  0  0  0  0  0  0  0  0  0  0  0
  -31.8849    6.5873    0.0000 C   0  0  0  0  0  0  0  0  0  0  0  0
  -32.6470    7.8792    0.0000 N   0  0  0  0  0  0  0  0  0  0  0  0
  -32.6226    5.2813    0.0000 O   0  0  0  0  0  0  0  0  0  0  0  0
  -28.7269    3.9506    0.0000 C   0  0  0  0  0  0  0  0  0  0  0  0
  -30.1746    4.3432    0.0000 O   0  0  0  0  0  0  0  0  0  0  0  0
  -28.8994    2.4605    0.0000 N   0  0  0  0  0  0  0  0  0  0  0  0
  -28.6251    0.9858    0.0000 C   0  0  0  0  0  0  0  0  0  0  0  0
  -27.9282   -0.3425    0.0000 C   0  0  0  0  0  0  0  0  0  0  0  0
  -26.8708   -1.4064    0.0000 C   0  0  0  0  0  0  0  0  0  0  0  0
  -25.5468   -2.1114    0.0000 C   0  0  0  0  0  0  0  0  0  0  0  0
  -24.0738   -2.3948    0.0000 C   0  0  0  0  0  0  0  0  0  0  0  0
  -30.0821    1.3423    0.0000 C   0  0  0  0  0  0  0  0  0  0  0  0
  -29.5492   -0.1957    0.0000 C   0  0  0  0  0  0  0  0  0  0  0  0
  -29.3414   -1.6812    0.0000 O   0  0  0  0  0  0  0  0  0  0  0  0
  -31.0345    0.0139    0.0000 N   0  0  0  0  0  0  0  0  0  0  0  0
  -31.9587   -1.1675    0.0000 C   0  0  0  0  0  0  0  0  0  0  0  0
  -32.4230   -2.5939    0.0000 C   0  0  0  0  0  0  0  0  0  0  0  0
  -32.3715   -4.0930    0.0000 O   0  0  0  0  0  0  0  0  0  0  0  0
  -33.8416   -3.0814    0.0000 C   0  0  0  0  0  0  0  0  0  0  0  0
  -33.4440   -0.9579    0.0000 C   0  0  0  0  0  0  0  0  0  0  0  0
  -34.0051    0.4332    0.0000 O   0  0  0  0  0  0  0  0  0  0  0  0
  -34.3681   -2.1394    0.0000 N   0  0  0  0  0  0  0  0  0  0  0  0
  -35.8534   -1.9298    0.0000 C   0  0  0  0  0  0  0  0  0  0  0  0
  -37.1774   -1.2248    0.0000 C   0  0  0  0  0  0  0  0  0  0  0  0
  -37.2289    0.2743    0.0000 C   0  0  0  0  0  0  0  0  0  0  0  0
  -36.7776   -3.1113    0.0000 C   0  0  0  0  0  0  0  0  0  0  0  0
  -36.2165   -4.5024    0.0000 O   0  0  0  0  0  0  0  0  0  0  0  0
  -38.2629   -2.9017    0.0000 N   0  0  0  0  0  0  0  0  0  0  0  0
  -39.1870   -4.0831    0.0000 C   0  0  0  0  0  0  0  0  0  0  0  0
  -39.6514   -5.5095    0.0000 C   0  0  0  0  0  0  0  0  0  0  0  0
  -41.1188   -5.8205    0.0000 C   0  0  0  0  0  0  0  0  0  0  0  0
  -41.5831   -7.2468    0.0000 C   0  0  0  0  0  0  0  0  0  0  0  0
  -43.0505   -7.5578    0.0000 N   0  0  0  0  0  0  0  0  0  0  0  0
  -43.5149   -8.9841    0.0000 C   0  0  0  0  0  0  0  0  0  0  0  0
  -45.0093   -9.1140    0.0000 N   0  0  0  0  0  0  0  0  0  0  0  0
  -42.5118  -10.0994    0.0000 N   0  0  0  0  0  0  0  0  0  0  0  0
  -40.6723   -3.8735    0.0000 C   0  0  0  0  0  0  0  0  0  0  0  0
  -41.2334   -2.4824    0.0000 O   0  0  0  0  0  0  0  0  0  0  0  0
  -41.5965   -5.0550    0.0000 N   0  0  0  0  0  0  0  0  0  0  0  0
  -43.0818   -4.8454    0.0000 C   0  0  0  0  0  0  0  0  0  0  0  0
  -44.4058   -4.1404    0.0000 C   0  0  0  0  0  0  0  0  0  0  0  0
  -44.4573   -2.6413    0.0000 C   0  0  0  0  0  0  0  0  0  0  0  0
  -45.7813   -1.9363    0.0000 C   0  0  0  0  0  0  0  0  0  0  0  0
  -45.8328   -0.4372    0.0000 O   0  0  0  0  0  0  0  0  0  0  0  0
  -47.0538   -2.7305    0.0000 O   0  0  0  0  0  0  0  0  0  0  0  0
  -44.0060   -6.0269    0.0000 C   0  0  0  0  0  0  0  0  0  0  0  0
  -43.7981   -7.5124    0.0000 O   0  0  0  0  0  0  0  0  0  0  0  0
  -45.4912   -5.8173    0.0000 N   0  0  0  0  0  0  0  0  0  0  0  0
  -46.4154   -6.9988    0.0000 C   0  0  0  0  0  0  0  0  0  0  0  0
  -46.8798   -8.4251    0.0000 C   0  0  0  0  0  0  0  0  0  0  0  0
  -48.3472   -8.7361    0.0000 C   0  0  0  0  0  0  0  0  0  0  0  0
  -48.8115  -10.1624    0.0000 C   0  0  0  0  0  0  0  0  0  0  0  0
  -50.2789  -10.4734    0.0000 N   0  0  0  0  0  0  0  0  0  0  0  0
  -47.8085  -11.2777    0.0000 O   0  0  0  0  0  0  0  0  0  0  0  0
  -47.9007   -6.7891    0.0000 C   0  0  0  0  0  0  0  0  0  0  0  0
  -48.9620   -7.8492    0.0000 O   0  0  0  0  0  0  0  0  0  0  0  0
  -48.4618   -5.3980    0.0000 O   0  0  0  0  0  0  0  0  0  0  0  0
   52.3867   -0.3690    0.0000 H   0  0  0  0  0  0  0  0  0  0  0  0
   52.2758   -4.8602    0.0000 H   0  0  0  0  0  0  0  0  0  0  0  0
   54.7703   -6.5268    0.0000 H   0  0  0  0  0  0  0  0  0  0  0  0
   54.7973   -0.5604    0.0000 H   0  0  0  0  0  0  0  0  0  0  0  0
   61.8459    0.7167    0.0000 H   0  0  0  0  0  0  0  0  0  0  0  0
   62.5918   -4.4256    0.0000 H   0  0  0  0  0  0  0  0  0  0  0  0
   59.6228   -4.8563    0.0000 H   0  0  0  0  0  0  0  0  0  0  0  0
   64.6320   -2.8171    0.0000 H   0  0  0  0  0  0  0  0  0  0  0  0
   54.7965   -2.9310    0.0000 H   0  0  0  0  0  0  0  0  0  0  0  0
   52.9240   -0.3926    0.0000 H   0  0  0  0  0  0  0  0  0  0  0  0
   57.0196    2.6419    0.0000 H   0  0  0  0  0  0  0  0  0  0  0  0
   54.6064    3.6046    0.0000 H   0  0  0  0  0  0  0  0  0  0  0  0
   49.9774   -0.2000    0.0000 H   0  0  0  0  0  0  0  0  0  0  0  0
   47.4968   -3.4439    0.0000 H   0  0  0  0  0  0  0  0  0  0  0  0
   49.4211   -3.5699    0.0000 H   0  0  0  0  0  0  0  0  0  0  0  0
   46.3998   -0.3174    0.0000 H   0  0  0  0  0  0  0  0  0  0  0  0
   48.3240   -0.4434    0.0000 H   0  0  0  0  0  0  0  0  0  0  0  0
   44.7923    0.1396    0.0000 H   0  0  0  0  0  0  0  0  0  0  0  0
   44.2360   -3.2303    0.0000 H   0  0  0  0  0  0  0  0  0  0  0  0
   41.7077   -4.4773    0.0000 H   0  0  0  0  0  0  0  0  0  0  0  0
   43.5590   -3.9376    0.0000 H   0  0  0  0  0  0  0  0  0  0  0  0
   39.8176   -3.8314    0.0000 H   0  0  0  0  0  0  0  0  0  0  0  0
   40.4767   -3.3246    0.0000 H   0  0  0  0  0  0  0  0  0  0  0  0
   40.6708   -0.0685    0.0000 H   0  0  0  0  0  0  0  0  0  0  0  0
   37.4859    1.1711    0.0000 H   0  0  0  0  0  0  0  0  0  0  0  0
   37.3536   -0.6084    0.0000 H   0  0  0  0  0  0  0  0  0  0  0  0
   40.2635    2.6486    0.0000 H   0  0  0  0  0  0  0  0  0  0  0  0
   40.5658    0.8900    0.0000 H   0  0  0  0  0  0  0  0  0  0  0  0
   35.9612    3.8209    0.0000 H   0  0  0  0  0  0  0  0  0  0  0  0
   36.8316    0.6498    0.0000 H   0  0  0  0  0  0  0  0  0  0  0  0
   36.4585   -2.7209    0.0000 H   0  0  0  0  0  0  0  0  0  0  0  0
   33.9302   -3.9679    0.0000 H   0  0  0  0  0  0  0  0  0  0  0  0
   35.7815   -3.4282    0.0000 H   0  0  0  0  0  0  0  0  0  0  0  0
   31.8300   -1.4051    0.0000 H   0  0  0  0  0  0  0  0  0  0  0  0
   32.9658   -0.7426    0.0000 H   0  0  0  0  0  0  0  0  0  0  0  0
   31.4226   -5.8457    0.0000 H   0  0  0  0  0  0  0  0  0  0  0  0
   32.5216   -2.7701    0.0000 H   0  0  0  0  0  0  0  0  0  0  0  0
   32.8933    0.4409    0.0000 H   0  0  0  0  0  0  0  0  0  0  0  0
   29.5974    1.5347    0.0000 H   0  0  0  0  0  0  0  0  0  0  0  0
   29.5761   -0.0990    0.0000 H   0  0  0  0  0  0  0  0  0  0  0  0
   32.7882    1.3994    0.0000 H   0  0  0  0  0  0  0  0  0  0  0  0
   30.9939    4.7204    0.0000 H   0  0  0  0  0  0  0  0  0  0  0  0
   29.3145    4.1173    0.0000 H   0  0  0  0  0  0  0  0  0  0  0  0
   29.4001    2.3350    0.0000 H   0  0  0  0  0  0  0  0  0  0  0  0
   32.2448    4.6385    0.0000 H   0  0  0  0  0  0  0  0  0  0  0  0
   33.8312    3.8215    0.0000 H   0  0  0  0  0  0  0  0  0  0  0  0
   33.3730    1.9484    0.0000 H   0  0  0  0  0  0  0  0  0  0  0  0
   29.0540    1.1592    0.0000 H   0  0  0  0  0  0  0  0  0  0  0  0
   28.6809   -2.2115    0.0000 H   0  0  0  0  0  0  0  0  0  0  0  0
   26.1526   -3.4585    0.0000 H   0  0  0  0  0  0  0  0  0  0  0  0
   28.0039   -2.9188    0.0000 H   0  0  0  0  0  0  0  0  0  0  0  0
   24.2624   -2.8126    0.0000 H   0  0  0  0  0  0  0  0  0  0  0  0
   24.0524   -0.8958    0.0000 H   0  0  0  0  0  0  0  0  0  0  0  0
   25.1882   -0.2332    0.0000 H   0  0  0  0  0  0  0  0  0  0  0  0
   24.9216   -2.3058    0.0000 H   0  0  0  0  0  0  0  0  0  0  0  0
   24.9913    1.0848    0.0000 H   0  0  0  0  0  0  0  0  0  0  0  0
   23.6712    2.5838    0.0000 H   0  0  0  0  0  0  0  0  0  0  0  0
   21.9307    2.1899    0.0000 H   0  0  0  0  0  0  0  0  0  0  0  0
   21.7985    0.4104    0.0000 H   0  0  0  0  0  0  0  0  0  0  0  0
   21.2764    1.6686    0.0000 H   0  0  0  0  0  0  0  0  0  0  0  0
   20.9033   -1.7021    0.0000 H   0  0  0  0  0  0  0  0  0  0  0  0
   18.3750   -2.9491    0.0000 H   0  0  0  0  0  0  0  0  0  0  0  0
   20.2263   -2.4094    0.0000 H   0  0  0  0  0  0  0  0  0  0  0  0
   16.2748   -0.3864    0.0000 H   0  0  0  0  0  0  0  0  0  0  0  0
   17.4107    0.2762    0.0000 H   0  0  0  0  0  0  0  0  0  0  0  0
   15.8675   -4.8269    0.0000 H   0  0  0  0  0  0  0  0  0  0  0  0
   16.9665   -1.7513    0.0000 H   0  0  0  0  0  0  0  0  0  0  0  0
   17.2138    1.5942    0.0000 H   0  0  0  0  0  0  0  0  0  0  0  0
   15.8936    3.0932    0.0000 H   0  0  0  0  0  0  0  0  0  0  0  0
   14.1532    2.6993    0.0000 H   0  0  0  0  0  0  0  0  0  0  0  0
   14.0209    0.9198    0.0000 H   0  0  0  0  0  0  0  0  0  0  0  0
   13.4989    2.1780    0.0000 H   0  0  0  0  0  0  0  0  0  0  0  0
   13.1258   -1.1927    0.0000 H   0  0  0  0  0  0  0  0  0  0  0  0
   10.5975   -2.4397    0.0000 H   0  0  0  0  0  0  0  0  0  0  0  0
   12.4488   -1.9000    0.0000 H   0  0  0  0  0  0  0  0  0  0  0  0
    8.7109   -3.1754    0.0000 H   0  0  0  0  0  0  0  0  0  0  0  0
    5.9359   -1.4583    0.0000 H   0  0  0  0  0  0  0  0  0  0  0  0
    6.5790    1.5849    0.0000 H   0  0  0  0  0  0  0  0  0  0  0  0
    9.1889   -1.2419    0.0000 H   0  0  0  0  0  0  0  0  0  0  0  0
    9.4362    2.1036    0.0000 H   0  0  0  0  0  0  0  0  0  0  0  0
    6.3756    3.2087    0.0000 H   0  0  0  0  0  0  0  0  0  0  0  0
    6.1553    1.5898    0.0000 H   0  0  0  0  0  0  0  0  0  0  0  0
    7.8331    6.1852    0.0000 H   0  0  0  0  0  0  0  0  0  0  0  0
    5.7379    4.6489    0.0000 H   0  0  0  0  0  0  0  0  0  0  0  0
    5.7213    2.6874    0.0000 H   0  0  0  0  0  0  0  0  0  0  0  0
    5.3482   -0.6833    0.0000 H   0  0  0  0  0  0  0  0  0  0  0  0
    2.9918   -1.9937    0.0000 H   0  0  0  0  0  0  0  0  0  0  0  0
    4.6712   -1.3906    0.0000 H   0  0  0  0  0  0  0  0  0  0  0  0
    1.8555    1.2950    0.0000 H   0  0  0  0  0  0  0  0  0  0  0  0
   -0.5703   -1.2911    0.0000 H   0  0  0  0  0  0  0  0  0  0  0  0
    0.3257   -2.6574    0.0000 H   0  0  0  0  0  0  0  0  0  0  0  0
    2.0661   -2.2636    0.0000 H   0  0  0  0  0  0  0  0  0  0  0  0
    0.4526    2.1085    0.0000 H   0  0  0  0  0  0  0  0  0  0  0  0
   -0.7683    0.4430    0.0000 H   0  0  0  0  0  0  0  0  0  0  0  0
   -0.0472   -0.6567    0.0000 H   0  0  0  0  0  0  0  0  0  0  0  0
    1.4114   -0.7325    0.0000 H   0  0  0  0  0  0  0  0  0  0  0  0
    1.6586    2.6130    0.0000 H   0  0  0  0  0  0  0  0  0  0  0  0
   -1.4020    3.7181    0.0000 H   0  0  0  0  0  0  0  0  0  0  0  0
   -1.6223    2.0992    0.0000 H   0  0  0  0  0  0  0  0  0  0  0  0
   -0.5486    5.3216    0.0000 H   0  0  0  0  0  0  0  0  0  0  0  0
   -2.0562    3.1968    0.0000 H   0  0  0  0  0  0  0  0  0  0  0  0
   -2.4293   -0.1739    0.0000 H   0  0  0  0  0  0  0  0  0  0  0  0
   -3.1063   -0.8812    0.0000 H   0  0  0  0  0  0  0  0  0  0  0  0
   -4.0706   -2.6305    0.0000 H   0  0  0  0  0  0  0  0  0  0  0  0
   -6.8478   -0.7751    0.0000 H   0  0  0  0  0  0  0  0  0  0  0  0
   -7.0579    1.1418    0.0000 H   0  0  0  0  0  0  0  0  0  0  0  0
   -5.9220    1.8044    0.0000 H   0  0  0  0  0  0  0  0  0  0  0  0
   -6.1886   -0.2682    0.0000 H   0  0  0  0  0  0  0  0  0  0  0  0
   -5.9946    2.9879    0.0000 H   0  0  0  0  0  0  0  0  0  0  0  0
   -9.2904    4.0817    0.0000 H   0  0  0  0  0  0  0  0  0  0  0  0
   -9.3118    2.4480    0.0000 H   0  0  0  0  0  0  0  0  0  0  0  0
   -6.0996    3.9463    0.0000 H   0  0  0  0  0  0  0  0  0  0  0  0
   -7.8939    7.2674    0.0000 H   0  0  0  0  0  0  0  0  0  0  0  0
   -9.5734    6.6643    0.0000 H   0  0  0  0  0  0  0  0  0  0  0  0
   -9.4877    4.8819    0.0000 H   0  0  0  0  0  0  0  0  0  0  0  0
   -6.6430    7.1855    0.0000 H   0  0  0  0  0  0  0  0  0  0  0  0
   -5.0566    6.3685    0.0000 H   0  0  0  0  0  0  0  0  0  0  0  0
   -5.5149    4.4954    0.0000 H   0  0  0  0  0  0  0  0  0  0  0  0
   -9.8338    3.7062    0.0000 H   0  0  0  0  0  0  0  0  0  0  0  0
  -10.2069    0.3354    0.0000 H   0  0  0  0  0  0  0  0  0  0  0  0
  -12.5633   -0.9749    0.0000 H   0  0  0  0  0  0  0  0  0  0  0  0
  -10.8839   -0.3718    0.0000 H   0  0  0  0  0  0  0  0  0  0  0  0
  -13.6996    2.3138    0.0000 H   0  0  0  0  0  0  0  0  0  0  0  0
  -16.1134   -0.4551    0.0000 H   0  0  0  0  0  0  0  0  0  0  0  0
  -15.2295   -1.6387    0.0000 H   0  0  0  0  0  0  0  0  0  0  0  0
  -13.4890   -1.2448    0.0000 H   0  0  0  0  0  0  0  0  0  0  0  0
  -15.1025    3.1273    0.0000 H   0  0  0  0  0  0  0  0  0  0  0  0
  -16.3354    1.6445    0.0000 H   0  0  0  0  0  0  0  0  0  0  0  0
  -15.6023    0.3621    0.0000 H   0  0  0  0  0  0  0  0  0  0  0  0
  -14.1438    0.2863    0.0000 H   0  0  0  0  0  0  0  0  0  0  0  0
  -13.7721    3.4973    0.0000 H   0  0  0  0  0  0  0  0  0  0  0  0
  -16.8293    4.8681    0.0000 H   0  0  0  0  0  0  0  0  0  0  0  0
  -17.0893    2.9574    0.0000 H   0  0  0  0  0  0  0  0  0  0  0  0
  -14.1795    6.2144    0.0000 H   0  0  0  0  0  0  0  0  0  0  0  0
  -13.8772    4.4557    0.0000 H   0  0  0  0  0  0  0  0  0  0  0  0
  -18.3501    7.4861    0.0000 H   0  0  0  0  0  0  0  0  0  0  0  0
  -17.4282    4.2148    0.0000 H   0  0  0  0  0  0  0  0  0  0  0  0
  -17.7652    0.6620    0.0000 H   0  0  0  0  0  0  0  0  0  0  0  0
  -18.4386   -0.6456    0.0000 H   0  0  0  0  0  0  0  0  0  0  0  0
  -18.6757   -1.2236    0.0000 H   0  0  0  0  0  0  0  0  0  0  0  0
  -19.4739   -2.0390    0.0000 H   0  0  0  0  0  0  0  0  0  0  0  0
  -19.9365   -2.4346    0.0000 H   0  0  0  0  0  0  0  0  0  0  0  0
  -21.2294   -3.1356    0.0000 H   0  0  0  0  0  0  0  0  0  0  0  0
  -22.1990   -3.6815    0.0000 H   0  0  0  0  0  0  0  0  0  0  0  0
  -17.5556   -0.4158    0.0000 H   0  0  0  0  0  0  0  0  0  0  0  0
  -16.4948    0.3044    0.0000 H   0  0  0  0  0  0  0  0  0  0  0  0
  -16.7142    2.2203    0.0000 H   0  0  0  0  0  0  0  0  0  0  0  0
  -18.1806    5.8245    0.0000 H   0  0  0  0  0  0  0  0  0  0  0  0
  -18.8337    6.4916    0.0000 H   0  0  0  0  0  0  0  0  0  0  0  0
  -18.6181    8.2724    0.0000 H   0  0  0  0  0  0  0  0  0  0  0  0
  -20.1816    9.1326    0.0000 H   0  0  0  0  0  0  0  0  0  0  0  0
  -21.4206    8.0676    0.0000 H   0  0  0  0  0  0  0  0  0  0  0  0
  -22.6361    9.0477    0.0000 H   0  0  0  0  0  0  0  0  0  0  0  0
  -23.5881    8.8847    0.0000 H   0  0  0  0  0  0  0  0  0  0  0  0
  -26.5916    7.9367    0.0000 H   0  0  0  0  0  0  0  0  0  0  0  0
  -25.6165   11.4911    0.0000 H   0  0  0  0  0  0  0  0  0  0  0  0
  -23.8477   11.3347    0.0000 H   0  0  0  0  0  0  0  0  0  0  0  0
  -23.4582    9.5933    0.0000 H   0  0  0  0  0  0  0  0  0  0  0  0
  -28.1247    9.8528    0.0000 H   0  0  0  0  0  0  0  0  0  0  0  0
  -27.3535    8.2437    0.0000 H   0  0  0  0  0  0  0  0  0  0  0  0
  -27.9157   11.8393    0.0000 H   0  0  0  0  0  0  0  0  0  0  0  0
  -26.0936   12.4706    0.0000 H   0  0  0  0  0  0  0  0  0  0  0  0
  -25.1307   11.1507    0.0000 H   0  0  0  0  0  0  0  0  0  0  0  0
  -28.1158    7.5975    0.0000 H   0  0  0  0  0  0  0  0  0  0  0  0
  -28.5819    6.7516    0.0000 H   0  0  0  0  0  0  0  0  0  0  0  0
  -31.0274    4.7832    0.0000 H   0  0  0  0  0  0  0  0  0  0  0  0
  -29.7134    3.8122    0.0000 H   0  0  0  0  0  0  0  0  0  0  0  0
  -30.6593    8.0761    0.0000 H   0  0  0  0  0  0  0  0  0  0  0  0
  -29.0549    7.2949    0.0000 H   0  0  0  0  0  0  0  0  0  0  0  0
  -34.1470    7.8651    0.0000 H   0  0  0  0  0  0  0  0  0  0  0  0
  -31.9093    9.1853    0.0000 H   0  0  0  0  0  0  0  0  0  0  0  0
  -30.3985    2.4090    0.0000 H   0  0  0  0  0  0  0  0  0  0  0  0
  -28.4631   -1.7439    0.0000 H   0  0  0  0  0  0  0  0  0  0  0  0
  -29.3596   -0.7910    0.0000 H   0  0  0  0  0  0  0  0  0  0  0  0
  -27.1506   -2.8801    0.0000 H   0  0  0  0  0  0  0  0  0  0  0  0
  -28.1064   -2.2569    0.0000 H   0  0  0  0  0  0  0  0  0  0  0  0
  -25.1993   -3.5706    0.0000 H   0  0  0  0  0  0  0  0  0  0  0  0
  -26.6133   -3.1662    0.0000 H   0  0  0  0  0  0  0  0  0  0  0  0
  -24.1345   -3.8935    0.0000 H   0  0  0  0  0  0  0  0  0  0  0  0
  -31.3507    0.5419    0.0000 H   0  0  0  0  0  0  0  0  0  0  0  0
  -31.2185    2.3214    0.0000 H   0  0  0  0  0  0  0  0  0  0  0  0
  -29.8282    2.8206    0.0000 H   0  0  0  0  0  0  0  0  0  0  0  0
  -31.7610    1.3263    0.0000 H   0  0  0  0  0  0  0  0  0  0  0  0
  -30.6347   -1.8725    0.0000 H   0  0  0  0  0  0  0  0  0  0  0  0
  -30.9378   -2.8035    0.0000 H   0  0  0  0  0  0  0  0  0  0  0  0
  -31.0475   -4.7979    0.0000 H   0  0  0  0  0  0  0  0  0  0  0  0
  -34.3548   -4.3312    0.0000 H   0  0  0  0  0  0  0  0  0  0  0  0
  -35.3757   -2.6953    0.0000 H   0  0  0  0  0  0  0  0  0  0  0  0
  -34.6398   -1.6055    0.0000 H   0  0  0  0  0  0  0  0  0  0  0  0
  -33.9808   -3.5885    0.0000 H   0  0  0  0  0  0  0  0  0  0  0  0
  -35.2187   -0.5707    0.0000 H   0  0  0  0  0  0  0  0  0  0  0  0
  -38.6261   -0.8357    0.0000 H   0  0  0  0  0  0  0  0  0  0  0  0
  -37.9731   -2.4964    0.0000 H   0  0  0  0  0  0  0  0  0  0  0  0
  -38.5529    0.9793    0.0000 H   0  0  0  0  0  0  0  0  0  0  0  0
  -36.7646    1.7006    0.0000 H   0  0  0  0  0  0  0  0  0  0  0  0
  -35.7292    0.2473    0.0000 H   0  0  0  0  0  0  0  0  0  0  0  0
  -38.9894   -1.5893    0.0000 H   0  0  0  0  0  0  0  0  0  0  0  0
  -37.8630   -4.7881    0.0000 H   0  0  0  0  0  0  0  0  0  0  0  0
  -39.4176   -6.9911    0.0000 H   0  0  0  0  0  0  0  0  0  0  0  0
  -38.1661   -5.7191    0.0000 H   0  0  0  0  0  0  0  0  0  0  0  0
  -42.6041   -5.6109    0.0000 H   0  0  0  0  0  0  0  0  0  0  0  0
  -41.8682   -4.5211    0.0000 H   0  0  0  0  0  0  0  0  0  0  0  0
  -41.5317   -8.7459    0.0000 H   0  0  0  0  0  0  0  0  0  0  0  0
  -40.1345   -7.6359    0.0000 H   0  0  0  0  0  0  0  0  0  0  0  0
  -44.2937   -6.7184    0.0000 H   0  0  0  0  0  0  0  0  0  0  0  0
  -45.4466  -10.7215    0.0000 H   0  0  0  0  0  0  0  0  0  0  0  0
  -42.9762  -11.5258    0.0000 H   0  0  0  0  0  0  0  0  0  0  0  0
  -41.0444   -9.7884    0.0000 H   0  0  0  0  0  0  0  0  0  0  0  0
  -41.3887   -6.5406    0.0000 H   0  0  0  0  0  0  0  0  0  0  0  0
  -42.4470   -3.4863    0.0000 H   0  0  0  0  0  0  0  0  0  0  0  0
  -45.8545   -3.7513    0.0000 H   0  0  0  0  0  0  0  0  0  0  0  0
  -45.2015   -5.4120    0.0000 H   0  0  0  0  0  0  0  0  0  0  0  0
  -43.9929   -1.2150    0.0000 H   0  0  0  0  0  0  0  0  0  0  0  0
  -42.9575   -2.6683    0.0000 H   0  0  0  0  0  0  0  0  0  0  0  0
  -48.3778   -2.0255    0.0000 H   0  0  0  0  0  0  0  0  0  0  0  0
  -46.2177   -4.5049    0.0000 H   0  0  0  0  0  0  0  0  0  0  0  0
  -45.0914   -7.7037    0.0000 H   0  0  0  0  0  0  0  0  0  0  0  0
  -46.8283   -9.9242    0.0000 H   0  0  0  0  0  0  0  0  0  0  0  0
  -45.3800   -8.4521    0.0000 H   0  0  0  0  0  0  0  0  0  0  0  0
  -49.8324   -8.5265    0.0000 H   0  0  0  0  0  0  0  0  0  0  0  0
  -48.9326   -7.3551    0.0000 H   0  0  0  0  0  0  0  0  0  0  0  0
  -50.7433  -11.8998    0.0000 H   0  0  0  0  0  0  0  0  0  0  0  0
  -51.2820   -9.3581    0.0000 H   0  0  0  0  0  0  0  0  0  0  0  0
  -49.9471   -5.1884    0.0000 H   0  0  0  0  0  0  0  0  0  0  0  0
  1  2  1  0
  2  3  1  0
  3  4  2  0
  4  5  1  0
  5  6  2  0
  6  7  1  0
  7  8  2  0
  7  9  1  0
  9 10  1  0
 10 11  1  0
 11 12  2  0
  9 13  1  0
 13 14  1  0
 14 15  2  0
 15 16  1  0
 16 17  2  0
 17 18  1  0
 16 19  1  0
 14 20  1  0
 20 21  1  0
 21 22  2  0
 22 23  1  0
 23 24  2  0
 24 25  1  0
 25 26  2  0
 25 27  1  0
  1 28  2  0
  1 29  1  0
 29 30  1  0
 30 31  1  0
 31 32  1  0
 32 33  2  0
 32 34  1  0
 34 35  1  0
 35 36  1  0
 36 37  1  0
 35 38  1  0
 38 39  2  0
 38 40  1  0
 40 41  1  0
 41 42  1  0
 42 43  1  0
 43 44  1  0
 44 45  2  0
 44 46  1  0
 41 47  1  0
 47 48  2  0
 47 49  1  0
 49 50  1  0
 50 51  1  0
 51 52  1  0
 52 53  1  0
 53 54  2  0
 53 55  1  0
 50 56  1  0
 56 57  2  0
 56 58  1  0
 58 59  1  0
 59 60  1  0
 60 61  1  0
 61 62  1  0
 61 63  1  0
 59 64  1  0
 64 65  2  0
 64 66  1  0
 66 67  1  0
 67 68  1  0
 68 69  1  0
 67 70  1  0
 70 71  2  0
 70 72  1  0
 72 73  1  0
 73 74  1  0
 73 75  1  0
 75 76  2  0
 75 77  1  0
 77 78  1  0
 78 79  1  0
 79 80  1  0
 80 81  1  0
 81 82  2  0
 81 83  1  0
 78 84  1  0
 84 85  2  0
 84 86  1  0
 86 87  1  0
 87 88  1  0
 87 89  1  0
 89 90  2  0
 89 91  1  0
 91 92  1  0
 92 93  1  0
 93 94  1  0
 94 95  2  0
 95 96  1  0
 96 97  1  0
 97 98  2  0
 92 99  1  0
 99100  2  0
 99101  1  0
101102  1  0
102103  1  0
103104  1  0
104105  1  0
104106  2  0
102107  1  0
107108  2  0
107109  1  0
109110  1  0
110111  1  0
111112  1  0
112113  1  0
112114  1  0
110115  1  0
115116  2  0
115117  1  0
117118  1  0
118119  1  0
119120  1  0
118121  1  0
121122  2  0
121123  1  0
123124  1  0
124125  1  0
125126  1  0
125127  1  0
124128  1  0
128129  2  0
128130  1  0
130131  1  0
131132  1  0
132133  1  0
133134  1  0
133135  1  0
131136  1  0
136137  2  0
136138  1  0
138139  1  0
139140  1  0
140141  1  0
141142  1  0
141143  1  0
139144  1  0
144145  2  0
144146  1  0
146147  1  0
147148  1  0
148149  1  0
149150  1  0
150151  2  0
150152  1  0
147153  1  0
153154  2  0
153155  1  0
156155  1  1
156157  1  0
157158  1  0
158159  1  0
159160  1  0
156161  1  0
156162  1  0
162163  2  0
162164  1  0
164165  1  0
165166  1  0
165167  1  0
167168  2  0
167169  1  0
169170  1  0
170171  1  0
171172  1  0
171173  1  0
173174  1  0
170175  1  0
175176  2  0
175177  1  0
177178  1  0
178179  1  0
179180  1  0
180181  1  0
181182  1  0
181183  2  0
178184  1  0
184185  2  0
184186  1  0
186187  1  0
187188  1  0
188189  1  0
189190  1  0
190191  1  0
187192  1  0
187193  1  1
193194  2  0
193195  1  0
195196  1  0
196197  1  0
197198  1  0
197199  1  0
196200  1  0
200201  2  0
200202  1  0
202203  1  0
203204  1  0
204205  1  0
203206  1  0
206207  2  0
206208  1  0
208209  1  0
209210  1  0
210211  1  0
211212  1  0
212213  1  0
213214  1  0
214215  2  3
214216  1  0
209217  1  0
217218  2  0
217219  1  0
219220  1  0
220221  1  0
221222  1  0
222223  1  0
223224  2  0
223225  1  0
220226  1  0
226227  2  0
226228  1  0
228229  1  0
229230  1  0
230231  1  0
231232  1  0
232233  1  0
232234  2  0
229235  1  0
235236  2  0
235237  1  0
  8  3  1  0
 98 94  1  0
 11  6  1  0
160191  2  0
 18 13  2  0
 22  9  1  0
 26 21  1  0
  2238  1  0
  4239  1  0
  5240  1  0
  8241  1  0
 15242  1  0
 17243  1  0
 18244  1  0
 19245  1  0
 23246  1  0
 24247  1  0
 26248  1  0
 27249  1  0
 29250  1  0
 30251  1  0
 30252  1  0
 31253  1  0
 31254  1  0
 34255  1  0
 35256  1  1
 36257  1  0
 36258  1  0
 37259  1  0
 40260  1  0
 41261  1  6
 42262  1  0
 42263  1  0
 43264  1  0
 43265  1  0
 46266  1  0
 49267  1  0
 50268  1  1
 51269  1  0
 51270  1  0
 52271  1  0
 52272  1  0
 55273  1  0
 58274  1  0
 59275  1  6
 60276  1  0
 60277  1  0
 61278  1  0
 62279  1  0
 62280  1  0
 62281  1  0
 63282  1  0
 63283  1  0
 63284  1  0
 66285  1  0
 67286  1  1
 68287  1  0
 68288  1  0
 69289  1  0
 69290  1  0
 69291  1  0
 72292  1  0
 73293  1  6
 74294  1  0
 74295  1  0
 74296  1  0
 77297  1  0
 78298  1  1
 79299  1  0
 79300  1  0
 80301  1  0
 80302  1  0
 83303  1  0
 86304  1  0
 87305  1  6
 88306  1  0
 88307  1  0
 88308  1  0
 91309  1  0
 92310  1  1
 93311  1  0
 93312  1  0
 95313  1  0
 96314  1  0
 97315  1  0
101316  1  0
102317  1  6
103318  1  0
103319  1  0
105320  1  0
105321  1  0
109322  1  0
110323  1  1
111324  1  0
111325  1  0
112326  1  0
113327  1  0
113328  1  0
113329  1  0
114330  1  0
114331  1  0
114332  1  0
117333  1  0
118334  1  6
119335  1  0
119336  1  0
120337  1  0
123338  1  0
124339  1  1
125340  1  1
126341  1  0
127342  1  0
127343  1  0
127344  1  0
130345  1  0
131346  1  6
132347  1  0
132348  1  0
133349  1  0
134350  1  0
134351  1  0
134352  1  0
135353  1  0
135354  1  0
135355  1  0
138356  1  0
139357  1  1
140358  1  0
140359  1  0
141360  1  0
142361  1  0
142362  1  0
142363  1  0
143364  1  0
143365  1  0
143366  1  0
146367  1  0
147368  1  6
148369  1  0
148370  1  0
149371  1  0
149372  1  0
152373  1  0
155374  1  0
157375  1  0
157376  1  0
158377  1  0
158378  1  0
159379  1  0
159380  1  0
160381  1  0
161382  1  0
161383  1  0
161384  1  0
164385  1  0
165386  1  6
166387  1  0
166388  1  0
166389  1  0
169390  1  0
170391  1  6
171392  1  1
172393  1  0
172394  1  0
172395  1  0
173396  1  0
173397  1  0
174398  1  0
174399  1  0
174400  1  0
177401  1  0
178402  1  6
179403  1  0
179404  1  0
180405  1  0
180406  1  0
182407  1  0
182408  1  0
186409  1  0
188410  1  0
188411  1  0
189412  1  0
189413  1  0
190414  1  0
190415  1  0
191416  1  0
192417  1  0
192418  1  0
192419  1  0
195420  1  0
196421  1  1
197422  1  1
198423  1  0
199424  1  0
199425  1  0
199426  1  0
202427  1  0
203428  1  6
204429  1  0
204430  1  0
205431  1  0
205432  1  0
205433  1  0
208434  1  0
209435  1  1
210436  1  0
210437  1  0
211438  1  0
211439  1  0
212440  1  0
212441  1  0
213442  1  0
215443  1  0
216444  1  0
216445  1  0
219446  1  0
220447  1  6
221448  1  0
221449  1  0
222450  1  0
222451  1  0
225452  1  0
228453  1  0
229454  1  1
230455  1  0
230456  1  0
231457  1  0
231458  1  0
233459  1  0
233460  1  0
237461  1  0
M  END
