
     RDKit          2D

303310  0  0  0  0  0  0  0  0999 V2000
   -6.9458  -10.1475    0.0000 C   0  0  0  0  0  0  0  0  0  0  0  0
   -5.4590  -10.3459    0.0000 N   0  0  0  0  0  0  0  0  0  0  0  0
   -4.8874  -11.7327    0.0000 C   0  0  0  0  0  0  0  0  0  0  0  0
   -5.8026  -12.9211    0.0000 C   0  0  0  0  0  0  0  0  0  0  0  0
   -5.2310  -14.3079    0.0000 C   0  0  0  0  0  0  0  0  0  0  0  0
   -3.7442  -14.5063    0.0000 C   0  0  0  0  0  0  0  0  0  0  0  0
   -2.8290  -13.3179    0.0000 C   0  0  0  0  0  0  0  0  0  0  0  0
   -3.4006  -11.9311    0.0000 C   0  0  0  0  0  0  0  0  0  0  0  0
   -1.4159  -13.8211    0.0000 C   0  0  0  0  0  0  0  0  0  0  0  0
   -1.4578  -15.3205    0.0000 O   0  0  0  0  0  0  0  0  0  0  0  0
   -2.8968  -15.7440    0.0000 C   0  0  0  0  0  0  0  0  0  0  0  0
   -3.3999  -17.1571    0.0000 O   0  0  0  0  0  0  0  0  0  0  0  0
   -0.0631  -14.4692    0.0000 C   0  0  0  0  0  0  0  0  0  0  0  0
    1.1745  -13.6218    0.0000 C   0  0  0  0  0  0  0  0  0  0  0  0
    2.5273  -14.2699    0.0000 C   0  0  0  0  0  0  0  0  0  0  0  0
    2.6423  -15.7655    0.0000 C   0  0  0  0  0  0  0  0  0  0  0  0
    1.4047  -16.6129    0.0000 C   0  0  0  0  0  0  0  0  0  0  0  0
    0.0519  -15.9648    0.0000 C   0  0  0  0  0  0  0  0  0  0  0  0
    3.9951  -16.4136    0.0000 O   0  0  0  0  0  0  0  0  0  0  0  0
    1.0595  -12.1262    0.0000 O   0  0  0  0  0  0  0  0  0  0  0  0
   -0.2933  -11.4781    0.0000 C   0  0  0  0  0  0  0  0  0  0  0  0
   -1.5310  -12.3255    0.0000 C   0  0  0  0  0  0  0  0  0  0  0  0
   -2.3061  -11.2819    0.0000 C   0  0  0  0  0  0  0  0  0  0  0  0
   -2.3675  -10.4843    0.0000 C   0  0  0  0  0  0  0  0  0  0  0  0
   -1.7074  -10.0323    0.0000 C   0  0  0  0  0  0  0  0  0  0  0  0
   -0.9859  -10.3780    0.0000 C   0  0  0  0  0  0  0  0  0  0  0  0
   -1.8762   -7.8388    0.0000 O   0  0  0  0  0  0  0  0  0  0  0  0
   -7.8610  -11.3359    0.0000 S   0  0  0  0  0  0  0  0  0  0  0  0
   -7.5174   -8.7607    0.0000 N   0  0  0  0  0  0  0  0  0  0  0  0
   -9.0042   -8.5623    0.0000 C   0  0  0  0  0  0  0  0  0  0  0  0
   -9.5758   -7.1755    0.0000 C   0  0  0  0  0  0  0  0  0  0  0  0
  -11.0627   -6.9771    0.0000 C   0  0  0  0  0  0  0  0  0  0  0  0
  -11.9779   -8.1655    0.0000 O   0  0  0  0  0  0  0  0  0  0  0  0
  -11.6343   -5.5902    0.0000 N   0  0  0  0  0  0  0  0  0  0  0  0
  -13.1211   -5.3919    0.0000 C   0  0  0  0  0  0  0  0  0  0  0  0
  -14.5861   -5.7140    0.0000 C   0  0  0  0  0  0  0  0  0  0  0  0
  -15.5976   -4.6063    0.0000 C   0  0  0  0  0  0  0  0  0  0  0  0
  -17.0626   -4.9284    0.0000 C   0  0  0  0  0  0  0  0  0  0  0  0
  -17.9851   -4.1377    0.0000 O   0  0  0  0  0  0  0  0  0  0  0  0
  -17.5161   -6.3582    0.0000 O   0  0  0  0  0  0  0  0  0  0  0  0
  -13.6927   -4.0050    0.0000 C   0  0  0  0  0  0  0  0  0  0  0  0
  -12.7775   -2.8166    0.0000 O   0  0  0  0  0  0  0  0  0  0  0  0
  -15.1795   -3.8066    0.0000 N   0  0  0  0  0  0  0  0  0  0  0  0
  -15.7511   -2.4198    0.0000 C   0  0  0  0  0  0  0  0  0  0  0  0
  -15.8139   -0.9211    0.0000 C   0  0  0  0  0  0  0  0  0  0  0  0
  -14.5474   -0.1174    0.0000 C   0  0  0  0  0  0  0  0  0  0  0  0
  -14.2457    1.3519    0.0000 N   0  0  0  0  0  0  0  0  0  0  0  0
  -13.2181   -0.8124    0.0000 O   0  0  0  0  0  0  0  0  0  0  0  0
  -17.2379   -2.2214    0.0000 C   0  0  0  0  0  0  0  0  0  0  0  0
  -18.0911   -3.0865    0.0000 O   0  0  0  0  0  0  0  0  0  0  0  0
  -17.8095   -0.8346    0.0000 N   0  0  0  0  0  0  0  0  0  0  0  0
  -19.2675   -0.4819    0.0000 C   0  0  0  0  0  0  0  0  0  0  0  0
  -19.3826    1.0137    0.0000 C   0  0  0  0  0  0  0  0  0  0  0  0
  -17.9957    1.5853    0.0000 C   0  0  0  0  0  0  0  0  0  0  0  0
  -17.0236    0.4430    0.0000 C   0  0  0  0  0  0  0  0  0  0  0  0
  -15.9891    1.5292    0.0000 C   0  0  0  0  0  0  0  0  0  0  0  0
  -16.2341    3.0091    0.0000 O   0  0  0  0  0  0  0  0  0  0  0  0
  -14.5312    1.1765    0.0000 N   0  0  0  0  0  0  0  0  0  0  0  0
  -13.4968    2.2628    0.0000 C   0  0  0  0  0  0  0  0  0  0  0  0
  -12.8962    3.6373    0.0000 C   0  0  0  0  0  0  0  0  0  0  0  0
  -11.4056    3.8045    0.0000 C   0  0  0  0  0  0  0  0  0  0  0  0
  -10.8050    5.1790    0.0000 C   0  0  0  0  0  0  0  0  0  0  0  0
   -9.3992    5.7020    0.0000 O   0  0  0  0  0  0  0  0  0  0  0  0
  -11.9609    6.1351    0.0000 O   0  0  0  0  0  0  0  0  0  0  0  0
  -12.0388    1.9100    0.0000 C   0  0  0  0  0  0  0  0  0  0  0  0
  -11.7939    0.4302    0.0000 O   0  0  0  0  0  0  0  0  0  0  0  0
  -11.0044    2.9963    0.0000 N   0  0  0  0  0  0  0  0  0  0  0  0
   -9.5464    2.6436    0.0000 C   0  0  0  0  0  0  0  0  0  0  0  0
   -8.8462    1.3171    0.0000 C   0  0  0  0  0  0  0  0  0  0  0  0
   -7.7861    0.2559    0.0000 C   0  0  0  0  0  0  0  0  0  0  0  0
   -6.4603   -0.4457    0.0000 C   0  0  0  0  0  0  0  0  0  0  0  0
   -4.9865   -0.7253    0.0000 C   0  0  0  0  0  0  0  0  0  0  0  0
  -10.6050    1.5808    0.0000 C   0  0  0  0  0  0  0  0  0  0  0  0
   -9.8246    4.1176    0.0000 C   0  0  0  0  0  0  0  0  0  0  0  0
  -11.2438    4.6032    0.0000 O   0  0  0  0  0  0  0  0  0  0  0  0
   -9.6559    5.6081    0.0000 N   0  0  0  0  0  0  0  0  0  0  0  0
   -9.0553    6.9826    0.0000 C   0  0  0  0  0  0  0  0  0  0  0  0
   -9.6886    8.3424    0.0000 C   0  0  0  0  0  0  0  0  0  0  0  0
  -11.1828    8.4739    0.0000 C   0  0  0  0  0  0  0  0  0  0  0  0
   -9.8186    9.8367    0.0000 C   0  0  0  0  0  0  0  0  0  0  0  0
  -11.1777   10.4713    0.0000 C   0  0  0  0  0  0  0  0  0  0  0  0
   -8.0763    8.1191    0.0000 C   0  0  0  0  0  0  0  0  0  0  0  0
   -8.9083    9.3672    0.0000 O   0  0  0  0  0  0  0  0  0  0  0  0
   -6.8059    8.9165    0.0000 N   0  0  0  0  0  0  0  0  0  0  0  0
   -5.3568    9.3040    0.0000 C   0  0  0  0  0  0  0  0  0  0  0  0
   -4.6885   10.6469    0.0000 C   0  0  0  0  0  0  0  0  0  0  0  0
   -5.5173   11.8971    0.0000 C   0  0  0  0  0  0  0  0  0  0  0  0
   -4.8490   13.2400    0.0000 C   0  0  0  0  0  0  0  0  0  0  0  0
   -6.7238   12.7884    0.0000 C   0  0  0  0  0  0  0  0  0  0  0  0
   -3.8579    9.2471    0.0000 C   0  0  0  0  0  0  0  0  0  0  0  0
   -3.5782   10.7208    0.0000 O   0  0  0  0  0  0  0  0  0  0  0  0
   -2.4423    8.7510    0.0000 N   0  0  0  0  0  0  0  0  0  0  0  0
   -1.2358    7.8597    0.0000 C   0  0  0  0  0  0  0  0  0  0  0  0
    0.2308    8.1745    0.0000 C   0  0  0  0  0  0  0  0  0  0  0  0
    0.6915    9.6020    0.0000 C   0  0  0  0  0  0  0  0  0  0  0  0
    2.1581    9.9168    0.0000 O   0  0  0  0  0  0  0  0  0  0  0  0
   -0.3145   10.7147    0.0000 O   0  0  0  0  0  0  0  0  0  0  0  0
   -0.3457    6.6523    0.0000 C   0  0  0  0  0  0  0  0  0  0  0  0
    0.9808    7.3526    0.0000 O   0  0  0  0  0  0  0  0  0  0  0  0
    0.1490    5.2363    0.0000 N   0  0  0  0  0  0  0  0  0  0  0  0
    0.2043    3.7373    0.0000 C   0  0  0  0  0  0  0  0  0  0  0  0
   -0.1846    2.2886    0.0000 C   0  0  0  0  0  0  0  0  0  0  0  0
   -0.9833    1.0189    0.0000 C   0  0  0  0  0  0  0  0  0  0  0  0
   -2.1208    0.0410    0.0000 C   0  0  0  0  0  0  0  0  0  0  0  0
   -3.4959   -0.5581    0.0000 C   0  0  0  0  0  0  0  0  0  0  0  0
    1.5479    4.4042    0.0000 C   0  0  0  0  0  0  0  0  0  0  0  0
    1.3649    2.7869    0.0000 C   0  0  0  0  0  0  0  0  0  0  0  0
    1.4875    1.2919    0.0000 O   0  0  0  0  0  0  0  0  0  0  0  0
    2.7682    3.3168    0.0000 N   0  0  0  0  0  0  0  0  0  0  0  0
    3.9287    2.3664    0.0000 C   0  0  0  0  0  0  0  0  0  0  0  0
    4.6942    1.0764    0.0000 C   0  0  0  0  0  0  0  0  0  0  0  0
    3.9598   -0.2315    0.0000 C   0  0  0  0  0  0  0  0  0  0  0  0
    4.5862   -1.5944    0.0000 C   0  0  0  0  0  0  0  0  0  0  0  0
    3.4836   -2.6114    0.0000 N   0  0  0  0  0  0  0  0  0  0  0  0
    2.1757   -1.8770    0.0000 C   0  0  0  0  0  0  0  0  0  0  0  0
    2.4700   -0.4061    0.0000 N   0  0  0  0  0  0  0  0  0  0  0  0
    5.3320    2.8963    0.0000 C   0  0  0  0  0  0  0  0  0  0  0  0
    5.5748    4.3765    0.0000 O   0  0  0  0  0  0  0  0  0  0  0  0
    6.4925    1.9459    0.0000 N   0  0  0  0  0  0  0  0  0  0  0  0
    7.8958    2.4758    0.0000 C   0  0  0  0  0  0  0  0  0  0  0  0
    9.0332    3.4536    0.0000 C   0  0  0  0  0  0  0  0  0  0  0  0
   10.4987    3.1337    0.0000 C   0  0  0  0  0  0  0  0  0  0  0  0
    9.0563    1.5254    0.0000 C   0  0  0  0  0  0  0  0  0  0  0  0
    8.8135    0.0452    0.0000 O   0  0  0  0  0  0  0  0  0  0  0  0
   10.4596    2.0553    0.0000 N   0  0  0  0  0  0  0  0  0  0  0  0
   11.6201    1.1049    0.0000 C   0  0  0  0  0  0  0  0  0  0  0  0
   12.3856   -0.1851    0.0000 C   0  0  0  0  0  0  0  0  0  0  0  0
   11.6512   -1.4930    0.0000 C   0  0  0  0  0  0  0  0  0  0  0  0
   12.4167   -2.7830    0.0000 C   0  0  0  0  0  0  0  0  0  0  0  0
   11.6823   -4.0909    0.0000 N   0  0  0  0  0  0  0  0  0  0  0  0
   13.9166   -2.7650    0.0000 O   0  0  0  0  0  0  0  0  0  0  0  0
   13.0234    1.6347    0.0000 C   0  0  0  0  0  0  0  0  0  0  0  0
   13.2662    3.1150    0.0000 O   0  0  0  0  0  0  0  0  0  0  0  0
   14.1840    0.6844    0.0000 N   0  0  0  0  0  0  0  0  0  0  0  0
   15.5873    1.2142    0.0000 C   0  0  0  0  0  0  0  0  0  0  0  0
   16.7247    2.1921    0.0000 C   0  0  0  0  0  0  0  0  0  0  0  0
   18.1403    1.6960    0.0000 C   0  0  0  0  0  0  0  0  0  0  0  0
   19.2777    2.6738    0.0000 C   0  0  0  0  0  0  0  0  0  0  0  0
   20.6933    2.1777    0.0000 N   0  0  0  0  0  0  0  0  0  0  0  0
   21.8308    3.1556    0.0000 C   0  0  0  0  0  0  0  0  0  0  0  0
   23.1753    2.4906    0.0000 N   0  0  0  0  0  0  0  0  0  0  0  0
   21.5526    4.6296    0.0000 N   0  0  0  0  0  0  0  0  0  0  0  0
   16.7478    0.2639    0.0000 C   0  0  0  0  0  0  0  0  0  0  0  0
   16.5050   -1.2163    0.0000 O   0  0  0  0  0  0  0  0  0  0  0  0
   18.1511    0.7937    0.0000 N   0  0  0  0  0  0  0  0  0  0  0  0
   19.3116   -0.1566    0.0000 C   0  0  0  0  0  0  0  0  0  0  0  0
   20.0771   -1.4466    0.0000 C   0  0  0  0  0  0  0  0  0  0  0  0
   19.3427   -2.7545    0.0000 C   0  0  0  0  0  0  0  0  0  0  0  0
   20.7149    0.3732    0.0000 C   0  0  0  0  0  0  0  0  0  0  0  0
   21.3086    1.7507    0.0000 O   0  0  0  0  0  0  0  0  0  0  0  0
   21.8754   -0.5771    0.0000 N   0  0  0  0  0  0  0  0  0  0  0  0
   23.2787   -0.0473    0.0000 C   0  0  0  0  0  0  0  0  0  0  0  0
   24.4162    0.9306    0.0000 C   0  0  0  0  0  0  0  0  0  0  0  0
   25.8317    0.4345    0.0000 C   0  0  0  0  0  0  0  0  0  0  0  0
   26.9692    1.4123    0.0000 S   0  0  0  0  0  0  0  0  0  0  0  0
   28.3848    0.9162    0.0000 C   0  0  0  0  0  0  0  0  0  0  0  0
   24.4392   -0.9976    0.0000 C   0  0  0  0  0  0  0  0  0  0  0  0
   25.8967   -0.6428    0.0000 O   0  0  0  0  0  0  0  0  0  0  0  0
   24.1965   -2.4779    0.0000 O   0  0  0  0  0  0  0  0  0  0  0  0
   -4.6955   -9.0547    0.0000 H   0  0  0  0  0  0  0  0  0  0  0  0
   -7.2894  -12.7227    0.0000 H   0  0  0  0  0  0  0  0  0  0  0  0
   -6.1462  -15.4964    0.0000 H   0  0  0  0  0  0  0  0  0  0  0  0
   -2.8001  -10.5565    0.0000 H   0  0  0  0  0  0  0  0  0  0  0  0
    3.7649  -13.4225    0.0000 H   0  0  0  0  0  0  0  0  0  0  0  0
    1.5197  -18.1085    0.0000 H   0  0  0  0  0  0  0  0  0  0  0  0
   -1.1857  -16.8122    0.0000 H   0  0  0  0  0  0  0  0  0  0  0  0
    4.1102  -17.9092    0.0000 H   0  0  0  0  0  0  0  0  0  0  0  0
   -4.1214  -12.5248    0.0000 H   0  0  0  0  0  0  0  0  0  0  0  0
   -4.2624   -9.3736    0.0000 H   0  0  0  0  0  0  0  0  0  0  0  0
    0.8293   -9.1350    0.0000 H   0  0  0  0  0  0  0  0  0  0  0  0
   -0.6385   -6.9913    0.0000 H   0  0  0  0  0  0  0  0  0  0  0  0
   -6.6022   -7.5722    0.0000 H   0  0  0  0  0  0  0  0  0  0  0  0
  -10.4693   -8.8844    0.0000 H   0  0  0  0  0  0  0  0  0  0  0  0
   -8.9414  -10.0610    0.0000 H   0  0  0  0  0  0  0  0  0  0  0  0
   -9.6387   -5.6768    0.0000 H   0  0  0  0  0  0  0  0  0  0  0  0
   -8.1108   -6.8534    0.0000 H   0  0  0  0  0  0  0  0  0  0  0  0
  -10.7191   -4.4018    0.0000 H   0  0  0  0  0  0  0  0  0  0  0  0
  -13.0583   -6.8905    0.0000 H   0  0  0  0  0  0  0  0  0  0  0  0
  -15.8526   -6.5177    0.0000 H   0  0  0  0  0  0  0  0  0  0  0  0
  -14.0145   -7.1008    0.0000 H   0  0  0  0  0  0  0  0  0  0  0  0
  -16.1692   -3.2194    0.0000 H   0  0  0  0  0  0  0  0  0  0  0  0
  -14.8568   -3.3019    0.0000 H   0  0  0  0  0  0  0  0  0  0  0  0
  -18.9811   -6.6802    0.0000 H   0  0  0  0  0  0  0  0  0  0  0  0
  -16.3551   -4.7383    0.0000 H   0  0  0  0  0  0  0  0  0  0  0  0
  -14.2861   -2.0977    0.0000 H   0  0  0  0  0  0  0  0  0  0  0  0
  -16.0330    0.5628    0.0000 H   0  0  0  0  0  0  0  0  0  0  0  0
  -17.3133   -0.8792    0.0000 H   0  0  0  0  0  0  0  0  0  0  0  0
  -13.1690    1.9420    0.0000 H   0  0  0  0  0  0  0  0  0  0  0  0
  -15.5674    2.6352    0.0000 H   0  0  0  0  0  0  0  0  0  0  0  0
  -19.4659   -1.9687    0.0000 H   0  0  0  0  0  0  0  0  0  0  0  0
  -20.7669   -0.4400    0.0000 H   0  0  0  0  0  0  0  0  0  0  0  0
  -20.8579    0.7429    0.0000 H   0  0  0  0  0  0  0  0  0  0  0  0
  -19.8061    2.4527    0.0000 H   0  0  0  0  0  0  0  0  0  0  0  0
  -18.7092    2.9048    0.0000 H   0  0  0  0  0  0  0  0  0  0  0  0
  -16.9999    2.7070    0.0000 H   0  0  0  0  0  0  0  0  0  0  0  0
  -15.6490   -0.1575    0.0000 H   0  0  0  0  0  0  0  0  0  0  0  0
  -13.7721   -0.1172    0.0000 H   0  0  0  0  0  0  0  0  0  0  0  0
  -14.7461    3.0929    0.0000 H   0  0  0  0  0  0  0  0  0  0  0  0
  -12.8020    5.1343    0.0000 H   0  0  0  0  0  0  0  0  0  0  0  0
  -14.3542    3.9900    0.0000 H   0  0  0  0  0  0  0  0  0  0  0  0
   -9.9056    3.8151    0.0000 H   0  0  0  0  0  0  0  0  0  0  0  0
  -10.9569    2.3732    0.0000 H   0  0  0  0  0  0  0  0  0  0  0  0
  -11.0660    7.7267    0.0000 H   0  0  0  0  0  0  0  0  0  0  0  0
  -11.2493    4.4762    0.0000 H   0  0  0  0  0  0  0  0  0  0  0  0
  -10.3209    1.0426    0.0000 H   0  0  0  0  0  0  0  0  0  0  0  0
   -9.3775   -0.0857    0.0000 H   0  0  0  0  0  0  0  0  0  0  0  0
   -9.0195   -0.5978    0.0000 H   0  0  0  0  0  0  0  0  0  0  0  0
   -8.0620   -1.2185    0.0000 H   0  0  0  0  0  0  0  0  0  0  0  0
   -7.5241   -1.5032    0.0000 H   0  0  0  0  0  0  0  0  0  0  0  0
   -6.1090   -1.9040    0.0000 H   0  0  0  0  0  0  0  0  0  0  0  0
   -5.0434   -2.2242    0.0000 H   0  0  0  0  0  0  0  0  0  0  0  0
  -10.2893   -0.0549    0.0000 H   0  0  0  0  0  0  0  0  0  0  0  0
  -11.6177    0.5311    0.0000 H   0  0  0  0  0  0  0  0  0  0  0  0
  -11.7712    2.1953    0.0000 H   0  0  0  0  0  0  0  0  0  0  0  0
  -11.0464    6.1707    0.0000 H   0  0  0  0  0  0  0  0  0  0  0  0
  -10.5419    6.7820    0.0000 H   0  0  0  0  0  0  0  0  0  0  0  0
   -8.3763    9.0690    0.0000 H   0  0  0  0  0  0  0  0  0  0  0  0
  -11.9771    9.7463    0.0000 H   0  0  0  0  0  0  0  0  0  0  0  0
  -12.6319    8.0864    0.0000 H   0  0  0  0  0  0  0  0  0  0  0  0
  -11.2578    6.9795    0.0000 H   0  0  0  0  0  0  0  0  0  0  0  0
   -9.4296   11.2854    0.0000 H   0  0  0  0  0  0  0  0  0  0  0  0
   -8.3195    9.8884    0.0000 H   0  0  0  0  0  0  0  0  0  0  0  0
  -11.3077   11.9657    0.0000 H   0  0  0  0  0  0  0  0  0  0  0  0
  -12.6719   10.6028    0.0000 H   0  0  0  0  0  0  0  0  0  0  0  0
  -11.9057    9.1598    0.0000 H   0  0  0  0  0  0  0  0  0  0  0  0
   -7.4050   10.2916    0.0000 H   0  0  0  0  0  0  0  0  0  0  0  0
   -6.4405   10.3411    0.0000 H   0  0  0  0  0  0  0  0  0  0  0  0
   -3.4833   11.5400    0.0000 H   0  0  0  0  0  0  0  0  0  0  0  0
   -3.3022   10.0740    0.0000 H   0  0  0  0  0  0  0  0  0  0  0  0
   -6.7225   11.0040    0.0000 H   0  0  0  0  0  0  0  0  0  0  0  0
   -5.5193   14.5819    0.0000 H   0  0  0  0  0  0  0  0  0  0  0  0
   -3.7617   14.2733    0.0000 H   0  0  0  0  0  0  0  0  0  0  0  0
   -3.5429   12.5024    0.0000 H   0  0  0  0  0  0  0  0  0  0  0  0
   -6.7380   14.2884    0.0000 H   0  0  0  0  0  0  0  0  0  0  0  0
   -8.1623   13.2134    0.0000 H   0  0  0  0  0  0  0  0  0  0  0  0
   -7.3921   11.4455    0.0000 H   0  0  0  0  0  0  0  0  0  0  0  0
   -1.7407   10.0768    0.0000 H   0  0  0  0  0  0  0  0  0  0  0  0
   -0.9196    9.3260    0.0000 H   0  0  0  0  0  0  0  0  0  0  0  0
    1.7166    7.9687    0.0000 H   0  0  0  0  0  0  0  0  0  0  0  0
    0.6472    6.7334    0.0000 H   0  0  0  0  0  0  0  0  0  0  0  0
    0.1462   12.1422    0.0000 H   0  0  0  0  0  0  0  0  0  0  0  0
    1.6230    5.5144    0.0000 H   0  0  0  0  0  0  0  0  0  0  0  0
    0.6442    1.0384    0.0000 H   0  0  0  0  0  0  0  0  0  0  0  0
    1.3102    2.1645    0.0000 H   0  0  0  0  0  0  0  0  0  0  0  0
   -0.3875   -0.3577    0.0000 H   0  0  0  0  0  0  0  0  0  0  0  0
    0.4086    0.4597    0.0000 H   0  0  0  0  0  0  0  0  0  0  0  0
   -2.1402   -1.4588    0.0000 H   0  0  0  0  0  0  0  0  0  0  0  0
   -0.8491   -0.7545    0.0000 H   0  0  0  0  0  0  0  0  0  0  0  0
   -3.1084   -2.0072    0.0000 H   0  0  0  0  0  0  0  0  0  0  0  0
    2.9610    3.9011    0.0000 H   0  0  0  0  0  0  0  0  0  0  0  0
    2.4422    5.6085    0.0000 H   0  0  0  0  0  0  0  0  0  0  0  0
    0.9764    5.7911    0.0000 H   0  0  0  0  0  0  0  0  0  0  0  0
    3.1896    4.7564    0.0000 H   0  0  0  0  0  0  0  0  0  0  0  0
    2.7912    1.3885    0.0000 H   0  0  0  0  0  0  0  0  0  0  0  0
    5.7302   -0.0083    0.0000 H   0  0  0  0  0  0  0  0  0  0  0  0
    6.0344    1.7500    0.0000 H   0  0  0  0  0  0  0  0  0  0  0  0
    6.0571   -1.8887    0.0000 H   0  0  0  0  0  0  0  0  0  0  0  0
    3.6582   -4.1012    0.0000 H   0  0  0  0  0  0  0  0  0  0  0  0
    0.8128   -2.5034    0.0000 H   0  0  0  0  0  0  0  0  0  0  0  0
    6.4320    0.4471    0.0000 H   0  0  0  0  0  0  0  0  0  0  0  0
    7.1303    3.7657    0.0000 H   0  0  0  0  0  0  0  0  0  0  0  0
    9.7677    4.7615    0.0000 H   0  0  0  0  0  0  0  0  0  0  0  0
    7.8727    4.4040    0.0000 H   0  0  0  0  0  0  0  0  0  0  0  0
   11.5863    3.9354    0.0000 H   0  0  0  0  0  0  0  0  0  0  0  0
   11.6093    2.0071    0.0000 H   0  0  0  0  0  0  0  0  0  0  0  0
   10.4146    1.4579    0.0000 H   0  0  0  0  0  0  0  0  0  0  0  0
   10.8810    3.4948    0.0000 H   0  0  0  0  0  0  0  0  0  0  0  0
   10.3720    0.2730    0.0000 H   0  0  0  0  0  0  0  0  0  0  0  0
   13.4216   -1.2698    0.0000 H   0  0  0  0  0  0  0  0  0  0  0  0
   13.7259    0.4885    0.0000 H   0  0  0  0  0  0  0  0  0  0  0  0
   10.5138   -2.4709    0.0000 H   0  0  0  0  0  0  0  0  0  0  0  0
   10.3835   -0.6912    0.0000 H   0  0  0  0  0  0  0  0  0  0  0  0
   12.4478   -5.3809    0.0000 H   0  0  0  0  0  0  0  0  0  0  0  0
   10.1824   -4.1088    0.0000 H   0  0  0  0  0  0  0  0  0  0  0  0
   14.1234   -0.8144    0.0000 H   0  0  0  0  0  0  0  0  0  0  0  0
   14.8218    2.5042    0.0000 H   0  0  0  0  0  0  0  0  0  0  0  0
   17.2942    3.5798    0.0000 H   0  0  0  0  0  0  0  0  0  0  0  0
   15.5642    3.1425    0.0000 H   0  0  0  0  0  0  0  0  0  0  0  0
   19.3008    0.7456    0.0000 H   0  0  0  0  0  0  0  0  0  0  0  0
   18.1060    0.1964    0.0000 H   0  0  0  0  0  0  0  0  0  0  0  0
   20.0121    3.9817    0.0000 H   0  0  0  0  0  0  0  0  0  0  0  0
   18.2417    3.7586    0.0000 H   0  0  0  0  0  0  0  0  0  0  0  0
   21.3198    0.8148    0.0000 H   0  0  0  0  0  0  0  0  0  0  0  0
   24.3838    3.6373    0.0000 H   0  0  0  0  0  0  0  0  0  0  0  0
   22.6901    5.6074    0.0000 H   0  0  0  0  0  0  0  0  0  0  0  0
   20.1371    5.1257    0.0000 H   0  0  0  0  0  0  0  0  0  0  0  0
   18.7448    2.1712    0.0000 H   0  0  0  0  0  0  0  0  0  0  0  0
   18.0634   -0.9885    0.0000 H   0  0  0  0  0  0  0  0  0  0  0  0
   21.1131   -2.5313    0.0000 H   0  0  0  0  0  0  0  0  0  0  0  0
   21.4174   -0.7730    0.0000 H   0  0  0  0  0  0  0  0  0  0  0  0
   20.1082   -4.0445    0.0000 H   0  0  0  0  0  0  0  0  0  0  0  0
   18.2052   -3.7324    0.0000 H   0  0  0  0  0  0  0  0  0  0  0  0
   18.0750   -1.9527    0.0000 H   0  0  0  0  0  0  0  0  0  0  0  0
   21.8149   -2.0759    0.0000 H   0  0  0  0  0  0  0  0  0  0  0  0
   22.5132    1.2427    0.0000 H   0  0  0  0  0  0  0  0  0  0  0  0
   25.1506    2.2385    0.0000 H   0  0  0  0  0  0  0  0  0  0  0  0
   23.1485    1.7324    0.0000 H   0  0  0  0  0  0  0  0  0  0  0  0
   26.8678   -0.6503    0.0000 H   0  0  0  0  0  0  0  0  0  0  0  0
   25.6150   -1.0498    0.0000 H   0  0  0  0  0  0  0  0  0  0  0  0
   29.5222    1.8940    0.0000 H   0  0  0  0  0  0  0  0  0  0  0  0
   29.5453   -0.0342    0.0000 H   0  0  0  0  0  0  0  0  0  0  0  0
   27.8153   -0.4715    0.0000 H   0  0  0  0  0  0  0  0  0  0  0  0
   25.3570   -3.4282    0.0000 H   0  0  0  0  0  0  0  0  0  0  0  0
  1  2  1  0
  2  3  1  0
  3  4  2  0
  4  5  1  0
  5  6  2  0
  6  7  1  0
  7  8  2  0
  7  9  1  0
  9 10  1  0
 10 11  1  0
 11 12  2  0
  9 13  1  0
 13 14  1  0
 14 15  2  0
 15 16  1  0
 16 17  2  0
 17 18  1  0
 16 19  1  0
 14 20  1  0
 20 21  1  0
 21 22  2  0
 22 23  1  0
 23 24  2  0
 24 25  1  0
 25 26  2  0
 25 27  1  0
  1 28  2  0
  1 29  1  0
 29 30  1  0
 30 31  1  0
 31 32  1  0
 32 33  2  0
 32 34  1  0
 34 35  1  0
 35 36  1  0
 36 37  1  0
 37 38  1  0
 38 39  2  0
 38 40  1  0
 35 41  1  0
 41 42  2  0
 41 43  1  0
 43 44  1  0
 44 45  1  0
 45 46  1  0
 46 47  1  0
 46 48  2  0
 44 49  1  0
 49 50  2  0
 49 51  1  0
 51 52  1  0
 52 53  1  0
 53 54  1  0
 54 55  1  0
 55 56  1  0
 56 57  2  0
 56 58  1  0
 58 59  1  0
 59 60  1  0
 60 61  1  0
 61 62  1  0
 62 63  2  0
 62 64  1  0
 59 65  1  0
 65 66  2  0
 65 67  1  0
 68 67  1  6
 68 69  1  0
 69 70  1  0
 70 71  1  0
 71 72  1  0
 68 73  1  0
 68 74  1  0
 74 75  2  0
 74 76  1  0
 76 77  1  0
 77 78  1  0
 78 79  1  0
 78 80  1  0
 80 81  1  0
 77 82  1  0
 82 83  2  0
 82 84  1  0
 84 85  1  0
 85 86  1  0
 86 87  1  0
 87 88  1  0
 87 89  1  0
 85 90  1  0
 90 91  2  0
 90 92  1  0
 92 93  1  0
 93 94  1  0
 94 95  1  0
 95 96  2  0
 95 97  1  0
 93 98  1  0
 98 99  2  0
 98100  1  0
100101  1  0
101102  1  0
102103  1  0
103104  1  0
104105  1  0
101106  1  0
101107  1  6
107108  2  0
107109  1  0
109110  1  0
110111  1  0
111112  1  0
112113  2  0
113114  1  0
114115  1  0
115116  2  0
110117  1  0
117118  2  0
117119  1  0
119120  1  0
120121  1  0
121122  1  0
120123  1  0
123124  2  0
123125  1  0
125126  1  0
126127  1  0
127128  1  0
128129  1  0
129130  1  0
129131  2  0
126132  1  0
132133  2  0
132134  1  0
134135  1  0
135136  1  0
136137  1  0
137138  1  0
138139  1  0
139140  1  0
140141  2  3
140142  1  0
135143  1  0
143144  2  0
143145  1  0
145146  1  0
146147  1  0
147148  1  0
146149  1  0
149150  2  0
149151  1  0
151152  1  0
152153  1  0
153154  1  0
154155  1  0
155156  1  0
152157  1  0
157158  2  0
157159  1  0
  8  3  1  0
 55 51  1  0
116112  1  0
 11  6  1  0
 72105  2  0
 18 13  2  0
 22  9  1  0
 26 21  1  0
  2160  1  0
  4161  1  0
  5162  1  0
  8163  1  0
 15164  1  0
 17165  1  0
 18166  1  0
 19167  1  0
 23168  1  0
 24169  1  0
 26170  1  0
 27171  1  0
 29172  1  0
 30173  1  0
 30174  1  0
 31175  1  0
 31176  1  0
 34177  1  0
 35178  1  1
 36179  1  0
 36180  1  0
 37181  1  0
 37182  1  0
 40183  1  0
 43184  1  0
 44185  1  6
 45186  1  0
 45187  1  0
 47188  1  0
 47189  1  0
 52190  1  0
 52191  1  0
 53192  1  0
 53193  1  0
 54194  1  0
 54195  1  0
 55196  1  0
 58197  1  0
 59198  1  1
 60199  1  0
 60200  1  0
 61201  1  0
 61202  1  0
 64203  1  0
 67204  1  0
 69205  1  0
 69206  1  0
 70207  1  0
 70208  1  0
 71209  1  0
 71210  1  0
 72211  1  0
 73212  1  0
 73213  1  0
 73214  1  0
 76215  1  0
 77216  1  1
 78217  1  6
 79218  1  0
 79219  1  0
 79220  1  0
 80221  1  0
 80222  1  0
 81223  1  0
 81224  1  0
 81225  1  0
 84226  1  0
 85227  1  1
 86228  1  0
 86229  1  0
 87230  1  0
 88231  1  0
 88232  1  0
 88233  1  0
 89234  1  0
 89235  1  0
 89236  1  0
 92237  1  0
 93238  1  1
 94239  1  0
 94240  1  0
 97241  1  0
100242  1  0
102243  1  0
102244  1  0
103245  1  0
103246  1  0
104247  1  0
104248  1  0
105249  1  0
106250  1  0
106251  1  0
106252  1  0
109253  1  0
110254  1  6
111255  1  0
111256  1  0
113257  1  0
114258  1  0
115259  1  0
119260  1  0
120261  1  1
121262  1  0
121263  1  0
122264  1  0
122265  1  0
122266  1  0
125267  1  0
126268  1  6
127269  1  0
127270  1  0
128271  1  0
128272  1  0
130273  1  0
130274  1  0
134275  1  0
135276  1  1
136277  1  0
136278  1  0
137279  1  0
137280  1  0
138281  1  0
138282  1  0
139283  1  0
141284  1  0
142285  1  0
142286  1  0
145287  1  0
146288  1  6
147289  1  0
147290  1  0
148291  1  0
148292  1  0
148293  1  0
151294  1  0
152295  1  1
153296  1  0
153297  1  0
154298  1  0
154299  1  0
156300  1  0
156301  1  0
156302  1  0
159303  1  0
M  END
