
     RDKit          2D

430433  0  0  0  0  0  0  0  0999 V2000
   35.3026   10.5016    0.0000 N   0  0  0  0  0  0  0  0  0  0  0  0
   33.8180   10.2869    0.0000 C   0  0  0  0  0  0  0  0  0  0  0  0
   33.2617    8.8938    0.0000 C   0  0  0  0  0  0  0  0  0  0  0  0
   31.7772    8.6791    0.0000 C   0  0  0  0  0  0  0  0  0  0  0  0
   30.9995    9.9618    0.0000 O   0  0  0  0  0  0  0  0  0  0  0  0
   31.2208    7.2861    0.0000 N   0  0  0  0  0  0  0  0  0  0  0  0
   29.7363    7.0714    0.0000 C   0  0  0  0  0  0  0  0  0  0  0  0
   29.7826    8.5707    0.0000 C   0  0  0  0  0  0  0  0  0  0  0  0
   28.5074    9.3605    0.0000 C   0  0  0  0  0  0  0  0  0  0  0  0
   28.5537   10.8597    0.0000 C   0  0  0  0  0  0  0  0  0  0  0  0
   27.2784   11.6495    0.0000 C   0  0  0  0  0  0  0  0  0  0  0  0
   27.3248   13.1488    0.0000 N   0  0  0  0  0  0  0  0  0  0  0  0
   28.4147    6.3619    0.0000 C   0  0  0  0  0  0  0  0  0  0  0  0
   27.2452    7.3012    0.0000 O   0  0  0  0  0  0  0  0  0  0  0  0
   28.3683    4.8626    0.0000 N   0  0  0  0  0  0  0  0  0  0  0  0
   27.0468    4.1531    0.0000 C   0  0  0  0  0  0  0  0  0  0  0  0
   26.5775    5.5778    0.0000 C   0  0  0  0  0  0  0  0  0  0  0  0
   26.0475    3.0344    0.0000 C   0  0  0  0  0  0  0  0  0  0  0  0
   24.5791    3.3403    0.0000 O   0  0  0  0  0  0  0  0  0  0  0  0
   26.5168    1.6096    0.0000 N   0  0  0  0  0  0  0  0  0  0  0  0
   25.5176    0.4909    0.0000 C   0  0  0  0  0  0  0  0  0  0  0  0
   26.7928   -0.2989    0.0000 C   0  0  0  0  0  0  0  0  0  0  0  0
   27.7210   -1.4772    0.0000 O   0  0  0  0  0  0  0  0  0  0  0  0
   28.1144    0.4107    0.0000 C   0  0  0  0  0  0  0  0  0  0  0  0
   24.1960   -0.2186    0.0000 C   0  0  0  0  0  0  0  0  0  0  0  0
   24.3327   -1.7124    0.0000 O   0  0  0  0  0  0  0  0  0  0  0  0
   22.9207    0.5712    0.0000 N   0  0  0  0  0  0  0  0  0  0  0  0
   21.5991   -0.1383    0.0000 C   0  0  0  0  0  0  0  0  0  0  0  0
   22.5274   -1.3166    0.0000 C   0  0  0  0  0  0  0  0  0  0  0  0
   21.9710   -2.7097    0.0000 C   0  0  0  0  0  0  0  0  0  0  0  0
   22.8993   -3.8880    0.0000 C   0  0  0  0  0  0  0  0  0  0  0  0
   22.3429   -5.2810    0.0000 O   0  0  0  0  0  0  0  0  0  0  0  0
   24.3838   -3.6733    0.0000 O   0  0  0  0  0  0  0  0  0  0  0  0
   20.1146   -0.3531    0.0000 C   0  0  0  0  0  0  0  0  0  0  0  0
   19.5583   -1.7461    0.0000 O   0  0  0  0  0  0  0  0  0  0  0  0
   19.1864    0.8252    0.0000 N   0  0  0  0  0  0  0  0  0  0  0  0
   17.7018    0.6105    0.0000 C   0  0  0  0  0  0  0  0  0  0  0  0
   17.7481    2.1098    0.0000 C   0  0  0  0  0  0  0  0  0  0  0  0
   19.0697    2.8193    0.0000 C   0  0  0  0  0  0  0  0  0  0  0  0
   20.3450    2.0296    0.0000 C   0  0  0  0  0  0  0  0  0  0  0  0
   21.6666    2.7391    0.0000 C   0  0  0  0  0  0  0  0  0  0  0  0
   21.7129    4.2384    0.0000 C   0  0  0  0  0  0  0  0  0  0  0  0
   23.0345    4.9479    0.0000 O   0  0  0  0  0  0  0  0  0  0  0  0
   20.4377    5.0281    0.0000 C   0  0  0  0  0  0  0  0  0  0  0  0
   19.1161    4.3186    0.0000 C   0  0  0  0  0  0  0  0  0  0  0  0
   16.3802   -0.0990    0.0000 C   0  0  0  0  0  0  0  0  0  0  0  0
   15.1050    0.6908    0.0000 O   0  0  0  0  0  0  0  0  0  0  0  0
   16.3339   -1.5983    0.0000 N   0  0  0  0  0  0  0  0  0  0  0  0
   15.0123   -2.3078    0.0000 C   0  0  0  0  0  0  0  0  0  0  0  0
   15.9405   -3.4861    0.0000 C   0  0  0  0  0  0  0  0  0  0  0  0
   17.3878   -3.0920    0.0000 C   0  0  0  0  0  0  0  0  0  0  0  0
   16.4098   -4.9108    0.0000 C   0  0  0  0  0  0  0  0  0  0  0  0
   17.8782   -5.2168    0.0000 C   0  0  0  0  0  0  0  0  0  0  0  0
   13.5277   -2.5225    0.0000 C   0  0  0  0  0  0  0  0  0  0  0  0
   12.9714   -3.9155    0.0000 O   0  0  0  0  0  0  0  0  0  0  0  0
   12.5995   -1.3442    0.0000 N   0  0  0  0  0  0  0  0  0  0  0  0
   11.1150   -1.5589    0.0000 C   0  0  0  0  0  0  0  0  0  0  0  0
   11.1613   -0.0596    0.0000 C   0  0  0  0  0  0  0  0  0  0  0  0
   12.4829    0.6499    0.0000 C   0  0  0  0  0  0  0  0  0  0  0  0
   12.5292    2.1492    0.0000 C   0  0  0  0  0  0  0  0  0  0  0  0
   13.8508    2.8587    0.0000 N   0  0  0  0  0  0  0  0  0  0  0  0
   11.2540    2.9389    0.0000 O   0  0  0  0  0  0  0  0  0  0  0  0
    9.7934   -2.2684    0.0000 C   0  0  0  0  0  0  0  0  0  0  0  0
    8.6239   -1.3291    0.0000 O   0  0  0  0  0  0  0  0  0  0  0  0
    9.7470   -3.7677    0.0000 N   0  0  0  0  0  0  0  0  0  0  0  0
    8.4255   -4.4772    0.0000 C   0  0  0  0  0  0  0  0  0  0  0  0
    7.9562   -3.0525    0.0000 C   0  0  0  0  0  0  0  0  0  0  0  0
    6.4878   -2.7465    0.0000 C   0  0  0  0  0  0  0  0  0  0  0  0
    6.0185   -1.3218    0.0000 C   0  0  0  0  0  0  0  0  0  0  0  0
    4.5501   -1.0158    0.0000 C   0  0  0  0  0  0  0  0  0  0  0  0
    3.5508   -2.1346    0.0000 C   0  0  0  0  0  0  0  0  0  0  0  0
    2.0824   -1.8286    0.0000 O   0  0  0  0  0  0  0  0  0  0  0  0
    4.0201   -3.5593    0.0000 C   0  0  0  0  0  0  0  0  0  0  0  0
    5.4885   -3.8653    0.0000 C   0  0  0  0  0  0  0  0  0  0  0  0
    7.4262   -5.5959    0.0000 C   0  0  0  0  0  0  0  0  0  0  0  0
    5.9314   -5.4712    0.0000 O   0  0  0  0  0  0  0  0  0  0  0  0
    7.8955   -7.0207    0.0000 N   0  0  0  0  0  0  0  0  0  0  0  0
    6.8963   -8.1394    0.0000 C   0  0  0  0  0  0  0  0  0  0  0  0
    8.1715   -8.9292    0.0000 C   0  0  0  0  0  0  0  0  0  0  0  0
    9.4931   -8.2197    0.0000 C   0  0  0  0  0  0  0  0  0  0  0  0
   10.7684   -9.0094    0.0000 C   0  0  0  0  0  0  0  0  0  0  0  0
   12.0899   -8.2999    0.0000 C   0  0  0  0  0  0  0  0  0  0  0  0
    5.5747   -8.8489    0.0000 C   0  0  0  0  0  0  0  0  0  0  0  0
    5.7436   -9.6280    0.0000 O   0  0  0  0  0  0  0  0  0  0  0  0
    4.2994   -8.0591    0.0000 N   0  0  0  0  0  0  0  0  0  0  0  0
    2.9778   -8.7686    0.0000 C   0  0  0  0  0  0  0  0  0  0  0  0
    3.9061   -9.9470    0.0000 C   0  0  0  0  0  0  0  0  0  0  0  0
    5.3906   -9.7322    0.0000 C   0  0  0  0  0  0  0  0  0  0  0  0
    6.3188  -10.9105    0.0000 C   0  0  0  0  0  0  0  0  0  0  0  0
    7.8034  -10.6958    0.0000 N   0  0  0  0  0  0  0  0  0  0  0  0
    8.7316  -11.8741    0.0000 C   0  0  0  0  0  0  0  0  0  0  0  0
   10.2162  -11.6594    0.0000 N   0  0  0  0  0  0  0  0  0  0  0  0
    8.1753  -13.2671    0.0000 N   0  0  0  0  0  0  0  0  0  0  0  0
    1.4933   -8.9834    0.0000 C   0  0  0  0  0  0  0  0  0  0  0  0
    1.2906  -10.4696    0.0000 O   0  0  0  0  0  0  0  0  0  0  0  0
    0.5651   -7.8051    0.0000 N   0  0  0  0  0  0  0  0  0  0  0  0
   -0.9195   -8.0198    0.0000 C   0  0  0  0  0  0  0  0  0  0  0  0
   -0.4502   -9.4445    0.0000 C   0  0  0  0  0  0  0  0  0  0  0  0
    1.0182   -9.7505    0.0000 C   0  0  0  0  0  0  0  0  0  0  0  0
    1.4875  -11.1752    0.0000 C   0  0  0  0  0  0  0  0  0  0  0  0
    2.9559  -11.4812    0.0000 N   0  0  0  0  0  0  0  0  0  0  0  0
    3.4252  -12.9059    0.0000 C   0  0  0  0  0  0  0  0  0  0  0  0
    4.8936  -13.2119    0.0000 N   0  0  0  0  0  0  0  0  0  0  0  0
    2.4259  -14.0246    0.0000 N   0  0  0  0  0  0  0  0  0  0  0  0
   -2.3879   -7.7138    0.0000 C   0  0  0  0  0  0  0  0  0  0  0  0
   -3.0868   -9.0411    0.0000 O   0  0  0  0  0  0  0  0  0  0  0  0
   -2.8572   -6.2891    0.0000 N   0  0  0  0  0  0  0  0  0  0  0  0
   -4.3257   -5.9831    0.0000 C   0  0  0  0  0  0  0  0  0  0  0  0
   -4.3720   -7.4824    0.0000 C   0  0  0  0  0  0  0  0  0  0  0  0
   -3.0967   -8.2722    0.0000 C   0  0  0  0  0  0  0  0  0  0  0  0
   -3.1431   -9.7714    0.0000 C   0  0  0  0  0  0  0  0  0  0  0  0
   -1.8678  -10.5612    0.0000 C   0  0  0  0  0  0  0  0  0  0  0  0
   -1.9142  -12.0605    0.0000 N   0  0  0  0  0  0  0  0  0  0  0  0
   -5.6009   -5.1933    0.0000 C   0  0  0  0  0  0  0  0  0  0  0  0
   -6.7115   -6.2015    0.0000 O   0  0  0  0  0  0  0  0  0  0  0  0
   -5.5546   -3.6940    0.0000 N   0  0  0  0  0  0  0  0  0  0  0  0
   -6.8298   -2.9043    0.0000 C   0  0  0  0  0  0  0  0  0  0  0  0
   -7.3861   -4.2973    0.0000 C   0  0  0  0  0  0  0  0  0  0  0  0
   -6.4579   -5.4756    0.0000 C   0  0  0  0  0  0  0  0  0  0  0  0
   -7.0142   -6.8686    0.0000 N   0  0  0  0  0  0  0  0  0  0  0  0
   -4.9655   -5.6265    0.0000 O   0  0  0  0  0  0  0  0  0  0  0  0
   -7.7580   -1.7260    0.0000 C   0  0  0  0  0  0  0  0  0  0  0  0
   -9.1465   -2.2935    0.0000 O   0  0  0  0  0  0  0  0  0  0  0  0
   -7.2017   -0.3330    0.0000 N   0  0  0  0  0  0  0  0  0  0  0  0
   -8.1299    0.8454    0.0000 C   0  0  0  0  0  0  0  0  0  0  0  0
   -8.7735   -0.5096    0.0000 C   0  0  0  0  0  0  0  0  0  0  0  0
   -9.6618   -1.7182    0.0000 C   0  0  0  0  0  0  0  0  0  0  0  0
  -10.7629   -2.7369    0.0000 C   0  0  0  0  0  0  0  0  0  0  0  0
  -12.0368   -3.5288    0.0000 C   0  0  0  0  0  0  0  0  0  0  0  0
  -13.4376   -4.0653    0.0000 C   0  0  0  0  0  0  0  0  0  0  0  0
  -14.9146   -4.3270    0.0000 C   0  0  0  0  0  0  0  0  0  0  0  0
  -16.4144   -4.3045    0.0000 C   0  0  0  0  0  0  0  0  0  0  0  0
   -6.6620    1.1538    0.0000 C   0  0  0  0  0  0  0  0  0  0  0  0
   -7.7544    2.2976    0.0000 C   0  0  0  0  0  0  0  0  0  0  0  0
   -6.2554    2.2442    0.0000 O   0  0  0  0  0  0  0  0  0  0  0  0
   -7.6605    3.7947    0.0000 N   0  0  0  0  0  0  0  0  0  0  0  0
   -7.8517    5.2824    0.0000 C   0  0  0  0  0  0  0  0  0  0  0  0
   -6.7835    6.3355    0.0000 C   0  0  0  0  0  0  0  0  0  0  0  0
   -5.9796    7.6019    0.0000 O   0  0  0  0  0  0  0  0  0  0  0  0
   -5.3374    5.9370    0.0000 C   0  0  0  0  0  0  0  0  0  0  0  0
   -8.3209    6.7071    0.0000 C   0  0  0  0  0  0  0  0  0  0  0  0
   -7.0310    7.4726    0.0000 O   0  0  0  0  0  0  0  0  0  0  0  0
   -9.0513    8.0173    0.0000 N   0  0  0  0  0  0  0  0  0  0  0  0
  -10.0165    9.1656    0.0000 C   0  0  0  0  0  0  0  0  0  0  0  0
   -9.6872   10.6290    0.0000 C   0  0  0  0  0  0  0  0  0  0  0  0
   -8.2552   11.0756    0.0000 C   0  0  0  0  0  0  0  0  0  0  0  0
   -7.7748   12.4965    0.0000 C   0  0  0  0  0  0  0  0  0  0  0  0
   -6.2749   12.4788    0.0000 N   0  0  0  0  0  0  0  0  0  0  0  0
   -5.8284   11.0468    0.0000 C   0  0  0  0  0  0  0  0  0  0  0  0
   -7.0522   10.1796    0.0000 N   0  0  0  0  0  0  0  0  0  0  0  0
  -11.1815   10.1104    0.0000 C   0  0  0  0  0  0  0  0  0  0  0  0
  -10.5101   11.4518    0.0000 O   0  0  0  0  0  0  0  0  0  0  0  0
  -12.5042   10.8177    0.0000 N   0  0  0  0  0  0  0  0  0  0  0  0
  -13.9370   11.2619    0.0000 C   0  0  0  0  0  0  0  0  0  0  0  0
  -14.4512   12.6710    0.0000 C   0  0  0  0  0  0  0  0  0  0  0  0
  -13.4880   13.8209    0.0000 C   0  0  0  0  0  0  0  0  0  0  0  0
  -14.0022   15.2300    0.0000 C   0  0  0  0  0  0  0  0  0  0  0  0
  -13.0389   16.3799    0.0000 N   0  0  0  0  0  0  0  0  0  0  0  0
  -15.4796   15.4892    0.0000 O   0  0  0  0  0  0  0  0  0  0  0  0
  -15.4279   11.4269    0.0000 C   0  0  0  0  0  0  0  0  0  0  0  0
  -15.5883   12.9183    0.0000 O   0  0  0  0  0  0  0  0  0  0  0  0
  -16.9230   11.3068    0.0000 N   0  0  0  0  0  0  0  0  0  0  0  0
  -18.3685   10.9059    0.0000 C   0  0  0  0  0  0  0  0  0  0  0  0
  -19.5629   11.8133    0.0000 C   0  0  0  0  0  0  0  0  0  0  0  0
  -19.3742   13.3014    0.0000 C   0  0  0  0  0  0  0  0  0  0  0  0
  -20.5686   14.2088    0.0000 C   0  0  0  0  0  0  0  0  0  0  0  0
  -20.3800   15.6969    0.0000 N   0  0  0  0  0  0  0  0  0  0  0  0
  -21.9517   13.6281    0.0000 O   0  0  0  0  0  0  0  0  0  0  0  0
  -19.7119   10.2386    0.0000 C   0  0  0  0  0  0  0  0  0  0  0  0
  -20.6532   11.4065    0.0000 O   0  0  0  0  0  0  0  0  0  0  0  0
  -20.9048    9.3292    0.0000 N   0  0  0  0  0  0  0  0  0  0  0  0
  -21.9040    8.2105    0.0000 C   0  0  0  0  0  0  0  0  0  0  0  0
  -23.3994    8.3281    0.0000 C   0  0  0  0  0  0  0  0  0  0  0  0
  -24.0452    9.6820    0.0000 C   0  0  0  0  0  0  0  0  0  0  0  0
  -25.5406    9.7996    0.0000 O   0  0  0  0  0  0  0  0  0  0  0  0
  -23.1957   10.9182    0.0000 O   0  0  0  0  0  0  0  0  0  0  0  0
  -22.6734    6.9229    0.0000 C   0  0  0  0  0  0  0  0  0  0  0  0
  -24.0967    7.3965    0.0000 O   0  0  0  0  0  0  0  0  0  0  0  0
  -23.1853    5.5129    0.0000 N   0  0  0  0  0  0  0  0  0  0  0  0
  -23.4211    4.0315    0.0000 C   0  0  0  0  0  0  0  0  0  0  0  0
  -24.7426    3.3220    0.0000 C   0  0  0  0  0  0  0  0  0  0  0  0
  -25.9121    4.2614    0.0000 C   0  0  0  0  0  0  0  0  0  0  0  0
  -25.7419    2.2033    0.0000 C   0  0  0  0  0  0  0  0  0  0  0  0
  -27.2103    2.5093    0.0000 C   0  0  0  0  0  0  0  0  0  0  0  0
  -23.3722    2.5323    0.0000 C   0  0  0  0  0  0  0  0  0  0  0  0
  -24.8600    2.3412    0.0000 O   0  0  0  0  0  0  0  0  0  0  0  0
  -23.0405    1.0695    0.0000 N   0  0  0  0  0  0  0  0  0  0  0  0
  -22.4380   -0.3042    0.0000 C   0  0  0  0  0  0  0  0  0  0  0  0
  -21.5863   -1.5390    0.0000 C   0  0  0  0  0  0  0  0  0  0  0  0
  -20.5164   -2.5903    0.0000 C   0  0  0  0  0  0  0  0  0  0  0  0
  -19.2669   -3.4201    0.0000 C   0  0  0  0  0  0  0  0  0  0  0  0
  -17.8829   -3.9985    0.0000 C   0  0  0  0  0  0  0  0  0  0  0  0
  -23.9363   -0.2341    0.0000 C   0  0  0  0  0  0  0  0  0  0  0  0
  -23.1662   -1.6156    0.0000 C   0  0  0  0  0  0  0  0  0  0  0  0
  -22.7288   -3.0504    0.0000 O   0  0  0  0  0  0  0  0  0  0  0  0
  -24.6660   -1.6406    0.0000 N   0  0  0  0  0  0  0  0  0  0  0  0
  -25.3942   -2.9520    0.0000 C   0  0  0  0  0  0  0  0  0  0  0  0
  -25.6299   -4.4334    0.0000 C   0  0  0  0  0  0  0  0  0  0  0  0
  -27.0307   -4.9699    0.0000 C   0  0  0  0  0  0  0  0  0  0  0  0
  -27.2665   -6.4512    0.0000 O   0  0  0  0  0  0  0  0  0  0  0  0
  -28.3897   -4.3350    0.0000 O   0  0  0  0  0  0  0  0  0  0  0  0
  -26.8939   -2.9771    0.0000 C   0  0  0  0  0  0  0  0  0  0  0  0
  -27.6655   -1.6907    0.0000 O   0  0  0  0  0  0  0  0  0  0  0  0
  -27.6221   -4.2884    0.0000 N   0  0  0  0  0  0  0  0  0  0  0  0
  -29.1219   -4.3135    0.0000 C   0  0  0  0  0  0  0  0  0  0  0  0
  -30.5398   -3.8241    0.0000 C   0  0  0  0  0  0  0  0  0  0  0  0
  -31.6727   -4.8073    0.0000 C   0  0  0  0  0  0  0  0  0  0  0  0
  -33.0906   -4.3179    0.0000 C   0  0  0  0  0  0  0  0  0  0  0  0
  -32.4008   -6.1187    0.0000 C   0  0  0  0  0  0  0  0  0  0  0  0
  -29.8501   -5.6249    0.0000 C   0  0  0  0  0  0  0  0  0  0  0  0
  -31.3357   -5.8326    0.0000 O   0  0  0  0  0  0  0  0  0  0  0  0
  -29.0785   -6.9112    0.0000 O   0  0  0  0  0  0  0  0  0  0  0  0
   35.8589   11.8946    0.0000 H   0  0  0  0  0  0  0  0  0  0  0  0
   36.2308    9.3233    0.0000 H   0  0  0  0  0  0  0  0  0  0  0  0
   33.8644   11.7862    0.0000 H   0  0  0  0  0  0  0  0  0  0  0  0
   32.3496   10.5928    0.0000 H   0  0  0  0  0  0  0  0  0  0  0  0
   34.7302    8.5879    0.0000 H   0  0  0  0  0  0  0  0  0  0  0  0
   33.2154    7.3946    0.0000 H   0  0  0  0  0  0  0  0  0  0  0  0
   32.1490    6.1078    0.0000 H   0  0  0  0  0  0  0  0  0  0  0  0
   30.2055    5.6467    0.0000 H   0  0  0  0  0  0  0  0  0  0  0  0
   30.3389    9.9637    0.0000 H   0  0  0  0  0  0  0  0  0  0  0  0
   31.2815    8.6291    0.0000 H   0  0  0  0  0  0  0  0  0  0  0  0
   27.0125    9.4852    0.0000 H   0  0  0  0  0  0  0  0  0  0  0  0
   27.9510    7.9674    0.0000 H   0  0  0  0  0  0  0  0  0  0  0  0
   29.2757   12.1746    0.0000 H   0  0  0  0  0  0  0  0  0  0  0  0
   30.0485   10.7350    0.0000 H   0  0  0  0  0  0  0  0  0  0  0  0
   25.8100   11.9555    0.0000 H   0  0  0  0  0  0  0  0  0  0  0  0
   26.5565   10.3347    0.0000 H   0  0  0  0  0  0  0  0  0  0  0  0
   26.0495   13.9386    0.0000 H   0  0  0  0  0  0  0  0  0  0  0  0
   27.8811   14.5418    0.0000 H   0  0  0  0  0  0  0  0  0  0  0  0
   28.8196   13.0241    0.0000 H   0  0  0  0  0  0  0  0  0  0  0  0
   29.6436    4.0728    0.0000 H   0  0  0  0  0  0  0  0  0  0  0  0
   27.9750    2.9748    0.0000 H   0  0  0  0  0  0  0  0  0  0  0  0
   27.4329    6.8100    0.0000 H   0  0  0  0  0  0  0  0  0  0  0  0
   25.6493    6.7561    0.0000 H   0  0  0  0  0  0  0  0  0  0  0  0
   25.2559    4.8683    0.0000 H   0  0  0  0  0  0  0  0  0  0  0  0
   28.0116    1.4849    0.0000 H   0  0  0  0  0  0  0  0  0  0  0  0
   24.5893    1.6692    0.0000 H   0  0  0  0  0  0  0  0  0  0  0  0
   25.7936   -1.4176    0.0000 H   0  0  0  0  0  0  0  0  0  0  0  0
   29.2207   -1.4450    0.0000 H   0  0  0  0  0  0  0  0  0  0  0  0
   29.4764   -0.2178    0.0000 H   0  0  0  0  0  0  0  0  0  0  0  0
   29.1136    1.5294    0.0000 H   0  0  0  0  0  0  0  0  0  0  0  0
   27.6702    1.8434    0.0000 H   0  0  0  0  0  0  0  0  0  0  0  0
   23.1495    2.0536    0.0000 H   0  0  0  0  0  0  0  0  0  0  0  0
   21.1299    1.2864    0.0000 H   0  0  0  0  0  0  0  0  0  0  0  0
   23.6968   -2.2560    0.0000 H   0  0  0  0  0  0  0  0  0  0  0  0
   23.7676   -0.4729    0.0000 H   0  0  0  0  0  0  0  0  0  0  0  0
   20.9718   -3.8284    0.0000 H   0  0  0  0  0  0  0  0  0  0  0  0
   20.6958   -1.9199    0.0000 H   0  0  0  0  0  0  0  0  0  0  0  0
   20.0632    2.0423    0.0000 H   0  0  0  0  0  0  0  0  0  0  0  0
   18.1711   -0.8142    0.0000 H   0  0  0  0  0  0  0  0  0  0  0  0
   17.2789    3.5345    0.0000 H   0  0  0  0  0  0  0  0  0  0  0  0
   16.2636    1.8951    0.0000 H   0  0  0  0  0  0  0  0  0  0  0  0
   20.2986    0.5303    0.0000 H   0  0  0  0  0  0  0  0  0  0  0  0
   23.0286    2.1106    0.0000 H   0  0  0  0  0  0  0  0  0  0  0  0
   23.0808    6.4472    0.0000 H   0  0  0  0  0  0  0  0  0  0  0  0
   20.4840    6.5274    0.0000 H   0  0  0  0  0  0  0  0  0  0  0  0
   17.8408    5.1084    0.0000 H   0  0  0  0  0  0  0  0  0  0  0  0
   17.6959   -2.2267    0.0000 H   0  0  0  0  0  0  0  0  0  0  0  0
   14.5431   -0.8831    0.0000 H   0  0  0  0  0  0  0  0  0  0  0  0
   14.6189   -4.1956    0.0000 H   0  0  0  0  0  0  0  0  0  0  0  0
   18.5116   -4.3219    0.0000 H   0  0  0  0  0  0  0  0  0  0  0  0
   18.7467   -2.5619    0.0000 H   0  0  0  0  0  0  0  0  0  0  0  0
   17.4977   -1.7731    0.0000 H   0  0  0  0  0  0  0  0  0  0  0  0
   16.3634   -6.4101    0.0000 H   0  0  0  0  0  0  0  0  0  0  0  0
   14.9252   -5.1255    0.0000 H   0  0  0  0  0  0  0  0  0  0  0  0
   18.3475   -6.6415    0.0000 H   0  0  0  0  0  0  0  0  0  0  0  0
   19.3628   -5.0021    0.0000 H   0  0  0  0  0  0  0  0  0  0  0  0
   18.2860   -3.7733    0.0000 H   0  0  0  0  0  0  0  0  0  0  0  0
   13.3215   -0.0294    0.0000 H   0  0  0  0  0  0  0  0  0  0  0  0
   11.5842   -2.9836    0.0000 H   0  0  0  0  0  0  0  0  0  0  0  0
   10.6921    1.3651    0.0000 H   0  0  0  0  0  0  0  0  0  0  0  0
    9.6768   -0.2743    0.0000 H   0  0  0  0  0  0  0  0  0  0  0  0
   13.9674    0.8646    0.0000 H   0  0  0  0  0  0  0  0  0  0  0  0
   13.4316   -0.5120    0.0000 H   0  0  0  0  0  0  0  0  0  0  0  0
   13.8972    4.3580    0.0000 H   0  0  0  0  0  0  0  0  0  0  0  0
   15.1261    2.0689    0.0000 H   0  0  0  0  0  0  0  0  0  0  0  0
   11.0223   -4.5575    0.0000 H   0  0  0  0  0  0  0  0  0  0  0  0
    9.3537   -5.6555    0.0000 H   0  0  0  0  0  0  0  0  0  0  0  0
    7.8195   -1.5587    0.0000 H   0  0  0  0  0  0  0  0  0  0  0  0
    9.3447   -2.4849    0.0000 H   0  0  0  0  0  0  0  0  0  0  0  0
    7.0177   -0.2031    0.0000 H   0  0  0  0  0  0  0  0  0  0  0  0
    4.0808    0.4089    0.0000 H   0  0  0  0  0  0  0  0  0  0  0  0
    1.0832   -2.9473    0.0000 H   0  0  0  0  0  0  0  0  0  0  0  0
    3.0209   -4.6780    0.0000 H   0  0  0  0  0  0  0  0  0  0  0  0
    5.7806   -5.3365    0.0000 H   0  0  0  0  0  0  0  0  0  0  0  0
    9.3903   -7.1454    0.0000 H   0  0  0  0  0  0  0  0  0  0  0  0
    5.9680   -6.9611    0.0000 H   0  0  0  0  0  0  0  0  0  0  0  0
    8.9492  -10.2118    0.0000 H   0  0  0  0  0  0  0  0  0  0  0  0
    7.4727  -10.2564    0.0000 H   0  0  0  0  0  0  0  0  0  0  0  0
   10.3485   -6.9875    0.0000 H   0  0  0  0  0  0  0  0  0  0  0  0
    9.0489   -6.7869    0.0000 H   0  0  0  0  0  0  0  0  0  0  0  0
   11.6966  -10.1877    0.0000 H   0  0  0  0  0  0  0  0  0  0  0  0
    9.9130  -10.2416    0.0000 H   0  0  0  0  0  0  0  0  0  0  0  0
   13.3652   -9.0897    0.0000 H   0  0  0  0  0  0  0  0  0  0  0  0
   13.0892   -7.1812    0.0000 H   0  0  0  0  0  0  0  0  0  0  0  0
   11.3123   -7.0172    0.0000 H   0  0  0  0  0  0  0  0  0  0  0  0
    4.3458   -6.5599    0.0000 H   0  0  0  0  0  0  0  0  0  0  0  0
    2.5086   -7.3439    0.0000 H   0  0  0  0  0  0  0  0  0  0  0  0
    4.1981  -11.4182    0.0000 H   0  0  0  0  0  0  0  0  0  0  0  0
    2.7954  -10.9552    0.0000 H   0  0  0  0  0  0  0  0  0  0  0  0
    6.7122   -9.0227    0.0000 H   0  0  0  0  0  0  0  0  0  0  0  0
    5.2801   -8.2363    0.0000 H   0  0  0  0  0  0  0  0  0  0  0  0
    6.7881  -12.3353    0.0000 H   0  0  0  0  0  0  0  0  0  0  0  0
    5.0936  -11.7759    0.0000 H   0  0  0  0  0  0  0  0  0  0  0  0
    8.6803   -9.4788    0.0000 H   0  0  0  0  0  0  0  0  0  0  0  0
   11.1444  -12.8377    0.0000 H   0  0  0  0  0  0  0  0  0  0  0  0
   10.7725  -10.2664    0.0000 H   0  0  0  0  0  0  0  0  0  0  0  0
    9.1035  -14.4455    0.0000 H   0  0  0  0  0  0  0  0  0  0  0  0
    6.6907  -13.4819    0.0000 H   0  0  0  0  0  0  0  0  0  0  0  0
    1.1214   -6.4120    0.0000 H   0  0  0  0  0  0  0  0  0  0  0  0
   -0.8731   -6.5205    0.0000 H   0  0  0  0  0  0  0  0  0  0  0  0
   -0.4966  -10.9438    0.0000 H   0  0  0  0  0  0  0  0  0  0  0  0
   -1.9499   -9.4766    0.0000 H   0  0  0  0  0  0  0  0  0  0  0  0
    2.5028   -9.5358    0.0000 H   0  0  0  0  0  0  0  0  0  0  0  0
    1.4260   -8.3070    0.0000 H   0  0  0  0  0  0  0  0  0  0  0  0
    1.4411  -12.6745    0.0000 H   0  0  0  0  0  0  0  0  0  0  0  0
    0.0990  -11.7427    0.0000 H   0  0  0  0  0  0  0  0  0  0  0  0
    4.1961  -10.6375    0.0000 H   0  0  0  0  0  0  0  0  0  0  0  0
    5.3629  -14.6366    0.0000 H   0  0  0  0  0  0  0  0  0  0  0  0
    5.8928  -12.0931    0.0000 H   0  0  0  0  0  0  0  0  0  0  0  0
    2.8952  -15.4493    0.0000 H   0  0  0  0  0  0  0  0  0  0  0  0
    0.9575  -13.7186    0.0000 H   0  0  0  0  0  0  0  0  0  0  0  0
   -1.8580   -5.1703    0.0000 H   0  0  0  0  0  0  0  0  0  0  0  0
   -3.7693   -4.5901    0.0000 H   0  0  0  0  0  0  0  0  0  0  0  0
   -5.0940   -8.7972    0.0000 H   0  0  0  0  0  0  0  0  0  0  0  0
   -5.8668   -7.3577    0.0000 H   0  0  0  0  0  0  0  0  0  0  0  0
   -1.6019   -8.3969    0.0000 H   0  0  0  0  0  0  0  0  0  0  0  0
   -2.2199   -7.0551    0.0000 H   0  0  0  0  0  0  0  0  0  0  0  0
   -3.8651  -11.0863    0.0000 H   0  0  0  0  0  0  0  0  0  0  0  0
   -4.6379   -9.6467    0.0000 H   0  0  0  0  0  0  0  0  0  0  0  0
   -0.5170  -11.2134    0.0000 H   0  0  0  0  0  0  0  0  0  0  0  0
   -1.3115   -9.1682    0.0000 H   0  0  0  0  0  0  0  0  0  0  0  0
   -0.6389  -12.8503    0.0000 H   0  0  0  0  0  0  0  0  0  0  0  0
   -2.4705  -13.4535    0.0000 H   0  0  0  0  0  0  0  0  0  0  0  0
   -3.4090  -11.9358    0.0000 H   0  0  0  0  0  0  0  0  0  0  0  0
   -4.2330   -2.9845    0.0000 H   0  0  0  0  0  0  0  0  0  0  0  0
   -5.8306   -1.7855    0.0000 H   0  0  0  0  0  0  0  0  0  0  0  0
   -8.3854   -5.4160    0.0000 H   0  0  0  0  0  0  0  0  0  0  0  0
   -8.6614   -3.5075    0.0000 H   0  0  0  0  0  0  0  0  0  0  0  0
   -6.2366   -8.1513    0.0000 H   0  0  0  0  0  0  0  0  0  0  0  0
   -8.4988   -7.0833    0.0000 H   0  0  0  0  0  0  0  0  0  0  0  0
   -5.7021   -0.3008    0.0000 H   0  0  0  0  0  0  0  0  0  0  0  0
   -7.3122   -0.8482    0.0000 H   0  0  0  0  0  0  0  0  0  0  0  0
   -8.2526   -1.9162    0.0000 H   0  0  0  0  0  0  0  0  0  0  0  0
   -8.3755   -2.4898    0.0000 H   0  0  0  0  0  0  0  0  0  0  0  0
   -9.2380   -3.1571    0.0000 H   0  0  0  0  0  0  0  0  0  0  0  0
   -9.3612   -3.2711    0.0000 H   0  0  0  0  0  0  0  0  0  0  0  0
  -10.4381   -4.2013    0.0000 H   0  0  0  0  0  0  0  0  0  0  0  0
  -10.8673   -4.4681    0.0000 H   0  0  0  0  0  0  0  0  0  0  0  0
  -11.9951   -5.0282    0.0000 H   0  0  0  0  0  0  0  0  0  0  0  0
  -12.4670   -5.2090    0.0000 H   0  0  0  0  0  0  0  0  0  0  0  0
  -13.6803   -5.5455    0.0000 H   0  0  0  0  0  0  0  0  0  0  0  0
  -14.1780   -5.6337    0.0000 H   0  0  0  0  0  0  0  0  0  0  0  0
  -15.6008   -5.6609    0.0000 H   0  0  0  0  0  0  0  0  0  0  0  0
  -16.5794   -5.7954    0.0000 H   0  0  0  0  0  0  0  0  0  0  0  0
   -5.5322    0.1671    0.0000 H   0  0  0  0  0  0  0  0  0  0  0  0
   -5.3010    1.7845    0.0000 H   0  0  0  0  0  0  0  0  0  0  0  0
   -6.8672    2.6397    0.0000 H   0  0  0  0  0  0  0  0  0  0  0  0
   -6.1666    3.6604    0.0000 H   0  0  0  0  0  0  0  0  0  0  0  0
   -6.5040    4.6238    0.0000 H   0  0  0  0  0  0  0  0  0  0  0  0
   -7.7595    7.4746    0.0000 H   0  0  0  0  0  0  0  0  0  0  0  0
   -4.6802    7.9717    0.0000 H   0  0  0  0  0  0  0  0  0  0  0  0
   -4.1489    6.8521    0.0000 H   0  0  0  0  0  0  0  0  0  0  0  0
   -4.1148    5.0680    0.0000 H   0  0  0  0  0  0  0  0  0  0  0  0
   -5.6340    4.4666    0.0000 H   0  0  0  0  0  0  0  0  0  0  0  0
   -7.8165    8.8689    0.0000 H   0  0  0  0  0  0  0  0  0  0  0  0
   -8.5590    9.5204    0.0000 H   0  0  0  0  0  0  0  0  0  0  0  0
   -9.6956   12.1290    0.0000 H   0  0  0  0  0  0  0  0  0  0  0  0
  -11.1241   11.0596    0.0000 H   0  0  0  0  0  0  0  0  0  0  0  0
   -8.6421   13.7204    0.0000 H   0  0  0  0  0  0  0  0  0  0  0  0
   -5.3789   13.6818    0.0000 H   0  0  0  0  0  0  0  0  0  0  0  0
   -4.4074   10.5664    0.0000 H   0  0  0  0  0  0  0  0  0  0  0  0
  -11.7615   12.1209    0.0000 H   0  0  0  0  0  0  0  0  0  0  0  0
  -12.7780   12.2142    0.0000 H   0  0  0  0  0  0  0  0  0  0  0  0
  -15.2691   13.9283    0.0000 H   0  0  0  0  0  0  0  0  0  0  0  0
  -15.8927   12.2564    0.0000 H   0  0  0  0  0  0  0  0  0  0  0  0
  -12.1895   14.5720    0.0000 H   0  0  0  0  0  0  0  0  0  0  0  0
  -12.2736   12.9403    0.0000 H   0  0  0  0  0  0  0  0  0  0  0  0
  -13.5532   17.7890    0.0000 H   0  0  0  0  0  0  0  0  0  0  0  0
  -11.5615   16.1206    0.0000 H   0  0  0  0  0  0  0  0  0  0  0  0
  -17.0028   12.8047    0.0000 H   0  0  0  0  0  0  0  0  0  0  0  0
  -17.9084   12.3336    0.0000 H   0  0  0  0  0  0  0  0  0  0  0  0
  -20.9308   12.4288    0.0000 H   0  0  0  0  0  0  0  0  0  0  0  0
  -20.5515   10.6851    0.0000 H   0  0  0  0  0  0  0  0  0  0  0  0
  -18.6880   14.6352    0.0000 H   0  0  0  0  0  0  0  0  0  0  0  0
  -17.8766   13.2171    0.0000 H   0  0  0  0  0  0  0  0  0  0  0  0
  -21.5744   16.6043    0.0000 H   0  0  0  0  0  0  0  0  0  0  0  0
  -18.9969   16.2775    0.0000 H   0  0  0  0  0  0  0  0  0  0  0  0
  -21.9235   10.4303    0.0000 H   0  0  0  0  0  0  0  0  0  0  0  0
  -22.4627    9.6026    0.0000 H   0  0  0  0  0  0  0  0  0  0  0  0
  -24.8829    8.1064    0.0000 H   0  0  0  0  0  0  0  0  0  0  0  0
  -23.6211    6.8446    0.0000 H   0  0  0  0  0  0  0  0  0  0  0  0
  -24.5809    6.0626    0.0000 H   0  0  0  0  0  0  0  0  0  0  0  0
  -24.5286    5.0432    0.0000 H   0  0  0  0  0  0  0  0  0  0  0  0
  -24.1271    1.9541    0.0000 H   0  0  0  0  0  0  0  0  0  0  0  0
  -27.4336    3.5827    0.0000 H   0  0  0  0  0  0  0  0  0  0  0  0
  -26.9461    5.2901    0.0000 H   0  0  0  0  0  0  0  0  0  0  0  0
  -25.3191    5.4391    0.0000 H   0  0  0  0  0  0  0  0  0  0  0  0
  -26.2982    0.8103    0.0000 H   0  0  0  0  0  0  0  0  0  0  0  0
  -24.4666    1.4135    0.0000 H   0  0  0  0  0  0  0  0  0  0  0  0
  -28.2095    1.3905    0.0000 H   0  0  0  0  0  0  0  0  0  0  0  0
  -28.4856    3.2991    0.0000 H   0  0  0  0  0  0  0  0  0  0  0  0
  -27.0076    3.9955    0.0000 H   0  0  0  0  0  0  0  0  0  0  0  0
  -24.4652    0.6002    0.0000 H   0  0  0  0  0  0  0  0  0  0  0  0
  -22.0532   -2.9645    0.0000 H   0  0  0  0  0  0  0  0  0  0  0  0
  -22.9748   -2.1065    0.0000 H   0  0  0  0  0  0  0  0  0  0  0  0
  -20.8851   -4.0443    0.0000 H   0  0  0  0  0  0  0  0  0  0  0  0
  -21.7724   -3.4104    0.0000 H   0  0  0  0  0  0  0  0  0  0  0  0
  -19.1705   -4.9170    0.0000 H   0  0  0  0  0  0  0  0  0  0  0  0
  -20.4641   -4.3239    0.0000 H   0  0  0  0  0  0  0  0  0  0  0  0
  -18.3270   -5.4312    0.0000 H   0  0  0  0  0  0  0  0  0  0  0  0
  -25.0277   -1.2631    0.0000 H   0  0  0  0  0  0  0  0  0  0  0  0
  -25.3203    0.3443    0.0000 H   0  0  0  0  0  0  0  0  0  0  0  0
  -23.7879    1.2586    0.0000 H   0  0  0  0  0  0  0  0  0  0  0  0
  -25.5886   -0.4579    0.0000 H   0  0  0  0  0  0  0  0  0  0  0  0
  -23.9762   -3.4414    0.0000 H   0  0  0  0  0  0  0  0  0  0  0  0
  -25.3448   -5.9060    0.0000 H   0  0  0  0  0  0  0  0  0  0  0  0
  -24.1301   -4.4083    0.0000 H   0  0  0  0  0  0  0  0  0  0  0  0
  -27.1847   -5.7233    0.0000 H   0  0  0  0  0  0  0  0  0  0  0  0
  -28.8862   -2.8321    0.0000 H   0  0  0  0  0  0  0  0  0  0  0  0
  -31.5810   -2.7443    0.0000 H   0  0  0  0  0  0  0  0  0  0  0  0
  -29.8117   -2.5127    0.0000 H   0  0  0  0  0  0  0  0  0  0  0  0
  -30.9237   -6.1070    0.0000 H   0  0  0  0  0  0  0  0  0  0  0  0
  -34.3348   -5.1557    0.0000 H   0  0  0  0  0  0  0  0  0  0  0  0
  -34.2556   -3.3731    0.0000 H   0  0  0  0  0  0  0  0  0  0  0  0
  -32.5276   -2.9275    0.0000 H   0  0  0  0  0  0  0  0  0  0  0  0
  -33.8864   -6.3264    0.0000 H   0  0  0  0  0  0  0  0  0  0  0  0
  -32.6366   -7.6001    0.0000 H   0  0  0  0  0  0  0  0  0  0  0  0
  -30.9829   -6.6081    0.0000 H   0  0  0  0  0  0  0  0  0  0  0  0
  1  2  1  0
  2  3  1  0
  3  4  1  0
  4  5  2  0
  4  6  1  0
  6  7  1  0
  7  8  1  0
  8  9  1  0
  9 10  1  0
 10 11  1  0
 11 12  1  0
  7 13  1  0
 13 14  2  0
 13 15  1  0
 15 16  1  0
 16 17  1  0
 16 18  1  0
 18 19  2  0
 18 20  1  0
 20 21  1  0
 21 22  1  0
 22 23  1  0
 22 24  1  0
 21 25  1  0
 25 26  2  0
 25 27  1  0
 27 28  1  0
 28 29  1  0
 29 30  1  0
 30 31  1  0
 31 32  2  0
 31 33  1  0
 28 34  1  0
 34 35  2  0
 34 36  1  0
 36 37  1  0
 37 38  1  0
 38 39  1  0
 39 40  2  0
 40 41  1  0
 41 42  2  0
 42 43  1  0
 42 44  1  0
 44 45  2  0
 37 46  1  0
 46 47  2  0
 46 48  1  0
 48 49  1  0
 49 50  1  0
 50 51  1  0
 50 52  1  0
 52 53  1  0
 49 54  1  0
 54 55  2  0
 54 56  1  0
 56 57  1  0
 57 58  1  0
 58 59  1  0
 59 60  1  0
 60 61  1  0
 60 62  2  0
 57 63  1  0
 63 64  2  0
 63 65  1  0
 65 66  1  0
 66 67  1  0
 67 68  1  0
 68 69  2  0
 69 70  1  0
 70 71  2  0
 71 72  1  0
 71 73  1  0
 73 74  2  0
 66 75  1  0
 75 76  2  0
 75 77  1  0
 77 78  1  0
 78 79  1  0
 79 80  1  0
 80 81  1  0
 81 82  1  0
 78 83  1  0
 83 84  2  0
 83 85  1  0
 85 86  1  0
 86 87  1  0
 87 88  1  0
 88 89  1  0
 89 90  1  0
 90 91  1  0
 91 92  2  3
 91 93  1  0
 86 94  1  0
 94 95  2  0
 94 96  1  0
 96 97  1  0
 97 98  1  0
 98 99  1  0
 99100  1  0
100101  1  0
101102  1  0
102103  2  3
102104  1  0
 97105  1  0
105106  2  0
105107  1  0
107108  1  0
108109  1  0
109110  1  0
110111  1  0
111112  1  0
112113  1  0
108114  1  0
114115  2  0
114116  1  0
116117  1  0
117118  1  0
118119  1  0
119120  1  0
119121  2  0
117122  1  0
122123  2  0
122124  1  0
125124  1  6
125126  1  0
126127  1  0
127128  1  0
128129  1  0
129130  1  0
130131  1  0
131132  1  0
125133  1  0
125134  1  0
134135  2  0
134136  1  0
136137  1  0
137138  1  0
138139  1  0
138140  1  0
137141  1  0
141142  2  0
141143  1  0
143144  1  0
144145  1  0
145146  1  0
146147  2  0
147148  1  0
148149  1  0
149150  2  0
144151  1  0
151152  2  0
151153  1  0
153154  1  0
154155  1  0
155156  1  0
156157  1  0
157158  1  0
157159  2  0
154160  1  0
160161  2  0
160162  1  0
162163  1  0
163164  1  0
164165  1  0
165166  1  0
166167  1  0
166168  2  0
163169  1  0
169170  2  0
169171  1  0
171172  1  0
172173  1  0
173174  1  0
174175  2  0
174176  1  0
172177  1  0
177178  2  0
177179  1  0
179180  1  0
180181  1  0
181182  1  0
181183  1  0
183184  1  0
180185  1  0
185186  2  0
185187  1  0
187188  1  0
188189  1  0
189190  1  0
190191  1  0
191192  1  0
188193  1  0
188194  1  1
194195  2  0
194196  1  0
196197  1  0
197198  1  0
198199  1  0
199200  2  0
199201  1  0
197202  1  0
202203  2  0
202204  1  0
204205  1  0
205206  1  0
206207  1  0
207208  1  0
207209  1  0
205210  1  0
210211  2  0
210212  1  0
 45 39  1  0
 74 68  1  0
150146  1  0
132192  2  0
  1213  1  0
  1214  1  0
  2215  1  0
  2216  1  0
  3217  1  0
  3218  1  0
  6219  1  0
  7220  1  6
  8221  1  0
  8222  1  0
  9223  1  0
  9224  1  0
 10225  1  0
 10226  1  0
 11227  1  0
 11228  1  0
 12229  1  0
 12230  1  0
 12231  1  0
 15232  1  0
 16233  1  6
 17234  1  0
 17235  1  0
 17236  1  0
 20237  1  0
 21238  1  1
 22239  1  6
 23240  1  0
 24241  1  0
 24242  1  0
 24243  1  0
 27244  1  0
 28245  1  1
 29246  1  0
 29247  1  0
 30248  1  0
 30249  1  0
 36250  1  0
 37251  1  6
 38252  1  0
 38253  1  0
 40254  1  0
 41255  1  0
 43256  1  0
 44257  1  0
 45258  1  0
 48259  1  0
 49260  1  1
 50261  1  6
 51262  1  0
 51263  1  0
 51264  1  0
 52265  1  0
 52266  1  0
 53267  1  0
 53268  1  0
 53269  1  0
 56270  1  0
 57271  1  6
 58272  1  0
 58273  1  0
 59274  1  0
 59275  1  0
 61276  1  0
 61277  1  0
 65278  1  0
 66279  1  6
 67280  1  0
 67281  1  0
 69282  1  0
 70283  1  0
 72284  1  0
 73285  1  0
 74286  1  0
 77287  1  0
 78288  1  6
 79289  1  0
 79290  1  0
 80291  1  0
 80292  1  0
 81293  1  0
 81294  1  0
 82295  1  0
 82296  1  0
 82297  1  0
 85298  1  0
 86299  1  1
 87300  1  0
 87301  1  0
 88302  1  0
 88303  1  0
 89304  1  0
 89305  1  0
 90306  1  0
 92307  1  0
 92308  1  0
 93309  1  0
 93310  1  0
 96311  1  0
 97312  1  1
 98313  1  0
 98314  1  0
 99315  1  0
 99316  1  0
100317  1  0
100318  1  0
101319  1  0
103320  1  0
103321  1  0
104322  1  0
104323  1  0
107324  1  0
108325  1  1
109326  1  0
109327  1  0
110328  1  0
110329  1  0
111330  1  0
111331  1  0
112332  1  0
112333  1  0
113334  1  0
113335  1  0
113336  1  0
116337  1  0
117338  1  1
118339  1  0
118340  1  0
120341  1  0
120342  1  0
124343  1  0
126344  1  0
126345  1  0
127346  1  0
127347  1  0
128348  1  0
128349  1  0
129350  1  0
129351  1  0
130352  1  0
130353  1  0
131354  1  0
131355  1  0
132356  1  0
133357  1  0
133358  1  0
133359  1  0
136360  1  0
137361  1  6
138362  1  1
139363  1  0
140364  1  0
140365  1  0
140366  1  0
143367  1  0
144368  1  6
145369  1  0
145370  1  0
147371  1  0
148372  1  0
149373  1  0
153374  1  0
154375  1  6
155376  1  0
155377  1  0
156378  1  0
156379  1  0
158380  1  0
158381  1  0
162382  1  0
163383  1  6
164384  1  0
164385  1  0
165386  1  0
165387  1  0
167388  1  0
167389  1  0
171390  1  0
172391  1  6
173392  1  0
173393  1  0
179394  1  0
180395  1  6
181396  1  1
182397  1  0
182398  1  0
182399  1  0
183400  1  0
183401  1  0
184402  1  0
184403  1  0
184404  1  0
187405  1  0
189406  1  0
189407  1  0
190408  1  0
190409  1  0
191410  1  0
191411  1  0
192412  1  0
193413  1  0
193414  1  0
193415  1  0
196416  1  0
197417  1  1
198418  1  0
198419  1  0
204420  1  0
205421  1  6
206422  1  0
206423  1  0
207424  1  0
208425  1  0
208426  1  0
208427  1  0
209428  1  0
209429  1  0
209430  1  0
M  CHG  8  12   1  33  -1  92   1 103   1 113   1 176  -1 201  -1 212  -1
M  END
