
     RDKit          2D

254256  0  0  0  0  0  0  0  0999 V2000
   14.5125  -12.8481    0.0000 N   0  0  0  0  0  0  0  0  0  0  0  0
   14.6687  -11.3563    0.0000 C   0  0  0  0  0  0  0  0  0  0  0  0
   13.4548  -10.4751    0.0000 C   0  0  0  0  0  0  0  0  0  0  0  0
   13.6110   -8.9832    0.0000 C   0  0  0  0  0  0  0  0  0  0  0  0
   14.9811   -8.3726    0.0000 O   0  0  0  0  0  0  0  0  0  0  0  0
   12.3972   -8.1020    0.0000 N   0  0  0  0  0  0  0  0  0  0  0  0
   12.5534   -6.6102    0.0000 C   0  0  0  0  0  0  0  0  0  0  0  0
   11.0571   -6.7154    0.0000 C   0  0  0  0  0  0  0  0  0  0  0  0
   10.4000   -8.0639    0.0000 C   0  0  0  0  0  0  0  0  0  0  0  0
    8.9037   -8.1691    0.0000 C   0  0  0  0  0  0  0  0  0  0  0  0
    8.2467   -9.5175    0.0000 C   0  0  0  0  0  0  0  0  0  0  0  0
    6.7504   -9.6228    0.0000 N   0  0  0  0  0  0  0  0  0  0  0  0
   13.2104   -5.2617    0.0000 C   0  0  0  0  0  0  0  0  0  0  0  0
   12.4926   -4.4368    0.0000 O   0  0  0  0  0  0  0  0  0  0  0  0
   14.7067   -5.1565    0.0000 N   0  0  0  0  0  0  0  0  0  0  0  0
   15.6713   -6.3052    0.0000 C   0  0  0  0  0  0  0  0  0  0  0  0
   17.0619   -5.7428    0.0000 C   0  0  0  0  0  0  0  0  0  0  0  0
   16.9567   -4.2465    0.0000 C   0  0  0  0  0  0  0  0  0  0  0  0
   15.5011   -3.8841    0.0000 C   0  0  0  0  0  0  0  0  0  0  0  0
   14.1526   -3.2271    0.0000 C   0  0  0  0  0  0  0  0  0  0  0  0
   13.5512   -3.7503    0.0000 O   0  0  0  0  0  0  0  0  0  0  0  0
   14.0474   -1.7308    0.0000 N   0  0  0  0  0  0  0  0  0  0  0  0
   12.6990   -1.0738    0.0000 C   0  0  0  0  0  0  0  0  0  0  0  0
   12.2861   -2.5158    0.0000 C   0  0  0  0  0  0  0  0  0  0  0  0
   13.3285   -3.5944    0.0000 C   0  0  0  0  0  0  0  0  0  0  0  0
   12.9156   -5.0365    0.0000 C   0  0  0  0  0  0  0  0  0  0  0  0
   14.0817   -5.9800    0.0000 O   0  0  0  0  0  0  0  0  0  0  0  0
   11.4268   -5.2198    0.0000 O   0  0  0  0  0  0  0  0  0  0  0  0
   11.6565    0.0048    0.0000 C   0  0  0  0  0  0  0  0  0  0  0  0
   10.4282   -0.8561    0.0000 O   0  0  0  0  0  0  0  0  0  0  0  0
   12.0694    1.4469    0.0000 N   0  0  0  0  0  0  0  0  0  0  0  0
   11.0270    2.5255    0.0000 C   0  0  0  0  0  0  0  0  0  0  0  0
   10.4726    1.1317    0.0000 C   0  0  0  0  0  0  0  0  0  0  0  0
    9.5320   -0.0367    0.0000 C   0  0  0  0  0  0  0  0  0  0  0  0
    8.2888   -0.8760    0.0000 C   0  0  0  0  0  0  0  0  0  0  0  0
    6.8534   -1.3116    0.0000 C   0  0  0  0  0  0  0  0  0  0  0  0
   12.4389    3.0320    0.0000 C   0  0  0  0  0  0  0  0  0  0  0  0
   11.1460    4.0208    0.0000 C   0  0  0  0  0  0  0  0  0  0  0  0
   12.6423    4.1260    0.0000 O   0  0  0  0  0  0  0  0  0  0  0  0
   10.8189    5.4847    0.0000 N   0  0  0  0  0  0  0  0  0  0  0  0
   10.0749    6.7871    0.0000 C   0  0  0  0  0  0  0  0  0  0  0  0
   10.5592    8.2068    0.0000 C   0  0  0  0  0  0  0  0  0  0  0  0
   12.0552    8.3157    0.0000 C   0  0  0  0  0  0  0  0  0  0  0  0
   10.5287    9.7065    0.0000 C   0  0  0  0  0  0  0  0  0  0  0  0
   11.8122   10.4828    0.0000 C   0  0  0  0  0  0  0  0  0  0  0  0
    8.9800    7.8124    0.0000 C   0  0  0  0  0  0  0  0  0  0  0  0
    9.6738    9.1424    0.0000 O   0  0  0  0  0  0  0  0  0  0  0  0
    7.6316    8.4695    0.0000 N   0  0  0  0  0  0  0  0  0  0  0  0
    6.1494    8.6998    0.0000 C   0  0  0  0  0  0  0  0  0  0  0  0
    5.3414    9.9636    0.0000 C   0  0  0  0  0  0  0  0  0  0  0  0
    6.0318   11.2953    0.0000 C   0  0  0  0  0  0  0  0  0  0  0  0
    5.2238   12.5590    0.0000 C   0  0  0  0  0  0  0  0  0  0  0  0
    7.1361   12.3105    0.0000 C   0  0  0  0  0  0  0  0  0  0  0  0
    4.6651    8.4831    0.0000 C   0  0  0  0  0  0  0  0  0  0  0  0
    4.2296    9.9185    0.0000 O   0  0  0  0  0  0  0  0  0  0  0  0
    3.3107    7.8385    0.0000 N   0  0  0  0  0  0  0  0  0  0  0  0
    2.2064    6.8233    0.0000 C   0  0  0  0  0  0  0  0  0  0  0  0
    0.7146    6.9795    0.0000 C   0  0  0  0  0  0  0  0  0  0  0  0
    0.1040    8.3496    0.0000 C   0  0  0  0  0  0  0  0  0  0  0  0
   -1.3879    8.5058    0.0000 O   0  0  0  0  0  0  0  0  0  0  0  0
    0.9852    9.5634    0.0000 O   0  0  0  0  0  0  0  0  0  0  0  0
    1.4505    5.5277    0.0000 C   0  0  0  0  0  0  0  0  0  0  0  0
    0.0567    6.0821    0.0000 O   0  0  0  0  0  0  0  0  0  0  0  0
    1.1100    4.0669    0.0000 N   0  0  0  0  0  0  0  0  0  0  0  0
    1.2152    2.5706    0.0000 C   0  0  0  0  0  0  0  0  0  0  0  0
    1.7568    1.1718    0.0000 C   0  0  0  0  0  0  0  0  0  0  0  0
    2.6866   -0.0053    0.0000 C   0  0  0  0  0  0  0  0  0  0  0  0
    3.9221   -0.8559    0.0000 C   0  0  0  0  0  0  0  0  0  0  0  0
    5.3534   -1.3047    0.0000 C   0  0  0  0  0  0  0  0  0  0  0  0
   -0.1920    3.0901    0.0000 C   0  0  0  0  0  0  0  0  0  0  0  0
    0.1629    1.5016    0.0000 C   0  0  0  0  0  0  0  0  0  0  0  0
    0.2008    0.0021    0.0000 O   0  0  0  0  0  0  0  0  0  0  0  0
   -1.2890    1.8784    0.0000 N   0  0  0  0  0  0  0  0  0  0  0  0
   -2.3413    0.8094    0.0000 C   0  0  0  0  0  0  0  0  0  0  0  0
   -2.9645   -0.5550    0.0000 C   0  0  0  0  0  0  0  0  0  0  0  0
   -4.4577   -0.6975    0.0000 C   0  0  0  0  0  0  0  0  0  0  0  0
   -5.2201   -1.9893    0.0000 C   0  0  0  0  0  0  0  0  0  0  0  0
   -6.6843   -1.6634    0.0000 N   0  0  0  0  0  0  0  0  0  0  0  0
   -6.8267   -0.1701    0.0000 C   0  0  0  0  0  0  0  0  0  0  0  0
   -5.4506    0.4268    0.0000 N   0  0  0  0  0  0  0  0  0  0  0  0
   -3.7932    1.1862    0.0000 C   0  0  0  0  0  0  0  0  0  0  0  0
   -4.1928    2.6320    0.0000 O   0  0  0  0  0  0  0  0  0  0  0  0
   -4.8454    0.1173    0.0000 N   0  0  0  0  0  0  0  0  0  0  0  0
   -6.2973    0.4941    0.0000 C   0  0  0  0  0  0  0  0  0  0  0  0
   -7.5328    1.3447    0.0000 C   0  0  0  0  0  0  0  0  0  0  0  0
   -7.4138    2.8400    0.0000 C   0  0  0  0  0  0  0  0  0  0  0  0
   -7.3496   -0.5749    0.0000 C   0  0  0  0  0  0  0  0  0  0  0  0
   -7.3117   -2.0744    0.0000 O   0  0  0  0  0  0  0  0  0  0  0  0
   -8.8015   -0.1981    0.0000 N   0  0  0  0  0  0  0  0  0  0  0  0
   -9.8538   -1.2671    0.0000 C   0  0  0  0  0  0  0  0  0  0  0  0
  -10.4770   -2.6315    0.0000 C   0  0  0  0  0  0  0  0  0  0  0  0
  -11.9702   -2.7740    0.0000 C   0  0  0  0  0  0  0  0  0  0  0  0
  -12.5934   -4.1384    0.0000 C   0  0  0  0  0  0  0  0  0  0  0  0
  -14.0581   -4.4618    0.0000 N   0  0  0  0  0  0  0  0  0  0  0  0
  -11.7234   -5.3603    0.0000 O   0  0  0  0  0  0  0  0  0  0  0  0
  -11.3057   -0.8903    0.0000 C   0  0  0  0  0  0  0  0  0  0  0  0
  -11.7053    0.5555    0.0000 O   0  0  0  0  0  0  0  0  0  0  0  0
  -12.3580   -1.9592    0.0000 N   0  0  0  0  0  0  0  0  0  0  0  0
  -13.8099   -1.5824    0.0000 C   0  0  0  0  0  0  0  0  0  0  0  0
  -15.0453   -0.7318    0.0000 C   0  0  0  0  0  0  0  0  0  0  0  0
  -14.9264    0.7635    0.0000 C   0  0  0  0  0  0  0  0  0  0  0  0
  -16.1618    1.6142    0.0000 C   0  0  0  0  0  0  0  0  0  0  0  0
  -16.0429    3.1095    0.0000 N   0  0  0  0  0  0  0  0  0  0  0  0
  -17.2783    3.9601    0.0000 C   0  0  0  0  0  0  0  0  0  0  0  0
  -17.1593    5.4554    0.0000 N   0  0  0  0  0  0  0  0  0  0  0  0
  -18.6327    3.3155    0.0000 N   0  0  0  0  0  0  0  0  0  0  0  0
  -14.8621   -2.6514    0.0000 C   0  0  0  0  0  0  0  0  0  0  0  0
  -14.6417   -4.1351    0.0000 O   0  0  0  0  0  0  0  0  0  0  0  0
  -16.3140   -2.2746    0.0000 N   0  0  0  0  0  0  0  0  0  0  0  0
  -17.3663   -3.3436    0.0000 C   0  0  0  0  0  0  0  0  0  0  0  0
  -17.9895   -4.7080    0.0000 C   0  0  0  0  0  0  0  0  0  0  0  0
  -19.4542   -5.0314    0.0000 C   0  0  0  0  0  0  0  0  0  0  0  0
  -18.8182   -2.9668    0.0000 C   0  0  0  0  0  0  0  0  0  0  0  0
  -19.2178   -1.5210    0.0000 O   0  0  0  0  0  0  0  0  0  0  0  0
  -19.8705   -4.0357    0.0000 N   0  0  0  0  0  0  0  0  0  0  0  0
  -21.3224   -3.6589    0.0000 C   0  0  0  0  0  0  0  0  0  0  0  0
  -22.5579   -2.8083    0.0000 C   0  0  0  0  0  0  0  0  0  0  0  0
  -22.4389   -1.3130    0.0000 C   0  0  0  0  0  0  0  0  0  0  0  0
  -23.6744   -0.4623    0.0000 S   0  0  0  0  0  0  0  0  0  0  0  0
  -23.5554    1.0330    0.0000 C   0  0  0  0  0  0  0  0  0  0  0  0
  -22.3747   -4.7279    0.0000 C   0  0  0  0  0  0  0  0  0  0  0  0
  -23.8617   -4.5309    0.0000 O   0  0  0  0  0  0  0  0  0  0  0  0
  -21.9751   -6.1737    0.0000 O   0  0  0  0  0  0  0  0  0  0  0  0
   15.7263  -13.7293    0.0000 H   0  0  0  0  0  0  0  0  0  0  0  0
   13.1424  -13.4588    0.0000 H   0  0  0  0  0  0  0  0  0  0  0  0
   16.1107  -11.7692    0.0000 H   0  0  0  0  0  0  0  0  0  0  0  0
   15.3257  -10.0078    0.0000 H   0  0  0  0  0  0  0  0  0  0  0  0
   12.7978  -11.8235    0.0000 H   0  0  0  0  0  0  0  0  0  0  0  0
   12.0128  -10.0622    0.0000 H   0  0  0  0  0  0  0  0  0  0  0  0
   11.1117   -8.8751    0.0000 H   0  0  0  0  0  0  0  0  0  0  0  0
   13.8527   -7.3598    0.0000 H   0  0  0  0  0  0  0  0  0  0  0  0
    9.6761   -6.1298    0.0000 H   0  0  0  0  0  0  0  0  0  0  0  0
   11.0302   -5.2157    0.0000 H   0  0  0  0  0  0  0  0  0  0  0  0
   10.4268   -9.5636    0.0000 H   0  0  0  0  0  0  0  0  0  0  0  0
   11.5983   -8.9662    0.0000 H   0  0  0  0  0  0  0  0  0  0  0  0
    7.5228   -7.5835    0.0000 H   0  0  0  0  0  0  0  0  0  0  0  0
    8.8769   -6.6693    0.0000 H   0  0  0  0  0  0  0  0  0  0  0  0
    8.0905  -11.0094    0.0000 H   0  0  0  0  0  0  0  0  0  0  0  0
    9.6277  -10.1031    0.0000 H   0  0  0  0  0  0  0  0  0  0  0  0
    6.0934  -10.9712    0.0000 H   0  0  0  0  0  0  0  0  0  0  0  0
    5.3083   -9.2099    0.0000 H   0  0  0  0  0  0  0  0  0  0  0  0
    6.7236   -8.1230    0.0000 H   0  0  0  0  0  0  0  0  0  0  0  0
   16.3761   -7.6294    0.0000 H   0  0  0  0  0  0  0  0  0  0  0  0
   14.5397   -7.2898    0.0000 H   0  0  0  0  0  0  0  0  0  0  0  0
   18.5390   -5.4817    0.0000 H   0  0  0  0  0  0  0  0  0  0  0  0
   17.4759   -7.1845    0.0000 H   0  0  0  0  0  0  0  0  0  0  0  0
   17.1648   -2.7610    0.0000 H   0  0  0  0  0  0  0  0  0  0  0  0
   18.4558   -4.2982    0.0000 H   0  0  0  0  0  0  0  0  0  0  0  0
   16.0136   -2.4744    0.0000 H   0  0  0  0  0  0  0  0  0  0  0  0
   15.2906   -0.8915    0.0000 H   0  0  0  0  0  0  0  0  0  0  0  0
   13.5802    0.1401    0.0000 H   0  0  0  0  0  0  0  0  0  0  0  0
   11.4049   -3.7297    0.0000 H   0  0  0  0  0  0  0  0  0  0  0  0
   10.9376   -1.8588    0.0000 H   0  0  0  0  0  0  0  0  0  0  0  0
   14.4779   -4.5582    0.0000 H   0  0  0  0  0  0  0  0  0  0  0  0
   14.4772   -2.6299    0.0000 H   0  0  0  0  0  0  0  0  0  0  0  0
   13.5582    1.6302    0.0000 H   0  0  0  0  0  0  0  0  0  0  0  0
   11.9430    0.8350    0.0000 H   0  0  0  0  0  0  0  0  0  0  0  0
   10.9826   -0.2789    0.0000 H   0  0  0  0  0  0  0  0  0  0  0  0
   10.6369   -1.0512    0.0000 H   0  0  0  0  0  0  0  0  0  0  0  0
    9.9640   -1.4732    0.0000 H   0  0  0  0  0  0  0  0  0  0  0  0
    9.4595   -1.8137    0.0000 H   0  0  0  0  0  0  0  0  0  0  0  0
    8.0954   -2.3635    0.0000 H   0  0  0  0  0  0  0  0  0  0  0  0
    7.0701   -2.7958    0.0000 H   0  0  0  0  0  0  0  0  0  0  0  0
   13.6932    2.2093    0.0000 H   0  0  0  0  0  0  0  0  0  0  0  0
   13.5924    3.9909    0.0000 H   0  0  0  0  0  0  0  0  0  0  0  0
   12.0322    4.4758    0.0000 H   0  0  0  0  0  0  0  0  0  0  0  0
   12.2178    6.0263    0.0000 H   0  0  0  0  0  0  0  0  0  0  0  0
   11.5744    6.7465    0.0000 H   0  0  0  0  0  0  0  0  0  0  0  0
    9.1768    8.7890    0.0000 H   0  0  0  0  0  0  0  0  0  0  0  0
   12.7068    9.8490    0.0000 H   0  0  0  0  0  0  0  0  0  0  0  0
   13.5130    8.2669    0.0000 H   0  0  0  0  0  0  0  0  0  0  0  0
   12.2439    7.0125    0.0000 H   0  0  0  0  0  0  0  0  0  0  0  0
    9.9871   11.1053    0.0000 H   0  0  0  0  0  0  0  0  0  0  0  0
    9.0326    9.5976    0.0000 H   0  0  0  0  0  0  0  0  0  0  0  0
   11.7817   11.9825    0.0000 H   0  0  0  0  0  0  0  0  0  0  0  0
   13.2838   10.7732    0.0000 H   0  0  0  0  0  0  0  0  0  0  0  0
   12.6762    9.2566    0.0000 H   0  0  0  0  0  0  0  0  0  0  0  0
    8.0803    9.9008    0.0000 H   0  0  0  0  0  0  0  0  0  0  0  0
    7.1160    9.8469    0.0000 H   0  0  0  0  0  0  0  0  0  0  0  0
    4.0477   10.7228    0.0000 H   0  0  0  0  0  0  0  0  0  0  0  0
    4.0243    9.2458    0.0000 H   0  0  0  0  0  0  0  0  0  0  0  0
    7.3255   10.5361    0.0000 H   0  0  0  0  0  0  0  0  0  0  0  0
    5.7468   13.9649    0.0000 H   0  0  0  0  0  0  0  0  0  0  0  0
    4.0323   13.4702    0.0000 H   0  0  0  0  0  0  0  0  0  0  0  0
    4.0040   11.6860    0.0000 H   0  0  0  0  0  0  0  0  0  0  0  0
    6.9899   13.8033    0.0000 H   0  0  0  0  0  0  0  0  0  0  0  0
    8.5209   12.8867    0.0000 H   0  0  0  0  0  0  0  0  0  0  0  0
    7.9441   11.0467    0.0000 H   0  0  0  0  0  0  0  0  0  0  0  0
    2.4714    9.0817    0.0000 H   0  0  0  0  0  0  0  0  0  0  0  0
    1.7353    8.2474    0.0000 H   0  0  0  0  0  0  0  0  0  0  0  0
   -0.7407    6.6160    0.0000 H   0  0  0  0  0  0  0  0  0  0  0  0
    0.4546    5.5022    0.0000 H   0  0  0  0  0  0  0  0  0  0  0  0
   -0.3853    4.1858    0.0000 H   0  0  0  0  0  0  0  0  0  0  0  0
    1.0664   -0.1599    0.0000 H   0  0  0  0  0  0  0  0  0  0  0  0
    0.2838    0.8886    0.0000 H   0  0  0  0  0  0  0  0  0  0  0  0
    2.2414   -1.4377    0.0000 H   0  0  0  0  0  0  0  0  0  0  0  0
    1.3625   -0.7101    0.0000 H   0  0  0  0  0  0  0  0  0  0  0  0
    4.1018   -2.3451    0.0000 H   0  0  0  0  0  0  0  0  0  0  0  0
    2.7428   -1.7829    0.0000 H   0  0  0  0  0  0  0  0  0  0  0  0
    5.1230   -2.7869    0.0000 H   0  0  0  0  0  0  0  0  0  0  0  0
   -1.5432    2.4388    0.0000 H   0  0  0  0  0  0  0  0  0  0  0  0
   -1.2099    4.1918    0.0000 H   0  0  0  0  0  0  0  0  0  0  0  0
    0.2280    4.5301    0.0000 H   0  0  0  0  0  0  0  0  0  0  0  0
   -1.8619    3.2647    0.0000 H   0  0  0  0  0  0  0  0  0  0  0  0
   -1.1058   -0.0412    0.0000 H   0  0  0  0  0  0  0  0  0  0  0  0
   -3.0834   -2.0503    0.0000 H   0  0  0  0  0  0  0  0  0  0  0  0
   -1.5126   -0.9318    0.0000 H   0  0  0  0  0  0  0  0  0  0  0  0
   -4.6231   -3.3654    0.0000 H   0  0  0  0  0  0  0  0  0  0  0  0
   -7.8085   -2.6563    0.0000 H   0  0  0  0  0  0  0  0  0  0  0  0
   -8.2018    0.4291    0.0000 H   0  0  0  0  0  0  0  0  0  0  0  0
   -4.8075   -1.3823    0.0000 H   0  0  0  0  0  0  0  0  0  0  0  0
   -5.5125    1.7723    0.0000 H   0  0  0  0  0  0  0  0  0  0  0  0
   -8.9279    1.8957    0.0000 H   0  0  0  0  0  0  0  0  0  0  0  0
   -8.6037    0.2944    0.0000 H   0  0  0  0  0  0  0  0  0  0  0  0
   -8.6493    3.6907    0.0000 H   0  0  0  0  0  0  0  0  0  0  0  0
   -6.7906    4.2044    0.0000 H   0  0  0  0  0  0  0  0  0  0  0  0
   -5.9268    2.6430    0.0000 H   0  0  0  0  0  0  0  0  0  0  0  0
   -9.3744    1.1882    0.0000 H   0  0  0  0  0  0  0  0  0  0  0  0
   -8.6183   -2.1177    0.0000 H   0  0  0  0  0  0  0  0  0  0  0  0
  -10.5960   -4.1268    0.0000 H   0  0  0  0  0  0  0  0  0  0  0  0
   -9.0251   -3.0083    0.0000 H   0  0  0  0  0  0  0  0  0  0  0  0
  -13.4221   -2.3972    0.0000 H   0  0  0  0  0  0  0  0  0  0  0  0
  -12.5673   -1.3979    0.0000 H   0  0  0  0  0  0  0  0  0  0  0  0
  -14.7098   -5.6453    0.0000 H   0  0  0  0  0  0  0  0  0  0  0  0
  -15.2694   -3.3181    0.0000 H   0  0  0  0  0  0  0  0  0  0  0  0
  -12.3201   -3.4588    0.0000 H   0  0  0  0  0  0  0  0  0  0  0  0
  -13.0250   -0.3042    0.0000 H   0  0  0  0  0  0  0  0  0  0  0  0
  -16.4972   -0.3549    0.0000 H   0  0  0  0  0  0  0  0  0  0  0  0
  -15.9802   -1.9048    0.0000 H   0  0  0  0  0  0  0  0  0  0  0  0
  -14.3032    2.1279    0.0000 H   0  0  0  0  0  0  0  0  0  0  0  0
  -13.4394    0.5665    0.0000 H   0  0  0  0  0  0  0  0  0  0  0  0
  -17.6137    1.9910    0.0000 H   0  0  0  0  0  0  0  0  0  0  0  0
  -16.9467    0.3359    0.0000 H   0  0  0  0  0  0  0  0  0  0  0  0
  -14.6884    3.7541    0.0000 H   0  0  0  0  0  0  0  0  0  0  0  0
  -18.3948    6.3061    0.0000 H   0  0  0  0  0  0  0  0  0  0  0  0
  -15.8049    6.1000    0.0000 H   0  0  0  0  0  0  0  0  0  0  0  0
  -19.8682    4.1662    0.0000 H   0  0  0  0  0  0  0  0  0  0  0  0
  -18.7517    1.8202    0.0000 H   0  0  0  0  0  0  0  0  0  0  0  0
  -16.8869   -0.8883    0.0000 H   0  0  0  0  0  0  0  0  0  0  0  0
  -16.1309   -4.1942    0.0000 H   0  0  0  0  0  0  0  0  0  0  0  0
  -18.1085   -6.2032    0.0000 H   0  0  0  0  0  0  0  0  0  0  0  0
  -16.5376   -5.0848    0.0000 H   0  0  0  0  0  0  0  0  0  0  0  0
  -20.1060   -6.2149    0.0000 H   0  0  0  0  0  0  0  0  0  0  0  0
  -20.9346   -4.4737    0.0000 H   0  0  0  0  0  0  0  0  0  0  0  0
  -20.0798   -3.4744    0.0000 H   0  0  0  0  0  0  0  0  0  0  0  0
  -19.6501   -5.5194    0.0000 H   0  0  0  0  0  0  0  0  0  0  0  0
  -20.5375   -2.3806    0.0000 H   0  0  0  0  0  0  0  0  0  0  0  0
  -24.0098   -2.4314    0.0000 H   0  0  0  0  0  0  0  0  0  0  0  0
  -23.3427   -4.0865    0.0000 H   0  0  0  0  0  0  0  0  0  0  0  0
  -21.6540   -0.0347    0.0000 H   0  0  0  0  0  0  0  0  0  0  0  0
  -20.9519   -1.5100    0.0000 H   0  0  0  0  0  0  0  0  0  0  0  0
  -24.7909    1.8836    0.0000 H   0  0  0  0  0  0  0  0  0  0  0  0
  -22.9322    2.3974    0.0000 H   0  0  0  0  0  0  0  0  0  0  0  0
  -22.0684    0.8359    0.0000 H   0  0  0  0  0  0  0  0  0  0  0  0
  1  2  1  0
  2  3  1  0
  3  4  1  0
  4  5  2  0
  4  6  1  0
  6  7  1  0
  7  8  1  0
  8  9  1  0
  9 10  1  0
 10 11  1  0
 11 12  1  0
  7 13  1  0
 13 14  2  0
 13 15  1  0
 15 16  1  0
 16 17  1  0
 17 18  1  0
 18 19  1  0
 19 20  1  0
 20 21  2  0
 20 22  1  0
 22 23  1  0
 23 24  1  0
 24 25  1  0
 25 26  1  0
 26 27  2  0
 26 28  1  0
 23 29  1  0
 29 30  2  0
 29 31  1  0
 32 31  1  1
 32 33  1  0
 33 34  1  0
 34 35  1  0
 35 36  1  0
 32 37  1  0
 32 38  1  0
 38 39  2  0
 38 40  1  0
 40 41  1  0
 41 42  1  0
 42 43  1  0
 42 44  1  0
 44 45  1  0
 41 46  1  0
 46 47  2  0
 46 48  1  0
 48 49  1  0
 49 50  1  0
 50 51  1  0
 51 52  1  0
 51 53  1  0
 49 54  1  0
 54 55  2  0
 54 56  1  0
 56 57  1  0
 57 58  1  0
 58 59  1  0
 59 60  2  0
 59 61  1  0
 57 62  1  0
 62 63  2  0
 62 64  1  0
 64 65  1  0
 65 66  1  0
 66 67  1  0
 67 68  1  0
 68 69  1  0
 65 70  1  0
 65 71  1  1
 71 72  2  0
 71 73  1  0
 73 74  1  0
 74 75  1  0
 75 76  1  0
 76 77  2  0
 77 78  1  0
 78 79  1  0
 79 80  2  0
 74 81  1  0
 81 82  2  0
 81 83  1  0
 83 84  1  0
 84 85  1  0
 85 86  1  0
 84 87  1  0
 87 88  2  0
 87 89  1  0
 89 90  1  0
 90 91  1  0
 91 92  1  0
 92 93  1  0
 93 94  1  0
 93 95  2  0
 90 96  1  0
 96 97  2  0
 96 98  1  0
 98 99  1  0
 99100  1  0
100101  1  0
101102  1  0
102103  1  0
103104  1  0
104105  2  3
104106  1  0
 99107  1  0
107108  2  0
107109  1  0
109110  1  0
110111  1  0
111112  1  0
110113  1  0
113114  2  0
113115  1  0
115116  1  0
116117  1  0
117118  1  0
118119  1  0
119120  1  0
116121  1  0
121122  2  0
121123  1  0
 19 15  1  0
 80 76  1  0
 36 69  2  0
  1124  1  0
  1125  1  0
  2126  1  0
  2127  1  0
  3128  1  0
  3129  1  0
  6130  1  0
  7131  1  1
  8132  1  0
  8133  1  0
  9134  1  0
  9135  1  0
 10136  1  0
 10137  1  0
 11138  1  0
 11139  1  0
 12140  1  0
 12141  1  0
 12142  1  0
 16143  1  0
 16144  1  0
 17145  1  0
 17146  1  0
 18147  1  0
 18148  1  0
 19149  1  0
 22150  1  0
 23151  1  1
 24152  1  0
 24153  1  0
 25154  1  0
 25155  1  0
 31156  1  0
 33157  1  0
 33158  1  0
 34159  1  0
 34160  1  0
 35161  1  0
 35162  1  0
 36163  1  0
 37164  1  0
 37165  1  0
 37166  1  0
 40167  1  0
 41168  1  6
 42169  1  1
 43170  1  0
 43171  1  0
 43172  1  0
 44173  1  0
 44174  1  0
 45175  1  0
 45176  1  0
 45177  1  0
 48178  1  0
 49179  1  6
 50180  1  0
 50181  1  0
 51182  1  0
 52183  1  0
 52184  1  0
 52185  1  0
 53186  1  0
 53187  1  0
 53188  1  0
 56189  1  0
 57190  1  6
 58191  1  0
 58192  1  0
 64193  1  0
 66194  1  0
 66195  1  0
 67196  1  0
 67197  1  0
 68198  1  0
 68199  1  0
 69200  1  0
 70201  1  0
 70202  1  0
 70203  1  0
 73204  1  0
 74205  1  1
 75206  1  0
 75207  1  0
 77208  1  0
 78209  1  0
 79210  1  0
 83211  1  0
 84212  1  6
 85213  1  0
 85214  1  0
 86215  1  0
 86216  1  0
 86217  1  0
 89218  1  0
 90219  1  1
 91220  1  0
 91221  1  0
 92222  1  0
 92223  1  0
 94224  1  0
 94225  1  0
 98226  1  0
 99227  1  6
100228  1  0
100229  1  0
101230  1  0
101231  1  0
102232  1  0
102233  1  0
103234  1  0
105235  1  0
105236  1  0
106237  1  0
106238  1  0
109239  1  0
110240  1  1
111241  1  0
111242  1  0
112243  1  0
112244  1  0
112245  1  0
115246  1  0
116247  1  6
117248  1  0
117249  1  0
118250  1  0
118251  1  0
120252  1  0
120253  1  0
120254  1  0
M  CHG  5  12   1  28  -1  61  -1 105   1 123  -1
M  END
