
     RDKit          2D

376382  0  0  0  0  0  0  0  0999 V2000
  -22.3417    5.0044    0.0000 C   0  0  0  0  0  0  0  0  0  0  0  0
  -23.5121    5.9425    0.0000 N   0  0  0  0  0  0  0  0  0  0  0  0
  -23.2849    7.4252    0.0000 C   0  0  0  0  0  0  0  0  0  0  0  0
  -21.8872    7.9697    0.0000 C   0  0  0  0  0  0  0  0  0  0  0  0
  -21.6599    9.4524    0.0000 C   0  0  0  0  0  0  0  0  0  0  0  0
  -22.8303   10.3906    0.0000 C   0  0  0  0  0  0  0  0  0  0  0  0
  -24.2280    9.8461    0.0000 C   0  0  0  0  0  0  0  0  0  0  0  0
  -24.4553    8.3634    0.0000 C   0  0  0  0  0  0  0  0  0  0  0  0
  -25.1778   11.0071    0.0000 C   0  0  0  0  0  0  0  0  0  0  0  0
  -24.3671   12.2691    0.0000 O   0  0  0  0  0  0  0  0  0  0  0  0
  -22.9163   11.8881    0.0000 C   0  0  0  0  0  0  0  0  0  0  0  0
  -21.7552   12.8379    0.0000 O   0  0  0  0  0  0  0  0  0  0  0  0
  -26.0010   12.2610    0.0000 C   0  0  0  0  0  0  0  0  0  0  0  0
  -27.4985   12.1751    0.0000 C   0  0  0  0  0  0  0  0  0  0  0  0
  -28.3217   13.4290    0.0000 C   0  0  0  0  0  0  0  0  0  0  0  0
  -27.6474   14.7689    0.0000 C   0  0  0  0  0  0  0  0  0  0  0  0
  -26.1498   14.8548    0.0000 C   0  0  0  0  0  0  0  0  0  0  0  0
  -25.3266   13.6009    0.0000 C   0  0  0  0  0  0  0  0  0  0  0  0
  -28.4706   16.0228    0.0000 O   0  0  0  0  0  0  0  0  0  0  0  0
  -28.1728   10.8352    0.0000 O   0  0  0  0  0  0  0  0  0  0  0  0
  -27.3496    9.5812    0.0000 C   0  0  0  0  0  0  0  0  0  0  0  0
  -25.8521    9.6672    0.0000 C   0  0  0  0  0  0  0  0  0  0  0  0
  -25.7277    8.3732    0.0000 C   0  0  0  0  0  0  0  0  0  0  0  0
  -26.0874    7.6586    0.0000 C   0  0  0  0  0  0  0  0  0  0  0  0
  -26.8861    7.6127    0.0000 C   0  0  0  0  0  0  0  0  0  0  0  0
  -27.3251    8.2815    0.0000 C   0  0  0  0  0  0  0  0  0  0  0  0
  -27.8751    5.6476    0.0000 O   0  0  0  0  0  0  0  0  0  0  0  0
  -21.0209    5.7152    0.0000 S   0  0  0  0  0  0  0  0  0  0  0  0
  -22.5690    3.5217    0.0000 N   0  0  0  0  0  0  0  0  0  0  0  0
  -21.3986    2.5835    0.0000 C   0  0  0  0  0  0  0  0  0  0  0  0
  -21.6259    1.1008    0.0000 C   0  0  0  0  0  0  0  0  0  0  0  0
  -20.4555    0.1627    0.0000 C   0  0  0  0  0  0  0  0  0  0  0  0
  -19.8048    0.6232    0.0000 O   0  0  0  0  0  0  0  0  0  0  0  0
  -20.6828   -1.3200    0.0000 N   0  0  0  0  0  0  0  0  0  0  0  0
  -19.5124   -2.2582    0.0000 C   0  0  0  0  0  0  0  0  0  0  0  0
  -18.7917   -0.9427    0.0000 C   0  0  0  0  0  0  0  0  0  0  0  0
  -19.5707    0.3392    0.0000 C   0  0  0  0  0  0  0  0  0  0  0  0
  -18.8500    1.6548    0.0000 C   0  0  0  0  0  0  0  0  0  0  0  0
  -19.6289    2.9367    0.0000 N   0  0  0  0  0  0  0  0  0  0  0  0
  -18.9082    4.2522    0.0000 C   0  0  0  0  0  0  0  0  0  0  0  0
  -19.6872    5.5341    0.0000 N   0  0  0  0  0  0  0  0  0  0  0  0
  -17.4086    4.2858    0.0000 N   0  0  0  0  0  0  0  0  0  0  0  0
  -18.7335   -3.5401    0.0000 C   0  0  0  0  0  0  0  0  0  0  0  0
  -17.2338   -3.5064    0.0000 O   0  0  0  0  0  0  0  0  0  0  0  0
  -19.4541   -4.8556    0.0000 N   0  0  0  0  0  0  0  0  0  0  0  0
  -18.6752   -6.1375    0.0000 C   0  0  0  0  0  0  0  0  0  0  0  0
  -20.0729   -6.6820    0.0000 C   0  0  0  0  0  0  0  0  0  0  0  0
  -21.2433   -5.7438    0.0000 C   0  0  0  0  0  0  0  0  0  0  0  0
  -22.6410   -6.2884    0.0000 C   0  0  0  0  0  0  0  0  0  0  0  0
  -23.8113   -5.3502    0.0000 N   0  0  0  0  0  0  0  0  0  0  0  0
  -25.2090   -5.8947    0.0000 C   0  0  0  0  0  0  0  0  0  0  0  0
  -26.3794   -4.9565    0.0000 N   0  0  0  0  0  0  0  0  0  0  0  0
  -25.4363   -7.3774    0.0000 N   0  0  0  0  0  0  0  0  0  0  0  0
  -17.5048   -7.0757    0.0000 C   0  0  0  0  0  0  0  0  0  0  0  0
  -17.7321   -8.5584    0.0000 O   0  0  0  0  0  0  0  0  0  0  0  0
  -16.1071   -6.5312    0.0000 N   0  0  0  0  0  0  0  0  0  0  0  0
  -14.9367   -7.4693    0.0000 C   0  0  0  0  0  0  0  0  0  0  0  0
  -13.5390   -6.9248    0.0000 C   0  0  0  0  0  0  0  0  0  0  0  0
  -13.4942   -5.4255    0.0000 O   0  0  0  0  0  0  0  0  0  0  0  0
  -12.3686   -7.8630    0.0000 N   0  0  0  0  0  0  0  0  0  0  0  0
  -10.9710   -7.3185    0.0000 C   0  0  0  0  0  0  0  0  0  0  0  0
  -11.7499   -6.0366    0.0000 C   0  0  0  0  0  0  0  0  0  0  0  0
  -13.2424   -5.8872    0.0000 O   0  0  0  0  0  0  0  0  0  0  0  0
   -9.4713   -7.2849    0.0000 C   0  0  0  0  0  0  0  0  0  0  0  0
   -9.0904   -5.8340    0.0000 O   0  0  0  0  0  0  0  0  0  0  0  0
   -8.6924   -8.5668    0.0000 N   0  0  0  0  0  0  0  0  0  0  0  0
   -7.1928   -8.5331    0.0000 C   0  0  0  0  0  0  0  0  0  0  0  0
   -7.4863   -7.0621    0.0000 C   0  0  0  0  0  0  0  0  0  0  0  0
   -8.9070   -6.5808    0.0000 C   0  0  0  0  0  0  0  0  0  0  0  0
   -9.2005   -5.1098    0.0000 C   0  0  0  0  0  0  0  0  0  0  0  0
  -10.6212   -4.6285    0.0000 N   0  0  0  0  0  0  0  0  0  0  0  0
  -10.9147   -3.1575    0.0000 C   0  0  0  0  0  0  0  0  0  0  0  0
  -12.3354   -2.6762    0.0000 N   0  0  0  0  0  0  0  0  0  0  0  0
   -9.7876   -2.1678    0.0000 N   0  0  0  0  0  0  0  0  0  0  0  0
   -5.7721   -9.0144    0.0000 C   0  0  0  0  0  0  0  0  0  0  0  0
   -4.6449   -8.0247    0.0000 O   0  0  0  0  0  0  0  0  0  0  0  0
   -5.4785  -10.4854    0.0000 N   0  0  0  0  0  0  0  0  0  0  0  0
   -6.4961  -11.5875    0.0000 C   0  0  0  0  0  0  0  0  0  0  0  0
   -5.7623  -12.8958    0.0000 C   0  0  0  0  0  0  0  0  0  0  0  0
   -4.2913  -12.6023    0.0000 C   0  0  0  0  0  0  0  0  0  0  0  0
   -4.1159  -11.1126    0.0000 C   0  0  0  0  0  0  0  0  0  0  0  0
   -2.6527  -11.4427    0.0000 C   0  0  0  0  0  0  0  0  0  0  0  0
   -1.6352  -10.3406    0.0000 O   0  0  0  0  0  0  0  0  0  0  0  0
   -2.2070  -12.8750    0.0000 N   0  0  0  0  0  0  0  0  0  0  0  0
   -0.7438  -13.2051    0.0000 C   0  0  0  0  0  0  0  0  0  0  0  0
   -1.3231  -14.5888    0.0000 C   0  0  0  0  0  0  0  0  0  0  0  0
   -2.7767  -14.9589    0.0000 O   0  0  0  0  0  0  0  0  0  0  0  0
    0.7441  -13.0149    0.0000 C   0  0  0  0  0  0  0  0  0  0  0  0
    1.6527  -14.2084    0.0000 O   0  0  0  0  0  0  0  0  0  0  0  0
    1.3233  -11.6313    0.0000 N   0  0  0  0  0  0  0  0  0  0  0  0
    2.8112  -11.4411    0.0000 C   0  0  0  0  0  0  0  0  0  0  0  0
    3.3904  -10.0574    0.0000 C   0  0  0  0  0  0  0  0  0  0  0  0
    2.3430   -8.9836    0.0000 O   0  0  0  0  0  0  0  0  0  0  0  0
    4.8783   -9.8672    0.0000 N   0  0  0  0  0  0  0  0  0  0  0  0
    5.4575   -8.4835    0.0000 C   0  0  0  0  0  0  0  0  0  0  0  0
    3.9943   -8.1534    0.0000 C   0  0  0  0  0  0  0  0  0  0  0  0
    6.4750   -7.3814    0.0000 C   0  0  0  0  0  0  0  0  0  0  0  0
    5.6960   -6.0996    0.0000 O   0  0  0  0  0  0  0  0  0  0  0  0
    7.9383   -7.7116    0.0000 N   0  0  0  0  0  0  0  0  0  0  0  0
    8.9558   -6.6095    0.0000 C   0  0  0  0  0  0  0  0  0  0  0  0
    7.5165   -6.1872    0.0000 C   0  0  0  0  0  0  0  0  0  0  0  0
    6.1831   -5.5001    0.0000 C   0  0  0  0  0  0  0  0  0  0  0  0
    5.0038   -4.5732    0.0000 C   0  0  0  0  0  0  0  0  0  0  0  0
    4.0212   -3.4397    0.0000 C   0  0  0  0  0  0  0  0  0  0  0  0
    3.2710   -2.1409    0.0000 C   0  0  0  0  0  0  0  0  0  0  0  0
    2.7801   -0.7235    0.0000 C   0  0  0  0  0  0  0  0  0  0  0  0
    2.5663    0.7612    0.0000 C   0  0  0  0  0  0  0  0  0  0  0  0
    9.4914   -8.0106    0.0000 C   0  0  0  0  0  0  0  0  0  0  0  0
   10.4490   -6.7518    0.0000 C   0  0  0  0  0  0  0  0  0  0  0  0
   10.6322   -8.2405    0.0000 O   0  0  0  0  0  0  0  0  0  0  0  0
   11.9422   -6.6089    0.0000 N   0  0  0  0  0  0  0  0  0  0  0  0
   13.3814   -6.1859    0.0000 C   0  0  0  0  0  0  0  0  0  0  0  0
   14.5894   -7.0751    0.0000 C   0  0  0  0  0  0  0  0  0  0  0  0
   14.4235   -8.5658    0.0000 C   0  0  0  0  0  0  0  0  0  0  0  0
   15.6316   -9.4550    0.0000 C   0  0  0  0  0  0  0  0  0  0  0  0
   15.4657  -10.9457    0.0000 N   0  0  0  0  0  0  0  0  0  0  0  0
   16.6738  -11.8348    0.0000 C   0  0  0  0  0  0  0  0  0  0  0  0
   16.5078  -13.3256    0.0000 N   0  0  0  0  0  0  0  0  0  0  0  0
   18.0478  -11.2332    0.0000 N   0  0  0  0  0  0  0  0  0  0  0  0
   14.7145   -5.4983    0.0000 C   0  0  0  0  0  0  0  0  0  0  0  0
   15.6734   -6.6517    0.0000 O   0  0  0  0  0  0  0  0  0  0  0  0
   15.8933   -4.5708    0.0000 N   0  0  0  0  0  0  0  0  0  0  0  0
   16.8754   -3.4370    0.0000 C   0  0  0  0  0  0  0  0  0  0  0  0
   18.3724   -3.5318    0.0000 C   0  0  0  0  0  0  0  0  0  0  0  0
   19.0388   -4.8757    0.0000 C   0  0  0  0  0  0  0  0  0  0  0  0
   20.5358   -4.9705    0.0000 C   0  0  0  0  0  0  0  0  0  0  0  0
   21.2022   -6.3143    0.0000 N   0  0  0  0  0  0  0  0  0  0  0  0
   22.6992   -6.4091    0.0000 C   0  0  0  0  0  0  0  0  0  0  0  0
   23.3655   -7.7530    0.0000 N   0  0  0  0  0  0  0  0  0  0  0  0
   23.5298   -5.1601    0.0000 N   0  0  0  0  0  0  0  0  0  0  0  0
   17.6251   -2.1378    0.0000 C   0  0  0  0  0  0  0  0  0  0  0  0
   19.0554   -2.5897    0.0000 O   0  0  0  0  0  0  0  0  0  0  0  0
   18.1154   -0.7202    0.0000 N   0  0  0  0  0  0  0  0  0  0  0  0
   18.3286    0.7646    0.0000 C   0  0  0  0  0  0  0  0  0  0  0  0
   19.6392    1.4942    0.0000 C   0  0  0  0  0  0  0  0  0  0  0  0
   20.9263    0.7239    0.0000 C   0  0  0  0  0  0  0  0  0  0  0  0
   22.2369    1.4535    0.0000 C   0  0  0  0  0  0  0  0  0  0  0  0
   23.5241    0.6832    0.0000 N   0  0  0  0  0  0  0  0  0  0  0  0
   24.8347    1.4128    0.0000 C   0  0  0  0  0  0  0  0  0  0  0  0
   26.1218    0.6426    0.0000 N   0  0  0  0  0  0  0  0  0  0  0  0
   24.8582    2.9126    0.0000 N   0  0  0  0  0  0  0  0  0  0  0  0
   18.2569    2.2629    0.0000 C   0  0  0  0  0  0  0  0  0  0  0  0
   19.7044    2.6560    0.0000 O   0  0  0  0  0  0  0  0  0  0  0  0
   17.9029    3.7205    0.0000 N   0  0  0  0  0  0  0  0  0  0  0  0
   17.2795    5.0848    0.0000 C   0  0  0  0  0  0  0  0  0  0  0  0
   17.9876    6.4072    0.0000 C   0  0  0  0  0  0  0  0  0  0  0  0
   19.4869    6.4551    0.0000 C   0  0  0  0  0  0  0  0  0  0  0  0
   20.1950    7.7774    0.0000 C   0  0  0  0  0  0  0  0  0  0  0  0
   21.6942    7.8253    0.0000 N   0  0  0  0  0  0  0  0  0  0  0  0
   22.4024    9.1476    0.0000 C   0  0  0  0  0  0  0  0  0  0  0  0
   23.9016    9.1956    0.0000 N   0  0  0  0  0  0  0  0  0  0  0  0
   21.6112   10.4221    0.0000 N   0  0  0  0  0  0  0  0  0  0  0  0
   16.4092    6.3065    0.0000 C   0  0  0  0  0  0  0  0  0  0  0  0
   17.4144    7.4199    0.0000 O   0  0  0  0  0  0  0  0  0  0  0  0
   15.3233    7.3414    0.0000 N   0  0  0  0  0  0  0  0  0  0  0  0
   14.0613    8.1521    0.0000 C   0  0  0  0  0  0  0  0  0  0  0  0
   13.9421    9.6473    0.0000 C   0  0  0  0  0  0  0  0  0  0  0  0
   15.1774   10.4982    0.0000 C   0  0  0  0  0  0  0  0  0  0  0  0
   15.0582   11.9934    0.0000 C   0  0  0  0  0  0  0  0  0  0  0  0
   16.2936   12.8443    0.0000 N   0  0  0  0  0  0  0  0  0  0  0  0
   16.1744   14.3396    0.0000 C   0  0  0  0  0  0  0  0  0  0  0  0
   17.4097   15.1904    0.0000 N   0  0  0  0  0  0  0  0  0  0  0  0
   14.8198   14.9840    0.0000 N   0  0  0  0  0  0  0  0  0  0  0  0
   12.6686    8.7093    0.0000 C   0  0  0  0  0  0  0  0  0  0  0  0
   12.9123   10.1893    0.0000 O   0  0  0  0  0  0  0  0  0  0  0  0
   11.1957    8.9928    0.0000 N   0  0  0  0  0  0  0  0  0  0  0  0
    9.6957    8.9925    0.0000 C   0  0  0  0  0  0  0  0  0  0  0  0
    8.7870   10.1860    0.0000 C   0  0  0  0  0  0  0  0  0  0  0  0
    9.3662   11.5696    0.0000 C   0  0  0  0  0  0  0  0  0  0  0  0
    8.4576   12.7631    0.0000 C   0  0  0  0  0  0  0  0  0  0  0  0
    9.0368   14.1467    0.0000 N   0  0  0  0  0  0  0  0  0  0  0  0
    8.1281   15.3402    0.0000 C   0  0  0  0  0  0  0  0  0  0  0  0
    8.7073   16.7238    0.0000 N   0  0  0  0  0  0  0  0  0  0  0  0
    6.6402   15.1500    0.0000 N   0  0  0  0  0  0  0  0  0  0  0  0
    8.2228    8.7083    0.0000 C   0  0  0  0  0  0  0  0  0  0  0  0
    7.6277   10.0852    0.0000 O   0  0  0  0  0  0  0  0  0  0  0  0
    6.8304    8.1505    0.0000 N   0  0  0  0  0  0  0  0  0  0  0  0
    5.5687    7.3393    0.0000 C   0  0  0  0  0  0  0  0  0  0  0  0
    4.4833    6.3040    0.0000 C   0  0  0  0  0  0  0  0  0  0  0  0
    3.6135    5.0819    0.0000 C   0  0  0  0  0  0  0  0  0  0  0  0
    2.9907    3.7173    0.0000 C   0  0  0  0  0  0  0  0  0  0  0  0
    2.6373    2.2595    0.0000 C   0  0  0  0  0  0  0  0  0  0  0  0
    5.4021    8.8300    0.0000 C   0  0  0  0  0  0  0  0  0  0  0  0
    4.1590    7.8520    0.0000 C   0  0  0  0  0  0  0  0  0  0  0  0
    3.7201    9.2864    0.0000 O   0  0  0  0  0  0  0  0  0  0  0  0
    2.8110    7.1943    0.0000 O   0  0  0  0  0  0  0  0  0  0  0  0
  -24.8330    5.2317    0.0000 H   0  0  0  0  0  0  0  0  0  0  0  0
  -20.7168    7.0316    0.0000 H   0  0  0  0  0  0  0  0  0  0  0  0
  -20.2622    9.9969    0.0000 H   0  0  0  0  0  0  0  0  0  0  0  0
  -25.6797    7.4969    0.0000 H   0  0  0  0  0  0  0  0  0  0  0  0
  -29.8192   13.3430    0.0000 H   0  0  0  0  0  0  0  0  0  0  0  0
  -25.4755   16.1947    0.0000 H   0  0  0  0  0  0  0  0  0  0  0  0
  -23.8291   13.6868    0.0000 H   0  0  0  0  0  0  0  0  0  0  0  0
  -27.7962   17.3627    0.0000 H   0  0  0  0  0  0  0  0  0  0  0  0
  -23.5313    8.4992    0.0000 H   0  0  0  0  0  0  0  0  0  0  0  0
  -25.0390    5.7285    0.0000 H   0  0  0  0  0  0  0  0  0  0  0  0
  -29.5215    8.1554    0.0000 H   0  0  0  0  0  0  0  0  0  0  0  0
  -29.3726    5.5616    0.0000 H   0  0  0  0  0  0  0  0  0  0  0  0
  -23.9667    2.9772    0.0000 H   0  0  0  0  0  0  0  0  0  0  0  0
  -20.6780    3.8990    0.0000 H   0  0  0  0  0  0  0  0  0  0  0  0
  -19.9037    2.4603    0.0000 H   0  0  0  0  0  0  0  0  0  0  0  0
  -23.0466    1.5821    0.0000 H   0  0  0  0  0  0  0  0  0  0  0  0
  -22.3466   -0.2147    0.0000 H   0  0  0  0  0  0  0  0  0  0  0  0
  -22.0805   -1.8645    0.0000 H   0  0  0  0  0  0  0  0  0  0  0  0
  -20.6396   -3.2479    0.0000 H   0  0  0  0  0  0  0  0  0  0  0  0
  -17.5523   -0.0977    0.0000 H   0  0  0  0  0  0  0  0  0  0  0  0
  -17.6213   -1.8808    0.0000 H   0  0  0  0  0  0  0  0  0  0  0  0
  -20.7411    1.2774    0.0000 H   0  0  0  0  0  0  0  0  0  0  0  0
  -20.9038   -0.3483    0.0000 H   0  0  0  0  0  0  0  0  0  0  0  0
  -17.7228    2.6445    0.0000 H   0  0  0  0  0  0  0  0  0  0  0  0
  -17.5739    0.8663    0.0000 H   0  0  0  0  0  0  0  0  0  0  0  0
  -21.0921    3.2669    0.0000 H   0  0  0  0  0  0  0  0  0  0  0  0
  -18.9665    6.8496    0.0000 H   0  0  0  0  0  0  0  0  0  0  0  0
  -21.1797    5.6835    0.0000 H   0  0  0  0  0  0  0  0  0  0  0  0
  -16.6879    5.6013    0.0000 H   0  0  0  0  0  0  0  0  0  0  0  0
  -16.6297    3.0039    0.0000 H   0  0  0  0  0  0  0  0  0  0  0  0
  -20.9467   -4.7062    0.0000 H   0  0  0  0  0  0  0  0  0  0  0  0
  -17.5480   -5.1478    0.0000 H   0  0  0  0  0  0  0  0  0  0  0  0
  -21.0710   -7.8017    0.0000 H   0  0  0  0  0  0  0  0  0  0  0  0
  -19.2939   -7.9639    0.0000 H   0  0  0  0  0  0  0  0  0  0  0  0
  -22.0222   -4.4620    0.0000 H   0  0  0  0  0  0  0  0  0  0  0  0
  -20.5458   -4.4159    0.0000 H   0  0  0  0  0  0  0  0  0  0  0  0
  -23.7681   -7.2781    0.0000 H   0  0  0  0  0  0  0  0  0  0  0  0
  -22.0241   -7.6556    0.0000 H   0  0  0  0  0  0  0  0  0  0  0  0
  -23.5841   -3.8675    0.0000 H   0  0  0  0  0  0  0  0  0  0  0  0
  -27.7771   -5.5010    0.0000 H   0  0  0  0  0  0  0  0  0  0  0  0
  -26.1521   -3.4738    0.0000 H   0  0  0  0  0  0  0  0  0  0  0  0
  -26.8340   -7.9219    0.0000 H   0  0  0  0  0  0  0  0  0  0  0  0
  -24.2659   -8.3155    0.0000 H   0  0  0  0  0  0  0  0  0  0  0  0
  -15.8798   -5.0485    0.0000 H   0  0  0  0  0  0  0  0  0  0  0  0
  -16.0639   -8.4590    0.0000 H   0  0  0  0  0  0  0  0  0  0  0  0
  -14.1578   -8.7512    0.0000 H   0  0  0  0  0  0  0  0  0  0  0  0
  -12.5959   -9.3457    0.0000 H   0  0  0  0  0  0  0  0  0  0  0  0
  -10.6774   -8.7895    0.0000 H   0  0  0  0  0  0  0  0  0  0  0  0
  -12.0434   -4.5656    0.0000 H   0  0  0  0  0  0  0  0  0  0  0  0
  -10.5255   -5.1701    0.0000 H   0  0  0  0  0  0  0  0  0  0  0  0
  -14.0285   -4.7883    0.0000 H   0  0  0  0  0  0  0  0  0  0  0  0
   -9.4131   -9.8823    0.0000 H   0  0  0  0  0  0  0  0  0  0  0  0
   -7.5991   -9.9770    0.0000 H   0  0  0  0  0  0  0  0  0  0  0  0
   -7.0800   -5.6182    0.0000 H   0  0  0  0  0  0  0  0  0  0  0  0
   -5.9867   -7.0285    0.0000 H   0  0  0  0  0  0  0  0  0  0  0  0
  -10.4066   -6.6145    0.0000 H   0  0  0  0  0  0  0  0  0  0  0  0
   -9.4863   -7.9644    0.0000 H   0  0  0  0  0  0  0  0  0  0  0  0
   -8.9732   -3.6271    0.0000 H   0  0  0  0  0  0  0  0  0  0  0  0
   -7.7162   -4.8936    0.0000 H   0  0  0  0  0  0  0  0  0  0  0  0
  -11.9544   -5.3161    0.0000 H   0  0  0  0  0  0  0  0  0  0  0  0
  -12.6290   -1.2052    0.0000 H   0  0  0  0  0  0  0  0  0  0  0  0
  -13.4626   -3.6659    0.0000 H   0  0  0  0  0  0  0  0  0  0  0  0
  -10.0811   -0.6968    0.0000 H   0  0  0  0  0  0  0  0  0  0  0  0
   -8.3669   -2.6491    0.0000 H   0  0  0  0  0  0  0  0  0  0  0  0
   -7.6158  -10.5894    0.0000 H   0  0  0  0  0  0  0  0  0  0  0  0
   -7.7205  -12.4540    0.0000 H   0  0  0  0  0  0  0  0  0  0  0  0
   -7.1402  -13.4888    0.0000 H   0  0  0  0  0  0  0  0  0  0  0  0
   -5.3167  -14.3281    0.0000 H   0  0  0  0  0  0  0  0  0  0  0  0
   -4.1532  -14.0959    0.0000 H   0  0  0  0  0  0  0  0  0  0  0  0
   -2.8406  -12.9834    0.0000 H   0  0  0  0  0  0  0  0  0  0  0  0
   -3.6347   -9.6919    0.0000 H   0  0  0  0  0  0  0  0  0  0  0  0
   -3.3513  -13.8448    0.0000 H   0  0  0  0  0  0  0  0  0  0  0  0
   -0.6728  -11.7068    0.0000 H   0  0  0  0  0  0  0  0  0  0  0  0
   -1.3941  -16.0871    0.0000 H   0  0  0  0  0  0  0  0  0  0  0  0
    0.1402  -14.9189    0.0000 H   0  0  0  0  0  0  0  0  0  0  0  0
   -3.3902  -16.1626    0.0000 H   0  0  0  0  0  0  0  0  0  0  0  0
    0.4146  -10.4378    0.0000 H   0  0  0  0  0  0  0  0  0  0  0  0
    2.7401  -12.9394    0.0000 H   0  0  0  0  0  0  0  0  0  0  0  0
    4.2744  -11.7712    0.0000 H   0  0  0  0  0  0  0  0  0  0  0  0
    5.7870  -11.0607    0.0000 H   0  0  0  0  0  0  0  0  0  0  0  0
    6.7196   -9.2942    0.0000 H   0  0  0  0  0  0  0  0  0  0  0  0
    2.8500   -9.1232    0.0000 H   0  0  0  0  0  0  0  0  0  0  0  0
    2.7322   -7.3427    0.0000 H   0  0  0  0  0  0  0  0  0  0  0  0
    4.5735   -6.7697    0.0000 H   0  0  0  0  0  0  0  0  0  0  0  0
    8.2060   -9.1875    0.0000 H   0  0  0  0  0  0  0  0  0  0  0  0
    7.4121   -7.6836    0.0000 H   0  0  0  0  0  0  0  0  0  0  0  0
    6.2093   -6.9230    0.0000 H   0  0  0  0  0  0  0  0  0  0  0  0
    5.6235   -6.8919    0.0000 H   0  0  0  0  0  0  0  0  0  0  0  0
    4.8288   -6.1451    0.0000 H   0  0  0  0  0  0  0  0  0  0  0  0
    4.6969   -6.0414    0.0000 H   0  0  0  0  0  0  0  0  0  0  0  0
    3.6087   -5.1244    0.0000 H   0  0  0  0  0  0  0  0  0  0  0  0
    3.2777   -4.7425    0.0000 H   0  0  0  0  0  0  0  0  0  0  0  0
    2.5471   -3.7170    0.0000 H   0  0  0  0  0  0  0  0  0  0  0  0
    2.2943   -3.2793    0.0000 H   0  0  0  0  0  0  0  0  0  0  0  0
    1.7710   -2.1341    0.0000 H   0  0  0  0  0  0  0  0  0  0  0  0
    1.6056   -1.6565    0.0000 H   0  0  0  0  0  0  0  0  0  0  0  0
    1.3549   -0.2557    0.0000 H   0  0  0  0  0  0  0  0  0  0  0  0
    1.0680    0.6895    0.0000 H   0  0  0  0  0  0  0  0  0  0  0  0
    8.6948   -9.2816    0.0000 H   0  0  0  0  0  0  0  0  0  0  0  0
   10.3285   -9.2553    0.0000 H   0  0  0  0  0  0  0  0  0  0  0  0
   10.9265   -7.5741    0.0000 H   0  0  0  0  0  0  0  0  0  0  0  0
   12.0447   -8.1053    0.0000 H   0  0  0  0  0  0  0  0  0  0  0  0
   12.9431   -7.6205    0.0000 H   0  0  0  0  0  0  0  0  0  0  0  0
   16.0288   -7.4973    0.0000 H   0  0  0  0  0  0  0  0  0  0  0  0
   15.5607   -5.9320    0.0000 H   0  0  0  0  0  0  0  0  0  0  0  0
   13.7577   -9.9100    0.0000 H   0  0  0  0  0  0  0  0  0  0  0  0
   12.9248   -8.5044    0.0000 H   0  0  0  0  0  0  0  0  0  0  0  0
   17.0709   -9.8772    0.0000 H   0  0  0  0  0  0  0  0  0  0  0  0
   16.4563   -8.2020    0.0000 H   0  0  0  0  0  0  0  0  0  0  0  0
   14.0916  -11.5474    0.0000 H   0  0  0  0  0  0  0  0  0  0  0  0
   17.7159  -14.2147    0.0000 H   0  0  0  0  0  0  0  0  0  0  0  0
   15.1338  -13.9273    0.0000 H   0  0  0  0  0  0  0  0  0  0  0  0
   19.2559  -12.1223    0.0000 H   0  0  0  0  0  0  0  0  0  0  0  0
   18.2137   -9.7424    0.0000 H   0  0  0  0  0  0  0  0  0  0  0  0
   16.7887   -5.7743    0.0000 H   0  0  0  0  0  0  0  0  0  0  0  0
   17.2822   -4.8808    0.0000 H   0  0  0  0  0  0  0  0  0  0  0  0
   19.8115   -3.1089    0.0000 H   0  0  0  0  0  0  0  0  0  0  0  0
   18.5715   -2.0451    0.0000 H   0  0  0  0  0  0  0  0  0  0  0  0
   19.2053   -6.3664    0.0000 H   0  0  0  0  0  0  0  0  0  0  0  0
   17.7447   -5.6342    0.0000 H   0  0  0  0  0  0  0  0  0  0  0  0
   21.9749   -4.5476    0.0000 H   0  0  0  0  0  0  0  0  0  0  0  0
   20.5522   -3.4706    0.0000 H   0  0  0  0  0  0  0  0  0  0  0  0
   20.3715   -7.5634    0.0000 H   0  0  0  0  0  0  0  0  0  0  0  0
   24.8625   -7.8478    0.0000 H   0  0  0  0  0  0  0  0  0  0  0  0
   22.5349   -9.0020    0.0000 H   0  0  0  0  0  0  0  0  0  0  0  0
   25.0268   -5.2549    0.0000 H   0  0  0  0  0  0  0  0  0  0  0  0
   22.8634   -3.8163    0.0000 H   0  0  0  0  0  0  0  0  0  0  0  0
   19.5193   -1.2486    0.0000 H   0  0  0  0  0  0  0  0  0  0  0  0
   19.4514   -0.2300    0.0000 H   0  0  0  0  0  0  0  0  0  0  0  0
   20.6212    2.6280    0.0000 H   0  0  0  0  0  0  0  0  0  0  0  0
   19.0029    2.8525    0.0000 H   0  0  0  0  0  0  0  0  0  0  0  0
   21.8724   -0.4401    0.0000 H   0  0  0  0  0  0  0  0  0  0  0  0
   20.2478   -0.6139    0.0000 H   0  0  0  0  0  0  0  0  0  0  0  0
   23.2190    2.5873    0.0000 H   0  0  0  0  0  0  0  0  0  0  0  0
   21.4398    2.7241    0.0000 H   0  0  0  0  0  0  0  0  0  0  0  0
   23.5006   -0.8166    0.0000 H   0  0  0  0  0  0  0  0  0  0  0  0
   27.4325    1.3722    0.0000 H   0  0  0  0  0  0  0  0  0  0  0  0
   26.0984   -0.8572    0.0000 H   0  0  0  0  0  0  0  0  0  0  0  0
   26.1688    3.6422    0.0000 H   0  0  0  0  0  0  0  0  0  0  0  0
   23.5710    3.6829    0.0000 H   0  0  0  0  0  0  0  0  0  0  0  0
   19.3696    4.0350    0.0000 H   0  0  0  0  0  0  0  0  0  0  0  0
   18.7618    4.8551    0.0000 H   0  0  0  0  0  0  0  0  0  0  0  0
   18.2008    7.8919    0.0000 H   0  0  0  0  0  0  0  0  0  0  0  0
   16.7180    7.2059    0.0000 H   0  0  0  0  0  0  0  0  0  0  0  0
   20.9121    5.9873    0.0000 H   0  0  0  0  0  0  0  0  0  0  0  0
   19.6393    4.9628    0.0000 H   0  0  0  0  0  0  0  0  0  0  0  0
   20.4082    9.2622    0.0000 H   0  0  0  0  0  0  0  0  0  0  0  0
   18.8374    8.4154    0.0000 H   0  0  0  0  0  0  0  0  0  0  0  0
   22.4853    6.5509    0.0000 H   0  0  0  0  0  0  0  0  0  0  0  0
   24.6097   10.5179    0.0000 H   0  0  0  0  0  0  0  0  0  0  0  0
   24.6927    7.9211    0.0000 H   0  0  0  0  0  0  0  0  0  0  0  0
   22.3194   11.7444    0.0000 H   0  0  0  0  0  0  0  0  0  0  0  0
   20.1120   10.3741    0.0000 H   0  0  0  0  0  0  0  0  0  0  0  0
   16.3872    8.3989    0.0000 H   0  0  0  0  0  0  0  0  0  0  0  0
   15.4325    8.7603    0.0000 H   0  0  0  0  0  0  0  0  0  0  0  0
   13.3187   11.0117    0.0000 H   0  0  0  0  0  0  0  0  0  0  0  0
   12.4422    9.6328    0.0000 H   0  0  0  0  0  0  0  0  0  0  0  0
   16.6293   10.8752    0.0000 H   0  0  0  0  0  0  0  0  0  0  0  0
   16.1124    9.3253    0.0000 H   0  0  0  0  0  0  0  0  0  0  0  0
   14.4348   13.3578    0.0000 H   0  0  0  0  0  0  0  0  0  0  0  0
   13.5713   11.7962    0.0000 H   0  0  0  0  0  0  0  0  0  0  0  0
   17.6481   12.1999    0.0000 H   0  0  0  0  0  0  0  0  0  0  0  0
   17.2905   16.6857    0.0000 H   0  0  0  0  0  0  0  0  0  0  0  0
   18.7642   14.5460    0.0000 H   0  0  0  0  0  0  0  0  0  0  0  0
   14.7007   16.4792    0.0000 H   0  0  0  0  0  0  0  0  0  0  0  0
   13.5845   14.1331    0.0000 H   0  0  0  0  0  0  0  0  0  0  0  0
   11.5189   10.4576    0.0000 H   0  0  0  0  0  0  0  0  0  0  0  0
   10.5204   10.2455    0.0000 H   0  0  0  0  0  0  0  0  0  0  0  0
    7.5249   10.9967    0.0000 H   0  0  0  0  0  0  0  0  0  0  0  0
    7.5330    9.3628    0.0000 H   0  0  0  0  0  0  0  0  0  0  0  0
   10.3837   12.6717    0.0000 H   0  0  0  0  0  0  0  0  0  0  0  0
   10.7869   11.0884    0.0000 H   0  0  0  0  0  0  0  0  0  0  0  0
    7.1955   13.5738    0.0000 H   0  0  0  0  0  0  0  0  0  0  0  0
    7.3133   11.7932    0.0000 H   0  0  0  0  0  0  0  0  0  0  0  0
   10.5247   14.3369    0.0000 H   0  0  0  0  0  0  0  0  0  0  0  0
    7.7987   17.9173    0.0000 H   0  0  0  0  0  0  0  0  0  0  0  0
   10.1952   16.9140    0.0000 H   0  0  0  0  0  0  0  0  0  0  0  0
    5.7315   16.3434    0.0000 H   0  0  0  0  0  0  0  0  0  0  0  0
    6.0610   13.7663    0.0000 H   0  0  0  0  0  0  0  0  0  0  0  0
    6.3104    9.5575    0.0000 H   0  0  0  0  0  0  0  0  0  0  0  0
    3.0021    6.5406    0.0000 H   0  0  0  0  0  0  0  0  0  0  0  0
    3.7043    7.5858    0.0000 H   0  0  0  0  0  0  0  0  0  0  0  0
    2.1196    5.2171    0.0000 H   0  0  0  0  0  0  0  0  0  0  0  0
    2.6060    6.1932    0.0000 H   0  0  0  0  0  0  0  0  0  0  0  0
    1.5276    3.3865    0.0000 H   0  0  0  0  0  0  0  0  0  0  0  0
    1.9097    4.7573    0.0000 H   0  0  0  0  0  0  0  0  0  0  0  0
    1.1526    2.4727    0.0000 H   0  0  0  0  0  0  0  0  0  0  0  0
    4.1113    9.5942    0.0000 H   0  0  0  0  0  0  0  0  0  0  0  0
    5.5751   10.3200    0.0000 H   0  0  0  0  0  0  0  0  0  0  0  0
    6.8776    9.1003    0.0000 H   0  0  0  0  0  0  0  0  0  0  0  0
  1  2  1  0
  2  3  1  0
  3  4  2  0
  4  5  1  0
  5  6  2  0
  6  7  1  0
  7  8  2  0
  7  9  1  0
  9 10  1  0
 10 11  1  0
 11 12  2  0
  9 13  1  0
 13 14  1  0
 14 15  2  0
 15 16  1  0
 16 17  2  0
 17 18  1  0
 16 19  1  0
 14 20  1  0
 20 21  1  0
 21 22  2  0
 22 23  1  0
 23 24  2  0
 24 25  1  0
 25 26  2  0
 25 27  1  0
  1 28  2  0
  1 29  1  0
 29 30  1  0
 30 31  1  0
 31 32  1  0
 32 33  2  0
 32 34  1  0
 34 35  1  0
 35 36  1  0
 36 37  1  0
 37 38  1  0
 38 39  1  0
 39 40  1  0
 40 41  2  3
 40 42  1  0
 35 43  1  0
 43 44  2  0
 43 45  1  0
 45 46  1  0
 46 47  1  0
 47 48  1  0
 48 49  1  0
 49 50  1  0
 50 51  1  0
 51 52  2  3
 51 53  1  0
 46 54  1  0
 54 55  2  0
 54 56  1  0
 56 57  1  0
 57 58  1  0
 58 59  2  0
 58 60  1  0
 60 61  1  0
 61 62  1  0
 62 63  1  0
 61 64  1  0
 64 65  2  0
 64 66  1  0
 66 67  1  0
 67 68  1  0
 68 69  1  0
 69 70  1  0
 70 71  1  0
 71 72  1  0
 72 73  2  3
 72 74  1  0
 67 75  1  0
 75 76  2  0
 75 77  1  0
 77 78  1  0
 78 79  1  0
 79 80  1  0
 80 81  1  0
 81 82  1  0
 82 83  2  0
 82 84  1  0
 84 85  1  0
 85 86  1  0
 86 87  1  0
 85 88  1  0
 88 89  2  0
 88 90  1  0
 90 91  1  0
 91 92  1  0
 92 93  2  0
 92 94  1  0
 94 95  1  0
 95 96  1  0
 95 97  1  0
 97 98  2  0
 97 99  1  0
100 99  1  6
100101  1  0
101102  1  0
102103  1  0
103104  1  0
104105  1  0
105106  1  0
106107  1  0
100108  1  0
100109  1  0
109110  2  0
109111  1  0
111112  1  0
112113  1  0
113114  1  0
114115  1  0
115116  1  0
116117  1  0
117118  2  3
117119  1  0
112120  1  0
120121  2  0
120122  1  0
122123  1  0
123124  1  0
124125  1  0
125126  1  0
126127  1  0
127128  1  0
128129  2  3
128130  1  0
123131  1  0
131132  2  0
131133  1  0
133134  1  0
134135  1  0
135136  1  0
136137  1  0
137138  1  0
138139  1  0
139140  2  3
139141  1  0
134142  1  0
142143  2  0
142144  1  0
144145  1  0
145146  1  0
146147  1  0
147148  1  0
148149  1  0
149150  1  0
150151  2  3
150152  1  0
145153  1  0
153154  2  0
153155  1  0
155156  1  0
156157  1  0
157158  1  0
158159  1  0
159160  1  0
160161  1  0
161162  2  3
161163  1  0
156164  1  0
164165  2  0
164166  1  0
166167  1  0
167168  1  0
168169  1  0
169170  1  0
170171  1  0
171172  1  0
172173  2  3
172174  1  0
167175  1  0
175176  2  0
175177  1  0
177178  1  0
178179  1  0
179180  1  0
180181  1  0
181182  1  0
178183  1  0
178184  1  1
184185  2  0
184186  1  0
  8  3  1  0
 81 77  1  0
 11  6  1  0
107182  2  0
 18 13  2  0
 22  9  1  0
 26 21  1  0
  2187  1  0
  4188  1  0
  5189  1  0
  8190  1  0
 15191  1  0
 17192  1  0
 18193  1  0
 19194  1  0
 23195  1  0
 24196  1  0
 26197  1  0
 27198  1  0
 29199  1  0
 30200  1  0
 30201  1  0
 31202  1  0
 31203  1  0
 34204  1  0
 35205  1  1
 36206  1  0
 36207  1  0
 37208  1  0
 37209  1  0
 38210  1  0
 38211  1  0
 39212  1  0
 41213  1  0
 41214  1  0
 42215  1  0
 42216  1  0
 45217  1  0
 46218  1  6
 47219  1  0
 47220  1  0
 48221  1  0
 48222  1  0
 49223  1  0
 49224  1  0
 50225  1  0
 52226  1  0
 52227  1  0
 53228  1  0
 53229  1  0
 56230  1  0
 57231  1  0
 57232  1  0
 60233  1  0
 61234  1  1
 62235  1  0
 62236  1  0
 63237  1  0
 66238  1  0
 67239  1  1
 68240  1  0
 68241  1  0
 69242  1  0
 69243  1  0
 70244  1  0
 70245  1  0
 71246  1  0
 73247  1  0
 73248  1  0
 74249  1  0
 74250  1  0
 78251  1  0
 78252  1  0
 79253  1  0
 79254  1  0
 80255  1  0
 80256  1  0
 81257  1  0
 84258  1  0
 85259  1  6
 86260  1  0
 86261  1  0
 87262  1  0
 90263  1  0
 91264  1  0
 91265  1  0
 94266  1  0
 95267  1  1
 96268  1  0
 96269  1  0
 96270  1  0
 99271  1  0
101272  1  0
101273  1  0
102274  1  0
102275  1  0
103276  1  0
103277  1  0
104278  1  0
104279  1  0
105280  1  0
105281  1  0
106282  1  0
106283  1  0
107284  1  0
108285  1  0
108286  1  0
108287  1  0
111288  1  0
112289  1  6
113290  1  0
113291  1  0
114292  1  0
114293  1  0
115294  1  0
115295  1  0
116296  1  0
118297  1  0
118298  1  0
119299  1  0
119300  1  0
122301  1  0
123302  1  6
124303  1  0
124304  1  0
125305  1  0
125306  1  0
126307  1  0
126308  1  0
127309  1  0
129310  1  0
129311  1  0
130312  1  0
130313  1  0
133314  1  0
134315  1  6
135316  1  0
135317  1  0
136318  1  0
136319  1  0
137320  1  0
137321  1  0
138322  1  0
140323  1  0
140324  1  0
141325  1  0
141326  1  0
144327  1  0
145328  1  6
146329  1  0
146330  1  0
147331  1  0
147332  1  0
148333  1  0
148334  1  0
149335  1  0
151336  1  0
151337  1  0
152338  1  0
152339  1  0
155340  1  0
156341  1  6
157342  1  0
157343  1  0
158344  1  0
158345  1  0
159346  1  0
159347  1  0
160348  1  0
162349  1  0
162350  1  0
163351  1  0
163352  1  0
166353  1  0
167354  1  6
168355  1  0
168356  1  0
169357  1  0
169358  1  0
170359  1  0
170360  1  0
171361  1  0
173362  1  0
173363  1  0
174364  1  0
174365  1  0
177366  1  0
179367  1  0
179368  1  0
180369  1  0
180370  1  0
181371  1  0
181372  1  0
182373  1  0
183374  1  0
183375  1  0
183376  1  0
M  CHG  8  41   1  52   1  73   1 118   1 129   1 140   1 151   1 162   1
M  CHG  2 173   1 186  -1
M  END
