
     RDKit          2D

359365  0  0  0  0  0  0  0  0999 V2000
  -28.0190   -6.4731    0.0000 C   0  0  0  0  0  0  0  0  0  0  0  0
  -28.5325   -7.8824    0.0000 N   0  0  0  0  0  0  0  0  0  0  0  0
  -30.0098   -8.1425    0.0000 C   0  0  0  0  0  0  0  0  0  0  0  0
  -30.9736   -6.9931    0.0000 C   0  0  0  0  0  0  0  0  0  0  0  0
  -32.4509   -7.2531    0.0000 C   0  0  0  0  0  0  0  0  0  0  0  0
  -32.9644   -8.6625    0.0000 C   0  0  0  0  0  0  0  0  0  0  0  0
  -32.0006   -9.8119    0.0000 C   0  0  0  0  0  0  0  0  0  0  0  0
  -30.5233   -9.5518    0.0000 C   0  0  0  0  0  0  0  0  0  0  0  0
  -32.7958  -11.0837    0.0000 C   0  0  0  0  0  0  0  0  0  0  0  0
  -34.2512  -10.7204    0.0000 O   0  0  0  0  0  0  0  0  0  0  0  0
  -34.3553   -9.2240    0.0000 C   0  0  0  0  0  0  0  0  0  0  0  0
  -35.6272   -8.4287    0.0000 O   0  0  0  0  0  0  0  0  0  0  0  0
  -33.7197  -12.2654    0.0000 C   0  0  0  0  0  0  0  0  0  0  0  0
  -33.1582  -13.6564    0.0000 C   0  0  0  0  0  0  0  0  0  0  0  0
  -34.0821  -14.8381    0.0000 C   0  0  0  0  0  0  0  0  0  0  0  0
  -35.5674  -14.6289    0.0000 C   0  0  0  0  0  0  0  0  0  0  0  0
  -36.1289  -13.2379    0.0000 C   0  0  0  0  0  0  0  0  0  0  0  0
  -35.2050  -12.0562    0.0000 C   0  0  0  0  0  0  0  0  0  0  0  0
  -36.4912  -15.8106    0.0000 O   0  0  0  0  0  0  0  0  0  0  0  0
  -31.6729  -13.8656    0.0000 O   0  0  0  0  0  0  0  0  0  0  0  0
  -30.7490  -12.6838    0.0000 C   0  0  0  0  0  0  0  0  0  0  0  0
  -31.3105  -11.2929    0.0000 C   0  0  0  0  0  0  0  0  0  0  0  0
  -30.1246  -10.7603    0.0000 C   0  0  0  0  0  0  0  0  0  0  0  0
  -29.3324  -10.8719    0.0000 C   0  0  0  0  0  0  0  0  0  0  0  0
  -29.0330  -11.6137    0.0000 C   0  0  0  0  0  0  0  0  0  0  0  0
  -29.5257  -12.2440    0.0000 C   0  0  0  0  0  0  0  0  0  0  0  0
  -26.8545  -11.9205    0.0000 O   0  0  0  0  0  0  0  0  0  0  0  0
  -28.9829   -5.3237    0.0000 S   0  0  0  0  0  0  0  0  0  0  0  0
  -26.5418   -6.2130    0.0000 N   0  0  0  0  0  0  0  0  0  0  0  0
  -26.0283   -4.8037    0.0000 C   0  0  0  0  0  0  0  0  0  0  0  0
  -24.5510   -4.5436    0.0000 C   0  0  0  0  0  0  0  0  0  0  0  0
  -24.0375   -3.1343    0.0000 C   0  0  0  0  0  0  0  0  0  0  0  0
  -25.0014   -1.9849    0.0000 O   0  0  0  0  0  0  0  0  0  0  0  0
  -22.5602   -2.8742    0.0000 N   0  0  0  0  0  0  0  0  0  0  0  0
  -22.0468   -1.4649    0.0000 C   0  0  0  0  0  0  0  0  0  0  0  0
  -22.0463    0.0351    0.0000 C   0  0  0  0  0  0  0  0  0  0  0  0
  -20.7470    0.7847    0.0000 C   0  0  0  0  0  0  0  0  0  0  0  0
  -20.7466    2.2847    0.0000 C   0  0  0  0  0  0  0  0  0  0  0  0
  -19.4473    3.0343    0.0000 N   0  0  0  0  0  0  0  0  0  0  0  0
  -19.4469    4.5343    0.0000 C   0  0  0  0  0  0  0  0  0  0  0  0
  -18.1476    5.2839    0.0000 N   0  0  0  0  0  0  0  0  0  0  0  0
  -20.7457    5.2847    0.0000 N   0  0  0  0  0  0  0  0  0  0  0  0
  -20.5695   -1.2048    0.0000 C   0  0  0  0  0  0  0  0  0  0  0  0
  -19.6057   -2.3542    0.0000 O   0  0  0  0  0  0  0  0  0  0  0  0
  -20.0560    0.2045    0.0000 N   0  0  0  0  0  0  0  0  0  0  0  0
  -18.5787    0.4646    0.0000 C   0  0  0  0  0  0  0  0  0  0  0  0
  -17.1016    0.2036    0.0000 C   0  0  0  0  0  0  0  0  0  0  0  0
  -16.5890   -1.2061    0.0000 C   0  0  0  0  0  0  0  0  0  0  0  0
  -15.1119   -1.4670    0.0000 C   0  0  0  0  0  0  0  0  0  0  0  0
  -14.5993   -2.8767    0.0000 N   0  0  0  0  0  0  0  0  0  0  0  0
  -13.1221   -3.1376    0.0000 C   0  0  0  0  0  0  0  0  0  0  0  0
  -12.6095   -4.5473    0.0000 N   0  0  0  0  0  0  0  0  0  0  0  0
  -12.1576   -1.9888    0.0000 N   0  0  0  0  0  0  0  0  0  0  0  0
  -18.0653    1.8739    0.0000 C   0  0  0  0  0  0  0  0  0  0  0  0
  -18.5443    2.8569    0.0000 O   0  0  0  0  0  0  0  0  0  0  0  0
  -16.5880    2.1340    0.0000 N   0  0  0  0  0  0  0  0  0  0  0  0
  -16.0745    3.5433    0.0000 C   0  0  0  0  0  0  0  0  0  0  0  0
  -14.5972    3.8034    0.0000 C   0  0  0  0  0  0  0  0  0  0  0  0
  -13.6334    2.6540    0.0000 O   0  0  0  0  0  0  0  0  0  0  0  0
  -14.0838    5.2127    0.0000 N   0  0  0  0  0  0  0  0  0  0  0  0
  -12.6065    5.4728    0.0000 C   0  0  0  0  0  0  0  0  0  0  0  0
  -11.1293    5.2118    0.0000 C   0  0  0  0  0  0  0  0  0  0  0  0
  -10.6167    3.8021    0.0000 O   0  0  0  0  0  0  0  0  0  0  0  0
  -12.0930    6.8821    0.0000 C   0  0  0  0  0  0  0  0  0  0  0  0
  -13.0568    8.0315    0.0000 O   0  0  0  0  0  0  0  0  0  0  0  0
  -10.6157    7.1422    0.0000 N   0  0  0  0  0  0  0  0  0  0  0  0
  -10.1022    8.5515    0.0000 C   0  0  0  0  0  0  0  0  0  0  0  0
  -10.1018   10.0515    0.0000 C   0  0  0  0  0  0  0  0  0  0  0  0
   -8.8025   10.8011    0.0000 C   0  0  0  0  0  0  0  0  0  0  0  0
   -8.8021   12.3011    0.0000 C   0  0  0  0  0  0  0  0  0  0  0  0
   -7.5028   13.0507    0.0000 N   0  0  0  0  0  0  0  0  0  0  0  0
   -7.5023   14.5507    0.0000 C   0  0  0  0  0  0  0  0  0  0  0  0
   -6.2031   15.3003    0.0000 N   0  0  0  0  0  0  0  0  0  0  0  0
   -8.8011   15.3011    0.0000 N   0  0  0  0  0  0  0  0  0  0  0  0
   -8.6250    8.8116    0.0000 C   0  0  0  0  0  0  0  0  0  0  0  0
   -7.6611    7.6622    0.0000 O   0  0  0  0  0  0  0  0  0  0  0  0
   -8.1115   10.2209    0.0000 N   0  0  0  0  0  0  0  0  0  0  0  0
   -8.9499   11.4647    0.0000 C   0  0  0  0  0  0  0  0  0  0  0  0
   -8.0260   12.6465    0.0000 C   0  0  0  0  0  0  0  0  0  0  0  0
   -6.6167   12.1330    0.0000 C   0  0  0  0  0  0  0  0  0  0  0  0
   -6.6695   10.6339    0.0000 C   0  0  0  0  0  0  0  0  0  0  0  0
   -5.1731   10.7381    0.0000 C   0  0  0  0  0  0  0  0  0  0  0  0
   -4.3557   11.9959    0.0000 O   0  0  0  0  0  0  0  0  0  0  0  0
   -4.3347    9.4943    0.0000 N   0  0  0  0  0  0  0  0  0  0  0  0
   -2.8383    9.5985    0.0000 C   0  0  0  0  0  0  0  0  0  0  0  0
   -1.4678   10.2082    0.0000 C   0  0  0  0  0  0  0  0  0  0  0  0
   -0.0190    9.8196    0.0000 O   0  0  0  0  0  0  0  0  0  0  0  0
   -1.9999    8.3547    0.0000 C   0  0  0  0  0  0  0  0  0  0  0  0
   -2.6579    7.0067    0.0000 O   0  0  0  0  0  0  0  0  0  0  0  0
   -0.5035    8.4588    0.0000 N   0  0  0  0  0  0  0  0  0  0  0  0
    0.3349    7.2150    0.0000 C   0  0  0  0  0  0  0  0  0  0  0  0
    1.8313    7.3192    0.0000 C   0  0  0  0  0  0  0  0  0  0  0  0
    2.4892    8.6672    0.0000 O   0  0  0  0  0  0  0  0  0  0  0  0
    2.6697    6.0754    0.0000 N   0  0  0  0  0  0  0  0  0  0  0  0
    4.1660    6.1796    0.0000 C   0  0  0  0  0  0  0  0  0  0  0  0
    5.5366    6.7892    0.0000 C   0  0  0  0  0  0  0  0  0  0  0  0
    5.0045    4.9357    0.0000 C   0  0  0  0  0  0  0  0  0  0  0  0
    4.1871    3.6780    0.0000 O   0  0  0  0  0  0  0  0  0  0  0  0
    6.5008    5.0399    0.0000 N   0  0  0  0  0  0  0  0  0  0  0  0
    7.3392    3.7961    0.0000 C   0  0  0  0  0  0  0  0  0  0  0  0
    6.9614    2.3445    0.0000 C   0  0  0  0  0  0  0  0  0  0  0  0
    7.0282    0.8460    0.0000 C   0  0  0  0  0  0  0  0  0  0  0  0
    7.5338   -0.5663    0.0000 C   0  0  0  0  0  0  0  0  0  0  0  0
    8.4332   -1.7667    0.0000 C   0  0  0  0  0  0  0  0  0  0  0  0
    5.8409    3.7256    0.0000 C   0  0  0  0  0  0  0  0  0  0  0  0
    8.1282    5.0719    0.0000 C   0  0  0  0  0  0  0  0  0  0  0  0
    7.2530    6.2901    0.0000 O   0  0  0  0  0  0  0  0  0  0  0  0
    9.2581    6.0584    0.0000 N   0  0  0  0  0  0  0  0  0  0  0  0
   10.6286    6.6681    0.0000 C   0  0  0  0  0  0  0  0  0  0  0  0
   11.0783    8.0991    0.0000 C   0  0  0  0  0  0  0  0  0  0  0  0
   10.0639    9.2041    0.0000 C   0  0  0  0  0  0  0  0  0  0  0  0
   10.5136   10.6351    0.0000 C   0  0  0  0  0  0  0  0  0  0  0  0
    9.4992   11.7401    0.0000 N   0  0  0  0  0  0  0  0  0  0  0  0
    9.9489   13.1711    0.0000 C   0  0  0  0  0  0  0  0  0  0  0  0
    8.9344   14.2760    0.0000 N   0  0  0  0  0  0  0  0  0  0  0  0
   11.4130   13.4971    0.0000 N   0  0  0  0  0  0  0  0  0  0  0  0
   12.1179    6.8468    0.0000 C   0  0  0  0  0  0  0  0  0  0  0  0
   12.1632    8.3461    0.0000 O   0  0  0  0  0  0  0  0  0  0  0  0
   13.5937    6.5785    0.0000 N   0  0  0  0  0  0  0  0  0  0  0  0
   14.9249    5.8871    0.0000 C   0  0  0  0  0  0  0  0  0  0  0  0
   16.3241    6.4277    0.0000 C   0  0  0  0  0  0  0  0  0  0  0  0
   16.5555    7.9098    0.0000 C   0  0  0  0  0  0  0  0  0  0  0  0
   17.9547    8.4504    0.0000 C   0  0  0  0  0  0  0  0  0  0  0  0
   18.1861    9.9324    0.0000 N   0  0  0  0  0  0  0  0  0  0  0  0
   19.5853   10.4730    0.0000 C   0  0  0  0  0  0  0  0  0  0  0  0
   19.8167   11.9551    0.0000 N   0  0  0  0  0  0  0  0  0  0  0  0
   20.7531    9.5316    0.0000 N   0  0  0  0  0  0  0  0  0  0  0  0
   15.9931    4.8341    0.0000 C   0  0  0  0  0  0  0  0  0  0  0  0
   17.1936    5.7334    0.0000 O   0  0  0  0  0  0  0  0  0  0  0  0
   16.7035    3.5130    0.0000 N   0  0  0  0  0  0  0  0  0  0  0  0
   16.9929    2.0412    0.0000 C   0  0  0  0  0  0  0  0  0  0  0  0
   18.2880    1.2843    0.0000 C   0  0  0  0  0  0  0  0  0  0  0  0
   19.5910    2.0274    0.0000 C   0  0  0  0  0  0  0  0  0  0  0  0
   20.8860    1.2705    0.0000 C   0  0  0  0  0  0  0  0  0  0  0  0
   22.1890    2.0136    0.0000 N   0  0  0  0  0  0  0  0  0  0  0  0
   23.4841    1.2568    0.0000 C   0  0  0  0  0  0  0  0  0  0  0  0
   24.7871    1.9999    0.0000 N   0  0  0  0  0  0  0  0  0  0  0  0
   23.4761   -0.2432    0.0000 N   0  0  0  0  0  0  0  0  0  0  0  0
   16.8357    0.5494    0.0000 C   0  0  0  0  0  0  0  0  0  0  0  0
   18.2873    0.1716    0.0000 O   0  0  0  0  0  0  0  0  0  0  0  0
   16.2457   -0.8297    0.0000 N   0  0  0  0  0  0  0  0  0  0  0  0
   15.2755   -1.9736    0.0000 C   0  0  0  0  0  0  0  0  0  0  0  0
   14.0112   -2.7808    0.0000 C   0  0  0  0  0  0  0  0  0  0  0  0
   12.5651   -3.1794    0.0000 C   0  0  0  0  0  0  0  0  0  0  0  0
   11.0658   -3.1341    0.0000 C   0  0  0  0  0  0  0  0  0  0  0  0
    9.6464   -2.6488    0.0000 C   0  0  0  0  0  0  0  0  0  0  0  0
   16.7172   -2.3875    0.0000 C   0  0  0  0  0  0  0  0  0  0  0  0
   15.4912   -3.4580    0.0000 C   0  0  0  0  0  0  0  0  0  0  0  0
   14.5733   -4.6444    0.0000 O   0  0  0  0  0  0  0  0  0  0  0  0
   16.8846   -4.0134    0.0000 N   0  0  0  0  0  0  0  0  0  0  0  0
   17.1003   -5.4979    0.0000 C   0  0  0  0  0  0  0  0  0  0  0  0
   16.7953   -6.9665    0.0000 C   0  0  0  0  0  0  0  0  0  0  0  0
   15.3709   -7.4367    0.0000 C   0  0  0  0  0  0  0  0  0  0  0  0
   15.0659   -8.9054    0.0000 C   0  0  0  0  0  0  0  0  0  0  0  0
   13.6415   -9.3756    0.0000 N   0  0  0  0  0  0  0  0  0  0  0  0
   13.3365  -10.8442    0.0000 C   0  0  0  0  0  0  0  0  0  0  0  0
   11.9121  -11.3144    0.0000 N   0  0  0  0  0  0  0  0  0  0  0  0
   14.4559  -11.8427    0.0000 N   0  0  0  0  0  0  0  0  0  0  0  0
   18.4937   -6.0532    0.0000 C   0  0  0  0  0  0  0  0  0  0  0  0
   19.6714   -5.1242    0.0000 O   0  0  0  0  0  0  0  0  0  0  0  0
   18.7094   -7.5377    0.0000 N   0  0  0  0  0  0  0  0  0  0  0  0
   20.1028   -8.0931    0.0000 C   0  0  0  0  0  0  0  0  0  0  0  0
   21.6021   -8.1384    0.0000 C   0  0  0  0  0  0  0  0  0  0  0  0
   20.3185   -9.5775    0.0000 C   0  0  0  0  0  0  0  0  0  0  0  0
   19.1408  -10.5065    0.0000 O   0  0  0  0  0  0  0  0  0  0  0  0
   21.7119  -10.1329    0.0000 N   0  0  0  0  0  0  0  0  0  0  0  0
   21.9276  -11.6173    0.0000 C   0  0  0  0  0  0  0  0  0  0  0  0
   21.6226  -13.0859    0.0000 C   0  0  0  0  0  0  0  0  0  0  0  0
   23.3210  -12.1727    0.0000 C   0  0  0  0  0  0  0  0  0  0  0  0
   24.4987  -11.2437    0.0000 O   0  0  0  0  0  0  0  0  0  0  0  0
   23.5367  -13.6571    0.0000 N   0  0  0  0  0  0  0  0  0  0  0  0
   24.9301  -14.2125    0.0000 C   0  0  0  0  0  0  0  0  0  0  0  0
   26.4294  -14.2578    0.0000 C   0  0  0  0  0  0  0  0  0  0  0  0
   25.1458  -15.6969    0.0000 C   0  0  0  0  0  0  0  0  0  0  0  0
   23.9681  -16.6259    0.0000 O   0  0  0  0  0  0  0  0  0  0  0  0
   26.5392  -16.2523    0.0000 N   0  0  0  0  0  0  0  0  0  0  0  0
   26.7549  -17.7367    0.0000 C   0  0  0  0  0  0  0  0  0  0  0  0
   26.4499  -19.2053    0.0000 C   0  0  0  0  0  0  0  0  0  0  0  0
   28.1483  -18.2921    0.0000 C   0  0  0  0  0  0  0  0  0  0  0  0
   28.5433  -19.7391    0.0000 O   0  0  0  0  0  0  0  0  0  0  0  0
   29.3259  -17.3631    0.0000 O   0  0  0  0  0  0  0  0  0  0  0  0
  -27.4358   -8.9057    0.0000 H   0  0  0  0  0  0  0  0  0  0  0  0
  -30.4602   -5.5837    0.0000 H   0  0  0  0  0  0  0  0  0  0  0  0
  -33.4147   -6.1037    0.0000 H   0  0  0  0  0  0  0  0  0  0  0  0
  -29.3100  -10.4338    0.0000 H   0  0  0  0  0  0  0  0  0  0  0  0
  -33.5206  -16.2290    0.0000 H   0  0  0  0  0  0  0  0  0  0  0  0
  -37.6142  -13.0287    0.0000 H   0  0  0  0  0  0  0  0  0  0  0  0
  -35.7665  -10.6653    0.0000 H   0  0  0  0  0  0  0  0  0  0  0  0
  -37.9766  -15.6014    0.0000 H   0  0  0  0  0  0  0  0  0  0  0  0
  -30.9481   -8.7202    0.0000 H   0  0  0  0  0  0  0  0  0  0  0  0
  -27.8403   -9.2601    0.0000 H   0  0  0  0  0  0  0  0  0  0  0  0
  -28.7022  -14.2840    0.0000 H   0  0  0  0  0  0  0  0  0  0  0  0
  -26.2930  -13.3115    0.0000 H   0  0  0  0  0  0  0  0  0  0  0  0
  -25.5779   -7.3624    0.0000 H   0  0  0  0  0  0  0  0  0  0  0  0
  -26.0278   -3.3037    0.0000 H   0  0  0  0  0  0  0  0  0  0  0  0
  -27.5054   -4.5427    0.0000 H   0  0  0  0  0  0  0  0  0  0  0  0
  -23.0739   -4.8046    0.0000 H   0  0  0  0  0  0  0  0  0  0  0  0
  -24.5515   -6.0436    0.0000 H   0  0  0  0  0  0  0  0  0  0  0  0
  -21.5964   -4.0236    0.0000 H   0  0  0  0  0  0  0  0  0  0  0  0
  -23.5239   -1.2039    0.0000 H   0  0  0  0  0  0  0  0  0  0  0  0
  -22.7269    1.3718    0.0000 H   0  0  0  0  0  0  0  0  0  0  0  0
  -23.5236   -0.2249    0.0000 H   0  0  0  0  0  0  0  0  0  0  0  0
  -19.2698    1.0448    0.0000 H   0  0  0  0  0  0  0  0  0  0  0  0
  -19.6325   -0.2192    0.0000 H   0  0  0  0  0  0  0  0  0  0  0  0
  -21.2592    3.6944    0.0000 H   0  0  0  0  0  0  0  0  0  0  0  0
  -22.2446    2.2067    0.0000 H   0  0  0  0  0  0  0  0  0  0  0  0
  -18.0055    2.6205    0.0000 H   0  0  0  0  0  0  0  0  0  0  0  0
  -18.1471    6.7839    0.0000 H   0  0  0  0  0  0  0  0  0  0  0  0
  -16.8488    4.5335    0.0000 H   0  0  0  0  0  0  0  0  0  0  0  0
  -20.7452    6.7847    0.0000 H   0  0  0  0  0  0  0  0  0  0  0  0
  -22.0449    4.5351    0.0000 H   0  0  0  0  0  0  0  0  0  0  0  0
  -20.7131    1.5530    0.0000 H   0  0  0  0  0  0  0  0  0  0  0  0
  -18.7620   -1.0242    0.0000 H   0  0  0  0  0  0  0  0  0  0  0  0
  -15.6243    0.4636    0.0000 H   0  0  0  0  0  0  0  0  0  0  0  0
  -16.7382    1.6589    0.0000 H   0  0  0  0  0  0  0  0  0  0  0  0
  -16.5895   -2.7061    0.0000 H   0  0  0  0  0  0  0  0  0  0  0  0
  -18.0236   -1.6442    0.0000 H   0  0  0  0  0  0  0  0  0  0  0  0
  -13.6346   -1.2070    0.0000 H   0  0  0  0  0  0  0  0  0  0  0  0
  -14.9286    0.0218    0.0000 H   0  0  0  0  0  0  0  0  0  0  0  0
  -15.5638   -4.0255    0.0000 H   0  0  0  0  0  0  0  0  0  0  0  0
  -11.1324   -4.8082    0.0000 H   0  0  0  0  0  0  0  0  0  0  0  0
  -13.5741   -5.6961    0.0000 H   0  0  0  0  0  0  0  0  0  0  0  0
  -10.6805   -2.2498    0.0000 H   0  0  0  0  0  0  0  0  0  0  0  0
  -12.6702   -0.5791    0.0000 H   0  0  0  0  0  0  0  0  0  0  0  0
  -15.4912    1.1107    0.0000 H   0  0  0  0  0  0  0  0  0  0  0  0
  -16.0741    5.0433    0.0000 H   0  0  0  0  0  0  0  0  0  0  0  0
  -17.5516    3.8043    0.0000 H   0  0  0  0  0  0  0  0  0  0  0  0
  -15.0476    6.3621    0.0000 H   0  0  0  0  0  0  0  0  0  0  0  0
  -12.6069    3.9728    0.0000 H   0  0  0  0  0  0  0  0  0  0  0  0
   -9.6314    5.2898    0.0000 H   0  0  0  0  0  0  0  0  0  0  0  0
  -10.7659    6.6671    0.0000 H   0  0  0  0  0  0  0  0  0  0  0  0
   -9.1396    3.5412    0.0000 H   0  0  0  0  0  0  0  0  0  0  0  0
   -9.5190    6.1188    0.0000 H   0  0  0  0  0  0  0  0  0  0  0  0
  -11.5794    8.8125    0.0000 H   0  0  0  0  0  0  0  0  0  0  0  0
  -10.7824   11.3882    0.0000 H   0  0  0  0  0  0  0  0  0  0  0  0
  -11.5791    9.7915    0.0000 H   0  0  0  0  0  0  0  0  0  0  0  0
   -7.4320   11.4109    0.0000 H   0  0  0  0  0  0  0  0  0  0  0  0
   -7.6880    9.7972    0.0000 H   0  0  0  0  0  0  0  0  0  0  0  0
   -9.4827   13.6378    0.0000 H   0  0  0  0  0  0  0  0  0  0  0  0
  -10.2984   12.4063    0.0000 H   0  0  0  0  0  0  0  0  0  0  0  0
   -6.0610   12.6369    0.0000 H   0  0  0  0  0  0  0  0  0  0  0  0
   -6.2026   16.8003    0.0000 H   0  0  0  0  0  0  0  0  0  0  0  0
   -4.9042   14.5499    0.0000 H   0  0  0  0  0  0  0  0  0  0  0  0
   -8.8007   16.8011    0.0000 H   0  0  0  0  0  0  0  0  0  0  0  0
  -10.1004   14.5515    0.0000 H   0  0  0  0  0  0  0  0  0  0  0  0
  -10.2983   10.8077    0.0000 H   0  0  0  0  0  0  0  0  0  0  0  0
  -10.1476   12.3678    0.0000 H   0  0  0  0  0  0  0  0  0  0  0  0
   -9.1914   13.5909    0.0000 H   0  0  0  0  0  0  0  0  0  0  0  0
   -7.7138   14.1136    0.0000 H   0  0  0  0  0  0  0  0  0  0  0  0
   -6.2533   13.5883    0.0000 H   0  0  0  0  0  0  0  0  0  0  0  0
   -5.1169   12.1064    0.0000 H   0  0  0  0  0  0  0  0  0  0  0  0
   -6.4095    9.1567    0.0000 H   0  0  0  0  0  0  0  0  0  0  0  0
   -4.9927    8.1463    0.0000 H   0  0  0  0  0  0  0  0  0  0  0  0
   -3.2007   11.0540    0.0000 H   0  0  0  0  0  0  0  0  0  0  0  0
   -0.3885   11.2498    0.0000 H   0  0  0  0  0  0  0  0  0  0  0  0
   -2.3062   11.4520    0.0000 H   0  0  0  0  0  0  0  0  0  0  0  0
    1.1160    9.9358    0.0000 H   0  0  0  0  0  0  0  0  0  0  0  0
    0.3139    9.7166    0.0000 H   0  0  0  0  0  0  0  0  0  0  0  0
    0.6973    5.7595    0.0000 H   0  0  0  0  0  0  0  0  0  0  0  0
   -1.0356    6.6053    0.0000 H   0  0  0  0  0  0  0  0  0  0  0  0
    2.0117    4.7274    0.0000 H   0  0  0  0  0  0  0  0  0  0  0  0
    3.8036    7.6351    0.0000 H   0  0  0  0  0  0  0  0  0  0  0  0
    7.0219    6.5802    0.0000 H   0  0  0  0  0  0  0  0  0  0  0  0
    6.6159    7.8309    0.0000 H   0  0  0  0  0  0  0  0  0  0  0  0
    4.6981    8.0331    0.0000 H   0  0  0  0  0  0  0  0  0  0  0  0
    7.1588    6.3879    0.0000 H   0  0  0  0  0  0  0  0  0  0  0  0
    5.6876    3.1365    0.0000 H   0  0  0  0  0  0  0  0  0  0  0  0
    5.6230    1.6672    0.0000 H   0  0  0  0  0  0  0  0  0  0  0  0
    5.5419    1.0477    0.0000 H   0  0  0  0  0  0  0  0  0  0  0  0
    5.8300   -0.0564    0.0000 H   0  0  0  0  0  0  0  0  0  0  0  0
    6.0351   -0.6294    0.0000 H   0  0  0  0  0  0  0  0  0  0  0  0
    6.8095   -1.8798    0.0000 H   0  0  0  0  0  0  0  0  0  0  0  0
    7.3801   -2.8350    0.0000 H   0  0  0  0  0  0  0  0  0  0  0  0
    4.9706    2.3050    0.0000 H   0  0  0  0  0  0  0  0  0  0  0  0
    4.3852    3.6336    0.0000 H   0  0  0  0  0  0  0  0  0  0  0  0
    5.5489    5.0110    0.0000 H   0  0  0  0  0  0  0  0  0  0  0  0
    8.4509    7.3228    0.0000 H   0  0  0  0  0  0  0  0  0  0  0  0
    9.3958    7.5227    0.0000 H   0  0  0  0  0  0  0  0  0  0  0  0
   12.1287    9.1700    0.0000 H   0  0  0  0  0  0  0  0  0  0  0  0
   12.5372    7.7504    0.0000 H   0  0  0  0  0  0  0  0  0  0  0  0
    8.7327    9.8955    0.0000 H   0  0  0  0  0  0  0  0  0  0  0  0
    9.0135    8.1333    0.0000 H   0  0  0  0  0  0  0  0  0  0  0  0
   11.4256   11.8260    0.0000 H   0  0  0  0  0  0  0  0  0  0  0  0
   11.9191   10.1111    0.0000 H   0  0  0  0  0  0  0  0  0  0  0  0
    8.0350   11.4140    0.0000 H   0  0  0  0  0  0  0  0  0  0  0  0
    9.3842   15.7070    0.0000 H   0  0  0  0  0  0  0  0  0  0  0  0
    7.4703   13.9500    0.0000 H   0  0  0  0  0  0  0  0  0  0  0  0
   11.8627   14.9281    0.0000 H   0  0  0  0  0  0  0  0  0  0  0  0
   12.4274   12.3921    0.0000 H   0  0  0  0  0  0  0  0  0  0  0  0
   14.0790    7.9978    0.0000 H   0  0  0  0  0  0  0  0  0  0  0  0
   14.8244    7.3837    0.0000 H   0  0  0  0  0  0  0  0  0  0  0  0
   17.8162    6.2741    0.0000 H   0  0  0  0  0  0  0  0  0  0  0  0
   16.9610    5.0697    0.0000 H   0  0  0  0  0  0  0  0  0  0  0  0
   16.2661    9.3816    0.0000 H   0  0  0  0  0  0  0  0  0  0  0  0
   15.0634    8.0633    0.0000 H   0  0  0  0  0  0  0  0  0  0  0  0
   19.4544    8.4798    0.0000 H   0  0  0  0  0  0  0  0  0  0  0  0
   18.4214    7.0248    0.0000 H   0  0  0  0  0  0  0  0  0  0  0  0
   17.0183   10.8738    0.0000 H   0  0  0  0  0  0  0  0  0  0  0  0
   21.2159   12.4957    0.0000 H   0  0  0  0  0  0  0  0  0  0  0  0
   18.6489   12.8965    0.0000 H   0  0  0  0  0  0  0  0  0  0  0  0
   22.1523   10.0722    0.0000 H   0  0  0  0  0  0  0  0  0  0  0  0
   20.5216    8.0495    0.0000 H   0  0  0  0  0  0  0  0  0  0  0  0
   18.1157    4.0185    0.0000 H   0  0  0  0  0  0  0  0  0  0  0  0
   18.1004    3.0528    0.0000 H   0  0  0  0  0  0  0  0  0  0  0  0
   19.0982    0.0220    0.0000 H   0  0  0  0  0  0  0  0  0  0  0  0
   17.6234   -0.0604    0.0000 H   0  0  0  0  0  0  0  0  0  0  0  0
   20.5612    3.1713    0.0000 H   0  0  0  0  0  0  0  0  0  0  0  0
   18.7807    3.2897    0.0000 H   0  0  0  0  0  0  0  0  0  0  0  0
   21.8441    0.1164    0.0000 H   0  0  0  0  0  0  0  0  0  0  0  0
   20.0625    0.0168    0.0000 H   0  0  0  0  0  0  0  0  0  0  0  0
   22.1970    3.5136    0.0000 H   0  0  0  0  0  0  0  0  0  0  0  0
   26.0821    1.2430    0.0000 H   0  0  0  0  0  0  0  0  0  0  0  0
   24.7950    3.4999    0.0000 H   0  0  0  0  0  0  0  0  0  0  0  0
   24.7712   -1.0001    0.0000 H   0  0  0  0  0  0  0  0  0  0  0  0
   22.1731   -0.9863    0.0000 H   0  0  0  0  0  0  0  0  0  0  0  0
   17.5215   -1.6186    0.0000 H   0  0  0  0  0  0  0  0  0  0  0  0
   13.7797   -4.2628    0.0000 H   0  0  0  0  0  0  0  0  0  0  0  0
   15.0310   -3.8807    0.0000 H   0  0  0  0  0  0  0  0  0  0  0  0
   12.0763   -4.5975    0.0000 H   0  0  0  0  0  0  0  0  0  0  0  0
   13.2154   -4.5311    0.0000 H   0  0  0  0  0  0  0  0  0  0  0  0
   10.0397   -4.2282    0.0000 H   0  0  0  0  0  0  0  0  0  0  0  0
   11.4679   -4.5791    0.0000 H   0  0  0  0  0  0  0  0  0  0  0  0
    8.9551   -3.9800    0.0000 H   0  0  0  0  0  0  0  0  0  0  0  0
   17.4211   -3.7121    0.0000 H   0  0  0  0  0  0  0  0  0  0  0  0
   18.1898   -2.1017    0.0000 H   0  0  0  0  0  0  0  0  0  0  0  0
   17.2308   -0.9782    0.0000 H   0  0  0  0  0  0  0  0  0  0  0  0
   18.1667   -3.2349    0.0000 H   0  0  0  0  0  0  0  0  0  0  0  0
   15.6177   -5.2701    0.0000 H   0  0  0  0  0  0  0  0  0  0  0  0
   17.0110   -8.4509    0.0000 H   0  0  0  0  0  0  0  0  0  0  0  0
   18.2391   -7.3733    0.0000 H   0  0  0  0  0  0  0  0  0  0  0  0
   13.8716   -7.3914    0.0000 H   0  0  0  0  0  0  0  0  0  0  0  0
   14.9758   -5.9897    0.0000 H   0  0  0  0  0  0  0  0  0  0  0  0
   15.2816  -10.3898    0.0000 H   0  0  0  0  0  0  0  0  0  0  0  0
   16.5485   -9.1331    0.0000 H   0  0  0  0  0  0  0  0  0  0  0  0
   12.5221   -8.3771    0.0000 H   0  0  0  0  0  0  0  0  0  0  0  0
   11.6071  -12.7831    0.0000 H   0  0  0  0  0  0  0  0  0  0  0  0
   10.7927  -10.3160    0.0000 H   0  0  0  0  0  0  0  0  0  0  0  0
   14.1509  -13.3114    0.0000 H   0  0  0  0  0  0  0  0  0  0  0  0
   15.8803  -11.3725    0.0000 H   0  0  0  0  0  0  0  0  0  0  0  0
   17.6537   -8.6033    0.0000 H   0  0  0  0  0  0  0  0  0  0  0  0
   20.4078   -6.6244    0.0000 H   0  0  0  0  0  0  0  0  0  0  0  0
   22.7388   -9.1171    0.0000 H   0  0  0  0  0  0  0  0  0  0  0  0
   23.0265   -7.6682    0.0000 H   0  0  0  0  0  0  0  0  0  0  0  0
   21.3864   -6.6540    0.0000 H   0  0  0  0  0  0  0  0  0  0  0  0
   22.9940   -9.3543    0.0000 H   0  0  0  0  0  0  0  0  0  0  0  0
   20.4283  -11.5719    0.0000 H   0  0  0  0  0  0  0  0  0  0  0  0
   20.1982  -13.5561    0.0000 H   0  0  0  0  0  0  0  0  0  0  0  0
   21.6557  -14.5856    0.0000 H   0  0  0  0  0  0  0  0  0  0  0  0
   23.0664  -13.4927    0.0000 H   0  0  0  0  0  0  0  0  0  0  0  0
   22.4810  -14.7227    0.0000 H   0  0  0  0  0  0  0  0  0  0  0  0
   25.2351  -12.7438    0.0000 H   0  0  0  0  0  0  0  0  0  0  0  0
   27.5661  -15.2365    0.0000 H   0  0  0  0  0  0  0  0  0  0  0  0
   27.8538  -13.7876    0.0000 H   0  0  0  0  0  0  0  0  0  0  0  0
   26.2137  -12.7734    0.0000 H   0  0  0  0  0  0  0  0  0  0  0  0
   27.8213  -15.4737    0.0000 H   0  0  0  0  0  0  0  0  0  0  0  0
   25.2556  -17.6913    0.0000 H   0  0  0  0  0  0  0  0  0  0  0  0
   25.0255  -19.6755    0.0000 H   0  0  0  0  0  0  0  0  0  0  0  0
   26.6656  -20.6898    0.0000 H   0  0  0  0  0  0  0  0  0  0  0  0
   27.9325  -19.4331    0.0000 H   0  0  0  0  0  0  0  0  0  0  0  0
  1  2  1  0
  2  3  1  0
  3  4  2  0
  4  5  1  0
  5  6  2  0
  6  7  1  0
  7  8  2  0
  7  9  1  0
  9 10  1  0
 10 11  1  0
 11 12  2  0
  9 13  1  0
 13 14  1  0
 14 15  2  0
 15 16  1  0
 16 17  2  0
 17 18  1  0
 16 19  1  0
 14 20  1  0
 20 21  1  0
 21 22  2  0
 22 23  1  0
 23 24  2  0
 24 25  1  0
 25 26  2  0
 25 27  1  0
  1 28  2  0
  1 29  1  0
 29 30  1  0
 30 31  1  0
 31 32  1  0
 32 33  2  0
 32 34  1  0
 34 35  1  0
 35 36  1  0
 36 37  1  0
 37 38  1  0
 38 39  1  0
 39 40  1  0
 40 41  2  3
 40 42  1  0
 35 43  1  0
 43 44  2  0
 43 45  1  0
 45 46  1  0
 46 47  1  0
 47 48  1  0
 48 49  1  0
 49 50  1  0
 50 51  1  0
 51 52  2  3
 51 53  1  0
 46 54  1  0
 54 55  2  0
 54 56  1  0
 56 57  1  0
 57 58  1  0
 58 59  2  0
 58 60  1  0
 60 61  1  0
 61 62  1  0
 62 63  1  0
 61 64  1  0
 64 65  2  0
 64 66  1  0
 66 67  1  0
 67 68  1  0
 68 69  1  0
 69 70  1  0
 70 71  1  0
 71 72  1  0
 72 73  2  3
 72 74  1  0
 67 75  1  0
 75 76  2  0
 75 77  1  0
 77 78  1  0
 78 79  1  0
 79 80  1  0
 80 81  1  0
 81 82  1  0
 82 83  2  0
 82 84  1  0
 84 85  1  0
 85 86  1  0
 86 87  1  0
 85 88  1  0
 88 89  2  0
 88 90  1  0
 90 91  1  0
 91 92  1  0
 92 93  2  0
 92 94  1  0
 94 95  1  0
 95 96  1  0
 95 97  1  0
 97 98  2  0
 97 99  1  0
100 99  1  6
100101  1  0
101102  1  0
102103  1  0
103104  1  0
100105  1  0
100106  1  0
106107  2  0
106108  1  0
108109  1  0
109110  1  0
110111  1  0
111112  1  0
112113  1  0
113114  1  0
114115  2  3
114116  1  0
109117  1  0
117118  2  0
117119  1  0
119120  1  0
120121  1  0
121122  1  0
122123  1  0
123124  1  0
124125  1  0
125126  2  3
125127  1  0
120128  1  0
128129  2  0
128130  1  0
130131  1  0
131132  1  0
132133  1  0
133134  1  0
134135  1  0
135136  1  0
136137  2  3
136138  1  0
131139  1  0
139140  2  0
139141  1  0
141142  1  0
142143  1  0
143144  1  0
144145  1  0
145146  1  0
142147  1  0
142148  1  6
148149  2  0
148150  1  0
150151  1  0
151152  1  0
152153  1  0
153154  1  0
154155  1  0
155156  1  0
156157  2  3
156158  1  0
151159  1  0
159160  2  0
159161  1  0
161162  1  0
162163  1  0
162164  1  0
164165  2  0
164166  1  0
166167  1  0
167168  1  0
167169  1  0
169170  2  0
169171  1  0
171172  1  0
172173  1  0
172174  1  0
174175  2  0
174176  1  0
176177  1  0
177178  1  0
177179  1  0
179180  2  0
179181  1  0
  8  3  1  0
 81 77  1  0
 11  6  1  0
 18 13  2  0
104146  2  0
 22  9  1  0
 26 21  1  0
  2182  1  0
  4183  1  0
  5184  1  0
  8185  1  0
 15186  1  0
 17187  1  0
 18188  1  0
 19189  1  0
 23190  1  0
 24191  1  0
 26192  1  0
 27193  1  0
 29194  1  0
 30195  1  0
 30196  1  0
 31197  1  0
 31198  1  0
 34199  1  0
 35200  1  1
 36201  1  0
 36202  1  0
 37203  1  0
 37204  1  0
 38205  1  0
 38206  1  0
 39207  1  0
 41208  1  0
 41209  1  0
 42210  1  0
 42211  1  0
 45212  1  0
 46213  1  6
 47214  1  0
 47215  1  0
 48216  1  0
 48217  1  0
 49218  1  0
 49219  1  0
 50220  1  0
 52221  1  0
 52222  1  0
 53223  1  0
 53224  1  0
 56225  1  0
 57226  1  0
 57227  1  0
 60228  1  0
 61229  1  6
 62230  1  0
 62231  1  0
 63232  1  0
 66233  1  0
 67234  1  1
 68235  1  0
 68236  1  0
 69237  1  0
 69238  1  0
 70239  1  0
 70240  1  0
 71241  1  0
 73242  1  0
 73243  1  0
 74244  1  0
 74245  1  0
 78246  1  0
 78247  1  0
 79248  1  0
 79249  1  0
 80250  1  0
 80251  1  0
 81252  1  0
 84253  1  0
 85254  1  1
 86255  1  0
 86256  1  0
 87257  1  0
 90258  1  0
 91259  1  0
 91260  1  0
 94261  1  0
 95262  1  1
 96263  1  0
 96264  1  0
 96265  1  0
 99266  1  0
101267  1  0
101268  1  0
102269  1  0
102270  1  0
103271  1  0
103272  1  0
104273  1  0
105274  1  0
105275  1  0
105276  1  0
108277  1  0
109278  1  1
110279  1  0
110280  1  0
111281  1  0
111282  1  0
112283  1  0
112284  1  0
113285  1  0
115286  1  0
115287  1  0
116288  1  0
116289  1  0
119290  1  0
120291  1  1
121292  1  0
121293  1  0
122294  1  0
122295  1  0
123296  1  0
123297  1  0
124298  1  0
126299  1  0
126300  1  0
127301  1  0
127302  1  0
130303  1  0
131304  1  1
132305  1  0
132306  1  0
133307  1  0
133308  1  0
134309  1  0
134310  1  0
135311  1  0
137312  1  0
137313  1  0
138314  1  0
138315  1  0
141316  1  0
143317  1  0
143318  1  0
144319  1  0
144320  1  0
145321  1  0
145322  1  0
146323  1  0
147324  1  0
147325  1  0
147326  1  0
150327  1  0
151328  1  6
152329  1  0
152330  1  0
153331  1  0
153332  1  0
154333  1  0
154334  1  0
155335  1  0
157336  1  0
157337  1  0
158338  1  0
158339  1  0
161340  1  0
162341  1  1
163342  1  0
163343  1  0
163344  1  0
166345  1  0
167346  1  6
168347  1  0
168348  1  0
168349  1  0
171350  1  0
172351  1  1
173352  1  0
173353  1  0
173354  1  0
176355  1  0
177356  1  6
178357  1  0
178358  1  0
178359  1  0
M  CHG  8  41   1  52   1  73   1 115   1 126   1 137   1 157   1 181  -1
M  END
