
     RDKit          2D

303310  0  0  0  0  0  0  0  0999 V2000
   20.2206   -3.5656    0.0000 C   0  0  0  0  0  0  0  0  0  0  0  0
   21.5620   -2.8943    0.0000 N   0  0  0  0  0  0  0  0  0  0  0  0
   22.8140   -3.7204    0.0000 C   0  0  0  0  0  0  0  0  0  0  0  0
   22.7246   -5.2178    0.0000 C   0  0  0  0  0  0  0  0  0  0  0  0
   23.9766   -6.0438    0.0000 C   0  0  0  0  0  0  0  0  0  0  0  0
   25.3181   -5.3726    0.0000 C   0  0  0  0  0  0  0  0  0  0  0  0
   25.4075   -3.8753    0.0000 C   0  0  0  0  0  0  0  0  0  0  0  0
   24.1554   -3.0492    0.0000 C   0  0  0  0  0  0  0  0  0  0  0  0
   26.8591   -3.4976    0.0000 C   0  0  0  0  0  0  0  0  0  0  0  0
   27.6669   -4.7615    0.0000 O   0  0  0  0  0  0  0  0  0  0  0  0
   26.7145   -5.9203    0.0000 C   0  0  0  0  0  0  0  0  0  0  0  0
   27.0922   -7.3720    0.0000 O   0  0  0  0  0  0  0  0  0  0  0  0
   28.3423   -3.2737    0.0000 C   0  0  0  0  0  0  0  0  0  0  0  0
   28.8901   -1.8773    0.0000 C   0  0  0  0  0  0  0  0  0  0  0  0
   30.3733   -1.6534    0.0000 C   0  0  0  0  0  0  0  0  0  0  0  0
   31.3087   -2.8260    0.0000 C   0  0  0  0  0  0  0  0  0  0  0  0
   30.7610   -4.2224    0.0000 C   0  0  0  0  0  0  0  0  0  0  0  0
   29.2778   -4.4463    0.0000 C   0  0  0  0  0  0  0  0  0  0  0  0
   32.7919   -2.6021    0.0000 O   0  0  0  0  0  0  0  0  0  0  0  0
   27.9546   -0.7047    0.0000 O   0  0  0  0  0  0  0  0  0  0  0  0
   26.4714   -0.9286    0.0000 C   0  0  0  0  0  0  0  0  0  0  0  0
   25.9237   -2.3250    0.0000 C   0  0  0  0  0  0  0  0  0  0  0  0
   24.6961   -1.8972    0.0000 C   0  0  0  0  0  0  0  0  0  0  0  0
   24.1971   -1.2719    0.0000 C   0  0  0  0  0  0  0  0  0  0  0  0
   24.4893   -0.5271    0.0000 C   0  0  0  0  0  0  0  0  0  0  0  0
   25.2803   -0.4077    0.0000 C   0  0  0  0  0  0  0  0  0  0  0  0
   23.1172    1.1926    0.0000 O   0  0  0  0  0  0  0  0  0  0  0  0
   20.1312   -5.0629    0.0000 S   0  0  0  0  0  0  0  0  0  0  0  0
   18.9685   -2.7395    0.0000 N   0  0  0  0  0  0  0  0  0  0  0  0
   17.6271   -3.4107    0.0000 C   0  0  0  0  0  0  0  0  0  0  0  0
   16.3751   -2.5847    0.0000 C   0  0  0  0  0  0  0  0  0  0  0  0
   15.0336   -3.2559    0.0000 C   0  0  0  0  0  0  0  0  0  0  0  0
   15.1801   -4.0395    0.0000 O   0  0  0  0  0  0  0  0  0  0  0  0
   13.7816   -2.4298    0.0000 N   0  0  0  0  0  0  0  0  0  0  0  0
   12.4402   -3.1011    0.0000 C   0  0  0  0  0  0  0  0  0  0  0  0
   13.3342   -4.3056    0.0000 C   0  0  0  0  0  0  0  0  0  0  0  0
   14.8243   -4.1336    0.0000 C   0  0  0  0  0  0  0  0  0  0  0  0
   15.7183   -5.3381    0.0000 N   0  0  0  0  0  0  0  0  0  0  0  0
   15.7358   -2.9423    0.0000 O   0  0  0  0  0  0  0  0  0  0  0  0
   10.9501   -3.2730    0.0000 C   0  0  0  0  0  0  0  0  0  0  0  0
   10.7047   -4.7528    0.0000 O   0  0  0  0  0  0  0  0  0  0  0  0
   10.0561   -2.0686    0.0000 N   0  0  0  0  0  0  0  0  0  0  0  0
    8.5660   -2.2405    0.0000 C   0  0  0  0  0  0  0  0  0  0  0  0
    8.9941   -3.6781    0.0000 C   0  0  0  0  0  0  0  0  0  0  0  0
   10.4532   -4.0262    0.0000 C   0  0  0  0  0  0  0  0  0  0  0  0
   10.8813   -5.4638    0.0000 C   0  0  0  0  0  0  0  0  0  0  0  0
   12.2870   -5.9871    0.0000 O   0  0  0  0  0  0  0  0  0  0  0  0
    9.8503   -6.5534    0.0000 O   0  0  0  0  0  0  0  0  0  0  0  0
    7.1069   -1.8925    0.0000 C   0  0  0  0  0  0  0  0  0  0  0  0
    6.3702   -3.1991    0.0000 O   0  0  0  0  0  0  0  0  0  0  0  0
    6.6788   -0.4549    0.0000 N   0  0  0  0  0  0  0  0  0  0  0  0
    5.2197   -0.1068    0.0000 C   0  0  0  0  0  0  0  0  0  0  0  0
    5.1303   -1.6042    0.0000 C   0  0  0  0  0  0  0  0  0  0  0  0
    6.3824   -2.4303    0.0000 C   0  0  0  0  0  0  0  0  0  0  0  0
    6.2930   -3.9276    0.0000 C   0  0  0  0  0  0  0  0  0  0  0  0
    7.8414   -2.7783    0.0000 C   0  0  0  0  0  0  0  0  0  0  0  0
    3.9677    0.7193    0.0000 C   0  0  0  0  0  0  0  0  0  0  0  0
    2.8286   -0.2566    0.0000 O   0  0  0  0  0  0  0  0  0  0  0  0
    4.0571    2.2166    0.0000 N   0  0  0  0  0  0  0  0  0  0  0  0
    2.8051    3.0427    0.0000 C   0  0  0  0  0  0  0  0  0  0  0  0
    2.6209    1.5540    0.0000 C   0  0  0  0  0  0  0  0  0  0  0  0
    2.1583    0.1271    0.0000 C   0  0  0  0  0  0  0  0  0  0  0  0
    1.4340   -1.1864    0.0000 C   0  0  0  0  0  0  0  0  0  0  0  0
    0.4743   -2.3392    0.0000 C   0  0  0  0  0  0  0  0  0  0  0  0
   -0.6863   -3.2895    0.0000 C   0  0  0  0  0  0  0  0  0  0  0  0
   -2.0058   -4.0029    0.0000 C   0  0  0  0  0  0  0  0  0  0  0  0
   -3.4364   -4.4538    0.0000 C   0  0  0  0  0  0  0  0  0  0  0  0
    4.1012    3.7976    0.0000 C   0  0  0  0  0  0  0  0  0  0  0  0
    2.7042    4.5393    0.0000 C   0  0  0  0  0  0  0  0  0  0  0  0
    4.1438    4.9606    0.0000 O   0  0  0  0  0  0  0  0  0  0  0  0
    2.3219    5.9897    0.0000 N   0  0  0  0  0  0  0  0  0  0  0  0
    1.6720    7.3417    0.0000 C   0  0  0  0  0  0  0  0  0  0  0  0
    2.3542    8.6775    0.0000 C   0  0  0  0  0  0  0  0  0  0  0  0
    3.8523    8.7546    0.0000 C   0  0  0  0  0  0  0  0  0  0  0  0
    4.5345   10.0905    0.0000 C   0  0  0  0  0  0  0  0  0  0  0  0
    6.0325   10.1676    0.0000 N   0  0  0  0  0  0  0  0  0  0  0  0
    6.7147   11.5035    0.0000 C   0  0  0  0  0  0  0  0  0  0  0  0
    8.2127   11.5806    0.0000 N   0  0  0  0  0  0  0  0  0  0  0  0
    5.8989   12.7623    0.0000 N   0  0  0  0  0  0  0  0  0  0  0  0
    0.7780    8.5461    0.0000 C   0  0  0  0  0  0  0  0  0  0  0  0
    1.7613    9.6789    0.0000 O   0  0  0  0  0  0  0  0  0  0  0  0
   -0.3277    9.5597    0.0000 N   0  0  0  0  0  0  0  0  0  0  0  0
   -1.6054   10.3456    0.0000 C   0  0  0  0  0  0  0  0  0  0  0  0
   -1.7537   11.8383    0.0000 C   0  0  0  0  0  0  0  0  0  0  0  0
   -0.5351   12.7130    0.0000 O   0  0  0  0  0  0  0  0  0  0  0  0
   -3.0086   10.8756    0.0000 C   0  0  0  0  0  0  0  0  0  0  0  0
   -2.7938   12.3601    0.0000 O   0  0  0  0  0  0  0  0  0  0  0  0
   -4.4868   11.1304    0.0000 N   0  0  0  0  0  0  0  0  0  0  0  0
   -5.9865   11.1008    0.0000 C   0  0  0  0  0  0  0  0  0  0  0  0
   -6.9183   12.2763    0.0000 C   0  0  0  0  0  0  0  0  0  0  0  0
   -6.3661   13.6710    0.0000 C   0  0  0  0  0  0  0  0  0  0  0  0
   -4.8822   13.8902    0.0000 C   0  0  0  0  0  0  0  0  0  0  0  0
   -4.3301   15.2849    0.0000 C   0  0  0  0  0  0  0  0  0  0  0  0
   -5.2618   16.4604    0.0000 C   0  0  0  0  0  0  0  0  0  0  0  0
   -6.7457   16.2412    0.0000 C   0  0  0  0  0  0  0  0  0  0  0  0
   -7.2979   14.8465    0.0000 C   0  0  0  0  0  0  0  0  0  0  0  0
   -7.4535   10.7880    0.0000 C   0  0  0  0  0  0  0  0  0  0  0  0
   -8.0754   12.1530    0.0000 O   0  0  0  0  0  0  0  0  0  0  0  0
   -8.8348   10.2032    0.0000 N   0  0  0  0  0  0  0  0  0  0  0  0
  -10.0805    9.3675    0.0000 C   0  0  0  0  0  0  0  0  0  0  0  0
  -11.4999    9.8527    0.0000 C   0  0  0  0  0  0  0  0  0  0  0  0
  -11.7894   11.3245    0.0000 C   0  0  0  0  0  0  0  0  0  0  0  0
  -10.6595   12.3111    0.0000 C   0  0  0  0  0  0  0  0  0  0  0  0
  -10.9491   13.7829    0.0000 C   0  0  0  0  0  0  0  0  0  0  0  0
  -12.3684   14.2680    0.0000 C   0  0  0  0  0  0  0  0  0  0  0  0
  -13.4983   13.2814    0.0000 C   0  0  0  0  0  0  0  0  0  0  0  0
  -13.2088   11.8096    0.0000 C   0  0  0  0  0  0  0  0  0  0  0  0
  -11.1455    8.3112    0.0000 C   0  0  0  0  0  0  0  0  0  0  0  0
  -12.4067    9.1233    0.0000 O   0  0  0  0  0  0  0  0  0  0  0  0
  -11.9913    7.0724    0.0000 N   0  0  0  0  0  0  0  0  0  0  0  0
  -12.5875    5.6960    0.0000 C   0  0  0  0  0  0  0  0  0  0  0  0
  -14.0438    5.3367    0.0000 C   0  0  0  0  0  0  0  0  0  0  0  0
  -15.0831    6.4184    0.0000 O   0  0  0  0  0  0  0  0  0  0  0  0
  -12.9123    4.2316    0.0000 C   0  0  0  0  0  0  0  0  0  0  0  0
  -14.4123    4.2329    0.0000 O   0  0  0  0  0  0  0  0  0  0  0  0
  -12.9542    2.7322    0.0000 N   0  0  0  0  0  0  0  0  0  0  0  0
  -12.7115    1.2519    0.0000 C   0  0  0  0  0  0  0  0  0  0  0  0
  -13.7424    0.1624    0.0000 C   0  0  0  0  0  0  0  0  0  0  0  0
  -15.2015    0.5104    0.0000 C   0  0  0  0  0  0  0  0  0  0  0  0
  -16.2324   -0.5792    0.0000 C   0  0  0  0  0  0  0  0  0  0  0  0
  -16.4535    1.3365    0.0000 C   0  0  0  0  0  0  0  0  0  0  0  0
  -12.1931   -0.1556    0.0000 C   0  0  0  0  0  0  0  0  0  0  0  0
  -13.4557   -0.9655    0.0000 O   0  0  0  0  0  0  0  0  0  0  0  0
  -11.4176   -1.4397    0.0000 N   0  0  0  0  0  0  0  0  0  0  0  0
  -10.4132   -2.5537    0.0000 C   0  0  0  0  0  0  0  0  0  0  0  0
   -9.2161   -3.4575    0.0000 C   0  0  0  0  0  0  0  0  0  0  0  0
   -7.8695   -4.1185    0.0000 C   0  0  0  0  0  0  0  0  0  0  0  0
   -6.4222   -4.5126    0.0000 C   0  0  0  0  0  0  0  0  0  0  0  0
   -4.9265   -4.6258    0.0000 C   0  0  0  0  0  0  0  0  0  0  0  0
  -11.8574   -2.9590    0.0000 C   0  0  0  0  0  0  0  0  0  0  0  0
  -10.6914   -4.0277    0.0000 C   0  0  0  0  0  0  0  0  0  0  0  0
   -9.8245   -5.2518    0.0000 O   0  0  0  0  0  0  0  0  0  0  0  0
  -12.1070   -4.5237    0.0000 N   0  0  0  0  0  0  0  0  0  0  0  0
  -12.3852   -5.9977    0.0000 C   0  0  0  0  0  0  0  0  0  0  0  0
  -12.1426   -7.4779    0.0000 C   0  0  0  0  0  0  0  0  0  0  0  0
  -13.3031   -8.4282    0.0000 C   0  0  0  0  0  0  0  0  0  0  0  0
  -13.0605   -9.9084    0.0000 O   0  0  0  0  0  0  0  0  0  0  0  0
  -14.7929   -8.2536    0.0000 O   0  0  0  0  0  0  0  0  0  0  0  0
  -13.8009   -6.4937    0.0000 C   0  0  0  0  0  0  0  0  0  0  0  0
  -14.9382   -5.5158    0.0000 O   0  0  0  0  0  0  0  0  0  0  0  0
  -14.0791   -7.9677    0.0000 N   0  0  0  0  0  0  0  0  0  0  0  0
  -15.4947   -8.4637    0.0000 C   0  0  0  0  0  0  0  0  0  0  0  0
  -16.9946   -8.4457    0.0000 C   0  0  0  0  0  0  0  0  0  0  0  0
  -17.7602   -9.7356    0.0000 C   0  0  0  0  0  0  0  0  0  0  0  0
  -19.2600   -9.7175    0.0000 C   0  0  0  0  0  0  0  0  0  0  0  0
  -20.1771  -10.9045    0.0000 N   0  0  0  0  0  0  0  0  0  0  0  0
  -19.9944   -8.4096    0.0000 O   0  0  0  0  0  0  0  0  0  0  0  0
  -15.7729   -9.9377    0.0000 C   0  0  0  0  0  0  0  0  0  0  0  0
  -14.6355  -10.9156    0.0000 O   0  0  0  0  0  0  0  0  0  0  0  0
  -17.1885  -10.4337    0.0000 N   0  0  0  0  0  0  0  0  0  0  0  0
  -17.4667  -11.9077    0.0000 C   0  0  0  0  0  0  0  0  0  0  0  0
  -17.2241  -13.3879    0.0000 C   0  0  0  0  0  0  0  0  0  0  0  0
  -18.3847  -14.3382    0.0000 C   0  0  0  0  0  0  0  0  0  0  0  0
  -16.4898  -14.6959    0.0000 C   0  0  0  0  0  0  0  0  0  0  0  0
  -14.9899  -14.7140    0.0000 C   0  0  0  0  0  0  0  0  0  0  0  0
  -18.8824  -12.4037    0.0000 C   0  0  0  0  0  0  0  0  0  0  0  0
  -19.3382  -13.8328    0.0000 O   0  0  0  0  0  0  0  0  0  0  0  0
  -20.1305  -11.5717    0.0000 O   0  0  0  0  0  0  0  0  0  0  0  0
   21.4682   -1.3973    0.0000 H   0  0  0  0  0  0  0  0  0  0  0  0
   21.3832   -5.8890    0.0000 H   0  0  0  0  0  0  0  0  0  0  0  0
   23.8873   -7.5412    0.0000 H   0  0  0  0  0  0  0  0  0  0  0  0
   23.8799   -1.5747    0.0000 H   0  0  0  0  0  0  0  0  0  0  0  0
   30.9210   -0.2570    0.0000 H   0  0  0  0  0  0  0  0  0  0  0  0
   31.6965   -5.3949    0.0000 H   0  0  0  0  0  0  0  0  0  0  0  0
   28.7301   -5.8427    0.0000 H   0  0  0  0  0  0  0  0  0  0  0  0
   33.7274   -3.7746    0.0000 H   0  0  0  0  0  0  0  0  0  0  0  0
   23.8927   -3.9453    0.0000 H   0  0  0  0  0  0  0  0  0  0  0  0
   22.0056   -1.4177    0.0000 H   0  0  0  0  0  0  0  0  0  0  0  0
   26.0836    1.6404    0.0000 H   0  0  0  0  0  0  0  0  0  0  0  0
   23.6650    2.5891    0.0000 H   0  0  0  0  0  0  0  0  0  0  0  0
   19.0579   -1.2422    0.0000 H   0  0  0  0  0  0  0  0  0  0  0  0
   18.5211   -4.6152    0.0000 H   0  0  0  0  0  0  0  0  0  0  0  0
   16.7366   -4.6179    0.0000 H   0  0  0  0  0  0  0  0  0  0  0  0
   17.4060   -1.4951    0.0000 H   0  0  0  0  0  0  0  0  0  0  0  0
   15.4811   -1.3802    0.0000 H   0  0  0  0  0  0  0  0  0  0  0  0
   13.8710   -0.9325    0.0000 H   0  0  0  0  0  0  0  0  0  0  0  0
   12.0121   -1.6635    0.0000 H   0  0  0  0  0  0  0  0  0  0  0  0
   13.7623   -5.7432    0.0000 H   0  0  0  0  0  0  0  0  0  0  0  0
   12.0846   -5.1353    0.0000 H   0  0  0  0  0  0  0  0  0  0  0  0
   17.2182   -5.3490    0.0000 H   0  0  0  0  0  0  0  0  0  0  0  0
   15.1221   -6.7145    0.0000 H   0  0  0  0  0  0  0  0  0  0  0  0
   10.6522   -0.6921    0.0000 H   0  0  0  0  0  0  0  0  0  0  0  0
    8.8372   -0.7653    0.0000 H   0  0  0  0  0  0  0  0  0  0  0  0
    8.9047   -5.1755    0.0000 H   0  0  0  0  0  0  0  0  0  0  0  0
    7.5899   -4.2056    0.0000 H   0  0  0  0  0  0  0  0  0  0  0  0
   11.9433   -3.8542    0.0000 H   0  0  0  0  0  0  0  0  0  0  0  0
   10.9022   -2.5950    0.0000 H   0  0  0  0  0  0  0  0  0  0  0  0
   10.2784   -7.9910    0.0000 H   0  0  0  0  0  0  0  0  0  0  0  0
    7.7097    0.6347    0.0000 H   0  0  0  0  0  0  0  0  0  0  0  0
    5.8159    1.2696    0.0000 H   0  0  0  0  0  0  0  0  0  0  0  0
    4.3709   -2.8977    0.0000 H   0  0  0  0  0  0  0  0  0  0  0  0
    3.6713   -1.2561    0.0000 H   0  0  0  0  0  0  0  0  0  0  0  0
    7.2938   -1.2389    0.0000 H   0  0  0  0  0  0  0  0  0  0  0  0
    7.3079   -5.0321    0.0000 H   0  0  0  0  0  0  0  0  0  0  0  0
    5.6969   -5.3040    0.0000 H   0  0  0  0  0  0  0  0  0  0  0  0
    4.8024   -3.7600    0.0000 H   0  0  0  0  0  0  0  0  0  0  0  0
    8.2695   -4.2159    0.0000 H   0  0  0  0  0  0  0  0  0  0  0  0
    9.3289   -2.9720    0.0000 H   0  0  0  0  0  0  0  0  0  0  0  0
    7.7476   -1.2812    0.0000 H   0  0  0  0  0  0  0  0  0  0  0  0
    5.4703    2.7193    0.0000 H   0  0  0  0  0  0  0  0  0  0  0  0
    4.1145    1.6928    0.0000 H   0  0  0  0  0  0  0  0  0  0  0  0
    3.5582    0.3829    0.0000 H   0  0  0  0  0  0  0  0  0  0  0  0
    3.6222   -0.2002    0.0000 H   0  0  0  0  0  0  0  0  0  0  0  0
    3.0136   -1.1051    0.0000 H   0  0  0  0  0  0  0  0  0  0  0  0
    2.9326   -1.2521    0.0000 H   0  0  0  0  0  0  0  0  0  0  0  0
    2.2034   -2.4741    0.0000 H   0  0  0  0  0  0  0  0  0  0  0  0
    1.8800   -2.8625    0.0000 H   0  0  0  0  0  0  0  0  0  0  0  0
    0.9860   -3.7492    0.0000 H   0  0  0  0  0  0  0  0  0  0  0  0
    0.5950   -4.0694    0.0000 H   0  0  0  0  0  0  0  0  0  0  0  0
   -0.4506   -4.7708    0.0000 H   0  0  0  0  0  0  0  0  0  0  0  0
   -0.8952   -5.0112    0.0000 H   0  0  0  0  0  0  0  0  0  0  0  0
   -2.2371   -5.4850    0.0000 H   0  0  0  0  0  0  0  0  0  0  0  0
   -3.1236   -5.9208    0.0000 H   0  0  0  0  0  0  0  0  0  0  0  0
    5.4842    3.2169    0.0000 H   0  0  0  0  0  0  0  0  0  0  0  0
    5.1943    4.8248    0.0000 H   0  0  0  0  0  0  0  0  0  0  0  0
    3.4386    5.1433    0.0000 H   0  0  0  0  0  0  0  0  0  0  0  0
    3.7822    6.3327    0.0000 H   0  0  0  0  0  0  0  0  0  0  0  0
    3.1585    7.1409    0.0000 H   0  0  0  0  0  0  0  0  0  0  0  0
    2.5384   10.1662    0.0000 H   0  0  0  0  0  0  0  0  0  0  0  0
    1.0693    9.4513    0.0000 H   0  0  0  0  0  0  0  0  0  0  0  0
    5.2863    8.3148    0.0000 H   0  0  0  0  0  0  0  0  0  0  0  0
    4.0338    7.2657    0.0000 H   0  0  0  0  0  0  0  0  0  0  0  0
    4.7187   11.5792    0.0000 H   0  0  0  0  0  0  0  0  0  0  0  0
    3.1647   10.7019    0.0000 H   0  0  0  0  0  0  0  0  0  0  0  0
    6.8483    8.9089    0.0000 H   0  0  0  0  0  0  0  0  0  0  0  0
    8.8950   12.9165    0.0000 H   0  0  0  0  0  0  0  0  0  0  0  0
    6.5812   14.0982    0.0000 H   0  0  0  0  0  0  0  0  0  0  0  0
    4.4009   12.6852    0.0000 H   0  0  0  0  0  0  0  0  0  0  0  0
    0.5761   10.7568    0.0000 H   0  0  0  0  0  0  0  0  0  0  0  0
   -0.3338   11.1413    0.0000 H   0  0  0  0  0  0  0  0  0  0  0  0
   -2.2339   13.2593    0.0000 H   0  0  0  0  0  0  0  0  0  0  0  0
   -3.2530   11.7945    0.0000 H   0  0  0  0  0  0  0  0  0  0  0  0
   -0.6835   14.2057    0.0000 H   0  0  0  0  0  0  0  0  0  0  0  0
   -4.1922   12.6012    0.0000 H   0  0  0  0  0  0  0  0  0  0  0  0
   -5.3470   12.4577    0.0000 H   0  0  0  0  0  0  0  0  0  0  0  0
   -8.0906   13.2122    0.0000 H   0  0  0  0  0  0  0  0  0  0  0  0
   -8.1560   11.4289    0.0000 H   0  0  0  0  0  0  0  0  0  0  0  0
   -3.8141   12.8370    0.0000 H   0  0  0  0  0  0  0  0  0  0  0  0
   -2.8462   15.5040    0.0000 H   0  0  0  0  0  0  0  0  0  0  0  0
   -4.7097   17.8551    0.0000 H   0  0  0  0  0  0  0  0  0  0  0  0
   -7.6775   17.4167    0.0000 H   0  0  0  0  0  0  0  0  0  0  0  0
   -8.7818   14.6274    0.0000 H   0  0  0  0  0  0  0  0  0  0  0  0
   -9.3822   11.5997    0.0000 H   0  0  0  0  0  0  0  0  0  0  0  0
  -10.2761   10.8547    0.0000 H   0  0  0  0  0  0  0  0  0  0  0  0
  -12.9920   10.0061    0.0000 H   0  0  0  0  0  0  0  0  0  0  0  0
  -12.0829    8.4706    0.0000 H   0  0  0  0  0  0  0  0  0  0  0  0
   -9.1916   12.0026    0.0000 H   0  0  0  0  0  0  0  0  0  0  0  0
   -9.8192   14.7695    0.0000 H   0  0  0  0  0  0  0  0  0  0  0  0
  -12.6580   15.7398    0.0000 H   0  0  0  0  0  0  0  0  0  0  0  0
  -14.9177   13.7666    0.0000 H   0  0  0  0  0  0  0  0  0  0  0  0
  -14.3386   10.8230    0.0000 H   0  0  0  0  0  0  0  0  0  0  0  0
  -13.3049    7.7967    0.0000 H   0  0  0  0  0  0  0  0  0  0  0  0
  -13.5561    6.8413    0.0000 H   0  0  0  0  0  0  0  0  0  0  0  0
  -15.3821    4.6592    0.0000 H   0  0  0  0  0  0  0  0  0  0  0  0
  -13.7871    3.8589    0.0000 H   0  0  0  0  0  0  0  0  0  0  0  0
  -16.5394    6.0591    0.0000 H   0  0  0  0  0  0  0  0  0  0  0  0
  -14.4519    2.8145    0.0000 H   0  0  0  0  0  0  0  0  0  0  0  0
  -14.0812    1.8633    0.0000 H   0  0  0  0  0  0  0  0  0  0  0  0
  -14.3386   -1.2141    0.0000 H   0  0  0  0  0  0  0  0  0  0  0  0
  -12.7275   -0.9421    0.0000 H   0  0  0  0  0  0  0  0  0  0  0  0
  -14.9562    1.9902    0.0000 H   0  0  0  0  0  0  0  0  0  0  0  0
  -17.7231   -0.4116    0.0000 H   0  0  0  0  0  0  0  0  0  0  0  0
  -16.8286   -1.9556    0.0000 H   0  0  0  0  0  0  0  0  0  0  0  0
  -15.0904   -1.5517    0.0000 H   0  0  0  0  0  0  0  0  0  0  0  0
  -17.8668    0.8338    0.0000 H   0  0  0  0  0  0  0  0  0  0  0  0
  -17.3475    2.5410    0.0000 H   0  0  0  0  0  0  0  0  0  0  0  0
  -15.4226    2.4260    0.0000 H   0  0  0  0  0  0  0  0  0  0  0  0
  -12.7221   -2.1802    0.0000 H   0  0  0  0  0  0  0  0  0  0  0  0
   -9.2103   -4.9575    0.0000 H   0  0  0  0  0  0  0  0  0  0  0  0
  -10.3552   -4.4334    0.0000 H   0  0  0  0  0  0  0  0  0  0  0  0
   -7.7616   -5.6146    0.0000 H   0  0  0  0  0  0  0  0  0  0  0  0
   -8.8034   -5.2923    0.0000 H   0  0  0  0  0  0  0  0  0  0  0  0
   -5.8594   -5.9030    0.0000 H   0  0  0  0  0  0  0  0  0  0  0  0
   -7.2739   -5.7474    0.0000 H   0  0  0  0  0  0  0  0  0  0  0  0
   -4.8970   -6.1255    0.0000 H   0  0  0  0  0  0  0  0  0  0  0  0
  -12.5692   -4.2793    0.0000 H   0  0  0  0  0  0  0  0  0  0  0  0
  -13.3531   -2.8458    0.0000 H   0  0  0  0  0  0  0  0  0  0  0  0
  -12.3625   -1.5466    0.0000 H   0  0  0  0  0  0  0  0  0  0  0  0
  -13.3551   -3.6917    0.0000 H   0  0  0  0  0  0  0  0  0  0  0  0
  -10.8853   -6.0157    0.0000 H   0  0  0  0  0  0  0  0  0  0  0  0
  -11.4082   -8.7859    0.0000 H   0  0  0  0  0  0  0  0  0  0  0  0
  -10.7270   -6.9819    0.0000 H   0  0  0  0  0  0  0  0  0  0  0  0
  -15.9790   -8.5710    0.0000 H   0  0  0  0  0  0  0  0  0  0  0  0
  -13.2121   -9.1918    0.0000 H   0  0  0  0  0  0  0  0  0  0  0  0
  -15.7374   -6.9835    0.0000 H   0  0  0  0  0  0  0  0  0  0  0  0
  -18.3978   -7.9157    0.0000 H   0  0  0  0  0  0  0  0  0  0  0  0
  -16.7164   -6.9717    0.0000 H   0  0  0  0  0  0  0  0  0  0  0  0
  -18.0384  -11.2096    0.0000 H   0  0  0  0  0  0  0  0  0  0  0  0
  -16.7701  -10.8624    0.0000 H   0  0  0  0  0  0  0  0  0  0  0  0
  -21.5255  -10.9894    0.0000 H   0  0  0  0  0  0  0  0  0  0  0  0
  -19.8559  -12.5392    0.0000 H   0  0  0  0  0  0  0  0  0  0  0  0
  -18.5287   -9.7601    0.0000 H   0  0  0  0  0  0  0  0  0  0  0  0
  -15.9669  -11.9257    0.0000 H   0  0  0  0  0  0  0  0  0  0  0  0
  -15.8795  -12.7230    0.0000 H   0  0  0  0  0  0  0  0  0  0  0  0
  -18.3242  -15.8370    0.0000 H   0  0  0  0  0  0  0  0  0  0  0  0
  -19.8003  -14.8343    0.0000 H   0  0  0  0  0  0  0  0  0  0  0  0
  -19.6472  -13.5282    0.0000 H   0  0  0  0  0  0  0  0  0  0  0  0
  -16.2471  -16.1761    0.0000 H   0  0  0  0  0  0  0  0  0  0  0  0
  -17.8343  -15.3608    0.0000 H   0  0  0  0  0  0  0  0  0  0  0  0
  -14.2555  -16.0219    0.0000 H   0  0  0  0  0  0  0  0  0  0  0  0
  -13.5743  -14.2179    0.0000 H   0  0  0  0  0  0  0  0  0  0  0  0
  -15.0503  -13.2152    0.0000 H   0  0  0  0  0  0  0  0  0  0  0  0
  -21.4354  -11.9218    0.0000 H   0  0  0  0  0  0  0  0  0  0  0  0
  1  2  1  0
  2  3  1  0
  3  4  2  0
  4  5  1  0
  5  6  2  0
  6  7  1  0
  7  8  2  0
  7  9  1  0
  9 10  1  0
 10 11  1  0
 11 12  2  0
  9 13  1  0
 13 14  1  0
 14 15  2  0
 15 16  1  0
 16 17  2  0
 17 18  1  0
 16 19  1  0
 14 20  1  0
 20 21  1  0
 21 22  2  0
 22 23  1  0
 23 24  2  0
 24 25  1  0
 25 26  2  0
 25 27  1  0
  1 28  2  0
  1 29  1  0
 29 30  1  0
 30 31  1  0
 31 32  1  0
 32 33  2  0
 32 34  1  0
 34 35  1  0
 35 36  1  0
 36 37  1  0
 37 38  1  0
 37 39  2  0
 35 40  1  0
 40 41  2  0
 40 42  1  0
 42 43  1  0
 43 44  1  0
 44 45  1  0
 45 46  1  0
 46 47  2  0
 46 48  1  0
 43 49  1  0
 49 50  2  0
 49 51  1  0
 51 52  1  0
 52 53  1  0
 53 54  1  0
 54 55  1  0
 54 56  1  0
 52 57  1  0
 57 58  2  0
 57 59  1  0
 60 59  1  6
 60 61  1  0
 61 62  1  0
 62 63  1  0
 63 64  1  0
 64 65  1  0
 65 66  1  0
 66 67  1  0
 60 68  1  0
 60 69  1  0
 69 70  2  0
 69 71  1  0
 71 72  1  0
 72 73  1  0
 73 74  1  0
 74 75  1  0
 75 76  1  0
 76 77  1  0
 77 78  2  3
 77 79  1  0
 72 80  1  0
 80 81  2  0
 80 82  1  0
 82 83  1  0
 83 84  1  0
 84 85  1  0
 83 86  1  0
 86 87  2  0
 86 88  1  0
 88 89  1  0
 89 90  1  0
 90 91  1  0
 91 92  2  0
 92 93  1  0
 93 94  2  0
 94 95  1  0
 95 96  2  0
 89 97  1  0
 97 98  2  0
 97 99  1  0
 99100  1  0
100101  1  0
101102  1  0
102103  2  0
103104  1  0
104105  2  0
105106  1  0
106107  2  0
100108  1  0
108109  2  0
108110  1  0
110111  1  0
111112  1  0
112113  1  0
111114  1  0
114115  2  0
114116  1  0
116117  1  0
117118  1  0
118119  1  0
119120  1  0
119121  1  0
117122  1  0
122123  2  0
122124  1  0
124125  1  0
125126  1  0
126127  1  0
127128  1  0
128129  1  0
125130  1  0
125131  1  1
131132  2  0
131133  1  0
133134  1  0
134135  1  0
135136  1  0
136137  2  0
136138  1  0
134139  1  0
139140  2  0
139141  1  0
141142  1  0
142143  1  0
143144  1  0
144145  1  0
145146  1  0
145147  2  0
142148  1  0
148149  2  0
148150  1  0
150151  1  0
151152  1  0
152153  1  0
152154  1  0
154155  1  0
151156  1  0
156157  2  0
156158  1  0
  8  3  1  0
 96 91  1  0
107102  1  0
 11  6  1  0
 67129  2  0
 18 13  2  0
 22  9  1  0
 26 21  1  0
  2159  1  0
  4160  1  0
  5161  1  0
  8162  1  0
 15163  1  0
 17164  1  0
 18165  1  0
 19166  1  0
 23167  1  0
 24168  1  0
 26169  1  0
 27170  1  0
 29171  1  0
 30172  1  0
 30173  1  0
 31174  1  0
 31175  1  0
 34176  1  0
 35177  1  1
 36178  1  0
 36179  1  0
 38180  1  0
 38181  1  0
 42182  1  0
 43183  1  1
 44184  1  0
 44185  1  0
 45186  1  0
 45187  1  0
 48188  1  0
 51189  1  0
 52190  1  1
 53191  1  0
 53192  1  0
 54193  1  0
 55194  1  0
 55195  1  0
 55196  1  0
 56197  1  0
 56198  1  0
 56199  1  0
 59200  1  0
 61201  1  0
 61202  1  0
 62203  1  0
 62204  1  0
 63205  1  0
 63206  1  0
 64207  1  0
 64208  1  0
 65209  1  0
 65210  1  0
 66211  1  0
 66212  1  0
 67213  1  0
 68214  1  0
 68215  1  0
 68216  1  0
 71217  1  0
 72218  1  6
 73219  1  0
 73220  1  0
 74221  1  0
 74222  1  0
 75223  1  0
 75224  1  0
 76225  1  0
 78226  1  0
 79227  1  0
 79228  1  0
 82229  1  0
 83230  1  6
 84231  1  0
 84232  1  0
 85233  1  0
 88234  1  0
 89235  1  6
 90236  1  0
 90237  1  0
 92238  1  0
 93239  1  0
 94240  1  0
 95241  1  0
 96242  1  0
 99243  1  0
100244  1  6
101245  1  0
101246  1  0
103247  1  0
104248  1  0
105249  1  0
106250  1  0
107251  1  0
110252  1  0
111253  1  6
112254  1  0
112255  1  0
113256  1  0
116257  1  0
117258  1  6
118259  1  0
118260  1  0
119261  1  0
120262  1  0
120263  1  0
120264  1  0
121265  1  0
121266  1  0
121267  1  0
124268  1  0
126269  1  0
126270  1  0
127271  1  0
127272  1  0
128273  1  0
128274  1  0
129275  1  0
130276  1  0
130277  1  0
130278  1  0
133279  1  0
134280  1  1
135281  1  0
135282  1  0
138283  1  0
141284  1  0
142285  1  6
143286  1  0
143287  1  0
144288  1  0
144289  1  0
146290  1  0
146291  1  0
150292  1  0
151293  1  1
152294  1  1
153295  1  0
153296  1  0
153297  1  0
154298  1  0
154299  1  0
155300  1  0
155301  1  0
155302  1  0
158303  1  0
M  END
