
     RDKit          2D

288293  0  0  0  0  0  0  0  0999 V2000
  -27.8526    0.4950    0.0000 C   0  0  0  0  0  0  0  0  0  0  0  0
  -29.1453   -0.2658    0.0000 N   0  0  0  0  0  0  0  0  0  0  0  0
  -30.4505    0.4733    0.0000 C   0  0  0  0  0  0  0  0  0  0  0  0
  -30.4630    1.9733    0.0000 C   0  0  0  0  0  0  0  0  0  0  0  0
  -31.7683    2.7124    0.0000 C   0  0  0  0  0  0  0  0  0  0  0  0
  -33.0610    1.9516    0.0000 C   0  0  0  0  0  0  0  0  0  0  0  0
  -33.0485    0.4516    0.0000 C   0  0  0  0  0  0  0  0  0  0  0  0
  -31.7433   -0.2875    0.0000 C   0  0  0  0  0  0  0  0  0  0  0  0
  -34.4712   -0.0238    0.0000 C   0  0  0  0  0  0  0  0  0  0  0  0
  -35.3630    1.1824    0.0000 O   0  0  0  0  0  0  0  0  0  0  0  0
  -34.4914    2.4032    0.0000 C   0  0  0  0  0  0  0  0  0  0  0  0
  -34.9668    3.8259    0.0000 O   0  0  0  0  0  0  0  0  0  0  0  0
  -35.9358   -0.3478    0.0000 C   0  0  0  0  0  0  0  0  0  0  0  0
  -36.3874   -1.7782    0.0000 C   0  0  0  0  0  0  0  0  0  0  0  0
  -37.8520   -2.1023    0.0000 C   0  0  0  0  0  0  0  0  0  0  0  0
  -38.8649   -0.9960    0.0000 C   0  0  0  0  0  0  0  0  0  0  0  0
  -38.4133    0.4344    0.0000 C   0  0  0  0  0  0  0  0  0  0  0  0
  -36.9487    0.7585    0.0000 C   0  0  0  0  0  0  0  0  0  0  0  0
  -40.3295   -1.3201    0.0000 O   0  0  0  0  0  0  0  0  0  0  0  0
  -35.3744   -2.8845    0.0000 O   0  0  0  0  0  0  0  0  0  0  0  0
  -33.9099   -2.5605    0.0000 C   0  0  0  0  0  0  0  0  0  0  0  0
  -33.4582   -1.1301    0.0000 C   0  0  0  0  0  0  0  0  0  0  0  0
  -32.2044   -1.4735    0.0000 C   0  0  0  0  0  0  0  0  0  0  0  0
  -31.6642   -2.0635    0.0000 C   0  0  0  0  0  0  0  0  0  0  0  0
  -31.9051   -2.8264    0.0000 C   0  0  0  0  0  0  0  0  0  0  0  0
  -32.6862   -2.9993    0.0000 C   0  0  0  0  0  0  0  0  0  0  0  0
  -30.4194   -4.4490    0.0000 O   0  0  0  0  0  0  0  0  0  0  0  0
  -27.8651    1.9949    0.0000 S   0  0  0  0  0  0  0  0  0  0  0  0
  -26.5473   -0.2442    0.0000 N   0  0  0  0  0  0  0  0  0  0  0  0
  -25.2546    0.5166    0.0000 C   0  0  0  0  0  0  0  0  0  0  0  0
  -23.9493   -0.2225    0.0000 C   0  0  0  0  0  0  0  0  0  0  0  0
  -22.6566    0.5383    0.0000 C   0  0  0  0  0  0  0  0  0  0  0  0
  -22.6691    2.0382    0.0000 O   0  0  0  0  0  0  0  0  0  0  0  0
  -21.3513   -0.2009    0.0000 N   0  0  0  0  0  0  0  0  0  0  0  0
  -20.0586    0.5599    0.0000 C   0  0  0  0  0  0  0  0  0  0  0  0
  -19.1040    1.7170    0.0000 C   0  0  0  0  0  0  0  0  0  0  0  0
  -17.6247    1.4688    0.0000 C   0  0  0  0  0  0  0  0  0  0  0  0
  -17.0999    0.0636    0.0000 C   0  0  0  0  0  0  0  0  0  0  0  0
  -15.6206   -0.1845    0.0000 C   0  0  0  0  0  0  0  0  0  0  0  0
  -14.6660    0.9725    0.0000 C   0  0  0  0  0  0  0  0  0  0  0  0
  -15.1908    2.3778    0.0000 C   0  0  0  0  0  0  0  0  0  0  0  0
  -16.6701    2.6259    0.0000 C   0  0  0  0  0  0  0  0  0  0  0  0
  -18.7534   -0.1792    0.0000 C   0  0  0  0  0  0  0  0  0  0  0  0
  -18.9238   -1.6695    0.0000 O   0  0  0  0  0  0  0  0  0  0  0  0
  -17.4606    0.5816    0.0000 N   0  0  0  0  0  0  0  0  0  0  0  0
  -16.1554   -0.1576    0.0000 C   0  0  0  0  0  0  0  0  0  0  0  0
  -15.1816   -1.2986    0.0000 C   0  0  0  0  0  0  0  0  0  0  0  0
  -15.6829   -2.7123    0.0000 C   0  0  0  0  0  0  0  0  0  0  0  0
  -14.7092   -3.8533    0.0000 N   0  0  0  0  0  0  0  0  0  0  0  0
  -17.1579   -2.9851    0.0000 O   0  0  0  0  0  0  0  0  0  0  0  0
  -14.8626    0.6032    0.0000 C   0  0  0  0  0  0  0  0  0  0  0  0
  -14.5118    2.0616    0.0000 O   0  0  0  0  0  0  0  0  0  0  0  0
  -13.5574   -0.1359    0.0000 N   0  0  0  0  0  0  0  0  0  0  0  0
  -12.2646    0.6249    0.0000 C   0  0  0  0  0  0  0  0  0  0  0  0
  -11.3101    1.7820    0.0000 C   0  0  0  0  0  0  0  0  0  0  0  0
   -9.8307    1.5338    0.0000 C   0  0  0  0  0  0  0  0  0  0  0  0
  -10.8088    3.1957    0.0000 C   0  0  0  0  0  0  0  0  0  0  0  0
   -9.3338    3.4685    0.0000 C   0  0  0  0  0  0  0  0  0  0  0  0
  -10.9594   -0.1143    0.0000 C   0  0  0  0  0  0  0  0  0  0  0  0
  -10.9469   -1.6142    0.0000 O   0  0  0  0  0  0  0  0  0  0  0  0
   -9.6667    0.6466    0.0000 N   0  0  0  0  0  0  0  0  0  0  0  0
   -8.3614   -0.0926    0.0000 C   0  0  0  0  0  0  0  0  0  0  0  0
   -7.3877   -1.2336    0.0000 C   0  0  0  0  0  0  0  0  0  0  0  0
   -7.8889   -2.6474    0.0000 C   0  0  0  0  0  0  0  0  0  0  0  0
   -6.9152   -3.7883    0.0000 N   0  0  0  0  0  0  0  0  0  0  0  0
   -9.3639   -2.9201    0.0000 O   0  0  0  0  0  0  0  0  0  0  0  0
   -7.0687    0.6682    0.0000 C   0  0  0  0  0  0  0  0  0  0  0  0
   -7.0812    2.1682    0.0000 O   0  0  0  0  0  0  0  0  0  0  0  0
   -5.7634   -0.0709    0.0000 N   0  0  0  0  0  0  0  0  0  0  0  0
   -4.4707    0.6899    0.0000 C   0  0  0  0  0  0  0  0  0  0  0  0
   -3.5161    1.8469    0.0000 C   0  0  0  0  0  0  0  0  0  0  0  0
   -2.0368    1.5988    0.0000 C   0  0  0  0  0  0  0  0  0  0  0  0
   -1.0822    2.7558    0.0000 O   0  0  0  0  0  0  0  0  0  0  0  0
   -1.1876    0.3623    0.0000 O   0  0  0  0  0  0  0  0  0  0  0  0
   -3.1654   -0.0493    0.0000 C   0  0  0  0  0  0  0  0  0  0  0  0
   -3.1529   -1.5492    0.0000 O   0  0  0  0  0  0  0  0  0  0  0  0
   -1.8727    0.7115    0.0000 N   0  0  0  0  0  0  0  0  0  0  0  0
   -0.5675   -0.0276    0.0000 C   0  0  0  0  0  0  0  0  0  0  0  0
    0.4063   -1.1686    0.0000 C   0  0  0  0  0  0  0  0  0  0  0  0
    1.8813   -0.8958    0.0000 C   0  0  0  0  0  0  0  0  0  0  0  0
    2.8550   -2.0368    0.0000 C   0  0  0  0  0  0  0  0  0  0  0  0
    4.3300   -1.7641    0.0000 N   0  0  0  0  0  0  0  0  0  0  0  0
    5.3037   -2.9050    0.0000 C   0  0  0  0  0  0  0  0  0  0  0  0
    6.7344   -2.4545    0.0000 N   0  0  0  0  0  0  0  0  0  0  0  0
    4.8024   -4.3188    0.0000 N   0  0  0  0  0  0  0  0  0  0  0  0
    0.7253    0.7332    0.0000 C   0  0  0  0  0  0  0  0  0  0  0  0
    0.7128    2.2331    0.0000 O   0  0  0  0  0  0  0  0  0  0  0  0
    2.0305   -0.0060    0.0000 N   0  0  0  0  0  0  0  0  0  0  0  0
    3.3233    0.7548    0.0000 C   0  0  0  0  0  0  0  0  0  0  0  0
    4.2778    1.9119    0.0000 C   0  0  0  0  0  0  0  0  0  0  0  0
    5.7764    1.8459    0.0000 C   0  0  0  0  0  0  0  0  0  0  0  0
    4.7791    3.3257    0.0000 C   0  0  0  0  0  0  0  0  0  0  0  0
    3.8054    4.4666    0.0000 C   0  0  0  0  0  0  0  0  0  0  0  0
    4.6285    0.0157    0.0000 C   0  0  0  0  0  0  0  0  0  0  0  0
    5.0036   -1.4367    0.0000 O   0  0  0  0  0  0  0  0  0  0  0  0
    5.9213    0.7765    0.0000 N   0  0  0  0  0  0  0  0  0  0  0  0
    7.2265    0.0373    0.0000 C   0  0  0  0  0  0  0  0  0  0  0  0
    8.2002   -1.1037    0.0000 C   0  0  0  0  0  0  0  0  0  0  0  0
    9.6752   -0.8309    0.0000 C   0  0  0  0  0  0  0  0  0  0  0  0
   10.6489   -1.9719    0.0000 C   0  0  0  0  0  0  0  0  0  0  0  0
   12.1239   -1.6991    0.0000 C   0  0  0  0  0  0  0  0  0  0  0  0
   13.0977   -2.8401    0.0000 N   0  0  0  0  0  0  0  0  0  0  0  0
    8.5192    0.7981    0.0000 C   0  0  0  0  0  0  0  0  0  0  0  0
    8.5067    2.2981    0.0000 O   0  0  0  0  0  0  0  0  0  0  0  0
    9.8245    0.0590    0.0000 N   0  0  0  0  0  0  0  0  0  0  0  0
   11.1172    0.8198    0.0000 C   0  0  0  0  0  0  0  0  0  0  0  0
   12.0718    1.9769    0.0000 C   0  0  0  0  0  0  0  0  0  0  0  0
   13.5511    1.7287    0.0000 C   0  0  0  0  0  0  0  0  0  0  0  0
   14.5057    2.8858    0.0000 C   0  0  0  0  0  0  0  0  0  0  0  0
   16.0043    2.8198    0.0000 O   0  0  0  0  0  0  0  0  0  0  0  0
   13.9809    4.2910    0.0000 O   0  0  0  0  0  0  0  0  0  0  0  0
   12.4225    0.0806    0.0000 C   0  0  0  0  0  0  0  0  0  0  0  0
   12.7976   -1.3717    0.0000 O   0  0  0  0  0  0  0  0  0  0  0  0
   13.7152    0.8415    0.0000 N   0  0  0  0  0  0  0  0  0  0  0  0
   15.0205    0.1023    0.0000 C   0  0  0  0  0  0  0  0  0  0  0  0
   15.9942   -1.0387    0.0000 C   0  0  0  0  0  0  0  0  0  0  0  0
   17.4692   -0.7659    0.0000 C   0  0  0  0  0  0  0  0  0  0  0  0
   18.4429   -1.9069    0.0000 C   0  0  0  0  0  0  0  0  0  0  0  0
   18.7619   -0.0051    0.0000 C   0  0  0  0  0  0  0  0  0  0  0  0
   16.3132    0.8631    0.0000 C   0  0  0  0  0  0  0  0  0  0  0  0
   16.4836    2.3534    0.0000 O   0  0  0  0  0  0  0  0  0  0  0  0
   17.6184    0.1240    0.0000 N   0  0  0  0  0  0  0  0  0  0  0  0
   18.9112    0.8848    0.0000 C   0  0  0  0  0  0  0  0  0  0  0  0
   20.2164    0.1456    0.0000 C   0  0  0  0  0  0  0  0  0  0  0  0
   20.5915   -1.3067    0.0000 O   0  0  0  0  0  0  0  0  0  0  0  0
   21.5092    0.9064    0.0000 N   0  0  0  0  0  0  0  0  0  0  0  0
   22.8144    0.1673    0.0000 C   0  0  0  0  0  0  0  0  0  0  0  0
   23.7881   -0.9737    0.0000 C   0  0  0  0  0  0  0  0  0  0  0  0
   24.9936   -1.8665    0.0000 O   0  0  0  0  0  0  0  0  0  0  0  0
   23.2869   -2.3875    0.0000 C   0  0  0  0  0  0  0  0  0  0  0  0
   24.1072    0.9281    0.0000 C   0  0  0  0  0  0  0  0  0  0  0  0
   24.0947    2.4280    0.0000 O   0  0  0  0  0  0  0  0  0  0  0  0
   25.4124    0.1889    0.0000 N   0  0  0  0  0  0  0  0  0  0  0  0
   26.7051    0.9497    0.0000 C   0  0  0  0  0  0  0  0  0  0  0  0
   27.6597    2.1068    0.0000 C   0  0  0  0  0  0  0  0  0  0  0  0
   29.1391    1.8586    0.0000 C   0  0  0  0  0  0  0  0  0  0  0  0
   30.0936    3.0157    0.0000 C   0  0  0  0  0  0  0  0  0  0  0  0
   30.4443    1.1195    0.0000 C   0  0  0  0  0  0  0  0  0  0  0  0
   28.0104    0.2106    0.0000 C   0  0  0  0  0  0  0  0  0  0  0  0
   28.0229   -1.2894    0.0000 O   0  0  0  0  0  0  0  0  0  0  0  0
   29.3031    0.9714    0.0000 N   0  0  0  0  0  0  0  0  0  0  0  0
   30.6084    0.2322    0.0000 C   0  0  0  0  0  0  0  0  0  0  0  0
   31.5821   -0.9088    0.0000 C   0  0  0  0  0  0  0  0  0  0  0  0
   30.9122   -2.2509    0.0000 C   0  0  0  0  0  0  0  0  0  0  0  0
   32.8873   -1.6479    0.0000 C   0  0  0  0  0  0  0  0  0  0  0  0
   32.8999   -3.1478    0.0000 C   0  0  0  0  0  0  0  0  0  0  0  0
   31.9011    0.9930    0.0000 C   0  0  0  0  0  0  0  0  0  0  0  0
   33.3464    0.5917    0.0000 O   0  0  0  0  0  0  0  0  0  0  0  0
   32.0715    2.4833    0.0000 O   0  0  0  0  0  0  0  0  0  0  0  0
  -28.9501   -1.7531    0.0000 H   0  0  0  0  0  0  0  0  0  0  0  0
  -29.1703    2.7341    0.0000 H   0  0  0  0  0  0  0  0  0  0  0  0
  -31.7808    4.2123    0.0000 H   0  0  0  0  0  0  0  0  0  0  0  0
  -31.3682   -1.7398    0.0000 H   0  0  0  0  0  0  0  0  0  0  0  0
  -38.3036   -3.5327    0.0000 H   0  0  0  0  0  0  0  0  0  0  0  0
  -39.4262    1.5407    0.0000 H   0  0  0  0  0  0  0  0  0  0  0  0
  -36.4971    2.1889    0.0000 H   0  0  0  0  0  0  0  0  0  0  0  0
  -41.3424   -0.2138    0.0000 H   0  0  0  0  0  0  0  0  0  0  0  0
  -31.5421    0.6244    0.0000 H   0  0  0  0  0  0  0  0  0  0  0  0
  -29.4876   -1.7691    0.0000 H   0  0  0  0  0  0  0  0  0  0  0  0
  -33.3485   -5.0972    0.0000 H   0  0  0  0  0  0  0  0  0  0  0  0
  -30.8710   -5.8794    0.0000 H   0  0  0  0  0  0  0  0  0  0  0  0
  -26.5348   -1.7441    0.0000 H   0  0  0  0  0  0  0  0  0  0  0  0
  -24.3000    1.6737    0.0000 H   0  0  0  0  0  0  0  0  0  0  0  0
  -26.2283    1.6576    0.0000 H   0  0  0  0  0  0  0  0  0  0  0  0
  -22.9756   -1.3635    0.0000 H   0  0  0  0  0  0  0  0  0  0  0  0
  -24.9039   -1.3796    0.0000 H   0  0  0  0  0  0  0  0  0  0  0  0
  -21.3388   -1.7008    0.0000 H   0  0  0  0  0  0  0  0  0  0  0  0
  -21.0323    1.7009    0.0000 H   0  0  0  0  0  0  0  0  0  0  0  0
  -18.6028    3.1308    0.0000 H   0  0  0  0  0  0  0  0  0  0  0  0
  -20.4093    2.4561    0.0000 H   0  0  0  0  0  0  0  0  0  0  0  0
  -17.9063   -1.2012    0.0000 H   0  0  0  0  0  0  0  0  0  0  0  0
  -14.7714   -1.4210    0.0000 H   0  0  0  0  0  0  0  0  0  0  0  0
  -13.1867    0.7244    0.0000 H   0  0  0  0  0  0  0  0  0  0  0  0
  -14.2362    3.5348    0.0000 H   0  0  0  0  0  0  0  0  0  0  0  0
  -17.1949    4.0311    0.0000 H   0  0  0  0  0  0  0  0  0  0  0  0
  -17.1098    2.0400    0.0000 H   0  0  0  0  0  0  0  0  0  0  0  0
  -17.1099   -1.3146    0.0000 H   0  0  0  0  0  0  0  0  0  0  0  0
  -13.9762   -2.1913    0.0000 H   0  0  0  0  0  0  0  0  0  0  0  0
  -13.9755   -0.4069    0.0000 H   0  0  0  0  0  0  0  0  0  0  0  0
  -15.2104   -5.2671    0.0000 H   0  0  0  0  0  0  0  0  0  0  0  0
  -13.2342   -3.5805    0.0000 H   0  0  0  0  0  0  0  0  0  0  0  0
  -13.3621   -1.6231    0.0000 H   0  0  0  0  0  0  0  0  0  0  0  0
  -13.2384    1.7659    0.0000 H   0  0  0  0  0  0  0  0  0  0  0  0
  -12.6153    2.5211    0.0000 H   0  0  0  0  0  0  0  0  0  0  0  0
   -8.7208    2.5595    0.0000 H   0  0  0  0  0  0  0  0  0  0  0  0
   -8.5255    0.7947    0.0000 H   0  0  0  0  0  0  0  0  0  0  0  0
   -9.6094    0.0502    0.0000 H   0  0  0  0  0  0  0  0  0  0  0  0
  -10.8213    4.6957    0.0000 H   0  0  0  0  0  0  0  0  0  0  0  0
  -12.2881    3.4439    0.0000 H   0  0  0  0  0  0  0  0  0  0  0  0
   -8.8326    4.8823    0.0000 H   0  0  0  0  0  0  0  0  0  0  0  0
   -7.8545    3.2204    0.0000 H   0  0  0  0  0  0  0  0  0  0  0  0
   -9.1386    1.9813    0.0000 H   0  0  0  0  0  0  0  0  0  0  0  0
   -9.6792    2.1465    0.0000 H   0  0  0  0  0  0  0  0  0  0  0  0
   -9.3160   -1.2497    0.0000 H   0  0  0  0  0  0  0  0  0  0  0  0
   -6.1823   -2.1263    0.0000 H   0  0  0  0  0  0  0  0  0  0  0  0
   -6.1815   -0.3419    0.0000 H   0  0  0  0  0  0  0  0  0  0  0  0
   -7.4165   -5.2021    0.0000 H   0  0  0  0  0  0  0  0  0  0  0  0
   -5.4402   -3.5156    0.0000 H   0  0  0  0  0  0  0  0  0  0  0  0
   -5.5682   -1.5582    0.0000 H   0  0  0  0  0  0  0  0  0  0  0  0
   -5.4444    1.8309    0.0000 H   0  0  0  0  0  0  0  0  0  0  0  0
   -3.0148    3.2607    0.0000 H   0  0  0  0  0  0  0  0  0  0  0  0
   -4.8214    2.5861    0.0000 H   0  0  0  0  0  0  0  0  0  0  0  0
   -1.5219    2.1699    0.0000 H   0  0  0  0  0  0  0  0  0  0  0  0
   -1.5220   -1.1847    0.0000 H   0  0  0  0  0  0  0  0  0  0  0  0
    0.7558   -2.6273    0.0000 H   0  0  0  0  0  0  0  0  0  0  0  0
   -0.8865   -1.9294    0.0000 H   0  0  0  0  0  0  0  0  0  0  0  0
    3.1740   -0.1350    0.0000 H   0  0  0  0  0  0  0  0  0  0  0  0
    2.0778    0.5912    0.0000 H   0  0  0  0  0  0  0  0  0  0  0  0
    3.3797   -3.4420    0.0000 H   0  0  0  0  0  0  0  0  0  0  0  0
    1.6646   -2.9495    0.0000 H   0  0  0  0  0  0  0  0  0  0  0  0
    5.3047   -0.6239    0.0000 H   0  0  0  0  0  0  0  0  0  0  0  0
    7.7524   -3.7733    0.0000 H   0  0  0  0  0  0  0  0  0  0  0  0
    7.1252   -1.1612    0.0000 H   0  0  0  0  0  0  0  0  0  0  0  0
    5.7762   -5.4598    0.0000 H   0  0  0  0  0  0  0  0  0  0  0  0
    3.3275   -4.5916    0.0000 H   0  0  0  0  0  0  0  0  0  0  0  0
    2.4056   -1.4583    0.0000 H   0  0  0  0  0  0  0  0  0  0  0  0
    2.3495    1.8958    0.0000 H   0  0  0  0  0  0  0  0  0  0  0  0
    2.8922    2.4864    0.0000 H   0  0  0  0  0  0  0  0  0  0  0  0
    6.8457    2.6958    0.0000 H   0  0  0  0  0  0  0  0  0  0  0  0
    7.0624    0.9246    0.0000 H   0  0  0  0  0  0  0  0  0  0  0  0
    6.1577    0.2182    0.0000 H   0  0  0  0  0  0  0  0  0  0  0  0
    5.7337    4.4827    0.0000 H   0  0  0  0  0  0  0  0  0  0  0  0
    6.2244    2.9243    0.0000 H   0  0  0  0  0  0  0  0  0  0  0  0
    4.3066    5.8804    0.0000 H   0  0  0  0  0  0  0  0  0  0  0  0
    2.5001    5.2058    0.0000 H   0  0  0  0  0  0  0  0  0  0  0  0
    2.7169    3.4346    0.0000 H   0  0  0  0  0  0  0  0  0  0  0  0
    6.2721    2.2349    0.0000 H   0  0  0  0  0  0  0  0  0  0  0  0
    6.2719   -1.1197    0.0000 H   0  0  0  0  0  0  0  0  0  0  0  0
    8.5498   -2.5624    0.0000 H   0  0  0  0  0  0  0  0  0  0  0  0
    6.7618   -1.5290    0.0000 H   0  0  0  0  0  0  0  0  0  0  0  0
   10.8656    0.0818    0.0000 H   0  0  0  0  0  0  0  0  0  0  0  0
    9.8718    0.6562    0.0000 H   0  0  0  0  0  0  0  0  0  0  0  0
   10.9985   -3.4306    0.0000 H   0  0  0  0  0  0  0  0  0  0  0  0
    9.4586   -2.8846    0.0000 H   0  0  0  0  0  0  0  0  0  0  0  0
   13.4998   -1.1015    0.0000 H   0  0  0  0  0  0  0  0  0  0  0  0
   11.7744   -0.2404    0.0000 H   0  0  0  0  0  0  0  0  0  0  0  0
   14.5284   -2.3895    0.0000 H   0  0  0  0  0  0  0  0  0  0  0  0
   13.6224   -4.2453    0.0000 H   0  0  0  0  0  0  0  0  0  0  0  0
   11.9073   -3.7528    0.0000 H   0  0  0  0  0  0  0  0  0  0  0  0
   10.1996   -1.3934    0.0000 H   0  0  0  0  0  0  0  0  0  0  0  0
   10.1435    1.9608    0.0000 H   0  0  0  0  0  0  0  0  0  0  0  0
   12.5731    3.3906    0.0000 H   0  0  0  0  0  0  0  0  0  0  0  0
   10.7666    2.7160    0.0000 H   0  0  0  0  0  0  0  0  0  0  0  0
   14.8564    0.9896    0.0000 H   0  0  0  0  0  0  0  0  0  0  0  0
   13.7724    0.2451    0.0000 H   0  0  0  0  0  0  0  0  0  0  0  0
   14.0660    2.2999    0.0000 H   0  0  0  0  0  0  0  0  0  0  0  0
   14.2141   -1.1625    0.0000 H   0  0  0  0  0  0  0  0  0  0  0  0
   16.3437   -2.4974    0.0000 H   0  0  0  0  0  0  0  0  0  0  0  0
   14.6183   -1.6362    0.0000 H   0  0  0  0  0  0  0  0  0  0  0  0
   17.6657    0.7212    0.0000 H   0  0  0  0  0  0  0  0  0  0  0  0
   19.9401   -1.9991    0.0000 H   0  0  0  0  0  0  0  0  0  0  0  0
   18.9677   -3.3121    0.0000 H   0  0  0  0  0  0  0  0  0  0  0  0
   17.2525   -2.8196    0.0000 H   0  0  0  0  0  0  0  0  0  0  0  0
   20.0672   -0.7443    0.0000 H   0  0  0  0  0  0  0  0  0  0  0  0
   19.8504    1.0270    0.0000 H   0  0  0  0  0  0  0  0  0  0  0  0
   17.6564    1.0087    0.0000 H   0  0  0  0  0  0  0  0  0  0  0  0
   17.9935   -1.3284    0.0000 H   0  0  0  0  0  0  0  0  0  0  0  0
   19.7176    2.1496    0.0000 H   0  0  0  0  0  0  0  0  0  0  0  0
   18.0838    2.1359    0.0000 H   0  0  0  0  0  0  0  0  0  0  0  0
   21.4967    2.4064    0.0000 H   0  0  0  0  0  0  0  0  0  0  0  0
   21.7259   -0.8648    0.0000 H   0  0  0  0  0  0  0  0  0  0  0  0
   24.9943   -0.0820    0.0000 H   0  0  0  0  0  0  0  0  0  0  0  0
   25.2886   -3.2001    0.0000 H   0  0  0  0  0  0  0  0  0  0  0  0
   24.1143   -3.6387    0.0000 H   0  0  0  0  0  0  0  0  0  0  0  0
   22.3323   -3.5445    0.0000 H   0  0  0  0  0  0  0  0  0  0  0  0
   21.9013   -1.8130    0.0000 H   0  0  0  0  0  0  0  0  0  0  0  0
   25.6077   -1.2983    0.0000 H   0  0  0  0  0  0  0  0  0  0  0  0
   25.7314    2.0907    0.0000 H   0  0  0  0  0  0  0  0  0  0  0  0
   27.9849    3.5711    0.0000 H   0  0  0  0  0  0  0  0  0  0  0  0
   26.3545    2.8459    0.0000 H   0  0  0  0  0  0  0  0  0  0  0  0
   29.3603    0.3751    0.0000 H   0  0  0  0  0  0  0  0  0  0  0  0
   31.5890    3.1329    0.0000 H   0  0  0  0  0  0  0  0  0  0  0  0
   30.5949    4.4295    0.0000 H   0  0  0  0  0  0  0  0  0  0  0  0
   28.8882    3.9084    0.0000 H   0  0  0  0  0  0  0  0  0  0  0  0
   30.8194   -0.3329    0.0000 H   0  0  0  0  0  0  0  0  0  0  0  0
   31.9143    1.4181    0.0000 H   0  0  0  0  0  0  0  0  0  0  0  0
   31.1142    2.4616    0.0000 H   0  0  0  0  0  0  0  0  0  0  0  0
   29.6540    2.4298    0.0000 H   0  0  0  0  0  0  0  0  0  0  0  0
   29.5199   -0.7998    0.0000 H   0  0  0  0  0  0  0  0  0  0  0  0
   32.7883   -0.0171    0.0000 H   0  0  0  0  0  0  0  0  0  0  0  0
   31.8982   -3.5937    0.0000 H   0  0  0  0  0  0  0  0  0  0  0  0
   30.1263   -3.4796    0.0000 H   0  0  0  0  0  0  0  0  0  0  0  0
   29.6952   -1.7480    0.0000 H   0  0  0  0  0  0  0  0  0  0  0  0
   34.3667   -1.8960    0.0000 H   0  0  0  0  0  0  0  0  0  0  0  0
   33.5572   -0.3058    0.0000 H   0  0  0  0  0  0  0  0  0  0  0  0
   34.2051   -3.8870    0.0000 H   0  0  0  0  0  0  0  0  0  0  0  0
   32.3986   -4.5616    0.0000 H   0  0  0  0  0  0  0  0  0  0  0  0
   31.4044   -3.2650    0.0000 H   0  0  0  0  0  0  0  0  0  0  0  0
  1  2  1  0
  2  3  1  0
  3  4  2  0
  4  5  1  0
  5  6  2  0
  6  7  1  0
  7  8  2  0
  7  9  1  0
  9 10  1  0
 10 11  1  0
 11 12  2  0
  9 13  1  0
 13 14  1  0
 14 15  2  0
 15 16  1  0
 16 17  2  0
 17 18  1  0
 16 19  1  0
 14 20  1  0
 20 21  1  0
 21 22  2  0
 22 23  1  0
 23 24  2  0
 24 25  1  0
 25 26  2  0
 25 27  1  0
  1 28  2  0
  1 29  1  0
 29 30  1  0
 30 31  1  0
 31 32  1  0
 32 33  2  0
 32 34  1  0
 34 35  1  0
 35 36  1  0
 36 37  1  0
 37 38  2  0
 38 39  1  0
 39 40  2  0
 40 41  1  0
 41 42  2  0
 35 43  1  0
 43 44  2  0
 43 45  1  0
 45 46  1  0
 46 47  1  0
 47 48  1  0
 48 49  1  0
 48 50  2  0
 46 51  1  0
 51 52  2  0
 51 53  1  0
 53 54  1  0
 54 55  1  0
 55 56  1  0
 55 57  1  0
 57 58  1  0
 54 59  1  0
 59 60  2  0
 59 61  1  0
 61 62  1  0
 62 63  1  0
 63 64  1  0
 64 65  1  0
 64 66  2  0
 62 67  1  0
 67 68  2  0
 67 69  1  0
 69 70  1  0
 70 71  1  0
 71 72  1  0
 72 73  2  0
 72 74  1  0
 70 75  1  0
 75 76  2  0
 75 77  1  0
 77 78  1  0
 78 79  1  0
 79 80  1  0
 80 81  1  0
 81 82  1  0
 82 83  1  0
 83 84  2  3
 83 85  1  0
 78 86  1  0
 86 87  2  0
 86 88  1  0
 88 89  1  0
 89 90  1  0
 90 91  1  0
 90 92  1  0
 92 93  1  0
 89 94  1  0
 94 95  2  0
 94 96  1  0
 96 97  1  0
 97 98  1  0
 98 99  1  0
 99100  1  0
100101  1  0
101102  1  0
 97103  1  0
103104  2  0
103105  1  0
105106  1  0
106107  1  0
107108  1  0
108109  1  0
109110  2  0
109111  1  0
106112  1  0
112113  2  0
112114  1  0
114115  1  0
115116  1  0
116117  1  0
117118  1  0
117119  1  0
115120  1  0
120121  2  0
120122  1  0
122123  1  0
123124  1  0
124125  2  0
124126  1  0
126127  1  0
127128  1  0
128129  1  0
128130  1  0
127131  1  0
131132  2  0
131133  1  0
133134  1  0
134135  1  0
135136  1  0
136137  1  0
136138  1  0
134139  1  0
139140  2  0
139141  1  0
141142  1  0
142143  1  0
143144  1  0
143145  1  0
145146  1  0
142147  1  0
147148  2  0
147149  1  0
  8  3  1  0
 42 37  1  0
 11  6  1  0
 18 13  2  0
 22  9  1  0
 26 21  1  0
  2150  1  0
  4151  1  0
  5152  1  0
  8153  1  0
 15154  1  0
 17155  1  0
 18156  1  0
 19157  1  0
 23158  1  0
 24159  1  0
 26160  1  0
 27161  1  0
 29162  1  0
 30163  1  0
 30164  1  0
 31165  1  0
 31166  1  0
 34167  1  0
 35168  1  1
 36169  1  0
 36170  1  0
 38171  1  0
 39172  1  0
 40173  1  0
 41174  1  0
 42175  1  0
 45176  1  0
 46177  1  6
 47178  1  0
 47179  1  0
 49180  1  0
 49181  1  0
 53182  1  0
 54183  1  1
 55184  1  1
 56185  1  0
 56186  1  0
 56187  1  0
 57188  1  0
 57189  1  0
 58190  1  0
 58191  1  0
 58192  1  0
 61193  1  0
 62194  1  6
 63195  1  0
 63196  1  0
 65197  1  0
 65198  1  0
 69199  1  0
 70200  1  1
 71201  1  0
 71202  1  0
 77203  1  0
 78204  1  6
 79205  1  0
 79206  1  0
 80207  1  0
 80208  1  0
 81209  1  0
 81210  1  0
 82211  1  0
 84212  1  0
 84213  1  0
 85214  1  0
 85215  1  0
 88216  1  0
 89217  1  1
 90218  1  1
 91219  1  0
 91220  1  0
 91221  1  0
 92222  1  0
 92223  1  0
 93224  1  0
 93225  1  0
 93226  1  0
 96227  1  0
 97228  1  6
 98229  1  0
 98230  1  0
 99231  1  0
 99232  1  0
100233  1  0
100234  1  0
101235  1  0
101236  1  0
102237  1  0
102238  1  0
102239  1  0
105240  1  0
106241  1  1
107242  1  0
107243  1  0
108244  1  0
108245  1  0
114246  1  0
115247  1  6
116248  1  0
116249  1  0
117250  1  0
118251  1  0
118252  1  0
118253  1  0
119254  1  0
119255  1  0
119256  1  0
122257  1  0
123258  1  0
123259  1  0
126260  1  0
127261  1  6
128262  1  1
129263  1  0
130264  1  0
130265  1  0
130266  1  0
133267  1  0
134268  1  1
135269  1  0
135270  1  0
136271  1  0
137272  1  0
137273  1  0
137274  1  0
138275  1  0
138276  1  0
138277  1  0
141278  1  0
142279  1  6
143280  1  1
144281  1  0
144282  1  0
144283  1  0
145284  1  0
145285  1  0
146286  1  0
146287  1  0
146288  1  0
M  CHG  5  74  -1  84   1 102   1 111  -1 149  -1
M  END
