
     RDKit          2D

250258  0  0  0  0  0  0  0  0999 V2000
  -17.7713   -0.4999    0.0000 C   0  0  0  0  0  0  0  0  0  0  0  0
  -19.0352   -1.3077    0.0000 N   0  0  0  0  0  0  0  0  0  0  0  0
  -20.3668   -0.6171    0.0000 C   0  0  0  0  0  0  0  0  0  0  0  0
  -20.4345    0.8814    0.0000 C   0  0  0  0  0  0  0  0  0  0  0  0
  -21.7660    1.5720    0.0000 C   0  0  0  0  0  0  0  0  0  0  0  0
  -23.0299    0.7641    0.0000 C   0  0  0  0  0  0  0  0  0  0  0  0
  -22.9622   -0.7343    0.0000 C   0  0  0  0  0  0  0  0  0  0  0  0
  -21.6307   -1.4250    0.0000 C   0  0  0  0  0  0  0  0  0  0  0  0
  -24.3664   -1.2618    0.0000 C   0  0  0  0  0  0  0  0  0  0  0  0
  -25.3020   -0.0892    0.0000 O   0  0  0  0  0  0  0  0  0  0  0  0
  -24.4759    1.1628    0.0000 C   0  0  0  0  0  0  0  0  0  0  0  0
  -25.0033    2.5670    0.0000 O   0  0  0  0  0  0  0  0  0  0  0  0
  -25.8181   -1.6395    0.0000 C   0  0  0  0  0  0  0  0  0  0  0  0
  -26.2168   -3.0855    0.0000 C   0  0  0  0  0  0  0  0  0  0  0  0
  -27.6684   -3.4633    0.0000 C   0  0  0  0  0  0  0  0  0  0  0  0
  -28.7214   -2.3950    0.0000 C   0  0  0  0  0  0  0  0  0  0  0  0
  -28.3227   -0.9490    0.0000 C   0  0  0  0  0  0  0  0  0  0  0  0
  -26.8710   -0.5712    0.0000 C   0  0  0  0  0  0  0  0  0  0  0  0
  -30.1730   -2.7727    0.0000 O   0  0  0  0  0  0  0  0  0  0  0  0
  -25.1638   -4.1538    0.0000 O   0  0  0  0  0  0  0  0  0  0  0  0
  -23.7121   -3.7761    0.0000 C   0  0  0  0  0  0  0  0  0  0  0  0
  -23.3135   -2.3301    0.0000 C   0  0  0  0  0  0  0  0  0  0  0  0
  -22.0479   -2.6271    0.0000 C   0  0  0  0  0  0  0  0  0  0  0  0
  -21.4863   -3.1969    0.0000 C   0  0  0  0  0  0  0  0  0  0  0  0
  -21.6989   -3.9681    0.0000 C   0  0  0  0  0  0  0  0  0  0  0  0
  -22.4731   -4.1696    0.0000 C   0  0  0  0  0  0  0  0  0  0  0  0
  -20.1546   -5.5349    0.0000 O   0  0  0  0  0  0  0  0  0  0  0  0
  -17.8390    0.9986    0.0000 S   0  0  0  0  0  0  0  0  0  0  0  0
  -16.4398   -1.1905    0.0000 N   0  0  0  0  0  0  0  0  0  0  0  0
  -15.1759   -0.3827    0.0000 C   0  0  0  0  0  0  0  0  0  0  0  0
  -13.8444   -1.0733    0.0000 C   0  0  0  0  0  0  0  0  0  0  0  0
  -12.5805   -0.2655    0.0000 C   0  0  0  0  0  0  0  0  0  0  0  0
  -12.6482    1.2330    0.0000 O   0  0  0  0  0  0  0  0  0  0  0  0
  -11.2489   -0.9561    0.0000 N   0  0  0  0  0  0  0  0  0  0  0  0
   -9.9851   -0.1482    0.0000 C   0  0  0  0  0  0  0  0  0  0  0  0
   -9.0737    1.0432    0.0000 C   0  0  0  0  0  0  0  0  0  0  0  0
   -7.5862    0.8496    0.0000 C   0  0  0  0  0  0  0  0  0  0  0  0
   -6.6749    2.0410    0.0000 C   0  0  0  0  0  0  0  0  0  0  0  0
   -5.1874    1.8474    0.0000 N   0  0  0  0  0  0  0  0  0  0  0  0
   -4.2761    3.0388    0.0000 C   0  0  0  0  0  0  0  0  0  0  0  0
   -2.8233    2.6654    0.0000 N   0  0  0  0  0  0  0  0  0  0  0  0
   -4.8522    4.4238    0.0000 N   0  0  0  0  0  0  0  0  0  0  0  0
   -8.6535   -0.8389    0.0000 C   0  0  0  0  0  0  0  0  0  0  0  0
   -8.5858   -2.3373    0.0000 O   0  0  0  0  0  0  0  0  0  0  0  0
   -7.3896   -0.0310    0.0000 N   0  0  0  0  0  0  0  0  0  0  0  0
   -6.0581   -0.7216    0.0000 C   0  0  0  0  0  0  0  0  0  0  0  0
   -5.0430   -1.8260    0.0000 C   0  0  0  0  0  0  0  0  0  0  0  0
   -5.4919   -3.2573    0.0000 C   0  0  0  0  0  0  0  0  0  0  0  0
   -4.4769   -4.3617    0.0000 C   0  0  0  0  0  0  0  0  0  0  0  0
   -4.9258   -5.7929    0.0000 C   0  0  0  0  0  0  0  0  0  0  0  0
   -3.9108   -6.8973    0.0000 N   0  0  0  0  0  0  0  0  0  0  0  0
   -4.7942    0.0862    0.0000 C   0  0  0  0  0  0  0  0  0  0  0  0
   -4.5777    1.1581    0.0000 O   0  0  0  0  0  0  0  0  0  0  0  0
   -3.4626   -0.6044    0.0000 N   0  0  0  0  0  0  0  0  0  0  0  0
   -2.1988    0.2034    0.0000 C   0  0  0  0  0  0  0  0  0  0  0  0
   -1.2874    1.3948    0.0000 C   0  0  0  0  0  0  0  0  0  0  0  0
    0.2001    1.2013    0.0000 C   0  0  0  0  0  0  0  0  0  0  0  0
    0.7762   -0.1837    0.0000 C   0  0  0  0  0  0  0  0  0  0  0  0
    2.2636   -0.3773    0.0000 C   0  0  0  0  0  0  0  0  0  0  0  0
    3.1750    0.8141    0.0000 C   0  0  0  0  0  0  0  0  0  0  0  0
    2.5989    2.1991    0.0000 C   0  0  0  0  0  0  0  0  0  0  0  0
    1.1114    2.3927    0.0000 C   0  0  0  0  0  0  0  0  0  0  0  0
   -0.8672   -0.4872    0.0000 C   0  0  0  0  0  0  0  0  0  0  0  0
   -1.1641   -1.9575    0.0000 O   0  0  0  0  0  0  0  0  0  0  0  0
    0.3967    0.3206    0.0000 N   0  0  0  0  0  0  0  0  0  0  0  0
    1.7282   -0.3700    0.0000 C   0  0  0  0  0  0  0  0  0  0  0  0
    2.0915   -1.8253    0.0000 C   0  0  0  0  0  0  0  0  0  0  0  0
    2.8676   -3.1090    0.0000 C   0  0  0  0  0  0  0  0  0  0  0  0
    3.9875   -4.1068    0.0000 C   0  0  0  0  0  0  0  0  0  0  0  0
    5.3518   -4.7302    0.0000 C   0  0  0  0  0  0  0  0  0  0  0  0
    0.5511   -1.2997    0.0000 C   0  0  0  0  0  0  0  0  0  0  0  0
    1.8101    1.1278    0.0000 C   0  0  0  0  0  0  0  0  0  0  0  0
    0.5479    1.9382    0.0000 O   0  0  0  0  0  0  0  0  0  0  0  0
    2.3298    2.5349    0.0000 N   0  0  0  0  0  0  0  0  0  0  0  0
    3.2411    3.7263    0.0000 C   0  0  0  0  0  0  0  0  0  0  0  0
    2.9509    5.1979    0.0000 C   0  0  0  0  0  0  0  0  0  0  0  0
    1.5313    5.6824    0.0000 C   0  0  0  0  0  0  0  0  0  0  0  0
    1.2410    7.1540    0.0000 C   0  0  0  0  0  0  0  0  0  0  0  0
   -0.1786    7.6385    0.0000 N   0  0  0  0  0  0  0  0  0  0  0  0
   -0.4689    9.1101    0.0000 C   0  0  0  0  0  0  0  0  0  0  0  0
   -1.8885    9.5946    0.0000 N   0  0  0  0  0  0  0  0  0  0  0  0
    0.6605   10.0973    0.0000 N   0  0  0  0  0  0  0  0  0  0  0  0
    4.4632    4.5961    0.0000 C   0  0  0  0  0  0  0  0  0  0  0  0
    3.7852    5.9341    0.0000 O   0  0  0  0  0  0  0  0  0  0  0  0
    5.8873    5.0671    0.0000 N   0  0  0  0  0  0  0  0  0  0  0  0
    7.3870    5.0974    0.0000 C   0  0  0  0  0  0  0  0  0  0  0  0
    8.3566    6.2419    0.0000 C   0  0  0  0  0  0  0  0  0  0  0  0
    7.8503    7.6538    0.0000 C   0  0  0  0  0  0  0  0  0  0  0  0
    8.8199    8.7983    0.0000 C   0  0  0  0  0  0  0  0  0  0  0  0
    6.8915    8.8075    0.0000 C   0  0  0  0  0  0  0  0  0  0  0  0
    8.8290    4.6843    0.0000 C   0  0  0  0  0  0  0  0  0  0  0  0
    9.4524    6.0486    0.0000 O   0  0  0  0  0  0  0  0  0  0  0  0
   10.0852    3.8645    0.0000 N   0  0  0  0  0  0  0  0  0  0  0  0
   11.0439    2.7109    0.0000 C   0  0  0  0  0  0  0  0  0  0  0  0
   12.5432    2.6664    0.0000 C   0  0  0  0  0  0  0  0  0  0  0  0
   13.3314    3.9427    0.0000 C   0  0  0  0  0  0  0  0  0  0  0  0
   14.8308    3.8982    0.0000 C   0  0  0  0  0  0  0  0  0  0  0  0
   15.6190    5.1744    0.0000 C   0  0  0  0  0  0  0  0  0  0  0  0
   14.9079    6.4951    0.0000 C   0  0  0  0  0  0  0  0  0  0  0  0
   13.4085    6.5396    0.0000 C   0  0  0  0  0  0  0  0  0  0  0  0
   12.6203    5.2634    0.0000 C   0  0  0  0  0  0  0  0  0  0  0  0
   11.6200    1.3260    0.0000 C   0  0  0  0  0  0  0  0  0  0  0  0
   13.0754    1.6892    0.0000 O   0  0  0  0  0  0  0  0  0  0  0  0
   11.7623   -0.1673    0.0000 N   0  0  0  0  0  0  0  0  0  0  0  0
   11.4581   -1.6361    0.0000 C   0  0  0  0  0  0  0  0  0  0  0  0
   10.7345   -2.9500    0.0000 C   0  0  0  0  0  0  0  0  0  0  0  0
    9.6558   -3.9923    0.0000 C   0  0  0  0  0  0  0  0  0  0  0  0
    8.3177   -4.6703    0.0000 C   0  0  0  0  0  0  0  0  0  0  0  0
    6.8393   -4.9238    0.0000 C   0  0  0  0  0  0  0  0  0  0  0  0
   12.9221   -1.3092    0.0000 C   0  0  0  0  0  0  0  0  0  0  0  0
   12.3582   -2.8361    0.0000 C   0  0  0  0  0  0  0  0  0  0  0  0
   12.1203   -4.3171    0.0000 O   0  0  0  0  0  0  0  0  0  0  0  0
   13.8474   -2.6566    0.0000 N   0  0  0  0  0  0  0  0  0  0  0  0
   14.7474   -3.8566    0.0000 C   0  0  0  0  0  0  0  0  0  0  0  0
   15.1828   -5.2920    0.0000 C   0  0  0  0  0  0  0  0  0  0  0  0
   14.1573   -6.3868    0.0000 O   0  0  0  0  0  0  0  0  0  0  0  0
   16.2366   -3.6771    0.0000 C   0  0  0  0  0  0  0  0  0  0  0  0
   16.8258   -2.2977    0.0000 O   0  0  0  0  0  0  0  0  0  0  0  0
   17.1367   -4.8771    0.0000 N   0  0  0  0  0  0  0  0  0  0  0  0
   18.6259   -4.6976    0.0000 C   0  0  0  0  0  0  0  0  0  0  0  0
   19.9639   -4.0196    0.0000 C   0  0  0  0  0  0  0  0  0  0  0  0
   21.2201   -4.8394    0.0000 C   0  0  0  0  0  0  0  0  0  0  0  0
   21.1383   -6.3372    0.0000 C   0  0  0  0  0  0  0  0  0  0  0  0
   22.3944   -7.1569    0.0000 C   0  0  0  0  0  0  0  0  0  0  0  0
   23.7325   -6.4789    0.0000 C   0  0  0  0  0  0  0  0  0  0  0  0
   24.9886   -7.2987    0.0000 O   0  0  0  0  0  0  0  0  0  0  0  0
   23.8143   -4.9812    0.0000 C   0  0  0  0  0  0  0  0  0  0  0  0
   22.5581   -4.1614    0.0000 C   0  0  0  0  0  0  0  0  0  0  0  0
   19.5259   -5.8976    0.0000 C   0  0  0  0  0  0  0  0  0  0  0  0
   21.0143   -6.0838    0.0000 O   0  0  0  0  0  0  0  0  0  0  0  0
   18.7730   -7.1949    0.0000 O   0  0  0  0  0  0  0  0  0  0  0  0
  -18.7854   -2.7868    0.0000 H   0  0  0  0  0  0  0  0  0  0  0  0
  -19.1706    1.6892    0.0000 H   0  0  0  0  0  0  0  0  0  0  0  0
  -21.8337    3.0705    0.0000 H   0  0  0  0  0  0  0  0  0  0  0  0
  -21.2024   -2.8625    0.0000 H   0  0  0  0  0  0  0  0  0  0  0  0
  -28.0671   -4.9093    0.0000 H   0  0  0  0  0  0  0  0  0  0  0  0
  -29.3757    0.1193    0.0000 H   0  0  0  0  0  0  0  0  0  0  0  0
  -26.4724    0.8748    0.0000 H   0  0  0  0  0  0  0  0  0  0  0  0
  -31.2260   -1.7045    0.0000 H   0  0  0  0  0  0  0  0  0  0  0  0
  -21.4631   -0.5063    0.0000 H   0  0  0  0  0  0  0  0  0  0  0  0
  -19.3220   -2.8226    0.0000 H   0  0  0  0  0  0  0  0  0  0  0  0
  -23.0579   -6.2904    0.0000 H   0  0  0  0  0  0  0  0  0  0  0  0
  -20.5532   -6.9810    0.0000 H   0  0  0  0  0  0  0  0  0  0  0  0
  -16.3721   -2.6890    0.0000 H   0  0  0  0  0  0  0  0  0  0  0  0
  -14.2646    0.8087    0.0000 H   0  0  0  0  0  0  0  0  0  0  0  0
  -16.1910    0.7217    0.0000 H   0  0  0  0  0  0  0  0  0  0  0  0
  -12.8293   -2.1777    0.0000 H   0  0  0  0  0  0  0  0  0  0  0  0
  -14.7557   -2.2647    0.0000 H   0  0  0  0  0  0  0  0  0  0  0  0
  -11.1813   -2.4546    0.0000 H   0  0  0  0  0  0  0  0  0  0  0  0
  -11.0001    0.9562    0.0000 H   0  0  0  0  0  0  0  0  0  0  0  0
   -8.8026    2.5185    0.0000 H   0  0  0  0  0  0  0  0  0  0  0  0
  -10.4052    1.7338    0.0000 H   0  0  0  0  0  0  0  0  0  0  0  0
   -6.2547    0.1590    0.0000 H   0  0  0  0  0  0  0  0  0  0  0  0
   -7.3105   -0.6248    0.0000 H   0  0  0  0  0  0  0  0  0  0  0  0
   -6.2260    3.4723    0.0000 H   0  0  0  0  0  0  0  0  0  0  0  0
   -7.9123    2.8888    0.0000 H   0  0  0  0  0  0  0  0  0  0  0  0
   -4.2933    0.6430    0.0000 H   0  0  0  0  0  0  0  0  0  0  0  0
   -1.8773    4.0367    0.0000 H   0  0  0  0  0  0  0  0  0  0  0  0
   -3.9408    5.6152    0.0000 H   0  0  0  0  0  0  0  0  0  0  0  0
   -6.3396    4.6174    0.0000 H   0  0  0  0  0  0  0  0  0  0  0  0
   -7.0927    1.4393    0.0000 H   0  0  0  0  0  0  0  0  0  0  0  0
   -7.1079   -1.7931    0.0000 H   0  0  0  0  0  0  0  0  0  0  0  0
   -3.7115   -2.5167    0.0000 H   0  0  0  0  0  0  0  0  0  0  0  0
   -3.8705   -0.8906    0.0000 H   0  0  0  0  0  0  0  0  0  0  0  0
   -6.5417   -4.3287    0.0000 H   0  0  0  0  0  0  0  0  0  0  0  0
   -6.8977   -2.7341    0.0000 H   0  0  0  0  0  0  0  0  0  0  0  0
   -3.1453   -5.0523    0.0000 H   0  0  0  0  0  0  0  0  0  0  0  0
   -3.4271   -3.2903    0.0000 H   0  0  0  0  0  0  0  0  0  0  0  0
   -5.8372   -6.9843    0.0000 H   0  0  0  0  0  0  0  0  0  0  0  0
   -6.3316   -5.2698    0.0000 H   0  0  0  0  0  0  0  0  0  0  0  0
   -4.3597   -8.3286    0.0000 H   0  0  0  0  0  0  0  0  0  0  0  0
   -2.4468   -6.5705    0.0000 H   0  0  0  0  0  0  0  0  0  0  0  0
   -3.2128   -2.0835    0.0000 H   0  0  0  0  0  0  0  0  0  0  0  0
   -3.2138    1.3078    0.0000 H   0  0  0  0  0  0  0  0  0  0  0  0
   -0.8385    2.8261    0.0000 H   0  0  0  0  0  0  0  0  0  0  0  0
   -2.6932    1.9180    0.0000 H   0  0  0  0  0  0  0  0  0  0  0  0
   -0.3964   -1.1192    0.0000 H   0  0  0  0  0  0  0  0  0  0  0  0
    3.1577   -1.5817    0.0000 H   0  0  0  0  0  0  0  0  0  0  0  0
    4.6624    0.6206    0.0000 H   0  0  0  0  0  0  0  0  0  0  0  0
    3.7714    3.1346    0.0000 H   0  0  0  0  0  0  0  0  0  0  0  0
    0.2173    3.5971    0.0000 H   0  0  0  0  0  0  0  0  0  0  0  0
    0.5122    1.8162    0.0000 H   0  0  0  0  0  0  0  0  0  0  0  0
    0.5947   -1.9230    0.0000 H   0  0  0  0  0  0  0  0  0  0  0  0
    1.2406   -3.0607    0.0000 H   0  0  0  0  0  0  0  0  0  0  0  0
    1.4660   -3.6434    0.0000 H   0  0  0  0  0  0  0  0  0  0  0  0
    2.2475   -4.4748    0.0000 H   0  0  0  0  0  0  0  0  0  0  0  0
    2.7020   -4.8797    0.0000 H   0  0  0  0  0  0  0  0  0  0  0  0
    3.9804   -5.6068    0.0000 H   0  0  0  0  0  0  0  0  0  0  0  0
    4.9388   -6.1722    0.0000 H   0  0  0  0  0  0  0  0  0  0  0  0
    0.4020   -2.7922    0.0000 H   0  0  0  0  0  0  0  0  0  0  0  0
   -0.7168   -2.1013    0.0000 H   0  0  0  0  0  0  0  0  0  0  0  0
   -0.4585   -0.1903    0.0000 H   0  0  0  0  0  0  0  0  0  0  0  0
    1.1139    3.4132    0.0000 H   0  0  0  0  0  0  0  0  0  0  0  0
    1.7497    3.8864    0.0000 H   0  0  0  0  0  0  0  0  0  0  0  0
    3.3604    6.6409    0.0000 H   0  0  0  0  0  0  0  0  0  0  0  0
    4.3987    5.5902    0.0000 H   0  0  0  0  0  0  0  0  0  0  0  0
    0.0316    5.6521    0.0000 H   0  0  0  0  0  0  0  0  0  0  0  0
    0.9489    4.3000    0.0000 H   0  0  0  0  0  0  0  0  0  0  0  0
    1.4716    8.6362    0.0000 H   0  0  0  0  0  0  0  0  0  0  0  0
    2.7258    7.3669    0.0000 H   0  0  0  0  0  0  0  0  0  0  0  0
   -1.3080    6.6513    0.0000 H   0  0  0  0  0  0  0  0  0  0  0  0
   -2.1787   11.0662    0.0000 H   0  0  0  0  0  0  0  0  0  0  0  0
    0.3702   11.5690    0.0000 H   0  0  0  0  0  0  0  0  0  0  0  0
    2.0801    9.6129    0.0000 H   0  0  0  0  0  0  0  0  0  0  0  0
    5.6338    6.5455    0.0000 H   0  0  0  0  0  0  0  0  0  0  0  0
    6.5823    6.3633    0.0000 H   0  0  0  0  0  0  0  0  0  0  0  0
    9.7401    6.8214    0.0000 H   0  0  0  0  0  0  0  0  0  0  0  0
    9.5660    5.3546    0.0000 H   0  0  0  0  0  0  0  0  0  0  0  0
    6.4667    7.0743    0.0000 H   0  0  0  0  0  0  0  0  0  0  0  0
    8.4894   10.2615    0.0000 H   0  0  0  0  0  0  0  0  0  0  0  0
   10.1224    9.5422    0.0000 H   0  0  0  0  0  0  0  0  0  0  0  0
    9.9121    7.7702    0.0000 H   0  0  0  0  0  0  0  0  0  0  0  0
    7.2358   10.2674    0.0000 H   0  0  0  0  0  0  0  0  0  0  0  0
    5.5961    9.5636    0.0000 H   0  0  0  0  0  0  0  0  0  0  0  0
    5.9219    7.6630    0.0000 H   0  0  0  0  0  0  0  0  0  0  0  0
   10.9391    5.0978    0.0000 H   0  0  0  0  0  0  0  0  0  0  0  0
   11.7011    4.0593    0.0000 H   0  0  0  0  0  0  0  0  0  0  0  0
   13.9369    2.1118    0.0000 H   0  0  0  0  0  0  0  0  0  0  0  0
   12.6035    1.1676    0.0000 H   0  0  0  0  0  0  0  0  0  0  0  0
   15.5419    2.5774    0.0000 H   0  0  0  0  0  0  0  0  0  0  0  0
   17.1183    5.1299    0.0000 H   0  0  0  0  0  0  0  0  0  0  0  0
   15.6961    7.7713    0.0000 H   0  0  0  0  0  0  0  0  0  0  0  0
   12.6974    7.8603    0.0000 H   0  0  0  0  0  0  0  0  0  0  0  0
   11.1376    5.4903    0.0000 H   0  0  0  0  0  0  0  0  0  0  0  0
   13.2601   -0.2491    0.0000 H   0  0  0  0  0  0  0  0  0  0  0  0
   11.2409   -4.3620    0.0000 H   0  0  0  0  0  0  0  0  0  0  0  0
   12.1565   -3.4275    0.0000 H   0  0  0  0  0  0  0  0  0  0  0  0
    9.9056   -5.4713    0.0000 H   0  0  0  0  0  0  0  0  0  0  0  0
   10.8738   -4.8677    0.0000 H   0  0  0  0  0  0  0  0  0  0  0  0
    7.9407   -6.1221    0.0000 H   0  0  0  0  0  0  0  0  0  0  0  0
    9.3627   -5.7464    0.0000 H   0  0  0  0  0  0  0  0  0  0  0  0
    6.8696   -6.4234    0.0000 H   0  0  0  0  0  0  0  0  0  0  0  0
   14.1742   -2.1352    0.0000 H   0  0  0  0  0  0  0  0  0  0  0  0
   14.0781   -0.3534    0.0000 H   0  0  0  0  0  0  0  0  0  0  0  0
   12.6982    0.1740    0.0000 H   0  0  0  0  0  0  0  0  0  0  0  0
   14.6003   -1.3593    0.0000 H   0  0  0  0  0  0  0  0  0  0  0  0
   13.4094   -4.5346    0.0000 H   0  0  0  0  0  0  0  0  0  0  0  0
   15.9298   -6.5928    0.0000 H   0  0  0  0  0  0  0  0  0  0  0  0
   16.6451   -4.9579    0.0000 H   0  0  0  0  0  0  0  0  0  0  0  0
   14.5927   -7.8222    0.0000 H   0  0  0  0  0  0  0  0  0  0  0  0
   16.7200   -6.3181    0.0000 H   0  0  0  0  0  0  0  0  0  0  0  0
   18.1906   -3.2622    0.0000 H   0  0  0  0  0  0  0  0  0  0  0  0
   20.9894   -2.9249    0.0000 H   0  0  0  0  0  0  0  0  0  0  0  0
   19.0639   -2.8197    0.0000 H   0  0  0  0  0  0  0  0  0  0  0  0
   19.8928   -7.1732    0.0000 H   0  0  0  0  0  0  0  0  0  0  0  0
   22.3126   -8.6547    0.0000 H   0  0  0  0  0  0  0  0  0  0  0  0
   26.3267   -6.6207    0.0000 H   0  0  0  0  0  0  0  0  0  0  0  0
   25.1523   -4.3032    0.0000 H   0  0  0  0  0  0  0  0  0  0  0  0
   22.6400   -2.6636    0.0000 H   0  0  0  0  0  0  0  0  0  0  0  0
   19.8368   -8.4770    0.0000 H   0  0  0  0  0  0  0  0  0  0  0  0
  1  2  1  0
  2  3  1  0
  3  4  2  0
  4  5  1  0
  5  6  2  0
  6  7  1  0
  7  8  2  0
  7  9  1  0
  9 10  1  0
 10 11  1  0
 11 12  2  0
  9 13  1  0
 13 14  1  0
 14 15  2  0
 15 16  1  0
 16 17  2  0
 17 18  1  0
 16 19  1  0
 14 20  1  0
 20 21  1  0
 21 22  2  0
 22 23  1  0
 23 24  2  0
 24 25  1  0
 25 26  2  0
 25 27  1  0
  1 28  2  0
  1 29  1  0
 29 30  1  0
 30 31  1  0
 31 32  1  0
 32 33  2  0
 32 34  1  0
 34 35  1  0
 35 36  1  0
 36 37  1  0
 37 38  1  0
 38 39  1  0
 39 40  1  0
 40 41  2  3
 40 42  1  0
 35 43  1  0
 43 44  2  0
 43 45  1  0
 45 46  1  0
 46 47  1  0
 47 48  1  0
 48 49  1  0
 49 50  1  0
 50 51  1  0
 46 52  1  0
 52 53  2  0
 52 54  1  0
 54 55  1  0
 55 56  1  0
 56 57  1  0
 57 58  2  0
 58 59  1  0
 59 60  2  0
 60 61  1  0
 61 62  2  0
 55 63  1  0
 63 64  2  0
 63 65  1  0
 66 65  1  6
 66 67  1  0
 67 68  1  0
 68 69  1  0
 69 70  1  0
 66 71  1  0
 66 72  1  0
 72 73  2  0
 72 74  1  0
 74 75  1  0
 75 76  1  0
 76 77  1  0
 77 78  1  0
 78 79  1  0
 79 80  1  0
 80 81  2  3
 80 82  1  0
 75 83  1  0
 83 84  2  0
 83 85  1  0
 85 86  1  0
 86 87  1  0
 87 88  1  0
 88 89  1  0
 88 90  1  0
 86 91  1  0
 91 92  2  0
 91 93  1  0
 93 94  1  0
 94 95  1  0
 95 96  1  0
 96 97  2  0
 97 98  1  0
 98 99  2  0
 99100  1  0
100101  2  0
 94102  1  0
102103  2  0
102104  1  0
104105  1  0
105106  1  0
106107  1  0
107108  1  0
108109  1  0
105110  1  0
105111  1  6
111112  2  0
111113  1  0
113114  1  0
114115  1  0
115116  1  0
114117  1  0
117118  2  0
117119  1  0
119120  1  0
120121  1  0
121122  1  0
122123  2  0
123124  1  0
124125  2  0
125126  1  0
125127  1  0
127128  2  0
120129  1  0
129130  2  0
129131  1  0
  8  3  1  0
 62 57  1  0
101 96  1  0
128122  1  0
 11  6  1  0
 70109  2  0
 18 13  2  0
 22  9  1  0
 26 21  1  0
  2132  1  0
  4133  1  0
  5134  1  0
  8135  1  0
 15136  1  0
 17137  1  0
 18138  1  0
 19139  1  0
 23140  1  0
 24141  1  0
 26142  1  0
 27143  1  0
 29144  1  0
 30145  1  0
 30146  1  0
 31147  1  0
 31148  1  0
 34149  1  0
 35150  1  1
 36151  1  0
 36152  1  0
 37153  1  0
 37154  1  0
 38155  1  0
 38156  1  0
 39157  1  0
 41158  1  0
 42159  1  0
 42160  1  0
 45161  1  0
 46162  1  6
 47163  1  0
 47164  1  0
 48165  1  0
 48166  1  0
 49167  1  0
 49168  1  0
 50169  1  0
 50170  1  0
 51171  1  0
 51172  1  0
 54173  1  0
 55174  1  1
 56175  1  0
 56176  1  0
 58177  1  0
 59178  1  0
 60179  1  0
 61180  1  0
 62181  1  0
 65182  1  0
 67183  1  0
 67184  1  0
 68185  1  0
 68186  1  0
 69187  1  0
 69188  1  0
 70189  1  0
 71190  1  0
 71191  1  0
 71192  1  0
 74193  1  0
 75194  1  1
 76195  1  0
 76196  1  0
 77197  1  0
 77198  1  0
 78199  1  0
 78200  1  0
 79201  1  0
 81202  1  0
 82203  1  0
 82204  1  0
 85205  1  0
 86206  1  1
 87207  1  0
 87208  1  0
 88209  1  0
 89210  1  0
 89211  1  0
 89212  1  0
 90213  1  0
 90214  1  0
 90215  1  0
 93216  1  0
 94217  1  1
 95218  1  0
 95219  1  0
 97220  1  0
 98221  1  0
 99222  1  0
100223  1  0
101224  1  0
104225  1  0
106226  1  0
106227  1  0
107228  1  0
107229  1  0
108230  1  0
108231  1  0
109232  1  0
110233  1  0
110234  1  0
110235  1  0
113236  1  0
114237  1  6
115238  1  0
115239  1  0
116240  1  0
119241  1  0
120242  1  1
121243  1  0
121244  1  0
123245  1  0
124246  1  0
126247  1  0
127248  1  0
128249  1  0
131250  1  0
M  END
