
     RDKit          2D

296303  0  0  0  0  0  0  0  0999 V2000
   19.8734   -3.1889    0.0000 C   0  0  0  0  0  0  0  0  0  0  0  0
   21.1946   -2.4788    0.0000 N   0  0  0  0  0  0  0  0  0  0  0  0
   22.4702   -3.2681    0.0000 C   0  0  0  0  0  0  0  0  0  0  0  0
   22.4245   -4.7674    0.0000 C   0  0  0  0  0  0  0  0  0  0  0  0
   23.7001   -5.5566    0.0000 C   0  0  0  0  0  0  0  0  0  0  0  0
   25.0214   -4.8465    0.0000 C   0  0  0  0  0  0  0  0  0  0  0  0
   25.0671   -3.3472    0.0000 C   0  0  0  0  0  0  0  0  0  0  0  0
   23.7915   -2.5580    0.0000 C   0  0  0  0  0  0  0  0  0  0  0  0
   26.5071   -2.9273    0.0000 C   0  0  0  0  0  0  0  0  0  0  0  0
   27.3515   -4.1671    0.0000 O   0  0  0  0  0  0  0  0  0  0  0  0
   26.4332   -5.3532    0.0000 C   0  0  0  0  0  0  0  0  0  0  0  0
   26.8531   -6.7933    0.0000 O   0  0  0  0  0  0  0  0  0  0  0  0
   27.9832   -2.6603    0.0000 C   0  0  0  0  0  0  0  0  0  0  0  0
   28.4899   -1.2485    0.0000 C   0  0  0  0  0  0  0  0  0  0  0  0
   29.9660   -0.9815    0.0000 C   0  0  0  0  0  0  0  0  0  0  0  0
   30.9353   -2.1262    0.0000 C   0  0  0  0  0  0  0  0  0  0  0  0
   30.4285   -3.5380    0.0000 C   0  0  0  0  0  0  0  0  0  0  0  0
   28.9525   -3.8051    0.0000 C   0  0  0  0  0  0  0  0  0  0  0  0
   32.4113   -1.8592    0.0000 O   0  0  0  0  0  0  0  0  0  0  0  0
   27.5207   -0.1037    0.0000 O   0  0  0  0  0  0  0  0  0  0  0  0
   26.0446   -0.3707    0.0000 C   0  0  0  0  0  0  0  0  0  0  0  0
   25.5379   -1.7826    0.0000 C   0  0  0  0  0  0  0  0  0  0  0  0
   24.2983   -1.3907    0.0000 C   0  0  0  0  0  0  0  0  0  0  0  0
   23.7814   -0.7802    0.0000 C   0  0  0  0  0  0  0  0  0  0  0  0
   24.0516   -0.0272    0.0000 C   0  0  0  0  0  0  0  0  0  0  0  0
   24.8389    0.1152    0.0000 C   0  0  0  0  0  0  0  0  0  0  0  0
   22.6300    1.6518    0.0000 O   0  0  0  0  0  0  0  0  0  0  0  0
   19.8277   -4.6882    0.0000 S   0  0  0  0  0  0  0  0  0  0  0  0
   18.5978   -2.3997    0.0000 N   0  0  0  0  0  0  0  0  0  0  0  0
   17.2765   -3.1098    0.0000 C   0  0  0  0  0  0  0  0  0  0  0  0
   16.0009   -2.3206    0.0000 C   0  0  0  0  0  0  0  0  0  0  0  0
   14.6796   -3.0307    0.0000 C   0  0  0  0  0  0  0  0  0  0  0  0
   14.8489   -3.8096    0.0000 O   0  0  0  0  0  0  0  0  0  0  0  0
   13.4040   -2.2414    0.0000 N   0  0  0  0  0  0  0  0  0  0  0  0
   12.0828   -2.9515    0.0000 C   0  0  0  0  0  0  0  0  0  0  0  0
   13.0115   -4.1294    0.0000 C   0  0  0  0  0  0  0  0  0  0  0  0
   14.4959   -3.9141    0.0000 C   0  0  0  0  0  0  0  0  0  0  0  0
   15.4247   -5.0920    0.0000 N   0  0  0  0  0  0  0  0  0  0  0  0
   15.3723   -2.6967    0.0000 O   0  0  0  0  0  0  0  0  0  0  0  0
   10.5983   -3.1669    0.0000 C   0  0  0  0  0  0  0  0  0  0  0  0
   10.3962   -4.6532    0.0000 O   0  0  0  0  0  0  0  0  0  0  0  0
    9.6696   -1.9890    0.0000 N   0  0  0  0  0  0  0  0  0  0  0  0
    8.1851   -2.2043    0.0000 C   0  0  0  0  0  0  0  0  0  0  0  0
    8.6550   -3.6288    0.0000 C   0  0  0  0  0  0  0  0  0  0  0  0
   10.1235   -3.9342    0.0000 C   0  0  0  0  0  0  0  0  0  0  0  0
   10.5934   -5.3587    0.0000 C   0  0  0  0  0  0  0  0  0  0  0  0
   12.0138   -5.8408    0.0000 O   0  0  0  0  0  0  0  0  0  0  0  0
    9.5947   -6.4779    0.0000 O   0  0  0  0  0  0  0  0  0  0  0  0
    6.7165   -1.8990    0.0000 C   0  0  0  0  0  0  0  0  0  0  0  0
    6.0183   -3.2266    0.0000 O   0  0  0  0  0  0  0  0  0  0  0  0
    6.2466   -0.4745    0.0000 N   0  0  0  0  0  0  0  0  0  0  0  0
    4.7780   -0.1691    0.0000 C   0  0  0  0  0  0  0  0  0  0  0  0
    4.7324   -1.6684    0.0000 C   0  0  0  0  0  0  0  0  0  0  0  0
    6.0080   -2.4577    0.0000 C   0  0  0  0  0  0  0  0  0  0  0  0
    5.9623   -3.9570    0.0000 C   0  0  0  0  0  0  0  0  0  0  0  0
    7.4765   -2.7630    0.0000 C   0  0  0  0  0  0  0  0  0  0  0  0
    3.5025    0.6201    0.0000 C   0  0  0  0  0  0  0  0  0  0  0  0
    2.3923   -0.3886    0.0000 O   0  0  0  0  0  0  0  0  0  0  0  0
    3.5481    2.1194    0.0000 N   0  0  0  0  0  0  0  0  0  0  0  0
    2.2726    2.9086    0.0000 C   0  0  0  0  0  0  0  0  0  0  0  0
    2.1319    1.4152    0.0000 C   0  0  0  0  0  0  0  0  0  0  0  0
    1.7111   -0.0246    0.0000 C   0  0  0  0  0  0  0  0  0  0  0  0
    1.0255   -1.3587    0.0000 C   0  0  0  0  0  0  0  0  0  0  0  0
    0.0997   -2.5389    0.0000 C   0  0  0  0  0  0  0  0  0  0  0  0
   -1.0327   -3.5227    0.0000 C   0  0  0  0  0  0  0  0  0  0  0  0
   -2.3307   -4.2743    0.0000 C   0  0  0  0  0  0  0  0  0  0  0  0
   -3.7476   -4.7667    0.0000 C   0  0  0  0  0  0  0  0  0  0  0  0
    3.5461    3.7011    0.0000 C   0  0  0  0  0  0  0  0  0  0  0  0
    2.1281    4.4016    0.0000 C   0  0  0  0  0  0  0  0  0  0  0  0
    3.5548    4.8647    0.0000 O   0  0  0  0  0  0  0  0  0  0  0  0
    1.7036    5.8403    0.0000 N   0  0  0  0  0  0  0  0  0  0  0  0
    1.0146    7.1727    0.0000 C   0  0  0  0  0  0  0  0  0  0  0  0
    1.6576    8.5279    0.0000 C   0  0  0  0  0  0  0  0  0  0  0  0
    3.1527    8.6487    0.0000 C   0  0  0  0  0  0  0  0  0  0  0  0
    3.7957   10.0039    0.0000 C   0  0  0  0  0  0  0  0  0  0  0  0
    5.2908   10.1247    0.0000 N   0  0  0  0  0  0  0  0  0  0  0  0
    5.9338   11.4799    0.0000 C   0  0  0  0  0  0  0  0  0  0  0  0
    7.4289   11.6007    0.0000 N   0  0  0  0  0  0  0  0  0  0  0  0
    5.0816   12.7143    0.0000 N   0  0  0  0  0  0  0  0  0  0  0  0
    0.0859    8.3506    0.0000 C   0  0  0  0  0  0  0  0  0  0  0  0
    1.0357    9.5116    0.0000 O   0  0  0  0  0  0  0  0  0  0  0  0
   -1.0490    9.3315    0.0000 N   0  0  0  0  0  0  0  0  0  0  0  0
   -2.3490   10.0798    0.0000 C   0  0  0  0  0  0  0  0  0  0  0  0
   -2.5408   11.5675    0.0000 C   0  0  0  0  0  0  0  0  0  0  0  0
   -1.3483   12.4774    0.0000 O   0  0  0  0  0  0  0  0  0  0  0  0
   -3.7671   10.5686    0.0000 C   0  0  0  0  0  0  0  0  0  0  0  0
   -3.5957   12.0588    0.0000 O   0  0  0  0  0  0  0  0  0  0  0  0
   -5.2521   10.7802    0.0000 N   0  0  0  0  0  0  0  0  0  0  0  0
   -6.7503   10.7069    0.0000 C   0  0  0  0  0  0  0  0  0  0  0  0
   -7.7160   11.8548    0.0000 C   0  0  0  0  0  0  0  0  0  0  0  0
   -7.2047   13.2650    0.0000 C   0  0  0  0  0  0  0  0  0  0  0  0
   -5.7278   13.5273    0.0000 C   0  0  0  0  0  0  0  0  0  0  0  0
   -5.2166   14.9375    0.0000 C   0  0  0  0  0  0  0  0  0  0  0  0
   -6.1822   16.0853    0.0000 C   0  0  0  0  0  0  0  0  0  0  0  0
   -7.6591   15.8230    0.0000 C   0  0  0  0  0  0  0  0  0  0  0  0
   -8.1704   14.4128    0.0000 C   0  0  0  0  0  0  0  0  0  0  0  0
   -8.2076   10.3514    0.0000 C   0  0  0  0  0  0  0  0  0  0  0  0
   -8.8690   11.6977    0.0000 O   0  0  0  0  0  0  0  0  0  0  0  0
   -9.5712    9.7266    0.0000 N   0  0  0  0  0  0  0  0  0  0  0  0
  -10.7920    8.8549    0.0000 C   0  0  0  0  0  0  0  0  0  0  0  0
  -12.2249    9.2985    0.0000 C   0  0  0  0  0  0  0  0  0  0  0  0
  -12.5572   10.7612    0.0000 C   0  0  0  0  0  0  0  0  0  0  0  0
  -11.4566   11.7804    0.0000 C   0  0  0  0  0  0  0  0  0  0  0  0
  -11.7890   13.2431    0.0000 C   0  0  0  0  0  0  0  0  0  0  0  0
  -13.2219   13.6867    0.0000 C   0  0  0  0  0  0  0  0  0  0  0  0
  -14.3225   12.6675    0.0000 C   0  0  0  0  0  0  0  0  0  0  0  0
  -13.9902   11.2048    0.0000 C   0  0  0  0  0  0  0  0  0  0  0  0
  -11.8257    7.7680    0.0000 C   0  0  0  0  0  0  0  0  0  0  0  0
  -13.1100    8.5430    0.0000 O   0  0  0  0  0  0  0  0  0  0  0  0
  -12.6351    6.5051    0.0000 N   0  0  0  0  0  0  0  0  0  0  0  0
  -13.1908    5.1119    0.0000 C   0  0  0  0  0  0  0  0  0  0  0  0
  -14.6361    4.7103    0.0000 C   0  0  0  0  0  0  0  0  0  0  0  0
  -13.4728    3.6386    0.0000 C   0  0  0  0  0  0  0  0  0  0  0  0
  -14.9722    3.5962    0.0000 O   0  0  0  0  0  0  0  0  0  0  0  0
  -13.4709    2.1386    0.0000 N   0  0  0  0  0  0  0  0  0  0  0  0
  -13.1852    0.6661    0.0000 C   0  0  0  0  0  0  0  0  0  0  0  0
  -14.1839   -0.4531    0.0000 C   0  0  0  0  0  0  0  0  0  0  0  0
  -15.6525   -0.1477    0.0000 C   0  0  0  0  0  0  0  0  0  0  0  0
  -16.6512   -1.2669    0.0000 C   0  0  0  0  0  0  0  0  0  0  0  0
  -16.9281    0.6415    0.0000 C   0  0  0  0  0  0  0  0  0  0  0  0
  -12.6259   -0.7258    0.0000 C   0  0  0  0  0  0  0  0  0  0  0  0
  -13.8644   -1.5721    0.0000 O   0  0  0  0  0  0  0  0  0  0  0  0
  -11.8133   -1.9866    0.0000 N   0  0  0  0  0  0  0  0  0  0  0  0
  -10.7768   -3.0709    0.0000 C   0  0  0  0  0  0  0  0  0  0  0  0
   -9.5539   -3.9394    0.0000 C   0  0  0  0  0  0  0  0  0  0  0  0
   -8.1886   -4.5608    0.0000 C   0  0  0  0  0  0  0  0  0  0  0  0
   -6.7305   -4.9126    0.0000 C   0  0  0  0  0  0  0  0  0  0  0  0
   -5.2321   -4.9821    0.0000 C   0  0  0  0  0  0  0  0  0  0  0  0
  -12.2086   -3.5181    0.0000 C   0  0  0  0  0  0  0  0  0  0  0  0
  -11.0120   -4.5524    0.0000 C   0  0  0  0  0  0  0  0  0  0  0  0
  -10.1097   -5.7506    0.0000 O   0  0  0  0  0  0  0  0  0  0  0  0
  -12.4125   -5.0895    0.0000 N   0  0  0  0  0  0  0  0  0  0  0  0
  -12.6476   -6.5709    0.0000 C   0  0  0  0  0  0  0  0  0  0  0  0
  -12.3619   -8.0435    0.0000 C   0  0  0  0  0  0  0  0  0  0  0  0
  -13.4943   -9.0272    0.0000 C   0  0  0  0  0  0  0  0  0  0  0  0
  -13.2085  -10.4997    0.0000 O   0  0  0  0  0  0  0  0  0  0  0  0
  -14.9885   -8.8961    0.0000 O   0  0  0  0  0  0  0  0  0  0  0  0
  -14.0482   -7.1080    0.0000 C   0  0  0  0  0  0  0  0  0  0  0  0
  -15.2136   -6.1637    0.0000 O   0  0  0  0  0  0  0  0  0  0  0  0
  -14.2833   -8.5895    0.0000 N   0  0  0  0  0  0  0  0  0  0  0  0
  -15.6838   -9.1266    0.0000 C   0  0  0  0  0  0  0  0  0  0  0  0
  -17.1836   -9.1523    0.0000 C   0  0  0  0  0  0  0  0  0  0  0  0
  -18.3331  -10.1160    0.0000 O   0  0  0  0  0  0  0  0  0  0  0  0
  -15.9190  -10.6081    0.0000 C   0  0  0  0  0  0  0  0  0  0  0  0
  -14.7535  -11.5524    0.0000 O   0  0  0  0  0  0  0  0  0  0  0  0
  -17.3195  -11.1452    0.0000 N   0  0  0  0  0  0  0  0  0  0  0  0
  -17.5546  -12.6266    0.0000 C   0  0  0  0  0  0  0  0  0  0  0  0
  -17.2689  -14.0992    0.0000 C   0  0  0  0  0  0  0  0  0  0  0  0
  -18.4012  -15.0829    0.0000 C   0  0  0  0  0  0  0  0  0  0  0  0
  -16.4967  -15.3852    0.0000 C   0  0  0  0  0  0  0  0  0  0  0  0
  -14.9969  -15.3594    0.0000 C   0  0  0  0  0  0  0  0  0  0  0  0
  -18.9552  -13.1637    0.0000 C   0  0  0  0  0  0  0  0  0  0  0  0
  -19.3691  -14.6055    0.0000 O   0  0  0  0  0  0  0  0  0  0  0  0
  -20.1206  -12.2194    0.0000 O   0  0  0  0  0  0  0  0  0  0  0  0
   21.0572   -0.9851    0.0000 H   0  0  0  0  0  0  0  0  0  0  0  0
   21.1033   -5.4774    0.0000 H   0  0  0  0  0  0  0  0  0  0  0  0
   23.6545   -7.0559    0.0000 H   0  0  0  0  0  0  0  0  0  0  0  0
   23.4730   -1.0922    0.0000 H   0  0  0  0  0  0  0  0  0  0  0  0
   30.4727    0.4304    0.0000 H   0  0  0  0  0  0  0  0  0  0  0  0
   31.3978   -4.6828    0.0000 H   0  0  0  0  0  0  0  0  0  0  0  0
   28.4457   -5.2169    0.0000 H   0  0  0  0  0  0  0  0  0  0  0  0
   33.3806   -3.0040    0.0000 H   0  0  0  0  0  0  0  0  0  0  0  0
   23.5551   -3.4614    0.0000 H   0  0  0  0  0  0  0  0  0  0  0  0
   21.5950   -0.9899    0.0000 H   0  0  0  0  0  0  0  0  0  0  0  0
   25.5821    2.1858    0.0000 H   0  0  0  0  0  0  0  0  0  0  0  0
   23.1368    3.0636    0.0000 H   0  0  0  0  0  0  0  0  0  0  0  0
   18.6435   -0.9004    0.0000 H   0  0  0  0  0  0  0  0  0  0  0  0
   18.2052   -4.2877    0.0000 H   0  0  0  0  0  0  0  0  0  0  0  0
   16.4216   -4.3423    0.0000 H   0  0  0  0  0  0  0  0  0  0  0  0
   16.9996   -1.2014    0.0000 H   0  0  0  0  0  0  0  0  0  0  0  0
   15.0722   -1.1427    0.0000 H   0  0  0  0  0  0  0  0  0  0  0  0
   13.4497   -0.7421    0.0000 H   0  0  0  0  0  0  0  0  0  0  0  0
   11.6129   -1.5270    0.0000 H   0  0  0  0  0  0  0  0  0  0  0  0
   13.4813   -5.5539    0.0000 H   0  0  0  0  0  0  0  0  0  0  0  0
   11.7866   -4.9953    0.0000 H   0  0  0  0  0  0  0  0  0  0  0  0
   16.9243   -5.0592    0.0000 H   0  0  0  0  0  0  0  0  0  0  0  0
   14.8690   -6.4852    0.0000 H   0  0  0  0  0  0  0  0  0  0  0  0
   10.2253   -0.5957    0.0000 H   0  0  0  0  0  0  0  0  0  0  0  0
    8.4132   -0.7218    0.0000 H   0  0  0  0  0  0  0  0  0  0  0  0
    8.6093   -5.1281    0.0000 H   0  0  0  0  0  0  0  0  0  0  0  0
    7.2667   -4.1970    0.0000 H   0  0  0  0  0  0  0  0  0  0  0  0
   11.6080   -3.7188    0.0000 H   0  0  0  0  0  0  0  0  0  0  0  0
   10.5307   -2.4905    0.0000 H   0  0  0  0  0  0  0  0  0  0  0  0
   10.0645   -7.9024    0.0000 H   0  0  0  0  0  0  0  0  0  0  0  0
    7.2454    0.6447    0.0000 H   0  0  0  0  0  0  0  0  0  0  0  0
    5.3338    1.2241    0.0000 H   0  0  0  0  0  0  0  0  0  0  0  0
    4.0109   -2.9836    0.0000 H   0  0  0  0  0  0  0  0  0  0  0  0
    3.2638   -1.3631    0.0000 H   0  0  0  0  0  0  0  0  0  0  0  0
    6.8843   -1.2403    0.0000 H   0  0  0  0  0  0  0  0  0  0  0  0
    7.0090   -5.0314    0.0000 H   0  0  0  0  0  0  0  0  0  0  0  0
    5.4065   -5.3502    0.0000 H   0  0  0  0  0  0  0  0  0  0  0  0
    4.4674   -3.8329    0.0000 H   0  0  0  0  0  0  0  0  0  0  0  0
    7.9464   -4.1875    0.0000 H   0  0  0  0  0  0  0  0  0  0  0  0
    8.9690   -2.9132    0.0000 H   0  0  0  0  0  0  0  0  0  0  0  0
    7.3391   -1.2693    0.0000 H   0  0  0  0  0  0  0  0  0  0  0  0
    4.9461    2.6631    0.0000 H   0  0  0  0  0  0  0  0  0  0  0  0
    3.6208    1.5975    0.0000 H   0  0  0  0  0  0  0  0  0  0  0  0
    3.1029    0.2720    0.0000 H   0  0  0  0  0  0  0  0  0  0  0  0
    3.1839   -0.3090    0.0000 H   0  0  0  0  0  0  0  0  0  0  0  0
    2.6020   -1.2313    0.0000 H   0  0  0  0  0  0  0  0  0  0  0  0
    2.5253   -1.3806    0.0000 H   0  0  0  0  0  0  0  0  0  0  0  0
    1.8320   -2.6234    0.0000 H   0  0  0  0  0  0  0  0  0  0  0  0
    1.5201   -3.0210    0.0000 H   0  0  0  0  0  0  0  0  0  0  0  0
    0.6524   -3.9334    0.0000 H   0  0  0  0  0  0  0  0  0  0  0  0
    0.2709   -4.2649    0.0000 H   0  0  0  0  0  0  0  0  0  0  0  0
   -0.7539   -4.9965    0.0000 H   0  0  0  0  0  0  0  0  0  0  0  0
   -1.1912   -5.2498    0.0000 H   0  0  0  0  0  0  0  0  0  0  0  0
   -2.5187   -5.7625    0.0000 H   0  0  0  0  0  0  0  0  0  0  0  0
   -3.3921   -6.2240    0.0000 H   0  0  0  0  0  0  0  0  0  0  0  0
    4.9455    3.1609    0.0000 H   0  0  0  0  0  0  0  0  0  0  0  0
    4.6088    4.7597    0.0000 H   0  0  0  0  0  0  0  0  0  0  0  0
    2.8445    5.0269    0.0000 H   0  0  0  0  0  0  0  0  0  0  0  0
    3.1533    6.2258    0.0000 H   0  0  0  0  0  0  0  0  0  0  0  0
    2.5063    7.0154    0.0000 H   0  0  0  0  0  0  0  0  0  0  0  0
    1.7983   10.0213    0.0000 H   0  0  0  0  0  0  0  0  0  0  0  0
    0.3506    9.2639    0.0000 H   0  0  0  0  0  0  0  0  0  0  0  0
    4.5990    8.2508    0.0000 H   0  0  0  0  0  0  0  0  0  0  0  0
    3.3776    7.1656    0.0000 H   0  0  0  0  0  0  0  0  0  0  0  0
    3.9364   11.4973    0.0000 H   0  0  0  0  0  0  0  0  0  0  0  0
    2.4087   10.5751    0.0000 H   0  0  0  0  0  0  0  0  0  0  0  0
    6.1430    8.8902    0.0000 H   0  0  0  0  0  0  0  0  0  0  0  0
    8.0719   12.9559    0.0000 H   0  0  0  0  0  0  0  0  0  0  0  0
    5.7246   14.0695    0.0000 H   0  0  0  0  0  0  0  0  0  0  0  0
    3.5865   12.5935    0.0000 H   0  0  0  0  0  0  0  0  0  0  0  0
   -0.1805   10.5544    0.0000 H   0  0  0  0  0  0  0  0  0  0  0  0
   -1.1012   10.9123    0.0000 H   0  0  0  0  0  0  0  0  0  0  0  0
   -3.0622   12.9739    0.0000 H   0  0  0  0  0  0  0  0  0  0  0  0
   -4.0382   11.4800    0.0000 H   0  0  0  0  0  0  0  0  0  0  0  0
   -1.5401   13.9651    0.0000 H   0  0  0  0  0  0  0  0  0  0  0  0
   -5.0005   12.2589    0.0000 H   0  0  0  0  0  0  0  0  0  0  0  0
   -6.1507   12.0818    0.0000 H   0  0  0  0  0  0  0  0  0  0  0  0
   -8.9150   12.7560    0.0000 H   0  0  0  0  0  0  0  0  0  0  0  0
   -8.9284   10.9716    0.0000 H   0  0  0  0  0  0  0  0  0  0  0  0
   -4.6295   12.5057    0.0000 H   0  0  0  0  0  0  0  0  0  0  0  0
   -3.7397   15.1998    0.0000 H   0  0  0  0  0  0  0  0  0  0  0  0
   -5.6710   17.4955    0.0000 H   0  0  0  0  0  0  0  0  0  0  0  0
   -8.6248   16.9708    0.0000 H   0  0  0  0  0  0  0  0  0  0  0  0
   -9.6472   14.1504    0.0000 H   0  0  0  0  0  0  0  0  0  0  0  0
  -10.1591   11.1066    0.0000 H   0  0  0  0  0  0  0  0  0  0  0  0
  -11.0309   10.3358    0.0000 H   0  0  0  0  0  0  0  0  0  0  0  0
  -13.7209    9.4084    0.0000 H   0  0  0  0  0  0  0  0  0  0  0  0
  -12.7674    7.9000    0.0000 H   0  0  0  0  0  0  0  0  0  0  0  0
   -9.9803   11.5148    0.0000 H   0  0  0  0  0  0  0  0  0  0  0  0
  -10.6884   14.2623    0.0000 H   0  0  0  0  0  0  0  0  0  0  0  0
  -13.5542   15.1494    0.0000 H   0  0  0  0  0  0  0  0  0  0  0  0
  -15.7554   13.1111    0.0000 H   0  0  0  0  0  0  0  0  0  0  0  0
  -15.0908   10.1856    0.0000 H   0  0  0  0  0  0  0  0  0  0  0  0
  -13.9692    7.1908    0.0000 H   0  0  0  0  0  0  0  0  0  0  0  0
  -14.1924    6.2285    0.0000 H   0  0  0  0  0  0  0  0  0  0  0  0
  -15.7064    5.7612    0.0000 H   0  0  0  0  0  0  0  0  0  0  0  0
  -15.9540    3.9940    0.0000 H   0  0  0  0  0  0  0  0  0  0  0  0
  -14.3364    3.2406    0.0000 H   0  0  0  0  0  0  0  0  0  0  0  0
  -14.9704    2.1772    0.0000 H   0  0  0  0  0  0  0  0  0  0  0  0
  -14.5722    1.2373    0.0000 H   0  0  0  0  0  0  0  0  0  0  0  0
  -14.7396   -1.8463    0.0000 H   0  0  0  0  0  0  0  0  0  0  0  0
  -13.1372   -1.5275    0.0000 H   0  0  0  0  0  0  0  0  0  0  0  0
  -15.4504    1.3386    0.0000 H   0  0  0  0  0  0  0  0  0  0  0  0
  -18.1461   -1.1429    0.0000 H   0  0  0  0  0  0  0  0  0  0  0  0
  -17.2070   -2.6602    0.0000 H   0  0  0  0  0  0  0  0  0  0  0  0
  -15.4814   -2.2057    0.0000 H   0  0  0  0  0  0  0  0  0  0  0  0
  -18.3261    0.0977    0.0000 H   0  0  0  0  0  0  0  0  0  0  0  0
  -17.8568    1.8194    0.0000 H   0  0  0  0  0  0  0  0  0  0  0  0
  -15.9294    1.7606    0.0000 H   0  0  0  0  0  0  0  0  0  0  0  0
  -13.0957   -2.7648    0.0000 H   0  0  0  0  0  0  0  0  0  0  0  0
   -9.5044   -5.4386    0.0000 H   0  0  0  0  0  0  0  0  0  0  0  0
  -10.6641   -4.9481    0.0000 H   0  0  0  0  0  0  0  0  0  0  0  0
   -8.0371   -6.0531    0.0000 H   0  0  0  0  0  0  0  0  0  0  0  0
   -9.0879   -5.7614    0.0000 H   0  0  0  0  0  0  0  0  0  0  0  0
   -6.1273   -6.2860    0.0000 H   0  0  0  0  0  0  0  0  0  0  0  0
   -7.5458   -6.1717    0.0000 H   0  0  0  0  0  0  0  0  0  0  0  0
   -5.1588   -6.4803    0.0000 H   0  0  0  0  0  0  0  0  0  0  0  0
  -12.8816   -4.8587    0.0000 H   0  0  0  0  0  0  0  0  0  0  0  0
  -13.7070   -3.4486    0.0000 H   0  0  0  0  0  0  0  0  0  0  0  0
  -12.7547   -2.1210    0.0000 H   0  0  0  0  0  0  0  0  0  0  0  0
  -13.6844   -4.2942    0.0000 H   0  0  0  0  0  0  0  0  0  0  0  0
  -11.1479   -6.5452    0.0000 H   0  0  0  0  0  0  0  0  0  0  0  0
  -11.5897   -9.3295    0.0000 H   0  0  0  0  0  0  0  0  0  0  0  0
  -10.9613   -7.5063    0.0000 H   0  0  0  0  0  0  0  0  0  0  0  0
  -16.1649   -9.2479    0.0000 H   0  0  0  0  0  0  0  0  0  0  0  0
  -13.3810   -9.7878    0.0000 H   0  0  0  0  0  0  0  0  0  0  0  0
  -15.9696   -7.6541    0.0000 H   0  0  0  0  0  0  0  0  0  0  0  0
  -18.6017   -8.6635    0.0000 H   0  0  0  0  0  0  0  0  0  0  0  0
  -16.9485   -7.6708    0.0000 H   0  0  0  0  0  0  0  0  0  0  0  0
  -19.4110  -10.4897    0.0000 H   0  0  0  0  0  0  0  0  0  0  0  0
  -18.5913  -10.3499    0.0000 H   0  0  0  0  0  0  0  0  0  0  0  0
  -16.0548  -12.6009    0.0000 H   0  0  0  0  0  0  0  0  0  0  0  0
  -15.9442  -13.3953    0.0000 H   0  0  0  0  0  0  0  0  0  0  0  0
  -18.2971  -16.5793    0.0000 H   0  0  0  0  0  0  0  0  0  0  0  0
  -19.8018  -15.6200    0.0000 H   0  0  0  0  0  0  0  0  0  0  0  0
  -19.5830  -14.1591    0.0000 H   0  0  0  0  0  0  0  0  0  0  0  0
  -16.2110  -16.8577    0.0000 H   0  0  0  0  0  0  0  0  0  0  0  0
  -17.8213  -16.0890    0.0000 H   0  0  0  0  0  0  0  0  0  0  0  0
  -14.2248  -16.6454    0.0000 H   0  0  0  0  0  0  0  0  0  0  0  0
  -13.5964  -14.8223    0.0000 H   0  0  0  0  0  0  0  0  0  0  0  0
  -15.1011  -13.8631    0.0000 H   0  0  0  0  0  0  0  0  0  0  0  0
  -21.5211  -12.7565    0.0000 H   0  0  0  0  0  0  0  0  0  0  0  0
  1  2  1  0
  2  3  1  0
  3  4  2  0
  4  5  1  0
  5  6  2  0
  6  7  1  0
  7  8  2  0
  7  9  1  0
  9 10  1  0
 10 11  1  0
 11 12  2  0
  9 13  1  0
 13 14  1  0
 14 15  2  0
 15 16  1  0
 16 17  2  0
 17 18  1  0
 16 19  1  0
 14 20  1  0
 20 21  1  0
 21 22  2  0
 22 23  1  0
 23 24  2  0
 24 25  1  0
 25 26  2  0
 25 27  1  0
  1 28  2  0
  1 29  1  0
 29 30  1  0
 30 31  1  0
 31 32  1  0
 32 33  2  0
 32 34  1  0
 34 35  1  0
 35 36  1  0
 36 37  1  0
 37 38  1  0
 37 39  2  0
 35 40  1  0
 40 41  2  0
 40 42  1  0
 42 43  1  0
 43 44  1  0
 44 45  1  0
 45 46  1  0
 46 47  2  0
 46 48  1  0
 43 49  1  0
 49 50  2  0
 49 51  1  0
 51 52  1  0
 52 53  1  0
 53 54  1  0
 54 55  1  0
 54 56  1  0
 52 57  1  0
 57 58  2  0
 57 59  1  0
 60 59  1  6
 60 61  1  0
 61 62  1  0
 62 63  1  0
 63 64  1  0
 64 65  1  0
 65 66  1  0
 66 67  1  0
 60 68  1  0
 60 69  1  0
 69 70  2  0
 69 71  1  0
 71 72  1  0
 72 73  1  0
 73 74  1  0
 74 75  1  0
 75 76  1  0
 76 77  1  0
 77 78  2  3
 77 79  1  0
 72 80  1  0
 80 81  2  0
 80 82  1  0
 82 83  1  0
 83 84  1  0
 84 85  1  0
 83 86  1  0
 86 87  2  0
 86 88  1  0
 88 89  1  0
 89 90  1  0
 90 91  1  0
 91 92  2  0
 92 93  1  0
 93 94  2  0
 94 95  1  0
 95 96  2  0
 89 97  1  0
 97 98  2  0
 97 99  1  0
 99100  1  0
100101  1  0
101102  1  0
102103  2  0
103104  1  0
104105  2  0
105106  1  0
106107  2  0
100108  1  0
108109  2  0
108110  1  0
110111  1  0
111112  1  0
111113  1  0
113114  2  0
113115  1  0
115116  1  0
116117  1  0
117118  1  0
118119  1  0
118120  1  0
116121  1  0
121122  2  0
121123  1  0
123124  1  0
124125  1  0
125126  1  0
126127  1  0
127128  1  0
124129  1  0
124130  1  1
130131  2  0
130132  1  0
132133  1  0
133134  1  0
134135  1  0
135136  2  0
135137  1  0
133138  1  0
138139  2  0
138140  1  0
140141  1  0
141142  1  0
142143  1  0
141144  1  0
144145  2  0
144146  1  0
146147  1  0
147148  1  0
148149  1  0
148150  1  0
150151  1  0
147152  1  0
152153  2  0
152154  1  0
  8  3  1  0
 96 91  1  0
107102  1  0
 11  6  1  0
 67128  2  0
 18 13  2  0
 22  9  1  0
 26 21  1  0
  2155  1  0
  4156  1  0
  5157  1  0
  8158  1  0
 15159  1  0
 17160  1  0
 18161  1  0
 19162  1  0
 23163  1  0
 24164  1  0
 26165  1  0
 27166  1  0
 29167  1  0
 30168  1  0
 30169  1  0
 31170  1  0
 31171  1  0
 34172  1  0
 35173  1  1
 36174  1  0
 36175  1  0
 38176  1  0
 38177  1  0
 42178  1  0
 43179  1  1
 44180  1  0
 44181  1  0
 45182  1  0
 45183  1  0
 48184  1  0
 51185  1  0
 52186  1  1
 53187  1  0
 53188  1  0
 54189  1  0
 55190  1  0
 55191  1  0
 55192  1  0
 56193  1  0
 56194  1  0
 56195  1  0
 59196  1  0
 61197  1  0
 61198  1  0
 62199  1  0
 62200  1  0
 63201  1  0
 63202  1  0
 64203  1  0
 64204  1  0
 65205  1  0
 65206  1  0
 66207  1  0
 66208  1  0
 67209  1  0
 68210  1  0
 68211  1  0
 68212  1  0
 71213  1  0
 72214  1  6
 73215  1  0
 73216  1  0
 74217  1  0
 74218  1  0
 75219  1  0
 75220  1  0
 76221  1  0
 78222  1  0
 79223  1  0
 79224  1  0
 82225  1  0
 83226  1  6
 84227  1  0
 84228  1  0
 85229  1  0
 88230  1  0
 89231  1  6
 90232  1  0
 90233  1  0
 92234  1  0
 93235  1  0
 94236  1  0
 95237  1  0
 96238  1  0
 99239  1  0
100240  1  6
101241  1  0
101242  1  0
103243  1  0
104244  1  0
105245  1  0
106246  1  0
107247  1  0
110248  1  0
111249  1  6
112250  1  0
112251  1  0
112252  1  0
115253  1  0
116254  1  6
117255  1  0
117256  1  0
118257  1  0
119258  1  0
119259  1  0
119260  1  0
120261  1  0
120262  1  0
120263  1  0
123264  1  0
125265  1  0
125266  1  0
126267  1  0
126268  1  0
127269  1  0
127270  1  0
128271  1  0
129272  1  0
129273  1  0
129274  1  0
132275  1  0
133276  1  1
134277  1  0
134278  1  0
137279  1  0
140280  1  0
141281  1  6
142282  1  0
142283  1  0
143284  1  0
146285  1  0
147286  1  1
148287  1  1
149288  1  0
149289  1  0
149290  1  0
150291  1  0
150292  1  0
151293  1  0
151294  1  0
151295  1  0
154296  1  0
M  END
