
     RDKit          2D

410411  0  0  0  0  0  0  0  0999 V2000
   32.8339    8.0158    0.0000 N   0  0  0  0  0  0  0  0  0  0  0  0
   33.2968    6.5890    0.0000 C   0  0  0  0  0  0  0  0  0  0  0  0
   34.7639    6.2765    0.0000 C   0  0  0  0  0  0  0  0  0  0  0  0
   35.2268    4.8497    0.0000 C   0  0  0  0  0  0  0  0  0  0  0  0
   34.2226    3.7354    0.0000 O   0  0  0  0  0  0  0  0  0  0  0  0
   36.6938    4.5371    0.0000 N   0  0  0  0  0  0  0  0  0  0  0  0
   37.1567    3.1103    0.0000 C   0  0  0  0  0  0  0  0  0  0  0  0
   38.4815    3.8140    0.0000 C   0  0  0  0  0  0  0  0  0  0  0  0
   38.7168    5.2954    0.0000 O   0  0  0  0  0  0  0  0  0  0  0  0
   37.1037    1.6113    0.0000 C   0  0  0  0  0  0  0  0  0  0  0  0
   38.3270    1.0402    0.0000 O   0  0  0  0  0  0  0  0  0  0  0  0
   35.7790    0.9077    0.0000 N   0  0  0  0  0  0  0  0  0  0  0  0
   35.7259   -0.5914    0.0000 C   0  0  0  0  0  0  0  0  0  0  0  0
   37.2114   -0.3833    0.0000 C   0  0  0  0  0  0  0  0  0  0  0  0
   38.1344   -1.5657    0.0000 C   0  0  0  0  0  0  0  0  0  0  0  0
   39.6199   -1.3576    0.0000 C   0  0  0  0  0  0  0  0  0  0  0  0
   40.5428   -2.5401    0.0000 O   0  0  0  0  0  0  0  0  0  0  0  0
   40.1824    0.0329    0.0000 O   0  0  0  0  0  0  0  0  0  0  0  0
   35.1634   -1.9819    0.0000 C   0  0  0  0  0  0  0  0  0  0  0  0
   36.1176   -2.9369    0.0000 O   0  0  0  0  0  0  0  0  0  0  0  0
   33.6779   -2.1900    0.0000 N   0  0  0  0  0  0  0  0  0  0  0  0
   33.1154   -3.5805    0.0000 C   0  0  0  0  0  0  0  0  0  0  0  0
   34.5824   -3.8931    0.0000 C   0  0  0  0  0  0  0  0  0  0  0  0
   35.0453   -5.3198    0.0000 C   0  0  0  0  0  0  0  0  0  0  0  0
   36.5124   -5.6324    0.0000 C   0  0  0  0  0  0  0  0  0  0  0  0
   36.9753   -7.0592    0.0000 O   0  0  0  0  0  0  0  0  0  0  0  0
   37.5166   -4.5181    0.0000 O   0  0  0  0  0  0  0  0  0  0  0  0
   32.1112   -4.6948    0.0000 C   0  0  0  0  0  0  0  0  0  0  0  0
   32.6242   -5.7962    0.0000 O   0  0  0  0  0  0  0  0  0  0  0  0
   30.6441   -4.3823    0.0000 N   0  0  0  0  0  0  0  0  0  0  0  0
   29.6399   -5.4965    0.0000 C   0  0  0  0  0  0  0  0  0  0  0  0
   30.9116   -6.2920    0.0000 C   0  0  0  0  0  0  0  0  0  0  0  0
   30.8586   -7.7910    0.0000 C   0  0  0  0  0  0  0  0  0  0  0  0
   32.1303   -8.5865    0.0000 C   0  0  0  0  0  0  0  0  0  0  0  0
   30.2960   -9.1816    0.0000 C   0  0  0  0  0  0  0  0  0  0  0  0
   28.3151   -6.2001    0.0000 C   0  0  0  0  0  0  0  0  0  0  0  0
   28.4322   -7.5450    0.0000 O   0  0  0  0  0  0  0  0  0  0  0  0
   27.0434   -5.4047    0.0000 N   0  0  0  0  0  0  0  0  0  0  0  0
   25.7187   -6.1083    0.0000 C   0  0  0  0  0  0  0  0  0  0  0  0
   26.6416   -7.2907    0.0000 C   0  0  0  0  0  0  0  0  0  0  0  0
   26.0791   -8.6812    0.0000 C   0  0  0  0  0  0  0  0  0  0  0  0
   24.2332   -6.3164    0.0000 C   0  0  0  0  0  0  0  0  0  0  0  0
   23.8443   -7.7651    0.0000 O   0  0  0  0  0  0  0  0  0  0  0  0
   23.3102   -5.1339    0.0000 N   0  0  0  0  0  0  0  0  0  0  0  0
   21.8247   -5.3420    0.0000 C   0  0  0  0  0  0  0  0  0  0  0  0
   22.2876   -6.7688    0.0000 C   0  0  0  0  0  0  0  0  0  0  0  0
   20.3577   -5.0295    0.0000 C   0  0  0  0  0  0  0  0  0  0  0  0
   19.4968   -6.2578    0.0000 O   0  0  0  0  0  0  0  0  0  0  0  0
   19.8948   -3.6027    0.0000 N   0  0  0  0  0  0  0  0  0  0  0  0
   18.4277   -3.2902    0.0000 C   0  0  0  0  0  0  0  0  0  0  0  0
   18.3747   -4.7892    0.0000 C   0  0  0  0  0  0  0  0  0  0  0  0
   17.0499   -5.4928    0.0000 C   0  0  0  0  0  0  0  0  0  0  0  0
   16.9969   -6.9919    0.0000 C   0  0  0  0  0  0  0  0  0  0  0  0
   15.6722   -7.6955    0.0000 O   0  0  0  0  0  0  0  0  0  0  0  0
   18.2686   -7.7873    0.0000 O   0  0  0  0  0  0  0  0  0  0  0  0
   17.1560   -2.4947    0.0000 C   0  0  0  0  0  0  0  0  0  0  0  0
   15.9269   -3.3545    0.0000 O   0  0  0  0  0  0  0  0  0  0  0  0
   17.2090   -0.9956    0.0000 N   0  0  0  0  0  0  0  0  0  0  0  0
   15.9373   -0.2002    0.0000 C   0  0  0  0  0  0  0  0  0  0  0  0
   15.3748   -1.5907    0.0000 C   0  0  0  0  0  0  0  0  0  0  0  0
   15.0143    0.9822    0.0000 C   0  0  0  0  0  0  0  0  0  0  0  0
   13.5288    0.7742    0.0000 O   0  0  0  0  0  0  0  0  0  0  0  0
   15.5769    2.3728    0.0000 N   0  0  0  0  0  0  0  0  0  0  0  0
   14.6539    3.5552    0.0000 C   0  0  0  0  0  0  0  0  0  0  0  0
   15.9787    4.2588    0.0000 C   0  0  0  0  0  0  0  0  0  0  0  0
   17.2504    3.4634    0.0000 C   0  0  0  0  0  0  0  0  0  0  0  0
   17.3543    1.9670    0.0000 C   0  0  0  0  0  0  0  0  0  0  0  0
   18.8096    1.6034    0.0000 N   0  0  0  0  0  0  0  0  0  0  0  0
   19.6051    2.8751    0.0000 C   0  0  0  0  0  0  0  0  0  0  0  0
   18.6414    4.0246    0.0000 N   0  0  0  0  0  0  0  0  0  0  0  0
   13.3822    4.3507    0.0000 C   0  0  0  0  0  0  0  0  0  0  0  0
   13.6176    5.8321    0.0000 O   0  0  0  0  0  0  0  0  0  0  0  0
   12.0575    3.6471    0.0000 N   0  0  0  0  0  0  0  0  0  0  0  0
   10.7858    4.4425    0.0000 C   0  0  0  0  0  0  0  0  0  0  0  0
   10.5837    2.9562    0.0000 C   0  0  0  0  0  0  0  0  0  0  0  0
    9.9526    1.5954    0.0000 C   0  0  0  0  0  0  0  0  0  0  0  0
    8.9484    0.4812    0.0000 C   0  0  0  0  0  0  0  0  0  0  0  0
    7.6604   -0.2876    0.0000 C   0  0  0  0  0  0  0  0  0  0  0  0
   12.0339    5.2745    0.0000 C   0  0  0  0  0  0  0  0  0  0  0  0
   10.5407    5.9224    0.0000 C   0  0  0  0  0  0  0  0  0  0  0  0
   11.9675    6.3852    0.0000 O   0  0  0  0  0  0  0  0  0  0  0  0
    9.8703    7.2642    0.0000 N   0  0  0  0  0  0  0  0  0  0  0  0
    8.8342    8.3489    0.0000 C   0  0  0  0  0  0  0  0  0  0  0  0
    8.9619    9.8434    0.0000 C   0  0  0  0  0  0  0  0  0  0  0  0
   10.3201   10.4801    0.0000 C   0  0  0  0  0  0  0  0  0  0  0  0
   10.4478   11.9747    0.0000 C   0  0  0  0  0  0  0  0  0  0  0  0
   11.8141   10.6139    0.0000 C   0  0  0  0  0  0  0  0  0  0  0  0
    7.5245    9.0800    0.0000 C   0  0  0  0  0  0  0  0  0  0  0  0
    8.0522   10.4841    0.0000 O   0  0  0  0  0  0  0  0  0  0  0  0
    6.0574    9.3925    0.0000 N   0  0  0  0  0  0  0  0  0  0  0  0
    4.5634    9.2587    0.0000 C   0  0  0  0  0  0  0  0  0  0  0  0
    3.4745   10.2904    0.0000 C   0  0  0  0  0  0  0  0  0  0  0  0
    3.8235   11.7492    0.0000 S   0  0  0  0  0  0  0  0  0  0  0  0
    3.1751    8.6905    0.0000 C   0  0  0  0  0  0  0  0  0  0  0  0
    2.4064    9.9785    0.0000 O   0  0  0  0  0  0  0  0  0  0  0  0
    2.0161    7.7384    0.0000 N   0  0  0  0  0  0  0  0  0  0  0  0
    1.1892    6.4869    0.0000 C   0  0  0  0  0  0  0  0  0  0  0  0
   -0.2963    6.2788    0.0000 C   0  0  0  0  0  0  0  0  0  0  0  0
   -1.6211    5.5752    0.0000 O   0  0  0  0  0  0  0  0  0  0  0  0
   -1.2193    7.4612    0.0000 C   0  0  0  0  0  0  0  0  0  0  0  0
    0.7679    5.0472    0.0000 C   0  0  0  0  0  0  0  0  0  0  0  0
   -0.7185    5.2493    0.0000 O   0  0  0  0  0  0  0  0  0  0  0  0
    0.7896    3.5474    0.0000 N   0  0  0  0  0  0  0  0  0  0  0  0
    1.2525    2.1206    0.0000 C   0  0  0  0  0  0  0  0  0  0  0  0
    2.1154    0.8936    0.0000 C   0  0  0  0  0  0  0  0  0  0  0  0
    3.3016   -0.0245    0.0000 C   0  0  0  0  0  0  0  0  0  0  0  0
    4.7057   -0.5522    0.0000 C   0  0  0  0  0  0  0  0  0  0  0  0
    6.2030   -0.6426    0.0000 C   0  0  0  0  0  0  0  0  0  0  0  0
   -0.2384    2.2855    0.0000 C   0  0  0  0  0  0  0  0  0  0  0  0
    0.4890    0.8295    0.0000 C   0  0  0  0  0  0  0  0  0  0  0  0
    0.8873   -0.6167    0.0000 O   0  0  0  0  0  0  0  0  0  0  0  0
   -1.0109    0.8451    0.0000 N   0  0  0  0  0  0  0  0  0  0  0  0
   -1.7744   -0.4461    0.0000 C   0  0  0  0  0  0  0  0  0  0  0  0
   -2.0503   -1.9205    0.0000 C   0  0  0  0  0  0  0  0  0  0  0  0
   -3.4651   -2.4188    0.0000 C   0  0  0  0  0  0  0  0  0  0  0  0
   -3.7409   -3.8932    0.0000 C   0  0  0  0  0  0  0  0  0  0  0  0
   -4.9650   -2.4031    0.0000 C   0  0  0  0  0  0  0  0  0  0  0  0
   -3.2743   -0.4304    0.0000 C   0  0  0  0  0  0  0  0  0  0  0  0
   -4.0107    0.8764    0.0000 O   0  0  0  0  0  0  0  0  0  0  0  0
   -4.0378   -1.7216    0.0000 N   0  0  0  0  0  0  0  0  0  0  0  0
   -5.5377   -1.7059    0.0000 C   0  0  0  0  0  0  0  0  0  0  0  0
   -6.9419   -1.1782    0.0000 C   0  0  0  0  0  0  0  0  0  0  0  0
   -7.1869    0.3016    0.0000 C   0  0  0  0  0  0  0  0  0  0  0  0
   -8.5910    0.8293    0.0000 C   0  0  0  0  0  0  0  0  0  0  0  0
   -8.8361    2.3092    0.0000 O   0  0  0  0  0  0  0  0  0  0  0  0
   -9.7501   -0.1228    0.0000 O   0  0  0  0  0  0  0  0  0  0  0  0
   -6.3012   -2.9971    0.0000 C   0  0  0  0  0  0  0  0  0  0  0  0
   -5.7296   -4.3839    0.0000 O   0  0  0  0  0  0  0  0  0  0  0  0
   -7.8012   -2.9814    0.0000 N   0  0  0  0  0  0  0  0  0  0  0  0
   -8.5647   -4.2726    0.0000 C   0  0  0  0  0  0  0  0  0  0  0  0
   -8.8405   -5.7470    0.0000 C   0  0  0  0  0  0  0  0  0  0  0  0
   -7.7016   -6.7231    0.0000 C   0  0  0  0  0  0  0  0  0  0  0  0
   -7.9774   -8.1975    0.0000 N   0  0  0  0  0  0  0  0  0  0  0  0
   -6.2868   -6.2248    0.0000 O   0  0  0  0  0  0  0  0  0  0  0  0
  -10.0646   -4.2569    0.0000 C   0  0  0  0  0  0  0  0  0  0  0  0
  -10.9798   -5.4454    0.0000 O   0  0  0  0  0  0  0  0  0  0  0  0
  -10.8010   -2.9502    0.0000 N   0  0  0  0  0  0  0  0  0  0  0  0
  -12.3009   -2.9345    0.0000 C   0  0  0  0  0  0  0  0  0  0  0  0
  -13.7157   -3.4328    0.0000 C   0  0  0  0  0  0  0  0  0  0  0  0
  -13.0373   -1.6277    0.0000 C   0  0  0  0  0  0  0  0  0  0  0  0
  -12.2738   -0.3366    0.0000 O   0  0  0  0  0  0  0  0  0  0  0  0
  -14.5373   -1.6121    0.0000 N   0  0  0  0  0  0  0  0  0  0  0  0
  -15.2737   -0.3053    0.0000 C   0  0  0  0  0  0  0  0  0  0  0  0
  -15.5187    1.1745    0.0000 C   0  0  0  0  0  0  0  0  0  0  0  0
  -16.8480    1.8695    0.0000 C   0  0  0  0  0  0  0  0  0  0  0  0
  -15.2429    2.6490    0.0000 C   0  0  0  0  0  0  0  0  0  0  0  0
  -13.8281    3.1473    0.0000 C   0  0  0  0  0  0  0  0  0  0  0  0
  -16.7736   -0.2897    0.0000 C   0  0  0  0  0  0  0  0  0  0  0  0
  -17.5371   -1.5808    0.0000 O   0  0  0  0  0  0  0  0  0  0  0  0
  -17.5100    1.0171    0.0000 N   0  0  0  0  0  0  0  0  0  0  0  0
  -19.0099    1.0328    0.0000 C   0  0  0  0  0  0  0  0  0  0  0  0
  -20.4247    0.5345    0.0000 C   0  0  0  0  0  0  0  0  0  0  0  0
  -20.7006   -0.9400    0.0000 C   0  0  0  0  0  0  0  0  0  0  0  0
  -22.1154   -1.4383    0.0000 C   0  0  0  0  0  0  0  0  0  0  0  0
  -22.3913   -2.9127    0.0000 N   0  0  0  0  0  0  0  0  0  0  0  0
  -23.2544   -0.4622    0.0000 O   0  0  0  0  0  0  0  0  0  0  0  0
  -19.7463    2.3395    0.0000 C   0  0  0  0  0  0  0  0  0  0  0  0
  -18.9828    3.6307    0.0000 O   0  0  0  0  0  0  0  0  0  0  0  0
  -21.2463    2.3552    0.0000 N   0  0  0  0  0  0  0  0  0  0  0  0
  -21.9827    3.6620    0.0000 C   0  0  0  0  0  0  0  0  0  0  0  0
  -22.2277    5.1418    0.0000 C   0  0  0  0  0  0  0  0  0  0  0  0
  -21.0687    6.0940    0.0000 C   0  0  0  0  0  0  0  0  0  0  0  0
  -21.3137    7.5738    0.0000 O   0  0  0  0  0  0  0  0  0  0  0  0
  -19.6646    5.5663    0.0000 O   0  0  0  0  0  0  0  0  0  0  0  0
  -23.4826    3.6776    0.0000 C   0  0  0  0  0  0  0  0  0  0  0  0
  -24.3728    4.8849    0.0000 O   0  0  0  0  0  0  0  0  0  0  0  0
  -24.2461    2.3865    0.0000 N   0  0  0  0  0  0  0  0  0  0  0  0
  -25.7460    2.4021    0.0000 C   0  0  0  0  0  0  0  0  0  0  0  0
  -27.1501    2.9298    0.0000 C   0  0  0  0  0  0  0  0  0  0  0  0
  -28.2891    3.9059    0.0000 O   0  0  0  0  0  0  0  0  0  0  0  0
  -28.4166    2.1260    0.0000 C   0  0  0  0  0  0  0  0  0  0  0  0
  -26.5095    1.1110    0.0000 C   0  0  0  0  0  0  0  0  0  0  0  0
  -25.7731   -0.1958    0.0000 O   0  0  0  0  0  0  0  0  0  0  0  0
  -28.0094    1.1266    0.0000 N   0  0  0  0  0  0  0  0  0  0  0  0
  -28.7729   -0.1646    0.0000 C   0  0  0  0  0  0  0  0  0  0  0  0
  -29.0488   -1.6390    0.0000 C   0  0  0  0  0  0  0  0  0  0  0  0
  -30.3923   -2.3060    0.0000 C   0  0  0  0  0  0  0  0  0  0  0  0
  -30.2729   -0.1489    0.0000 C   0  0  0  0  0  0  0  0  0  0  0  0
  -31.0093    1.1579    0.0000 O   0  0  0  0  0  0  0  0  0  0  0  0
  -31.0364   -1.4401    0.0000 N   0  0  0  0  0  0  0  0  0  0  0  0
  -32.5363   -1.4244    0.0000 C   0  0  0  0  0  0  0  0  0  0  0  0
  -33.9404   -0.8967    0.0000 C   0  0  0  0  0  0  0  0  0  0  0  0
  -34.1854    0.5831    0.0000 C   0  0  0  0  0  0  0  0  0  0  0  0
  -35.5896    1.1108    0.0000 C   0  0  0  0  0  0  0  0  0  0  0  0
  -35.8346    2.5907    0.0000 N   0  0  0  0  0  0  0  0  0  0  0  0
  -37.2387    3.1184    0.0000 C   0  0  0  0  0  0  0  0  0  0  0  0
  -37.4838    4.5982    0.0000 N   0  0  0  0  0  0  0  0  0  0  0  0
  -38.3978    2.1662    0.0000 N   0  0  0  0  0  0  0  0  0  0  0  0
  -33.2998   -2.7156    0.0000 C   0  0  0  0  0  0  0  0  0  0  0  0
  -32.5634   -4.0224    0.0000 O   0  0  0  0  0  0  0  0  0  0  0  0
  -34.7997   -2.6999    0.0000 N   0  0  0  0  0  0  0  0  0  0  0  0
  -35.5632   -3.9911    0.0000 C   0  0  0  0  0  0  0  0  0  0  0  0
  -35.8391   -5.4655    0.0000 C   0  0  0  0  0  0  0  0  0  0  0  0
  -37.2539   -5.9638    0.0000 C   0  0  0  0  0  0  0  0  0  0  0  0
  -37.5297   -7.4382    0.0000 C   0  0  0  0  0  0  0  0  0  0  0  0
  -38.9445   -7.9365    0.0000 O   0  0  0  0  0  0  0  0  0  0  0  0
  -36.3908   -8.4143    0.0000 O   0  0  0  0  0  0  0  0  0  0  0  0
  -37.0631   -3.9754    0.0000 C   0  0  0  0  0  0  0  0  0  0  0  0
  -37.9783   -5.1639    0.0000 O   0  0  0  0  0  0  0  0  0  0  0  0
  -37.7995   -2.6687    0.0000 N   0  0  0  0  0  0  0  0  0  0  0  0
  -39.2995   -2.6530    0.0000 C   0  0  0  0  0  0  0  0  0  0  0  0
  -40.7143   -3.1513    0.0000 C   0  0  0  0  0  0  0  0  0  0  0  0
  -40.9901   -4.6257    0.0000 C   0  0  0  0  0  0  0  0  0  0  0  0
  -42.4049   -5.1240    0.0000 C   0  0  0  0  0  0  0  0  0  0  0  0
  -42.6808   -6.5985    0.0000 N   0  0  0  0  0  0  0  0  0  0  0  0
  -43.5439   -4.1479    0.0000 O   0  0  0  0  0  0  0  0  0  0  0  0
  -40.0359   -1.3462    0.0000 C   0  0  0  0  0  0  0  0  0  0  0  0
  -41.5227   -1.1479    0.0000 O   0  0  0  0  0  0  0  0  0  0  0  0
  -39.2724   -0.0551    0.0000 O   0  0  0  0  0  0  0  0  0  0  0  0
   31.3668    8.3283    0.0000 H   0  0  0  0  0  0  0  0  0  0  0  0
   33.8381    9.1301    0.0000 H   0  0  0  0  0  0  0  0  0  0  0  0
   31.8113    6.3809    0.0000 H   0  0  0  0  0  0  0  0  0  0  0  0
   33.2438    5.0899    0.0000 H   0  0  0  0  0  0  0  0  0  0  0  0
   34.8169    7.7755    0.0000 H   0  0  0  0  0  0  0  0  0  0  0  0
   36.2494    6.4846    0.0000 H   0  0  0  0  0  0  0  0  0  0  0  0
   37.5547    5.7655    0.0000 H   0  0  0  0  0  0  0  0  0  0  0  0
   35.6712    2.9023    0.0000 H   0  0  0  0  0  0  0  0  0  0  0  0
   39.9670    4.0220    0.0000 H   0  0  0  0  0  0  0  0  0  0  0  0
   38.9443    2.3872    0.0000 H   0  0  0  0  0  0  0  0  0  0  0  0
   39.8592    6.0166    0.0000 H   0  0  0  0  0  0  0  0  0  0  0  0
   34.5072    1.7031    0.0000 H   0  0  0  0  0  0  0  0  0  0  0  0
   34.2589   -0.2789    0.0000 H   0  0  0  0  0  0  0  0  0  0  0  0
   38.4720    0.0999    0.0000 H   0  0  0  0  0  0  0  0  0  0  0  0
   37.1357    0.7076    0.0000 H   0  0  0  0  0  0  0  0  0  0  0  0
   38.5973   -2.9925    0.0000 H   0  0  0  0  0  0  0  0  0  0  0  0
   36.8096   -2.2693    0.0000 H   0  0  0  0  0  0  0  0  0  0  0  0
   32.7549   -1.0076    0.0000 H   0  0  0  0  0  0  0  0  0  0  0  0
   31.8436   -2.7851    0.0000 H   0  0  0  0  0  0  0  0  0  0  0  0
   35.9322   -3.8701    0.0000 H   0  0  0  0  0  0  0  0  0  0  0  0
   34.8844   -2.8421    0.0000 H   0  0  0  0  0  0  0  0  0  0  0  0
   34.9923   -6.8189    0.0000 H   0  0  0  0  0  0  0  0  0  0  0  0
   33.5598   -5.5279    0.0000 H   0  0  0  0  0  0  0  0  0  0  0  0
   30.1812   -2.9555    0.0000 H   0  0  0  0  0  0  0  0  0  0  0  0
   28.7169   -4.3141    0.0000 H   0  0  0  0  0  0  0  0  0  0  0  0
   32.0999   -6.5451    0.0000 H   0  0  0  0  0  0  0  0  0  0  0  0
   31.5548   -5.4076    0.0000 H   0  0  0  0  0  0  0  0  0  0  0  0
   29.3915   -7.4785    0.0000 H   0  0  0  0  0  0  0  0  0  0  0  0
   32.2604  -10.0808    0.0000 H   0  0  0  0  0  0  0  0  0  0  0  0
   33.5974   -8.8990    0.0000 H   0  0  0  0  0  0  0  0  0  0  0  0
   32.8581   -7.2749    0.0000 H   0  0  0  0  0  0  0  0  0  0  0  0
   31.0680  -10.4677    0.0000 H   0  0  0  0  0  0  0  0  0  0  0  0
   29.2918  -10.2958    0.0000 H   0  0  0  0  0  0  0  0  0  0  0  0
   29.1515   -8.4656    0.0000 H   0  0  0  0  0  0  0  0  0  0  0  0
   27.0965   -3.9056    0.0000 H   0  0  0  0  0  0  0  0  0  0  0  0
   25.2558   -4.6815    0.0000 H   0  0  0  0  0  0  0  0  0  0  0  0
   27.8069   -8.2352    0.0000 H   0  0  0  0  0  0  0  0  0  0  0  0
   27.7612   -6.5364    0.0000 H   0  0  0  0  0  0  0  0  0  0  0  0
   27.0021   -9.8637    0.0000 H   0  0  0  0  0  0  0  0  0  0  0  0
   25.0749   -9.7955    0.0000 H   0  0  0  0  0  0  0  0  0  0  0  0
   24.8074   -7.8858    0.0000 H   0  0  0  0  0  0  0  0  0  0  0  0
   23.8728   -3.7434    0.0000 H   0  0  0  0  0  0  0  0  0  0  0  0
   21.8778   -3.8430    0.0000 H   0  0  0  0  0  0  0  0  0  0  0  0
   23.7057   -7.2578    0.0000 H   0  0  0  0  0  0  0  0  0  0  0  0
   22.2346   -8.2679    0.0000 H   0  0  0  0  0  0  0  0  0  0  0  0
   20.8021   -6.9769    0.0000 H   0  0  0  0  0  0  0  0  0  0  0  0
   20.8990   -2.4884    0.0000 H   0  0  0  0  0  0  0  0  0  0  0  0
   18.9902   -1.8996    0.0000 H   0  0  0  0  0  0  0  0  0  0  0  0
   18.6602   -6.2618    0.0000 H   0  0  0  0  0  0  0  0  0  0  0  0
   19.8664   -4.9468    0.0000 H   0  0  0  0  0  0  0  0  0  0  0  0
   15.5644   -5.7009    0.0000 H   0  0  0  0  0  0  0  0  0  0  0  0
   16.5870   -4.0660    0.0000 H   0  0  0  0  0  0  0  0  0  0  0  0
   18.5338   -0.2920    0.0000 H   0  0  0  0  0  0  0  0  0  0  0  0
   16.7982    1.0282    0.0000 H   0  0  0  0  0  0  0  0  0  0  0  0
   16.1467   -2.8768    0.0000 H   0  0  0  0  0  0  0  0  0  0  0  0
   14.3706   -2.7050    0.0000 H   0  0  0  0  0  0  0  0  0  0  0  0
   14.1030   -0.7953    0.0000 H   0  0  0  0  0  0  0  0  0  0  0  0
   17.0686    2.2152    0.0000 H   0  0  0  0  0  0  0  0  0  0  0  0
   13.6497    2.4409    0.0000 H   0  0  0  0  0  0  0  0  0  0  0  0
   16.9829    5.3731    0.0000 H   0  0  0  0  0  0  0  0  0  0  0  0
   15.0557    5.4412    0.0000 H   0  0  0  0  0  0  0  0  0  0  0  0
   16.0959    1.1506    0.0000 H   0  0  0  0  0  0  0  0  0  0  0  0
   19.3709    0.2124    0.0000 H   0  0  0  0  0  0  0  0  0  0  0  0
   21.1015    2.9791    0.0000 H   0  0  0  0  0  0  0  0  0  0  0  0
   12.3688    2.1797    0.0000 H   0  0  0  0  0  0  0  0  0  0  0  0
   12.0823    3.0227    0.0000 H   0  0  0  0  0  0  0  0  0  0  0  0
   11.5645    1.8212    0.0000 H   0  0  0  0  0  0  0  0  0  0  0  0
   11.4041    1.2173    0.0000 H   0  0  0  0  0  0  0  0  0  0  0  0
   10.7182    0.3055    0.0000 H   0  0  0  0  0  0  0  0  0  0  0  0
   10.3107   -0.1466    0.0000 H   0  0  0  0  0  0  0  0  0  0  0  0
    9.1194   -1.0091    0.0000 H   0  0  0  0  0  0  0  0  0  0  0  0
    8.2286   -1.6758    0.0000 H   0  0  0  0  0  0  0  0  0  0  0  0
   13.4994    4.9548    0.0000 H   0  0  0  0  0  0  0  0  0  0  0  0
   12.7682    6.5825    0.0000 H   0  0  0  0  0  0  0  0  0  0  0  0
   11.2910    6.5777    0.0000 H   0  0  0  0  0  0  0  0  0  0  0  0
   11.0973    8.1271    0.0000 H   0  0  0  0  0  0  0  0  0  0  0  0
   10.2992    8.6710    0.0000 H   0  0  0  0  0  0  0  0  0  0  0  0
    8.3971   11.2331    0.0000 H   0  0  0  0  0  0  0  0  0  0  0  0
    7.4799   10.0751    0.0000 H   0  0  0  0  0  0  0  0  0  0  0  0
   10.8849    9.0905    0.0000 H   0  0  0  0  0  0  0  0  0  0  0  0
   11.7182   12.7722    0.0000 H   0  0  0  0  0  0  0  0  0  0  0  0
   10.0566   13.4228    0.0000 H   0  0  0  0  0  0  0  0  0  0  0  0
    8.9486   12.0240    0.0000 H   0  0  0  0  0  0  0  0  0  0  0  0
   12.6064   11.8876    0.0000 H   0  0  0  0  0  0  0  0  0  0  0  0
   13.2638   10.2287    0.0000 H   0  0  0  0  0  0  0  0  0  0  0  0
   11.6864    9.1194    0.0000 H   0  0  0  0  0  0  0  0  0  0  0  0
    6.1478   10.8898    0.0000 H   0  0  0  0  0  0  0  0  0  0  0  0
    5.0559   10.6755    0.0000 H   0  0  0  0  0  0  0  0  0  0  0  0
    2.0984   10.8874    0.0000 H   0  0  0  0  0  0  0  0  0  0  0  0
    2.3693    9.2762    0.0000 H   0  0  0  0  0  0  0  0  0  0  0  0
    2.7346   12.7809    0.0000 H   0  0  0  0  0  0  0  0  0  0  0  0
    0.9018    8.7426    0.0000 H   0  0  0  0  0  0  0  0  0  0  0  0
    0.5491    7.8435    0.0000 H   0  0  0  0  0  0  0  0  0  0  0  0
   -0.1924    4.7824    0.0000 H   0  0  0  0  0  0  0  0  0  0  0  0
   -2.9803    6.2097    0.0000 H   0  0  0  0  0  0  0  0  0  0  0  0
   -2.7191    7.4358    0.0000 H   0  0  0  0  0  0  0  0  0  0  0  0
   -1.6822    8.8880    0.0000 H   0  0  0  0  0  0  0  0  0  0  0  0
    0.0098    8.3211    0.0000 H   0  0  0  0  0  0  0  0  0  0  0  0
   -0.6902    3.3023    0.0000 H   0  0  0  0  0  0  0  0  0  0  0  0
    1.7664   -0.5652    0.0000 H   0  0  0  0  0  0  0  0  0  0  0  0
    0.7541    0.2636    0.0000 H   0  0  0  0  0  0  0  0  0  0  0  0
    3.2149   -1.5220    0.0000 H   0  0  0  0  0  0  0  0  0  0  0  0
    2.1865   -1.0277    0.0000 H   0  0  0  0  0  0  0  0  0  0  0  0
    5.2391   -1.9541    0.0000 H   0  0  0  0  0  0  0  0  0  0  0  0
    3.7846   -1.7361    0.0000 H   0  0  0  0  0  0  0  0  0  0  0  0
    6.3367   -2.1366    0.0000 H   0  0  0  0  0  0  0  0  0  0  0  0
   -1.3927    1.3277    0.0000 H   0  0  0  0  0  0  0  0  0  0  0  0
   -1.4919    3.1093    0.0000 H   0  0  0  0  0  0  0  0  0  0  0  0
   -0.1780    3.7843    0.0000 H   0  0  0  0  0  0  0  0  0  0  0  0
   -1.9011    2.0524    0.0000 H   0  0  0  0  0  0  0  0  0  0  0  0
   -0.3703   -0.9737    0.0000 H   0  0  0  0  0  0  0  0  0  0  0  0
   -1.6266   -3.3594    0.0000 H   0  0  0  0  0  0  0  0  0  0  0  0
   -0.5503   -1.9361    0.0000 H   0  0  0  0  0  0  0  0  0  0  0  0
   -4.3763   -1.2273    0.0000 H   0  0  0  0  0  0  0  0  0  0  0  0
   -4.9931   -4.7190    0.0000 H   0  0  0  0  0  0  0  0  0  0  0  0
   -3.4959   -5.3730    0.0000 H   0  0  0  0  0  0  0  0  0  0  0  0
   -2.2541   -4.0915    0.0000 H   0  0  0  0  0  0  0  0  0  0  0  0
   -5.9957   -1.3134    0.0000 H   0  0  0  0  0  0  0  0  0  0  0  0
   -6.1072   -3.3755    0.0000 H   0  0  0  0  0  0  0  0  0  0  0  0
   -4.9022   -3.9018    0.0000 H   0  0  0  0  0  0  0  0  0  0  0  0
   -3.6395   -3.1677    0.0000 H   0  0  0  0  0  0  0  0  0  0  0  0
   -5.0842   -0.2761    0.0000 H   0  0  0  0  0  0  0  0  0  0  0  0
   -8.4287   -0.9799    0.0000 H   0  0  0  0  0  0  0  0  0  0  0  0
   -7.7279   -2.4558    0.0000 H   0  0  0  0  0  0  0  0  0  0  0  0
   -6.9111    1.7760    0.0000 H   0  0  0  0  0  0  0  0  0  0  0  0
   -5.6963    0.4689    0.0000 H   0  0  0  0  0  0  0  0  0  0  0  0
   -8.6914   -1.7742    0.0000 H   0  0  0  0  0  0  0  0  0  0  0  0
   -7.1606   -4.8003    0.0000 H   0  0  0  0  0  0  0  0  0  0  0  0
   -9.6040   -7.0381    0.0000 H   0  0  0  0  0  0  0  0  0  0  0  0
  -10.2985   -5.3944    0.0000 H   0  0  0  0  0  0  0  0  0  0  0  0
   -6.8385   -9.1736    0.0000 H   0  0  0  0  0  0  0  0  0  0  0  0
   -9.3922   -8.6958    0.0000 H   0  0  0  0  0  0  0  0  0  0  0  0
  -10.0375   -1.6590    0.0000 H   0  0  0  0  0  0  0  0  0  0  0  0
  -12.0559   -4.4144    0.0000 H   0  0  0  0  0  0  0  0  0  0  0  0
  -15.1289   -2.9298    0.0000 H   0  0  0  0  0  0  0  0  0  0  0  0
  -14.8748   -4.3850    0.0000 H   0  0  0  0  0  0  0  0  0  0  0  0
  -12.9793   -4.7396    0.0000 H   0  0  0  0  0  0  0  0  0  0  0  0
  -15.4525   -2.8005    0.0000 H   0  0  0  0  0  0  0  0  0  0  0  0
  -13.8589    0.1930    0.0000 H   0  0  0  0  0  0  0  0  0  0  0  0
  -14.0319    0.9762    0.0000 H   0  0  0  0  0  0  0  0  0  0  0  0
  -17.3465    3.1412    0.0000 H   0  0  0  0  0  0  0  0  0  0  0  0
  -18.4228    1.7179    0.0000 H   0  0  0  0  0  0  0  0  0  0  0  0
  -17.8587    0.5300    0.0000 H   0  0  0  0  0  0  0  0  0  0  0  0
  -15.4879    4.1288    0.0000 H   0  0  0  0  0  0  0  0  0  0  0  0
  -16.6944    3.0271    0.0000 H   0  0  0  0  0  0  0  0  0  0  0  0
  -13.5522    4.6217    0.0000 H   0  0  0  0  0  0  0  0  0  0  0  0
  -12.3281    3.1316    0.0000 H   0  0  0  0  0  0  0  0  0  0  0  0
  -13.4044    1.7083    0.0000 H   0  0  0  0  0  0  0  0  0  0  0  0
  -17.0816    2.4547    0.0000 H   0  0  0  0  0  0  0  0  0  0  0  0
  -18.5863   -0.4062    0.0000 H   0  0  0  0  0  0  0  0  0  0  0  0
  -21.9154    0.3671    0.0000 H   0  0  0  0  0  0  0  0  0  0  0  0
  -21.0206    1.9110    0.0000 H   0  0  0  0  0  0  0  0  0  0  0  0
  -20.4555   -2.4198    0.0000 H   0  0  0  0  0  0  0  0  0  0  0  0
  -19.2138   -1.1383    0.0000 H   0  0  0  0  0  0  0  0  0  0  0  0
  -23.8061   -3.4110    0.0000 H   0  0  0  0  0  0  0  0  0  0  0  0
  -21.2523   -3.8888    0.0000 H   0  0  0  0  0  0  0  0  0  0  0  0
  -22.1615    1.1667    0.0000 H   0  0  0  0  0  0  0  0  0  0  0  0
  -20.5679    4.1603    0.0000 H   0  0  0  0  0  0  0  0  0  0  0  0
  -22.9641    6.4486    0.0000 H   0  0  0  0  0  0  0  0  0  0  0  0
  -23.6927    4.8197    0.0000 H   0  0  0  0  0  0  0  0  0  0  0  0
  -23.5097    1.0797    0.0000 H   0  0  0  0  0  0  0  0  0  0  0  0
  -25.4702    3.8765    0.0000 H   0  0  0  0  0  0  0  0  0  0  0  0
  -26.3866    4.2210    0.0000 H   0  0  0  0  0  0  0  0  0  0  0  0
  -28.0132    5.3803    0.0000 H   0  0  0  0  0  0  0  0  0  0  0  0
  -29.7133    2.5054    0.0000 H   0  0  0  0  0  0  0  0  0  0  0  0
  -29.0727    0.6865    0.0000 H   0  0  0  0  0  0  0  0  0  0  0  0
  -27.7620    0.5810    0.0000 H   0  0  0  0  0  0  0  0  0  0  0  0
  -28.8997    2.3339    0.0000 H   0  0  0  0  0  0  0  0  0  0  0  0
  -27.3688   -0.6923    0.0000 H   0  0  0  0  0  0  0  0  0  0  0  0
  -28.8037   -3.1188    0.0000 H   0  0  0  0  0  0  0  0  0  0  0  0
  -27.5489   -1.6546    0.0000 H   0  0  0  0  0  0  0  0  0  0  0  0
  -30.7395   -3.6117    0.0000 H   0  0  0  0  0  0  0  0  0  0  0  0
  -31.9635   -2.1216    0.0000 H   0  0  0  0  0  0  0  0  0  0  0  0
  -31.3749   -0.9458    0.0000 H   0  0  0  0  0  0  0  0  0  0  0  0
  -30.4647   -2.8269    0.0000 H   0  0  0  0  0  0  0  0  0  0  0  0
  -32.0828    0.0054    0.0000 H   0  0  0  0  0  0  0  0  0  0  0  0
  -35.4403   -0.8811    0.0000 H   0  0  0  0  0  0  0  0  0  0  0  0
  -34.5648   -2.2606    0.0000 H   0  0  0  0  0  0  0  0  0  0  0  0
  -33.9096    2.0575    0.0000 H   0  0  0  0  0  0  0  0  0  0  0  0
  -32.6948    0.7504    0.0000 H   0  0  0  0  0  0  0  0  0  0  0  0
  -37.0895    1.1265    0.0000 H   0  0  0  0  0  0  0  0  0  0  0  0
  -36.0431   -0.3190    0.0000 H   0  0  0  0  0  0  0  0  0  0  0  0
  -34.6756    3.5428    0.0000 H   0  0  0  0  0  0  0  0  0  0  0  0
  -38.8879    5.1259    0.0000 H   0  0  0  0  0  0  0  0  0  0  0  0
  -36.3247    5.5504    0.0000 H   0  0  0  0  0  0  0  0  0  0  0  0
  -39.8019    2.6939    0.0000 H   0  0  0  0  0  0  0  0  0  0  0  0
  -38.1527    0.6864    0.0000 H   0  0  0  0  0  0  0  0  0  0  0  0
  -35.6899   -1.4927    0.0000 H   0  0  0  0  0  0  0  0  0  0  0  0
  -34.1591   -4.5188    0.0000 H   0  0  0  0  0  0  0  0  0  0  0  0
  -35.5940   -6.9453    0.0000 H   0  0  0  0  0  0  0  0  0  0  0  0
  -34.3391   -5.4811    0.0000 H   0  0  0  0  0  0  0  0  0  0  0  0
  -38.7538   -5.9482    0.0000 H   0  0  0  0  0  0  0  0  0  0  0  0
  -38.0131   -4.6701    0.0000 H   0  0  0  0  0  0  0  0  0  0  0  0
  -37.0360   -1.3775    0.0000 H   0  0  0  0  0  0  0  0  0  0  0  0
  -38.8758   -4.0920    0.0000 H   0  0  0  0  0  0  0  0  0  0  0  0
  -42.2142   -3.1357    0.0000 H   0  0  0  0  0  0  0  0  0  0  0  0
  -41.1379   -1.7124    0.0000 H   0  0  0  0  0  0  0  0  0  0  0  0
  -40.7451   -6.1056    0.0000 H   0  0  0  0  0  0  0  0  0  0  0  0
  -39.5033   -4.8241    0.0000 H   0  0  0  0  0  0  0  0  0  0  0  0
  -44.0956   -7.0968    0.0000 H   0  0  0  0  0  0  0  0  0  0  0  0
  -41.5418   -7.5746    0.0000 H   0  0  0  0  0  0  0  0  0  0  0  0
  1  2  1  0
  2  3  1  0
  3  4  1  0
  4  5  2  0
  4  6  1  0
  6  7  1  0
  7  8  1  0
  8  9  1  0
  7 10  1  0
 10 11  2  0
 10 12  1  0
 12 13  1  0
 13 14  1  0
 14 15  1  0
 15 16  1  0
 16 17  2  0
 16 18  1  0
 13 19  1  0
 19 20  2  0
 19 21  1  0
 21 22  1  0
 22 23  1  0
 23 24  1  0
 24 25  1  0
 25 26  2  0
 25 27  1  0
 22 28  1  0
 28 29  2  0
 28 30  1  0
 30 31  1  0
 31 32  1  0
 32 33  1  0
 33 34  1  0
 33 35  1  0
 31 36  1  0
 36 37  2  0
 36 38  1  0
 38 39  1  0
 39 40  1  0
 40 41  1  0
 39 42  1  0
 42 43  2  0
 42 44  1  0
 44 45  1  0
 45 46  1  0
 45 47  1  0
 47 48  2  0
 47 49  1  0
 49 50  1  0
 50 51  1  0
 51 52  1  0
 52 53  1  0
 53 54  2  0
 53 55  1  0
 50 56  1  0
 56 57  2  0
 56 58  1  0
 58 59  1  0
 59 60  1  0
 59 61  1  0
 61 62  2  0
 61 63  1  0
 63 64  1  0
 64 65  1  0
 65 66  1  0
 66 67  2  0
 67 68  1  0
 68 69  1  0
 69 70  2  0
 64 71  1  0
 71 72  2  0
 71 73  1  0
 74 73  1  1
 74 75  1  0
 75 76  1  0
 76 77  1  0
 77 78  1  0
 74 79  1  0
 74 80  1  0
 80 81  2  0
 80 82  1  0
 82 83  1  0
 83 84  1  0
 84 85  1  0
 85 86  1  0
 85 87  1  0
 83 88  1  0
 88 89  2  0
 88 90  1  0
 90 91  1  0
 91 92  1  0
 92 93  1  0
 91 94  1  0
 94 95  2  0
 94 96  1  0
 96 97  1  0
 97 98  1  0
 98 99  1  0
 98100  1  0
 97101  1  0
101102  2  0
101103  1  0
103104  1  0
104105  1  0
105106  1  0
106107  1  0
107108  1  0
104109  1  0
104110  1  1
110111  2  0
110112  1  0
112113  1  0
113114  1  0
114115  1  0
115116  1  0
115117  1  0
113118  1  0
118119  2  0
118120  1  0
120121  1  0
121122  1  0
122123  1  0
123124  1  0
124125  2  0
124126  1  0
121127  1  0
127128  2  0
127129  1  0
129130  1  0
130131  1  0
131132  1  0
132133  1  0
132134  2  0
130135  1  0
135136  2  0
135137  1  0
137138  1  0
138139  1  0
138140  1  0
140141  2  0
140142  1  0
142143  1  0
143144  1  0
144145  1  0
144146  1  0
146147  1  0
143148  1  0
148149  2  0
148150  1  0
150151  1  0
151152  1  0
152153  1  0
153154  1  0
154155  1  0
154156  2  0
151157  1  0
157158  2  0
157159  1  0
159160  1  0
160161  1  0
161162  1  0
162163  2  0
162164  1  0
160165  1  0
165166  2  0
165167  1  0
167168  1  0
168169  1  0
169170  1  0
169171  1  0
168172  1  0
172173  2  0
172174  1  0
174175  1  0
175176  1  0
176177  1  0
175178  1  0
178179  2  0
178180  1  0
180181  1  0
181182  1  0
182183  1  0
183184  1  0
184185  1  0
185186  1  0
186187  2  3
186188  1  0
181189  1  0
189190  2  0
189191  1  0
191192  1  0
192193  1  0
193194  1  0
194195  1  0
195196  2  0
195197  1  0
192198  1  0
198199  2  0
198200  1  0
200201  1  0
201202  1  0
202203  1  0
203204  1  0
204205  1  0
204206  2  0
201207  1  0
207208  2  0
207209  1  0
 70 66  1  0
 78108  2  0
  1210  1  0
  1211  1  0
  2212  1  0
  2213  1  0
  3214  1  0
  3215  1  0
  6216  1  0
  7217  1  1
  8218  1  0
  8219  1  0
  9220  1  0
 12221  1  0
 13222  1  1
 14223  1  0
 14224  1  0
 15225  1  0
 15226  1  0
 21227  1  0
 22228  1  1
 23229  1  0
 23230  1  0
 24231  1  0
 24232  1  0
 30233  1  0
 31234  1  1
 32235  1  0
 32236  1  0
 33237  1  0
 34238  1  0
 34239  1  0
 34240  1  0
 35241  1  0
 35242  1  0
 35243  1  0
 38244  1  0
 39245  1  1
 40246  1  0
 40247  1  0
 41248  1  0
 41249  1  0
 41250  1  0
 44251  1  0
 45252  1  1
 46253  1  0
 46254  1  0
 46255  1  0
 49256  1  0
 50257  1  1
 51258  1  0
 51259  1  0
 52260  1  0
 52261  1  0
 58262  1  0
 59263  1  1
 60264  1  0
 60265  1  0
 60266  1  0
 63267  1  0
 64268  1  6
 65269  1  0
 65270  1  0
 67271  1  0
 68272  1  0
 69273  1  0
 73274  1  0
 75275  1  0
 75276  1  0
 76277  1  0
 76278  1  0
 77279  1  0
 77280  1  0
 78281  1  0
 79282  1  0
 79283  1  0
 79284  1  0
 82285  1  0
 83286  1  6
 84287  1  0
 84288  1  0
 85289  1  0
 86290  1  0
 86291  1  0
 86292  1  0
 87293  1  0
 87294  1  0
 87295  1  0
 90296  1  0
 91297  1  6
 92298  1  0
 92299  1  0
 93300  1  0
 96301  1  0
 97302  1  6
 98303  1  1
 99304  1  0
100305  1  0
100306  1  0
100307  1  0
103308  1  0
105309  1  0
105310  1  0
106311  1  0
106312  1  0
107313  1  0
107314  1  0
108315  1  0
109316  1  0
109317  1  0
109318  1  0
112319  1  0
113320  1  1
114321  1  0
114322  1  0
115323  1  0
116324  1  0
116325  1  0
116326  1  0
117327  1  0
117328  1  0
117329  1  0
120330  1  0
121331  1  6
122332  1  0
122333  1  0
123334  1  0
123335  1  0
129336  1  0
130337  1  1
131338  1  0
131339  1  0
133340  1  0
133341  1  0
137342  1  0
138343  1  1
139344  1  0
139345  1  0
139346  1  0
142347  1  0
143348  1  6
144349  1  6
145350  1  0
145351  1  0
145352  1  0
146353  1  0
146354  1  0
147355  1  0
147356  1  0
147357  1  0
150358  1  0
151359  1  1
152360  1  0
152361  1  0
153362  1  0
153363  1  0
155364  1  0
155365  1  0
159366  1  0
160367  1  6
161368  1  0
161369  1  0
167370  1  0
168371  1  6
169372  1  6
170373  1  0
171374  1  0
171375  1  0
171376  1  0
174377  1  0
175378  1  1
176379  1  0
176380  1  0
177381  1  0
177382  1  0
177383  1  0
180384  1  0
181385  1  6
182386  1  0
182387  1  0
183388  1  0
183389  1  0
184390  1  0
184391  1  0
185392  1  0
187393  1  0
187394  1  0
188395  1  0
188396  1  0
191397  1  0
192398  1  1
193399  1  0
193400  1  0
194401  1  0
194402  1  0
200403  1  0
201404  1  1
202405  1  0
202406  1  0
203407  1  0
203408  1  0
205409  1  0
205410  1  0
M  CHG  8  18  -1  27  -1  55  -1 126  -1 164  -1 187   1 197  -1 209  -1
M  END
