
     RDKit          2D

260261  0  0  0  0  0  0  0  0999 V2000
   12.1389   14.3055    0.0000 N   0  0  0  0  0  0  0  0  0  0  0  0
   11.3687   13.0183    0.0000 C   0  0  0  0  0  0  0  0  0  0  0  0
    9.8689   13.0418    0.0000 C   0  0  0  0  0  0  0  0  0  0  0  0
    9.0987   11.7546    0.0000 C   0  0  0  0  0  0  0  0  0  0  0  0
    9.8283   10.4440    0.0000 O   0  0  0  0  0  0  0  0  0  0  0  0
    7.5989   11.7780    0.0000 N   0  0  0  0  0  0  0  0  0  0  0  0
    6.8287   10.4908    0.0000 C   0  0  0  0  0  0  0  0  0  0  0  0
    5.6948   11.4728    0.0000 C   0  0  0  0  0  0  0  0  0  0  0  0
    5.9783   12.9458    0.0000 C   0  0  0  0  0  0  0  0  0  0  0  0
    4.8444   13.9278    0.0000 N   0  0  0  0  0  0  0  0  0  0  0  0
    7.3253   13.6059    0.0000 O   0  0  0  0  0  0  0  0  0  0  0  0
    6.5452    9.0179    0.0000 C   0  0  0  0  0  0  0  0  0  0  0  0
    5.0785    8.7033    0.0000 O   0  0  0  0  0  0  0  0  0  0  0  0
    7.6791    8.0359    0.0000 N   0  0  0  0  0  0  0  0  0  0  0  0
    7.3956    6.5629    0.0000 C   0  0  0  0  0  0  0  0  0  0  0  0
    5.9942    7.0979    0.0000 C   0  0  0  0  0  0  0  0  0  0  0  0
    4.8302    6.1517    0.0000 C   0  0  0  0  0  0  0  0  0  0  0  0
    3.4289    6.6867    0.0000 C   0  0  0  0  0  0  0  0  0  0  0  0
    2.2649    5.7406    0.0000 N   0  0  0  0  0  0  0  0  0  0  0  0
    3.1915    8.1678    0.0000 O   0  0  0  0  0  0  0  0  0  0  0  0
    7.6329    5.0818    0.0000 C   0  0  0  0  0  0  0  0  0  0  0  0
    6.4690    4.1357    0.0000 O   0  0  0  0  0  0  0  0  0  0  0  0
    9.0343    4.5468    0.0000 N   0  0  0  0  0  0  0  0  0  0  0  0
    9.2717    3.0657    0.0000 C   0  0  0  0  0  0  0  0  0  0  0  0
   10.6891    3.5567    0.0000 C   0  0  0  0  0  0  0  0  0  0  0  0
   10.9726    5.0297    0.0000 C   0  0  0  0  0  0  0  0  0  0  0  0
   12.3899    5.5206    0.0000 C   0  0  0  0  0  0  0  0  0  0  0  0
   10.7352    6.5108    0.0000 C   0  0  0  0  0  0  0  0  0  0  0  0
    8.9882    1.5928    0.0000 C   0  0  0  0  0  0  0  0  0  0  0  0
   10.2333    0.7563    0.0000 O   0  0  0  0  0  0  0  0  0  0  0  0
    7.5708    1.1018    0.0000 N   0  0  0  0  0  0  0  0  0  0  0  0
    7.2873   -0.3712    0.0000 C   0  0  0  0  0  0  0  0  0  0  0  0
    8.7871   -0.3946    0.0000 C   0  0  0  0  0  0  0  0  0  0  0  0
    9.5167   -1.7052    0.0000 C   0  0  0  0  0  0  0  0  0  0  0  0
   11.0166   -1.7286    0.0000 C   0  0  0  0  0  0  0  0  0  0  0  0
   11.7462   -3.0392    0.0000 C   0  0  0  0  0  0  0  0  0  0  0  0
   13.2460   -3.0626    0.0000 N   0  0  0  0  0  0  0  0  0  0  0  0
    6.5171   -1.6583    0.0000 C   0  0  0  0  0  0  0  0  0  0  0  0
    7.2467   -2.9689    0.0000 O   0  0  0  0  0  0  0  0  0  0  0  0
    5.0173   -1.6349    0.0000 N   0  0  0  0  0  0  0  0  0  0  0  0
    4.2471   -2.9221    0.0000 C   0  0  0  0  0  0  0  0  0  0  0  0
    3.1132   -1.9401    0.0000 C   0  0  0  0  0  0  0  0  0  0  0  0
    3.3967   -0.4671    0.0000 C   0  0  0  0  0  0  0  0  0  0  0  0
    2.2629    0.5149    0.0000 C   0  0  0  0  0  0  0  0  0  0  0  0
    2.5464    1.9878    0.0000 N   0  0  0  0  0  0  0  0  0  0  0  0
    1.4125    2.9698    0.0000 C   0  0  0  0  0  0  0  0  0  0  0  0
    1.8734    4.3973    0.0000 N   0  0  0  0  0  0  0  0  0  0  0  0
   -0.0049    2.4789    0.0000 N   0  0  0  0  0  0  0  0  0  0  0  0
    3.9636   -4.3951    0.0000 C   0  0  0  0  0  0  0  0  0  0  0  0
    3.1842   -4.5622    0.0000 O   0  0  0  0  0  0  0  0  0  0  0  0
    5.0975   -5.3771    0.0000 N   0  0  0  0  0  0  0  0  0  0  0  0
    4.8140   -6.8500    0.0000 C   0  0  0  0  0  0  0  0  0  0  0  0
    3.4126   -6.3151    0.0000 C   0  0  0  0  0  0  0  0  0  0  0  0
    2.9965   -4.8739    0.0000 O   0  0  0  0  0  0  0  0  0  0  0  0
    5.0514   -8.3311    0.0000 C   0  0  0  0  0  0  0  0  0  0  0  0
    3.6930   -8.9675    0.0000 O   0  0  0  0  0  0  0  0  0  0  0  0
    6.4527   -8.8661    0.0000 N   0  0  0  0  0  0  0  0  0  0  0  0
    6.6901  -10.3472    0.0000 C   0  0  0  0  0  0  0  0  0  0  0  0
    7.4197  -11.6578    0.0000 C   0  0  0  0  0  0  0  0  0  0  0  0
    8.9195  -11.6812    0.0000 C   0  0  0  0  0  0  0  0  0  0  0  0
    9.6492  -12.9918    0.0000 C   0  0  0  0  0  0  0  0  0  0  0  0
   11.1490  -13.0152    0.0000 C   0  0  0  0  0  0  0  0  0  0  0  0
   11.9192  -11.7280    0.0000 C   0  0  0  0  0  0  0  0  0  0  0  0
   11.1896  -10.4174    0.0000 C   0  0  0  0  0  0  0  0  0  0  0  0
    9.6897  -10.3940    0.0000 C   0  0  0  0  0  0  0  0  0  0  0  0
    5.1903  -10.3238    0.0000 C   0  0  0  0  0  0  0  0  0  0  0  0
    4.4201  -11.6109    0.0000 O   0  0  0  0  0  0  0  0  0  0  0  0
    4.4607   -9.0132    0.0000 N   0  0  0  0  0  0  0  0  0  0  0  0
    2.9608   -8.9898    0.0000 C   0  0  0  0  0  0  0  0  0  0  0  0
    1.5435   -9.4807    0.0000 C   0  0  0  0  0  0  0  0  0  0  0  0
    0.4096   -8.4987    0.0000 C   0  0  0  0  0  0  0  0  0  0  0  0
    0.6931   -7.0258    0.0000 C   0  0  0  0  0  0  0  0  0  0  0  0
   -0.4408   -6.0438    0.0000 C   0  0  0  0  0  0  0  0  0  0  0  0
   -1.8582   -6.5347    0.0000 C   0  0  0  0  0  0  0  0  0  0  0  0
   -2.1417   -8.0077    0.0000 C   0  0  0  0  0  0  0  0  0  0  0  0
   -1.0078   -8.9897    0.0000 C   0  0  0  0  0  0  0  0  0  0  0  0
    2.2312   -7.6792    0.0000 C   0  0  0  0  0  0  0  0  0  0  0  0
    2.8387   -6.3077    0.0000 O   0  0  0  0  0  0  0  0  0  0  0  0
    0.7314   -7.6558    0.0000 N   0  0  0  0  0  0  0  0  0  0  0  0
    0.0018   -6.3452    0.0000 C   0  0  0  0  0  0  0  0  0  0  0  0
   -0.0533   -4.8462    0.0000 C   0  0  0  0  0  0  0  0  0  0  0  0
   -1.4981   -6.3218    0.0000 C   0  0  0  0  0  0  0  0  0  0  0  0
   -2.5568   -7.3843    0.0000 O   0  0  0  0  0  0  0  0  0  0  0  0
   -2.2277   -5.0112    0.0000 N   0  0  0  0  0  0  0  0  0  0  0  0
   -3.7275   -4.9878    0.0000 C   0  0  0  0  0  0  0  0  0  0  0  0
   -5.1449   -5.4787    0.0000 C   0  0  0  0  0  0  0  0  0  0  0  0
   -6.2788   -4.4967    0.0000 C   0  0  0  0  0  0  0  0  0  0  0  0
   -7.6961   -4.9877    0.0000 C   0  0  0  0  0  0  0  0  0  0  0  0
   -7.0084   -3.1861    0.0000 C   0  0  0  0  0  0  0  0  0  0  0  0
   -4.4571   -3.6772    0.0000 C   0  0  0  0  0  0  0  0  0  0  0  0
   -3.6869   -2.3900    0.0000 O   0  0  0  0  0  0  0  0  0  0  0  0
   -5.9570   -3.6538    0.0000 N   0  0  0  0  0  0  0  0  0  0  0  0
   -6.6866   -2.3432    0.0000 C   0  0  0  0  0  0  0  0  0  0  0  0
   -6.9240   -0.8621    0.0000 C   0  0  0  0  0  0  0  0  0  0  0  0
   -5.7600    0.0841    0.0000 C   0  0  0  0  0  0  0  0  0  0  0  0
   -5.9974    1.5652    0.0000 C   0  0  0  0  0  0  0  0  0  0  0  0
   -4.8334    2.5113    0.0000 N   0  0  0  0  0  0  0  0  0  0  0  0
   -5.0708    3.9924    0.0000 C   0  0  0  0  0  0  0  0  0  0  0  0
   -3.9068    4.9385    0.0000 N   0  0  0  0  0  0  0  0  0  0  0  0
   -6.4721    4.5273    0.0000 N   0  0  0  0  0  0  0  0  0  0  0  0
   -8.1864   -2.3198    0.0000 C   0  0  0  0  0  0  0  0  0  0  0  0
   -9.1077   -3.5034    0.0000 O   0  0  0  0  0  0  0  0  0  0  0  0
   -8.9160   -1.0092    0.0000 N   0  0  0  0  0  0  0  0  0  0  0  0
  -10.4158   -0.9857    0.0000 C   0  0  0  0  0  0  0  0  0  0  0  0
  -11.8332   -1.4767    0.0000 C   0  0  0  0  0  0  0  0  0  0  0  0
  -12.9671   -0.4947    0.0000 C   0  0  0  0  0  0  0  0  0  0  0  0
  -14.3845   -0.9857    0.0000 O   0  0  0  0  0  0  0  0  0  0  0  0
  -13.0484    1.0031    0.0000 O   0  0  0  0  0  0  0  0  0  0  0  0
  -11.1455    0.3248    0.0000 C   0  0  0  0  0  0  0  0  0  0  0  0
  -10.3753    1.6120    0.0000 O   0  0  0  0  0  0  0  0  0  0  0  0
  -12.6453    0.3483    0.0000 N   0  0  0  0  0  0  0  0  0  0  0  0
  -13.3749    1.6588    0.0000 C   0  0  0  0  0  0  0  0  0  0  0  0
  -13.6123    3.1399    0.0000 C   0  0  0  0  0  0  0  0  0  0  0  0
  -15.0137    3.6749    0.0000 C   0  0  0  0  0  0  0  0  0  0  0  0
  -15.2510    5.1560    0.0000 C   0  0  0  0  0  0  0  0  0  0  0  0
  -16.5767    5.8578    0.0000 N   0  0  0  0  0  0  0  0  0  0  0  0
  -14.0871    6.1021    0.0000 O   0  0  0  0  0  0  0  0  0  0  0  0
  -14.8747    1.6823    0.0000 C   0  0  0  0  0  0  0  0  0  0  0  0
  -15.6449    0.3951    0.0000 O   0  0  0  0  0  0  0  0  0  0  0  0
  -15.6044    2.9928    0.0000 N   0  0  0  0  0  0  0  0  0  0  0  0
  -17.1042    3.0163    0.0000 C   0  0  0  0  0  0  0  0  0  0  0  0
  -18.5216    2.5253    0.0000 C   0  0  0  0  0  0  0  0  0  0  0  0
  -19.6554    3.5073    0.0000 C   0  0  0  0  0  0  0  0  0  0  0  0
  -19.6855    1.5792    0.0000 C   0  0  0  0  0  0  0  0  0  0  0  0
  -19.4482    0.0981    0.0000 C   0  0  0  0  0  0  0  0  0  0  0  0
  -17.8338    4.3269    0.0000 C   0  0  0  0  0  0  0  0  0  0  0  0
  -19.3196    4.5329    0.0000 O   0  0  0  0  0  0  0  0  0  0  0  0
  -17.2263    5.6983    0.0000 O   0  0  0  0  0  0  0  0  0  0  0  0
   13.6387   14.2821    0.0000 H   0  0  0  0  0  0  0  0  0  0  0  0
   11.4093   15.6161    0.0000 H   0  0  0  0  0  0  0  0  0  0  0  0
   12.7701   12.4834    0.0000 H   0  0  0  0  0  0  0  0  0  0  0  0
   11.0852   11.5454    0.0000 H   0  0  0  0  0  0  0  0  0  0  0  0
   10.1524   14.5147    0.0000 H   0  0  0  0  0  0  0  0  0  0  0  0
    8.4675   13.5767    0.0000 H   0  0  0  0  0  0  0  0  0  0  0  0
    7.0344   13.1678    0.0000 H   0  0  0  0  0  0  0  0  0  0  0  0
    8.2300    9.9559    0.0000 H   0  0  0  0  0  0  0  0  0  0  0  0
    4.2935   12.0078    0.0000 H   0  0  0  0  0  0  0  0  0  0  0  0
    4.9246   10.1857    0.0000 H   0  0  0  0  0  0  0  0  0  0  0  0
    5.1279   15.4008    0.0000 H   0  0  0  0  0  0  0  0  0  0  0  0
    3.4271   13.4368    0.0000 H   0  0  0  0  0  0  0  0  0  0  0  0
    9.0964    8.5268    0.0000 H   0  0  0  0  0  0  0  0  0  0  0  0
    8.8813    6.3568    0.0000 H   0  0  0  0  0  0  0  0  0  0  0  0
    4.7491    7.9343    0.0000 H   0  0  0  0  0  0  0  0  0  0  0  0
    6.4300    8.5332    0.0000 H   0  0  0  0  0  0  0  0  0  0  0  0
    4.0600    4.8646    0.0000 H   0  0  0  0  0  0  0  0  0  0  0  0
    5.9641    5.1697    0.0000 H   0  0  0  0  0  0  0  0  0  0  0  0
    0.9392    6.4424    0.0000 H   0  0  0  0  0  0  0  0  0  0  0  0
    2.8536    4.3609    0.0000 H   0  0  0  0  0  0  0  0  0  0  0  0
   10.0743    5.6278    0.0000 H   0  0  0  0  0  0  0  0  0  0  0  0
    7.7719    3.0891    0.0000 H   0  0  0  0  0  0  0  0  0  0  0  0
   12.1748    3.3506    0.0000 H   0  0  0  0  0  0  0  0  0  0  0  0
   10.9264    2.0756    0.0000 H   0  0  0  0  0  0  0  0  0  0  0  0
    9.5808    5.5891    0.0000 H   0  0  0  0  0  0  0  0  0  0  0  0
   12.8509    6.9480    0.0000 H   0  0  0  0  0  0  0  0  0  0  0  0
   13.8897    5.4972    0.0000 H   0  0  0  0  0  0  0  0  0  0  0  0
   12.8061    4.0795    0.0000 H   0  0  0  0  0  0  0  0  0  0  0  0
   11.7751    7.5917    0.0000 H   0  0  0  0  0  0  0  0  0  0  0  0
   10.0055    7.8213    0.0000 H   0  0  0  0  0  0  0  0  0  0  0  0
    9.3882    5.8507    0.0000 H   0  0  0  0  0  0  0  0  0  0  0  0
    6.4369    2.0838    0.0000 H   0  0  0  0  0  0  0  0  0  0  0  0
    5.8859    0.1638    0.0000 H   0  0  0  0  0  0  0  0  0  0  0  0
   10.2045    0.0964    0.0000 H   0  0  0  0  0  0  0  0  0  0  0  0
    8.9152    1.0999    0.0000 H   0  0  0  0  0  0  0  0  0  0  0  0
    9.5718   -3.2042    0.0000 H   0  0  0  0  0  0  0  0  0  0  0  0
    8.0994   -2.1961    0.0000 H   0  0  0  0  0  0  0  0  0  0  0  0
   12.3635   -1.0685    0.0000 H   0  0  0  0  0  0  0  0  0  0  0  0
   10.9615   -0.2296    0.0000 H   0  0  0  0  0  0  0  0  0  0  0  0
   11.9836   -4.5203    0.0000 H   0  0  0  0  0  0  0  0  0  0  0  0
   10.3992   -3.6992    0.0000 H   0  0  0  0  0  0  0  0  0  0  0  0
   13.9756   -4.3732    0.0000 H   0  0  0  0  0  0  0  0  0  0  0  0
   14.6634   -2.5716    0.0000 H   0  0  0  0  0  0  0  0  0  0  0  0
   13.1909   -1.5636    0.0000 H   0  0  0  0  0  0  0  0  0  0  0  0
    4.4529   -0.2452    0.0000 H   0  0  0  0  0  0  0  0  0  0  0  0
    5.6485   -3.4571    0.0000 H   0  0  0  0  0  0  0  0  0  0  0  0
    1.6571   -1.5799    0.0000 H   0  0  0  0  0  0  0  0  0  0  0  0
    2.3430   -3.2273    0.0000 H   0  0  0  0  0  0  0  0  0  0  0  0
    4.1669    0.8200    0.0000 H   0  0  0  0  0  0  0  0  0  0  0  0
    4.8967   -0.4642    0.0000 H   0  0  0  0  0  0  0  0  0  0  0  0
    0.8615    1.0498    0.0000 H   0  0  0  0  0  0  0  0  0  0  0  0
    1.3415   -0.6688    0.0000 H   0  0  0  0  0  0  0  0  0  0  0  0
    3.9637    2.4788    0.0000 H   0  0  0  0  0  0  0  0  0  0  0  0
    0.4466    5.2573    0.0000 H   0  0  0  0  0  0  0  0  0  0  0  0
    3.1695    4.7786    0.0000 H   0  0  0  0  0  0  0  0  0  0  0  0
   -1.1388    3.4609    0.0000 H   0  0  0  0  0  0  0  0  0  0  0  0
   -0.2884    1.0059    0.0000 H   0  0  0  0  0  0  0  0  0  0  0  0
    6.5149   -4.8861    0.0000 H   0  0  0  0  0  0  0  0  0  0  0  0
    6.3138   -6.8734    0.0000 H   0  0  0  0  0  0  0  0  0  0  0  0
    1.9630   -5.9294    0.0000 H   0  0  0  0  0  0  0  0  0  0  0  0
    3.1291   -7.7880    0.0000 H   0  0  0  0  0  0  0  0  0  0  0  0
    1.7129   -4.4523    0.0000 H   0  0  0  0  0  0  0  0  0  0  0  0
    7.6167   -7.9200    0.0000 H   0  0  0  0  0  0  0  0  0  0  0  0
    8.1075   -9.8562    0.0000 H   0  0  0  0  0  0  0  0  0  0  0  0
    6.0024  -12.1487    0.0000 H   0  0  0  0  0  0  0  0  0  0  0  0
    7.6571  -13.1389    0.0000 H   0  0  0  0  0  0  0  0  0  0  0  0
    8.8790  -14.2790    0.0000 H   0  0  0  0  0  0  0  0  0  0  0  0
   11.8786  -14.3258    0.0000 H   0  0  0  0  0  0  0  0  0  0  0  0
   13.4190  -11.7514    0.0000 H   0  0  0  0  0  0  0  0  0  0  0  0
   11.9597   -9.1303    0.0000 H   0  0  0  0  0  0  0  0  0  0  0  0
    8.9601   -9.0834    0.0000 H   0  0  0  0  0  0  0  0  0  0  0  0
    4.8965   -7.5779    0.0000 H   0  0  0  0  0  0  0  0  0  0  0  0
    3.1982  -10.4709    0.0000 H   0  0  0  0  0  0  0  0  0  0  0  0
    0.3795  -10.4269    0.0000 H   0  0  0  0  0  0  0  0  0  0  0  0
    2.2731  -10.7913    0.0000 H   0  0  0  0  0  0  0  0  0  0  0  0
    1.9495   -6.2064    0.0000 H   0  0  0  0  0  0  0  0  0  0  0  0
   -0.3390   -4.5472    0.0000 H   0  0  0  0  0  0  0  0  0  0  0  0
   -2.9920   -5.5527    0.0000 H   0  0  0  0  0  0  0  0  0  0  0  0
   -3.5590   -8.4987    0.0000 H   0  0  0  0  0  0  0  0  0  0  0  0
   -1.2913  -10.4627    0.0000 H   0  0  0  0  0  0  0  0  0  0  0  0
   -0.3274   -8.7183    0.0000 H   0  0  0  0  0  0  0  0  0  0  0  0
    1.3487   -5.6851    0.0000 H   0  0  0  0  0  0  0  0  0  0  0  0
   -1.3464   -3.7958    0.0000 H   0  0  0  0  0  0  0  0  0  0  0  0
    0.0479   -3.3911    0.0000 H   0  0  0  0  0  0  0  0  0  0  0  0
    1.2493   -5.0478    0.0000 H   0  0  0  0  0  0  0  0  0  0  0  0
   -1.6201   -3.6397    0.0000 H   0  0  0  0  0  0  0  0  0  0  0  0
   -3.4901   -6.4689    0.0000 H   0  0  0  0  0  0  0  0  0  0  0  0
   -6.1848   -6.5597    0.0000 H   0  0  0  0  0  0  0  0  0  0  0  0
   -4.4153   -6.7893    0.0000 H   0  0  0  0  0  0  0  0  0  0  0  0
   -5.6954   -3.1148    0.0000 H   0  0  0  0  0  0  0  0  0  0  0  0
   -9.0339   -4.3092    0.0000 H   0  0  0  0  0  0  0  0  0  0  0  0
   -8.8601   -5.9338    0.0000 H   0  0  0  0  0  0  0  0  0  0  0  0
   -7.1317   -6.3774    0.0000 H   0  0  0  0  0  0  0  0  0  0  0  0
   -6.5725   -1.7508    0.0000 H   0  0  0  0  0  0  0  0  0  0  0  0
   -8.4189   -2.6758    0.0000 H   0  0  0  0  0  0  0  0  0  0  0  0
   -8.2790   -3.9833    0.0000 H   0  0  0  0  0  0  0  0  0  0  0  0
   -7.0157   -4.7163    0.0000 H   0  0  0  0  0  0  0  0  0  0  0  0
   -5.2199   -2.0286    0.0000 H   0  0  0  0  0  0  0  0  0  0  0  0
   -7.6536    0.4485    0.0000 H   0  0  0  0  0  0  0  0  0  0  0  0
   -8.4231   -0.8124    0.0000 H   0  0  0  0  0  0  0  0  0  0  0  0
   -4.3426    0.5750    0.0000 H   0  0  0  0  0  0  0  0  0  0  0  0
   -4.8760   -1.1278    0.0000 H   0  0  0  0  0  0  0  0  0  0  0  0
   -6.7270    2.8757    0.0000 H   0  0  0  0  0  0  0  0  0  0  0  0
   -7.4640    1.2506    0.0000 H   0  0  0  0  0  0  0  0  0  0  0  0
   -3.4320    1.9763    0.0000 H   0  0  0  0  0  0  0  0  0  0  0  0
   -4.1442    6.4196    0.0000 H   0  0  0  0  0  0  0  0  0  0  0  0
   -2.5054    4.4035    0.0000 H   0  0  0  0  0  0  0  0  0  0  0  0
   -6.7095    6.0084    0.0000 H   0  0  0  0  0  0  0  0  0  0  0  0
   -7.6361    3.5812    0.0000 H   0  0  0  0  0  0  0  0  0  0  0  0
   -8.3085    0.3623    0.0000 H   0  0  0  0  0  0  0  0  0  0  0  0
  -10.1785   -2.4668    0.0000 H   0  0  0  0  0  0  0  0  0  0  0  0
  -12.9972   -2.4228    0.0000 H   0  0  0  0  0  0  0  0  0  0  0  0
  -11.1036   -2.7873    0.0000 H   0  0  0  0  0  0  0  0  0  0  0  0
  -13.7041   -0.7143    0.0000 H   0  0  0  0  0  0  0  0  0  0  0  0
  -11.9575    2.1498    0.0000 H   0  0  0  0  0  0  0  0  0  0  0  0
  -13.3288    4.6129    0.0000 H   0  0  0  0  0  0  0  0  0  0  0  0
  -12.1125    3.1165    0.0000 H   0  0  0  0  0  0  0  0  0  0  0  0
  -16.5135    3.6983    0.0000 H   0  0  0  0  0  0  0  0  0  0  0  0
  -15.9556    2.5076    0.0000 H   0  0  0  0  0  0  0  0  0  0  0  0
  -16.8898    7.1721    0.0000 H   0  0  0  0  0  0  0  0  0  0  0  0
  -18.1329    5.2631    0.0000 H   0  0  0  0  0  0  0  0  0  0  0  0
  -15.1685    4.4281    0.0000 H   0  0  0  0  0  0  0  0  0  0  0  0
  -16.8668    1.5352    0.0000 H   0  0  0  0  0  0  0  0  0  0  0  0
  -17.6376    1.3134    0.0000 H   0  0  0  0  0  0  0  0  0  0  0  0
  -21.1221    3.1928    0.0000 H   0  0  0  0  0  0  0  0  0  0  0  0
  -20.3851    4.8179    0.0000 H   0  0  0  0  0  0  0  0  0  0  0  0
  -19.0720    4.8892    0.0000 H   0  0  0  0  0  0  0  0  0  0  0  0
  -21.1029    1.0882    0.0000 H   0  0  0  0  0  0  0  0  0  0  0  0
  -20.5695    2.7910    0.0000 H   0  0  0  0  0  0  0  0  0  0  0  0
  -20.6121   -0.8481    0.0000 H   0  0  0  0  0  0  0  0  0  0  0  0
  -18.7185   -1.2125    0.0000 H   0  0  0  0  0  0  0  0  0  0  0  0
  -17.9815    0.4126    0.0000 H   0  0  0  0  0  0  0  0  0  0  0  0
  1  2  1  0
  2  3  1  0
  3  4  1  0
  4  5  2  0
  4  6  1  0
  6  7  1  0
  7  8  1  0
  8  9  1  0
  9 10  1  0
  9 11  2  0
  7 12  1  0
 12 13  2  0
 12 14  1  0
 14 15  1  0
 15 16  1  0
 16 17  1  0
 17 18  1  0
 18 19  1  0
 18 20  2  0
 15 21  1  0
 21 22  2  0
 21 23  1  0
 23 24  1  0
 24 25  1  0
 25 26  1  0
 26 27  1  0
 26 28  1  0
 24 29  1  0
 29 30  2  0
 29 31  1  0
 31 32  1  0
 32 33  1  0
 33 34  1  0
 34 35  1  0
 35 36  1  0
 36 37  1  0
 32 38  1  0
 38 39  2  0
 38 40  1  0
 40 41  1  0
 41 42  1  0
 42 43  1  0
 43 44  1  0
 44 45  1  0
 45 46  1  0
 46 47  2  3
 46 48  1  0
 41 49  1  0
 49 50  2  0
 49 51  1  0
 51 52  1  0
 52 53  1  0
 53 54  1  0
 52 55  1  0
 55 56  2  0
 55 57  1  0
 57 58  1  0
 58 59  1  0
 59 60  1  0
 60 61  2  0
 61 62  1  0
 62 63  2  0
 63 64  1  0
 64 65  2  0
 58 66  1  0
 66 67  2  0
 66 68  1  0
 68 69  1  0
 69 70  1  0
 70 71  1  0
 71 72  2  0
 72 73  1  0
 73 74  2  0
 74 75  1  0
 75 76  2  0
 69 77  1  0
 77 78  2  0
 77 79  1  0
 79 80  1  0
 80 81  1  0
 80 82  1  0
 82 83  2  0
 82 84  1  0
 84 85  1  0
 85 86  1  0
 86 87  1  0
 87 88  1  0
 87 89  1  0
 85 90  1  0
 90 91  2  0
 90 92  1  0
 92 93  1  0
 93 94  1  0
 94 95  1  0
 95 96  1  0
 96 97  1  0
 97 98  1  0
 98 99  2  3
 98100  1  0
 93101  1  0
101102  2  0
101103  1  0
103104  1  0
104105  1  0
105106  1  0
106107  2  0
106108  1  0
104109  1  0
109110  2  0
109111  1  0
111112  1  0
112113  1  0
113114  1  0
114115  1  0
115116  1  0
115117  2  0
112118  1  0
118119  2  0
118120  1  0
120121  1  0
121122  1  0
122123  1  0
122124  1  0
124125  1  0
121126  1  0
126127  2  0
126128  1  0
 65 60  1  0
 76 71  1  0
  1129  1  0
  1130  1  0
  2131  1  0
  2132  1  0
  3133  1  0
  3134  1  0
  6135  1  0
  7136  1  6
  8137  1  0
  8138  1  0
 10139  1  0
 10140  1  0
 14141  1  0
 15142  1  6
 16143  1  0
 16144  1  0
 17145  1  0
 17146  1  0
 19147  1  0
 19148  1  0
 23149  1  0
 24150  1  1
 25151  1  0
 25152  1  0
 26153  1  0
 27154  1  0
 27155  1  0
 27156  1  0
 28157  1  0
 28158  1  0
 28159  1  0
 31160  1  0
 32161  1  1
 33162  1  0
 33163  1  0
 34164  1  0
 34165  1  0
 35166  1  0
 35167  1  0
 36168  1  0
 36169  1  0
 37170  1  0
 37171  1  0
 37172  1  0
 40173  1  0
 41174  1  6
 42175  1  0
 42176  1  0
 43177  1  0
 43178  1  0
 44179  1  0
 44180  1  0
 45181  1  0
 47182  1  0
 47183  1  0
 48184  1  0
 48185  1  0
 51186  1  0
 52187  1  6
 53188  1  0
 53189  1  0
 54190  1  0
 57191  1  0
 58192  1  1
 59193  1  0
 59194  1  0
 61195  1  0
 62196  1  0
 63197  1  0
 64198  1  0
 65199  1  0
 68200  1  0
 69201  1  1
 70202  1  0
 70203  1  0
 72204  1  0
 73205  1  0
 74206  1  0
 75207  1  0
 76208  1  0
 79209  1  0
 80210  1  6
 81211  1  0
 81212  1  0
 81213  1  0
 84214  1  0
 85215  1  1
 86216  1  0
 86217  1  0
 87218  1  0
 88219  1  0
 88220  1  0
 88221  1  0
 89222  1  0
 89223  1  0
 89224  1  0
 92225  1  0
 93226  1  6
 94227  1  0
 94228  1  0
 95229  1  0
 95230  1  0
 96231  1  0
 96232  1  0
 97233  1  0
 99234  1  0
 99235  1  0
100236  1  0
100237  1  0
103238  1  0
104239  1  1
105240  1  0
105241  1  0
111242  1  0
112243  1  6
113244  1  0
113245  1  0
114246  1  0
114247  1  0
116248  1  0
116249  1  0
120250  1  0
121251  1  1
122252  1  1
123253  1  0
123254  1  0
123255  1  0
124256  1  0
124257  1  0
125258  1  0
125259  1  0
125260  1  0
M  CHG  5  37   1  47   1  99   1 108  -1 128  -1
M  END
