
     RDKit          2D

324332  0  0  0  0  0  0  0  0999 V2000
   32.4662   -0.8296    0.0000 C   0  0  0  0  0  0  0  0  0  0  0  0
   33.7734   -0.0939    0.0000 N   0  0  0  0  0  0  0  0  0  0  0  0
   35.0641   -0.8581    0.0000 C   0  0  0  0  0  0  0  0  0  0  0  0
   35.0476   -2.3580    0.0000 C   0  0  0  0  0  0  0  0  0  0  0  0
   36.3383   -3.1222    0.0000 C   0  0  0  0  0  0  0  0  0  0  0  0
   37.6455   -2.3866    0.0000 C   0  0  0  0  0  0  0  0  0  0  0  0
   37.6620   -0.8866    0.0000 C   0  0  0  0  0  0  0  0  0  0  0  0
   36.3713   -0.1224    0.0000 C   0  0  0  0  0  0  0  0  0  0  0  0
   39.0936   -0.4388    0.0000 C   0  0  0  0  0  0  0  0  0  0  0  0
   39.9619   -1.6620    0.0000 O   0  0  0  0  0  0  0  0  0  0  0  0
   39.0669   -2.8657    0.0000 C   0  0  0  0  0  0  0  0  0  0  0  0
   39.5148   -4.2973    0.0000 O   0  0  0  0  0  0  0  0  0  0  0  0
   40.5641   -0.1431    0.0000 C   0  0  0  0  0  0  0  0  0  0  0  0
   41.0433    1.2783    0.0000 C   0  0  0  0  0  0  0  0  0  0  0  0
   42.5139    1.5741    0.0000 C   0  0  0  0  0  0  0  0  0  0  0  0
   43.5053    0.4484    0.0000 C   0  0  0  0  0  0  0  0  0  0  0  0
   43.0261   -0.9730    0.0000 C   0  0  0  0  0  0  0  0  0  0  0  0
   41.5555   -1.2688    0.0000 C   0  0  0  0  0  0  0  0  0  0  0  0
   44.9758    0.7441    0.0000 O   0  0  0  0  0  0  0  0  0  0  0  0
   40.0519    2.4040    0.0000 O   0  0  0  0  0  0  0  0  0  0  0  0
   38.5814    2.1083    0.0000 C   0  0  0  0  0  0  0  0  0  0  0  0
   38.1022    0.6869    0.0000 C   0  0  0  0  0  0  0  0  0  0  0  0
   36.8552    1.0544    0.0000 C   0  0  0  0  0  0  0  0  0  0  0  0
   36.3265    1.6548    0.0000 C   0  0  0  0  0  0  0  0  0  0  0  0
   36.5821    2.4129    0.0000 C   0  0  0  0  0  0  0  0  0  0  0  0
   37.3664    2.5706    0.0000 C   0  0  0  0  0  0  0  0  0  0  0  0
   35.1280    4.0639    0.0000 O   0  0  0  0  0  0  0  0  0  0  0  0
   32.4497   -2.3295    0.0000 S   0  0  0  0  0  0  0  0  0  0  0  0
   31.1754   -0.0653    0.0000 N   0  0  0  0  0  0  0  0  0  0  0  0
   29.8682   -0.8010    0.0000 C   0  0  0  0  0  0  0  0  0  0  0  0
   28.5775   -0.0368    0.0000 C   0  0  0  0  0  0  0  0  0  0  0  0
   27.2703   -0.7725    0.0000 O   0  0  0  0  0  0  0  0  0  0  0  0
   25.9796   -0.0083    0.0000 C   0  0  0  0  0  0  0  0  0  0  0  0
   24.6724   -0.7439    0.0000 O   0  0  0  0  0  0  0  0  0  0  0  0
   23.3817    0.0203    0.0000 C   0  0  0  0  0  0  0  0  0  0  0  0
   22.0745   -0.7154    0.0000 C   0  0  0  0  0  0  0  0  0  0  0  0
   20.7838    0.0488    0.0000 O   0  0  0  0  0  0  0  0  0  0  0  0
   19.4766   -0.6869    0.0000 C   0  0  0  0  0  0  0  0  0  0  0  0
   18.1858    0.0774    0.0000 C   0  0  0  0  0  0  0  0  0  0  0  0
   16.8786   -0.6583    0.0000 C   0  0  0  0  0  0  0  0  0  0  0  0
   16.8622   -2.1582    0.0000 O   0  0  0  0  0  0  0  0  0  0  0  0
   15.5879    0.1059    0.0000 N   0  0  0  0  0  0  0  0  0  0  0  0
   14.2807   -0.6298    0.0000 C   0  0  0  0  0  0  0  0  0  0  0  0
   13.3040   -1.7682    0.0000 C   0  0  0  0  0  0  0  0  0  0  0  0
   11.8297   -1.4915    0.0000 C   0  0  0  0  0  0  0  0  0  0  0  0
   10.8530   -2.6299    0.0000 C   0  0  0  0  0  0  0  0  0  0  0  0
    9.3787   -2.3532    0.0000 C   0  0  0  0  0  0  0  0  0  0  0  0
    8.4020   -3.4916    0.0000 N   0  0  0  0  0  0  0  0  0  0  0  0
   12.9900    0.1344    0.0000 C   0  0  0  0  0  0  0  0  0  0  0  0
   13.0065    1.6343    0.0000 O   0  0  0  0  0  0  0  0  0  0  0  0
   11.6828   -0.6012    0.0000 N   0  0  0  0  0  0  0  0  0  0  0  0
   10.3921    0.1630    0.0000 C   0  0  0  0  0  0  0  0  0  0  0  0
    9.4406    1.3226    0.0000 C   0  0  0  0  0  0  0  0  0  0  0  0
    9.9691    2.7264    0.0000 C   0  0  0  0  0  0  0  0  0  0  0  0
    9.0176    3.8860    0.0000 C   0  0  0  0  0  0  0  0  0  0  0  0
    9.5460    5.2898    0.0000 N   0  0  0  0  0  0  0  0  0  0  0  0
    7.5376    3.6417    0.0000 O   0  0  0  0  0  0  0  0  0  0  0  0
    9.0849   -0.5727    0.0000 C   0  0  0  0  0  0  0  0  0  0  0  0
    8.7780   -1.7483    0.0000 O   0  0  0  0  0  0  0  0  0  0  0  0
    7.7942    0.1915    0.0000 N   0  0  0  0  0  0  0  0  0  0  0  0
    6.4870   -0.5442    0.0000 C   0  0  0  0  0  0  0  0  0  0  0  0
    5.5102   -1.6826    0.0000 C   0  0  0  0  0  0  0  0  0  0  0  0
    4.0360   -1.4059    0.0000 C   0  0  0  0  0  0  0  0  0  0  0  0
    3.5384    0.0092    0.0000 C   0  0  0  0  0  0  0  0  0  0  0  0
    4.3691    1.2582    0.0000 F   0  0  0  0  0  0  0  0  0  0  0  0
    2.0642    0.2859    0.0000 C   0  0  0  0  0  0  0  0  0  0  0  0
    1.2390    1.5385    0.0000 F   0  0  0  0  0  0  0  0  0  0  0  0
    1.0874   -0.8525    0.0000 C   0  0  0  0  0  0  0  0  0  0  0  0
   -0.3868   -0.5758    0.0000 F   0  0  0  0  0  0  0  0  0  0  0  0
    1.5849   -2.2676    0.0000 C   0  0  0  0  0  0  0  0  0  0  0  0
    0.6082   -3.4060    0.0000 F   0  0  0  0  0  0  0  0  0  0  0  0
    3.0592   -2.5443    0.0000 C   0  0  0  0  0  0  0  0  0  0  0  0
    3.5567   -3.9594    0.0000 F   0  0  0  0  0  0  0  0  0  0  0  0
    5.1962    0.2201    0.0000 C   0  0  0  0  0  0  0  0  0  0  0  0
    5.3954    1.7068    0.0000 O   0  0  0  0  0  0  0  0  0  0  0  0
    3.8890   -0.5156    0.0000 N   0  0  0  0  0  0  0  0  0  0  0  0
    2.5983    0.2486    0.0000 C   0  0  0  0  0  0  0  0  0  0  0  0
    1.6468    1.4082    0.0000 C   0  0  0  0  0  0  0  0  0  0  0  0
    2.1753    2.8120    0.0000 C   0  0  0  0  0  0  0  0  0  0  0  0
    1.2238    3.9716    0.0000 C   0  0  0  0  0  0  0  0  0  0  0  0
    1.7523    5.3754    0.0000 N   0  0  0  0  0  0  0  0  0  0  0  0
    0.8008    6.5350    0.0000 C   0  0  0  0  0  0  0  0  0  0  0  0
    1.3293    7.9388    0.0000 N   0  0  0  0  0  0  0  0  0  0  0  0
   -0.6792    6.2908    0.0000 N   0  0  0  0  0  0  0  0  0  0  0  0
    1.2911   -0.4871    0.0000 C   0  0  0  0  0  0  0  0  0  0  0  0
    0.9122   -1.9384    0.0000 O   0  0  0  0  0  0  0  0  0  0  0  0
    0.0004    0.2771    0.0000 N   0  0  0  0  0  0  0  0  0  0  0  0
   -1.3068   -0.4586    0.0000 C   0  0  0  0  0  0  0  0  0  0  0  0
   -2.2835   -1.5970    0.0000 C   0  0  0  0  0  0  0  0  0  0  0  0
   -3.7578   -1.3203    0.0000 C   0  0  0  0  0  0  0  0  0  0  0  0
   -4.7345   -2.4587    0.0000 C   0  0  0  0  0  0  0  0  0  0  0  0
   -6.2088   -2.1820    0.0000 C   0  0  0  0  0  0  0  0  0  0  0  0
   -7.1856   -3.3204    0.0000 N   0  0  0  0  0  0  0  0  0  0  0  0
   -2.5975    0.3057    0.0000 C   0  0  0  0  0  0  0  0  0  0  0  0
   -2.5810    1.8056    0.0000 O   0  0  0  0  0  0  0  0  0  0  0  0
   -3.9047   -0.4300    0.0000 N   0  0  0  0  0  0  0  0  0  0  0  0
   -5.1954    0.3342    0.0000 C   0  0  0  0  0  0  0  0  0  0  0  0
   -6.1469    1.4938    0.0000 C   0  0  0  0  0  0  0  0  0  0  0  0
   -5.6185    2.8976    0.0000 C   0  0  0  0  0  0  0  0  0  0  0  0
   -6.5700    4.0572    0.0000 C   0  0  0  0  0  0  0  0  0  0  0  0
   -6.0415    5.4610    0.0000 C   0  0  0  0  0  0  0  0  0  0  0  0
   -6.9930    6.6206    0.0000 N   0  0  0  0  0  0  0  0  0  0  0  0
   -6.5026   -0.4015    0.0000 C   0  0  0  0  0  0  0  0  0  0  0  0
   -6.8816   -1.8528    0.0000 O   0  0  0  0  0  0  0  0  0  0  0  0
   -7.7934    0.3628    0.0000 N   0  0  0  0  0  0  0  0  0  0  0  0
   -9.1006   -0.3729    0.0000 C   0  0  0  0  0  0  0  0  0  0  0  0
  -10.0773   -1.5113    0.0000 C   0  0  0  0  0  0  0  0  0  0  0  0
  -11.5088   -1.9593    0.0000 O   0  0  0  0  0  0  0  0  0  0  0  0
  -10.3913    0.3913    0.0000 C   0  0  0  0  0  0  0  0  0  0  0  0
  -10.1921    1.8780    0.0000 O   0  0  0  0  0  0  0  0  0  0  0  0
  -11.6985   -0.3444    0.0000 N   0  0  0  0  0  0  0  0  0  0  0  0
  -12.9892    0.4198    0.0000 C   0  0  0  0  0  0  0  0  0  0  0  0
  -13.2702    1.8933    0.0000 C   0  0  0  0  0  0  0  0  0  0  0  0
  -13.9731    3.2184    0.0000 C   0  0  0  0  0  0  0  0  0  0  0  0
  -15.0353    4.2775    0.0000 C   0  0  0  0  0  0  0  0  0  0  0  0
  -16.3626    4.9764    0.0000 C   0  0  0  0  0  0  0  0  0  0  0  0
  -11.6658    1.1260    0.0000 C   0  0  0  0  0  0  0  0  0  0  0  0
  -13.1549   -1.0710    0.0000 C   0  0  0  0  0  0  0  0  0  0  0  0
  -11.8420   -1.7963    0.0000 O   0  0  0  0  0  0  0  0  0  0  0  0
  -13.7527   -2.4467    0.0000 N   0  0  0  0  0  0  0  0  0  0  0  0
  -14.7295   -3.5851    0.0000 C   0  0  0  0  0  0  0  0  0  0  0  0
  -14.5222   -5.0707    0.0000 C   0  0  0  0  0  0  0  0  0  0  0  0
  -13.1320   -5.6341    0.0000 C   0  0  0  0  0  0  0  0  0  0  0  0
  -12.9248   -7.1197    0.0000 C   0  0  0  0  0  0  0  0  0  0  0  0
  -11.5346   -7.6830    0.0000 C   0  0  0  0  0  0  0  0  0  0  0  0
  -10.3516   -6.7607    0.0000 C   0  0  0  0  0  0  0  0  0  0  0  0
  -10.5589   -5.2751    0.0000 C   0  0  0  0  0  0  0  0  0  0  0  0
  -11.9491   -4.7118    0.0000 C   0  0  0  0  0  0  0  0  0  0  0  0
  -15.9984   -4.3851    0.0000 C   0  0  0  0  0  0  0  0  0  0  0  0
  -15.3965   -5.7590    0.0000 O   0  0  0  0  0  0  0  0  0  0  0  0
  -17.4467   -4.7754    0.0000 N   0  0  0  0  0  0  0  0  0  0  0  0
  -18.9457   -4.7216    0.0000 C   0  0  0  0  0  0  0  0  0  0  0  0
  -19.9780   -5.8099    0.0000 C   0  0  0  0  0  0  0  0  0  0  0  0
  -19.5516   -7.2480    0.0000 C   0  0  0  0  0  0  0  0  0  0  0  0
  -20.5839   -8.3363    0.0000 C   0  0  0  0  0  0  0  0  0  0  0  0
  -20.1576   -9.7744    0.0000 C   0  0  0  0  0  0  0  0  0  0  0  0
  -18.6989  -10.1243    0.0000 C   0  0  0  0  0  0  0  0  0  0  0  0
  -17.6666   -9.0359    0.0000 C   0  0  0  0  0  0  0  0  0  0  0  0
  -18.0930   -7.5978    0.0000 C   0  0  0  0  0  0  0  0  0  0  0  0
  -20.3623   -4.2282    0.0000 C   0  0  0  0  0  0  0  0  0  0  0  0
  -21.0612   -5.5555    0.0000 O   0  0  0  0  0  0  0  0  0  0  0  0
  -21.5705   -3.3393    0.0000 N   0  0  0  0  0  0  0  0  0  0  0  0
  -22.4630   -2.1337    0.0000 C   0  0  0  0  0  0  0  0  0  0  0  0
  -23.9575   -2.0052    0.0000 C   0  0  0  0  0  0  0  0  0  0  0  0
  -24.8160   -3.2352    0.0000 C   0  0  0  0  0  0  0  0  0  0  0  0
  -26.3105   -3.1067    0.0000 C   0  0  0  0  0  0  0  0  0  0  0  0
  -27.1691   -4.3367    0.0000 C   0  0  0  0  0  0  0  0  0  0  0  0
  -28.6636   -4.2082    0.0000 N   0  0  0  0  0  0  0  0  0  0  0  0
  -22.9605   -0.7186    0.0000 C   0  0  0  0  0  0  0  0  0  0  0  0
  -24.4340   -0.9997    0.0000 O   0  0  0  0  0  0  0  0  0  0  0  0
  -23.0188    0.7802    0.0000 N   0  0  0  0  0  0  0  0  0  0  0  0
  -22.6328    2.2297    0.0000 C   0  0  0  0  0  0  0  0  0  0  0  0
  -21.8366    3.5010    0.0000 C   0  0  0  0  0  0  0  0  0  0  0  0
  -20.7011    4.4811    0.0000 C   0  0  0  0  0  0  0  0  0  0  0  0
  -19.3271    5.0830    0.0000 C   0  0  0  0  0  0  0  0  0  0  0  0
  -17.8368    5.2531    0.0000 C   0  0  0  0  0  0  0  0  0  0  0  0
  -24.1127    1.9855    0.0000 C   0  0  0  0  0  0  0  0  0  0  0  0
  -23.4641    3.4783    0.0000 C   0  0  0  0  0  0  0  0  0  0  0  0
  -23.1435    4.9436    0.0000 O   0  0  0  0  0  0  0  0  0  0  0  0
  -24.9610    3.3826    0.0000 N   0  0  0  0  0  0  0  0  0  0  0  0
  -25.7923    4.6312    0.0000 C   0  0  0  0  0  0  0  0  0  0  0  0
  -26.1465    6.0888    0.0000 C   0  0  0  0  0  0  0  0  0  0  0  0
  -25.0612    7.1243    0.0000 C   0  0  0  0  0  0  0  0  0  0  0  0
  -25.4154    8.5819    0.0000 C   0  0  0  0  0  0  0  0  0  0  0  0
  -23.6873    7.7261    0.0000 C   0  0  0  0  0  0  0  0  0  0  0  0
  -27.2893    4.5355    0.0000 C   0  0  0  0  0  0  0  0  0  0  0  0
  -28.2666    5.6734    0.0000 O   0  0  0  0  0  0  0  0  0  0  0  0
  -27.9549    3.1913    0.0000 O   0  0  0  0  0  0  0  0  0  0  0  0
   33.6069    1.3969    0.0000 H   0  0  0  0  0  0  0  0  0  0  0  0
   33.7404   -3.0937    0.0000 H   0  0  0  0  0  0  0  0  0  0  0  0
   36.3218   -4.6221    0.0000 H   0  0  0  0  0  0  0  0  0  0  0  0
   36.0243    1.3369    0.0000 H   0  0  0  0  0  0  0  0  0  0  0  0
   42.9930    2.9955    0.0000 H   0  0  0  0  0  0  0  0  0  0  0  0
   44.0175   -2.0987    0.0000 H   0  0  0  0  0  0  0  0  0  0  0  0
   41.0764   -2.6902    0.0000 H   0  0  0  0  0  0  0  0  0  0  0  0
   45.9672   -0.3816    0.0000 H   0  0  0  0  0  0  0  0  0  0  0  0
   36.1525   -1.0303    0.0000 H   0  0  0  0  0  0  0  0  0  0  0  0
   34.1446    1.4025    0.0000 H   0  0  0  0  0  0  0  0  0  0  0  0
   38.0691    4.6553    0.0000 H   0  0  0  0  0  0  0  0  0  0  0  0
   35.6072    5.4853    0.0000 H   0  0  0  0  0  0  0  0  0  0  0  0
   31.1919    1.4346    0.0000 H   0  0  0  0  0  0  0  0  0  0  0  0
   28.8915   -1.9394    0.0000 H   0  0  0  0  0  0  0  0  0  0  0  0
   30.8197   -1.9606    0.0000 H   0  0  0  0  0  0  0  0  0  0  0  0
   27.7745    1.2301    0.0000 H   0  0  0  0  0  0  0  0  0  0  0  0
   29.5543    1.1016    0.0000 H   0  0  0  0  0  0  0  0  0  0  0  0
   25.1765    1.2587    0.0000 H   0  0  0  0  0  0  0  0  0  0  0  0
   26.8103    1.2407    0.0000 H   0  0  0  0  0  0  0  0  0  0  0  0
   22.4302    1.1799    0.0000 H   0  0  0  0  0  0  0  0  0  0  0  0
   24.2124    1.2693    0.0000 H   0  0  0  0  0  0  0  0  0  0  0  0
   21.2438   -1.9644    0.0000 H   0  0  0  0  0  0  0  0  0  0  0  0
   23.0260   -1.8750    0.0000 H   0  0  0  0  0  0  0  0  0  0  0  0
   18.4998   -1.8253    0.0000 H   0  0  0  0  0  0  0  0  0  0  0  0
   20.2796   -1.9538    0.0000 H   0  0  0  0  0  0  0  0  0  0  0  0
   17.2343    1.2369    0.0000 H   0  0  0  0  0  0  0  0  0  0  0  0
   19.1626    1.2158    0.0000 H   0  0  0  0  0  0  0  0  0  0  0  0
   15.6044    1.6058    0.0000 H   0  0  0  0  0  0  0  0  0  0  0  0
   15.2322   -1.7894    0.0000 H   0  0  0  0  0  0  0  0  0  0  0  0
   12.9506   -3.2260    0.0000 H   0  0  0  0  0  0  0  0  0  0  0  0
   14.5947   -2.5324    0.0000 H   0  0  0  0  0  0  0  0  0  0  0  0
   10.6418   -0.5757    0.0000 H   0  0  0  0  0  0  0  0  0  0  0  0
   11.6371   -0.0039    0.0000 H   0  0  0  0  0  0  0  0  0  0  0  0
   10.3245   -4.0337    0.0000 H   0  0  0  0  0  0  0  0  0  0  0  0
   12.0409   -3.5458    0.0000 H   0  0  0  0  0  0  0  0  0  0  0  0
    8.0045   -1.7520    0.0000 H   0  0  0  0  0  0  0  0  0  0  0  0
    9.7321   -0.8955    0.0000 H   0  0  0  0  0  0  0  0  0  0  0  0
    6.9724   -3.0373    0.0000 H   0  0  0  0  0  0  0  0  0  0  0  0
    8.8995   -4.9067    0.0000 H   0  0  0  0  0  0  0  0  0  0  0  0
   11.3039   -2.0526    0.0000 H   0  0  0  0  0  0  0  0  0  0  0  0
   11.5003    1.1738    0.0000 H   0  0  0  0  0  0  0  0  0  0  0  0
    8.2526    2.2384    0.0000 H   0  0  0  0  0  0  0  0  0  0  0  0
    8.2174    0.4543    0.0000 H   0  0  0  0  0  0  0  0  0  0  0  0
   10.9458    3.8648    0.0000 H   0  0  0  0  0  0  0  0  0  0  0  0
   11.3433    2.1252    0.0000 H   0  0  0  0  0  0  0  0  0  0  0  0
    8.5945    6.4494    0.0000 H   0  0  0  0  0  0  0  0  0  0  0  0
   11.0260    5.5340    0.0000 H   0  0  0  0  0  0  0  0  0  0  0  0
    7.6277    1.6822    0.0000 H   0  0  0  0  0  0  0  0  0  0  0  0
    7.2900   -1.8111    0.0000 H   0  0  0  0  0  0  0  0  0  0  0  0
    4.9817   -3.0864    0.0000 H   0  0  0  0  0  0  0  0  0  0  0  0
    6.8845   -2.2838    0.0000 H   0  0  0  0  0  0  0  0  0  0  0  0
    3.5101   -1.9670    0.0000 H   0  0  0  0  0  0  0  0  0  0  0  0
    3.7066    1.2594    0.0000 H   0  0  0  0  0  0  0  0  0  0  0  0
    0.3561    2.1724    0.0000 H   0  0  0  0  0  0  0  0  0  0  0  0
    0.4236    0.5400    0.0000 H   0  0  0  0  0  0  0  0  0  0  0  0
    3.1520    3.9504    0.0000 H   0  0  0  0  0  0  0  0  0  0  0  0
    3.5496    2.2108    0.0000 H   0  0  0  0  0  0  0  0  0  0  0  0
   -0.0669    4.7358    0.0000 H   0  0  0  0  0  0  0  0  0  0  0  0
    0.1156    2.9607    0.0000 H   0  0  0  0  0  0  0  0  0  0  0  0
    3.2323    5.6196    0.0000 H   0  0  0  0  0  0  0  0  0  0  0  0
    0.3778    9.0984    0.0000 H   0  0  0  0  0  0  0  0  0  0  0  0
   -1.6307    7.4504    0.0000 H   0  0  0  0  0  0  0  0  0  0  0  0
   -1.2077    4.8869    0.0000 H   0  0  0  0  0  0  0  0  0  0  0  0
   -0.1661    1.7679    0.0000 H   0  0  0  0  0  0  0  0  0  0  0  0
   -0.3553   -1.6181    0.0000 H   0  0  0  0  0  0  0  0  0  0  0  0
   -2.6370   -3.0547    0.0000 H   0  0  0  0  0  0  0  0  0  0  0  0
   -0.9928   -2.3612    0.0000 H   0  0  0  0  0  0  0  0  0  0  0  0
   -4.9457   -0.4044    0.0000 H   0  0  0  0  0  0  0  0  0  0  0  0
   -3.9504    0.1673    0.0000 H   0  0  0  0  0  0  0  0  0  0  0  0
   -5.2630   -3.8625    0.0000 H   0  0  0  0  0  0  0  0  0  0  0  0
   -3.5466   -3.3745    0.0000 H   0  0  0  0  0  0  0  0  0  0  0  0
   -7.5831   -1.5808    0.0000 H   0  0  0  0  0  0  0  0  0  0  0  0
   -5.8554   -0.7242    0.0000 H   0  0  0  0  0  0  0  0  0  0  0  0
   -8.6151   -2.8661    0.0000 H   0  0  0  0  0  0  0  0  0  0  0  0
   -6.6880   -4.7355    0.0000 H   0  0  0  0  0  0  0  0  0  0  0  0
   -4.2836   -1.8814    0.0000 H   0  0  0  0  0  0  0  0  0  0  0  0
   -4.0872    1.3451    0.0000 H   0  0  0  0  0  0  0  0  0  0  0  0
   -7.4377    2.2580    0.0000 H   0  0  0  0  0  0  0  0  0  0  0  0
   -7.3701    0.6256    0.0000 H   0  0  0  0  0  0  0  0  0  0  0  0
   -4.5102    3.9085    0.0000 H   0  0  0  0  0  0  0  0  0  0  0  0
   -4.2442    2.2964    0.0000 H   0  0  0  0  0  0  0  0  0  0  0  0
   -7.8607    4.8214    0.0000 H   0  0  0  0  0  0  0  0  0  0  0  0
   -7.6782    3.0464    0.0000 H   0  0  0  0  0  0  0  0  0  0  0  0
   -5.0647    6.5994    0.0000 H   0  0  0  0  0  0  0  0  0  0  0  0
   -4.6672    4.8598    0.0000 H   0  0  0  0  0  0  0  0  0  0  0  0
   -6.4645    8.0244    0.0000 H   0  0  0  0  0  0  0  0  0  0  0  0
   -8.4730    6.3764    0.0000 H   0  0  0  0  0  0  0  0  0  0  0  0
   -7.9598    1.8535    0.0000 H   0  0  0  0  0  0  0  0  0  0  0  0
   -8.2975   -1.6399    0.0000 H   0  0  0  0  0  0  0  0  0  0  0  0
  -10.6058   -2.9152    0.0000 H   0  0  0  0  0  0  0  0  0  0  0  0
   -8.7030   -2.1125    0.0000 H   0  0  0  0  0  0  0  0  0  0  0  0
  -12.4703   -2.4942    0.0000 H   0  0  0  0  0  0  0  0  0  0  0  0
  -11.7150   -1.8443    0.0000 H   0  0  0  0  0  0  0  0  0  0  0  0
  -11.7798    1.7238    0.0000 H   0  0  0  0  0  0  0  0  0  0  0  0
  -12.3515    3.0789    0.0000 H   0  0  0  0  0  0  0  0  0  0  0  0
  -12.5438    3.6734    0.0000 H   0  0  0  0  0  0  0  0  0  0  0  0
  -13.2775    4.5473    0.0000 H   0  0  0  0  0  0  0  0  0  0  0  0
  -13.7085    4.9771    0.0000 H   0  0  0  0  0  0  0  0  0  0  0  0
  -14.9441    5.7747    0.0000 H   0  0  0  0  0  0  0  0  0  0  0  0
  -15.8692    6.3930    0.0000 H   0  0  0  0  0  0  0  0  0  0  0  0
  -11.4886    2.7825    0.0000 H   0  0  0  0  0  0  0  0  0  0  0  0
  -10.3901    1.8332    0.0000 H   0  0  0  0  0  0  0  0  0  0  0  0
  -10.8509    0.0899    0.0000 H   0  0  0  0  0  0  0  0  0  0  0  0
  -12.4815   -3.2429    0.0000 H   0  0  0  0  0  0  0  0  0  0  0  0
  -13.2901   -4.0072    0.0000 H   0  0  0  0  0  0  0  0  0  0  0  0
  -14.8356   -6.5376    0.0000 H   0  0  0  0  0  0  0  0  0  0  0  0
  -15.9897   -5.3812    0.0000 H   0  0  0  0  0  0  0  0  0  0  0  0
  -14.1077   -8.0420    0.0000 H   0  0  0  0  0  0  0  0  0  0  0  0
  -11.3273   -9.1686    0.0000 H   0  0  0  0  0  0  0  0  0  0  0  0
   -8.9614   -7.3240    0.0000 H   0  0  0  0  0  0  0  0  0  0  0  0
   -9.3759   -4.3528    0.0000 H   0  0  0  0  0  0  0  0  0  0  0  0
  -11.9737   -3.2120    0.0000 H   0  0  0  0  0  0  0  0  0  0  0  0
  -17.0961   -6.2339    0.0000 H   0  0  0  0  0  0  0  0  0  0  0  0
  -18.3783   -6.1101    0.0000 H   0  0  0  0  0  0  0  0  0  0  0  0
  -21.3202   -6.4795    0.0000 H   0  0  0  0  0  0  0  0  0  0  0  0
  -21.1357   -4.8561    0.0000 H   0  0  0  0  0  0  0  0  0  0  0  0
  -22.0426   -7.9865    0.0000 H   0  0  0  0  0  0  0  0  0  0  0  0
  -21.1898  -10.8627    0.0000 H   0  0  0  0  0  0  0  0  0  0  0  0
  -18.2726  -11.5624    0.0000 H   0  0  0  0  0  0  0  0  0  0  0  0
  -16.2080   -9.3858    0.0000 H   0  0  0  0  0  0  0  0  0  0  0  0
  -16.9358   -6.6435    0.0000 H   0  0  0  0  0  0  0  0  0  0  0  0
  -22.6296   -4.4015    0.0000 H   0  0  0  0  0  0  0  0  0  0  0  0
  -23.0298   -3.5225    0.0000 H   0  0  0  0  0  0  0  0  0  0  0  0
  -25.2307   -1.2122    0.0000 H   0  0  0  0  0  0  0  0  0  0  0  0
  -23.9336   -0.5054    0.0000 H   0  0  0  0  0  0  0  0  0  0  0  0
  -25.0226   -4.7209    0.0000 H   0  0  0  0  0  0  0  0  0  0  0  0
  -23.5428   -4.0282    0.0000 H   0  0  0  0  0  0  0  0  0  0  0  0
  -27.6709   -2.4748    0.0000 H   0  0  0  0  0  0  0  0  0  0  0  0
  -26.1040   -1.6210    0.0000 H   0  0  0  0  0  0  0  0  0  0  0  0
  -27.5552   -5.7861    0.0000 H   0  0  0  0  0  0  0  0  0  0  0  0
  -25.8958   -5.1297    0.0000 H   0  0  0  0  0  0  0  0  0  0  0  0
  -29.5221   -5.4382    0.0000 H   0  0  0  0  0  0  0  0  0  0  0  0
  -29.2995   -2.8496    0.0000 H   0  0  0  0  0  0  0  0  0  0  0  0
  -24.5097    0.9460    0.0000 H   0  0  0  0  0  0  0  0  0  0  0  0
  -22.2630    4.9391    0.0000 H   0  0  0  0  0  0  0  0  0  0  0  0
  -23.2296    4.0574    0.0000 H   0  0  0  0  0  0  0  0  0  0  0  0
  -20.8676    5.9718    0.0000 H   0  0  0  0  0  0  0  0  0  0  0  0
  -21.8682    5.4234    0.0000 H   0  0  0  0  0  0  0  0  0  0  0  0
  -18.8693    6.5114    0.0000 H   0  0  0  0  0  0  0  0  0  0  0  0
  -20.3100    6.2160    0.0000 H   0  0  0  0  0  0  0  0  0  0  0  0
  -17.7829    6.7521    0.0000 H   0  0  0  0  0  0  0  0  0  0  0  0
  -25.3166    2.8804    0.0000 H   0  0  0  0  0  0  0  0  0  0  0  0
  -25.3205    1.0959    0.0000 H   0  0  0  0  0  0  0  0  0  0  0  0
  -23.9724    0.4920    0.0000 H   0  0  0  0  0  0  0  0  0  0  0  0
  -25.7855    2.1295    0.0000 H   0  0  0  0  0  0  0  0  0  0  0  0
  -24.3553    5.0611    0.0000 H   0  0  0  0  0  0  0  0  0  0  0  0
  -27.1238    7.2267    0.0000 H   0  0  0  0  0  0  0  0  0  0  0  0
  -27.5836    5.6589    0.0000 H   0  0  0  0  0  0  0  0  0  0  0  0
  -24.0839    5.9863    0.0000 H   0  0  0  0  0  0  0  0  0  0  0  0
  -24.4645    9.7419    0.0000 H   0  0  0  0  0  0  0  0  0  0  0  0
  -26.2467    9.8304    0.0000 H   0  0  0  0  0  0  0  0  0  0  0  0
  -26.8525    8.1519    0.0000 H   0  0  0  0  0  0  0  0  0  0  0  0
  -23.3411    9.1856    0.0000 H   0  0  0  0  0  0  0  0  0  0  0  0
  -22.1903    7.8218    0.0000 H   0  0  0  0  0  0  0  0  0  0  0  0
  -23.3331    6.2685    0.0000 H   0  0  0  0  0  0  0  0  0  0  0  0
  -29.4519    3.0956    0.0000 H   0  0  0  0  0  0  0  0  0  0  0  0
  1  2  1  0
  2  3  1  0
  3  4  2  0
  4  5  1  0
  5  6  2  0
  6  7  1  0
  7  8  2  0
  7  9  1  0
  9 10  1  0
 10 11  1  0
 11 12  2  0
  9 13  1  0
 13 14  1  0
 14 15  2  0
 15 16  1  0
 16 17  2  0
 17 18  1  0
 16 19  1  0
 14 20  1  0
 20 21  1  0
 21 22  2  0
 22 23  1  0
 23 24  2  0
 24 25  1  0
 25 26  2  0
 25 27  1  0
  1 28  2  0
  1 29  1  0
 29 30  1  0
 30 31  1  0
 31 32  1  0
 32 33  1  0
 33 34  1  0
 34 35  1  0
 35 36  1  0
 36 37  1  0
 37 38  1  0
 38 39  1  0
 39 40  1  0
 40 41  2  0
 40 42  1  0
 42 43  1  0
 43 44  1  0
 44 45  1  0
 45 46  1  0
 46 47  1  0
 47 48  1  0
 43 49  1  0
 49 50  2  0
 49 51  1  0
 51 52  1  0
 52 53  1  0
 53 54  1  0
 54 55  1  0
 55 56  1  0
 55 57  2  0
 52 58  1  0
 58 59  2  0
 58 60  1  0
 60 61  1  0
 61 62  1  0
 62 63  1  0
 63 64  2  0
 64 65  1  0
 64 66  1  0
 66 67  1  0
 66 68  2  0
 68 69  1  0
 68 70  1  0
 70 71  1  0
 70 72  2  0
 72 73  1  0
 61 74  1  0
 74 75  2  0
 74 76  1  0
 76 77  1  0
 77 78  1  0
 78 79  1  0
 79 80  1  0
 80 81  1  0
 81 82  1  0
 82 83  2  3
 82 84  1  0
 77 85  1  0
 85 86  2  0
 85 87  1  0
 87 88  1  0
 88 89  1  0
 89 90  1  0
 90 91  1  0
 91 92  1  0
 92 93  1  0
 88 94  1  0
 94 95  2  0
 94 96  1  0
 96 97  1  0
 97 98  1  0
 98 99  1  0
 99100  1  0
100101  1  0
101102  1  0
 97103  1  0
103104  2  0
103105  1  0
105106  1  0
106107  1  0
107108  1  0
106109  1  0
109110  2  0
109111  1  0
112111  1  6
112113  1  0
113114  1  0
114115  1  0
115116  1  0
112117  1  0
112118  1  0
118119  2  0
118120  1  0
120121  1  0
121122  1  0
122123  1  0
123124  2  0
124125  1  0
125126  2  0
126127  1  0
127128  2  0
121129  1  0
129130  2  0
129131  1  0
131132  1  0
132133  1  0
133134  1  0
134135  2  0
135136  1  0
136137  2  0
137138  1  0
138139  2  0
132140  1  0
140141  2  0
140142  1  0
142143  1  0
143144  1  0
144145  1  0
145146  1  0
146147  1  0
147148  1  0
143149  1  0
149150  2  0
149151  1  0
151152  1  0
152153  1  0
153154  1  0
154155  1  0
155156  1  0
152157  1  0
152158  1  6
158159  2  0
158160  1  0
160161  1  0
161162  1  0
162163  1  0
163164  1  0
163165  1  0
161166  1  0
166167  2  0
166168  1  0
  8  3  1  0
 72 63  1  0
128123  1  0
139134  1  0
 11  6  1  0
116156  2  0
 18 13  2  0
 22  9  1  0
 26 21  1  0
  2169  1  0
  4170  1  0
  5171  1  0
  8172  1  0
 15173  1  0
 17174  1  0
 18175  1  0
 19176  1  0
 23177  1  0
 24178  1  0
 26179  1  0
 27180  1  0
 29181  1  0
 30182  1  0
 30183  1  0
 31184  1  0
 31185  1  0
 33186  1  0
 33187  1  0
 35188  1  0
 35189  1  0
 36190  1  0
 36191  1  0
 38192  1  0
 38193  1  0
 39194  1  0
 39195  1  0
 42196  1  0
 43197  1  1
 44198  1  0
 44199  1  0
 45200  1  0
 45201  1  0
 46202  1  0
 46203  1  0
 47204  1  0
 47205  1  0
 48206  1  0
 48207  1  0
 51208  1  0
 52209  1  6
 53210  1  0
 53211  1  0
 54212  1  0
 54213  1  0
 56214  1  0
 56215  1  0
 60216  1  0
 61217  1  6
 62218  1  0
 62219  1  0
 76220  1  0
 77221  1  6
 78222  1  0
 78223  1  0
 79224  1  0
 79225  1  0
 80226  1  0
 80227  1  0
 81228  1  0
 83229  1  0
 84230  1  0
 84231  1  0
 87232  1  0
 88233  1  1
 89234  1  0
 89235  1  0
 90236  1  0
 90237  1  0
 91238  1  0
 91239  1  0
 92240  1  0
 92241  1  0
 93242  1  0
 93243  1  0
 96244  1  0
 97245  1  6
 98246  1  0
 98247  1  0
 99248  1  0
 99249  1  0
100250  1  0
100251  1  0
101252  1  0
101253  1  0
102254  1  0
102255  1  0
105256  1  0
106257  1  1
107258  1  0
107259  1  0
108260  1  0
111261  1  0
113262  1  0
113263  1  0
114264  1  0
114265  1  0
115266  1  0
115267  1  0
116268  1  0
117269  1  0
117270  1  0
117271  1  0
120272  1  0
121273  1  1
122274  1  0
122275  1  0
124276  1  0
125277  1  0
126278  1  0
127279  1  0
128280  1  0
131281  1  0
132282  1  1
133283  1  0
133284  1  0
135285  1  0
136286  1  0
137287  1  0
138288  1  0
139289  1  0
142290  1  0
143291  1  1
144292  1  0
144293  1  0
145294  1  0
145295  1  0
146296  1  0
146297  1  0
147298  1  0
147299  1  0
148300  1  0
148301  1  0
151302  1  0
153303  1  0
153304  1  0
154305  1  0
154306  1  0
155307  1  0
155308  1  0
156309  1  0
157310  1  0
157311  1  0
157312  1  0
160313  1  0
161314  1  6
162315  1  0
162316  1  0
163317  1  0
164318  1  0
164319  1  0
164320  1  0
165321  1  0
165322  1  0
165323  1  0
168324  1  0
M  END
