
     RDKit          2D

353362  0  0  0  0  0  0  0  0999 V2000
   22.1164   -3.1323    0.0000 C   0  0  0  0  0  0  0  0  0  0  0  0
   23.6037   -2.9374    0.0000 N   0  0  0  0  0  0  0  0  0  0  0  0
   24.5161   -4.1280    0.0000 C   0  0  0  0  0  0  0  0  0  0  0  0
   23.9413   -5.5134    0.0000 C   0  0  0  0  0  0  0  0  0  0  0  0
   24.8537   -6.7040    0.0000 C   0  0  0  0  0  0  0  0  0  0  0  0
   26.3410   -6.5091    0.0000 C   0  0  0  0  0  0  0  0  0  0  0  0
   26.9159   -5.1236    0.0000 C   0  0  0  0  0  0  0  0  0  0  0  0
   26.0034   -3.9330    0.0000 C   0  0  0  0  0  0  0  0  0  0  0  0
   28.4112   -5.2422    0.0000 C   0  0  0  0  0  0  0  0  0  0  0  0
   28.7605   -6.7009    0.0000 O   0  0  0  0  0  0  0  0  0  0  0  0
   27.4810   -7.4839    0.0000 C   0  0  0  0  0  0  0  0  0  0  0  0
   27.3625   -8.9792    0.0000 O   0  0  0  0  0  0  0  0  0  0  0  0
   29.8859   -5.5164    0.0000 C   0  0  0  0  0  0  0  0  0  0  0  0
   30.8607   -4.3764    0.0000 C   0  0  0  0  0  0  0  0  0  0  0  0
   32.3354   -4.6506    0.0000 C   0  0  0  0  0  0  0  0  0  0  0  0
   32.8353   -6.0648    0.0000 C   0  0  0  0  0  0  0  0  0  0  0  0
   31.8605   -7.2049    0.0000 C   0  0  0  0  0  0  0  0  0  0  0  0
   30.3858   -6.9307    0.0000 C   0  0  0  0  0  0  0  0  0  0  0  0
   34.3100   -6.3391    0.0000 O   0  0  0  0  0  0  0  0  0  0  0  0
   30.3609   -2.9621    0.0000 O   0  0  0  0  0  0  0  0  0  0  0  0
   28.8861   -2.6879    0.0000 C   0  0  0  0  0  0  0  0  0  0  0  0
   27.9113   -3.8279    0.0000 C   0  0  0  0  0  0  0  0  0  0  0  0
   26.8915   -3.0217    0.0000 C   0  0  0  0  0  0  0  0  0  0  0  0
   26.6249   -2.2674    0.0000 C   0  0  0  0  0  0  0  0  0  0  0  0
   27.1448   -1.6594    0.0000 C   0  0  0  0  0  0  0  0  0  0  0  0
   27.9313   -1.8056    0.0000 C   0  0  0  0  0  0  0  0  0  0  0  0
   26.4117    0.4149    0.0000 O   0  0  0  0  0  0  0  0  0  0  0  0
   21.5416   -4.5178    0.0000 S   0  0  0  0  0  0  0  0  0  0  0  0
   21.2040   -1.9417    0.0000 N   0  0  0  0  0  0  0  0  0  0  0  0
   19.7167   -2.1366    0.0000 C   0  0  0  0  0  0  0  0  0  0  0  0
   18.8042   -0.9461    0.0000 C   0  0  0  0  0  0  0  0  0  0  0  0
   17.3170   -1.1410    0.0000 C   0  0  0  0  0  0  0  0  0  0  0  0
   17.1987   -1.9293    0.0000 O   0  0  0  0  0  0  0  0  0  0  0  0
   16.4045    0.0496    0.0000 N   0  0  0  0  0  0  0  0  0  0  0  0
   14.9172   -0.1453    0.0000 C   0  0  0  0  0  0  0  0  0  0  0  0
   15.3675   -1.5762    0.0000 C   0  0  0  0  0  0  0  0  0  0  0  0
   16.8317   -1.9017    0.0000 C   0  0  0  0  0  0  0  0  0  0  0  0
   17.2819   -3.3325    0.0000 C   0  0  0  0  0  0  0  0  0  0  0  0
   18.3190   -1.7068    0.0000 C   0  0  0  0  0  0  0  0  0  0  0  0
   13.4530    0.1802    0.0000 C   0  0  0  0  0  0  0  0  0  0  0  0
   12.5813   -1.0405    0.0000 O   0  0  0  0  0  0  0  0  0  0  0  0
   13.0028    1.6110    0.0000 N   0  0  0  0  0  0  0  0  0  0  0  0
   11.5385    1.9366    0.0000 C   0  0  0  0  0  0  0  0  0  0  0  0
   11.4722    0.4380    0.0000 C   0  0  0  0  0  0  0  0  0  0  0  0
   12.6291   -0.5168    0.0000 O   0  0  0  0  0  0  0  0  0  0  0  0
   10.2739    2.7433    0.0000 C   0  0  0  0  0  0  0  0  0  0  0  0
    9.2794    1.6203    0.0000 O   0  0  0  0  0  0  0  0  0  0  0  0
   10.3402    4.2418    0.0000 N   0  0  0  0  0  0  0  0  0  0  0  0
    9.0756    5.0485    0.0000 C   0  0  0  0  0  0  0  0  0  0  0  0
    8.8604    3.5640    0.0000 C   0  0  0  0  0  0  0  0  0  0  0  0
    8.2172    2.2089    0.0000 C   0  0  0  0  0  0  0  0  0  0  0  0
    7.2032    1.1036    0.0000 C   0  0  0  0  0  0  0  0  0  0  0  0
    5.9084    0.3463    0.0000 C   0  0  0  0  0  0  0  0  0  0  0  0
   10.3310    5.8694    0.0000 C   0  0  0  0  0  0  0  0  0  0  0  0
    8.8437    6.5305    0.0000 C   0  0  0  0  0  0  0  0  0  0  0  0
   10.2745    6.9807    0.0000 O   0  0  0  0  0  0  0  0  0  0  0  0
    8.1852    7.8782    0.0000 N   0  0  0  0  0  0  0  0  0  0  0  0
    7.1588    8.9720    0.0000 C   0  0  0  0  0  0  0  0  0  0  0  0
    7.2997   10.4654    0.0000 C   0  0  0  0  0  0  0  0  0  0  0  0
    8.6635   11.0900    0.0000 C   0  0  0  0  0  0  0  0  0  0  0  0
    8.8044   12.5834    0.0000 C   0  0  0  0  0  0  0  0  0  0  0  0
   10.1682   13.2080    0.0000 O   0  0  0  0  0  0  0  0  0  0  0  0
    7.5816   13.4521    0.0000 O   0  0  0  0  0  0  0  0  0  0  0  0
    5.8555    9.7147    0.0000 C   0  0  0  0  0  0  0  0  0  0  0  0
    6.3957   11.1141    0.0000 O   0  0  0  0  0  0  0  0  0  0  0  0
    4.3913   10.0402    0.0000 N   0  0  0  0  0  0  0  0  0  0  0  0
    2.8961    9.9197    0.0000 C   0  0  0  0  0  0  0  0  0  0  0  0
    1.8165   10.9609    0.0000 C   0  0  0  0  0  0  0  0  0  0  0  0
    0.4457   11.5701    0.0000 O   0  0  0  0  0  0  0  0  0  0  0  0
    2.1784   12.4166    0.0000 C   0  0  0  0  0  0  0  0  0  0  0  0
    1.5029    9.3638    0.0000 C   0  0  0  0  0  0  0  0  0  0  0  0
    0.7456   10.6586    0.0000 O   0  0  0  0  0  0  0  0  0  0  0  0
    0.3355    8.4219    0.0000 N   0  0  0  0  0  0  0  0  0  0  0  0
   -0.5025    7.1778    0.0000 C   0  0  0  0  0  0  0  0  0  0  0  0
   -1.9898    6.9829    0.0000 C   0  0  0  0  0  0  0  0  0  0  0  0
   -2.9022    8.1735    0.0000 C   0  0  0  0  0  0  0  0  0  0  0  0
   -2.3274    9.5590    0.0000 C   0  0  0  0  0  0  0  0  0  0  0  0
   -3.2398   10.7495    0.0000 C   0  0  0  0  0  0  0  0  0  0  0  0
   -4.7271   10.5546    0.0000 C   0  0  0  0  0  0  0  0  0  0  0  0
   -5.3019    9.1691    0.0000 C   0  0  0  0  0  0  0  0  0  0  0  0
   -4.3895    7.9786    0.0000 C   0  0  0  0  0  0  0  0  0  0  0  0
   -0.9365    5.7420    0.0000 C   0  0  0  0  0  0  0  0  0  0  0  0
   -2.2452    6.4750    0.0000 O   0  0  0  0  0  0  0  0  0  0  0  0
   -0.9280    4.2420    0.0000 N   0  0  0  0  0  0  0  0  0  0  0  0
   -0.4778    2.8112    0.0000 C   0  0  0  0  0  0  0  0  0  0  0  0
    0.3741    1.5766    0.0000 C   0  0  0  0  0  0  0  0  0  0  0  0
    1.5521    0.6480    0.0000 C   0  0  0  0  0  0  0  0  0  0  0  0
    2.9515    0.1079    0.0000 C   0  0  0  0  0  0  0  0  0  0  0  0
    4.4479    0.0042    0.0000 C   0  0  0  0  0  0  0  0  0  0  0  0
    0.0495    1.4069    0.0000 C   0  0  0  0  0  0  0  0  0  0  0  0
    0.3016   -0.0717    0.0000 C   0  0  0  0  0  0  0  0  0  0  0  0
    0.2692   -1.5714    0.0000 C   0  0  0  0  0  0  0  0  0  0  0  0
   -0.0463   -3.0378    0.0000 C   0  0  0  0  0  0  0  0  0  0  0  0
   -1.2614    4.0903    0.0000 C   0  0  0  0  0  0  0  0  0  0  0  0
   -0.0626    4.9919    0.0000 O   0  0  0  0  0  0  0  0  0  0  0  0
   -2.2729    5.1979    0.0000 N   0  0  0  0  0  0  0  0  0  0  0  0
   -3.4757    6.0941    0.0000 C   0  0  0  0  0  0  0  0  0  0  0  0
   -3.4910    7.5941    0.0000 C   0  0  0  0  0  0  0  0  0  0  0  0
   -4.7976    8.3308    0.0000 C   0  0  0  0  0  0  0  0  0  0  0  0
   -5.1753    9.7825    0.0000 O   0  0  0  0  0  0  0  0  0  0  0  0
   -6.2352    7.9028    0.0000 O   0  0  0  0  0  0  0  0  0  0  0  0
   -4.8264    6.7465    0.0000 C   0  0  0  0  0  0  0  0  0  0  0  0
   -5.0269    8.2331    0.0000 O   0  0  0  0  0  0  0  0  0  0  0  0
   -6.2762    7.1315    0.0000 N   0  0  0  0  0  0  0  0  0  0  0  0
   -7.7726    7.2351    0.0000 C   0  0  0  0  0  0  0  0  0  0  0  0
   -8.5963    8.4887    0.0000 C   0  0  0  0  0  0  0  0  0  0  0  0
   -7.9226    9.8289    0.0000 C   0  0  0  0  0  0  0  0  0  0  0  0
   -8.7464   11.0825    0.0000 C   0  0  0  0  0  0  0  0  0  0  0  0
   -6.8311   10.8578    0.0000 C   0  0  0  0  0  0  0  0  0  0  0  0
   -9.2616    7.0537    0.0000 C   0  0  0  0  0  0  0  0  0  0  0  0
   -9.7599    8.4685    0.0000 O   0  0  0  0  0  0  0  0  0  0  0  0
  -10.6893    6.5938    0.0000 N   0  0  0  0  0  0  0  0  0  0  0  0
  -12.0042    5.8720    0.0000 C   0  0  0  0  0  0  0  0  0  0  0  0
  -13.3749    6.4812    0.0000 C   0  0  0  0  0  0  0  0  0  0  0  0
  -13.5327    7.9729    0.0000 C   0  0  0  0  0  0  0  0  0  0  0  0
  -12.4186    8.9773    0.0000 C   0  0  0  0  0  0  0  0  0  0  0  0
  -13.0297   10.3472    0.0000 N   0  0  0  0  0  0  0  0  0  0  0  0
  -14.5213   10.1894    0.0000 C   0  0  0  0  0  0  0  0  0  0  0  0
  -15.6367   11.1924    0.0000 C   0  0  0  0  0  0  0  0  0  0  0  0
  -17.0630   10.7279    0.0000 C   0  0  0  0  0  0  0  0  0  0  0  0
  -17.3739    9.2605    0.0000 C   0  0  0  0  0  0  0  0  0  0  0  0
  -16.2585    8.2575    0.0000 C   0  0  0  0  0  0  0  0  0  0  0  0
  -14.8322    8.7220    0.0000 C   0  0  0  0  0  0  0  0  0  0  0  0
  -13.1587    4.9143    0.0000 C   0  0  0  0  0  0  0  0  0  0  0  0
  -14.3429    5.8352    0.0000 O   0  0  0  0  0  0  0  0  0  0  0  0
  -14.1112    3.7555    0.0000 N   0  0  0  0  0  0  0  0  0  0  0  0
  -14.8271    2.4374    0.0000 C   0  0  0  0  0  0  0  0  0  0  0  0
  -16.3096    2.2088    0.0000 C   0  0  0  0  0  0  0  0  0  0  0  0
  -17.2488    3.3784    0.0000 C   0  0  0  0  0  0  0  0  0  0  0  0
  -18.7313    3.1498    0.0000 C   0  0  0  0  0  0  0  0  0  0  0  0
  -19.6705    4.3194    0.0000 C   0  0  0  0  0  0  0  0  0  0  0  0
  -21.1529    4.0909    0.0000 N   0  0  0  0  0  0  0  0  0  0  0  0
  -15.2806    1.0076    0.0000 C   0  0  0  0  0  0  0  0  0  0  0  0
  -16.7746    1.1421    0.0000 O   0  0  0  0  0  0  0  0  0  0  0  0
  -15.4554   -0.4822    0.0000 N   0  0  0  0  0  0  0  0  0  0  0  0
  -15.3450   -1.9781    0.0000 C   0  0  0  0  0  0  0  0  0  0  0  0
  -16.4686   -2.9719    0.0000 C   0  0  0  0  0  0  0  0  0  0  0  0
  -17.8910   -2.4957    0.0000 C   0  0  0  0  0  0  0  0  0  0  0  0
  -19.0146   -3.4895    0.0000 C   0  0  0  0  0  0  0  0  0  0  0  0
  -19.0648   -1.5618    0.0000 C   0  0  0  0  0  0  0  0  0  0  0  0
  -14.9535   -3.4261    0.0000 C   0  0  0  0  0  0  0  0  0  0  0  0
  -16.2830   -4.1207    0.0000 O   0  0  0  0  0  0  0  0  0  0  0  0
  -14.2951   -4.7739    0.0000 N   0  0  0  0  0  0  0  0  0  0  0  0
  -13.3935   -5.9727    0.0000 C   0  0  0  0  0  0  0  0  0  0  0  0
  -13.8014   -7.4162    0.0000 C   0  0  0  0  0  0  0  0  0  0  0  0
  -15.2554   -7.7846    0.0000 C   0  0  0  0  0  0  0  0  0  0  0  0
  -15.6634   -9.2281    0.0000 C   0  0  0  0  0  0  0  0  0  0  0  0
  -16.7478   -7.6335    0.0000 C   0  0  0  0  0  0  0  0  0  0  0  0
  -12.2813   -6.9792    0.0000 C   0  0  0  0  0  0  0  0  0  0  0  0
  -13.0242   -8.2823    0.0000 O   0  0  0  0  0  0  0  0  0  0  0  0
  -10.9987   -7.7570    0.0000 N   0  0  0  0  0  0  0  0  0  0  0  0
   -9.5921   -8.2781    0.0000 C   0  0  0  0  0  0  0  0  0  0  0  0
   -8.1123   -8.5235    0.0000 C   0  0  0  0  0  0  0  0  0  0  0  0
   -6.6128   -8.4844    0.0000 C   0  0  0  0  0  0  0  0  0  0  0  0
   -5.1478   -8.1623    0.0000 C   0  0  0  0  0  0  0  0  0  0  0  0
   -3.7703   -7.5687    0.0000 C   0  0  0  0  0  0  0  0  0  0  0  0
   -2.5299   -6.7252    0.0000 C   0  0  0  0  0  0  0  0  0  0  0  0
   -1.4717   -5.6621    0.0000 C   0  0  0  0  0  0  0  0  0  0  0  0
   -0.6337   -4.4180    0.0000 C   0  0  0  0  0  0  0  0  0  0  0  0
  -10.6836   -9.3070    0.0000 C   0  0  0  0  0  0  0  0  0  0  0  0
   -9.1549   -9.7129    0.0000 C   0  0  0  0  0  0  0  0  0  0  0  0
   -7.8191  -10.3952    0.0000 O   0  0  0  0  0  0  0  0  0  0  0  0
  -10.1789  -10.8090    0.0000 N   0  0  0  0  0  0  0  0  0  0  0  0
   -9.7417  -12.2439    0.0000 C   0  0  0  0  0  0  0  0  0  0  0  0
   -8.8401  -13.4427    0.0000 C   0  0  0  0  0  0  0  0  0  0  0  0
   -9.4275  -14.8229    0.0000 C   0  0  0  0  0  0  0  0  0  0  0  0
   -8.5259  -16.0217    0.0000 C   0  0  0  0  0  0  0  0  0  0  0  0
   -8.9406  -17.4632    0.0000 O   0  0  0  0  0  0  0  0  0  0  0  0
   -7.0369  -15.8402    0.0000 O   0  0  0  0  0  0  0  0  0  0  0  0
  -10.7657  -13.3399    0.0000 C   0  0  0  0  0  0  0  0  0  0  0  0
  -12.2269  -13.0012    0.0000 O   0  0  0  0  0  0  0  0  0  0  0  0
  -10.3285  -14.7748    0.0000 N   0  0  0  0  0  0  0  0  0  0  0  0
  -11.3525  -15.8709    0.0000 C   0  0  0  0  0  0  0  0  0  0  0  0
  -12.6896  -16.5506    0.0000 C   0  0  0  0  0  0  0  0  0  0  0  0
  -13.9469  -15.7325    0.0000 C   0  0  0  0  0  0  0  0  0  0  0  0
  -15.2840  -16.4122    0.0000 N   0  0  0  0  0  0  0  0  0  0  0  0
  -13.8670  -14.2346    0.0000 O   0  0  0  0  0  0  0  0  0  0  0  0
  -10.9153  -17.3057    0.0000 C   0  0  0  0  0  0  0  0  0  0  0  0
  -11.7981  -18.5185    0.0000 O   0  0  0  0  0  0  0  0  0  0  0  0
   -9.5062  -17.8201    0.0000 O   0  0  0  0  0  0  0  0  0  0  0  0
   24.0054   -1.4922    0.0000 H   0  0  0  0  0  0  0  0  0  0  0  0
   22.4540   -5.7083    0.0000 H   0  0  0  0  0  0  0  0  0  0  0  0
   24.2789   -8.0895    0.0000 H   0  0  0  0  0  0  0  0  0  0  0  0
   26.2259   -2.4496    0.0000 H   0  0  0  0  0  0  0  0  0  0  0  0
   33.3103   -3.5106    0.0000 H   0  0  0  0  0  0  0  0  0  0  0  0
   32.3604   -8.6191    0.0000 H   0  0  0  0  0  0  0  0  0  0  0  0
   29.4109   -8.0707    0.0000 H   0  0  0  0  0  0  0  0  0  0  0  0
   34.8099   -7.7533    0.0000 H   0  0  0  0  0  0  0  0  0  0  0  0
   25.4617   -4.6937    0.0000 H   0  0  0  0  0  0  0  0  0  0  0  0
   24.5064   -1.6875    0.0000 H   0  0  0  0  0  0  0  0  0  0  0  0
   29.3611   -0.1336    0.0000 H   0  0  0  0  0  0  0  0  0  0  0  0
   27.3865    1.5549    0.0000 H   0  0  0  0  0  0  0  0  0  0  0  0
   21.7788   -0.5562    0.0000 H   0  0  0  0  0  0  0  0  0  0  0  0
   20.1669   -3.5675    0.0000 H   0  0  0  0  0  0  0  0  0  0  0  0
   18.5927   -3.1300    0.0000 H   0  0  0  0  0  0  0  0  0  0  0  0
   20.0409   -0.0972    0.0000 H   0  0  0  0  0  0  0  0  0  0  0  0
   18.5318    0.5290    0.0000 H   0  0  0  0  0  0  0  0  0  0  0  0
   16.9794    1.4351    0.0000 H   0  0  0  0  0  0  0  0  0  0  0  0
   14.9836    1.3532    0.0000 H   0  0  0  0  0  0  0  0  0  0  0  0
   15.1190   -3.0554    0.0000 H   0  0  0  0  0  0  0  0  0  0  0  0
   13.8802   -1.7711    0.0000 H   0  0  0  0  0  0  0  0  0  0  0  0
   17.2587   -0.4637    0.0000 H   0  0  0  0  0  0  0  0  0  0  0  0
   18.6239   -4.0027    0.0000 H   0  0  0  0  0  0  0  0  0  0  0  0
   17.2156   -4.8311    0.0000 H   0  0  0  0  0  0  0  0  0  0  0  0
   15.8295   -3.7073    0.0000 H   0  0  0  0  0  0  0  0  0  0  0  0
   19.2314   -2.8973    0.0000 H   0  0  0  0  0  0  0  0  0  0  0  0
   19.7243   -1.1823    0.0000 H   0  0  0  0  0  0  0  0  0  0  0  0
   17.6977   -0.3415    0.0000 H   0  0  0  0  0  0  0  0  0  0  0  0
   14.0168    2.7164    0.0000 H   0  0  0  0  0  0  0  0  0  0  0  0
   12.1134    3.3220    0.0000 H   0  0  0  0  0  0  0  0  0  0  0  0
   10.8974   -0.9474    0.0000 H   0  0  0  0  0  0  0  0  0  0  0  0
   10.0080    0.7636    0.0000 H   0  0  0  0  0  0  0  0  0  0  0  0
   12.6705   -1.8672    0.0000 H   0  0  0  0  0  0  0  0  0  0  0  0
   11.7456    4.7662    0.0000 H   0  0  0  0  0  0  0  0  0  0  0  0
   10.3595    3.6173    0.0000 H   0  0  0  0  0  0  0  0  0  0  0  0
    9.6844    2.3106    0.0000 H   0  0  0  0  0  0  0  0  0  0  0  0
    9.5278    1.4791    0.0000 H   0  0  0  0  0  0  0  0  0  0  0  0
    8.9714    0.9123    0.0000 H   0  0  0  0  0  0  0  0  0  0  0  0
    8.5599    0.4637    0.0000 H   0  0  0  0  0  0  0  0  0  0  0  0
    7.3610   -0.3881    0.0000 H   0  0  0  0  0  0  0  0  0  0  0  0
    6.4643   -1.0469    0.0000 H   0  0  0  0  0  0  0  0  0  0  0  0
   11.7422    5.3609    0.0000 H   0  0  0  0  0  0  0  0  0  0  0  0
   11.2300    7.0702    0.0000 H   0  0  0  0  0  0  0  0  0  0  0  0
    9.5998    7.1791    0.0000 H   0  0  0  0  0  0  0  0  0  0  0  0
    9.4198    8.7302    0.0000 H   0  0  0  0  0  0  0  0  0  0  0  0
    8.6266    9.2811    0.0000 H   0  0  0  0  0  0  0  0  0  0  0  0
    6.9214   11.9169    0.0000 H   0  0  0  0  0  0  0  0  0  0  0  0
    5.8198   10.7102    0.0000 H   0  0  0  0  0  0  0  0  0  0  0  0
   10.1586   11.2105    0.0000 H   0  0  0  0  0  0  0  0  0  0  0  0
    9.2159    9.6955    0.0000 H   0  0  0  0  0  0  0  0  0  0  0  0
    7.7225   14.9455    0.0000 H   0  0  0  0  0  0  0  0  0  0  0  0
    4.4949   11.5366    0.0000 H   0  0  0  0  0  0  0  0  0  0  0  0
    3.5696   11.2600    0.0000 H   0  0  0  0  0  0  0  0  0  0  0  0
    0.7023    9.9566    0.0000 H   0  0  0  0  0  0  0  0  0  0  0  0
    0.1073   13.0315    0.0000 H   0  0  0  0  0  0  0  0  0  0  0  0
    1.2337   13.5817    0.0000 H   0  0  0  0  0  0  0  0  0  0  0  0
    3.0164   13.6607    0.0000 H   0  0  0  0  0  0  0  0  0  0  0  0
    3.6131   11.9790    0.0000 H   0  0  0  0  0  0  0  0  0  0  0  0
   -0.6380    9.5631    0.0000 H   0  0  0  0  0  0  0  0  0  0  0  0
   -1.2918    8.4533    0.0000 H   0  0  0  0  0  0  0  0  0  0  0  0
   -3.4485    6.6337    0.0000 H   0  0  0  0  0  0  0  0  0  0  0  0
   -2.0823    5.4858    0.0000 H   0  0  0  0  0  0  0  0  0  0  0  0
   -0.8749    9.9337    0.0000 H   0  0  0  0  0  0  0  0  0  0  0  0
   -2.6650   12.1350    0.0000 H   0  0  0  0  0  0  0  0  0  0  0  0
   -5.4876   11.8475    0.0000 H   0  0  0  0  0  0  0  0  0  0  0  0
   -6.7922    9.3399    0.0000 H   0  0  0  0  0  0  0  0  0  0  0  0
   -5.2825    6.7734    0.0000 H   0  0  0  0  0  0  0  0  0  0  0  0
   -2.4100    4.0101    0.0000 H   0  0  0  0  0  0  0  0  0  0  0  0
    0.1923    0.0877    0.0000 H   0  0  0  0  0  0  0  0  0  0  0  0
   -1.1016    1.3078    0.0000 H   0  0  0  0  0  0  0  0  0  0  0  0
    1.8173   -0.8284    0.0000 H   0  0  0  0  0  0  0  0  0  0  0  0
    0.5576   -0.4749    0.0000 H   0  0  0  0  0  0  0  0  0  0  0  0
    3.4725   -1.2987    0.0000 H   0  0  0  0  0  0  0  0  0  0  0  0
    2.3322   -1.2583    0.0000 H   0  0  0  0  0  0  0  0  0  0  0  0
    4.5685   -1.4909    0.0000 H   0  0  0  0  0  0  0  0  0  0  0  0
    1.0735    2.5030    0.0000 H   0  0  0  0  0  0  0  0  0  0  0  0
    1.4231    0.8042    0.0000 H   0  0  0  0  0  0  0  0  0  0  0  0
    1.7502    0.3173    0.0000 H   0  0  0  0  0  0  0  0  0  0  0  0
    1.5363   -0.9235    0.0000 H   0  0  0  0  0  0  0  0  0  0  0  0
    1.7654   -1.4635    0.0000 H   0  0  0  0  0  0  0  0  0  0  0  0
    1.4430   -2.5053    0.0000 H   0  0  0  0  0  0  0  0  0  0  0  0
    1.3835   -3.4913    0.0000 H   0  0  0  0  0  0  0  0  0  0  0  0
   -1.4095    6.4245    0.0000 H   0  0  0  0  0  0  0  0  0  0  0  0
   -2.3428    7.0772    0.0000 H   0  0  0  0  0  0  0  0  0  0  0  0
   -2.9923    9.0087    0.0000 H   0  0  0  0  0  0  0  0  0  0  0  0
   -2.0521    7.1701    0.0000 H   0  0  0  0  0  0  0  0  0  0  0  0
   -7.3955    8.3044    0.0000 H   0  0  0  0  0  0  0  0  0  0  0  0
   -6.0307    8.6113    0.0000 H   0  0  0  0  0  0  0  0  0  0  0  0
   -7.1787    8.6126    0.0000 H   0  0  0  0  0  0  0  0  0  0  0  0
   -9.7992    9.3849    0.0000 H   0  0  0  0  0  0  0  0  0  0  0  0
   -9.9043    7.7545    0.0000 H   0  0  0  0  0  0  0  0  0  0  0  0
   -6.6195    9.0860    0.0000 H   0  0  0  0  0  0  0  0  0  0  0  0
   -8.2410   12.4948    0.0000 H   0  0  0  0  0  0  0  0  0  0  0  0
   -9.9492   11.9787    0.0000 H   0  0  0  0  0  0  0  0  0  0  0  0
   -9.9551   10.1942    0.0000 H   0  0  0  0  0  0  0  0  0  0  0  0
   -6.9960   12.3487    0.0000 H   0  0  0  0  0  0  0  0  0  0  0  0
   -5.5362   11.6149    0.0000 H   0  0  0  0  0  0  0  0  0  0  0  0
   -6.0074    9.6043    0.0000 H   0  0  0  0  0  0  0  0  0  0  0  0
  -11.1105    8.0334    0.0000 H   0  0  0  0  0  0  0  0  0  0  0  0
  -12.0671    7.3707    0.0000 H   0  0  0  0  0  0  0  0  0  0  0  0
  -14.8476    6.7665    0.0000 H   0  0  0  0  0  0  0  0  0  0  0  0
  -14.0783    5.1563    0.0000 H   0  0  0  0  0  0  0  0  0  0  0  0
  -10.9243    8.8476    0.0000 H   0  0  0  0  0  0  0  0  0  0  0  0
  -12.2805   11.6467    0.0000 H   0  0  0  0  0  0  0  0  0  0  0  0
  -15.3258   12.6598    0.0000 H   0  0  0  0  0  0  0  0  0  0  0  0
  -18.1784   11.7309    0.0000 H   0  0  0  0  0  0  0  0  0  0  0  0
  -18.8002    8.7960    0.0000 H   0  0  0  0  0  0  0  0  0  0  0  0
  -16.5694    6.7901    0.0000 H   0  0  0  0  0  0  0  0  0  0  0  0
  -15.2439    4.7389    0.0000 H   0  0  0  0  0  0  0  0  0  0  0  0
  -15.5342    3.7603    0.0000 H   0  0  0  0  0  0  0  0  0  0  0  0
  -17.6245    1.4870    0.0000 H   0  0  0  0  0  0  0  0  0  0  0  0
  -16.1851    0.7140    0.0000 H   0  0  0  0  0  0  0  0  0  0  0  0
  -17.5546    4.8469    0.0000 H   0  0  0  0  0  0  0  0  0  0  0  0
  -16.1476    4.3970    0.0000 H   0  0  0  0  0  0  0  0  0  0  0  0
  -20.0462    2.4280    0.0000 H   0  0  0  0  0  0  0  0  0  0  0  0
  -18.4255    1.6813    0.0000 H   0  0  0  0  0  0  0  0  0  0  0  0
  -20.1530    5.7397    0.0000 H   0  0  0  0  0  0  0  0  0  0  0  0
  -18.4533    5.1961    0.0000 H   0  0  0  0  0  0  0  0  0  0  0  0
  -22.0921    5.2604    0.0000 H   0  0  0  0  0  0  0  0  0  0  0  0
  -21.6962    2.6927    0.0000 H   0  0  0  0  0  0  0  0  0  0  0  0
  -16.9399   -0.2673    0.0000 H   0  0  0  0  0  0  0  0  0  0  0  0
  -16.6551   -1.2476    0.0000 H   0  0  0  0  0  0  0  0  0  0  0  0
  -17.1845   -4.2900    0.0000 H   0  0  0  0  0  0  0  0  0  0  0  0
  -15.5557   -4.1621    0.0000 H   0  0  0  0  0  0  0  0  0  0  0  0
  -17.5153   -1.0436    0.0000 H   0  0  0  0  0  0  0  0  0  0  0  0
  -20.4844   -3.1903    0.0000 H   0  0  0  0  0  0  0  0  0  0  0  0
  -19.7305   -4.8076    0.0000 H   0  0  0  0  0  0  0  0  0  0  0  0
  -17.9634   -4.5596    0.0000 H   0  0  0  0  0  0  0  0  0  0  0  0
  -20.5171   -1.9371    0.0000 H   0  0  0  0  0  0  0  0  0  0  0  0
  -19.8483   -0.2827    0.0000 H   0  0  0  0  0  0  0  0  0  0  0  0
  -17.9412   -0.5680    0.0000 H   0  0  0  0  0  0  0  0  0  0  0  0
  -15.6601   -5.3957    0.0000 H   0  0  0  0  0  0  0  0  0  0  0  0
  -14.8905   -6.0664    0.0000 H   0  0  0  0  0  0  0  0  0  0  0  0
  -13.6910   -8.9121    0.0000 H   0  0  0  0  0  0  0  0  0  0  0  0
  -12.3899   -7.9239    0.0000 H   0  0  0  0  0  0  0  0  0  0  0  0
  -15.7245   -6.3598    0.0000 H   0  0  0  0  0  0  0  0  0  0  0  0
  -17.0617   -9.7710    0.0000 H   0  0  0  0  0  0  0  0  0  0  0  0
  -15.5530  -10.7240    0.0000 H   0  0  0  0  0  0  0  0  0  0  0  0
  -14.2006   -9.5599    0.0000 H   0  0  0  0  0  0  0  0  0  0  0  0
  -17.7666   -8.7344    0.0000 H   0  0  0  0  0  0  0  0  0  0  0  0
  -18.0985   -6.9811    0.0000 H   0  0  0  0  0  0  0  0  0  0  0  0
  -16.3399   -6.1901    0.0000 H   0  0  0  0  0  0  0  0  0  0  0  0
  -11.8109   -9.0181    0.0000 H   0  0  0  0  0  0  0  0  0  0  0  0
   -7.4115   -9.8497    0.0000 H   0  0  0  0  0  0  0  0  0  0  0  0
   -8.6688   -9.9164    0.0000 H   0  0  0  0  0  0  0  0  0  0  0  0
   -5.8232   -9.7598    0.0000 H   0  0  0  0  0  0  0  0  0  0  0  0
   -6.8957   -9.9575    0.0000 H   0  0  0  0  0  0  0  0  0  0  0  0
   -4.1311   -9.2651    0.0000 H   0  0  0  0  0  0  0  0  0  0  0  0
   -5.3296   -9.6512    0.0000 H   0  0  0  0  0  0  0  0  0  0  0  0
   -2.5632   -8.4592    0.0000 H   0  0  0  0  0  0  0  0  0  0  0  0
   -3.6670   -9.0652    0.0000 H   0  0  0  0  0  0  0  0  0  0  0  0
   -1.1762   -7.3712    0.0000 H   0  0  0  0  0  0  0  0  0  0  0  0
   -2.1453   -8.1750    0.0000 H   0  0  0  0  0  0  0  0  0  0  0  0
    0.0152   -5.8605    0.0000 H   0  0  0  0  0  0  0  0  0  0  0  0
   -0.8196   -7.0130    0.0000 H   0  0  0  0  0  0  0  0  0  0  0  0
    0.6844   -5.1339    0.0000 H   0  0  0  0  0  0  0  0  0  0  0  0
  -10.7017  -10.8069    0.0000 H   0  0  0  0  0  0  0  0  0  0  0  0
  -12.0612   -9.9005    0.0000 H   0  0  0  0  0  0  0  0  0  0  0  0
  -11.7862   -8.2900    0.0000 H   0  0  0  0  0  0  0  0  0  0  0  0
  -11.6706  -10.6509    0.0000 H   0  0  0  0  0  0  0  0  0  0  0  0
   -8.4045  -11.5641    0.0000 H   0  0  0  0  0  0  0  0  0  0  0  0
   -7.5828  -14.2608    0.0000 H   0  0  0  0  0  0  0  0  0  0  0  0
   -7.8161  -12.3466    0.0000 H   0  0  0  0  0  0  0  0  0  0  0  0
  -10.4515  -15.9189    0.0000 H   0  0  0  0  0  0  0  0  0  0  0  0
  -10.9216  -14.6909    0.0000 H   0  0  0  0  0  0  0  0  0  0  0  0
   -6.1353  -17.0390    0.0000 H   0  0  0  0  0  0  0  0  0  0  0  0
   -8.9926  -15.4571    0.0000 H   0  0  0  0  0  0  0  0  0  0  0  0
  -12.2541  -14.6721    0.0000 H   0  0  0  0  0  0  0  0  0  0  0  0
  -13.7137  -17.6467    0.0000 H   0  0  0  0  0  0  0  0  0  0  0  0
  -11.9409  -17.8504    0.0000 H   0  0  0  0  0  0  0  0  0  0  0  0
  -16.5413  -15.5941    0.0000 H   0  0  0  0  0  0  0  0  0  0  0  0
  -15.3639  -17.9101    0.0000 H   0  0  0  0  0  0  0  0  0  0  0  0
   -9.0168  -19.0794    0.0000 H   0  0  0  0  0  0  0  0  0  0  0  0
  1  2  1  0
  2  3  1  0
  3  4  2  0
  4  5  1  0
  5  6  2  0
  6  7  1  0
  7  8  2  0
  7  9  1  0
  9 10  1  0
 10 11  1  0
 11 12  2  0
  9 13  1  0
 13 14  1  0
 14 15  2  0
 15 16  1  0
 16 17  2  0
 17 18  1  0
 16 19  1  0
 14 20  1  0
 20 21  1  0
 21 22  2  0
 22 23  1  0
 23 24  2  0
 24 25  1  0
 25 26  2  0
 25 27  1  0
  1 28  2  0
  1 29  1  0
 29 30  1  0
 30 31  1  0
 31 32  1  0
 32 33  2  0
 32 34  1  0
 34 35  1  0
 35 36  1  0
 36 37  1  0
 37 38  1  0
 37 39  1  0
 35 40  1  0
 40 41  2  0
 40 42  1  0
 42 43  1  0
 43 44  1  0
 44 45  1  0
 43 46  1  0
 46 47  2  0
 46 48  1  0
 49 48  1  1
 49 50  1  0
 50 51  1  0
 51 52  1  0
 52 53  1  0
 49 54  1  0
 49 55  1  0
 55 56  2  0
 55 57  1  0
 57 58  1  0
 58 59  1  0
 59 60  1  0
 60 61  1  0
 61 62  2  0
 61 63  1  0
 58 64  1  0
 64 65  2  0
 64 66  1  0
 66 67  1  0
 67 68  1  0
 68 69  1  0
 68 70  1  0
 67 71  1  0
 71 72  2  0
 71 73  1  0
 73 74  1  0
 74 75  1  0
 75 76  1  0
 76 77  2  0
 77 78  1  0
 78 79  2  0
 79 80  1  0
 80 81  2  0
 74 82  1  0
 82 83  2  0
 82 84  1  0
 84 85  1  0
 85 86  1  0
 86 87  1  0
 87 88  1  0
 88 89  1  0
 85 90  1  0
 90 91  1  0
 91 92  1  0
 92 93  1  0
 85 94  1  0
 94 95  2  0
 94 96  1  0
 96 97  1  0
 97 98  1  0
 98 99  1  0
 99100  2  0
 99101  1  0
 97102  1  0
102103  2  0
102104  1  0
104105  1  0
105106  1  0
106107  1  0
107108  1  0
107109  1  0
105110  1  0
110111  2  0
110112  1  0
112113  1  0
113114  1  0
114115  1  0
115116  2  0
116117  1  0
117118  1  0
118119  2  0
119120  1  0
120121  2  0
121122  1  0
122123  2  0
113124  1  0
124125  2  0
124126  1  0
126127  1  0
127128  1  0
128129  1  0
129130  1  0
130131  1  0
131132  1  0
127133  1  0
133134  2  0
133135  1  0
135136  1  0
136137  1  0
137138  1  0
138139  1  0
138140  1  0
136141  1  0
141142  2  0
141143  1  0
143144  1  0
144145  1  0
145146  1  0
146147  1  0
146148  1  0
144149  1  0
149150  2  0
149151  1  0
151152  1  0
152153  1  0
153154  1  0
154155  1  0
155156  1  0
156157  1  0
157158  1  0
158159  1  0
152160  1  0
152161  1  1
161162  2  0
161163  1  0
163164  1  0
164165  1  0
165166  1  0
166167  1  0
167168  2  0
167169  1  0
164170  1  0
170171  2  0
170172  1  0
172173  1  0
173174  1  0
174175  1  0
175176  1  0
175177  2  0
173178  1  0
178179  2  0
178180  1  0
  8  3  1  0
 81 76  1  0
123115  1  0
 11  6  1  0
 53 89  2  0
123118  1  0
 18 13  2  0
 93159  2  0
 22  9  1  0
 26 21  1  0
  2181  1  0
  4182  1  0
  5183  1  0
  8184  1  0
 15185  1  0
 17186  1  0
 18187  1  0
 19188  1  0
 23189  1  0
 24190  1  0
 26191  1  0
 27192  1  0
 29193  1  0
 30194  1  0
 30195  1  0
 31196  1  0
 31197  1  0
 34198  1  0
 35199  1  1
 36200  1  0
 36201  1  0
 37202  1  0
 38203  1  0
 38204  1  0
 38205  1  0
 39206  1  0
 39207  1  0
 39208  1  0
 42209  1  0
 43210  1  1
 44211  1  0
 44212  1  0
 45213  1  0
 48214  1  0
 50215  1  0
 50216  1  0
 51217  1  0
 51218  1  0
 52219  1  0
 52220  1  0
 53221  1  0
 54222  1  0
 54223  1  0
 54224  1  0
 57225  1  0
 58226  1  6
 59227  1  0
 59228  1  0
 60229  1  0
 60230  1  0
 63231  1  0
 66232  1  0
 67233  1  6
 68234  1  1
 69235  1  0
 70236  1  0
 70237  1  0
 70238  1  0
 73239  1  0
 74240  1  6
 75241  1  0
 75242  1  0
 77243  1  0
 78244  1  0
 79245  1  0
 80246  1  0
 81247  1  0
 84248  1  0
 86249  1  0
 86250  1  0
 87251  1  0
 87252  1  0
 88253  1  0
 88254  1  0
 89255  1  0
 90256  1  0
 90257  1  0
 91258  1  0
 91259  1  0
 92260  1  0
 92261  1  0
 93262  1  0
 96263  1  0
 97264  1  6
 98265  1  0
 98266  1  0
101267  1  0
104268  1  0
105269  1  6
106270  1  0
106271  1  0
107272  1  0
108273  1  0
108274  1  0
108275  1  0
109276  1  0
109277  1  0
109278  1  0
112279  1  0
113280  1  6
114281  1  0
114282  1  0
116283  1  0
117284  1  0
119285  1  0
120286  1  0
121287  1  0
122288  1  0
126289  1  0
127290  1  6
128291  1  0
128292  1  0
129293  1  0
129294  1  0
130295  1  0
130296  1  0
131297  1  0
131298  1  0
132299  1  0
132300  1  0
135301  1  0
136302  1  6
137303  1  0
137304  1  0
138305  1  0
139306  1  0
139307  1  0
139308  1  0
140309  1  0
140310  1  0
140311  1  0
143312  1  0
144313  1  6
145314  1  0
145315  1  0
146316  1  0
147317  1  0
147318  1  0
147319  1  0
148320  1  0
148321  1  0
148322  1  0
151323  1  0
153324  1  0
153325  1  0
154326  1  0
154327  1  0
155328  1  0
155329  1  0
156330  1  0
156331  1  0
157332  1  0
157333  1  0
158334  1  0
158335  1  0
159336  1  0
160337  1  0
160338  1  0
160339  1  0
163340  1  0
164341  1  1
165342  1  0
165343  1  0
166344  1  0
166345  1  0
169346  1  0
172347  1  0
173348  1  6
174349  1  0
174350  1  0
176351  1  0
176352  1  0
180353  1  0
M  END
