
     RDKit          2D

311317  0  0  0  0  0  0  0  0999 V2000
   15.9385   -2.1567    0.0000 C   0  0  0  0  0  0  0  0  0  0  0  0
   17.2643   -2.8582    0.0000 N   0  0  0  0  0  0  0  0  0  0  0  0
   17.3196   -4.3572    0.0000 C   0  0  0  0  0  0  0  0  0  0  0  0
   16.0491   -5.1546    0.0000 C   0  0  0  0  0  0  0  0  0  0  0  0
   16.1045   -6.6536    0.0000 C   0  0  0  0  0  0  0  0  0  0  0  0
   17.4303   -7.3552    0.0000 C   0  0  0  0  0  0  0  0  0  0  0  0
   18.7008   -6.5578    0.0000 C   0  0  0  0  0  0  0  0  0  0  0  0
   18.6454   -5.0588    0.0000 C   0  0  0  0  0  0  0  0  0  0  0  0
   19.8517   -7.5197    0.0000 C   0  0  0  0  0  0  0  0  0  0  0  0
   19.2926   -8.9115    0.0000 O   0  0  0  0  0  0  0  0  0  0  0  0
   17.7960   -8.8099    0.0000 C   0  0  0  0  0  0  0  0  0  0  0  0
   16.8341   -9.9609    0.0000 O   0  0  0  0  0  0  0  0  0  0  0  0
   20.8959   -8.5966    0.0000 C   0  0  0  0  0  0  0  0  0  0  0  0
   22.3506   -8.2308    0.0000 C   0  0  0  0  0  0  0  0  0  0  0  0
   23.3947   -9.3078    0.0000 C   0  0  0  0  0  0  0  0  0  0  0  0
   22.9841  -10.7505    0.0000 C   0  0  0  0  0  0  0  0  0  0  0  0
   21.5294  -11.1162    0.0000 C   0  0  0  0  0  0  0  0  0  0  0  0
   20.4853  -10.0393    0.0000 C   0  0  0  0  0  0  0  0  0  0  0  0
   24.0283  -11.8274    0.0000 O   0  0  0  0  0  0  0  0  0  0  0  0
   22.7612   -6.7881    0.0000 O   0  0  0  0  0  0  0  0  0  0  0  0
   21.7171   -5.7112    0.0000 C   0  0  0  0  0  0  0  0  0  0  0  0
   20.2623   -6.0769    0.0000 C   0  0  0  0  0  0  0  0  0  0  0  0
   19.8971   -4.8293    0.0000 C   0  0  0  0  0  0  0  0  0  0  0  0
   20.1161   -4.0599    0.0000 C   0  0  0  0  0  0  0  0  0  0  0  0
   20.8919   -3.8648    0.0000 C   0  0  0  0  0  0  0  0  0  0  0  0
   21.4488   -4.4392    0.0000 C   0  0  0  0  0  0  0  0  0  0  0  0
   21.4941   -1.7488    0.0000 O   0  0  0  0  0  0  0  0  0  0  0  0
   14.6680   -2.9541    0.0000 S   0  0  0  0  0  0  0  0  0  0  0  0
   15.8831   -0.6577    0.0000 N   0  0  0  0  0  0  0  0  0  0  0  0
   14.5573    0.0439    0.0000 C   0  0  0  0  0  0  0  0  0  0  0  0
   14.5020    1.5429    0.0000 C   0  0  0  0  0  0  0  0  0  0  0  0
   13.1762    2.2445    0.0000 C   0  0  0  0  0  0  0  0  0  0  0  0
   12.2759    1.0446    0.0000 O   0  0  0  0  0  0  0  0  0  0  0  0
   13.1209    3.7434    0.0000 N   0  0  0  0  0  0  0  0  0  0  0  0
   11.7950    4.4450    0.0000 C   0  0  0  0  0  0  0  0  0  0  0  0
   11.7008    2.9480    0.0000 C   0  0  0  0  0  0  0  0  0  0  0  0
   11.1696    1.5452    0.0000 C   0  0  0  0  0  0  0  0  0  0  0  0
   10.2484    0.3614    0.0000 C   0  0  0  0  0  0  0  0  0  0  0  0
    9.0193   -0.4984    0.0000 C   0  0  0  0  0  0  0  0  0  0  0  0
   12.9798    5.3650    0.0000 C   0  0  0  0  0  0  0  0  0  0  0  0
   11.4438    5.9033    0.0000 C   0  0  0  0  0  0  0  0  0  0  0  0
   12.8335    6.4680    0.0000 O   0  0  0  0  0  0  0  0  0  0  0  0
   10.6783    7.1933    0.0000 N   0  0  0  0  0  0  0  0  0  0  0  0
    9.5666    8.2003    0.0000 C   0  0  0  0  0  0  0  0  0  0  0  0
    8.2075    8.8349    0.0000 C   0  0  0  0  0  0  0  0  0  0  0  0
    8.6324   10.2735    0.0000 O   0  0  0  0  0  0  0  0  0  0  0  0
    6.7217    9.0407    0.0000 N   0  0  0  0  0  0  0  0  0  0  0  0
    5.2412    8.7995    0.0000 C   0  0  0  0  0  0  0  0  0  0  0  0
    4.0807    9.7498    0.0000 C   0  0  0  0  0  0  0  0  0  0  0  0
    4.3235   11.2301    0.0000 C   0  0  0  0  0  0  0  0  0  0  0  0
    3.1629   12.1804    0.0000 C   0  0  0  0  0  0  0  0  0  0  0  0
    3.4057   13.6606    0.0000 N   0  0  0  0  0  0  0  0  0  0  0  0
    2.2452   14.6110    0.0000 C   0  0  0  0  0  0  0  0  0  0  0  0
    2.4880   16.0912    0.0000 N   0  0  0  0  0  0  0  0  0  0  0  0
    0.8419   14.0812    0.0000 N   0  0  0  0  0  0  0  0  0  0  0  0
    3.8976    8.1325    0.0000 C   0  0  0  0  0  0  0  0  0  0  0  0
    3.0379    9.3617    0.0000 O   0  0  0  0  0  0  0  0  0  0  0  0
    2.8103    7.0992    0.0000 N   0  0  0  0  0  0  0  0  0  0  0  0
    2.0759    5.7913    0.0000 C   0  0  0  0  0  0  0  0  0  0  0  0
    0.6093    5.4765    0.0000 C   0  0  0  0  0  0  0  0  0  0  0  0
   -0.3966    6.5892    0.0000 C   0  0  0  0  0  0  0  0  0  0  0  0
   -1.8632    6.2744    0.0000 C   0  0  0  0  0  0  0  0  0  0  0  0
   -2.8691    7.3871    0.0000 C   0  0  0  0  0  0  0  0  0  0  0  0
   -4.3683    7.4366    0.0000 N   0  0  0  0  0  0  0  0  0  0  0  0
    1.7596    4.3250    0.0000 C   0  0  0  0  0  0  0  0  0  0  0  0
    0.9543    4.6938    0.0000 O   0  0  0  0  0  0  0  0  0  0  0  0
    1.8896    2.8306    0.0000 N   0  0  0  0  0  0  0  0  0  0  0  0
    2.4543    1.4410    0.0000 C   0  0  0  0  0  0  0  0  0  0  0  0
    3.4035    0.2795    0.0000 C   0  0  0  0  0  0  0  0  0  0  0  0
    4.6529   -0.5506    0.0000 C   0  0  0  0  0  0  0  0  0  0  0  0
    6.0914   -0.9756    0.0000 C   0  0  0  0  0  0  0  0  0  0  0  0
    7.5913   -0.9576    0.0000 C   0  0  0  0  0  0  0  0  0  0  0  0
    2.4350   -0.1528    0.0000 C   0  0  0  0  0  0  0  0  0  0  0  0
    2.7731   -1.4772    0.0000 C   0  0  0  0  0  0  0  0  0  0  0  0
    2.8545   -2.8417    0.0000 C   0  0  0  0  0  0  0  0  0  0  0  0
    2.6761   -4.1969    0.0000 C   0  0  0  0  0  0  0  0  0  0  0  0
    1.0461    2.1876    0.0000 C   0  0  0  0  0  0  0  0  0  0  0  0
    2.6914    3.6481    0.0000 O   0  0  0  0  0  0  0  0  0  0  0  0
    0.0457    3.1190    0.0000 N   0  0  0  0  0  0  0  0  0  0  0  0
   -1.1130    3.8442    0.0000 C   0  0  0  0  0  0  0  0  0  0  0  0
   -0.9365    5.9640    0.0000 C   0  0  0  0  0  0  0  0  0  0  0  0
   -2.2985    6.5924    0.0000 C   0  0  0  0  0  0  0  0  0  0  0  0
   -2.4352    8.0862    0.0000 C   0  0  0  0  0  0  0  0  0  0  0  0
   -3.7972    8.7146    0.0000 N   0  0  0  0  0  0  0  0  0  0  0  0
   -3.9340   10.2084    0.0000 C   0  0  0  0  0  0  0  0  0  0  0  0
   -5.1034   11.1477    0.0000 N   0  0  0  0  0  0  0  0  0  0  0  0
   -2.7087   11.0737    0.0000 N   0  0  0  0  0  0  0  0  0  0  0  0
   -2.3880    4.3371    0.0000 C   0  0  0  0  0  0  0  0  0  0  0  0
   -2.5191    6.4764    0.0000 O   0  0  0  0  0  0  0  0  0  0  0  0
   -3.7332    4.5797    0.0000 N   0  0  0  0  0  0  0  0  0  0  0  0
   -5.1001    4.5633    0.0000 C   0  0  0  0  0  0  0  0  0  0  0  0
   -6.0976    6.4420    0.0000 C   0  0  0  0  0  0  0  0  0  0  0  0
   -5.5346    7.8324    0.0000 C   0  0  0  0  0  0  0  0  0  0  0  0
   -6.4573    9.0151    0.0000 C   0  0  0  0  0  0  0  0  0  0  0  0
   -5.8943   10.4054    0.0000 N   0  0  0  0  0  0  0  0  0  0  0  0
   -6.8169   11.5881    0.0000 C   0  0  0  0  0  0  0  0  0  0  0  0
   -6.2540   12.9785    0.0000 N   0  0  0  0  0  0  0  0  0  0  0  0
   -8.3025   11.3805    0.0000 N   0  0  0  0  0  0  0  0  0  0  0  0
   -6.4391    4.2886    0.0000 C   0  0  0  0  0  0  0  0  0  0  0  0
   -7.2556    6.3276    0.0000 O   0  0  0  0  0  0  0  0  0  0  0  0
   -7.7019    3.7654    0.0000 N   0  0  0  0  0  0  0  0  0  0  0  0
   -8.8429    3.0127    0.0000 C   0  0  0  0  0  0  0  0  0  0  0  0
  -10.6978    4.0539    0.0000 C   0  0  0  0  0  0  0  0  0  0  0  0
  -10.9759    5.5279    0.0000 C   0  0  0  0  0  0  0  0  0  0  0  0
  -12.3915    6.0240    0.0000 C   0  0  0  0  0  0  0  0  0  0  0  0
  -12.6696    7.4980    0.0000 N   0  0  0  0  0  0  0  0  0  0  0  0
  -13.5289    5.0462    0.0000 O   0  0  0  0  0  0  0  0  0  0  0  0
   -9.8209    2.0577    0.0000 C   0  0  0  0  0  0  0  0  0  0  0  0
  -11.6102    3.3316    0.0000 O   0  0  0  0  0  0  0  0  0  0  0  0
  -10.6004    0.9348    0.0000 N   0  0  0  0  0  0  0  0  0  0  0  0
  -11.1533   -0.3153    0.0000 C   0  0  0  0  0  0  0  0  0  0  0  0
  -13.2766   -0.4422    0.0000 C   0  0  0  0  0  0  0  0  0  0  0  0
  -14.3075    0.6474    0.0000 C   0  0  0  0  0  0  0  0  0  0  0  0
  -15.7666    0.2995    0.0000 C   0  0  0  0  0  0  0  0  0  0  0  0
  -16.7974    1.3891    0.0000 N   0  0  0  0  0  0  0  0  0  0  0  0
  -18.2565    1.0412    0.0000 C   0  0  0  0  0  0  0  0  0  0  0  0
  -19.2874    2.1308    0.0000 N   0  0  0  0  0  0  0  0  0  0  0  0
  -18.6847   -0.3964    0.0000 N   0  0  0  0  0  0  0  0  0  0  0  0
  -11.4597   -1.6474    0.0000 C   0  0  0  0  0  0  0  0  0  0  0  0
  -13.6536   -1.5431    0.0000 O   0  0  0  0  0  0  0  0  0  0  0  0
  -11.5084   -3.0135    0.0000 N   0  0  0  0  0  0  0  0  0  0  0  0
  -11.2977   -4.3641    0.0000 C   0  0  0  0  0  0  0  0  0  0  0  0
  -13.0153   -5.6188    0.0000 C   0  0  0  0  0  0  0  0  0  0  0  0
  -14.4716   -5.2594    0.0000 C   0  0  0  0  0  0  0  0  0  0  0  0
  -15.5110   -6.3410    0.0000 C   0  0  0  0  0  0  0  0  0  0  0  0
  -16.9673   -5.9817    0.0000 N   0  0  0  0  0  0  0  0  0  0  0  0
  -18.0066   -7.0632    0.0000 C   0  0  0  0  0  0  0  0  0  0  0  0
  -19.4630   -6.7039    0.0000 N   0  0  0  0  0  0  0  0  0  0  0  0
  -17.5897   -8.5041    0.0000 N   0  0  0  0  0  0  0  0  0  0  0  0
  -10.8352   -5.6504    0.0000 C   0  0  0  0  0  0  0  0  0  0  0  0
  -12.7373   -6.7488    0.0000 O   0  0  0  0  0  0  0  0  0  0  0  0
  -10.1376   -6.8259    0.0000 N   0  0  0  0  0  0  0  0  0  0  0  0
   -9.2302   -7.8482    0.0000 C   0  0  0  0  0  0  0  0  0  0  0  0
   -9.9968   -9.8323    0.0000 C   0  0  0  0  0  0  0  0  0  0  0  0
  -11.4162  -10.3174    0.0000 C   0  0  0  0  0  0  0  0  0  0  0  0
  -11.7058  -11.7891    0.0000 C   0  0  0  0  0  0  0  0  0  0  0  0
  -13.1252  -12.2742    0.0000 N   0  0  0  0  0  0  0  0  0  0  0  0
  -13.4149  -13.7460    0.0000 C   0  0  0  0  0  0  0  0  0  0  0  0
  -14.8343  -14.2310    0.0000 N   0  0  0  0  0  0  0  0  0  0  0  0
  -12.2851  -14.7327    0.0000 N   0  0  0  0  0  0  0  0  0  0  0  0
   -8.1457   -8.6802    0.0000 C   0  0  0  0  0  0  0  0  0  0  0  0
   -9.1520  -10.6326    0.0000 O   0  0  0  0  0  0  0  0  0  0  0  0
   -6.9233   -9.2920    0.0000 N   0  0  0  0  0  0  0  0  0  0  0  0
   -5.6073   -9.6614    0.0000 C   0  0  0  0  0  0  0  0  0  0  0  0
   -4.2451   -9.7751    0.0000 C   0  0  0  0  0  0  0  0  0  0  0  0
   -2.8860   -9.6289    0.0000 C   0  0  0  0  0  0  0  0  0  0  0  0
   -1.5791   -9.2281    0.0000 C   0  0  0  0  0  0  0  0  0  0  0  0
   -0.3717   -8.5873    0.0000 C   0  0  0  0  0  0  0  0  0  0  0  0
    0.6925   -7.7295    0.0000 C   0  0  0  0  0  0  0  0  0  0  0  0
    1.5753   -6.6858    0.0000 C   0  0  0  0  0  0  0  0  0  0  0  0
    2.2445   -5.4939    0.0000 C   0  0  0  0  0  0  0  0  0  0  0  0
   -6.7360  -11.4643    0.0000 C   0  0  0  0  0  0  0  0  0  0  0  0
   -5.1795  -11.7450    0.0000 C   0  0  0  0  0  0  0  0  0  0  0  0
   -5.9611  -13.0253    0.0000 O   0  0  0  0  0  0  0  0  0  0  0  0
   -3.7927  -12.3168    0.0000 O   0  0  0  0  0  0  0  0  0  0  0  0
   18.4281   -1.9119    0.0000 H   0  0  0  0  0  0  0  0  0  0  0  0
   14.7233   -4.4530    0.0000 H   0  0  0  0  0  0  0  0  0  0  0  0
   14.8340   -7.4510    0.0000 H   0  0  0  0  0  0  0  0  0  0  0  0
   19.6852   -3.9776    0.0000 H   0  0  0  0  0  0  0  0  0  0  0  0
   24.8494   -8.9420    0.0000 H   0  0  0  0  0  0  0  0  0  0  0  0
   21.1188  -12.5590    0.0000 H   0  0  0  0  0  0  0  0  0  0  0  0
   19.0306  -10.4051    0.0000 H   0  0  0  0  0  0  0  0  0  0  0  0
   23.6177  -13.2701    0.0000 H   0  0  0  0  0  0  0  0  0  0  0  0
   17.7635   -5.3658    0.0000 H   0  0  0  0  0  0  0  0  0  0  0  0
   18.7237   -2.3611    0.0000 H   0  0  0  0  0  0  0  0  0  0  0  0
   23.5824   -3.9027    0.0000 H   0  0  0  0  0  0  0  0  0  0  0  0
   22.9488   -1.3830    0.0000 H   0  0  0  0  0  0  0  0  0  0  0  0
   17.1536    0.1397    0.0000 H   0  0  0  0  0  0  0  0  0  0  0  0
   14.0966   -1.3836    0.0000 H   0  0  0  0  0  0  0  0  0  0  0  0
   13.0715    0.2497    0.0000 H   0  0  0  0  0  0  0  0  0  0  0  0
   15.9878    1.3371    0.0000 H   0  0  0  0  0  0  0  0  0  0  0  0
   14.9627    2.9704    0.0000 H   0  0  0  0  0  0  0  0  0  0  0  0
   14.4791    4.3800    0.0000 H   0  0  0  0  0  0  0  0  0  0  0  0
   13.1907    3.1225    0.0000 H   0  0  0  0  0  0  0  0  0  0  0  0
   12.6237    1.7655    0.0000 H   0  0  0  0  0  0  0  0  0  0  0  0
   12.5349    0.9240    0.0000 H   0  0  0  0  0  0  0  0  0  0  0  0
   12.0263    0.3139    0.0000 H   0  0  0  0  0  0  0  0  0  0  0  0
   11.6525   -0.1665    0.0000 H   0  0  0  0  0  0  0  0  0  0  0  0
   10.5265   -1.1126    0.0000 H   0  0  0  0  0  0  0  0  0  0  0  0
    9.6862   -1.8420    0.0000 H   0  0  0  0  0  0  0  0  0  0  0  0
   14.4276    4.9724    0.0000 H   0  0  0  0  0  0  0  0  0  0  0  0
   13.7785    6.6346    0.0000 H   0  0  0  0  0  0  0  0  0  0  0  0
   12.1448    6.6111    0.0000 H   0  0  0  0  0  0  0  0  0  0  0  0
   11.8398    8.1425    0.0000 H   0  0  0  0  0  0  0  0  0  0  0  0
    9.5861    9.7002    0.0000 H   0  0  0  0  0  0  0  0  0  0  0  0
   10.9418    8.7995    0.0000 H   0  0  0  0  0  0  0  0  0  0  0  0
    6.7037   10.5406    0.0000 H   0  0  0  0  0  0  0  0  0  0  0  0
    5.8038   10.1899    0.0000 H   0  0  0  0  0  0  0  0  0  0  0  0
    2.6152   10.0697    0.0000 H   0  0  0  0  0  0  0  0  0  0  0  0
    3.0516    8.6585    0.0000 H   0  0  0  0  0  0  0  0  0  0  0  0
    5.0579   12.5380    0.0000 H   0  0  0  0  0  0  0  0  0  0  0  0
    5.7890   10.9102    0.0000 H   0  0  0  0  0  0  0  0  0  0  0  0
    1.7474   12.6766    0.0000 H   0  0  0  0  0  0  0  0  0  0  0  0
    2.2746   10.9718    0.0000 H   0  0  0  0  0  0  0  0  0  0  0  0
    4.8090   14.1905    0.0000 H   0  0  0  0  0  0  0  0  0  0  0  0
    1.3275   17.0416    0.0000 H   0  0  0  0  0  0  0  0  0  0  0  0
   -0.3186   15.0315    0.0000 H   0  0  0  0  0  0  0  0  0  0  0  0
    0.5991   12.6009    0.0000 H   0  0  0  0  0  0  0  0  0  0  0  0
    1.6265    8.0203    0.0000 H   0  0  0  0  0  0  0  0  0  0  0  0
    1.3396    7.0981    0.0000 H   0  0  0  0  0  0  0  0  0  0  0  0
   -0.7489    4.8399    0.0000 H   0  0  0  0  0  0  0  0  0  0  0  0
    0.6383    3.9768    0.0000 H   0  0  0  0  0  0  0  0  0  0  0  0
   -0.4256    8.0889    0.0000 H   0  0  0  0  0  0  0  0  0  0  0  0
    0.7672    7.5355    0.0000 H   0  0  0  0  0  0  0  0  0  0  0  0
   -3.2214    5.6378    0.0000 H   0  0  0  0  0  0  0  0  0  0  0  0
   -1.8342    4.7747    0.0000 H   0  0  0  0  0  0  0  0  0  0  0  0
   -3.7533    8.5989    0.0000 H   0  0  0  0  0  0  0  0  0  0  0  0
   -1.5986    8.1846    0.0000 H   0  0  0  0  0  0  0  0  0  0  0  0
   -5.1766    8.3041    0.0000 H   0  0  0  0  0  0  0  0  0  0  0  0
   -5.1281    5.7988    0.0000 H   0  0  0  0  0  0  0  0  0  0  0  0
    0.4313    2.4794    0.0000 H   0  0  0  0  0  0  0  0  0  0  0  0
    3.3429   -1.2193    0.0000 H   0  0  0  0  0  0  0  0  0  0  0  0
    1.9544   -0.1080    0.0000 H   0  0  0  0  0  0  0  0  0  0  0  0
    5.0368   -2.0006    0.0000 H   0  0  0  0  0  0  0  0  0  0  0  0
    3.7526   -1.7504    0.0000 H   0  0  0  0  0  0  0  0  0  0  0  0
    6.7246   -2.3353    0.0000 H   0  0  0  0  0  0  0  0  0  0  0  0
    5.5848   -2.3874    0.0000 H   0  0  0  0  0  0  0  0  0  0  0  0
    7.8326   -2.4381    0.0000 H   0  0  0  0  0  0  0  0  0  0  0  0
    4.0255    1.2595    0.0000 H   0  0  0  0  0  0  0  0  0  0  0  0
    4.5116   -0.4054    0.0000 H   0  0  0  0  0  0  0  0  0  0  0  0
    4.8771   -0.8641    0.0000 H   0  0  0  0  0  0  0  0  0  0  0  0
    4.7644   -2.1182    0.0000 H   0  0  0  0  0  0  0  0  0  0  0  0
    5.0365   -2.6379    0.0000 H   0  0  0  0  0  0  0  0  0  0  0  0
    4.7996   -3.7024    0.0000 H   0  0  0  0  0  0  0  0  0  0  0  0
    4.8202   -4.6900    0.0000 H   0  0  0  0  0  0  0  0  0  0  0  0
    1.2329    4.9669    0.0000 H   0  0  0  0  0  0  0  0  0  0  0  0
    0.2498    5.5419    0.0000 H   0  0  0  0  0  0  0  0  0  0  0  0
   -0.5541    7.4144    0.0000 H   0  0  0  0  0  0  0  0  0  0  0  0
    0.5320    5.6580    0.0000 H   0  0  0  0  0  0  0  0  0  0  0  0
   -3.7933    6.7171    0.0000 H   0  0  0  0  0  0  0  0  0  0  0  0
   -3.1754    5.3754    0.0000 H   0  0  0  0  0  0  0  0  0  0  0  0
   -2.0528    9.5366    0.0000 H   0  0  0  0  0  0  0  0  0  0  0  0
   -0.9951    8.5055    0.0000 H   0  0  0  0  0  0  0  0  0  0  0  0
   -5.2512    8.3460    0.0000 H   0  0  0  0  0  0  0  0  0  0  0  0
   -5.4327   12.3306    0.0000 H   0  0  0  0  0  0  0  0  0  0  0  0
   -2.8455   12.5674    0.0000 H   0  0  0  0  0  0  0  0  0  0  0  0
   -1.3467   10.4452    0.0000 H   0  0  0  0  0  0  0  0  0  0  0  0
   -3.7335    6.7761    0.0000 H   0  0  0  0  0  0  0  0  0  0  0  0
   -4.6946    6.6803    0.0000 H   0  0  0  0  0  0  0  0  0  0  0  0
   -7.3690    7.2378    0.0000 H   0  0  0  0  0  0  0  0  0  0  0  0
   -7.3418    5.6042    0.0000 H   0  0  0  0  0  0  0  0  0  0  0  0
   -4.8295    9.1563    0.0000 H   0  0  0  0  0  0  0  0  0  0  0  0
   -4.2631    7.0366    0.0000 H   0  0  0  0  0  0  0  0  0  0  0  0
   -7.7287    9.8109    0.0000 H   0  0  0  0  0  0  0  0  0  0  0  0
   -7.5901    8.0318    0.0000 H   0  0  0  0  0  0  0  0  0  0  0  0
   -4.5032   10.9664    0.0000 H   0  0  0  0  0  0  0  0  0  0  0  0
   -7.1766   14.1612    0.0000 H   0  0  0  0  0  0  0  0  0  0  0  0
   -9.2251   12.5631    0.0000 H   0  0  0  0  0  0  0  0  0  0  0  0
   -8.8654    9.9901    0.0000 H   0  0  0  0  0  0  0  0  0  0  0  0
   -8.5666    5.7845    0.0000 H   0  0  0  0  0  0  0  0  0  0  0  0
   -9.2834    5.0577    0.0000 H   0  0  0  0  0  0  0  0  0  0  0  0
  -12.1887    4.2189    0.0000 H   0  0  0  0  0  0  0  0  0  0  0  0
  -11.2915    2.6764    0.0000 H   0  0  0  0  0  0  0  0  0  0  0  0
  -10.7331    7.0081    0.0000 H   0  0  0  0  0  0  0  0  0  0  0  0
   -9.5249    5.9082    0.0000 H   0  0  0  0  0  0  0  0  0  0  0  0
  -14.0852    7.9941    0.0000 H   0  0  0  0  0  0  0  0  0  0  0  0
  -11.5321    8.4759    0.0000 H   0  0  0  0  0  0  0  0  0  0  0  0
  -12.4194    2.1659    0.0000 H   0  0  0  0  0  0  0  0  0  0  0  0
  -12.6295    1.1669    0.0000 H   0  0  0  0  0  0  0  0  0  0  0  0
  -14.5287   -1.2682    0.0000 H   0  0  0  0  0  0  0  0  0  0  0  0
  -13.0314   -1.9220    0.0000 H   0  0  0  0  0  0  0  0  0  0  0  0
  -14.9035    2.0239    0.0000 H   0  0  0  0  0  0  0  0  0  0  0  0
  -13.2925    1.7519    0.0000 H   0  0  0  0  0  0  0  0  0  0  0  0
  -17.0187   -0.5265    0.0000 H   0  0  0  0  0  0  0  0  0  0  0  0
  -15.3428   -1.1394    0.0000 H   0  0  0  0  0  0  0  0  0  0  0  0
  -16.3692    2.8267    0.0000 H   0  0  0  0  0  0  0  0  0  0  0  0
  -20.7465    1.7829    0.0000 H   0  0  0  0  0  0  0  0  0  0  0  0
  -20.1438   -0.7443    0.0000 H   0  0  0  0  0  0  0  0  0  0  0  0
  -17.6539   -1.4860    0.0000 H   0  0  0  0  0  0  0  0  0  0  0  0
  -13.7042   -2.9613    0.0000 H   0  0  0  0  0  0  0  0  0  0  0  0
  -13.3409   -3.9152    0.0000 H   0  0  0  0  0  0  0  0  0  0  0  0
  -13.6220   -6.9906    0.0000 H   0  0  0  0  0  0  0  0  0  0  0  0
  -12.0089   -6.7311    0.0000 H   0  0  0  0  0  0  0  0  0  0  0  0
  -15.7172   -4.4237    0.0000 H   0  0  0  0  0  0  0  0  0  0  0  0
  -14.2148   -3.7816    0.0000 H   0  0  0  0  0  0  0  0  0  0  0  0
  -16.1177   -7.7128    0.0000 H   0  0  0  0  0  0  0  0  0  0  0  0
  -14.3765   -7.3223    0.0000 H   0  0  0  0  0  0  0  0  0  0  0  0
  -17.3843   -4.5408    0.0000 H   0  0  0  0  0  0  0  0  0  0  0  0
  -20.5023   -7.7854    0.0000 H   0  0  0  0  0  0  0  0  0  0  0  0
  -18.6290   -9.5856    0.0000 H   0  0  0  0  0  0  0  0  0  0  0  0
  -16.1333   -8.8634    0.0000 H   0  0  0  0  0  0  0  0  0  0  0  0
  -12.0131   -7.9691    0.0000 H   0  0  0  0  0  0  0  0  0  0  0  0
  -11.1917   -8.5752    0.0000 H   0  0  0  0  0  0  0  0  0  0  0  0
   -9.7656  -11.3144    0.0000 H   0  0  0  0  0  0  0  0  0  0  0  0
   -8.5488  -10.2240    0.0000 H   0  0  0  0  0  0  0  0  0  0  0  0
  -12.9159  -10.2877    0.0000 H   0  0  0  0  0  0  0  0  0  0  0  0
  -11.9992   -8.9353    0.0000 H   0  0  0  0  0  0  0  0  0  0  0  0
  -11.4746  -13.2712    0.0000 H   0  0  0  0  0  0  0  0  0  0  0  0
  -10.2209  -12.0014    0.0000 H   0  0  0  0  0  0  0  0  0  0  0  0
  -14.2550  -11.2875    0.0000 H   0  0  0  0  0  0  0  0  0  0  0  0
  -15.1239  -15.7028    0.0000 H   0  0  0  0  0  0  0  0  0  0  0  0
  -12.5747  -16.2045    0.0000 H   0  0  0  0  0  0  0  0  0  0  0  0
  -10.8657  -14.2476    0.0000 H   0  0  0  0  0  0  0  0  0  0  0  0
   -7.8830  -11.2677    0.0000 H   0  0  0  0  0  0  0  0  0  0  0  0
   -3.4307  -11.7401    0.0000 H   0  0  0  0  0  0  0  0  0  0  0  0
   -4.6785  -11.9085    0.0000 H   0  0  0  0  0  0  0  0  0  0  0  0
   -1.8549  -11.5218    0.0000 H   0  0  0  0  0  0  0  0  0  0  0  0
   -2.9078  -11.8058    0.0000 H   0  0  0  0  0  0  0  0  0  0  0  0
   -0.2085  -10.8917    0.0000 H   0  0  0  0  0  0  0  0  0  0  0  0
   -1.3718  -11.3736    0.0000 H   0  0  0  0  0  0  0  0  0  0  0  0
    1.2890   -9.9614    0.0000 H   0  0  0  0  0  0  0  0  0  0  0  0
    0.2379  -10.6547    0.0000 H   0  0  0  0  0  0  0  0  0  0  0  0
    2.5833   -8.7645    0.0000 H   0  0  0  0  0  0  0  0  0  0  0  0
    1.6825   -9.6442    0.0000 H   0  0  0  0  0  0  0  0  0  0  0  0
    3.6483   -7.1622    0.0000 H   0  0  0  0  0  0  0  0  0  0  0  0
    2.9097   -8.3786    0.0000 H   0  0  0  0  0  0  0  0  0  0  0  0
    4.2565   -6.3839    0.0000 H   0  0  0  0  0  0  0  0  0  0  0  0
   -6.4509  -12.9369    0.0000 H   0  0  0  0  0  0  0  0  0  0  0  0
   -7.9653  -12.3238    0.0000 H   0  0  0  0  0  0  0  0  0  0  0  0
   -7.9174  -10.5400    0.0000 H   0  0  0  0  0  0  0  0  0  0  0  0
   -3.1435  -13.3590    0.0000 H   0  0  0  0  0  0  0  0  0  0  0  0
  1  2  1  0
  2  3  1  0
  3  4  2  0
  4  5  1  0
  5  6  2  0
  6  7  1  0
  7  8  2  0
  7  9  1  0
  9 10  1  0
 10 11  1  0
 11 12  2  0
  9 13  1  0
 13 14  1  0
 14 15  2  0
 15 16  1  0
 16 17  2  0
 17 18  1  0
 16 19  1  0
 14 20  1  0
 20 21  1  0
 21 22  2  0
 22 23  1  0
 23 24  2  0
 24 25  1  0
 25 26  2  0
 25 27  1  0
  1 28  2  0
  1 29  1  0
 29 30  1  0
 30 31  1  0
 31 32  1  0
 32 33  2  0
 32 34  1  0
 35 34  1  1
 35 36  1  0
 36 37  1  0
 37 38  1  0
 38 39  1  0
 35 40  1  0
 35 41  1  0
 41 42  2  0
 41 43  1  0
 43 44  1  0
 44 45  1  0
 45 46  2  0
 45 47  1  0
 47 48  1  0
 48 49  1  0
 49 50  1  0
 50 51  1  0
 51 52  1  0
 52 53  1  0
 53 54  2  3
 53 55  1  0
 48 56  1  0
 56 57  2  0
 56 58  1  0
 58 59  1  0
 59 60  1  0
 60 61  1  0
 61 62  1  0
 62 63  1  0
 63 64  1  0
 59 65  1  0
 65 66  2  0
 65 67  1  0
 67 68  1  0
 68 69  1  0
 69 70  1  0
 70 71  1  0
 71 72  1  0
 68 73  1  0
 73 74  1  0
 74 75  1  0
 75 76  1  0
 68 77  1  0
 77 78  2  0
 77 79  1  0
 79 80  1  0
 80 81  1  0
 81 82  1  0
 82 83  1  0
 83 84  1  0
 84 85  1  0
 85 86  2  3
 85 87  1  0
 80 88  1  0
 88 89  2  0
 88 90  1  0
 90 91  1  0
 91 92  1  0
 92 93  1  0
 93 94  1  0
 94 95  1  0
 95 96  1  0
 96 97  2  3
 96 98  1  0
 91 99  1  0
 99100  2  0
 99101  1  0
101102  1  0
102103  1  0
103104  1  0
104105  1  0
105106  1  0
105107  2  0
102108  1  0
108109  2  0
108110  1  0
110111  1  0
111112  1  0
112113  1  0
113114  1  0
114115  1  0
115116  1  0
116117  2  3
116118  1  0
111119  1  0
119120  2  0
119121  1  0
121122  1  0
122123  1  0
123124  1  0
124125  1  0
125126  1  0
126127  1  0
127128  2  3
127129  1  0
122130  1  0
130131  2  0
130132  1  0
132133  1  0
133134  1  0
134135  1  0
135136  1  0
136137  1  0
137138  1  0
138139  2  3
138140  1  0
133141  1  0
141142  2  0
141143  1  0
143144  1  0
144145  1  0
145146  1  0
146147  1  0
147148  1  0
148149  1  0
149150  1  0
150151  1  0
144152  1  0
144153  1  1
153154  2  0
153155  1  0
  8  3  1  0
 11  6  1  0
 39 72  2  0
 18 13  2  0
 76151  2  0
 22  9  1  0
 26 21  1  0
  2156  1  0
  4157  1  0
  5158  1  0
  8159  1  0
 15160  1  0
 17161  1  0
 18162  1  0
 19163  1  0
 23164  1  0
 24165  1  0
 26166  1  0
 27167  1  0
 29168  1  0
 30169  1  0
 30170  1  0
 31171  1  0
 31172  1  0
 34173  1  0
 36174  1  0
 36175  1  0
 37176  1  0
 37177  1  0
 38178  1  0
 38179  1  0
 39180  1  0
 40181  1  0
 40182  1  0
 40183  1  0
 43184  1  0
 44185  1  0
 44186  1  0
 47187  1  0
 48188  1  6
 49189  1  0
 49190  1  0
 50191  1  0
 50192  1  0
 51193  1  0
 51194  1  0
 52195  1  0
 54196  1  0
 55197  1  0
 55198  1  0
 58199  1  0
 59200  1  6
 60201  1  0
 60202  1  0
 61203  1  0
 61204  1  0
 62205  1  0
 62206  1  0
 63207  1  0
 63208  1  0
 64209  1  0
 64210  1  0
 67211  1  0
 69212  1  0
 69213  1  0
 70214  1  0
 70215  1  0
 71216  1  0
 71217  1  0
 72218  1  0
 73219  1  0
 73220  1  0
 74221  1  0
 74222  1  0
 75223  1  0
 75224  1  0
 76225  1  0
 79226  1  0
 80227  1  6
 81228  1  0
 81229  1  0
 82230  1  0
 82231  1  0
 83232  1  0
 83233  1  0
 84234  1  0
 86235  1  0
 87236  1  0
 87237  1  0
 90238  1  0
 91239  1  6
 92240  1  0
 92241  1  0
 93242  1  0
 93243  1  0
 94244  1  0
 94245  1  0
 95246  1  0
 97247  1  0
 98248  1  0
 98249  1  0
101250  1  0
102251  1  6
103252  1  0
103253  1  0
104254  1  0
104255  1  0
106256  1  0
106257  1  0
110258  1  0
111259  1  6
112260  1  0
112261  1  0
113262  1  0
113263  1  0
114264  1  0
114265  1  0
115266  1  0
117267  1  0
118268  1  0
118269  1  0
121270  1  0
122271  1  6
123272  1  0
123273  1  0
124274  1  0
124275  1  0
125276  1  0
125277  1  0
126278  1  0
128279  1  0
129280  1  0
129281  1  0
132282  1  0
133283  1  6
134284  1  0
134285  1  0
135286  1  0
135287  1  0
136288  1  0
136289  1  0
137290  1  0
139291  1  0
140292  1  0
140293  1  0
143294  1  0
145295  1  0
145296  1  0
146297  1  0
146298  1  0
147299  1  0
147300  1  0
148301  1  0
148302  1  0
149303  1  0
149304  1  0
150305  1  0
150306  1  0
151307  1  0
152308  1  0
152309  1  0
152310  1  0
155311  1  0
M  END
