
     RDKit          2D

213216  0  0  0  0  0  0  0  0999 V2000
    8.6155   -9.9539    0.0000 N   0  0  0  0  0  0  0  0  0  0  0  0
    8.3807   -8.4724    0.0000 C   0  0  0  0  0  0  0  0  0  0  0  0
    9.5464   -7.5284    0.0000 C   0  0  0  0  0  0  0  0  0  0  0  0
    9.3116   -6.0469    0.0000 C   0  0  0  0  0  0  0  0  0  0  0  0
    7.9112   -5.5094    0.0000 O   0  0  0  0  0  0  0  0  0  0  0  0
   10.4773   -5.1028    0.0000 N   0  0  0  0  0  0  0  0  0  0  0  0
   10.2425   -3.6213    0.0000 C   0  0  0  0  0  0  0  0  0  0  0  0
   11.7423   -3.6474    0.0000 C   0  0  0  0  0  0  0  0  0  0  0  0
   12.4696   -4.9592    0.0000 C   0  0  0  0  0  0  0  0  0  0  0  0
   13.9694   -4.9853    0.0000 C   0  0  0  0  0  0  0  0  0  0  0  0
   14.6967   -6.2972    0.0000 N   0  0  0  0  0  0  0  0  0  0  0  0
   16.1964   -6.3233    0.0000 C   0  0  0  0  0  0  0  0  0  0  0  0
   16.9237   -7.6352    0.0000 N   0  0  0  0  0  0  0  0  0  0  0  0
   16.9689   -5.0375    0.0000 N   0  0  0  0  0  0  0  0  0  0  0  0
    9.5152   -2.3094    0.0000 C   0  0  0  0  0  0  0  0  0  0  0  0
    8.0155   -2.2833    0.0000 O   0  0  0  0  0  0  0  0  0  0  0  0
   10.2877   -1.0236    0.0000 N   0  0  0  0  0  0  0  0  0  0  0  0
    9.5604    0.2883    0.0000 C   0  0  0  0  0  0  0  0  0  0  0  0
   10.9787    0.7767    0.0000 C   0  0  0  0  0  0  0  0  0  0  0  0
   12.1108   -0.2073    0.0000 C   0  0  0  0  0  0  0  0  0  0  0  0
   13.5290    0.2812    0.0000 C   0  0  0  0  0  0  0  0  0  0  0  0
   13.8151    1.7536    0.0000 F   0  0  0  0  0  0  0  0  0  0  0  0
   14.6612   -0.7029    0.0000 C   0  0  0  0  0  0  0  0  0  0  0  0
   16.0794   -0.2144    0.0000 F   0  0  0  0  0  0  0  0  0  0  0  0
   14.3750   -2.1753    0.0000 C   0  0  0  0  0  0  0  0  0  0  0  0
   15.5072   -3.1593    0.0000 F   0  0  0  0  0  0  0  0  0  0  0  0
   12.9568   -2.6638    0.0000 C   0  0  0  0  0  0  0  0  0  0  0  0
   12.7250   -3.8565    0.0000 F   0  0  0  0  0  0  0  0  0  0  0  0
   11.8247   -1.6797    0.0000 C   0  0  0  0  0  0  0  0  0  0  0  0
   10.4064   -2.1682    0.0000 F   0  0  0  0  0  0  0  0  0  0  0  0
    8.4283    1.2723    0.0000 C   0  0  0  0  0  0  0  0  0  0  0  0
    8.8917    2.6989    0.0000 O   0  0  0  0  0  0  0  0  0  0  0  0
    7.0100    0.7839    0.0000 N   0  0  0  0  0  0  0  0  0  0  0  0
    5.8779    1.7679    0.0000 C   0  0  0  0  0  0  0  0  0  0  0  0
    7.0436    2.7119    0.0000 C   0  0  0  0  0  0  0  0  0  0  0  0
    6.8088    4.1934    0.0000 C   0  0  0  0  0  0  0  0  0  0  0  0
    7.9745    5.1375    0.0000 C   0  0  0  0  0  0  0  0  0  0  0  0
    7.7397    6.6190    0.0000 C   0  0  0  0  0  0  0  0  0  0  0  0
    8.9054    7.5631    0.0000 N   0  0  0  0  0  0  0  0  0  0  0  0
    4.4775    2.3053    0.0000 C   0  0  0  0  0  0  0  0  0  0  0  0
    4.4251    3.8044    0.0000 O   0  0  0  0  0  0  0  0  0  0  0  0
    3.3118    1.3613    0.0000 N   0  0  0  0  0  0  0  0  0  0  0  0
    1.9114    1.8987    0.0000 C   0  0  0  0  0  0  0  0  0  0  0  0
    1.9975    0.4012    0.0000 C   0  0  0  0  0  0  0  0  0  0  0  0
    1.6383   -1.0552    0.0000 C   0  0  0  0  0  0  0  0  0  0  0  0
    0.8659   -2.3410    0.0000 C   0  0  0  0  0  0  0  0  0  0  0  0
   -0.2513   -3.3419    0.0000 C   0  0  0  0  0  0  0  0  0  0  0  0
    2.9773    2.9542    0.0000 C   0  0  0  0  0  0  0  0  0  0  0  0
    1.3878    3.3044    0.0000 C   0  0  0  0  0  0  0  0  0  0  0  0
    2.6997    4.0317    0.0000 O   0  0  0  0  0  0  0  0  0  0  0  0
    0.4731    4.4932    0.0000 N   0  0  0  0  0  0  0  0  0  0  0  0
   -0.7514    5.3596    0.0000 C   0  0  0  0  0  0  0  0  0  0  0  0
   -0.9120    6.8510    0.0000 C   0  0  0  0  0  0  0  0  0  0  0  0
    0.2993    7.7358    0.0000 C   0  0  0  0  0  0  0  0  0  0  0  0
    0.1387    9.2271    0.0000 C   0  0  0  0  0  0  0  0  0  0  0  0
    1.3499   10.1119    0.0000 N   0  0  0  0  0  0  0  0  0  0  0  0
    1.1893   11.6033    0.0000 C   0  0  0  0  0  0  0  0  0  0  0  0
    2.4006   12.4881    0.0000 N   0  0  0  0  0  0  0  0  0  0  0  0
   -0.1826   12.2099    0.0000 N   0  0  0  0  0  0  0  0  0  0  0  0
   -2.1769    5.8266    0.0000 C   0  0  0  0  0  0  0  0  0  0  0  0
   -1.9275    7.3057    0.0000 O   0  0  0  0  0  0  0  0  0  0  0  0
   -3.6766    5.8527    0.0000 N   0  0  0  0  0  0  0  0  0  0  0  0
   -5.1175    5.4355    0.0000 C   0  0  0  0  0  0  0  0  0  0  0  0
   -6.3836    6.2398    0.0000 C   0  0  0  0  0  0  0  0  0  0  0  0
   -6.3201    7.7385    0.0000 C   0  0  0  0  0  0  0  0  0  0  0  0
   -7.5863    8.5428    0.0000 C   0  0  0  0  0  0  0  0  0  0  0  0
   -5.7479    9.1250    0.0000 C   0  0  0  0  0  0  0  0  0  0  0  0
   -6.3713    4.6122    0.0000 C   0  0  0  0  0  0  0  0  0  0  0  0
   -7.3723    5.7294    0.0000 O   0  0  0  0  0  0  0  0  0  0  0  0
   -7.3268    3.4559    0.0000 N   0  0  0  0  0  0  0  0  0  0  0  0
   -7.8990    2.0693    0.0000 C   0  0  0  0  0  0  0  0  0  0  0  0
   -9.3173    1.5809    0.0000 C   0  0  0  0  0  0  0  0  0  0  0  0
  -10.4494    2.5649    0.0000 C   0  0  0  0  0  0  0  0  0  0  0  0
  -10.1633    4.0374    0.0000 C   0  0  0  0  0  0  0  0  0  0  0  0
  -11.2954    5.0214    0.0000 C   0  0  0  0  0  0  0  0  0  0  0  0
  -12.7136    4.5330    0.0000 C   0  0  0  0  0  0  0  0  0  0  0  0
  -12.9998    3.0605    0.0000 C   0  0  0  0  0  0  0  0  0  0  0  0
  -11.8676    2.0765    0.0000 C   0  0  0  0  0  0  0  0  0  0  0  0
   -8.0371    0.5757    0.0000 C   0  0  0  0  0  0  0  0  0  0  0  0
   -9.5346    0.4896    0.0000 O   0  0  0  0  0  0  0  0  0  0  0  0
   -7.7288   -0.8923    0.0000 N   0  0  0  0  0  0  0  0  0  0  0  0
   -7.0015   -2.2041    0.0000 C   0  0  0  0  0  0  0  0  0  0  0  0
   -5.9198   -3.2434    0.0000 C   0  0  0  0  0  0  0  0  0  0  0  0
   -4.5799   -3.9176    0.0000 C   0  0  0  0  0  0  0  0  0  0  0  0
   -3.1008   -4.1669    0.0000 C   0  0  0  0  0  0  0  0  0  0  0  0
   -1.6138   -3.9692    0.0000 C   0  0  0  0  0  0  0  0  0  0  0  0
   -8.4964   -2.3275    0.0000 C   0  0  0  0  0  0  0  0  0  0  0  0
   -7.5039   -3.6175    0.0000 C   0  0  0  0  0  0  0  0  0  0  0  0
   -6.8362   -4.9607    0.0000 O   0  0  0  0  0  0  0  0  0  0  0  0
   -8.9791   -3.8891    0.0000 N   0  0  0  0  0  0  0  0  0  0  0  0
   -9.4815   -5.3025    0.0000 C   0  0  0  0  0  0  0  0  0  0  0  0
   -9.4701   -6.8024    0.0000 C   0  0  0  0  0  0  0  0  0  0  0  0
  -10.6612   -7.7142    0.0000 O   0  0  0  0  0  0  0  0  0  0  0  0
  -10.9567   -5.5741    0.0000 C   0  0  0  0  0  0  0  0  0  0  0  0
  -11.4590   -6.9875    0.0000 O   0  0  0  0  0  0  0  0  0  0  0  0
  -11.9295   -4.4323    0.0000 N   0  0  0  0  0  0  0  0  0  0  0  0
  -13.4047   -4.7039    0.0000 C   0  0  0  0  0  0  0  0  0  0  0  0
  -14.6980   -5.4637    0.0000 C   0  0  0  0  0  0  0  0  0  0  0  0
  -14.6867   -6.9637    0.0000 C   0  0  0  0  0  0  0  0  0  0  0  0
  -13.3821   -7.7039    0.0000 C   0  0  0  0  0  0  0  0  0  0  0  0
  -13.3707   -9.2038    0.0000 C   0  0  0  0  0  0  0  0  0  0  0  0
  -14.6641   -9.9636    0.0000 C   0  0  0  0  0  0  0  0  0  0  0  0
  -14.6528  -11.4636    0.0000 O   0  0  0  0  0  0  0  0  0  0  0  0
  -15.9687   -9.2234    0.0000 C   0  0  0  0  0  0  0  0  0  0  0  0
  -15.9801   -7.7235    0.0000 C   0  0  0  0  0  0  0  0  0  0  0  0
  -14.3775   -3.5622    0.0000 C   0  0  0  0  0  0  0  0  0  0  0  0
  -15.8748   -3.6519    0.0000 O   0  0  0  0  0  0  0  0  0  0  0  0
  -13.8751   -2.1488    0.0000 O   0  0  0  0  0  0  0  0  0  0  0  0
    7.4498  -10.8980    0.0000 H   0  0  0  0  0  0  0  0  0  0  0  0
   10.0159  -10.4914    0.0000 H   0  0  0  0  0  0  0  0  0  0  0  0
    6.9625   -8.9609    0.0000 H   0  0  0  0  0  0  0  0  0  0  0  0
    7.6534   -7.1605    0.0000 H   0  0  0  0  0  0  0  0  0  0  0  0
   10.2737   -8.8403    0.0000 H   0  0  0  0  0  0  0  0  0  0  0  0
   10.9646   -7.0399    0.0000 H   0  0  0  0  0  0  0  0  0  0  0  0
   11.8017   -5.8070    0.0000 H   0  0  0  0  0  0  0  0  0  0  0  0
    8.8243   -4.1097    0.0000 H   0  0  0  0  0  0  0  0  0  0  0  0
   12.5220   -3.4816    0.0000 H   0  0  0  0  0  0  0  0  0  0  0  0
   11.1560   -2.2667    0.0000 H   0  0  0  0  0  0  0  0  0  0  0  0
   12.7043   -6.4408    0.0000 H   0  0  0  0  0  0  0  0  0  0  0  0
   11.3207   -5.9236    0.0000 H   0  0  0  0  0  0  0  0  0  0  0  0
   15.3876   -4.4969    0.0000 H   0  0  0  0  0  0  0  0  0  0  0  0
   13.9170   -3.4862    0.0000 H   0  0  0  0  0  0  0  0  0  0  0  0
   13.9242   -7.5830    0.0000 H   0  0  0  0  0  0  0  0  0  0  0  0
   18.4235   -7.6613    0.0000 H   0  0  0  0  0  0  0  0  0  0  0  0
   16.1513   -8.9210    0.0000 H   0  0  0  0  0  0  0  0  0  0  0  0
   18.4687   -5.0636    0.0000 H   0  0  0  0  0  0  0  0  0  0  0  0
   16.2416   -3.7256    0.0000 H   0  0  0  0  0  0  0  0  0  0  0  0
   11.7366   -1.4118    0.0000 H   0  0  0  0  0  0  0  0  0  0  0  0
    8.3947   -0.6558    0.0000 H   0  0  0  0  0  0  0  0  0  0  0  0
   12.1443    1.7208    0.0000 H   0  0  0  0  0  0  0  0  0  0  0  0
   10.2514    2.0886    0.0000 H   0  0  0  0  0  0  0  0  0  0  0  0
    6.7239   -0.6886    0.0000 H   0  0  0  0  0  0  0  0  0  0  0  0
    5.1054    0.4821    0.0000 H   0  0  0  0  0  0  0  0  0  0  0  0
    8.4618    3.2004    0.0000 H   0  0  0  0  0  0  0  0  0  0  0  0
    8.0667    1.6150    0.0000 H   0  0  0  0  0  0  0  0  0  0  0  0
    5.9270    5.4069    0.0000 H   0  0  0  0  0  0  0  0  0  0  0  0
    5.3906    3.7050    0.0000 H   0  0  0  0  0  0  0  0  0  0  0  0
    9.4417    5.4494    0.0000 H   0  0  0  0  0  0  0  0  0  0  0  0
    8.8563    3.9241    0.0000 H   0  0  0  0  0  0  0  0  0  0  0  0
    7.0124    7.9309    0.0000 H   0  0  0  0  0  0  0  0  0  0  0  0
    6.2725    6.3071    0.0000 H   0  0  0  0  0  0  0  0  0  0  0  0
    8.6706    9.0446    0.0000 H   0  0  0  0  0  0  0  0  0  0  0  0
   10.3236    8.0515    0.0000 H   0  0  0  0  0  0  0  0  0  0  0  0
    9.7872    6.3496    0.0000 H   0  0  0  0  0  0  0  0  0  0  0  0
    3.8981   -0.0194    0.0000 H   0  0  0  0  0  0  0  0  0  0  0  0
    3.4556    0.7532    0.0000 H   0  0  0  0  0  0  0  0  0  0  0  0
    3.1773   -0.5251    0.0000 H   0  0  0  0  0  0  0  0  0  0  0  0
    3.1354   -1.1486    0.0000 H   0  0  0  0  0  0  0  0  0  0  0  0
    2.6366   -2.1748    0.0000 H   0  0  0  0  0  0  0  0  0  0  0  0
    2.3231   -2.6965    0.0000 H   0  0  0  0  0  0  0  0  0  0  0  0
    1.3188   -3.7709    0.0000 H   0  0  0  0  0  0  0  0  0  0  0  0
    0.5720   -4.5958    0.0000 H   0  0  0  0  0  0  0  0  0  0  0  0
    4.4769    2.9207    0.0000 H   0  0  0  0  0  0  0  0  0  0  0  0
    3.4478    4.3785    0.0000 H   0  0  0  0  0  0  0  0  0  0  0  0
    1.9989    4.0911    0.0000 H   0  0  0  0  0  0  0  0  0  0  0  0
    1.5123    5.5749    0.0000 H   0  0  0  0  0  0  0  0  0  0  0  0
    0.6249    5.9561    0.0000 H   0  0  0  0  0  0  0  0  0  0  0  0
   -1.7322    8.1069    0.0000 H   0  0  0  0  0  0  0  0  0  0  0  0
   -2.4110    6.7949    0.0000 H   0  0  0  0  0  0  0  0  0  0  0  0
    1.7401    8.1529    0.0000 H   0  0  0  0  0  0  0  0  0  0  0  0
    1.1195    6.4799    0.0000 H   0  0  0  0  0  0  0  0  0  0  0  0
   -0.5223   10.5736    0.0000 H   0  0  0  0  0  0  0  0  0  0  0  0
   -1.3423    8.9887    0.0000 H   0  0  0  0  0  0  0  0  0  0  0  0
    2.7218    9.5053    0.0000 H   0  0  0  0  0  0  0  0  0  0  0  0
    2.2400   13.9794    0.0000 H   0  0  0  0  0  0  0  0  0  0  0  0
    3.7725   11.8815    0.0000 H   0  0  0  0  0  0  0  0  0  0  0  0
   -0.3432   13.7013    0.0000 H   0  0  0  0  0  0  0  0  0  0  0  0
   -1.3938   11.3251    0.0000 H   0  0  0  0  0  0  0  0  0  0  0  0
   -3.8744    7.3396    0.0000 H   0  0  0  0  0  0  0  0  0  0  0  0
   -4.7257    6.8835    0.0000 H   0  0  0  0  0  0  0  0  0  0  0  0
   -7.8769    6.3816    0.0000 H   0  0  0  0  0  0  0  0  0  0  0  0
   -7.2743    5.0329    0.0000 H   0  0  0  0  0  0  0  0  0  0  0  0
   -4.8268    7.5967    0.0000 H   0  0  0  0  0  0  0  0  0  0  0  0
   -7.7060   10.0380    0.0000 H   0  0  0  0  0  0  0  0  0  0  0  0
   -9.0511    8.8655    0.0000 H   0  0  0  0  0  0  0  0  0  0  0  0
   -8.3232    7.2363    0.0000 H   0  0  0  0  0  0  0  0  0  0  0  0
   -6.5109   10.4165    0.0000 H   0  0  0  0  0  0  0  0  0  0  0  0
   -4.7360   10.2323    0.0000 H   0  0  0  0  0  0  0  0  0  0  0  0
   -4.4818    8.3208    0.0000 H   0  0  0  0  0  0  0  0  0  0  0  0
   -8.5089    4.3794    0.0000 H   0  0  0  0  0  0  0  0  0  0  0  0
   -8.9275    3.1612    0.0000 H   0  0  0  0  0  0  0  0  0  0  0  0
  -10.4829    0.6368    0.0000 H   0  0  0  0  0  0  0  0  0  0  0  0
   -8.9290    0.1320    0.0000 H   0  0  0  0  0  0  0  0  0  0  0  0
   -8.8151    4.6951    0.0000 H   0  0  0  0  0  0  0  0  0  0  0  0
  -11.0093    6.4939    0.0000 H   0  0  0  0  0  0  0  0  0  0  0  0
  -13.8458    5.5170    0.0000 H   0  0  0  0  0  0  0  0  0  0  0  0
  -14.4180    2.5720    0.0000 H   0  0  0  0  0  0  0  0  0  0  0  0
  -12.1537    0.6040    0.0000 H   0  0  0  0  0  0  0  0  0  0  0  0
   -9.1344   -1.4159    0.0000 H   0  0  0  0  0  0  0  0  0  0  0  0
   -5.9833   -4.7420    0.0000 H   0  0  0  0  0  0  0  0  0  0  0  0
   -7.1354   -4.1222    0.0000 H   0  0  0  0  0  0  0  0  0  0  0  0
   -4.3785   -5.4040    0.0000 H   0  0  0  0  0  0  0  0  0  0  0  0
   -5.4825   -5.1156    0.0000 H   0  0  0  0  0  0  0  0  0  0  0  0
   -2.3090   -5.4409    0.0000 H   0  0  0  0  0  0  0  0  0  0  0  0
   -3.7783   -5.5052    0.0000 H   0  0  0  0  0  0  0  0  0  0  0  0
   -1.1967   -5.4100    0.0000 H   0  0  0  0  0  0  0  0  0  0  0  0
   -9.4462   -3.4885    0.0000 H   0  0  0  0  0  0  0  0  0  0  0  0
   -9.8844   -1.7587    0.0000 H   0  0  0  0  0  0  0  0  0  0  0  0
   -8.7238   -0.8449    0.0000 H   0  0  0  0  0  0  0  0  0  0  0  0
  -10.0838   -2.8745    0.0000 H   0  0  0  0  0  0  0  0  0  0  0  0
   -8.0023   -5.5518    0.0000 H   0  0  0  0  0  0  0  0  0  0  0  0
   -8.9465   -8.2081    0.0000 H   0  0  0  0  0  0  0  0  0  0  0  0
   -7.9949   -6.5308    0.0000 H   0  0  0  0  0  0  0  0  0  0  0  0
  -10.7522   -9.0622    0.0000 H   0  0  0  0  0  0  0  0  0  0  0  0
  -11.4271   -3.0190    0.0000 H   0  0  0  0  0  0  0  0  0  0  0  0
  -12.8810   -6.1096    0.0000 H   0  0  0  0  0  0  0  0  0  0  0  0
  -16.1732   -5.7353    0.0000 H   0  0  0  0  0  0  0  0  0  0  0  0
  -15.3891   -4.1324    0.0000 H   0  0  0  0  0  0  0  0  0  0  0  0
  -12.0057   -7.1074    0.0000 H   0  0  0  0  0  0  0  0  0  0  0  0
  -12.0661   -9.9440    0.0000 H   0  0  0  0  0  0  0  0  0  0  0  0
  -15.9461  -12.2233    0.0000 H   0  0  0  0  0  0  0  0  0  0  0  0
  -17.2621   -9.9832    0.0000 H   0  0  0  0  0  0  0  0  0  0  0  0
  -17.2847   -6.9833    0.0000 H   0  0  0  0  0  0  0  0  0  0  0  0
  1  2  1  0
  2  3  1  0
  3  4  1  0
  4  5  2  0
  4  6  1  0
  6  7  1  0
  7  8  1  0
  8  9  1  0
  9 10  1  0
 10 11  1  0
 11 12  1  0
 12 13  2  3
 12 14  1  0
  7 15  1  0
 15 16  2  0
 15 17  1  0
 17 18  1  0
 18 19  1  0
 19 20  1  0
 20 21  2  0
 21 22  1  0
 21 23  1  0
 23 24  1  0
 23 25  2  0
 25 26  1  0
 25 27  1  0
 27 28  1  0
 27 29  2  0
 29 30  1  0
 18 31  1  0
 31 32  2  0
 31 33  1  0
 33 34  1  0
 34 35  1  0
 35 36  1  0
 36 37  1  0
 37 38  1  0
 38 39  1  0
 34 40  1  0
 40 41  2  0
 40 42  1  0
 43 42  1  1
 43 44  1  0
 44 45  1  0
 45 46  1  0
 46 47  1  0
 43 48  1  0
 43 49  1  0
 49 50  2  0
 49 51  1  0
 51 52  1  0
 52 53  1  0
 53 54  1  0
 54 55  1  0
 55 56  1  0
 56 57  1  0
 57 58  2  3
 57 59  1  0
 52 60  1  0
 60 61  2  0
 60 62  1  0
 62 63  1  0
 63 64  1  0
 64 65  1  0
 65 66  1  0
 65 67  1  0
 63 68  1  0
 68 69  2  0
 68 70  1  0
 70 71  1  0
 71 72  1  0
 72 73  1  0
 73 74  2  0
 74 75  1  0
 75 76  2  0
 76 77  1  0
 77 78  2  0
 71 79  1  0
 79 80  2  0
 79 81  1  0
 81 82  1  0
 82 83  1  0
 83 84  1  0
 84 85  1  0
 85 86  1  0
 82 87  1  0
 82 88  1  1
 88 89  2  0
 88 90  1  0
 90 91  1  0
 91 92  1  0
 92 93  1  0
 91 94  1  0
 94 95  2  0
 94 96  1  0
 96 97  1  0
 97 98  1  0
 98 99  1  0
 99100  2  0
100101  1  0
101102  2  0
102103  1  0
102104  1  0
104105  2  0
 97106  1  0
106107  2  0
106108  1  0
 29 20  1  0
 78 73  1  0
105 99  1  0
 47 86  2  0
  1109  1  0
  1110  1  0
  2111  1  0
  2112  1  0
  3113  1  0
  3114  1  0
  6115  1  0
  7116  1  6
  8117  1  0
  8118  1  0
  9119  1  0
  9120  1  0
 10121  1  0
 10122  1  0
 11123  1  0
 13124  1  0
 13125  1  0
 14126  1  0
 14127  1  0
 17128  1  0
 18129  1  1
 19130  1  0
 19131  1  0
 33132  1  0
 34133  1  6
 35134  1  0
 35135  1  0
 36136  1  0
 36137  1  0
 37138  1  0
 37139  1  0
 38140  1  0
 38141  1  0
 39142  1  0
 39143  1  0
 39144  1  0
 42145  1  0
 44146  1  0
 44147  1  0
 45148  1  0
 45149  1  0
 46150  1  0
 46151  1  0
 47152  1  0
 48153  1  0
 48154  1  0
 48155  1  0
 51156  1  0
 52157  1  6
 53158  1  0
 53159  1  0
 54160  1  0
 54161  1  0
 55162  1  0
 55163  1  0
 56164  1  0
 58165  1  0
 58166  1  0
 59167  1  0
 59168  1  0
 62169  1  0
 63170  1  6
 64171  1  0
 64172  1  0
 65173  1  0
 66174  1  0
 66175  1  0
 66176  1  0
 67177  1  0
 67178  1  0
 67179  1  0
 70180  1  0
 71181  1  6
 72182  1  0
 72183  1  0
 74184  1  0
 75185  1  0
 76186  1  0
 77187  1  0
 78188  1  0
 81189  1  0
 83190  1  0
 83191  1  0
 84192  1  0
 84193  1  0
 85194  1  0
 85195  1  0
 86196  1  0
 87197  1  0
 87198  1  0
 87199  1  0
 90200  1  0
 91201  1  1
 92202  1  0
 92203  1  0
 93204  1  0
 96205  1  0
 97206  1  1
 98207  1  0
 98208  1  0
100209  1  0
101210  1  0
103211  1  0
104212  1  0
105213  1  0
M  CHG  4  13   1  39   1  58   1 108  -1
M  END
