
     RDKit          2D

338344  0  0  0  0  0  0  0  0999 V2000
  -29.3288   -2.1910    0.0000 C   0  0  0  0  0  0  0  0  0  0  0  0
  -30.4733   -3.1607    0.0000 N   0  0  0  0  0  0  0  0  0  0  0  0
  -31.8853   -2.6543    0.0000 C   0  0  0  0  0  0  0  0  0  0  0  0
  -32.1527   -1.1783    0.0000 C   0  0  0  0  0  0  0  0  0  0  0  0
  -33.5647   -0.6720    0.0000 C   0  0  0  0  0  0  0  0  0  0  0  0
  -34.7092   -1.6416    0.0000 C   0  0  0  0  0  0  0  0  0  0  0  0
  -34.4417   -3.1176    0.0000 C   0  0  0  0  0  0  0  0  0  0  0  0
  -33.0297   -3.6239    0.0000 C   0  0  0  0  0  0  0  0  0  0  0  0
  -35.7628   -3.8280    0.0000 C   0  0  0  0  0  0  0  0  0  0  0  0
  -36.8467   -2.7912    0.0000 O   0  0  0  0  0  0  0  0  0  0  0  0
  -36.1955   -1.4399    0.0000 C   0  0  0  0  0  0  0  0  0  0  0  0
  -36.9060   -0.1188    0.0000 O   0  0  0  0  0  0  0  0  0  0  0  0
  -37.1509   -4.3965    0.0000 C   0  0  0  0  0  0  0  0  0  0  0  0
  -37.3526   -5.8829    0.0000 C   0  0  0  0  0  0  0  0  0  0  0  0
  -38.7407   -6.4514    0.0000 C   0  0  0  0  0  0  0  0  0  0  0  0
  -39.9271   -5.5335    0.0000 C   0  0  0  0  0  0  0  0  0  0  0  0
  -39.7253   -4.0472    0.0000 C   0  0  0  0  0  0  0  0  0  0  0  0
  -38.3372   -3.4787    0.0000 C   0  0  0  0  0  0  0  0  0  0  0  0
  -41.3152   -6.1020    0.0000 O   0  0  0  0  0  0  0  0  0  0  0  0
  -36.1662   -6.8008    0.0000 O   0  0  0  0  0  0  0  0  0  0  0  0
  -34.7781   -6.2323    0.0000 C   0  0  0  0  0  0  0  0  0  0  0  0
  -34.5764   -4.7459    0.0000 C   0  0  0  0  0  0  0  0  0  0  0  0
  -33.2824   -4.8711    0.0000 C   0  0  0  0  0  0  0  0  0  0  0  0
  -32.6497   -5.3606    0.0000 C   0  0  0  0  0  0  0  0  0  0  0  0
  -32.7573   -6.1533    0.0000 C   0  0  0  0  0  0  0  0  0  0  0  0
  -33.4976   -6.4565    0.0000 C   0  0  0  0  0  0  0  0  0  0  0  0
  -31.0172   -7.4996    0.0000 O   0  0  0  0  0  0  0  0  0  0  0  0
  -29.5963   -0.7151    0.0000 S   0  0  0  0  0  0  0  0  0  0  0  0
  -27.9169   -2.6974    0.0000 N   0  0  0  0  0  0  0  0  0  0  0  0
  -26.7724   -1.7278    0.0000 C   0  0  0  0  0  0  0  0  0  0  0  0
  -25.3604   -2.2341    0.0000 C   0  0  0  0  0  0  0  0  0  0  0  0
  -24.2159   -1.2645    0.0000 C   0  0  0  0  0  0  0  0  0  0  0  0
  -24.4834    0.2115    0.0000 O   0  0  0  0  0  0  0  0  0  0  0  0
  -22.8040   -1.7708    0.0000 N   0  0  0  0  0  0  0  0  0  0  0  0
  -21.6595   -0.8012    0.0000 C   0  0  0  0  0  0  0  0  0  0  0  0
  -20.9157    0.5013    0.0000 C   0  0  0  0  0  0  0  0  0  0  0  0
  -19.4277    0.6912    0.0000 C   0  0  0  0  0  0  0  0  0  0  0  0
  -20.6622    1.9798    0.0000 C   0  0  0  0  0  0  0  0  0  0  0  0
  -21.8158    2.9385    0.0000 C   0  0  0  0  0  0  0  0  0  0  0  0
  -20.2475   -1.3076    0.0000 C   0  0  0  0  0  0  0  0  0  0  0  0
  -19.9801   -2.7835    0.0000 O   0  0  0  0  0  0  0  0  0  0  0  0
  -19.1031   -0.3380    0.0000 N   0  0  0  0  0  0  0  0  0  0  0  0
  -17.6911   -0.8443    0.0000 C   0  0  0  0  0  0  0  0  0  0  0  0
  -16.5375   -1.8030    0.0000 C   0  0  0  0  0  0  0  0  0  0  0  0
  -16.7910   -3.2815    0.0000 C   0  0  0  0  0  0  0  0  0  0  0  0
  -15.6373   -4.2402    0.0000 C   0  0  0  0  0  0  0  0  0  0  0  0
  -17.5348   -4.5840    0.0000 C   0  0  0  0  0  0  0  0  0  0  0  0
  -16.5466    0.1253    0.0000 C   0  0  0  0  0  0  0  0  0  0  0  0
  -16.8141    1.6013    0.0000 O   0  0  0  0  0  0  0  0  0  0  0  0
  -15.1347   -0.3810    0.0000 N   0  0  0  0  0  0  0  0  0  0  0  0
  -13.9902    0.5886    0.0000 C   0  0  0  0  0  0  0  0  0  0  0  0
  -13.2463    1.8912    0.0000 C   0  0  0  0  0  0  0  0  0  0  0  0
  -11.7464    1.8983    0.0000 C   0  0  0  0  0  0  0  0  0  0  0  0
  -11.0025    3.2008    0.0000 C   0  0  0  0  0  0  0  0  0  0  0  0
   -9.5025    3.2079    0.0000 C   0  0  0  0  0  0  0  0  0  0  0  0
   -8.7587    4.5105    0.0000 N   0  0  0  0  0  0  0  0  0  0  0  0
  -12.5782    0.0822    0.0000 C   0  0  0  0  0  0  0  0  0  0  0  0
  -12.3108   -1.3937    0.0000 O   0  0  0  0  0  0  0  0  0  0  0  0
  -11.4337    1.0518    0.0000 N   0  0  0  0  0  0  0  0  0  0  0  0
  -10.0218    0.5455    0.0000 C   0  0  0  0  0  0  0  0  0  0  0  0
   -8.8682   -0.4132    0.0000 C   0  0  0  0  0  0  0  0  0  0  0  0
   -8.8773    1.5151    0.0000 C   0  0  0  0  0  0  0  0  0  0  0  0
   -8.7982    2.7275    0.0000 O   0  0  0  0  0  0  0  0  0  0  0  0
   -7.4653    1.0088    0.0000 N   0  0  0  0  0  0  0  0  0  0  0  0
   -6.3209    1.9784    0.0000 C   0  0  0  0  0  0  0  0  0  0  0  0
   -5.5770    3.2810    0.0000 C   0  0  0  0  0  0  0  0  0  0  0  0
   -4.2560    3.9916    0.0000 O   0  0  0  0  0  0  0  0  0  0  0  0
   -4.9089    1.4720    0.0000 C   0  0  0  0  0  0  0  0  0  0  0  0
   -4.8233   -0.0255    0.0000 O   0  0  0  0  0  0  0  0  0  0  0  0
   -3.7644    2.4416    0.0000 N   0  0  0  0  0  0  0  0  0  0  0  0
   -2.3525    1.9353    0.0000 C   0  0  0  0  0  0  0  0  0  0  0  0
   -1.7978    0.5416    0.0000 C   0  0  0  0  0  0  0  0  0  0  0  0
   -0.8571   -0.6267    0.0000 C   0  0  0  0  0  0  0  0  0  0  0  0
    0.3863   -1.4658    0.0000 C   0  0  0  0  0  0  0  0  0  0  0  0
    1.8217   -1.9011    0.0000 C   0  0  0  0  0  0  0  0  0  0  0  0
   -3.5184    0.9916    0.0000 C   0  0  0  0  0  0  0  0  0  0  0  0
   -2.4716    3.4306    0.0000 C   0  0  0  0  0  0  0  0  0  0  0  0
   -3.3139    3.7045    0.0000 O   0  0  0  0  0  0  0  0  0  0  0  0
   -2.1448    4.8945    0.0000 N   0  0  0  0  0  0  0  0  0  0  0  0
   -1.4010    6.1971    0.0000 C   0  0  0  0  0  0  0  0  0  0  0  0
   -1.8854    7.6167    0.0000 C   0  0  0  0  0  0  0  0  0  0  0  0
   -3.3571    7.9070    0.0000 C   0  0  0  0  0  0  0  0  0  0  0  0
   -3.8415    9.3266    0.0000 O   0  0  0  0  0  0  0  0  0  0  0  0
   -4.3443    6.7776    0.0000 O   0  0  0  0  0  0  0  0  0  0  0  0
   -0.3062    7.2226    0.0000 C   0  0  0  0  0  0  0  0  0  0  0  0
   -1.1571    8.4579    0.0000 O   0  0  0  0  0  0  0  0  0  0  0  0
    1.0421    7.8798    0.0000 N   0  0  0  0  0  0  0  0  0  0  0  0
    2.5243    8.1104    0.0000 C   0  0  0  0  0  0  0  0  0  0  0  0
    3.3321    9.3742    0.0000 C   0  0  0  0  0  0  0  0  0  0  0  0
    2.6415   10.7058    0.0000 C   0  0  0  0  0  0  0  0  0  0  0  0
    3.4493   11.9697    0.0000 C   0  0  0  0  0  0  0  0  0  0  0  0
    2.7587   13.3012    0.0000 C   0  0  0  0  0  0  0  0  0  0  0  0
    1.2602   13.3689    0.0000 C   0  0  0  0  0  0  0  0  0  0  0  0
    0.5696   14.7004    0.0000 O   0  0  0  0  0  0  0  0  0  0  0  0
    0.4524   12.1050    0.0000 C   0  0  0  0  0  0  0  0  0  0  0  0
    1.1430   10.7735    0.0000 C   0  0  0  0  0  0  0  0  0  0  0  0
    4.0086    7.8938    0.0000 C   0  0  0  0  0  0  0  0  0  0  0  0
    4.4439    9.3293    0.0000 O   0  0  0  0  0  0  0  0  0  0  0  0
    5.3631    7.2494    0.0000 N   0  0  0  0  0  0  0  0  0  0  0  0
    6.4675    6.2344    0.0000 C   0  0  0  0  0  0  0  0  0  0  0  0
    7.9593    6.3908    0.0000 C   0  0  0  0  0  0  0  0  0  0  0  0
    8.3982    7.8252    0.0000 C   0  0  0  0  0  0  0  0  0  0  0  0
    9.4147    6.0276    0.0000 C   0  0  0  0  0  0  0  0  0  0  0  0
   10.4569    7.1063    0.0000 C   0  0  0  0  0  0  0  0  0  0  0  0
    7.2237    4.9389    0.0000 C   0  0  0  0  0  0  0  0  0  0  0  0
    8.6746    5.3195    0.0000 O   0  0  0  0  0  0  0  0  0  0  0  0
    7.5644    3.4781    0.0000 N   0  0  0  0  0  0  0  0  0  0  0  0
    7.4594    1.9818    0.0000 C   0  0  0  0  0  0  0  0  0  0  0  0
    6.9180    0.5829    0.0000 C   0  0  0  0  0  0  0  0  0  0  0  0
    5.9883   -0.5943    0.0000 C   0  0  0  0  0  0  0  0  0  0  0  0
    4.7530   -1.4451    0.0000 C   0  0  0  0  0  0  0  0  0  0  0  0
    3.3217   -1.8940    0.0000 C   0  0  0  0  0  0  0  0  0  0  0  0
    8.8664    2.5015    0.0000 C   0  0  0  0  0  0  0  0  0  0  0  0
    8.5118    0.9130    0.0000 C   0  0  0  0  0  0  0  0  0  0  0  0
    8.4741   -0.5866    0.0000 O   0  0  0  0  0  0  0  0  0  0  0  0
    9.9636    1.2900    0.0000 N   0  0  0  0  0  0  0  0  0  0  0  0
   11.0161    0.2212    0.0000 C   0  0  0  0  0  0  0  0  0  0  0  0
   11.6395   -1.1432    0.0000 C   0  0  0  0  0  0  0  0  0  0  0  0
   10.7696   -2.3652    0.0000 C   0  0  0  0  0  0  0  0  0  0  0  0
   11.3930   -3.7295    0.0000 C   0  0  0  0  0  0  0  0  0  0  0  0
   10.5232   -4.9516    0.0000 C   0  0  0  0  0  0  0  0  0  0  0  0
   11.1466   -6.3159    0.0000 N   0  0  0  0  0  0  0  0  0  0  0  0
   12.4679    0.5982    0.0000 C   0  0  0  0  0  0  0  0  0  0  0  0
   12.8673    2.0440    0.0000 O   0  0  0  0  0  0  0  0  0  0  0  0
   13.5203   -0.4706    0.0000 N   0  0  0  0  0  0  0  0  0  0  0  0
   14.9722   -0.0936    0.0000 C   0  0  0  0  0  0  0  0  0  0  0  0
   16.2075    0.7572    0.0000 C   0  0  0  0  0  0  0  0  0  0  0  0
   17.5620    0.1128    0.0000 C   0  0  0  0  0  0  0  0  0  0  0  0
   18.7974    0.9636    0.0000 C   0  0  0  0  0  0  0  0  0  0  0  0
   18.6145   -0.9560    0.0000 C   0  0  0  0  0  0  0  0  0  0  0  0
   16.0246   -1.1625    0.0000 C   0  0  0  0  0  0  0  0  0  0  0  0
   15.6252   -2.6083    0.0000 O   0  0  0  0  0  0  0  0  0  0  0  0
   17.4765   -0.7854    0.0000 N   0  0  0  0  0  0  0  0  0  0  0  0
   18.5289   -1.8543    0.0000 C   0  0  0  0  0  0  0  0  0  0  0  0
   19.1523   -3.2186    0.0000 C   0  0  0  0  0  0  0  0  0  0  0  0
   18.2825   -4.4406    0.0000 C   0  0  0  0  0  0  0  0  0  0  0  0
   18.9059   -5.8049    0.0000 C   0  0  0  0  0  0  0  0  0  0  0  0
   18.0360   -7.0270    0.0000 N   0  0  0  0  0  0  0  0  0  0  0  0
   20.3991   -5.9472    0.0000 O   0  0  0  0  0  0  0  0  0  0  0  0
   19.9807   -1.4772    0.0000 C   0  0  0  0  0  0  0  0  0  0  0  0
   20.5534   -0.0909    0.0000 O   0  0  0  0  0  0  0  0  0  0  0  0
   21.0332   -2.5461    0.0000 N   0  0  0  0  0  0  0  0  0  0  0  0
   22.4850   -2.1690    0.0000 C   0  0  0  0  0  0  0  0  0  0  0  0
   23.7204   -1.3182    0.0000 C   0  0  0  0  0  0  0  0  0  0  0  0
   25.0749   -1.9626    0.0000 C   0  0  0  0  0  0  0  0  0  0  0  0
   26.3102   -1.1118    0.0000 C   0  0  0  0  0  0  0  0  0  0  0  0
   27.6647   -1.7562    0.0000 N   0  0  0  0  0  0  0  0  0  0  0  0
   28.9001   -0.9054    0.0000 C   0  0  0  0  0  0  0  0  0  0  0  0
   30.1659   -1.7101    0.0000 N   0  0  0  0  0  0  0  0  0  0  0  0
   28.7809    0.5899    0.0000 N   0  0  0  0  0  0  0  0  0  0  0  0
   23.5374   -3.2379    0.0000 C   0  0  0  0  0  0  0  0  0  0  0  0
   23.1380   -4.6837    0.0000 O   0  0  0  0  0  0  0  0  0  0  0  0
   24.9893   -2.8609    0.0000 N   0  0  0  0  0  0  0  0  0  0  0  0
   26.0417   -3.9297    0.0000 C   0  0  0  0  0  0  0  0  0  0  0  0
   26.6651   -5.2940    0.0000 C   0  0  0  0  0  0  0  0  0  0  0  0
   25.7953   -6.5160    0.0000 C   0  0  0  0  0  0  0  0  0  0  0  0
   26.4187   -7.8804    0.0000 C   0  0  0  0  0  0  0  0  0  0  0  0
   25.5489   -9.1024    0.0000 O   0  0  0  0  0  0  0  0  0  0  0  0
   27.9119   -8.0226    0.0000 O   0  0  0  0  0  0  0  0  0  0  0  0
   27.4936   -3.5527    0.0000 C   0  0  0  0  0  0  0  0  0  0  0  0
   28.0311   -2.6004    0.0000 O   0  0  0  0  0  0  0  0  0  0  0  0
   28.5460   -4.6215    0.0000 N   0  0  0  0  0  0  0  0  0  0  0  0
   29.9978   -4.2445    0.0000 C   0  0  0  0  0  0  0  0  0  0  0  0
   31.2332   -3.3936    0.0000 C   0  0  0  0  0  0  0  0  0  0  0  0
   32.5877   -4.0380    0.0000 C   0  0  0  0  0  0  0  0  0  0  0  0
   33.8230   -3.1872    0.0000 C   0  0  0  0  0  0  0  0  0  0  0  0
   35.1776   -3.8316    0.0000 N   0  0  0  0  0  0  0  0  0  0  0  0
   33.7039   -1.6919    0.0000 O   0  0  0  0  0  0  0  0  0  0  0  0
   31.0503   -5.3133    0.0000 C   0  0  0  0  0  0  0  0  0  0  0  0
   32.5373   -5.1161    0.0000 O   0  0  0  0  0  0  0  0  0  0  0  0
   30.6509   -6.7591    0.0000 O   0  0  0  0  0  0  0  0  0  0  0  0
  -30.0279   -4.5930    0.0000 H   0  0  0  0  0  0  0  0  0  0  0  0
  -31.0082   -0.2087    0.0000 H   0  0  0  0  0  0  0  0  0  0  0  0
  -33.8321    0.8040    0.0000 H   0  0  0  0  0  0  0  0  0  0  0  0
  -32.6251   -4.5211    0.0000 H   0  0  0  0  0  0  0  0  0  0  0  0
  -38.9424   -7.9378    0.0000 H   0  0  0  0  0  0  0  0  0  0  0  0
  -40.9117   -3.1293    0.0000 H   0  0  0  0  0  0  0  0  0  0  0  0
  -38.1355   -1.9923    0.0000 H   0  0  0  0  0  0  0  0  0  0  0  0
  -42.5015   -5.1841    0.0000 H   0  0  0  0  0  0  0  0  0  0  0  0
  -32.9866   -2.6911    0.0000 H   0  0  0  0  0  0  0  0  0  0  0  0
  -30.5549   -4.7003    0.0000 H   0  0  0  0  0  0  0  0  0  0  0  0
  -33.7934   -8.6366    0.0000 H   0  0  0  0  0  0  0  0  0  0  0  0
  -31.2190   -8.9859    0.0000 H   0  0  0  0  0  0  0  0  0  0  0  0
  -27.6494   -4.1733    0.0000 H   0  0  0  0  0  0  0  0  0  0  0  0
  -26.0285   -0.4252    0.0000 H   0  0  0  0  0  0  0  0  0  0  0  0
  -27.9260   -0.7690    0.0000 H   0  0  0  0  0  0  0  0  0  0  0  0
  -24.2068   -3.1928    0.0000 H   0  0  0  0  0  0  0  0  0  0  0  0
  -26.1043   -3.5367    0.0000 H   0  0  0  0  0  0  0  0  0  0  0  0
  -22.5365   -3.2468    0.0000 H   0  0  0  0  0  0  0  0  0  0  0  0
  -22.8131    0.1575    0.0000 H   0  0  0  0  0  0  0  0  0  0  0  0
  -22.3788    0.8318    0.0000 H   0  0  0  0  0  0  0  0  0  0  0  0
  -18.5186    1.7106    0.0000 H   0  0  0  0  0  0  0  0  0  0  0  0
  -18.0037    0.0021    0.0000 H   0  0  0  0  0  0  0  0  0  0  0  0
  -18.9452   -0.9159    0.0000 H   0  0  0  0  0  0  0  0  0  0  0  0
  -19.9184    3.2824    0.0000 H   0  0  0  0  0  0  0  0  0  0  0  0
  -19.1697    1.8301    0.0000 H   0  0  0  0  0  0  0  0  0  0  0  0
  -21.5623    4.4169    0.0000 H   0  0  0  0  0  0  0  0  0  0  0  0
  -23.2278    3.4448    0.0000 H   0  0  0  0  0  0  0  0  0  0  0  0
  -22.7129    1.7363    0.0000 H   0  0  0  0  0  0  0  0  0  0  0  0
  -19.0054    1.1589    0.0000 H   0  0  0  0  0  0  0  0  0  0  0  0
  -18.5882   -2.0465    0.0000 H   0  0  0  0  0  0  0  0  0  0  0  0
  -15.1255   -2.3094    0.0000 H   0  0  0  0  0  0  0  0  0  0  0  0
  -15.5006   -0.7192    0.0000 H   0  0  0  0  0  0  0  0  0  0  0  0
  -18.2541   -2.9510    0.0000 H   0  0  0  0  0  0  0  0  0  0  0  0
  -15.7087   -5.7385    0.0000 H   0  0  0  0  0  0  0  0  0  0  0  0
  -14.2254   -4.7465    0.0000 H   0  0  0  0  0  0  0  0  0  0  0  0
  -14.7403   -3.0380    0.0000 H   0  0  0  0  0  0  0  0  0  0  0  0
  -16.9422   -5.9620    0.0000 H   0  0  0  0  0  0  0  0  0  0  0  0
  -18.6793   -5.5537    0.0000 H   0  0  0  0  0  0  0  0  0  0  0  0
  -18.6884   -3.6253    0.0000 H   0  0  0  0  0  0  0  0  0  0  0  0
  -14.6893   -1.8134    0.0000 H   0  0  0  0  0  0  0  0  0  0  0  0
  -15.1438    1.5473    0.0000 H   0  0  0  0  0  0  0  0  0  0  0  0
  -13.1750    3.3895    0.0000 H   0  0  0  0  0  0  0  0  0  0  0  0
  -14.6583    2.3975    0.0000 H   0  0  0  0  0  0  0  0  0  0  0  0
  -10.4067    1.2236    0.0000 H   0  0  0  0  0  0  0  0  0  0  0  0
  -11.2759    0.4739    0.0000 H   0  0  0  0  0  0  0  0  0  0  0  0
  -10.7491    4.6793    0.0000 H   0  0  0  0  0  0  0  0  0  0  0  0
  -12.3422    3.8755    0.0000 H   0  0  0  0  0  0  0  0  0  0  0  0
   -8.0394    2.8775    0.0000 H   0  0  0  0  0  0  0  0  0  0  0  0
   -9.5739    1.7096    0.0000 H   0  0  0  0  0  0  0  0  0  0  0  0
   -7.2690    4.3347    0.0000 H   0  0  0  0  0  0  0  0  0  0  0  0
   -9.5148    5.8060    0.0000 H   0  0  0  0  0  0  0  0  0  0  0  0
  -11.3361    2.5487    0.0000 H   0  0  0  0  0  0  0  0  0  0  0  0
  -10.7656   -0.7571    0.0000 H   0  0  0  0  0  0  0  0  0  0  0  0
   -9.1216   -1.8917    0.0000 H   0  0  0  0  0  0  0  0  0  0  0  0
   -7.5285   -1.0879    0.0000 H   0  0  0  0  0  0  0  0  0  0  0  0
   -7.8312    0.6706    0.0000 H   0  0  0  0  0  0  0  0  0  0  0  0
   -7.0200   -0.4236    0.0000 H   0  0  0  0  0  0  0  0  0  0  0  0
   -7.3490    3.0706    0.0000 H   0  0  0  0  0  0  0  0  0  0  0  0
   -5.3236    4.7594    0.0000 H   0  0  0  0  0  0  0  0  0  0  0  0
   -7.0402    3.6114    0.0000 H   0  0  0  0  0  0  0  0  0  0  0  0
   -3.4131    4.6987    0.0000 H   0  0  0  0  0  0  0  0  0  0  0  0
   -4.0319    3.9176    0.0000 H   0  0  0  0  0  0  0  0  0  0  0  0
   -3.2934    0.4261    0.0000 H   0  0  0  0  0  0  0  0  0  0  0  0
   -2.4758   -0.7964    0.0000 H   0  0  0  0  0  0  0  0  0  0  0  0
   -2.1745   -1.3438    0.0000 H   0  0  0  0  0  0  0  0  0  0  0  0
   -1.2889   -2.0632    0.0000 H   0  0  0  0  0  0  0  0  0  0  0  0
   -0.7843   -2.4037    0.0000 H   0  0  0  0  0  0  0  0  0  0  0  0
    0.5798   -2.9533    0.0000 H   0  0  0  0  0  0  0  0  0  0  0  0
    1.6052   -3.3854    0.0000 H   0  0  0  0  0  0  0  0  0  0  0  0
   -3.3792   -0.6685    0.0000 H   0  0  0  0  0  0  0  0  0  0  0  0
   -4.6374    0.0560    0.0000 H   0  0  0  0  0  0  0  0  0  0  0  0
   -4.5146    1.8549    0.0000 H   0  0  0  0  0  0  0  0  0  0  0  0
   -3.4673    5.6024    0.0000 H   0  0  0  0  0  0  0  0  0  0  0  0
   -2.8942    6.3394    0.0000 H   0  0  0  0  0  0  0  0  0  0  0  0
   -1.8551    9.1164    0.0000 H   0  0  0  0  0  0  0  0  0  0  0  0
   -0.5031    8.1991    0.0000 H   0  0  0  0  0  0  0  0  0  0  0  0
   -5.8159    7.0678    0.0000 H   0  0  0  0  0  0  0  0  0  0  0  0
    0.4221    9.2456    0.0000 H   0  0  0  0  0  0  0  0  0  0  0  0
    1.7045    9.3665    0.0000 H   0  0  0  0  0  0  0  0  0  0  0  0
    4.5235   10.2856    0.0000 H   0  0  0  0  0  0  0  0  0  0  0  0
    4.6493    8.6566    0.0000 H   0  0  0  0  0  0  0  0  0  0  0  0
    4.9478   11.9020    0.0000 H   0  0  0  0  0  0  0  0  0  0  0  0
    3.5666   14.5651    0.0000 H   0  0  0  0  0  0  0  0  0  0  0  0
   -0.9289   14.7681    0.0000 H   0  0  0  0  0  0  0  0  0  0  0  0
   -1.0461   12.1727    0.0000 H   0  0  0  0  0  0  0  0  0  0  0  0
    0.1872    9.6175    0.0000 H   0  0  0  0  0  0  0  0  0  0  0  0
    6.2022    8.4928    0.0000 H   0  0  0  0  0  0  0  0  0  0  0  0
    6.7614    7.7053    0.0000 H   0  0  0  0  0  0  0  0  0  0  0  0
    8.2195    4.9135    0.0000 H   0  0  0  0  0  0  0  0  0  0  0  0
   10.0379    8.1195    0.0000 H   0  0  0  0  0  0  0  0  0  0  0  0
    8.6748    9.2573    0.0000 H   0  0  0  0  0  0  0  0  0  0  0  0
    7.1695    8.2989    0.0000 H   0  0  0  0  0  0  0  0  0  0  0  0
   10.6580    5.1885    0.0000 H   0  0  0  0  0  0  0  0  0  0  0  0
    8.9758    4.5932    0.0000 H   0  0  0  0  0  0  0  0  0  0  0  0
   11.9123    6.7431    0.0000 H   0  0  0  0  0  0  0  0  0  0  0  0
   11.0674    8.4765    0.0000 H   0  0  0  0  0  0  0  0  0  0  0  0
    9.4536    8.2213    0.0000 H   0  0  0  0  0  0  0  0  0  0  0  0
    9.0596    3.5973    0.0000 H   0  0  0  0  0  0  0  0  0  0  0  0
    7.6086   -0.7487    0.0000 H   0  0  0  0  0  0  0  0  0  0  0  0
    8.3910    0.2999    0.0000 H   0  0  0  0  0  0  0  0  0  0  0  0
    6.4337   -2.0266    0.0000 H   0  0  0  0  0  0  0  0  0  0  0  0
    7.3125   -1.2989    0.0000 H   0  0  0  0  0  0  0  0  0  0  0  0
    4.5735   -2.9343    0.0000 H   0  0  0  0  0  0  0  0  0  0  0  0
    5.9324   -2.3719    0.0000 H   0  0  0  0  0  0  0  0  0  0  0  0
    3.5523   -3.3762    0.0000 H   0  0  0  0  0  0  0  0  0  0  0  0
   10.2178    1.8504    0.0000 H   0  0  0  0  0  0  0  0  0  0  0  0
    9.8842    3.6034    0.0000 H   0  0  0  0  0  0  0  0  0  0  0  0
    8.4462    3.9414    0.0000 H   0  0  0  0  0  0  0  0  0  0  0  0
   10.5363    2.6764    0.0000 H   0  0  0  0  0  0  0  0  0  0  0  0
    9.6862   -0.4728    0.0000 H   0  0  0  0  0  0  0  0  0  0  0  0
   12.6919   -2.2120    0.0000 H   0  0  0  0  0  0  0  0  0  0  0  0
   13.0440   -0.6165    0.0000 H   0  0  0  0  0  0  0  0  0  0  0  0
    9.4398   -3.0591    0.0000 H   0  0  0  0  0  0  0  0  0  0  0  0
    9.5948   -1.4326    0.0000 H   0  0  0  0  0  0  0  0  0  0  0  0
   12.4455   -4.7983    0.0000 H   0  0  0  0  0  0  0  0  0  0  0  0
   12.7229   -3.0356    0.0000 H   0  0  0  0  0  0  0  0  0  0  0  0
    9.2879   -5.8024    0.0000 H   0  0  0  0  0  0  0  0  0  0  0  0
    9.3483   -4.0190    0.0000 H   0  0  0  0  0  0  0  0  0  0  0  0
   10.2768   -7.5379    0.0000 H   0  0  0  0  0  0  0  0  0  0  0  0
   12.6398   -6.4582    0.0000 H   0  0  0  0  0  0  0  0  0  0  0  0
   13.3001   -1.9544    0.0000 H   0  0  0  0  0  0  0  0  0  0  0  0
   14.3488    1.2707    0.0000 H   0  0  0  0  0  0  0  0  0  0  0  0
   16.9219    2.0762    0.0000 H   0  0  0  0  0  0  0  0  0  0  0  0
   15.1551    1.8260    0.0000 H   0  0  0  0  0  0  0  0  0  0  0  0
   17.3679   -1.3746    0.0000 H   0  0  0  0  0  0  0  0  0  0  0  0
   20.2676    0.6661    0.0000 H   0  0  0  0  0  0  0  0  0  0  0  0
   19.6672    2.1857    0.0000 H   0  0  0  0  0  0  0  0  0  0  0  0
   17.8831    2.1528    0.0000 H   0  0  0  0  0  0  0  0  0  0  0  0
   18.5768   -2.4556    0.0000 H   0  0  0  0  0  0  0  0  0  0  0  0
   20.1100   -1.0721    0.0000 H   0  0  0  0  0  0  0  0  0  0  0  0
   19.6268    0.1509    0.0000 H   0  0  0  0  0  0  0  0  0  0  0  0
   18.2139    0.5208    0.0000 H   0  0  0  0  0  0  0  0  0  0  0  0
   17.1990   -2.5482    0.0000 H   0  0  0  0  0  0  0  0  0  0  0  0
   20.0666   -4.4077    0.0000 H   0  0  0  0  0  0  0  0  0  0  0  0
   20.6105   -2.8671    0.0000 H   0  0  0  0  0  0  0  0  0  0  0  0
   17.0471   -5.2915    0.0000 H   0  0  0  0  0  0  0  0  0  0  0  0
   17.1076   -3.5081    0.0000 H   0  0  0  0  0  0  0  0  0  0  0  0
   18.6594   -8.3913    0.0000 H   0  0  0  0  0  0  0  0  0  0  0  0
   16.5428   -6.8847    0.0000 H   0  0  0  0  0  0  0  0  0  0  0  0
   20.8130   -4.0298    0.0000 H   0  0  0  0  0  0  0  0  0  0  0  0
   21.8616   -0.8047    0.0000 H   0  0  0  0  0  0  0  0  0  0  0  0
   24.4347    0.0008    0.0000 H   0  0  0  0  0  0  0  0  0  0  0  0
   22.6679   -0.2494    0.0000 H   0  0  0  0  0  0  0  0  0  0  0  0
   26.1273   -3.0314    0.0000 H   0  0  0  0  0  0  0  0  0  0  0  0
   24.8807   -3.4500    0.0000 H   0  0  0  0  0  0  0  0  0  0  0  0
   27.1801    0.1103    0.0000 H   0  0  0  0  0  0  0  0  0  0  0  0
   25.3959    0.0774    0.0000 H   0  0  0  0  0  0  0  0  0  0  0  0
   28.1422   -3.1782    0.0000 H   0  0  0  0  0  0  0  0  0  0  0  0
   31.4899   -0.6989    0.0000 H   0  0  0  0  0  0  0  0  0  0  0  0
   30.0162    1.4407    0.0000 H   0  0  0  0  0  0  0  0  0  0  0  0
   27.4264    1.2343    0.0000 H   0  0  0  0  0  0  0  0  0  0  0  0
   25.7267   -1.5546    0.0000 H   0  0  0  0  0  0  0  0  0  0  0  0
   24.7119   -4.6236    0.0000 H   0  0  0  0  0  0  0  0  0  0  0  0
   27.5794   -6.4831    0.0000 H   0  0  0  0  0  0  0  0  0  0  0  0
   28.0696   -4.7674    0.0000 H   0  0  0  0  0  0  0  0  0  0  0  0
   24.5599   -7.3669    0.0000 H   0  0  0  0  0  0  0  0  0  0  0  0
   24.6204   -5.5835    0.0000 H   0  0  0  0  0  0  0  0  0  0  0  0
   28.5353   -9.3870    0.0000 H   0  0  0  0  0  0  0  0  0  0  0  0
   28.3258   -6.1052    0.0000 H   0  0  0  0  0  0  0  0  0  0  0  0
   29.3744   -2.8801    0.0000 H   0  0  0  0  0  0  0  0  0  0  0  0
   32.1030   -2.1716    0.0000 H   0  0  0  0  0  0  0  0  0  0  0  0
   30.0583   -2.4611    0.0000 H   0  0  0  0  0  0  0  0  0  0  0  0
   33.6401   -5.1069    0.0000 H   0  0  0  0  0  0  0  0  0  0  0  0
   32.2137   -5.4907    0.0000 H   0  0  0  0  0  0  0  0  0  0  0  0
   36.4129   -2.9808    0.0000 H   0  0  0  0  0  0  0  0  0  0  0  0
   35.2967   -5.3269    0.0000 H   0  0  0  0  0  0  0  0  0  0  0  0
   31.7033   -7.8280    0.0000 H   0  0  0  0  0  0  0  0  0  0  0  0
  1  2  1  0
  2  3  1  0
  3  4  2  0
  4  5  1  0
  5  6  2  0
  6  7  1  0
  7  8  2  0
  7  9  1  0
  9 10  1  0
 10 11  1  0
 11 12  2  0
  9 13  1  0
 13 14  1  0
 14 15  2  0
 15 16  1  0
 16 17  2  0
 17 18  1  0
 16 19  1  0
 14 20  1  0
 20 21  1  0
 21 22  2  0
 22 23  1  0
 23 24  2  0
 24 25  1  0
 25 26  2  0
 25 27  1  0
  1 28  2  0
  1 29  1  0
 29 30  1  0
 30 31  1  0
 31 32  1  0
 32 33  2  0
 32 34  1  0
 34 35  1  0
 35 36  1  0
 36 37  1  0
 36 38  1  0
 38 39  1  0
 35 40  1  0
 40 41  2  0
 40 42  1  0
 42 43  1  0
 43 44  1  0
 44 45  1  0
 45 46  1  0
 45 47  1  0
 43 48  1  0
 48 49  2  0
 48 50  1  0
 50 51  1  0
 51 52  1  0
 52 53  1  0
 53 54  1  0
 54 55  1  0
 55 56  1  0
 51 57  1  0
 57 58  2  0
 57 59  1  0
 59 60  1  0
 60 61  1  0
 60 62  1  0
 62 63  2  0
 62 64  1  0
 64 65  1  0
 65 66  1  0
 66 67  1  0
 65 68  1  0
 68 69  2  0
 68 70  1  0
 71 70  1  6
 71 72  1  0
 72 73  1  0
 73 74  1  0
 74 75  1  0
 71 76  1  0
 71 77  1  0
 77 78  2  0
 77 79  1  0
 79 80  1  0
 80 81  1  0
 81 82  1  0
 82 83  2  0
 82 84  1  0
 80 85  1  0
 85 86  2  0
 85 87  1  0
 87 88  1  0
 88 89  1  0
 89 90  1  0
 90 91  2  0
 91 92  1  0
 92 93  2  0
 93 94  1  0
 93 95  1  0
 95 96  2  0
 88 97  1  0
 97 98  2  0
 97 99  1  0
 99100  1  0
100101  1  0
101102  1  0
101103  1  0
103104  1  0
100105  1  0
105106  2  0
105107  1  0
107108  1  0
108109  1  0
109110  1  0
110111  1  0
111112  1  0
108113  1  0
108114  1  6
114115  2  0
114116  1  0
116117  1  0
117118  1  0
118119  1  0
119120  1  0
120121  1  0
121122  1  0
117123  1  0
123124  2  0
123125  1  0
125126  1  0
126127  1  0
127128  1  0
128129  1  0
128130  1  0
126131  1  0
131132  2  0
131133  1  0
133134  1  0
134135  1  0
135136  1  0
136137  1  0
137138  1  0
137139  2  0
134140  1  0
140141  2  0
140142  1  0
142143  1  0
143144  1  0
144145  1  0
145146  1  0
146147  1  0
147148  1  0
148149  2  3
148150  1  0
143151  1  0
151152  2  0
151153  1  0
153154  1  0
154155  1  0
155156  1  0
156157  1  0
157158  2  0
157159  1  0
154160  1  0
160161  2  0
160162  1  0
162163  1  0
163164  1  0
164165  1  0
165166  1  0
166167  1  0
166168  2  0
163169  1  0
169170  2  0
169171  1  0
  8  3  1  0
 96 90  1  0
 11  6  1  0
 75112  2  0
 18 13  2  0
 22  9  1  0
 26 21  1  0
  2172  1  0
  4173  1  0
  5174  1  0
  8175  1  0
 15176  1  0
 17177  1  0
 18178  1  0
 19179  1  0
 23180  1  0
 24181  1  0
 26182  1  0
 27183  1  0
 29184  1  0
 30185  1  0
 30186  1  0
 31187  1  0
 31188  1  0
 34189  1  0
 35190  1  1
 36191  1  1
 37192  1  0
 37193  1  0
 37194  1  0
 38195  1  0
 38196  1  0
 39197  1  0
 39198  1  0
 39199  1  0
 42200  1  0
 43201  1  6
 44202  1  0
 44203  1  0
 45204  1  0
 46205  1  0
 46206  1  0
 46207  1  0
 47208  1  0
 47209  1  0
 47210  1  0
 50211  1  0
 51212  1  1
 52213  1  0
 52214  1  0
 53215  1  0
 53216  1  0
 54217  1  0
 54218  1  0
 55219  1  0
 55220  1  0
 56221  1  0
 56222  1  0
 59223  1  0
 60224  1  6
 61225  1  0
 61226  1  0
 61227  1  0
 64228  1  0
 65229  1  1
 66230  1  0
 66231  1  0
 67232  1  0
 70233  1  0
 72234  1  0
 72235  1  0
 73236  1  0
 73237  1  0
 74238  1  0
 74239  1  0
 75240  1  0
 76241  1  0
 76242  1  0
 76243  1  0
 79244  1  0
 80245  1  1
 81246  1  0
 81247  1  0
 84248  1  0
 87249  1  0
 88250  1  1
 89251  1  0
 89252  1  0
 91253  1  0
 92254  1  0
 94255  1  0
 95256  1  0
 96257  1  0
 99258  1  0
100259  1  1
101260  1  6
102261  1  0
102262  1  0
102263  1  0
103264  1  0
103265  1  0
104266  1  0
104267  1  0
104268  1  0
107269  1  0
109270  1  0
109271  1  0
110272  1  0
110273  1  0
111274  1  0
111275  1  0
112276  1  0
113277  1  0
113278  1  0
113279  1  0
116280  1  0
117281  1  6
118282  1  0
118283  1  0
119284  1  0
119285  1  0
120286  1  0
120287  1  0
121288  1  0
121289  1  0
122290  1  0
122291  1  0
125292  1  0
126293  1  1
127294  1  0
127295  1  0
128296  1  0
129297  1  0
129298  1  0
129299  1  0
130300  1  0
130301  1  0
130302  1  0
133303  1  0
134304  1  6
135305  1  0
135306  1  0
136307  1  0
136308  1  0
138309  1  0
138310  1  0
142311  1  0
143312  1  1
144313  1  0
144314  1  0
145315  1  0
145316  1  0
146317  1  0
146318  1  0
147319  1  0
149320  1  0
150321  1  0
150322  1  0
153323  1  0
154324  1  6
155325  1  0
155326  1  0
156327  1  0
156328  1  0
159329  1  0
162330  1  0
163331  1  1
164332  1  0
164333  1  0
165334  1  0
165335  1  0
167336  1  0
167337  1  0
171338  1  0
M  END
