
     RDKit          2D

377382  0  0  0  0  0  0  0  0999 V2000
   26.9027   -4.6599    0.0000 C   0  0  0  0  0  0  0  0  0  0  0  0
   28.3920   -4.4811    0.0000 N   0  0  0  0  0  0  0  0  0  0  0  0
   29.2915   -5.6815    0.0000 C   0  0  0  0  0  0  0  0  0  0  0  0
   28.7016   -7.0607    0.0000 C   0  0  0  0  0  0  0  0  0  0  0  0
   29.6011   -8.2611    0.0000 C   0  0  0  0  0  0  0  0  0  0  0  0
   31.0904   -8.0823    0.0000 C   0  0  0  0  0  0  0  0  0  0  0  0
   31.6803   -6.7032    0.0000 C   0  0  0  0  0  0  0  0  0  0  0  0
   30.7808   -5.5028    0.0000 C   0  0  0  0  0  0  0  0  0  0  0  0
   33.1742   -6.8380    0.0000 C   0  0  0  0  0  0  0  0  0  0  0  0
   33.5076   -8.3005    0.0000 O   0  0  0  0  0  0  0  0  0  0  0  0
   32.2198   -9.0695    0.0000 C   0  0  0  0  0  0  0  0  0  0  0  0
   32.0850  -10.5634    0.0000 O   0  0  0  0  0  0  0  0  0  0  0  0
   34.6458   -7.1282    0.0000 C   0  0  0  0  0  0  0  0  0  0  0  0
   35.6330   -5.9988    0.0000 C   0  0  0  0  0  0  0  0  0  0  0  0
   37.1047   -6.2891    0.0000 C   0  0  0  0  0  0  0  0  0  0  0  0
   37.5892   -7.7087    0.0000 C   0  0  0  0  0  0  0  0  0  0  0  0
   36.6020   -8.8381    0.0000 C   0  0  0  0  0  0  0  0  0  0  0  0
   35.1303   -8.5478    0.0000 C   0  0  0  0  0  0  0  0  0  0  0  0
   39.0608   -7.9989    0.0000 O   0  0  0  0  0  0  0  0  0  0  0  0
   35.1485   -4.5792    0.0000 O   0  0  0  0  0  0  0  0  0  0  0  0
   33.6769   -4.2890    0.0000 C   0  0  0  0  0  0  0  0  0  0  0  0
   32.6897   -5.4184    0.0000 C   0  0  0  0  0  0  0  0  0  0  0  0
   31.6787   -4.6011    0.0000 C   0  0  0  0  0  0  0  0  0  0  0  0
   31.4203   -3.8440    0.0000 C   0  0  0  0  0  0  0  0  0  0  0  0
   31.9468   -3.2417    0.0000 C   0  0  0  0  0  0  0  0  0  0  0  0
   32.7317   -3.3965    0.0000 C   0  0  0  0  0  0  0  0  0  0  0  0
   31.2363   -1.1596    0.0000 O   0  0  0  0  0  0  0  0  0  0  0  0
   26.3129   -6.0390    0.0000 S   0  0  0  0  0  0  0  0  0  0  0  0
   26.0033   -3.4594    0.0000 N   0  0  0  0  0  0  0  0  0  0  0  0
   24.5140   -3.6382    0.0000 C   0  0  0  0  0  0  0  0  0  0  0  0
   23.6145   -2.4378    0.0000 C   0  0  0  0  0  0  0  0  0  0  0  0
   22.1252   -2.6165    0.0000 C   0  0  0  0  0  0  0  0  0  0  0  0
   21.7079   -4.0573    0.0000 O   0  0  0  0  0  0  0  0  0  0  0  0
   21.2257   -1.4161    0.0000 N   0  0  0  0  0  0  0  0  0  0  0  0
   19.7364   -1.5949    0.0000 C   0  0  0  0  0  0  0  0  0  0  0  0
   18.8850   -2.8298    0.0000 C   0  0  0  0  0  0  0  0  0  0  0  0
   17.7074   -3.7589    0.0000 C   0  0  0  0  0  0  0  0  0  0  0  0
   16.3082   -4.2996    0.0000 C   0  0  0  0  0  0  0  0  0  0  0  0
   14.8119   -4.4039    0.0000 C   0  0  0  0  0  0  0  0  0  0  0  0
   20.6626   -2.7748    0.0000 C   0  0  0  0  0  0  0  0  0  0  0  0
   20.1860   -0.1638    0.0000 C   0  0  0  0  0  0  0  0  0  0  0  0
   21.6852   -0.2127    0.0000 O   0  0  0  0  0  0  0  0  0  0  0  0
   20.1939    1.3362    0.0000 N   0  0  0  0  0  0  0  0  0  0  0  0
   19.7592    2.7718    0.0000 C   0  0  0  0  0  0  0  0  0  0  0  0
   20.5481    4.0476    0.0000 C   0  0  0  0  0  0  0  0  0  0  0  0
   22.0474    4.0024    0.0000 C   0  0  0  0  0  0  0  0  0  0  0  0
   22.8362    5.2783    0.0000 C   0  0  0  0  0  0  0  0  0  0  0  0
   24.3355    5.2330    0.0000 N   0  0  0  0  0  0  0  0  0  0  0  0
   25.1243    6.5089    0.0000 C   0  0  0  0  0  0  0  0  0  0  0  0
   26.6237    6.4636    0.0000 N   0  0  0  0  0  0  0  0  0  0  0  0
   24.4138    7.8299    0.0000 N   0  0  0  0  0  0  0  0  0  0  0  0
   18.9207    4.0156    0.0000 C   0  0  0  0  0  0  0  0  0  0  0  0
   20.0256    5.0301    0.0000 O   0  0  0  0  0  0  0  0  0  0  0  0
   17.7529    4.9569    0.0000 N   0  0  0  0  0  0  0  0  0  0  0  0
   16.3594    5.5122    0.0000 C   0  0  0  0  0  0  0  0  0  0  0  0
   15.8538    6.9244    0.0000 C   0  0  0  0  0  0  0  0  0  0  0  0
   16.8239    8.0684    0.0000 C   0  0  0  0  0  0  0  0  0  0  0  0
   16.3183    9.4806    0.0000 C   0  0  0  0  0  0  0  0  0  0  0  0
   17.2884   10.6246    0.0000 N   0  0  0  0  0  0  0  0  0  0  0  0
   16.7828   12.0368    0.0000 C   0  0  0  0  0  0  0  0  0  0  0  0
   17.7530   13.1808    0.0000 N   0  0  0  0  0  0  0  0  0  0  0  0
   15.3070   12.3050    0.0000 N   0  0  0  0  0  0  0  0  0  0  0  0
   14.8642    5.6321    0.0000 C   0  0  0  0  0  0  0  0  0  0  0  0
   14.7600    7.1285    0.0000 O   0  0  0  0  0  0  0  0  0  0  0  0
   13.4001    5.3060    0.0000 N   0  0  0  0  0  0  0  0  0  0  0  0
   12.0972    4.5627    0.0000 C   0  0  0  0  0  0  0  0  0  0  0  0
   10.6778    5.0479    0.0000 C   0  0  0  0  0  0  0  0  0  0  0  0
   10.3883    6.5197    0.0000 C   0  0  0  0  0  0  0  0  0  0  0  0
    8.9689    7.0048    0.0000 C   0  0  0  0  0  0  0  0  0  0  0  0
    8.6794    8.4766    0.0000 N   0  0  0  0  0  0  0  0  0  0  0  0
    7.8391    6.0182    0.0000 O   0  0  0  0  0  0  0  0  0  0  0  0
   11.0712    3.4685    0.0000 C   0  0  0  0  0  0  0  0  0  0  0  0
    9.8363    4.3199    0.0000 O   0  0  0  0  0  0  0  0  0  0  0  0
   10.4133    2.1205    0.0000 N   0  0  0  0  0  0  0  0  0  0  0  0
   10.1820    0.6384    0.0000 C   0  0  0  0  0  0  0  0  0  0  0  0
   10.3979   -0.8460    0.0000 C   0  0  0  0  0  0  0  0  0  0  0  0
   11.0416   -2.2008    0.0000 C   0  0  0  0  0  0  0  0  0  0  0  0
   12.0561   -3.3057    0.0000 C   0  0  0  0  0  0  0  0  0  0  0  0
   13.3512   -4.0625    0.0000 C   0  0  0  0  0  0  0  0  0  0  0  0
    8.9263    1.4588    0.0000 C   0  0  0  0  0  0  0  0  0  0  0  0
    8.9178   -0.1688    0.0000 C   0  0  0  0  0  0  0  0  0  0  0  0
    8.6201   -1.6390    0.0000 O   0  0  0  0  0  0  0  0  0  0  0  0
    7.5866    0.5225    0.0000 N   0  0  0  0  0  0  0  0  0  0  0  0
    6.3223   -0.2848    0.0000 C   0  0  0  0  0  0  0  0  0  0  0  0
    5.4103   -1.4757    0.0000 C   0  0  0  0  0  0  0  0  0  0  0  0
    3.9230   -1.2815    0.0000 C   0  0  0  0  0  0  0  0  0  0  0  0
    3.0110   -2.4724    0.0000 C   0  0  0  0  0  0  0  0  0  0  0  0
    1.5237   -2.2781    0.0000 N   0  0  0  0  0  0  0  0  0  0  0  0
    0.6117   -3.4691    0.0000 C   0  0  0  0  0  0  0  0  0  0  0  0
   -0.8408   -3.0949    0.0000 N   0  0  0  0  0  0  0  0  0  0  0  0
    1.1872   -4.8543    0.0000 N   0  0  0  0  0  0  0  0  0  0  0  0
    4.9911    0.4065    0.0000 C   0  0  0  0  0  0  0  0  0  0  0  0
    4.9241    1.9050    0.0000 O   0  0  0  0  0  0  0  0  0  0  0  0
    3.7268   -0.4007    0.0000 N   0  0  0  0  0  0  0  0  0  0  0  0
    2.3956    0.2905    0.0000 C   0  0  0  0  0  0  0  0  0  0  0  0
    1.3811    1.3954    0.0000 C   0  0  0  0  0  0  0  0  0  0  0  0
    1.8307    2.8265    0.0000 C   0  0  0  0  0  0  0  0  0  0  0  0
    0.8162    3.9313    0.0000 C   0  0  0  0  0  0  0  0  0  0  0  0
    1.2658    5.3624    0.0000 N   0  0  0  0  0  0  0  0  0  0  0  0
    0.2513    6.4673    0.0000 C   0  0  0  0  0  0  0  0  0  0  0  0
    0.7009    7.8983    0.0000 N   0  0  0  0  0  0  0  0  0  0  0  0
   -1.2128    6.1411    0.0000 N   0  0  0  0  0  0  0  0  0  0  0  0
    1.1313   -0.5167    0.0000 C   0  0  0  0  0  0  0  0  0  0  0  0
    0.9143   -1.5884    0.0000 O   0  0  0  0  0  0  0  0  0  0  0  0
   -0.1999    0.1746    0.0000 N   0  0  0  0  0  0  0  0  0  0  0  0
   -1.4642   -0.6326    0.0000 C   0  0  0  0  0  0  0  0  0  0  0  0
   -2.3761   -1.8236    0.0000 C   0  0  0  0  0  0  0  0  0  0  0  0
   -3.8635   -1.6293    0.0000 C   0  0  0  0  0  0  0  0  0  0  0  0
   -4.7754   -2.8203    0.0000 O   0  0  0  0  0  0  0  0  0  0  0  0
   -4.3383   -0.9890    0.0000 O   0  0  0  0  0  0  0  0  0  0  0  0
   -2.7954    0.0586    0.0000 C   0  0  0  0  0  0  0  0  0  0  0  0
   -2.8623    1.5571    0.0000 O   0  0  0  0  0  0  0  0  0  0  0  0
   -4.0597   -0.7486    0.0000 N   0  0  0  0  0  0  0  0  0  0  0  0
   -5.3909   -0.0573    0.0000 C   0  0  0  0  0  0  0  0  0  0  0  0
   -6.4054    1.0476    0.0000 C   0  0  0  0  0  0  0  0  0  0  0  0
   -7.8695    0.7214    0.0000 C   0  0  0  0  0  0  0  0  0  0  0  0
   -8.8840    1.8263    0.0000 C   0  0  0  0  0  0  0  0  0  0  0  0
  -10.3481    1.5002    0.0000 N   0  0  0  0  0  0  0  0  0  0  0  0
  -11.3626    2.6050    0.0000 C   0  0  0  0  0  0  0  0  0  0  0  0
  -12.7761    2.1029    0.0000 N   0  0  0  0  0  0  0  0  0  0  0  0
  -10.9130    4.0361    0.0000 N   0  0  0  0  0  0  0  0  0  0  0  0
   -6.6552   -0.8646    0.0000 C   0  0  0  0  0  0  0  0  0  0  0  0
   -6.5882   -2.3631    0.0000 O   0  0  0  0  0  0  0  0  0  0  0  0
   -7.9864   -0.1733    0.0000 N   0  0  0  0  0  0  0  0  0  0  0  0
   -9.2506   -0.9805    0.0000 C   0  0  0  0  0  0  0  0  0  0  0  0
  -10.1626   -2.1715    0.0000 C   0  0  0  0  0  0  0  0  0  0  0  0
  -11.6499   -1.9772    0.0000 C   0  0  0  0  0  0  0  0  0  0  0  0
  -12.5619   -3.1681    0.0000 C   0  0  0  0  0  0  0  0  0  0  0  0
  -14.0618   -3.1566    0.0000 N   0  0  0  0  0  0  0  0  0  0  0  0
  -11.9864   -4.5534    0.0000 O   0  0  0  0  0  0  0  0  0  0  0  0
  -10.5819   -0.2892    0.0000 C   0  0  0  0  0  0  0  0  0  0  0  0
  -11.0094    1.1485    0.0000 O   0  0  0  0  0  0  0  0  0  0  0  0
  -11.8461   -1.0965    0.0000 N   0  0  0  0  0  0  0  0  0  0  0  0
  -13.1773   -0.4052    0.0000 C   0  0  0  0  0  0  0  0  0  0  0  0
  -14.1919    0.6997    0.0000 C   0  0  0  0  0  0  0  0  0  0  0  0
  -15.6560    0.3735    0.0000 C   0  0  0  0  0  0  0  0  0  0  0  0
  -16.6705    1.4784    0.0000 C   0  0  0  0  0  0  0  0  0  0  0  0
  -18.1346    1.1523    0.0000 N   0  0  0  0  0  0  0  0  0  0  0  0
  -19.1491    2.2572    0.0000 C   0  0  0  0  0  0  0  0  0  0  0  0
  -20.5625    1.7550    0.0000 N   0  0  0  0  0  0  0  0  0  0  0  0
  -18.6995    3.6882    0.0000 N   0  0  0  0  0  0  0  0  0  0  0  0
  -14.4416   -1.2124    0.0000 C   0  0  0  0  0  0  0  0  0  0  0  0
  -14.5578   -2.7079    0.0000 O   0  0  0  0  0  0  0  0  0  0  0  0
  -15.7728   -0.5212    0.0000 N   0  0  0  0  0  0  0  0  0  0  0  0
  -17.0371   -1.3284    0.0000 C   0  0  0  0  0  0  0  0  0  0  0  0
  -17.9490   -2.5193    0.0000 C   0  0  0  0  0  0  0  0  0  0  0  0
  -19.4364   -2.3251    0.0000 C   0  0  0  0  0  0  0  0  0  0  0  0
  -20.3483   -3.5160    0.0000 C   0  0  0  0  0  0  0  0  0  0  0  0
  -21.8357   -3.3217    0.0000 N   0  0  0  0  0  0  0  0  0  0  0  0
  -22.7476   -4.5127    0.0000 C   0  0  0  0  0  0  0  0  0  0  0  0
  -24.2002   -4.1386    0.0000 N   0  0  0  0  0  0  0  0  0  0  0  0
  -22.1722   -5.8979    0.0000 N   0  0  0  0  0  0  0  0  0  0  0  0
  -18.3683   -0.6371    0.0000 C   0  0  0  0  0  0  0  0  0  0  0  0
  -18.7959    0.8007    0.0000 O   0  0  0  0  0  0  0  0  0  0  0  0
  -19.6326   -1.4443    0.0000 N   0  0  0  0  0  0  0  0  0  0  0  0
  -20.9638   -0.7531    0.0000 C   0  0  0  0  0  0  0  0  0  0  0  0
  -21.9783    0.3518    0.0000 C   0  0  0  0  0  0  0  0  0  0  0  0
  -23.4424    0.0257    0.0000 C   0  0  0  0  0  0  0  0  0  0  0  0
  -24.4569    1.1306    0.0000 C   0  0  0  0  0  0  0  0  0  0  0  0
  -25.9210    0.8044    0.0000 N   0  0  0  0  0  0  0  0  0  0  0  0
  -26.9356    1.9093    0.0000 C   0  0  0  0  0  0  0  0  0  0  0  0
  -28.3490    1.4071    0.0000 N   0  0  0  0  0  0  0  0  0  0  0  0
  -26.4859    3.3403    0.0000 N   0  0  0  0  0  0  0  0  0  0  0  0
  -22.2281   -1.5603    0.0000 C   0  0  0  0  0  0  0  0  0  0  0  0
  -22.5257   -3.0305    0.0000 O   0  0  0  0  0  0  0  0  0  0  0  0
  -23.5593   -0.8690    0.0000 N   0  0  0  0  0  0  0  0  0  0  0  0
  -24.8236   -1.6763    0.0000 C   0  0  0  0  0  0  0  0  0  0  0  0
  -25.7355   -2.8672    0.0000 C   0  0  0  0  0  0  0  0  0  0  0  0
  -27.2229   -2.6729    0.0000 C   0  0  0  0  0  0  0  0  0  0  0  0
  -28.1348   -3.8639    0.0000 C   0  0  0  0  0  0  0  0  0  0  0  0
  -29.6222   -3.6696    0.0000 N   0  0  0  0  0  0  0  0  0  0  0  0
  -30.5341   -4.8606    0.0000 C   0  0  0  0  0  0  0  0  0  0  0  0
  -32.0215   -4.6663    0.0000 N   0  0  0  0  0  0  0  0  0  0  0  0
  -29.9587   -6.2458    0.0000 N   0  0  0  0  0  0  0  0  0  0  0  0
  -26.1548   -0.9850    0.0000 C   0  0  0  0  0  0  0  0  0  0  0  0
  -26.5823    0.4528    0.0000 O   0  0  0  0  0  0  0  0  0  0  0  0
  -27.4191   -1.7922    0.0000 N   0  0  0  0  0  0  0  0  0  0  0  0
  -28.7503   -1.1009    0.0000 C   0  0  0  0  0  0  0  0  0  0  0  0
  -29.7648    0.0039    0.0000 C   0  0  0  0  0  0  0  0  0  0  0  0
  -31.2289   -0.3222    0.0000 C   0  0  0  0  0  0  0  0  0  0  0  0
  -32.2434    0.7827    0.0000 C   0  0  0  0  0  0  0  0  0  0  0  0
  -33.7075    0.4566    0.0000 N   0  0  0  0  0  0  0  0  0  0  0  0
  -34.7220    1.5614    0.0000 C   0  0  0  0  0  0  0  0  0  0  0  0
  -36.1861    1.2353    0.0000 N   0  0  0  0  0  0  0  0  0  0  0  0
  -34.2724    2.9925    0.0000 N   0  0  0  0  0  0  0  0  0  0  0  0
  -30.0145   -1.9082    0.0000 C   0  0  0  0  0  0  0  0  0  0  0  0
  -31.4201   -1.3843    0.0000 O   0  0  0  0  0  0  0  0  0  0  0  0
  -30.3122   -3.3783    0.0000 O   0  0  0  0  0  0  0  0  0  0  0  0
   28.8094   -3.0403    0.0000 H   0  0  0  0  0  0  0  0  0  0  0  0
   27.2123   -7.2394    0.0000 H   0  0  0  0  0  0  0  0  0  0  0  0
   29.0112   -9.6402    0.0000 H   0  0  0  0  0  0  0  0  0  0  0  0
   31.0194   -4.0219    0.0000 H   0  0  0  0  0  0  0  0  0  0  0  0
   38.0918   -5.1597    0.0000 H   0  0  0  0  0  0  0  0  0  0  0  0
   37.0865  -10.2577    0.0000 H   0  0  0  0  0  0  0  0  0  0  0  0
   34.1432   -9.6772    0.0000 H   0  0  0  0  0  0  0  0  0  0  0  0
   39.5453   -9.4185    0.0000 H   0  0  0  0  0  0  0  0  0  0  0  0
   30.2309   -6.2575    0.0000 H   0  0  0  0  0  0  0  0  0  0  0  0
   29.3083   -3.2411    0.0000 H   0  0  0  0  0  0  0  0  0  0  0  0
   34.1796   -1.7400    0.0000 H   0  0  0  0  0  0  0  0  0  0  0  0
   32.2234   -0.0302    0.0000 H   0  0  0  0  0  0  0  0  0  0  0  0
   26.5931   -2.0803    0.0000 H   0  0  0  0  0  0  0  0  0  0  0  0
   23.1756   -4.3155    0.0000 H   0  0  0  0  0  0  0  0  0  0  0  0
   24.9486   -5.0738    0.0000 H   0  0  0  0  0  0  0  0  0  0  0  0
   23.1799   -1.0021    0.0000 H   0  0  0  0  0  0  0  0  0  0  0  0
   24.9529   -1.7604    0.0000 H   0  0  0  0  0  0  0  0  0  0  0  0
   21.9793   -0.1191    0.0000 H   0  0  0  0  0  0  0  0  0  0  0  0
   20.3171   -3.2759    0.0000 H   0  0  0  0  0  0  0  0  0  0  0  0
   19.2475   -4.2853    0.0000 H   0  0  0  0  0  0  0  0  0  0  0  0
   18.8318   -4.7517    0.0000 H   0  0  0  0  0  0  0  0  0  0  0  0
   17.8080   -5.2555    0.0000 H   0  0  0  0  0  0  0  0  0  0  0  0
   17.2402   -5.4749    0.0000 H   0  0  0  0  0  0  0  0  0  0  0  0
   15.7878   -5.7064    0.0000 H   0  0  0  0  0  0  0  0  0  0  0  0
   14.6920   -5.8991    0.0000 H   0  0  0  0  0  0  0  0  0  0  0  0
   20.1567   -4.3620    0.0000 H   0  0  0  0  0  0  0  0  0  0  0  0
   21.5447   -3.9364    0.0000 H   0  0  0  0  0  0  0  0  0  0  0  0
   21.8262   -2.1554    0.0000 H   0  0  0  0  0  0  0  0  0  0  0  0
   21.6783    1.5520    0.0000 H   0  0  0  0  0  0  0  0  0  0  0  0
   21.2118    2.3977    0.0000 H   0  0  0  0  0  0  0  0  0  0  0  0
   20.6716    5.5425    0.0000 H   0  0  0  0  0  0  0  0  0  0  0  0
   19.3304    4.9236    0.0000 H   0  0  0  0  0  0  0  0  0  0  0  0
   23.4408    3.4471    0.0000 H   0  0  0  0  0  0  0  0  0  0  0  0
   21.9238    2.5075    0.0000 H   0  0  0  0  0  0  0  0  0  0  0  0
   23.1411    6.7469    0.0000 H   0  0  0  0  0  0  0  0  0  0  0  0
   21.5208    5.9993    0.0000 H   0  0  0  0  0  0  0  0  0  0  0  0
   25.0460    3.9120    0.0000 H   0  0  0  0  0  0  0  0  0  0  0  0
   27.4125    7.7395    0.0000 H   0  0  0  0  0  0  0  0  0  0  0  0
   27.3341    5.1426    0.0000 H   0  0  0  0  0  0  0  0  0  0  0  0
   25.2027    9.1058    0.0000 H   0  0  0  0  0  0  0  0  0  0  0  0
   22.9145    7.8751    0.0000 H   0  0  0  0  0  0  0  0  0  0  0  0
   18.5096    6.2520    0.0000 H   0  0  0  0  0  0  0  0  0  0  0  0
   17.5576    6.4146    0.0000 H   0  0  0  0  0  0  0  0  0  0  0  0
   14.7621    7.9531    0.0000 H   0  0  0  0  0  0  0  0  0  0  0  0
   14.4097    6.5185    0.0000 H   0  0  0  0  0  0  0  0  0  0  0  0
   18.1269    8.8116    0.0000 H   0  0  0  0  0  0  0  0  0  0  0  0
   17.9157    7.0397    0.0000 H   0  0  0  0  0  0  0  0  0  0  0  0
   15.3601   10.6347    0.0000 H   0  0  0  0  0  0  0  0  0  0  0  0
   14.9345    8.9018    0.0000 H   0  0  0  0  0  0  0  0  0  0  0  0
   18.7643   10.3564    0.0000 H   0  0  0  0  0  0  0  0  0  0  0  0
   17.2473   14.5930    0.0000 H   0  0  0  0  0  0  0  0  0  0  0  0
   19.2288   12.9127    0.0000 H   0  0  0  0  0  0  0  0  0  0  0  0
   14.8013   13.7172    0.0000 H   0  0  0  0  0  0  0  0  0  0  0  0
   14.3368   11.1610    0.0000 H   0  0  0  0  0  0  0  0  0  0  0  0
   12.8594    6.7051    0.0000 H   0  0  0  0  0  0  0  0  0  0  0  0
   12.1387    6.0622    0.0000 H   0  0  0  0  0  0  0  0  0  0  0  0
    9.1781    5.0183    0.0000 H   0  0  0  0  0  0  0  0  0  0  0  0
   10.0948    3.6658    0.0000 H   0  0  0  0  0  0  0  0  0  0  0  0
   10.6196    8.0017    0.0000 H   0  0  0  0  0  0  0  0  0  0  0  0
   11.8732    6.7318    0.0000 H   0  0  0  0  0  0  0  0  0  0  0  0
    7.2600    8.9618    0.0000 H   0  0  0  0  0  0  0  0  0  0  0  0
    9.8092    9.4633    0.0000 H   0  0  0  0  0  0  0  0  0  0  0  0
    8.9823    2.5701    0.0000 H   0  0  0  0  0  0  0  0  0  0  0  0
    9.4277   -1.9900    0.0000 H   0  0  0  0  0  0  0  0  0  0  0  0
    8.8988   -0.7934    0.0000 H   0  0  0  0  0  0  0  0  0  0  0  0
   10.2880   -3.4978    0.0000 H   0  0  0  0  0  0  0  0  0  0  0  0
    9.5936   -2.5924    0.0000 H   0  0  0  0  0  0  0  0  0  0  0  0
   11.8990   -4.7975    0.0000 H   0  0  0  0  0  0  0  0  0  0  0  0
   10.6997   -3.9461    0.0000 H   0  0  0  0  0  0  0  0  0  0  0  0
   12.7959   -5.4559    0.0000 H   0  0  0  0  0  0  0  0  0  0  0  0
    7.4638    1.1254    0.0000 H   0  0  0  0  0  0  0  0  0  0  0  0
    8.1798    2.7599    0.0000 H   0  0  0  0  0  0  0  0  0  0  0  0
    9.6570    2.7688    0.0000 H   0  0  0  0  0  0  0  0  0  0  0  0
    7.3374    2.0016    0.0000 H   0  0  0  0  0  0  0  0  0  0  0  0
    7.3368   -1.3897    0.0000 H   0  0  0  0  0  0  0  0  0  0  0  0
    5.1385   -2.9509    0.0000 H   0  0  0  0  0  0  0  0  0  0  0  0
    6.7416   -2.1670    0.0000 H   0  0  0  0  0  0  0  0  0  0  0  0
    2.5918   -0.5902    0.0000 H   0  0  0  0  0  0  0  0  0  0  0  0
    3.6480    0.1931    0.0000 H   0  0  0  0  0  0  0  0  0  0  0  0
    2.5614   -3.9034    0.0000 H   0  0  0  0  0  0  0  0  0  0  0  0
    4.2481   -3.3208    0.0000 H   0  0  0  0  0  0  0  0  0  0  0  0
    0.6302   -1.0733    0.0000 H   0  0  0  0  0  0  0  0  0  0  0  0
   -1.7876   -4.4658    0.0000 H   0  0  0  0  0  0  0  0  0  0  0  0
   -1.2996   -1.8242    0.0000 H   0  0  0  0  0  0  0  0  0  0  0  0
    0.2752   -6.0453    0.0000 H   0  0  0  0  0  0  0  0  0  0  0  0
    2.6745   -5.0486    0.0000 H   0  0  0  0  0  0  0  0  0  0  0  0
    3.4292   -1.8709    0.0000 H   0  0  0  0  0  0  0  0  0  0  0  0
    3.4459    1.3615    0.0000 H   0  0  0  0  0  0  0  0  0  0  0  0
    0.0499    2.0867    0.0000 H   0  0  0  0  0  0  0  0  0  0  0  0
    0.2081    0.4605    0.0000 H   0  0  0  0  0  0  0  0  0  0  0  0
    2.7426    4.0174    0.0000 H   0  0  0  0  0  0  0  0  0  0  0  0
    3.2362    2.3026    0.0000 H   0  0  0  0  0  0  0  0  0  0  0  0
   -0.5150    4.6226    0.0000 H   0  0  0  0  0  0  0  0  0  0  0  0
   -0.2341    2.8604    0.0000 H   0  0  0  0  0  0  0  0  0  0  0  0
    2.7299    5.6885    0.0000 H   0  0  0  0  0  0  0  0  0  0  0  0
   -0.3136    9.0032    0.0000 H   0  0  0  0  0  0  0  0  0  0  0  0
    2.1650    8.2244    0.0000 H   0  0  0  0  0  0  0  0  0  0  0  0
   -2.2273    7.2460    0.0000 H   0  0  0  0  0  0  0  0  0  0  0  0
   -1.6624    4.7101    0.0000 H   0  0  0  0  0  0  0  0  0  0  0  0
   -0.4490    1.6538    0.0000 H   0  0  0  0  0  0  0  0  0  0  0  0
   -0.4497   -1.7375    0.0000 H   0  0  0  0  0  0  0  0  0  0  0  0
   -2.8257   -3.2546    0.0000 H   0  0  0  0  0  0  0  0  0  0  0  0
   -0.9172   -2.1722    0.0000 H   0  0  0  0  0  0  0  0  0  0  0  0
   -4.3573   -2.2188    0.0000 H   0  0  0  0  0  0  0  0  0  0  0  0
   -4.4789    1.1336    0.0000 H   0  0  0  0  0  0  0  0  0  0  0  0
   -6.8077    2.4926    0.0000 H   0  0  0  0  0  0  0  0  0  0  0  0
   -5.1411    1.8548    0.0000 H   0  0  0  0  0  0  0  0  0  0  0  0
   -9.1338   -0.0858    0.0000 H   0  0  0  0  0  0  0  0  0  0  0  0
   -8.0119   -0.7718    0.0000 H   0  0  0  0  0  0  0  0  0  0  0  0
   -9.4594    3.2115    0.0000 H   0  0  0  0  0  0  0  0  0  0  0  0
   -7.7276    2.7816    0.0000 H   0  0  0  0  0  0  0  0  0  0  0  0
  -11.2808    0.3254    0.0000 H   0  0  0  0  0  0  0  0  0  0  0  0
  -13.8412    3.3838    0.0000 H   0  0  0  0  0  0  0  0  0  0  0  0
  -13.1196    0.7962    0.0000 H   0  0  0  0  0  0  0  0  0  0  0  0
  -11.9275    5.1410    0.0000 H   0  0  0  0  0  0  0  0  0  0  0  0
   -9.4489    4.3622    0.0000 H   0  0  0  0  0  0  0  0  0  0  0  0
   -8.4139    1.2645    0.0000 H   0  0  0  0  0  0  0  0  0  0  0  0
   -8.2361   -2.0854    0.0000 H   0  0  0  0  0  0  0  0  0  0  0  0
  -10.6122   -3.6025    0.0000 H   0  0  0  0  0  0  0  0  0  0  0  0
   -8.8314   -2.8627    0.0000 H   0  0  0  0  0  0  0  0  0  0  0  0
  -12.9812   -1.2859    0.0000 H   0  0  0  0  0  0  0  0  0  0  0  0
  -12.1026   -0.5471    0.0000 H   0  0  0  0  0  0  0  0  0  0  0  0
  -14.9612   -4.1648    0.0000 H   0  0  0  0  0  0  0  0  0  0  0  0
  -15.1493   -1.8946    0.0000 H   0  0  0  0  0  0  0  0  0  0  0  0
  -12.1438   -2.5666    0.0000 H   0  0  0  0  0  0  0  0  0  0  0  0
  -12.2654    0.7858    0.0000 H   0  0  0  0  0  0  0  0  0  0  0  0
  -14.5941    2.1447    0.0000 H   0  0  0  0  0  0  0  0  0  0  0  0
  -12.7698    1.1770    0.0000 H   0  0  0  0  0  0  0  0  0  0  0  0
  -16.9202   -0.4337    0.0000 H   0  0  0  0  0  0  0  0  0  0  0  0
  -15.9793   -1.0912    0.0000 H   0  0  0  0  0  0  0  0  0  0  0  0
  -17.2459    2.8637    0.0000 H   0  0  0  0  0  0  0  0  0  0  0  0
  -15.5140    2.4338    0.0000 H   0  0  0  0  0  0  0  0  0  0  0  0
  -19.0673   -0.0225    0.0000 H   0  0  0  0  0  0  0  0  0  0  0  0
  -21.6277    3.0359    0.0000 H   0  0  0  0  0  0  0  0  0  0  0  0
  -20.9061    0.4484    0.0000 H   0  0  0  0  0  0  0  0  0  0  0  0
  -19.7140    4.7931    0.0000 H   0  0  0  0  0  0  0  0  0  0  0  0
  -17.2354    4.0144    0.0000 H   0  0  0  0  0  0  0  0  0  0  0  0
  -16.2004    0.9166    0.0000 H   0  0  0  0  0  0  0  0  0  0  0  0
  -16.0226   -2.4333    0.0000 H   0  0  0  0  0  0  0  0  0  0  0  0
  -18.2209   -3.9945    0.0000 H   0  0  0  0  0  0  0  0  0  0  0  0
  -16.6178   -3.2106    0.0000 H   0  0  0  0  0  0  0  0  0  0  0  0
  -20.7676   -1.6338    0.0000 H   0  0  0  0  0  0  0  0  0  0  0  0
  -19.8891   -0.8950    0.0000 H   0  0  0  0  0  0  0  0  0  0  0  0
  -20.7979   -4.9470    0.0000 H   0  0  0  0  0  0  0  0  0  0  0  0
  -19.1113   -4.3644    0.0000 H   0  0  0  0  0  0  0  0  0  0  0  0
  -22.8694   -2.2348    0.0000 H   0  0  0  0  0  0  0  0  0  0  0  0
  -25.1469   -5.5094    0.0000 H   0  0  0  0  0  0  0  0  0  0  0  0
  -24.6590   -2.8678    0.0000 H   0  0  0  0  0  0  0  0  0  0  0  0
  -23.0841   -7.0889    0.0000 H   0  0  0  0  0  0  0  0  0  0  0  0
  -20.6848   -6.0922    0.0000 H   0  0  0  0  0  0  0  0  0  0  0  0
  -19.9302   -2.9145    0.0000 H   0  0  0  0  0  0  0  0  0  0  0  0
  -20.0519    0.4379    0.0000 H   0  0  0  0  0  0  0  0  0  0  0  0
  -22.3806    1.7969    0.0000 H   0  0  0  0  0  0  0  0  0  0  0  0
  -20.5563    0.8291    0.0000 H   0  0  0  0  0  0  0  0  0  0  0  0
  -24.7067   -0.7816    0.0000 H   0  0  0  0  0  0  0  0  0  0  0  0
  -23.7658   -1.4391    0.0000 H   0  0  0  0  0  0  0  0  0  0  0  0
  -25.0324    2.5158    0.0000 H   0  0  0  0  0  0  0  0  0  0  0  0
  -23.3005    2.0859    0.0000 H   0  0  0  0  0  0  0  0  0  0  0  0
  -26.8537   -0.3704    0.0000 H   0  0  0  0  0  0  0  0  0  0  0  0
  -29.4142    2.6881    0.0000 H   0  0  0  0  0  0  0  0  0  0  0  0
  -28.6926    0.1005    0.0000 H   0  0  0  0  0  0  0  0  0  0  0  0
  -27.5004    4.4452    0.0000 H   0  0  0  0  0  0  0  0  0  0  0  0
  -25.0218    3.6665    0.0000 H   0  0  0  0  0  0  0  0  0  0  0  0
  -23.9869    0.5687    0.0000 H   0  0  0  0  0  0  0  0  0  0  0  0
  -23.8091   -2.7811    0.0000 H   0  0  0  0  0  0  0  0  0  0  0  0
  -26.0073   -4.3424    0.0000 H   0  0  0  0  0  0  0  0  0  0  0  0
  -24.2766   -3.2158    0.0000 H   0  0  0  0  0  0  0  0  0  0  0  0
  -28.5541   -1.9817    0.0000 H   0  0  0  0  0  0  0  0  0  0  0  0
  -27.6756   -1.2429    0.0000 H   0  0  0  0  0  0  0  0  0  0  0  0
  -28.5844   -5.2949    0.0000 H   0  0  0  0  0  0  0  0  0  0  0  0
  -26.8978   -4.7123    0.0000 H   0  0  0  0  0  0  0  0  0  0  0  0
  -30.6559   -2.5827    0.0000 H   0  0  0  0  0  0  0  0  0  0  0  0
  -32.9334   -5.8572    0.0000 H   0  0  0  0  0  0  0  0  0  0  0  0
  -32.5969   -3.2810    0.0000 H   0  0  0  0  0  0  0  0  0  0  0  0
  -30.8706   -7.4367    0.0000 H   0  0  0  0  0  0  0  0  0  0  0  0
  -28.4713   -6.4401    0.0000 H   0  0  0  0  0  0  0  0  0  0  0  0
  -27.7167   -3.2624    0.0000 H   0  0  0  0  0  0  0  0  0  0  0  0
  -27.8383    0.0900    0.0000 H   0  0  0  0  0  0  0  0  0  0  0  0
  -30.1671    1.4490    0.0000 H   0  0  0  0  0  0  0  0  0  0  0  0
  -28.3427    0.4813    0.0000 H   0  0  0  0  0  0  0  0  0  0  0  0
  -32.4932   -1.1294    0.0000 H   0  0  0  0  0  0  0  0  0  0  0  0
  -31.3713   -1.8154    0.0000 H   0  0  0  0  0  0  0  0  0  0  0  0
  -32.8188    2.1679    0.0000 H   0  0  0  0  0  0  0  0  0  0  0  0
  -31.0870    1.7380    0.0000 H   0  0  0  0  0  0  0  0  0  0  0  0
  -34.1571   -0.9745    0.0000 H   0  0  0  0  0  0  0  0  0  0  0  0
  -37.2006    2.3402    0.0000 H   0  0  0  0  0  0  0  0  0  0  0  0
  -36.6357   -0.1957    0.0000 H   0  0  0  0  0  0  0  0  0  0  0  0
  -35.2869    4.0974    0.0000 H   0  0  0  0  0  0  0  0  0  0  0  0
  -32.8083    3.3186    0.0000 H   0  0  0  0  0  0  0  0  0  0  0  0
  1  2  1  0
  2  3  1  0
  3  4  2  0
  4  5  1  0
  5  6  2  0
  6  7  1  0
  7  8  2  0
  7  9  1  0
  9 10  1  0
 10 11  1  0
 11 12  2  0
  9 13  1  0
 13 14  1  0
 14 15  2  0
 15 16  1  0
 16 17  2  0
 17 18  1  0
 16 19  1  0
 14 20  1  0
 20 21  1  0
 21 22  2  0
 22 23  1  0
 23 24  2  0
 24 25  1  0
 25 26  2  0
 25 27  1  0
  1 28  2  0
  1 29  1  0
 29 30  1  0
 30 31  1  0
 31 32  1  0
 32 33  2  0
 32 34  1  0
 35 34  1  1
 35 36  1  0
 36 37  1  0
 37 38  1  0
 38 39  1  0
 35 40  1  0
 35 41  1  0
 41 42  2  0
 41 43  1  0
 43 44  1  0
 44 45  1  0
 45 46  1  0
 46 47  1  0
 47 48  1  0
 48 49  1  0
 49 50  2  3
 49 51  1  0
 44 52  1  0
 52 53  2  0
 52 54  1  0
 54 55  1  0
 55 56  1  0
 56 57  1  0
 57 58  1  0
 58 59  1  0
 59 60  1  0
 60 61  2  3
 60 62  1  0
 55 63  1  0
 63 64  2  0
 63 65  1  0
 65 66  1  0
 66 67  1  0
 67 68  1  0
 68 69  1  0
 69 70  1  0
 69 71  2  0
 66 72  1  0
 72 73  2  0
 72 74  1  0
 74 75  1  0
 75 76  1  0
 76 77  1  0
 77 78  1  0
 78 79  1  0
 75 80  1  0
 75 81  1  1
 81 82  2  0
 81 83  1  0
 83 84  1  0
 84 85  1  0
 85 86  1  0
 86 87  1  0
 87 88  1  0
 88 89  1  0
 89 90  2  3
 89 91  1  0
 84 92  1  0
 92 93  2  0
 92 94  1  0
 94 95  1  0
 95 96  1  0
 96 97  1  0
 97 98  1  0
 98 99  1  0
 99100  1  0
100101  2  3
100102  1  0
 95103  1  0
103104  2  0
103105  1  0
105106  1  0
106107  1  0
107108  1  0
108109  2  0
108110  1  0
106111  1  0
111112  2  0
111113  1  0
113114  1  0
114115  1  0
115116  1  0
116117  1  0
117118  1  0
118119  1  0
119120  2  3
119121  1  0
114122  1  0
122123  2  0
122124  1  0
124125  1  0
125126  1  0
126127  1  0
127128  1  0
128129  1  0
128130  2  0
125131  1  0
131132  2  0
131133  1  0
133134  1  0
134135  1  0
135136  1  0
136137  1  0
137138  1  0
138139  1  0
139140  2  3
139141  1  0
134142  1  0
142143  2  0
142144  1  0
144145  1  0
145146  1  0
146147  1  0
147148  1  0
148149  1  0
149150  1  0
150151  2  3
150152  1  0
145153  1  0
153154  2  0
153155  1  0
155156  1  0
156157  1  0
157158  1  0
158159  1  0
159160  1  0
160161  1  0
161162  2  3
161163  1  0
156164  1  0
164165  2  0
164166  1  0
166167  1  0
167168  1  0
168169  1  0
169170  1  0
170171  1  0
171172  1  0
172173  2  3
172174  1  0
167175  1  0
175176  2  0
175177  1  0
177178  1  0
178179  1  0
179180  1  0
180181  1  0
181182  1  0
182183  1  0
183184  2  3
183185  1  0
178186  1  0
186187  2  0
186188  1  0
  8  3  1  0
 11  6  1  0
 18 13  2  0
 39 79  2  0
 22  9  1  0
 26 21  1  0
  2189  1  0
  4190  1  0
  5191  1  0
  8192  1  0
 15193  1  0
 17194  1  0
 18195  1  0
 19196  1  0
 23197  1  0
 24198  1  0
 26199  1  0
 27200  1  0
 29201  1  0
 30202  1  0
 30203  1  0
 31204  1  0
 31205  1  0
 34206  1  0
 36207  1  0
 36208  1  0
 37209  1  0
 37210  1  0
 38211  1  0
 38212  1  0
 39213  1  0
 40214  1  0
 40215  1  0
 40216  1  0
 43217  1  0
 44218  1  6
 45219  1  0
 45220  1  0
 46221  1  0
 46222  1  0
 47223  1  0
 47224  1  0
 48225  1  0
 50226  1  0
 50227  1  0
 51228  1  0
 51229  1  0
 54230  1  0
 55231  1  6
 56232  1  0
 56233  1  0
 57234  1  0
 57235  1  0
 58236  1  0
 58237  1  0
 59238  1  0
 61239  1  0
 61240  1  0
 62241  1  0
 62242  1  0
 65243  1  0
 66244  1  6
 67245  1  0
 67246  1  0
 68247  1  0
 68248  1  0
 70249  1  0
 70250  1  0
 74251  1  0
 76252  1  0
 76253  1  0
 77254  1  0
 77255  1  0
 78256  1  0
 78257  1  0
 79258  1  0
 80259  1  0
 80260  1  0
 80261  1  0
 83262  1  0
 84263  1  1
 85264  1  0
 85265  1  0
 86266  1  0
 86267  1  0
 87268  1  0
 87269  1  0
 88270  1  0
 90271  1  0
 90272  1  0
 91273  1  0
 91274  1  0
 94275  1  0
 95276  1  6
 96277  1  0
 96278  1  0
 97279  1  0
 97280  1  0
 98281  1  0
 98282  1  0
 99283  1  0
101284  1  0
101285  1  0
102286  1  0
102287  1  0
105288  1  0
106289  1  1
107290  1  0
107291  1  0
113292  1  0
114293  1  6
115294  1  0
115295  1  0
116296  1  0
116297  1  0
117298  1  0
117299  1  0
118300  1  0
120301  1  0
120302  1  0
121303  1  0
121304  1  0
124305  1  0
125306  1  1
126307  1  0
126308  1  0
127309  1  0
127310  1  0
129311  1  0
129312  1  0
133313  1  0
134314  1  6
135315  1  0
135316  1  0
136317  1  0
136318  1  0
137319  1  0
137320  1  0
138321  1  0
140322  1  0
140323  1  0
141324  1  0
141325  1  0
144326  1  0
145327  1  1
146328  1  0
146329  1  0
147330  1  0
147331  1  0
148332  1  0
148333  1  0
149334  1  0
151335  1  0
151336  1  0
152337  1  0
152338  1  0
155339  1  0
156340  1  6
157341  1  0
157342  1  0
158343  1  0
158344  1  0
159345  1  0
159346  1  0
160347  1  0
162348  1  0
162349  1  0
163350  1  0
163351  1  0
166352  1  0
167353  1  1
168354  1  0
168355  1  0
169356  1  0
169357  1  0
170358  1  0
170359  1  0
171360  1  0
173361  1  0
173362  1  0
174363  1  0
174364  1  0
177365  1  0
178366  1  6
179367  1  0
179368  1  0
180369  1  0
180370  1  0
181371  1  0
181372  1  0
182373  1  0
184374  1  0
184375  1  0
185376  1  0
185377  1  0
M  CHG  8  50   1  61   1  90   1 101   1 110  -1 120   1 140   1 151   1
M  CHG  4 162   1 173   1 184   1 188  -1
M  END
