
     RDKit          2D

241248  0  0  0  0  0  0  0  0999 V2000
   24.2233   -2.2925    0.0000 C   0  0  0  0  0  0  0  0  0  0  0  0
   25.6485   -1.8247    0.0000 N   0  0  0  0  0  0  0  0  0  0  0  0
   26.7662   -2.8251    0.0000 C   0  0  0  0  0  0  0  0  0  0  0  0
   26.4587   -4.2932    0.0000 C   0  0  0  0  0  0  0  0  0  0  0  0
   27.5764   -5.2936    0.0000 C   0  0  0  0  0  0  0  0  0  0  0  0
   29.0016   -4.8258    0.0000 C   0  0  0  0  0  0  0  0  0  0  0  0
   29.3091   -3.3577    0.0000 C   0  0  0  0  0  0  0  0  0  0  0  0
   28.1914   -2.3573    0.0000 C   0  0  0  0  0  0  0  0  0  0  0  0
   30.8004   -3.1964    0.0000 C   0  0  0  0  0  0  0  0  0  0  0  0
   31.4146   -4.5649    0.0000 O   0  0  0  0  0  0  0  0  0  0  0  0
   30.3029   -5.5720    0.0000 C   0  0  0  0  0  0  0  0  0  0  0  0
   30.4641   -7.0633    0.0000 O   0  0  0  0  0  0  0  0  0  0  0  0
   32.3004   -3.1920    0.0000 C   0  0  0  0  0  0  0  0  0  0  0  0
   33.0465   -1.8907    0.0000 C   0  0  0  0  0  0  0  0  0  0  0  0
   34.5465   -1.8862    0.0000 C   0  0  0  0  0  0  0  0  0  0  0  0
   35.3004   -3.1830    0.0000 C   0  0  0  0  0  0  0  0  0  0  0  0
   34.5542   -4.4843    0.0000 C   0  0  0  0  0  0  0  0  0  0  0  0
   33.0543   -4.4888    0.0000 C   0  0  0  0  0  0  0  0  0  0  0  0
   36.8004   -3.1786    0.0000 O   0  0  0  0  0  0  0  0  0  0  0  0
   32.2926   -0.5939    0.0000 O   0  0  0  0  0  0  0  0  0  0  0  0
   30.7926   -0.5984    0.0000 C   0  0  0  0  0  0  0  0  0  0  0  0
   30.0465   -1.8996    0.0000 C   0  0  0  0  0  0  0  0  0  0  0  0
   28.8947   -1.2969    0.0000 C   0  0  0  0  0  0  0  0  0  0  0  0
   28.4927   -0.6052    0.0000 C   0  0  0  0  0  0  0  0  0  0  0  0
   28.8906    0.0888    0.0000 C   0  0  0  0  0  0  0  0  0  0  0  0
   29.6906    0.0912    0.0000 C   0  0  0  0  0  0  0  0  0  0  0  0
   27.7849    1.9907    0.0000 O   0  0  0  0  0  0  0  0  0  0  0  0
   23.9158   -3.7606    0.0000 S   0  0  0  0  0  0  0  0  0  0  0  0
   23.1056   -1.2921    0.0000 N   0  0  0  0  0  0  0  0  0  0  0  0
   21.6804   -1.7599    0.0000 C   0  0  0  0  0  0  0  0  0  0  0  0
   20.5627   -0.7595    0.0000 C   0  0  0  0  0  0  0  0  0  0  0  0
   19.1375   -1.2273    0.0000 O   0  0  0  0  0  0  0  0  0  0  0  0
   18.0198   -0.2269    0.0000 C   0  0  0  0  0  0  0  0  0  0  0  0
   16.5946   -0.6947    0.0000 O   0  0  0  0  0  0  0  0  0  0  0  0
   15.4769    0.3057    0.0000 C   0  0  0  0  0  0  0  0  0  0  0  0
   14.0517   -0.1621    0.0000 C   0  0  0  0  0  0  0  0  0  0  0  0
   12.9340    0.8382    0.0000 O   0  0  0  0  0  0  0  0  0  0  0  0
   11.5088    0.3705    0.0000 C   0  0  0  0  0  0  0  0  0  0  0  0
   10.3911    1.3708    0.0000 C   0  0  0  0  0  0  0  0  0  0  0  0
    8.9659    0.9031    0.0000 C   0  0  0  0  0  0  0  0  0  0  0  0
    8.8396   -0.5916    0.0000 O   0  0  0  0  0  0  0  0  0  0  0  0
    7.8482    1.9034    0.0000 N   0  0  0  0  0  0  0  0  0  0  0  0
    6.4230    1.4357    0.0000 C   0  0  0  0  0  0  0  0  0  0  0  0
    5.8307    0.0576    0.0000 C   0  0  0  0  0  0  0  0  0  0  0  0
    4.8585   -1.0847    0.0000 C   0  0  0  0  0  0  0  0  0  0  0  0
    3.5928   -1.8897    0.0000 C   0  0  0  0  0  0  0  0  0  0  0  0
    2.1460   -2.2859    0.0000 C   0  0  0  0  0  0  0  0  0  0  0  0
    7.5629    0.4606    0.0000 C   0  0  0  0  0  0  0  0  0  0  0  0
    6.5828    2.9271    0.0000 C   0  0  0  0  0  0  0  0  0  0  0  0
    8.0624    3.1736    0.0000 O   0  0  0  0  0  0  0  0  0  0  0  0
    6.2958    4.3994    0.0000 N   0  0  0  0  0  0  0  0  0  0  0  0
    5.5877    5.7217    0.0000 C   0  0  0  0  0  0  0  0  0  0  0  0
    4.5212    6.7766    0.0000 C   0  0  0  0  0  0  0  0  0  0  0  0
    5.4053    7.9883    0.0000 O   0  0  0  0  0  0  0  0  0  0  0  0
    3.1912    7.4702    0.0000 N   0  0  0  0  0  0  0  0  0  0  0  0
    1.7159    7.7410    0.0000 C   0  0  0  0  0  0  0  0  0  0  0  0
    0.9427    9.0264    0.0000 C   0  0  0  0  0  0  0  0  0  0  0  0
    0.2263    7.5649    0.0000 C   0  0  0  0  0  0  0  0  0  0  0  0
   -0.1699    9.0116    0.0000 O   0  0  0  0  0  0  0  0  0  0  0  0
   -1.1453    6.9575    0.0000 N   0  0  0  0  0  0  0  0  0  0  0  0
   -2.2769    5.9729    0.0000 C   0  0  0  0  0  0  0  0  0  0  0  0
   -3.7639    6.1698    0.0000 C   0  0  0  0  0  0  0  0  0  0  0  0
   -4.3369    7.5561    0.0000 C   0  0  0  0  0  0  0  0  0  0  0  0
   -3.4228    8.7454    0.0000 C   0  0  0  0  0  0  0  0  0  0  0  0
   -3.9958   10.1317    0.0000 C   0  0  0  0  0  0  0  0  0  0  0  0
   -5.4828   10.3286    0.0000 C   0  0  0  0  0  0  0  0  0  0  0  0
   -6.3968    9.1393    0.0000 C   0  0  0  0  0  0  0  0  0  0  0  0
   -5.8239    7.7530    0.0000 C   0  0  0  0  0  0  0  0  0  0  0  0
   -3.0679    4.6985    0.0000 C   0  0  0  0  0  0  0  0  0  0  0  0
   -4.4461    5.2908    0.0000 O   0  0  0  0  0  0  0  0  0  0  0  0
   -3.4482    3.2475    0.0000 N   0  0  0  0  0  0  0  0  0  0  0  0
   -3.3839    1.7489    0.0000 C   0  0  0  0  0  0  0  0  0  0  0  0
   -2.8808    0.3358    0.0000 C   0  0  0  0  0  0  0  0  0  0  0  0
   -1.9835   -0.8662    0.0000 C   0  0  0  0  0  0  0  0  0  0  0  0
   -0.7717   -1.7503    0.0000 C   0  0  0  0  0  0  0  0  0  0  0  0
    0.6468   -2.2380    0.0000 C   0  0  0  0  0  0  0  0  0  0  0  0
   -4.7764    2.3066    0.0000 C   0  0  0  0  0  0  0  0  0  0  0  0
   -4.4650    0.7090    0.0000 C   0  0  0  0  0  0  0  0  0  0  0  0
   -4.4681   -0.7910    0.0000 O   0  0  0  0  0  0  0  0  0  0  0  0
   -5.9061    1.1254    0.0000 N   0  0  0  0  0  0  0  0  0  0  0  0
   -6.9872    0.0856    0.0000 C   0  0  0  0  0  0  0  0  0  0  0  0
   -7.6475   -1.2613    0.0000 C   0  0  0  0  0  0  0  0  0  0  0  0
   -9.1440   -1.3629    0.0000 C   0  0  0  0  0  0  0  0  0  0  0  0
   -9.8043   -2.7098    0.0000 N   0  0  0  0  0  0  0  0  0  0  0  0
   -9.7354   -0.8284    0.0000 O   0  0  0  0  0  0  0  0  0  0  0  0
   -8.4283    0.5019    0.0000 C   0  0  0  0  0  0  0  0  0  0  0  0
   -8.7882    1.9581    0.0000 O   0  0  0  0  0  0  0  0  0  0  0  0
   -9.5094   -0.5379    0.0000 N   0  0  0  0  0  0  0  0  0  0  0  0
  -10.9504   -0.1216    0.0000 C   0  0  0  0  0  0  0  0  0  0  0  0
  -12.1622    0.7626    0.0000 C   0  0  0  0  0  0  0  0  0  0  0  0
  -13.5337    0.1552    0.0000 C   0  0  0  0  0  0  0  0  0  0  0  0
  -14.7455    1.0393    0.0000 C   0  0  0  0  0  0  0  0  0  0  0  0
  -14.6148   -0.8846    0.0000 C   0  0  0  0  0  0  0  0  0  0  0  0
  -12.0315   -1.1614    0.0000 C   0  0  0  0  0  0  0  0  0  0  0  0
  -11.8517   -2.6506    0.0000 O   0  0  0  0  0  0  0  0  0  0  0  0
  -13.4726   -0.7450    0.0000 N   0  0  0  0  0  0  0  0  0  0  0  0
  -14.5537   -1.7849    0.0000 C   0  0  0  0  0  0  0  0  0  0  0  0
  -15.2139   -3.1317    0.0000 C   0  0  0  0  0  0  0  0  0  0  0  0
  -16.7105   -3.2334    0.0000 C   0  0  0  0  0  0  0  0  0  0  0  0
  -17.5468   -1.9881    0.0000 C   0  0  0  0  0  0  0  0  0  0  0  0
  -19.0433   -2.0898    0.0000 C   0  0  0  0  0  0  0  0  0  0  0  0
  -19.7036   -3.4366    0.0000 C   0  0  0  0  0  0  0  0  0  0  0  0
  -18.8673   -4.6819    0.0000 C   0  0  0  0  0  0  0  0  0  0  0  0
  -17.3708   -4.5802    0.0000 C   0  0  0  0  0  0  0  0  0  0  0  0
  -15.9947   -1.3685    0.0000 C   0  0  0  0  0  0  0  0  0  0  0  0
  -16.5295    0.0329    0.0000 O   0  0  0  0  0  0  0  0  0  0  0  0
  -17.0758   -2.4083    0.0000 N   0  0  0  0  0  0  0  0  0  0  0  0
  -18.5169   -1.9920    0.0000 C   0  0  0  0  0  0  0  0  0  0  0  0
  -19.7287   -1.1079    0.0000 C   0  0  0  0  0  0  0  0  0  0  0  0
  -19.5689    0.3836    0.0000 C   0  0  0  0  0  0  0  0  0  0  0  0
  -20.7806    1.2677    0.0000 C   0  0  0  0  0  0  0  0  0  0  0  0
  -20.6208    2.7592    0.0000 N   0  0  0  0  0  0  0  0  0  0  0  0
  -22.1522    0.6604    0.0000 O   0  0  0  0  0  0  0  0  0  0  0  0
  -19.5980   -3.0318    0.0000 C   0  0  0  0  0  0  0  0  0  0  0  0
  -19.6011   -4.5318    0.0000 O   0  0  0  0  0  0  0  0  0  0  0  0
  -21.0391   -2.6155    0.0000 N   0  0  0  0  0  0  0  0  0  0  0  0
  -22.1202   -3.6553    0.0000 C   0  0  0  0  0  0  0  0  0  0  0  0
  -22.7804   -5.0021    0.0000 C   0  0  0  0  0  0  0  0  0  0  0  0
  -24.1411   -5.6335    0.0000 O   0  0  0  0  0  0  0  0  0  0  0  0
  -23.5612   -3.2389    0.0000 C   0  0  0  0  0  0  0  0  0  0  0  0
  -23.9212   -1.7828    0.0000 O   0  0  0  0  0  0  0  0  0  0  0  0
  -24.6423   -4.2787    0.0000 N   0  0  0  0  0  0  0  0  0  0  0  0
  -26.0834   -3.8624    0.0000 C   0  0  0  0  0  0  0  0  0  0  0  0
  -27.2951   -2.9783    0.0000 C   0  0  0  0  0  0  0  0  0  0  0  0
  -27.1353   -1.4868    0.0000 C   0  0  0  0  0  0  0  0  0  0  0  0
  -27.1645   -4.9022    0.0000 C   0  0  0  0  0  0  0  0  0  0  0  0
  -28.6455   -4.6646    0.0000 O   0  0  0  0  0  0  0  0  0  0  0  0
  -26.8045   -6.3584    0.0000 O   0  0  0  0  0  0  0  0  0  0  0  0
   25.7747   -0.3300    0.0000 H   0  0  0  0  0  0  0  0  0  0  0  0
   25.0335   -4.7610    0.0000 H   0  0  0  0  0  0  0  0  0  0  0  0
   27.2689   -6.7617    0.0000 H   0  0  0  0  0  0  0  0  0  0  0  0
   28.1345   -0.8584    0.0000 H   0  0  0  0  0  0  0  0  0  0  0  0
   35.2926   -0.5850    0.0000 H   0  0  0  0  0  0  0  0  0  0  0  0
   35.3081   -5.7811    0.0000 H   0  0  0  0  0  0  0  0  0  0  0  0
   32.3081   -5.7900    0.0000 H   0  0  0  0  0  0  0  0  0  0  0  0
   37.5542   -4.4754    0.0000 H   0  0  0  0  0  0  0  0  0  0  0  0
   27.8004   -3.2054    0.0000 H   0  0  0  0  0  0  0  0  0  0  0  0
   26.3033   -0.4289    0.0000 H   0  0  0  0  0  0  0  0  0  0  0  0
   30.7849    1.9997    0.0000 H   0  0  0  0  0  0  0  0  0  0  0  0
   28.5310    3.2920    0.0000 H   0  0  0  0  0  0  0  0  0  0  0  0
   23.4131    0.1760    0.0000 H   0  0  0  0  0  0  0  0  0  0  0  0
   20.5011   -2.6869    0.0000 H   0  0  0  0  0  0  0  0  0  0  0  0
   22.3885   -3.0822    0.0000 H   0  0  0  0  0  0  0  0  0  0  0  0
   20.0210    0.6392    0.0000 H   0  0  0  0  0  0  0  0  0  0  0  0
   21.7419    0.1675    0.0000 H   0  0  0  0  0  0  0  0  0  0  0  0
   17.4781    1.1718    0.0000 H   0  0  0  0  0  0  0  0  0  0  0  0
   19.0772    0.8369    0.0000 H   0  0  0  0  0  0  0  0  0  0  0  0
   14.7687    1.6280    0.0000 H   0  0  0  0  0  0  0  0  0  0  0  0
   16.5343    1.3695    0.0000 H   0  0  0  0  0  0  0  0  0  0  0  0
   12.9942   -1.2260    0.0000 H   0  0  0  0  0  0  0  0  0  0  0  0
   14.7598   -1.4844    0.0000 H   0  0  0  0  0  0  0  0  0  0  0  0
   10.3295   -0.5565    0.0000 H   0  0  0  0  0  0  0  0  0  0  0  0
   12.0505   -1.0283    0.0000 H   0  0  0  0  0  0  0  0  0  0  0  0
    9.6829    2.6932    0.0000 H   0  0  0  0  0  0  0  0  0  0  0  0
   11.5703    2.2979    0.0000 H   0  0  0  0  0  0  0  0  0  0  0  0
    8.3323    3.3231    0.0000 H   0  0  0  0  0  0  0  0  0  0  0  0
    7.3225   -0.0986    0.0000 H   0  0  0  0  0  0  0  0  0  0  0  0
    6.4720   -1.2984    0.0000 H   0  0  0  0  0  0  0  0  0  0  0  0
    6.1560   -1.8374    0.0000 H   0  0  0  0  0  0  0  0  0  0  0  0
    5.2511   -2.5325    0.0000 H   0  0  0  0  0  0  0  0  0  0  0  0
    4.7375   -2.8591    0.0000 H   0  0  0  0  0  0  0  0  0  0  0  0
    3.3589   -3.3714    0.0000 H   0  0  0  0  0  0  0  0  0  0  0  0
    2.3221   -3.7755    0.0000 H   0  0  0  0  0  0  0  0  0  0  0  0
    7.3785   -1.1951    0.0000 H   0  0  0  0  0  0  0  0  0  0  0  0
    8.6559   -0.5051    0.0000 H   0  0  0  0  0  0  0  0  0  0  0  0
    8.5821    1.2965    0.0000 H   0  0  0  0  0  0  0  0  0  0  0  0
    7.7089    4.9026    0.0000 H   0  0  0  0  0  0  0  0  0  0  0  0
    6.1106    7.1277    0.0000 H   0  0  0  0  0  0  0  0  0  0  0  0
    7.0842    5.8234    0.0000 H   0  0  0  0  0  0  0  0  0  0  0  0
    3.6789    8.8887    0.0000 H   0  0  0  0  0  0  0  0  0  0  0  0
    2.5695    8.9744    0.0000 H   0  0  0  0  0  0  0  0  0  0  0  0
    1.6693   10.3387    0.0000 H   0  0  0  0  0  0  0  0  0  0  0  0
   -0.2235    9.9698    0.0000 H   0  0  0  0  0  0  0  0  0  0  0  0
   -0.3935    8.3448    0.0000 H   0  0  0  0  0  0  0  0  0  0  0  0
   -1.7900    8.3119    0.0000 H   0  0  0  0  0  0  0  0  0  0  0  0
   -2.7090    7.4093    0.0000 H   0  0  0  0  0  0  0  0  0  0  0  0
   -5.2286    5.8463    0.0000 H   0  0  0  0  0  0  0  0  0  0  0  0
   -4.0641    4.7002    0.0000 H   0  0  0  0  0  0  0  0  0  0  0  0
   -1.9229    8.7312    0.0000 H   0  0  0  0  0  0  0  0  0  0  0  0
   -3.0817   11.3210    0.0000 H   0  0  0  0  0  0  0  0  0  0  0  0
   -6.0558   11.7148    0.0000 H   0  0  0  0  0  0  0  0  0  0  0  0
   -7.8839    9.3362    0.0000 H   0  0  0  0  0  0  0  0  0  0  0  0
   -6.7379    6.5637    0.0000 H   0  0  0  0  0  0  0  0  0  0  0  0
   -4.9397    3.4073    0.0000 H   0  0  0  0  0  0  0  0  0  0  0  0
   -3.6074   -0.9765    0.0000 H   0  0  0  0  0  0  0  0  0  0  0  0
   -4.3610    0.0929    0.0000 H   0  0  0  0  0  0  0  0  0  0  0  0
   -2.4676   -2.2859    0.0000 H   0  0  0  0  0  0  0  0  0  0  0  0
   -3.3263   -1.5346    0.0000 H   0  0  0  0  0  0  0  0  0  0  0  0
   -0.6328   -3.2439    0.0000 H   0  0  0  0  0  0  0  0  0  0  0  0
   -1.9759   -2.6447    0.0000 H   0  0  0  0  0  0  0  0  0  0  0  0
    0.3760   -3.7134    0.0000 H   0  0  0  0  0  0  0  0  0  0  0  0
   -6.1449    1.6925    0.0000 H   0  0  0  0  0  0  0  0  0  0  0  0
   -5.7638    3.4358    0.0000 H   0  0  0  0  0  0  0  0  0  0  0  0
   -4.3172    3.7346    0.0000 H   0  0  0  0  0  0  0  0  0  0  0  0
   -6.4409    2.5268    0.0000 H   0  0  0  0  0  0  0  0  0  0  0  0
   -5.7755   -0.7985    0.0000 H   0  0  0  0  0  0  0  0  0  0  0  0
   -7.8073   -2.7528    0.0000 H   0  0  0  0  0  0  0  0  0  0  0  0
   -6.2064   -1.6777    0.0000 H   0  0  0  0  0  0  0  0  0  0  0  0
  -11.2773   -2.9931    0.0000 H   0  0  0  0  0  0  0  0  0  0  0  0
   -8.9680   -3.9550    0.0000 H   0  0  0  0  0  0  0  0  0  0  0  0
   -9.5125   -2.0379    0.0000 H   0  0  0  0  0  0  0  0  0  0  0  0
  -10.2902    1.2253    0.0000 H   0  0  0  0  0  0  0  0  0  0  0  0
  -12.8404    2.1004    0.0000 H   0  0  0  0  0  0  0  0  0  0  0  0
  -11.0811    1.8024    0.0000 H   0  0  0  0  0  0  0  0  0  0  0  0
  -13.3801   -1.3369    0.0000 H   0  0  0  0  0  0  0  0  0  0  0  0
  -16.2232    0.7819    0.0000 H   0  0  0  0  0  0  0  0  0  0  0  0
  -15.5818    2.2845    0.0000 H   0  0  0  0  0  0  0  0  0  0  0  0
  -13.7992    2.2032    0.0000 H   0  0  0  0  0  0  0  0  0  0  0  0
  -15.9944   -0.2957    0.0000 H   0  0  0  0  0  0  0  0  0  0  0  0
  -15.2751   -2.2315    0.0000 H   0  0  0  0  0  0  0  0  0  0  0  0
  -13.3043   -1.6144    0.0000 H   0  0  0  0  0  0  0  0  0  0  0  0
  -14.1742    0.5808    0.0000 H   0  0  0  0  0  0  0  0  0  0  0  0
  -13.4587   -2.8101    0.0000 H   0  0  0  0  0  0  0  0  0  0  0  0
  -15.3737   -4.6232    0.0000 H   0  0  0  0  0  0  0  0  0  0  0  0
  -13.7729   -3.5481    0.0000 H   0  0  0  0  0  0  0  0  0  0  0  0
  -17.2321   -0.5215    0.0000 H   0  0  0  0  0  0  0  0  0  0  0  0
  -20.1561   -1.0839    0.0000 H   0  0  0  0  0  0  0  0  0  0  0  0
  -21.2002   -3.5383    0.0000 H   0  0  0  0  0  0  0  0  0  0  0  0
  -19.5276   -6.0287    0.0000 H   0  0  0  0  0  0  0  0  0  0  0  0
  -16.5345   -5.8255    0.0000 H   0  0  0  0  0  0  0  0  0  0  0  0
  -17.0789   -3.9083    0.0000 H   0  0  0  0  0  0  0  0  0  0  0  0
  -17.6974   -0.7356    0.0000 H   0  0  0  0  0  0  0  0  0  0  0  0
  -21.1082   -0.5190    0.0000 H   0  0  0  0  0  0  0  0  0  0  0  0
  -20.6952   -2.2549    0.0000 H   0  0  0  0  0  0  0  0  0  0  0  0
  -18.9086    1.7305    0.0000 H   0  0  0  0  0  0  0  0  0  0  0  0
  -18.0878    0.1460    0.0000 H   0  0  0  0  0  0  0  0  0  0  0  0
  -21.8326    3.6433    0.0000 H   0  0  0  0  0  0  0  0  0  0  0  0
  -19.2493    3.3665    0.0000 H   0  0  0  0  0  0  0  0  0  0  0  0
  -21.5738   -1.2140    0.0000 H   0  0  0  0  0  0  0  0  0  0  0  0
  -20.9084   -4.5394    0.0000 H   0  0  0  0  0  0  0  0  0  0  0  0
  -22.9402   -6.4936    0.0000 H   0  0  0  0  0  0  0  0  0  0  0  0
  -21.3394   -5.4185    0.0000 H   0  0  0  0  0  0  0  0  0  0  0  0
  -24.9372   -6.4506    0.0000 H   0  0  0  0  0  0  0  0  0  0  0  0
  -24.4625   -5.7679    0.0000 H   0  0  0  0  0  0  0  0  0  0  0  0
  -25.2639   -2.6061    0.0000 H   0  0  0  0  0  0  0  0  0  0  0  0
  -28.7362   -2.5619    0.0000 H   0  0  0  0  0  0  0  0  0  0  0  0
  -28.1146   -4.2346    0.0000 H   0  0  0  0  0  0  0  0  0  0  0  0
  -28.3471   -0.6027    0.0000 H   0  0  0  0  0  0  0  0  0  0  0  0
  -26.4751   -0.1400    0.0000 H   0  0  0  0  0  0  0  0  0  0  0  0
  -25.6543   -1.7244    0.0000 H   0  0  0  0  0  0  0  0  0  0  0  0
  -27.8856   -7.3982    0.0000 H   0  0  0  0  0  0  0  0  0  0  0  0
  1  2  1  0
  2  3  1  0
  3  4  2  0
  4  5  1  0
  5  6  2  0
  6  7  1  0
  7  8  2  0
  7  9  1  0
  9 10  1  0
 10 11  1  0
 11 12  2  0
  9 13  1  0
 13 14  1  0
 14 15  2  0
 15 16  1  0
 16 17  2  0
 17 18  1  0
 16 19  1  0
 14 20  1  0
 20 21  1  0
 21 22  2  0
 22 23  1  0
 23 24  2  0
 24 25  1  0
 25 26  2  0
 25 27  1  0
  1 28  2  0
  1 29  1  0
 29 30  1  0
 30 31  1  0
 31 32  1  0
 32 33  1  0
 33 34  1  0
 34 35  1  0
 35 36  1  0
 36 37  1  0
 37 38  1  0
 38 39  1  0
 39 40  1  0
 40 41  2  0
 40 42  1  0
 43 42  1  1
 43 44  1  0
 44 45  1  0
 45 46  1  0
 46 47  1  0
 43 48  1  0
 43 49  1  0
 49 50  2  0
 49 51  1  0
 51 52  1  0
 52 53  1  0
 53 54  2  0
 53 55  1  0
 55 56  1  0
 56 57  1  0
 56 58  1  0
 58 59  2  0
 58 60  1  0
 60 61  1  0
 61 62  1  0
 62 63  1  0
 63 64  2  0
 64 65  1  0
 65 66  2  0
 66 67  1  0
 67 68  2  0
 61 69  1  0
 69 70  2  0
 69 71  1  0
 71 72  1  0
 72 73  1  0
 73 74  1  0
 74 75  1  0
 75 76  1  0
 72 77  1  0
 72 78  1  1
 78 79  2  0
 78 80  1  0
 80 81  1  0
 81 82  1  0
 82 83  1  0
 83 84  1  0
 83 85  2  0
 81 86  1  0
 86 87  2  0
 86 88  1  0
 88 89  1  0
 89 90  1  0
 90 91  1  0
 91 92  1  0
 91 93  1  0
 89 94  1  0
 94 95  2  0
 94 96  1  0
 96 97  1  0
 97 98  1  0
 98 99  1  0
 99100  2  0
100101  1  0
101102  2  0
102103  1  0
103104  2  0
 97105  1  0
105106  2  0
105107  1  0
107108  1  0
108109  1  0
109110  1  0
110111  1  0
111112  1  0
111113  2  0
108114  1  0
114115  2  0
114116  1  0
116117  1  0
117118  1  0
118119  1  0
117120  1  0
120121  2  0
120122  1  0
122123  1  0
123124  1  0
124125  1  0
123126  1  0
126127  2  0
126128  1  0
  8  3  1  0
 68 63  1  0
104 99  1  0
 11  6  1  0
 47 76  2  0
 18 13  2  0
 22  9  1  0
 26 21  1  0
  2129  1  0
  4130  1  0
  5131  1  0
  8132  1  0
 15133  1  0
 17134  1  0
 18135  1  0
 19136  1  0
 23137  1  0
 24138  1  0
 26139  1  0
 27140  1  0
 29141  1  0
 30142  1  0
 30143  1  0
 31144  1  0
 31145  1  0
 33146  1  0
 33147  1  0
 35148  1  0
 35149  1  0
 36150  1  0
 36151  1  0
 38152  1  0
 38153  1  0
 39154  1  0
 39155  1  0
 42156  1  0
 44157  1  0
 44158  1  0
 45159  1  0
 45160  1  0
 46161  1  0
 46162  1  0
 47163  1  0
 48164  1  0
 48165  1  0
 48166  1  0
 51167  1  0
 52168  1  0
 52169  1  0
 55170  1  0
 56171  1  6
 57172  1  0
 57173  1  0
 57174  1  0
 60175  1  0
 61176  1  6
 62177  1  0
 62178  1  0
 64179  1  0
 65180  1  0
 66181  1  0
 67182  1  0
 68183  1  0
 71184  1  0
 73185  1  0
 73186  1  0
 74187  1  0
 74188  1  0
 75189  1  0
 75190  1  0
 76191  1  0
 77192  1  0
 77193  1  0
 77194  1  0
 80195  1  0
 81196  1  1
 82197  1  0
 82198  1  0
 84199  1  0
 84200  1  0
 88201  1  0
 89202  1  6
 90203  1  0
 90204  1  0
 91205  1  0
 92206  1  0
 92207  1  0
 92208  1  0
 93209  1  0
 93210  1  0
 93211  1  0
 96212  1  0
 97213  1  1
 98214  1  0
 98215  1  0
100216  1  0
101217  1  0
102218  1  0
103219  1  0
104220  1  0
107221  1  0
108222  1  6
109223  1  0
109224  1  0
110225  1  0
110226  1  0
112227  1  0
112228  1  0
116229  1  0
117230  1  1
118231  1  0
118232  1  0
119233  1  0
122234  1  0
123235  1  6
124236  1  0
124237  1  0
125238  1  0
125239  1  0
125240  1  0
128241  1  0
M  END
