
     RDKit          2D

315316  0  0  0  0  0  0  0  0999 V2000
  -26.1229   -4.6577    0.0000 N   0  0  0  0  0  0  0  0  0  0  0  0
  -24.6461   -4.9201    0.0000 C   0  0  0  0  0  0  0  0  0  0  0  0
  -24.1349   -6.3303    0.0000 C   0  0  0  0  0  0  0  0  0  0  0  0
  -22.6581   -6.5928    0.0000 C   0  0  0  0  0  0  0  0  0  0  0  0
  -21.6924   -5.4450    0.0000 O   0  0  0  0  0  0  0  0  0  0  0  0
  -22.1469   -8.0030    0.0000 N   0  0  0  0  0  0  0  0  0  0  0  0
  -20.6701   -8.2654    0.0000 C   0  0  0  0  0  0  0  0  0  0  0  0
  -21.1850   -9.6743    0.0000 C   0  0  0  0  0  0  0  0  0  0  0  0
  -22.6625   -9.9328    0.0000 C   0  0  0  0  0  0  0  0  0  0  0  0
  -23.1774  -11.3416    0.0000 C   0  0  0  0  0  0  0  0  0  0  0  0
  -24.6550  -11.6002    0.0000 O   0  0  0  0  0  0  0  0  0  0  0  0
  -22.2148  -12.4920    0.0000 O   0  0  0  0  0  0  0  0  0  0  0  0
  -19.1925   -8.0069    0.0000 C   0  0  0  0  0  0  0  0  0  0  0  0
  -18.3773   -9.2661    0.0000 O   0  0  0  0  0  0  0  0  0  0  0  0
  -18.6776   -6.5981    0.0000 N   0  0  0  0  0  0  0  0  0  0  0  0
  -17.2000   -6.3396    0.0000 C   0  0  0  0  0  0  0  0  0  0  0  0
  -17.2020   -7.8396    0.0000 C   0  0  0  0  0  0  0  0  0  0  0  0
  -15.9040   -8.5913    0.0000 C   0  0  0  0  0  0  0  0  0  0  0  0
  -15.9060  -10.0913    0.0000 C   0  0  0  0  0  0  0  0  0  0  0  0
  -14.6080  -10.8430    0.0000 O   0  0  0  0  0  0  0  0  0  0  0  0
  -17.2060  -10.8396    0.0000 O   0  0  0  0  0  0  0  0  0  0  0  0
  -15.9000   -5.5913    0.0000 C   0  0  0  0  0  0  0  0  0  0  0  0
  -14.6020   -6.3430    0.0000 O   0  0  0  0  0  0  0  0  0  0  0  0
  -15.8980   -4.0913    0.0000 N   0  0  0  0  0  0  0  0  0  0  0  0
  -14.5980   -3.3431    0.0000 C   0  0  0  0  0  0  0  0  0  0  0  0
  -15.4132   -2.0839    0.0000 C   0  0  0  0  0  0  0  0  0  0  0  0
  -13.1204   -3.0846    0.0000 C   0  0  0  0  0  0  0  0  0  0  0  0
  -12.7811   -1.6234    0.0000 O   0  0  0  0  0  0  0  0  0  0  0  0
  -12.1578   -4.2349    0.0000 N   0  0  0  0  0  0  0  0  0  0  0  0
  -10.6802   -3.9764    0.0000 C   0  0  0  0  0  0  0  0  0  0  0  0
   -9.5797   -4.9956    0.0000 C   0  0  0  0  0  0  0  0  0  0  0  0
   -8.3061   -5.7882    0.0000 C   0  0  0  0  0  0  0  0  0  0  0  0
   -6.9056   -6.3254    0.0000 C   0  0  0  0  0  0  0  0  0  0  0  0
   -5.4288   -6.5878    0.0000 C   0  0  0  0  0  0  0  0  0  0  0  0
   -3.9289   -6.5660    0.0000 C   0  0  0  0  0  0  0  0  0  0  0  0
   -2.4603   -6.2608    0.0000 C   0  0  0  0  0  0  0  0  0  0  0  0
   -1.0760   -5.6831    0.0000 C   0  0  0  0  0  0  0  0  0  0  0  0
  -11.2769   -5.3526    0.0000 C   0  0  0  0  0  0  0  0  0  0  0  0
  -11.5679   -2.7673    0.0000 C   0  0  0  0  0  0  0  0  0  0  0  0
  -12.3310   -2.9981    0.0000 O   0  0  0  0  0  0  0  0  0  0  0  0
  -12.2108   -1.4121    0.0000 N   0  0  0  0  0  0  0  0  0  0  0  0
  -12.5856    0.0404    0.0000 C   0  0  0  0  0  0  0  0  0  0  0  0
  -13.7205   -0.9404    0.0000 C   0  0  0  0  0  0  0  0  0  0  0  0
  -15.1374   -0.4479    0.0000 C   0  0  0  0  0  0  0  0  0  0  0  0
  -16.2723   -1.4287    0.0000 C   0  0  0  0  0  0  0  0  0  0  0  0
  -17.6892   -0.9362    0.0000 C   0  0  0  0  0  0  0  0  0  0  0  0
  -18.8241   -1.9170    0.0000 N   0  0  0  0  0  0  0  0  0  0  0  0
  -12.6788    1.5375    0.0000 C   0  0  0  0  0  0  0  0  0  0  0  0
  -14.1607    1.7694    0.0000 O   0  0  0  0  0  0  0  0  0  0  0  0
  -12.4869    3.0251    0.0000 N   0  0  0  0  0  0  0  0  0  0  0  0
  -12.0169    4.4496    0.0000 C   0  0  0  0  0  0  0  0  0  0  0  0
  -13.5019    4.2381    0.0000 C   0  0  0  0  0  0  0  0  0  0  0  0
  -14.4276    5.4185    0.0000 C   0  0  0  0  0  0  0  0  0  0  0  0
  -15.9126    5.2070    0.0000 C   0  0  0  0  0  0  0  0  0  0  0  0
  -16.8383    6.3873    0.0000 N   0  0  0  0  0  0  0  0  0  0  0  0
  -18.3233    6.1758    0.0000 C   0  0  0  0  0  0  0  0  0  0  0  0
  -19.2490    7.3561    0.0000 N   0  0  0  0  0  0  0  0  0  0  0  0
  -18.8827    4.7840    0.0000 N   0  0  0  0  0  0  0  0  0  0  0  0
  -11.2859    5.7594    0.0000 C   0  0  0  0  0  0  0  0  0  0  0  0
  -12.4072    6.7558    0.0000 O   0  0  0  0  0  0  0  0  0  0  0  0
  -10.3202    6.9072    0.0000 N   0  0  0  0  0  0  0  0  0  0  0  0
   -9.1547    7.8515    0.0000 C   0  0  0  0  0  0  0  0  0  0  0  0
  -10.5183    8.4764    0.0000 C   0  0  0  0  0  0  0  0  0  0  0  0
  -10.6589    9.9698    0.0000 C   0  0  0  0  0  0  0  0  0  0  0  0
  -12.0225   10.5948    0.0000 C   0  0  0  0  0  0  0  0  0  0  0  0
  -12.1631   12.0882    0.0000 N   0  0  0  0  0  0  0  0  0  0  0  0
  -13.5267   12.7131    0.0000 C   0  0  0  0  0  0  0  0  0  0  0  0
  -13.6673   14.2065    0.0000 N   0  0  0  0  0  0  0  0  0  0  0  0
  -14.7497   11.8446    0.0000 N   0  0  0  0  0  0  0  0  0  0  0  0
   -7.8316    8.5581    0.0000 C   0  0  0  0  0  0  0  0  0  0  0  0
   -8.2362   10.0025    0.0000 O   0  0  0  0  0  0  0  0  0  0  0  0
   -6.3986    9.0016    0.0000 N   0  0  0  0  0  0  0  0  0  0  0  0
   -4.9076    9.1659    0.0000 C   0  0  0  0  0  0  0  0  0  0  0  0
   -5.7169   10.4288    0.0000 C   0  0  0  0  0  0  0  0  0  0  0  0
   -3.4125    9.0450    0.0000 C   0  0  0  0  0  0  0  0  0  0  0  0
   -3.1501   10.5219    0.0000 O   0  0  0  0  0  0  0  0  0  0  0  0
   -1.9673    8.6434    0.0000 N   0  0  0  0  0  0  0  0  0  0  0  0
   -0.6242    7.9755    0.0000 C   0  0  0  0  0  0  0  0  0  0  0  0
   -0.6222    9.4755    0.0000 C   0  0  0  0  0  0  0  0  0  0  0  0
    0.6778   10.2237    0.0000 C   0  0  0  0  0  0  0  0  0  0  0  0
    0.8366   11.7153    0.0000 C   0  0  0  0  0  0  0  0  0  0  0  0
    2.3043   12.0252    0.0000 N   0  0  0  0  0  0  0  0  0  0  0  0
    3.0525   10.7252    0.0000 C   0  0  0  0  0  0  0  0  0  0  0  0
    2.0473    9.6118    0.0000 N   0  0  0  0  0  0  0  0  0  0  0  0
    0.5682    7.0655    0.0000 C   0  0  0  0  0  0  0  0  0  0  0  0
    1.5875    8.1660    0.0000 O   0  0  0  0  0  0  0  0  0  0  0  0
    1.5669    5.9462    0.0000 N   0  0  0  0  0  0  0  0  0  0  0  0
    2.3357    4.6582    0.0000 C   0  0  0  0  0  0  0  0  0  0  0  0
    3.1483    5.9190    0.0000 C   0  0  0  0  0  0  0  0  0  0  0  0
    2.8468    3.2480    0.0000 C   0  0  0  0  0  0  0  0  0  0  0  0
    4.2993    3.6228    0.0000 O   0  0  0  0  0  0  0  0  0  0  0  0
    3.0819    1.7665    0.0000 N   0  0  0  0  0  0  0  0  0  0  0  0
    3.0323    0.2674    0.0000 C   0  0  0  0  0  0  0  0  0  0  0  0
    2.6999   -1.1954    0.0000 C   0  0  0  0  0  0  0  0  0  0  0  0
    2.0966   -2.5687    0.0000 C   0  0  0  0  0  0  0  0  0  0  0  0
    1.2444   -3.8031    0.0000 C   0  0  0  0  0  0  0  0  0  0  0  0
    0.1740   -4.8539    0.0000 C   0  0  0  0  0  0  0  0  0  0  0  0
    4.3020   -0.5312    0.0000 C   0  0  0  0  0  0  0  0  0  0  0  0
    4.3976    0.8887    0.0000 C   0  0  0  0  0  0  0  0  0  0  0  0
    4.7231    2.3529    0.0000 O   0  0  0  0  0  0  0  0  0  0  0  0
    5.6183    0.0169    0.0000 N   0  0  0  0  0  0  0  0  0  0  0  0
    6.9835    0.6382    0.0000 C   0  0  0  0  0  0  0  0  0  0  0  0
    8.0540    1.6890    0.0000 C   0  0  0  0  0  0  0  0  0  0  0  0
    8.2042   -0.2335    0.0000 C   0  0  0  0  0  0  0  0  0  0  0  0
    8.0597   -1.7265    0.0000 O   0  0  0  0  0  0  0  0  0  0  0  0
    9.5695    0.3878    0.0000 N   0  0  0  0  0  0  0  0  0  0  0  0
   10.7902   -0.4839    0.0000 C   0  0  0  0  0  0  0  0  0  0  0  0
   11.6392   -1.7205    0.0000 C   0  0  0  0  0  0  0  0  0  0  0  0
   10.9927   -3.0741    0.0000 C   0  0  0  0  0  0  0  0  0  0  0  0
   11.8416   -4.3107    0.0000 C   0  0  0  0  0  0  0  0  0  0  0  0
   11.1951   -5.6642    0.0000 O   0  0  0  0  0  0  0  0  0  0  0  0
   13.3370   -4.1938    0.0000 O   0  0  0  0  0  0  0  0  0  0  0  0
   12.1555    0.1374    0.0000 C   0  0  0  0  0  0  0  0  0  0  0  0
   12.3001    1.6304    0.0000 O   0  0  0  0  0  0  0  0  0  0  0  0
   13.3762   -0.7343    0.0000 N   0  0  0  0  0  0  0  0  0  0  0  0
   14.7415   -0.1130    0.0000 C   0  0  0  0  0  0  0  0  0  0  0  0
   15.8119    0.9378    0.0000 C   0  0  0  0  0  0  0  0  0  0  0  0
   17.2572    0.5361    0.0000 C   0  0  0  0  0  0  0  0  0  0  0  0
   18.3276    1.5869    0.0000 C   0  0  0  0  0  0  0  0  0  0  0  0
   19.7728    1.1853    0.0000 N   0  0  0  0  0  0  0  0  0  0  0  0
   20.8433    2.2361    0.0000 C   0  0  0  0  0  0  0  0  0  0  0  0
   22.2288    1.6613    0.0000 N   0  0  0  0  0  0  0  0  0  0  0  0
   20.4685    3.6885    0.0000 N   0  0  0  0  0  0  0  0  0  0  0  0
   15.9622   -0.9847    0.0000 C   0  0  0  0  0  0  0  0  0  0  0  0
   15.8176   -2.4777    0.0000 O   0  0  0  0  0  0  0  0  0  0  0  0
   17.3275   -0.3634    0.0000 N   0  0  0  0  0  0  0  0  0  0  0  0
   18.5482   -1.2351    0.0000 C   0  0  0  0  0  0  0  0  0  0  0  0
   19.3971   -2.4718    0.0000 C   0  0  0  0  0  0  0  0  0  0  0  0
   19.9134   -0.6138    0.0000 C   0  0  0  0  0  0  0  0  0  0  0  0
   20.4150    0.7998    0.0000 O   0  0  0  0  0  0  0  0  0  0  0  0
   21.1341   -1.4855    0.0000 N   0  0  0  0  0  0  0  0  0  0  0  0
   22.4994   -0.8642    0.0000 C   0  0  0  0  0  0  0  0  0  0  0  0
   23.5699    0.1866    0.0000 C   0  0  0  0  0  0  0  0  0  0  0  0
   25.0151   -0.2151    0.0000 C   0  0  0  0  0  0  0  0  0  0  0  0
   26.0855    0.8357    0.0000 C   0  0  0  0  0  0  0  0  0  0  0  0
   27.5308    0.4341    0.0000 N   0  0  0  0  0  0  0  0  0  0  0  0
   28.6012    1.4848    0.0000 C   0  0  0  0  0  0  0  0  0  0  0  0
   30.0464    1.0832    0.0000 N   0  0  0  0  0  0  0  0  0  0  0  0
   28.2264    2.9373    0.0000 N   0  0  0  0  0  0  0  0  0  0  0  0
   23.7201   -1.7359    0.0000 C   0  0  0  0  0  0  0  0  0  0  0  0
   23.5755   -3.2290    0.0000 O   0  0  0  0  0  0  0  0  0  0  0  0
   25.0854   -1.1146    0.0000 N   0  0  0  0  0  0  0  0  0  0  0  0
   26.3061   -1.9864    0.0000 C   0  0  0  0  0  0  0  0  0  0  0  0
   27.1550   -3.2230    0.0000 C   0  0  0  0  0  0  0  0  0  0  0  0
   26.5085   -4.5765    0.0000 C   0  0  0  0  0  0  0  0  0  0  0  0
   27.3575   -5.8132    0.0000 C   0  0  0  0  0  0  0  0  0  0  0  0
   26.7110   -7.1667    0.0000 N   0  0  0  0  0  0  0  0  0  0  0  0
   27.5599   -8.4034    0.0000 C   0  0  0  0  0  0  0  0  0  0  0  0
   26.9134   -9.7569    0.0000 N   0  0  0  0  0  0  0  0  0  0  0  0
   29.0554   -8.2865    0.0000 N   0  0  0  0  0  0  0  0  0  0  0  0
   27.6714   -1.3651    0.0000 C   0  0  0  0  0  0  0  0  0  0  0  0
   28.9892   -2.0815    0.0000 O   0  0  0  0  0  0  0  0  0  0  0  0
   28.1729    0.0486    0.0000 O   0  0  0  0  0  0  0  0  0  0  0  0
  -26.6341   -3.2474    0.0000 H   0  0  0  0  0  0  0  0  0  0  0  0
  -27.0887   -5.8054    0.0000 H   0  0  0  0  0  0  0  0  0  0  0  0
  -24.6441   -3.4201    0.0000 H   0  0  0  0  0  0  0  0  0  0  0  0
  -23.1685   -4.6616    0.0000 H   0  0  0  0  0  0  0  0  0  0  0  0
  -25.6125   -6.5888    0.0000 H   0  0  0  0  0  0  0  0  0  0  0  0
  -24.1369   -7.8303    0.0000 H   0  0  0  0  0  0  0  0  0  0  0  0
  -23.2453   -9.0245    0.0000 H   0  0  0  0  0  0  0  0  0  0  0  0
  -20.6681   -6.7654    0.0000 H   0  0  0  0  0  0  0  0  0  0  0  0
  -21.1870  -11.1743    0.0000 H   0  0  0  0  0  0  0  0  0  0  0  0
  -19.7081   -9.9367    0.0000 H   0  0  0  0  0  0  0  0  0  0  0  0
  -24.1394   -9.6704    0.0000 H   0  0  0  0  0  0  0  0  0  0  0  0
  -23.1983   -8.5318    0.0000 H   0  0  0  0  0  0  0  0  0  0  0  0
  -19.6402   -5.4477    0.0000 H   0  0  0  0  0  0  0  0  0  0  0  0
  -17.7112   -4.9294    0.0000 H   0  0  0  0  0  0  0  0  0  0  0  0
  -17.5414   -9.3007    0.0000 H   0  0  0  0  0  0  0  0  0  0  0  0
  -18.6985   -7.9423    0.0000 H   0  0  0  0  0  0  0  0  0  0  0  0
  -14.4271   -8.8538    0.0000 H   0  0  0  0  0  0  0  0  0  0  0  0
  -15.3891   -7.1825    0.0000 H   0  0  0  0  0  0  0  0  0  0  0  0
  -17.3792   -3.8548    0.0000 H   0  0  0  0  0  0  0  0  0  0  0  0
  -14.0868   -4.7533    0.0000 H   0  0  0  0  0  0  0  0  0  0  0  0
  -16.9813   -2.6465    0.0000 H   0  0  0  0  0  0  0  0  0  0  0  0
  -16.3978   -0.9481    0.0000 H   0  0  0  0  0  0  0  0  0  0  0  0
  -14.0614   -2.1425    0.0000 H   0  0  0  0  0  0  0  0  0  0  0  0
  -12.8406   -5.5705    0.0000 H   0  0  0  0  0  0  0  0  0  0  0  0
   -9.9052   -6.4599    0.0000 H   0  0  0  0  0  0  0  0  0  0  0  0
  -10.9061   -5.6960    0.0000 H   0  0  0  0  0  0  0  0  0  0  0  0
   -8.3486   -7.2876    0.0000 H   0  0  0  0  0  0  0  0  0  0  0  0
   -9.4761   -6.7269    0.0000 H   0  0  0  0  0  0  0  0  0  0  0  0
   -6.6636   -7.8057    0.0000 H   0  0  0  0  0  0  0  0  0  0  0  0
   -7.8768   -7.4686    0.0000 H   0  0  0  0  0  0  0  0  0  0  0  0
   -4.9109   -7.9956    0.0000 H   0  0  0  0  0  0  0  0  0  0  0  0
   -6.1660   -7.8941    0.0000 H   0  0  0  0  0  0  0  0  0  0  0  0
   -3.1540   -7.8504    0.0000 H   0  0  0  0  0  0  0  0  0  0  0  0
   -4.4056   -7.9883    0.0000 H   0  0  0  0  0  0  0  0  0  0  0  0
   -1.3280   -7.2446    0.0000 H   0  0  0  0  0  0  0  0  0  0  0  0
   -2.6592   -7.7475    0.0000 H   0  0  0  0  0  0  0  0  0  0  0  0
   -0.3694   -7.0062    0.0000 H   0  0  0  0  0  0  0  0  0  0  0  0
  -12.5028   -5.9204    0.0000 H   0  0  0  0  0  0  0  0  0  0  0  0
  -11.0116   -6.9122    0.0000 H   0  0  0  0  0  0  0  0  0  0  0  0
   -9.7194   -5.9788    0.0000 H   0  0  0  0  0  0  0  0  0  0  0  0
  -13.4555   -2.2493    0.0000 H   0  0  0  0  0  0  0  0  0  0  0  0
  -13.8872    0.7859    0.0000 H   0  0  0  0  0  0  0  0  0  0  0  0
  -14.2865   -2.3296    0.0000 H   0  0  0  0  0  0  0  0  0  0  0  0
  -12.6817   -2.0225    0.0000 H   0  0  0  0  0  0  0  0  0  0  0  0
  -16.1762    0.6342    0.0000 H   0  0  0  0  0  0  0  0  0  0  0  0
  -14.7450    0.9998    0.0000 H   0  0  0  0  0  0  0  0  0  0  0  0
  -17.1576   -2.6396    0.0000 H   0  0  0  0  0  0  0  0  0  0  0  0
  -15.1094   -2.3761    0.0000 H   0  0  0  0  0  0  0  0  0  0  0  0
  -18.8521    0.0112    0.0000 H   0  0  0  0  0  0  0  0  0  0  0  0
  -17.1232    0.4529    0.0000 H   0  0  0  0  0  0  0  0  0  0  0  0
  -20.2410   -1.4245    0.0000 H   0  0  0  0  0  0  0  0  0  0  0  0
  -19.5551   -3.2268    0.0000 H   0  0  0  0  0  0  0  0  0  0  0  0
  -18.0780   -3.2183    0.0000 H   0  0  0  0  0  0  0  0  0  0  0  0
  -13.9792    3.1768    0.0000 H   0  0  0  0  0  0  0  0  0  0  0  0
  -12.7088    5.7805    0.0000 H   0  0  0  0  0  0  0  0  0  0  0  0
  -14.8251    3.5315    0.0000 H   0  0  0  0  0  0  0  0  0  0  0  0
  -13.3946    2.7420    0.0000 H   0  0  0  0  0  0  0  0  0  0  0  0
  -14.8938    6.8442    0.0000 H   0  0  0  0  0  0  0  0  0  0  0  0
  -13.3148    6.4243    0.0000 H   0  0  0  0  0  0  0  0  0  0  0  0
  -17.2357    4.5003    0.0000 H   0  0  0  0  0  0  0  0  0  0  0  0
  -15.6237    3.7350    0.0000 H   0  0  0  0  0  0  0  0  0  0  0  0
  -16.2789    7.7791    0.0000 H   0  0  0  0  0  0  0  0  0  0  0  0
  -20.7340    7.1446    0.0000 H   0  0  0  0  0  0  0  0  0  0  0  0
  -18.6896    8.7479    0.0000 H   0  0  0  0  0  0  0  0  0  0  0  0
  -20.3677    4.5725    0.0000 H   0  0  0  0  0  0  0  0  0  0  0  0
  -17.9570    3.6037    0.0000 H   0  0  0  0  0  0  0  0  0  0  0  0
  -11.4936    7.8416    0.0000 H   0  0  0  0  0  0  0  0  0  0  0  0
   -9.0172    9.3452    0.0000 H   0  0  0  0  0  0  0  0  0  0  0  0
  -12.0134    8.5973    0.0000 H   0  0  0  0  0  0  0  0  0  0  0  0
  -11.2369    7.1598    0.0000 H   0  0  0  0  0  0  0  0  0  0  0  0
  -10.2802   11.4212    0.0000 H   0  0  0  0  0  0  0  0  0  0  0  0
   -9.1790   10.2143    0.0000 H   0  0  0  0  0  0  0  0  0  0  0  0
  -13.5176   10.7156    0.0000 H   0  0  0  0  0  0  0  0  0  0  0  0
  -12.5753    9.2003    0.0000 H   0  0  0  0  0  0  0  0  0  0  0  0
  -10.9401   12.9566    0.0000 H   0  0  0  0  0  0  0  0  0  0  0  0
  -15.0309   14.8314    0.0000 H   0  0  0  0  0  0  0  0  0  0  0  0
  -12.4443   15.0750    0.0000 H   0  0  0  0  0  0  0  0  0  0  0  0
  -16.1134   12.4696    0.0000 H   0  0  0  0  0  0  0  0  0  0  0  0
  -14.6092   10.3512    0.0000 H   0  0  0  0  0  0  0  0  0  0  0  0
   -6.8806   10.4220    0.0000 H   0  0  0  0  0  0  0  0  0  0  0  0
   -4.1354   10.4518    0.0000 H   0  0  0  0  0  0  0  0  0  0  0  0
   -5.0278   11.7612    0.0000 H   0  0  0  0  0  0  0  0  0  0  0  0
   -6.7895   11.4774    0.0000 H   0  0  0  0  0  0  0  0  0  0  0  0
   -7.0333    9.7097    0.0000 H   0  0  0  0  0  0  0  0  0  0  0  0
   -1.6048   10.0989    0.0000 H   0  0  0  0  0  0  0  0  0  0  0  0
    0.7207    8.6398    0.0000 H   0  0  0  0  0  0  0  0  0  0  0  0
   -0.9576   10.9375    0.0000 H   0  0  0  0  0  0  0  0  0  0  0  0
   -2.1184    9.5822    0.0000 H   0  0  0  0  0  0  0  0  0  0  0  0
   -0.2767   12.7205    0.0000 H   0  0  0  0  0  0  0  0  0  0  0  0
    2.9162   13.3947    0.0000 H   0  0  0  0  0  0  0  0  0  0  0  0
    4.5441   10.5664    0.0000 H   0  0  0  0  0  0  0  0  0  0  0  0
    2.6588    6.9747    0.0000 H   0  0  0  0  0  0  0  0  0  0  0  0
    3.8262    4.4900    0.0000 H   0  0  0  0  0  0  0  0  0  0  0  0
    4.6465    5.8457    0.0000 H   0  0  0  0  0  0  0  0  0  0  0  0
    3.6566    7.3303    0.0000 H   0  0  0  0  0  0  0  0  0  0  0  0
    1.9474    6.8177    0.0000 H   0  0  0  0  0  0  0  0  0  0  0  0
    4.5565    2.0415    0.0000 H   0  0  0  0  0  0  0  0  0  0  0  0
    4.1900   -1.0240    0.0000 H   0  0  0  0  0  0  0  0  0  0  0  0
    3.6625   -2.3457    0.0000 H   0  0  0  0  0  0  0  0  0  0  0  0
    3.5673   -2.8640    0.0000 H   0  0  0  0  0  0  0  0  0  0  0  0
    2.9787   -3.7820    0.0000 H   0  0  0  0  0  0  0  0  0  0  0  0
    2.6915   -4.1979    0.0000 H   0  0  0  0  0  0  0  0  0  0  0  0
    1.7105   -5.2288    0.0000 H   0  0  0  0  0  0  0  0  0  0  0  0
    1.1182   -6.0194    0.0000 H   0  0  0  0  0  0  0  0  0  0  0  0
    4.3609   -2.1961    0.0000 H   0  0  0  0  0  0  0  0  0  0  0  0
    5.5241   -1.3274    0.0000 H   0  0  0  0  0  0  0  0  0  0  0  0
    5.1887    0.4442    0.0000 H   0  0  0  0  0  0  0  0  0  0  0  0
    5.6568   -1.4826    0.0000 H   0  0  0  0  0  0  0  0  0  0  0  0
    6.1346    1.8749    0.0000 H   0  0  0  0  0  0  0  0  0  0  0  0
    9.5471    1.8321    0.0000 H   0  0  0  0  0  0  0  0  0  0  0  0
    8.7005    3.0426    0.0000 H   0  0  0  0  0  0  0  0  0  0  0  0
    6.8333    2.5607    0.0000 H   0  0  0  0  0  0  0  0  0  0  0  0
    9.8950    1.8521    0.0000 H   0  0  0  0  0  0  0  0  0  0  0  0
    9.5997   -1.3964    0.0000 H   0  0  0  0  0  0  0  0  0  0  0  0
   12.7445   -2.7345    0.0000 H   0  0  0  0  0  0  0  0  0  0  0  0
   12.9321   -0.9600    0.0000 H   0  0  0  0  0  0  0  0  0  0  0  0
    9.9222   -4.1248    0.0000 H   0  0  0  0  0  0  0  0  0  0  0  0
    9.6748   -2.3576    0.0000 H   0  0  0  0  0  0  0  0  0  0  0  0
   13.4147   -2.2338    0.0000 H   0  0  0  0  0  0  0  0  0  0  0  0
   13.8925    1.1237    0.0000 H   0  0  0  0  0  0  0  0  0  0  0  0
   16.2886    2.3600    0.0000 H   0  0  0  0  0  0  0  0  0  0  0  0
   14.5912    1.8095    0.0000 H   0  0  0  0  0  0  0  0  0  0  0  0
   18.4779   -0.3356    0.0000 H   0  0  0  0  0  0  0  0  0  0  0  0
   17.3219   -0.9625    0.0000 H   0  0  0  0  0  0  0  0  0  0  0  0
   18.9741    2.9405    0.0000 H   0  0  0  0  0  0  0  0  0  0  0  0
   17.2223    2.6009    0.0000 H   0  0  0  0  0  0  0  0  0  0  0  0
   20.4879   -0.1333    0.0000 H   0  0  0  0  0  0  0  0  0  0  0  0
   23.3589    2.8852    0.0000 H   0  0  0  0  0  0  0  0  0  0  0  0
   22.5041    0.3386    0.0000 H   0  0  0  0  0  0  0  0  0  0  0  0
   21.5389    4.7393    0.0000 H   0  0  0  0  0  0  0  0  0  0  0  0
   19.0233    4.0901    0.0000 H   0  0  0  0  0  0  0  0  0  0  0  0
   17.8290    1.0503    0.0000 H   0  0  0  0  0  0  0  0  0  0  0  0
   17.4777   -2.2859    0.0000 H   0  0  0  0  0  0  0  0  0  0  0  0
   18.7506   -3.8253    0.0000 H   0  0  0  0  0  0  0  0  0  0  0  0
   20.5024   -3.4858    0.0000 H   0  0  0  0  0  0  0  0  0  0  0  0
   20.6900   -1.7112    0.0000 H   0  0  0  0  0  0  0  0  0  0  0  0
   21.1726   -2.9850    0.0000 H   0  0  0  0  0  0  0  0  0  0  0  0
   21.6505    0.3724    0.0000 H   0  0  0  0  0  0  0  0  0  0  0  0
   24.0466    1.6088    0.0000 H   0  0  0  0  0  0  0  0  0  0  0  0
   22.1745    0.7370    0.0000 H   0  0  0  0  0  0  0  0  0  0  0  0
   26.2358   -1.0868    0.0000 H   0  0  0  0  0  0  0  0  0  0  0  0
   25.0799   -1.7137    0.0000 H   0  0  0  0  0  0  0  0  0  0  0  0
   26.7320    2.1892    0.0000 H   0  0  0  0  0  0  0  0  0  0  0  0
   24.9802    1.8497    0.0000 H   0  0  0  0  0  0  0  0  0  0  0  0
   28.2459   -0.8845    0.0000 H   0  0  0  0  0  0  0  0  0  0  0  0
   31.1169    2.1340    0.0000 H   0  0  0  0  0  0  0  0  0  0  0  0
   30.4212   -0.3692    0.0000 H   0  0  0  0  0  0  0  0  0  0  0  0
   29.2969    3.9881    0.0000 H   0  0  0  0  0  0  0  0  0  0  0  0
   26.7812    3.3389    0.0000 H   0  0  0  0  0  0  0  0  0  0  0  0
   25.5870    0.2990    0.0000 H   0  0  0  0  0  0  0  0  0  0  0  0
   25.1156   -2.8988    0.0000 H   0  0  0  0  0  0  0  0  0  0  0  0
   28.4729   -3.9394    0.0000 H   0  0  0  0  0  0  0  0  0  0  0  0
   28.3456   -2.3105    0.0000 H   0  0  0  0  0  0  0  0  0  0  0  0
   25.4381   -5.6273    0.0000 H   0  0  0  0  0  0  0  0  0  0  0  0
   25.1907   -3.8601    0.0000 H   0  0  0  0  0  0  0  0  0  0  0  0
   28.5782   -6.6849    0.0000 H   0  0  0  0  0  0  0  0  0  0  0  0
   28.5480   -4.9007    0.0000 H   0  0  0  0  0  0  0  0  0  0  0  0
   25.2156   -7.2836    0.0000 H   0  0  0  0  0  0  0  0  0  0  0  0
   27.7624  -10.9935    0.0000 H   0  0  0  0  0  0  0  0  0  0  0  0
   25.4180   -9.8738    0.0000 H   0  0  0  0  0  0  0  0  0  0  0  0
   29.9043   -9.5231    0.0000 H   0  0  0  0  0  0  0  0  0  0  0  0
   29.7019   -6.9330    0.0000 H   0  0  0  0  0  0  0  0  0  0  0  0
  1  2  1  0
  2  3  1  0
  3  4  1  0
  4  5  2  0
  4  6  1  0
  6  7  1  0
  7  8  1  0
  8  9  1  0
  9 10  1  0
 10 11  2  0
 10 12  1  0
  7 13  1  0
 13 14  2  0
 13 15  1  0
 15 16  1  0
 16 17  1  0
 17 18  1  0
 18 19  1  0
 19 20  2  0
 19 21  1  0
 16 22  1  0
 22 23  2  0
 22 24  1  0
 24 25  1  0
 25 26  1  0
 25 27  1  0
 27 28  2  0
 27 29  1  0
 30 29  1  1
 30 31  1  0
 31 32  1  0
 32 33  1  0
 33 34  1  0
 34 35  1  0
 35 36  1  0
 36 37  1  0
 30 38  1  0
 30 39  1  0
 39 40  2  0
 39 41  1  0
 41 42  1  0
 42 43  1  0
 43 44  1  0
 44 45  1  0
 45 46  1  0
 46 47  1  0
 42 48  1  0
 48 49  2  0
 48 50  1  0
 50 51  1  0
 51 52  1  0
 52 53  1  0
 53 54  1  0
 54 55  1  0
 55 56  1  0
 56 57  2  3
 56 58  1  0
 51 59  1  0
 59 60  2  0
 59 61  1  0
 61 62  1  0
 62 63  1  0
 63 64  1  0
 64 65  1  0
 65 66  1  0
 66 67  1  0
 67 68  2  3
 67 69  1  0
 62 70  1  0
 70 71  2  0
 70 72  1  0
 72 73  1  0
 73 74  1  0
 73 75  1  0
 75 76  2  0
 75 77  1  0
 77 78  1  0
 78 79  1  0
 79 80  1  0
 80 81  2  0
 81 82  1  0
 82 83  1  0
 83 84  2  0
 78 85  1  0
 85 86  2  0
 85 87  1  0
 87 88  1  0
 88 89  1  0
 88 90  1  0
 90 91  2  0
 90 92  1  0
 92 93  1  0
 93 94  1  0
 94 95  1  0
 95 96  1  0
 96 97  1  0
 93 98  1  0
 93 99  1  6
 99100  2  0
 99101  1  0
101102  1  0
102103  1  0
102104  1  0
104105  2  0
104106  1  0
106107  1  0
107108  1  0
108109  1  0
109110  1  0
110111  2  0
110112  1  0
107113  1  0
113114  2  0
113115  1  0
115116  1  0
116117  1  0
117118  1  0
118119  1  0
119120  1  0
120121  1  0
121122  2  3
121123  1  0
116124  1  0
124125  2  0
124126  1  0
126127  1  0
127128  1  0
127129  1  0
129130  2  0
129131  1  0
131132  1  0
132133  1  0
133134  1  0
134135  1  0
135136  1  0
136137  1  0
137138  2  3
137139  1  0
132140  1  0
140141  2  0
140142  1  0
142143  1  0
143144  1  0
144145  1  0
145146  1  0
146147  1  0
147148  1  0
148149  2  3
148150  1  0
143151  1  0
151152  2  0
151153  1  0
 84 80  1  0
 37 97  2  0
  1154  1  0
  1155  1  0
  2156  1  0
  2157  1  0
  3158  1  0
  3159  1  0
  6160  1  0
  7161  1  6
  8162  1  0
  8163  1  0
  9164  1  0
  9165  1  0
 15166  1  0
 16167  1  6
 17168  1  0
 17169  1  0
 18170  1  0
 18171  1  0
 24172  1  0
 25173  1  1
 26174  1  0
 26175  1  0
 26176  1  0
 29177  1  0
 31178  1  0
 31179  1  0
 32180  1  0
 32181  1  0
 33182  1  0
 33183  1  0
 34184  1  0
 34185  1  0
 35186  1  0
 35187  1  0
 36188  1  0
 36189  1  0
 37190  1  0
 38191  1  0
 38192  1  0
 38193  1  0
 41194  1  0
 42195  1  1
 43196  1  0
 43197  1  0
 44198  1  0
 44199  1  0
 45200  1  0
 45201  1  0
 46202  1  0
 46203  1  0
 47204  1  0
 47205  1  0
 47206  1  0
 50207  1  0
 51208  1  1
 52209  1  0
 52210  1  0
 53211  1  0
 53212  1  0
 54213  1  0
 54214  1  0
 55215  1  0
 57216  1  0
 57217  1  0
 58218  1  0
 58219  1  0
 61220  1  0
 62221  1  1
 63222  1  0
 63223  1  0
 64224  1  0
 64225  1  0
 65226  1  0
 65227  1  0
 66228  1  0
 68229  1  0
 68230  1  0
 69231  1  0
 69232  1  0
 72233  1  0
 73234  1  1
 74235  1  0
 74236  1  0
 74237  1  0
 77238  1  0
 78239  1  1
 79240  1  0
 79241  1  0
 81242  1  0
 82243  1  0
 83244  1  0
 87245  1  0
 88246  1  1
 89247  1  0
 89248  1  0
 89249  1  0
 92250  1  0
 94251  1  0
 94252  1  0
 95253  1  0
 95254  1  0
 96255  1  0
 96256  1  0
 97257  1  0
 98258  1  0
 98259  1  0
 98260  1  0
101261  1  0
102262  1  1
103263  1  0
103264  1  0
103265  1  0
106266  1  0
107267  1  6
108268  1  0
108269  1  0
109270  1  0
109271  1  0
115272  1  0
116273  1  1
117274  1  0
117275  1  0
118276  1  0
118277  1  0
119278  1  0
119279  1  0
120280  1  0
122281  1  0
122282  1  0
123283  1  0
123284  1  0
126285  1  0
127286  1  6
128287  1  0
128288  1  0
128289  1  0
131290  1  0
132291  1  1
133292  1  0
133293  1  0
134294  1  0
134295  1  0
135296  1  0
135297  1  0
136298  1  0
138299  1  0
138300  1  0
139301  1  0
139302  1  0
142303  1  0
143304  1  6
144305  1  0
144306  1  0
145307  1  0
145308  1  0
146309  1  0
146310  1  0
147311  1  0
149312  1  0
149313  1  0
150314  1  0
150315  1  0
M  CHG  8  12  -1  21  -1  47   1  57   1  68   1 112  -1 122   1 138   1
M  CHG  2 149   1 153  -1
M  END
