
     RDKit          2D

369374  0  0  0  0  0  0  0  0999 V2000
   26.7229   -4.5174    0.0000 C   0  0  0  0  0  0  0  0  0  0  0  0
   28.2117   -4.3341    0.0000 N   0  0  0  0  0  0  0  0  0  0  0  0
   29.1148   -5.5318    0.0000 C   0  0  0  0  0  0  0  0  0  0  0  0
   28.5291   -6.9127    0.0000 C   0  0  0  0  0  0  0  0  0  0  0  0
   29.4322   -8.1104    0.0000 C   0  0  0  0  0  0  0  0  0  0  0  0
   30.9209   -7.9272    0.0000 C   0  0  0  0  0  0  0  0  0  0  0  0
   31.5066   -6.5462    0.0000 C   0  0  0  0  0  0  0  0  0  0  0  0
   30.6035   -5.3486    0.0000 C   0  0  0  0  0  0  0  0  0  0  0  0
   33.0010   -6.6765    0.0000 C   0  0  0  0  0  0  0  0  0  0  0  0
   33.3388   -8.1380    0.0000 O   0  0  0  0  0  0  0  0  0  0  0  0
   32.0533   -8.9109    0.0000 C   0  0  0  0  0  0  0  0  0  0  0  0
   31.9230  -10.4053    0.0000 O   0  0  0  0  0  0  0  0  0  0  0  0
   34.4735   -6.9623    0.0000 C   0  0  0  0  0  0  0  0  0  0  0  0
   35.4572   -5.8299    0.0000 C   0  0  0  0  0  0  0  0  0  0  0  0
   36.9298   -6.1157    0.0000 C   0  0  0  0  0  0  0  0  0  0  0  0
   37.4185   -7.5338    0.0000 C   0  0  0  0  0  0  0  0  0  0  0  0
   36.4348   -8.6662    0.0000 C   0  0  0  0  0  0  0  0  0  0  0  0
   34.9623   -8.3804    0.0000 C   0  0  0  0  0  0  0  0  0  0  0  0
   38.8911   -7.8196    0.0000 O   0  0  0  0  0  0  0  0  0  0  0  0
   34.9685   -4.4118    0.0000 O   0  0  0  0  0  0  0  0  0  0  0  0
   33.4959   -4.1260    0.0000 C   0  0  0  0  0  0  0  0  0  0  0  0
   32.5122   -5.2584    0.0000 C   0  0  0  0  0  0  0  0  0  0  0  0
   31.4987   -4.4442    0.0000 C   0  0  0  0  0  0  0  0  0  0  0  0
   31.2381   -3.6879    0.0000 C   0  0  0  0  0  0  0  0  0  0  0  0
   31.7627   -3.0839    0.0000 C   0  0  0  0  0  0  0  0  0  0  0  0
   32.5481   -3.2363    0.0000 C   0  0  0  0  0  0  0  0  0  0  0  0
   31.0458   -1.0040    0.0000 O   0  0  0  0  0  0  0  0  0  0  0  0
   26.1372   -5.8983    0.0000 S   0  0  0  0  0  0  0  0  0  0  0  0
   25.8198   -3.3197    0.0000 N   0  0  0  0  0  0  0  0  0  0  0  0
   24.3311   -3.5030    0.0000 C   0  0  0  0  0  0  0  0  0  0  0  0
   23.4280   -2.3053    0.0000 C   0  0  0  0  0  0  0  0  0  0  0  0
   21.9392   -2.4885    0.0000 C   0  0  0  0  0  0  0  0  0  0  0  0
   21.5263   -3.9306    0.0000 O   0  0  0  0  0  0  0  0  0  0  0  0
   21.0362   -1.2908    0.0000 N   0  0  0  0  0  0  0  0  0  0  0  0
   19.5474   -1.4741    0.0000 C   0  0  0  0  0  0  0  0  0  0  0  0
   18.6997   -2.7116    0.0000 C   0  0  0  0  0  0  0  0  0  0  0  0
   17.5249   -3.6443    0.0000 C   0  0  0  0  0  0  0  0  0  0  0  0
   16.1274   -4.1892    0.0000 C   0  0  0  0  0  0  0  0  0  0  0  0
   14.6313   -4.2980    0.0000 C   0  0  0  0  0  0  0  0  0  0  0  0
   20.4771   -2.6512    0.0000 C   0  0  0  0  0  0  0  0  0  0  0  0
   19.9927   -0.0417    0.0000 C   0  0  0  0  0  0  0  0  0  0  0  0
   21.4920   -0.0861    0.0000 O   0  0  0  0  0  0  0  0  0  0  0  0
   19.9960    1.4583    0.0000 N   0  0  0  0  0  0  0  0  0  0  0  0
   19.5570    2.8926    0.0000 C   0  0  0  0  0  0  0  0  0  0  0  0
   20.3419    4.1708    0.0000 C   0  0  0  0  0  0  0  0  0  0  0  0
   21.8414    4.1301    0.0000 C   0  0  0  0  0  0  0  0  0  0  0  0
   22.6263    5.4084    0.0000 C   0  0  0  0  0  0  0  0  0  0  0  0
   24.1258    5.3677    0.0000 N   0  0  0  0  0  0  0  0  0  0  0  0
   24.9107    6.6459    0.0000 C   0  0  0  0  0  0  0  0  0  0  0  0
   26.4102    6.6052    0.0000 N   0  0  0  0  0  0  0  0  0  0  0  0
   24.1962    7.9648    0.0000 N   0  0  0  0  0  0  0  0  0  0  0  0
   18.7147    4.1338    0.0000 C   0  0  0  0  0  0  0  0  0  0  0  0
   19.8165    5.1517    0.0000 O   0  0  0  0  0  0  0  0  0  0  0  0
   17.5440    5.0716    0.0000 N   0  0  0  0  0  0  0  0  0  0  0  0
   16.1489    5.6227    0.0000 C   0  0  0  0  0  0  0  0  0  0  0  0
   15.6390    7.0334    0.0000 C   0  0  0  0  0  0  0  0  0  0  0  0
   16.6057    8.1803    0.0000 C   0  0  0  0  0  0  0  0  0  0  0  0
   16.0957    9.5910    0.0000 C   0  0  0  0  0  0  0  0  0  0  0  0
   17.0624   10.7379    0.0000 N   0  0  0  0  0  0  0  0  0  0  0  0
   16.5525   12.1486    0.0000 C   0  0  0  0  0  0  0  0  0  0  0  0
   17.5192   13.2955    0.0000 N   0  0  0  0  0  0  0  0  0  0  0  0
   15.0758   12.4123    0.0000 N   0  0  0  0  0  0  0  0  0  0  0  0
   14.6533    5.7381    0.0000 C   0  0  0  0  0  0  0  0  0  0  0  0
   14.5445    7.2341    0.0000 O   0  0  0  0  0  0  0  0  0  0  0  0
   13.1902    5.4075    0.0000 N   0  0  0  0  0  0  0  0  0  0  0  0
   11.8895    4.6603    0.0000 C   0  0  0  0  0  0  0  0  0  0  0  0
   10.4687    5.1412    0.0000 C   0  0  0  0  0  0  0  0  0  0  0  0
   10.1747    6.6121    0.0000 C   0  0  0  0  0  0  0  0  0  0  0  0
    8.7539    7.0929    0.0000 C   0  0  0  0  0  0  0  0  0  0  0  0
    8.4599    8.5639    0.0000 N   0  0  0  0  0  0  0  0  0  0  0  0
    7.6270    6.1029    0.0000 O   0  0  0  0  0  0  0  0  0  0  0  0
   10.8669    3.5630    0.0000 C   0  0  0  0  0  0  0  0  0  0  0  0
    9.6294    4.4107    0.0000 O   0  0  0  0  0  0  0  0  0  0  0  0
   10.2131    2.2130    0.0000 N   0  0  0  0  0  0  0  0  0  0  0  0
    9.9863    0.7302    0.0000 C   0  0  0  0  0  0  0  0  0  0  0  0
   10.2066   -0.7535    0.0000 C   0  0  0  0  0  0  0  0  0  0  0  0
   10.8544   -2.1064    0.0000 C   0  0  0  0  0  0  0  0  0  0  0  0
   11.8723   -3.2082    0.0000 C   0  0  0  0  0  0  0  0  0  0  0  0
   13.1697   -3.9610    0.0000 C   0  0  0  0  0  0  0  0  0  0  0  0
    8.7280    1.5468    0.0000 C   0  0  0  0  0  0  0  0  0  0  0  0
    8.7245   -0.0808    0.0000 C   0  0  0  0  0  0  0  0  0  0  0  0
    8.4313   -1.5519    0.0000 O   0  0  0  0  0  0  0  0  0  0  0  0
    7.3912    0.6064    0.0000 N   0  0  0  0  0  0  0  0  0  0  0  0
    6.1293   -0.2046    0.0000 C   0  0  0  0  0  0  0  0  0  0  0  0
    5.2210   -1.3983    0.0000 C   0  0  0  0  0  0  0  0  0  0  0  0
    3.7331   -1.2086    0.0000 C   0  0  0  0  0  0  0  0  0  0  0  0
    2.8247   -2.4023    0.0000 C   0  0  0  0  0  0  0  0  0  0  0  0
    1.3368   -2.2125    0.0000 N   0  0  0  0  0  0  0  0  0  0  0  0
    0.4285   -3.4062    0.0000 C   0  0  0  0  0  0  0  0  0  0  0  0
   -1.0253   -3.0365    0.0000 N   0  0  0  0  0  0  0  0  0  0  0  0
    1.0081   -4.7897    0.0000 N   0  0  0  0  0  0  0  0  0  0  0  0
    4.7960    0.4826    0.0000 C   0  0  0  0  0  0  0  0  0  0  0  0
    4.7245    1.9809    0.0000 O   0  0  0  0  0  0  0  0  0  0  0  0
    3.5342   -0.3285    0.0000 N   0  0  0  0  0  0  0  0  0  0  0  0
    2.2009    0.3588    0.0000 C   0  0  0  0  0  0  0  0  0  0  0  0
    1.1831    1.4606    0.0000 C   0  0  0  0  0  0  0  0  0  0  0  0
    1.6283    2.8930    0.0000 C   0  0  0  0  0  0  0  0  0  0  0  0
    0.6105    3.9948    0.0000 C   0  0  0  0  0  0  0  0  0  0  0  0
    1.0558    5.4272    0.0000 N   0  0  0  0  0  0  0  0  0  0  0  0
    0.0379    6.5290    0.0000 C   0  0  0  0  0  0  0  0  0  0  0  0
    0.4832    7.9614    0.0000 N   0  0  0  0  0  0  0  0  0  0  0  0
   -1.4252    6.1984    0.0000 N   0  0  0  0  0  0  0  0  0  0  0  0
    0.9391   -0.4523    0.0000 C   0  0  0  0  0  0  0  0  0  0  0  0
    0.7253   -1.5247    0.0000 O   0  0  0  0  0  0  0  0  0  0  0  0
   -0.3942    0.2350    0.0000 N   0  0  0  0  0  0  0  0  0  0  0  0
   -1.6560   -0.5761    0.0000 C   0  0  0  0  0  0  0  0  0  0  0  0
   -2.5644   -1.7698    0.0000 C   0  0  0  0  0  0  0  0  0  0  0  0
   -4.0523   -1.5800    0.0000 C   0  0  0  0  0  0  0  0  0  0  0  0
   -4.9606   -2.7737    0.0000 O   0  0  0  0  0  0  0  0  0  0  0  0
   -4.9495   -0.3779    0.0000 O   0  0  0  0  0  0  0  0  0  0  0  0
   -2.9893    0.1112    0.0000 C   0  0  0  0  0  0  0  0  0  0  0  0
   -3.0608    1.6095    0.0000 O   0  0  0  0  0  0  0  0  0  0  0  0
   -4.2512   -0.6999    0.0000 N   0  0  0  0  0  0  0  0  0  0  0  0
   -5.5845   -0.0127    0.0000 C   0  0  0  0  0  0  0  0  0  0  0  0
   -6.6023    1.0892    0.0000 C   0  0  0  0  0  0  0  0  0  0  0  0
   -8.0654    0.7586    0.0000 C   0  0  0  0  0  0  0  0  0  0  0  0
   -9.0833    1.8604    0.0000 C   0  0  0  0  0  0  0  0  0  0  0  0
  -10.5464    1.5298    0.0000 N   0  0  0  0  0  0  0  0  0  0  0  0
  -11.5642    2.6316    0.0000 C   0  0  0  0  0  0  0  0  0  0  0  0
  -12.9762    2.1252    0.0000 N   0  0  0  0  0  0  0  0  0  0  0  0
  -11.1190    4.0640    0.0000 N   0  0  0  0  0  0  0  0  0  0  0  0
   -6.8463   -0.8237    0.0000 C   0  0  0  0  0  0  0  0  0  0  0  0
   -6.7748   -2.3220    0.0000 O   0  0  0  0  0  0  0  0  0  0  0  0
   -8.1796   -0.1365    0.0000 N   0  0  0  0  0  0  0  0  0  0  0  0
   -9.4414   -0.9475    0.0000 C   0  0  0  0  0  0  0  0  0  0  0  0
  -10.3497   -2.1412    0.0000 C   0  0  0  0  0  0  0  0  0  0  0  0
  -11.8377   -1.9515    0.0000 C   0  0  0  0  0  0  0  0  0  0  0  0
  -12.7460   -3.1452    0.0000 C   0  0  0  0  0  0  0  0  0  0  0  0
  -14.2460   -3.1382    0.0000 N   0  0  0  0  0  0  0  0  0  0  0  0
  -12.1664   -4.5287    0.0000 O   0  0  0  0  0  0  0  0  0  0  0  0
  -10.7747   -0.2603    0.0000 C   0  0  0  0  0  0  0  0  0  0  0  0
  -11.2066    1.1762    0.0000 O   0  0  0  0  0  0  0  0  0  0  0  0
  -12.0365   -1.0713    0.0000 N   0  0  0  0  0  0  0  0  0  0  0  0
  -13.3698   -0.3841    0.0000 C   0  0  0  0  0  0  0  0  0  0  0  0
  -14.3877    0.7177    0.0000 C   0  0  0  0  0  0  0  0  0  0  0  0
  -15.8508    0.3871    0.0000 C   0  0  0  0  0  0  0  0  0  0  0  0
  -16.8687    1.4890    0.0000 C   0  0  0  0  0  0  0  0  0  0  0  0
  -18.3318    1.1584    0.0000 N   0  0  0  0  0  0  0  0  0  0  0  0
  -19.3496    2.2602    0.0000 C   0  0  0  0  0  0  0  0  0  0  0  0
  -20.7615    1.7537    0.0000 N   0  0  0  0  0  0  0  0  0  0  0  0
  -18.9043    3.6926    0.0000 N   0  0  0  0  0  0  0  0  0  0  0  0
  -14.6317   -1.1952    0.0000 C   0  0  0  0  0  0  0  0  0  0  0  0
  -14.7433   -2.6910    0.0000 O   0  0  0  0  0  0  0  0  0  0  0  0
  -15.9650   -0.5079    0.0000 N   0  0  0  0  0  0  0  0  0  0  0  0
  -17.2268   -1.3190    0.0000 C   0  0  0  0  0  0  0  0  0  0  0  0
  -18.1351   -2.5127    0.0000 C   0  0  0  0  0  0  0  0  0  0  0  0
  -19.6231   -2.3229    0.0000 C   0  0  0  0  0  0  0  0  0  0  0  0
  -20.5314   -3.5166    0.0000 C   0  0  0  0  0  0  0  0  0  0  0  0
  -22.0193   -3.3268    0.0000 N   0  0  0  0  0  0  0  0  0  0  0  0
  -22.9277   -4.5205    0.0000 C   0  0  0  0  0  0  0  0  0  0  0  0
  -24.3814   -4.1508    0.0000 N   0  0  0  0  0  0  0  0  0  0  0  0
  -22.3480   -5.9040    0.0000 N   0  0  0  0  0  0  0  0  0  0  0  0
  -18.5601   -0.6317    0.0000 C   0  0  0  0  0  0  0  0  0  0  0  0
  -18.9920    0.8047    0.0000 O   0  0  0  0  0  0  0  0  0  0  0  0
  -19.8219   -1.4428    0.0000 N   0  0  0  0  0  0  0  0  0  0  0  0
  -21.1552   -0.7555    0.0000 C   0  0  0  0  0  0  0  0  0  0  0  0
  -22.1731    0.3463    0.0000 C   0  0  0  0  0  0  0  0  0  0  0  0
  -23.6362    0.0157    0.0000 C   0  0  0  0  0  0  0  0  0  0  0  0
  -24.6540    1.1175    0.0000 C   0  0  0  0  0  0  0  0  0  0  0  0
  -26.1171    0.7869    0.0000 N   0  0  0  0  0  0  0  0  0  0  0  0
  -27.1350    1.8887    0.0000 C   0  0  0  0  0  0  0  0  0  0  0  0
  -28.5469    1.3823    0.0000 N   0  0  0  0  0  0  0  0  0  0  0  0
  -26.6897    3.3211    0.0000 N   0  0  0  0  0  0  0  0  0  0  0  0
  -22.4170   -1.5666    0.0000 C   0  0  0  0  0  0  0  0  0  0  0  0
  -22.7102   -3.0377    0.0000 O   0  0  0  0  0  0  0  0  0  0  0  0
  -23.7503   -0.8794    0.0000 N   0  0  0  0  0  0  0  0  0  0  0  0
  -25.0122   -1.6904    0.0000 C   0  0  0  0  0  0  0  0  0  0  0  0
  -25.9205   -2.8841    0.0000 C   0  0  0  0  0  0  0  0  0  0  0  0
  -27.4084   -2.6943    0.0000 C   0  0  0  0  0  0  0  0  0  0  0  0
  -28.3168   -3.8880    0.0000 C   0  0  0  0  0  0  0  0  0  0  0  0
  -29.8047   -3.6983    0.0000 N   0  0  0  0  0  0  0  0  0  0  0  0
  -30.7130   -4.8920    0.0000 C   0  0  0  0  0  0  0  0  0  0  0  0
  -32.2010   -4.7022    0.0000 N   0  0  0  0  0  0  0  0  0  0  0  0
  -30.1334   -6.2755    0.0000 N   0  0  0  0  0  0  0  0  0  0  0  0
  -26.3455   -1.0032    0.0000 C   0  0  0  0  0  0  0  0  0  0  0  0
  -26.7774    0.4333    0.0000 O   0  0  0  0  0  0  0  0  0  0  0  0
  -27.6073   -1.8142    0.0000 N   0  0  0  0  0  0  0  0  0  0  0  0
  -28.9406   -1.1270    0.0000 C   0  0  0  0  0  0  0  0  0  0  0  0
  -29.9584   -0.0252    0.0000 C   0  0  0  0  0  0  0  0  0  0  0  0
  -31.4216   -0.3557    0.0000 C   0  0  0  0  0  0  0  0  0  0  0  0
  -32.4394    0.7461    0.0000 C   0  0  0  0  0  0  0  0  0  0  0  0
  -33.9025    0.4155    0.0000 N   0  0  0  0  0  0  0  0  0  0  0  0
  -34.9204    1.5173    0.0000 C   0  0  0  0  0  0  0  0  0  0  0  0
  -36.3835    1.1867    0.0000 N   0  0  0  0  0  0  0  0  0  0  0  0
  -34.4751    2.9497    0.0000 N   0  0  0  0  0  0  0  0  0  0  0  0
  -30.2024   -1.9380    0.0000 C   0  0  0  0  0  0  0  0  0  0  0  0
  -31.6095   -1.4184    0.0000 O   0  0  0  0  0  0  0  0  0  0  0  0
  -30.4956   -3.4091    0.0000 O   0  0  0  0  0  0  0  0  0  0  0  0
   28.6247   -2.8921    0.0000 H   0  0  0  0  0  0  0  0  0  0  0  0
   27.0403   -7.0960    0.0000 H   0  0  0  0  0  0  0  0  0  0  0  0
   28.8465   -9.4914    0.0000 H   0  0  0  0  0  0  0  0  0  0  0  0
   30.8377   -3.8669    0.0000 H   0  0  0  0  0  0  0  0  0  0  0  0
   37.9135   -4.9833    0.0000 H   0  0  0  0  0  0  0  0  0  0  0  0
   36.9236  -10.0843    0.0000 H   0  0  0  0  0  0  0  0  0  0  0  0
   33.9785   -9.5128    0.0000 H   0  0  0  0  0  0  0  0  0  0  0  0
   39.3798   -9.2377    0.0000 H   0  0  0  0  0  0  0  0  0  0  0  0
   30.0559   -6.1050    0.0000 H   0  0  0  0  0  0  0  0  0  0  0  0
   29.1242   -3.0914    0.0000 H   0  0  0  0  0  0  0  0  0  0  0  0
   33.9909   -1.5755    0.0000 H   0  0  0  0  0  0  0  0  0  0  0  0
   32.0296    0.1284    0.0000 H   0  0  0  0  0  0  0  0  0  0  0  0
   26.4055   -1.9388    0.0000 H   0  0  0  0  0  0  0  0  0  0  0  0
   22.9948   -4.1843    0.0000 H   0  0  0  0  0  0  0  0  0  0  0  0
   24.7701   -4.9373    0.0000 H   0  0  0  0  0  0  0  0  0  0  0  0
   22.9890   -0.8709    0.0000 H   0  0  0  0  0  0  0  0  0  0  0  0
   24.7643   -1.6239    0.0000 H   0  0  0  0  0  0  0  0  0  0  0  0
   21.7858    0.0084    0.0000 H   0  0  0  0  0  0  0  0  0  0  0  0
   20.1332   -3.1533    0.0000 H   0  0  0  0  0  0  0  0  0  0  0  0
   19.0666   -4.1660    0.0000 H   0  0  0  0  0  0  0  0  0  0  0  0
   18.6523   -4.6337    0.0000 H   0  0  0  0  0  0  0  0  0  0  0  0
   17.6300   -5.1406    0.0000 H   0  0  0  0  0  0  0  0  0  0  0  0
   17.0629   -5.3617    0.0000 H   0  0  0  0  0  0  0  0  0  0  0  0
   15.6113   -5.5976    0.0000 H   0  0  0  0  0  0  0  0  0  0  0  0
   14.5160   -5.7936    0.0000 H   0  0  0  0  0  0  0  0  0  0  0  0
   19.9760   -4.2400    0.0000 H   0  0  0  0  0  0  0  0  0  0  0  0
   21.3628   -3.8101    0.0000 H   0  0  0  0  0  0  0  0  0  0  0  0
   21.6388   -2.0283    0.0000 H   0  0  0  0  0  0  0  0  0  0  0  0
   21.4797    1.6786    0.0000 H   0  0  0  0  0  0  0  0  0  0  0  0
   21.0107    2.5229    0.0000 H   0  0  0  0  0  0  0  0  0  0  0  0
   20.4610    5.6661    0.0000 H   0  0  0  0  0  0  0  0  0  0  0  0
   19.1216    5.0431    0.0000 H   0  0  0  0  0  0  0  0  0  0  0  0
   23.2365    3.5791    0.0000 H   0  0  0  0  0  0  0  0  0  0  0  0
   21.7223    2.6349    0.0000 H   0  0  0  0  0  0  0  0  0  0  0  0
   22.9268    6.8780    0.0000 H   0  0  0  0  0  0  0  0  0  0  0  0
   21.3088    6.1254    0.0000 H   0  0  0  0  0  0  0  0  0  0  0  0
   24.8403    4.0488    0.0000 H   0  0  0  0  0  0  0  0  0  0  0  0
   27.1951    7.8834    0.0000 H   0  0  0  0  0  0  0  0  0  0  0  0
   24.9812    9.2430    0.0000 H   0  0  0  0  0  0  0  0  0  0  0  0
   22.6968    8.0055    0.0000 H   0  0  0  0  0  0  0  0  0  0  0  0
   18.2969    6.3690    0.0000 H   0  0  0  0  0  0  0  0  0  0  0  0
   17.3444    6.5287    0.0000 H   0  0  0  0  0  0  0  0  0  0  0  0
   14.5442    8.0587    0.0000 H   0  0  0  0  0  0  0  0  0  0  0  0
   14.1961    6.6231    0.0000 H   0  0  0  0  0  0  0  0  0  0  0  0
   17.9063    8.9275    0.0000 H   0  0  0  0  0  0  0  0  0  0  0  0
   17.7005    7.1549    0.0000 H   0  0  0  0  0  0  0  0  0  0  0  0
   15.1341   10.7421    0.0000 H   0  0  0  0  0  0  0  0  0  0  0  0
   14.7137    9.0079    0.0000 H   0  0  0  0  0  0  0  0  0  0  0  0
   18.5391   10.4742    0.0000 H   0  0  0  0  0  0  0  0  0  0  0  0
   17.0092   14.7062    0.0000 H   0  0  0  0  0  0  0  0  0  0  0  0
   14.5659   13.8229    0.0000 H   0  0  0  0  0  0  0  0  0  0  0  0
   14.1091   11.2653    0.0000 H   0  0  0  0  0  0  0  0  0  0  0  0
   12.6453    6.8050    0.0000 H   0  0  0  0  0  0  0  0  0  0  0  0
   11.9265    6.1599    0.0000 H   0  0  0  0  0  0  0  0  0  0  0  0
    8.9691    5.1071    0.0000 H   0  0  0  0  0  0  0  0  0  0  0  0
    9.8898    3.7574    0.0000 H   0  0  0  0  0  0  0  0  0  0  0  0
   10.4015    8.0949    0.0000 H   0  0  0  0  0  0  0  0  0  0  0  0
   11.6590    6.8287    0.0000 H   0  0  0  0  0  0  0  0  0  0  0  0
    7.0390    9.0447    0.0000 H   0  0  0  0  0  0  0  0  0  0  0  0
    9.5867    9.5539    0.0000 H   0  0  0  0  0  0  0  0  0  0  0  0
    8.7807    2.6583    0.0000 H   0  0  0  0  0  0  0  0  0  0  0  0
    9.2399   -1.9005    0.0000 H   0  0  0  0  0  0  0  0  0  0  0  0
    8.7074   -0.7054    0.0000 H   0  0  0  0  0  0  0  0  0  0  0  0
   10.1048   -3.4056    0.0000 H   0  0  0  0  0  0  0  0  0  0  0  0
    9.4077   -2.5023    0.0000 H   0  0  0  0  0  0  0  0  0  0  0  0
   11.7197   -4.7004    0.0000 H   0  0  0  0  0  0  0  0  0  0  0  0
   10.5178   -3.8527    0.0000 H   0  0  0  0  0  0  0  0  0  0  0  0
   12.6186   -5.3561    0.0000 H   0  0  0  0  0  0  0  0  0  0  0  0
    7.2666    1.2090    0.0000 H   0  0  0  0  0  0  0  0  0  0  0  0
    7.9777    2.8456    0.0000 H   0  0  0  0  0  0  0  0  0  0  0  0
    9.4548    2.8590    0.0000 H   0  0  0  0  0  0  0  0  0  0  0  0
    7.1376    2.0848    0.0000 H   0  0  0  0  0  0  0  0  0  0  0  0
    7.1472   -1.3065    0.0000 H   0  0  0  0  0  0  0  0  0  0  0  0
    4.9537   -2.8743    0.0000 H   0  0  0  0  0  0  0  0  0  0  0  0
    6.5543   -2.0856    0.0000 H   0  0  0  0  0  0  0  0  0  0  0  0
    2.3998   -0.5213    0.0000 H   0  0  0  0  0  0  0  0  0  0  0  0
    3.4536    0.2652    0.0000 H   0  0  0  0  0  0  0  0  0  0  0  0
    2.3795   -3.8347    0.0000 H   0  0  0  0  0  0  0  0  0  0  0  0
    4.0643   -3.2469    0.0000 H   0  0  0  0  0  0  0  0  0  0  0  0
    0.4396   -1.0104    0.0000 H   0  0  0  0  0  0  0  0  0  0  0  0
   -1.9678   -4.4101    0.0000 H   0  0  0  0  0  0  0  0  0  0  0  0
    0.0998   -5.9834    0.0000 H   0  0  0  0  0  0  0  0  0  0  0  0
    2.4960   -4.9795    0.0000 H   0  0  0  0  0  0  0  0  0  0  0  0
    3.2410   -1.7995    0.0000 H   0  0  0  0  0  0  0  0  0  0  0  0
    3.2480    1.4329    0.0000 H   0  0  0  0  0  0  0  0  0  0  0  0
   -0.1502    2.1478    0.0000 H   0  0  0  0  0  0  0  0  0  0  0  0
    0.0129    0.5222    0.0000 H   0  0  0  0  0  0  0  0  0  0  0  0
    2.5367    4.0867    0.0000 H   0  0  0  0  0  0  0  0  0  0  0  0
    3.0355    2.3734    0.0000 H   0  0  0  0  0  0  0  0  0  0  0  0
   -0.7228    4.6820    0.0000 H   0  0  0  0  0  0  0  0  0  0  0  0
   -0.4366    2.9207    0.0000 H   0  0  0  0  0  0  0  0  0  0  0  0
    2.5189    5.7578    0.0000 H   0  0  0  0  0  0  0  0  0  0  0  0
   -0.5347    9.0632    0.0000 H   0  0  0  0  0  0  0  0  0  0  0  0
   -2.4431    7.3002    0.0000 H   0  0  0  0  0  0  0  0  0  0  0  0
   -1.8705    4.7660    0.0000 H   0  0  0  0  0  0  0  0  0  0  0  0
   -0.6478    1.7134    0.0000 H   0  0  0  0  0  0  0  0  0  0  0  0
   -0.6382   -1.6779    0.0000 H   0  0  0  0  0  0  0  0  0  0  0  0
   -3.0096   -3.2022    0.0000 H   0  0  0  0  0  0  0  0  0  0  0  0
   -1.1572   -2.2894    0.0000 H   0  0  0  0  0  0  0  0  0  0  0  0
   -5.9953    0.2654    0.0000 H   0  0  0  0  0  0  0  0  0  0  0  0
   -4.5444   -2.1710    0.0000 H   0  0  0  0  0  0  0  0  0  0  0  0
   -4.6761    1.1811    0.0000 H   0  0  0  0  0  0  0  0  0  0  0  0
   -7.0090    2.5330    0.0000 H   0  0  0  0  0  0  0  0  0  0  0  0
   -5.3405    1.9002    0.0000 H   0  0  0  0  0  0  0  0  0  0  0  0
   -9.3273   -0.0525    0.0000 H   0  0  0  0  0  0  0  0  0  0  0  0
   -8.2033   -0.7351    0.0000 H   0  0  0  0  0  0  0  0  0  0  0  0
   -9.6629    3.2439    0.0000 H   0  0  0  0  0  0  0  0  0  0  0  0
   -7.9297    2.8192    0.0000 H   0  0  0  0  0  0  0  0  0  0  0  0
  -11.4755    0.3522    0.0000 H   0  0  0  0  0  0  0  0  0  0  0  0
  -14.0452    3.4029    0.0000 H   0  0  0  0  0  0  0  0  0  0  0  0
  -12.1368    5.1658    0.0000 H   0  0  0  0  0  0  0  0  0  0  0  0
   -9.6559    4.3946    0.0000 H   0  0  0  0  0  0  0  0  0  0  0  0
   -8.6115    1.3000    0.0000 H   0  0  0  0  0  0  0  0  0  0  0  0
   -8.4236   -2.0493    0.0000 H   0  0  0  0  0  0  0  0  0  0  0  0
  -10.7950   -3.5736    0.0000 H   0  0  0  0  0  0  0  0  0  0  0  0
   -9.0164   -2.8285    0.0000 H   0  0  0  0  0  0  0  0  0  0  0  0
  -13.1710   -1.2642    0.0000 H   0  0  0  0  0  0  0  0  0  0  0  0
  -12.2947   -0.5228    0.0000 H   0  0  0  0  0  0  0  0  0  0  0  0
  -15.1423   -4.1491    0.0000 H   0  0  0  0  0  0  0  0  0  0  0  0
  -15.3373   -1.8794    0.0000 H   0  0  0  0  0  0  0  0  0  0  0  0
  -12.3297   -2.5424    0.0000 H   0  0  0  0  0  0  0  0  0  0  0  0
  -12.4615    0.8096    0.0000 H   0  0  0  0  0  0  0  0  0  0  0  0
  -14.7943    2.1615    0.0000 H   0  0  0  0  0  0  0  0  0  0  0  0
  -13.0364    1.3689    0.0000 H   0  0  0  0  0  0  0  0  0  0  0  0
  -17.1126   -0.4239    0.0000 H   0  0  0  0  0  0  0  0  0  0  0  0
  -16.1697   -1.0786    0.0000 H   0  0  0  0  0  0  0  0  0  0  0  0
  -17.4483    2.8724    0.0000 H   0  0  0  0  0  0  0  0  0  0  0  0
  -15.7151    2.4478    0.0000 H   0  0  0  0  0  0  0  0  0  0  0  0
  -19.2609   -0.0192    0.0000 H   0  0  0  0  0  0  0  0  0  0  0  0
  -21.8306    3.0314    0.0000 H   0  0  0  0  0  0  0  0  0  0  0  0
  -19.9222    4.7944    0.0000 H   0  0  0  0  0  0  0  0  0  0  0  0
  -17.4412    4.0232    0.0000 H   0  0  0  0  0  0  0  0  0  0  0  0
  -16.3969    0.9286    0.0000 H   0  0  0  0  0  0  0  0  0  0  0  0
  -16.2089   -2.4208    0.0000 H   0  0  0  0  0  0  0  0  0  0  0  0
  -18.4025   -3.9887    0.0000 H   0  0  0  0  0  0  0  0  0  0  0  0
  -16.8018   -3.1999    0.0000 H   0  0  0  0  0  0  0  0  0  0  0  0
  -20.9564   -1.6357    0.0000 H   0  0  0  0  0  0  0  0  0  0  0  0
  -20.0801   -0.8942    0.0000 H   0  0  0  0  0  0  0  0  0  0  0  0
  -20.9767   -4.9490    0.0000 H   0  0  0  0  0  0  0  0  0  0  0  0
  -19.2918   -4.3612    0.0000 H   0  0  0  0  0  0  0  0  0  0  0  0
  -23.0563   -2.2430    0.0000 H   0  0  0  0  0  0  0  0  0  0  0  0
  -25.3239   -5.5245    0.0000 H   0  0  0  0  0  0  0  0  0  0  0  0
  -23.2564   -7.0977    0.0000 H   0  0  0  0  0  0  0  0  0  0  0  0
  -20.8601   -6.0938    0.0000 H   0  0  0  0  0  0  0  0  0  0  0  0
  -20.1151   -2.9138    0.0000 H   0  0  0  0  0  0  0  0  0  0  0  0
  -20.2469    0.4382    0.0000 H   0  0  0  0  0  0  0  0  0  0  0  0
  -22.5797    1.7901    0.0000 H   0  0  0  0  0  0  0  0  0  0  0  0
  -20.8218    0.9975    0.0000 H   0  0  0  0  0  0  0  0  0  0  0  0
  -24.8980   -0.7954    0.0000 H   0  0  0  0  0  0  0  0  0  0  0  0
  -23.9551   -1.4500    0.0000 H   0  0  0  0  0  0  0  0  0  0  0  0
  -25.2336    2.5010    0.0000 H   0  0  0  0  0  0  0  0  0  0  0  0
  -23.5005    2.0763    0.0000 H   0  0  0  0  0  0  0  0  0  0  0  0
  -27.0463   -0.3907    0.0000 H   0  0  0  0  0  0  0  0  0  0  0  0
  -29.6160    2.6600    0.0000 H   0  0  0  0  0  0  0  0  0  0  0  0
  -27.7076    4.4229    0.0000 H   0  0  0  0  0  0  0  0  0  0  0  0
  -25.2266    3.6517    0.0000 H   0  0  0  0  0  0  0  0  0  0  0  0
  -24.1822    0.5571    0.0000 H   0  0  0  0  0  0  0  0  0  0  0  0
  -23.9943   -2.7922    0.0000 H   0  0  0  0  0  0  0  0  0  0  0  0
  -26.1878   -4.3601    0.0000 H   0  0  0  0  0  0  0  0  0  0  0  0
  -24.5134   -3.4037    0.0000 H   0  0  0  0  0  0  0  0  0  0  0  0
  -28.7417   -2.0071    0.0000 H   0  0  0  0  0  0  0  0  0  0  0  0
  -27.8655   -1.2657    0.0000 H   0  0  0  0  0  0  0  0  0  0  0  0
  -28.7620   -5.3204    0.0000 H   0  0  0  0  0  0  0  0  0  0  0  0
  -27.0772   -4.7327    0.0000 H   0  0  0  0  0  0  0  0  0  0  0  0
  -30.8417   -2.6145    0.0000 H   0  0  0  0  0  0  0  0  0  0  0  0
  -33.1093   -5.8959    0.0000 H   0  0  0  0  0  0  0  0  0  0  0  0
  -31.0417   -7.4692    0.0000 H   0  0  0  0  0  0  0  0  0  0  0  0
  -28.6455   -6.4652    0.0000 H   0  0  0  0  0  0  0  0  0  0  0  0
  -27.9005   -3.2853    0.0000 H   0  0  0  0  0  0  0  0  0  0  0  0
  -28.0323    0.0667    0.0000 H   0  0  0  0  0  0  0  0  0  0  0  0
  -30.3651    1.4187    0.0000 H   0  0  0  0  0  0  0  0  0  0  0  0
  -28.6072    0.6260    0.0000 H   0  0  0  0  0  0  0  0  0  0  0  0
  -32.6834   -1.1668    0.0000 H   0  0  0  0  0  0  0  0  0  0  0  0
  -31.5594   -1.8494    0.0000 H   0  0  0  0  0  0  0  0  0  0  0  0
  -33.0190    2.1296    0.0000 H   0  0  0  0  0  0  0  0  0  0  0  0
  -31.2859    1.7049    0.0000 H   0  0  0  0  0  0  0  0  0  0  0  0
  -34.3478   -1.0169    0.0000 H   0  0  0  0  0  0  0  0  0  0  0  0
  -37.4013    2.2885    0.0000 H   0  0  0  0  0  0  0  0  0  0  0  0
  -35.4929    4.0515    0.0000 H   0  0  0  0  0  0  0  0  0  0  0  0
  -33.0120    3.2803    0.0000 H   0  0  0  0  0  0  0  0  0  0  0  0
  -31.3927   -4.2474    0.0000 H   0  0  0  0  0  0  0  0  0  0  0  0
  1  2  1  0
  2  3  1  0
  3  4  2  0
  4  5  1  0
  5  6  2  0
  6  7  1  0
  7  8  2  0
  7  9  1  0
  9 10  1  0
 10 11  1  0
 11 12  2  0
  9 13  1  0
 13 14  1  0
 14 15  2  0
 15 16  1  0
 16 17  2  0
 17 18  1  0
 16 19  1  0
 14 20  1  0
 20 21  1  0
 21 22  2  0
 22 23  1  0
 23 24  2  0
 24 25  1  0
 25 26  2  0
 25 27  1  0
  1 28  2  0
  1 29  1  0
 29 30  1  0
 30 31  1  0
 31 32  1  0
 32 33  2  0
 32 34  1  0
 35 34  1  1
 35 36  1  0
 36 37  1  0
 37 38  1  0
 38 39  1  0
 35 40  1  0
 35 41  1  0
 41 42  2  0
 41 43  1  0
 43 44  1  0
 44 45  1  0
 45 46  1  0
 46 47  1  0
 47 48  1  0
 48 49  1  0
 49 50  2  3
 49 51  1  0
 44 52  1  0
 52 53  2  0
 52 54  1  0
 54 55  1  0
 55 56  1  0
 56 57  1  0
 57 58  1  0
 58 59  1  0
 59 60  1  0
 60 61  2  3
 60 62  1  0
 55 63  1  0
 63 64  2  0
 63 65  1  0
 65 66  1  0
 66 67  1  0
 67 68  1  0
 68 69  1  0
 69 70  1  0
 69 71  2  0
 66 72  1  0
 72 73  2  0
 72 74  1  0
 74 75  1  0
 75 76  1  0
 76 77  1  0
 77 78  1  0
 78 79  1  0
 75 80  1  0
 75 81  1  1
 81 82  2  0
 81 83  1  0
 83 84  1  0
 84 85  1  0
 85 86  1  0
 86 87  1  0
 87 88  1  0
 88 89  1  0
 89 90  2  3
 89 91  1  0
 84 92  1  0
 92 93  2  0
 92 94  1  0
 94 95  1  0
 95 96  1  0
 96 97  1  0
 97 98  1  0
 98 99  1  0
 99100  1  0
100101  2  3
100102  1  0
 95103  1  0
103104  2  0
103105  1  0
105106  1  0
106107  1  0
107108  1  0
108109  2  0
108110  1  0
106111  1  0
111112  2  0
111113  1  0
113114  1  0
114115  1  0
115116  1  0
116117  1  0
117118  1  0
118119  1  0
119120  2  3
119121  1  0
114122  1  0
122123  2  0
122124  1  0
124125  1  0
125126  1  0
126127  1  0
127128  1  0
128129  1  0
128130  2  0
125131  1  0
131132  2  0
131133  1  0
133134  1  0
134135  1  0
135136  1  0
136137  1  0
137138  1  0
138139  1  0
139140  2  3
139141  1  0
134142  1  0
142143  2  0
142144  1  0
144145  1  0
145146  1  0
146147  1  0
147148  1  0
148149  1  0
149150  1  0
150151  2  3
150152  1  0
145153  1  0
153154  2  0
153155  1  0
155156  1  0
156157  1  0
157158  1  0
158159  1  0
159160  1  0
160161  1  0
161162  2  3
161163  1  0
156164  1  0
164165  2  0
164166  1  0
166167  1  0
167168  1  0
168169  1  0
169170  1  0
170171  1  0
171172  1  0
172173  2  3
172174  1  0
167175  1  0
175176  2  0
175177  1  0
177178  1  0
178179  1  0
179180  1  0
180181  1  0
181182  1  0
182183  1  0
183184  2  3
183185  1  0
178186  1  0
186187  2  0
186188  1  0
  8  3  1  0
 11  6  1  0
 39 79  2  0
 18 13  2  0
 22  9  1  0
 26 21  1  0
  2189  1  0
  4190  1  0
  5191  1  0
  8192  1  0
 15193  1  0
 17194  1  0
 18195  1  0
 19196  1  0
 23197  1  0
 24198  1  0
 26199  1  0
 27200  1  0
 29201  1  0
 30202  1  0
 30203  1  0
 31204  1  0
 31205  1  0
 34206  1  0
 36207  1  0
 36208  1  0
 37209  1  0
 37210  1  0
 38211  1  0
 38212  1  0
 39213  1  0
 40214  1  0
 40215  1  0
 40216  1  0
 43217  1  0
 44218  1  6
 45219  1  0
 45220  1  0
 46221  1  0
 46222  1  0
 47223  1  0
 47224  1  0
 48225  1  0
 50226  1  0
 51227  1  0
 51228  1  0
 54229  1  0
 55230  1  6
 56231  1  0
 56232  1  0
 57233  1  0
 57234  1  0
 58235  1  0
 58236  1  0
 59237  1  0
 61238  1  0
 62239  1  0
 62240  1  0
 65241  1  0
 66242  1  6
 67243  1  0
 67244  1  0
 68245  1  0
 68246  1  0
 70247  1  0
 70248  1  0
 74249  1  0
 76250  1  0
 76251  1  0
 77252  1  0
 77253  1  0
 78254  1  0
 78255  1  0
 79256  1  0
 80257  1  0
 80258  1  0
 80259  1  0
 83260  1  0
 84261  1  1
 85262  1  0
 85263  1  0
 86264  1  0
 86265  1  0
 87266  1  0
 87267  1  0
 88268  1  0
 90269  1  0
 91270  1  0
 91271  1  0
 94272  1  0
 95273  1  6
 96274  1  0
 96275  1  0
 97276  1  0
 97277  1  0
 98278  1  0
 98279  1  0
 99280  1  0
101281  1  0
102282  1  0
102283  1  0
105284  1  0
106285  1  1
107286  1  0
107287  1  0
110288  1  0
113289  1  0
114290  1  6
115291  1  0
115292  1  0
116293  1  0
116294  1  0
117295  1  0
117296  1  0
118297  1  0
120298  1  0
121299  1  0
121300  1  0
124301  1  0
125302  1  1
126303  1  0
126304  1  0
127305  1  0
127306  1  0
129307  1  0
129308  1  0
133309  1  0
134310  1  6
135311  1  0
135312  1  0
136313  1  0
136314  1  0
137315  1  0
137316  1  0
138317  1  0
140318  1  0
141319  1  0
141320  1  0
144321  1  0
145322  1  1
146323  1  0
146324  1  0
147325  1  0
147326  1  0
148327  1  0
148328  1  0
149329  1  0
151330  1  0
152331  1  0
152332  1  0
155333  1  0
156334  1  6
157335  1  0
157336  1  0
158337  1  0
158338  1  0
159339  1  0
159340  1  0
160341  1  0
162342  1  0
163343  1  0
163344  1  0
166345  1  0
167346  1  1
168347  1  0
168348  1  0
169349  1  0
169350  1  0
170351  1  0
170352  1  0
171353  1  0
173354  1  0
174355  1  0
174356  1  0
177357  1  0
178358  1  6
179359  1  0
179360  1  0
180361  1  0
180362  1  0
181363  1  0
181364  1  0
182365  1  0
184366  1  0
185367  1  0
185368  1  0
188369  1  0
M  END
