
     RDKit          2D

273280  0  0  0  0  0  0  0  0999 V2000
  -13.6199   -6.6902    0.0000 C   0  0  0  0  0  0  0  0  0  0  0  0
  -12.1320   -6.8801    0.0000 N   0  0  0  0  0  0  0  0  0  0  0  0
  -11.5525   -8.2637    0.0000 C   0  0  0  0  0  0  0  0  0  0  0  0
  -12.4609   -9.4573    0.0000 C   0  0  0  0  0  0  0  0  0  0  0  0
  -11.8815  -10.8409    0.0000 C   0  0  0  0  0  0  0  0  0  0  0  0
  -10.3935  -11.0308    0.0000 C   0  0  0  0  0  0  0  0  0  0  0  0
   -9.4851   -9.8372    0.0000 C   0  0  0  0  0  0  0  0  0  0  0  0
  -10.0646   -8.4536    0.0000 C   0  0  0  0  0  0  0  0  0  0  0  0
   -8.0692  -10.3323    0.0000 C   0  0  0  0  0  0  0  0  0  0  0  0
   -8.1025  -11.8319    0.0000 O   0  0  0  0  0  0  0  0  0  0  0  0
   -9.5391  -12.2636    0.0000 C   0  0  0  0  0  0  0  0  0  0  0  0
  -10.0342  -13.6795    0.0000 O   0  0  0  0  0  0  0  0  0  0  0  0
   -6.7127  -10.9727    0.0000 C   0  0  0  0  0  0  0  0  0  0  0  0
   -5.4799  -10.1183    0.0000 C   0  0  0  0  0  0  0  0  0  0  0  0
   -4.1235  -10.7587    0.0000 C   0  0  0  0  0  0  0  0  0  0  0  0
   -3.9999  -12.2536    0.0000 C   0  0  0  0  0  0  0  0  0  0  0  0
   -5.2328  -13.1081    0.0000 C   0  0  0  0  0  0  0  0  0  0  0  0
   -6.5892  -12.4676    0.0000 C   0  0  0  0  0  0  0  0  0  0  0  0
   -2.6435  -12.8940    0.0000 O   0  0  0  0  0  0  0  0  0  0  0  0
   -5.6035   -8.6234    0.0000 O   0  0  0  0  0  0  0  0  0  0  0  0
   -6.9599   -7.9829    0.0000 C   0  0  0  0  0  0  0  0  0  0  0  0
   -8.1927   -8.8374    0.0000 C   0  0  0  0  0  0  0  0  0  0  0  0
   -8.9738   -7.7982    0.0000 C   0  0  0  0  0  0  0  0  0  0  0  0
   -9.0397   -7.0009    0.0000 C   0  0  0  0  0  0  0  0  0  0  0  0
   -8.3822   -6.5452    0.0000 C   0  0  0  0  0  0  0  0  0  0  0  0
   -7.6588   -6.8868    0.0000 C   0  0  0  0  0  0  0  0  0  0  0  0
   -8.5635   -4.3527    0.0000 O   0  0  0  0  0  0  0  0  0  0  0  0
  -14.5283   -7.8838    0.0000 S   0  0  0  0  0  0  0  0  0  0  0  0
  -14.1994   -5.3067    0.0000 N   0  0  0  0  0  0  0  0  0  0  0  0
  -15.6873   -5.1167    0.0000 C   0  0  0  0  0  0  0  0  0  0  0  0
  -16.2668   -3.7332    0.0000 C   0  0  0  0  0  0  0  0  0  0  0  0
  -17.7547   -3.5433    0.0000 C   0  0  0  0  0  0  0  0  0  0  0  0
  -18.6631   -4.7369    0.0000 O   0  0  0  0  0  0  0  0  0  0  0  0
  -18.3342   -2.1597    0.0000 N   0  0  0  0  0  0  0  0  0  0  0  0
  -19.7941   -1.8153    0.0000 C   0  0  0  0  0  0  0  0  0  0  0  0
  -19.9177   -0.3204    0.0000 C   0  0  0  0  0  0  0  0  0  0  0  0
  -18.5341    0.2591    0.0000 C   0  0  0  0  0  0  0  0  0  0  0  0
  -17.5555   -0.8777    0.0000 C   0  0  0  0  0  0  0  0  0  0  0  0
  -16.5272    0.2144    0.0000 C   0  0  0  0  0  0  0  0  0  0  0  0
  -16.7806    1.6929    0.0000 O   0  0  0  0  0  0  0  0  0  0  0  0
  -15.0673   -0.1300    0.0000 N   0  0  0  0  0  0  0  0  0  0  0  0
  -14.0391    0.9621    0.0000 C   0  0  0  0  0  0  0  0  0  0  0  0
  -13.4464    2.3401    0.0000 C   0  0  0  0  0  0  0  0  0  0  0  0
  -11.9567    2.5158    0.0000 C   0  0  0  0  0  0  0  0  0  0  0  0
  -11.3640    3.8937    0.0000 C   0  0  0  0  0  0  0  0  0  0  0  0
   -9.9611    4.4246    0.0000 O   0  0  0  0  0  0  0  0  0  0  0  0
  -12.5252    4.8432    0.0000 O   0  0  0  0  0  0  0  0  0  0  0  0
  -12.5792    0.6177    0.0000 C   0  0  0  0  0  0  0  0  0  0  0  0
  -12.3258   -0.8607    0.0000 O   0  0  0  0  0  0  0  0  0  0  0  0
  -11.5509    1.7098    0.0000 N   0  0  0  0  0  0  0  0  0  0  0  0
  -10.0910    1.3654    0.0000 C   0  0  0  0  0  0  0  0  0  0  0  0
   -9.3832    0.0429    0.0000 C   0  0  0  0  0  0  0  0  0  0  0  0
   -8.3171   -1.0122    0.0000 C   0  0  0  0  0  0  0  0  0  0  0  0
   -6.9873   -1.7063    0.0000 C   0  0  0  0  0  0  0  0  0  0  0  0
   -5.5120   -1.9775    0.0000 C   0  0  0  0  0  0  0  0  0  0  0  0
  -11.1435    0.2967    0.0000 C   0  0  0  0  0  0  0  0  0  0  0  0
  -10.3775    2.8378    0.0000 C   0  0  0  0  0  0  0  0  0  0  0  0
  -11.1332    3.0916    0.0000 O   0  0  0  0  0  0  0  0  0  0  0  0
  -10.2173    4.3292    0.0000 N   0  0  0  0  0  0  0  0  0  0  0  0
   -9.6246    5.7072    0.0000 C   0  0  0  0  0  0  0  0  0  0  0  0
  -10.2655    7.0633    0.0000 C   0  0  0  0  0  0  0  0  0  0  0  0
  -11.7605    7.1863    0.0000 C   0  0  0  0  0  0  0  0  0  0  0  0
  -10.4040    8.5569    0.0000 C   0  0  0  0  0  0  0  0  0  0  0  0
  -11.7668    9.1838    0.0000 C   0  0  0  0  0  0  0  0  0  0  0  0
   -8.6521    6.8492    0.0000 C   0  0  0  0  0  0  0  0  0  0  0  0
   -9.4911    8.0926    0.0000 O   0  0  0  0  0  0  0  0  0  0  0  0
   -7.3861    7.6538    0.0000 N   0  0  0  0  0  0  0  0  0  0  0  0
   -5.9393    8.0495    0.0000 C   0  0  0  0  0  0  0  0  0  0  0  0
   -5.2786    9.3962    0.0000 C   0  0  0  0  0  0  0  0  0  0  0  0
   -6.1146   10.6417    0.0000 C   0  0  0  0  0  0  0  0  0  0  0  0
   -5.4539   11.9884    0.0000 C   0  0  0  0  0  0  0  0  0  0  0  0
   -7.3261   11.5262    0.0000 C   0  0  0  0  0  0  0  0  0  0  0  0
   -4.4400    8.0012    0.0000 C   0  0  0  0  0  0  0  0  0  0  0  0
   -4.1688    9.4765    0.0000 O   0  0  0  0  0  0  0  0  0  0  0  0
   -3.0217    7.5131    0.0000 N   0  0  0  0  0  0  0  0  0  0  0  0
   -1.8102    6.6287    0.0000 C   0  0  0  0  0  0  0  0  0  0  0  0
   -0.3454    6.9518    0.0000 C   0  0  0  0  0  0  0  0  0  0  0  0
    0.1072    8.3819    0.0000 C   0  0  0  0  0  0  0  0  0  0  0  0
    1.5720    8.7050    0.0000 O   0  0  0  0  0  0  0  0  0  0  0  0
   -0.9051    9.4889    0.0000 O   0  0  0  0  0  0  0  0  0  0  0  0
   -0.9132    5.4264    0.0000 C   0  0  0  0  0  0  0  0  0  0  0  0
    0.4093    6.1342    0.0000 O   0  0  0  0  0  0  0  0  0  0  0  0
   -0.4104    4.0132    0.0000 N   0  0  0  0  0  0  0  0  0  0  0  0
   -0.3466    2.5145    0.0000 C   0  0  0  0  0  0  0  0  0  0  0  0
   -0.7273    1.0637    0.0000 C   0  0  0  0  0  0  0  0  0  0  0  0
   -1.5187   -0.2105    0.0000 C   0  0  0  0  0  0  0  0  0  0  0  0
   -2.6506   -1.1949    0.0000 C   0  0  0  0  0  0  0  0  0  0  0  0
   -4.0223   -1.8018    0.0000 C   0  0  0  0  0  0  0  0  0  0  0  0
    0.9932    3.1891    0.0000 C   0  0  0  0  0  0  0  0  0  0  0  0
    0.8193    1.5708    0.0000 C   0  0  0  0  0  0  0  0  0  0  0  0
    0.9504    0.0765    0.0000 O   0  0  0  0  0  0  0  0  0  0  0  0
    2.2196    2.1086    0.0000 N   0  0  0  0  0  0  0  0  0  0  0  0
    3.3855    1.1649    0.0000 C   0  0  0  0  0  0  0  0  0  0  0  0
    4.1583   -0.1207    0.0000 C   0  0  0  0  0  0  0  0  0  0  0  0
    3.4313   -1.4328    0.0000 C   0  0  0  0  0  0  0  0  0  0  0  0
    4.0655   -2.7921    0.0000 C   0  0  0  0  0  0  0  0  0  0  0  0
    2.9687   -3.8153    0.0000 N   0  0  0  0  0  0  0  0  0  0  0  0
    1.6566   -3.0884    0.0000 C   0  0  0  0  0  0  0  0  0  0  0  0
    1.9426   -1.6159    0.0000 N   0  0  0  0  0  0  0  0  0  0  0  0
    4.7858    1.7027    0.0000 C   0  0  0  0  0  0  0  0  0  0  0  0
    5.0201    3.1843    0.0000 O   0  0  0  0  0  0  0  0  0  0  0  0
    5.9517    0.7590    0.0000 N   0  0  0  0  0  0  0  0  0  0  0  0
    7.3519    1.2968    0.0000 C   0  0  0  0  0  0  0  0  0  0  0  0
    8.4838    2.2811    0.0000 C   0  0  0  0  0  0  0  0  0  0  0  0
    9.9511    1.9696    0.0000 C   0  0  0  0  0  0  0  0  0  0  0  0
    8.5178    0.3530    0.0000 C   0  0  0  0  0  0  0  0  0  0  0  0
    8.2835   -1.1285    0.0000 O   0  0  0  0  0  0  0  0  0  0  0  0
    9.9181    0.8909    0.0000 N   0  0  0  0  0  0  0  0  0  0  0  0
   11.0840   -0.0529    0.0000 C   0  0  0  0  0  0  0  0  0  0  0  0
   11.8568   -1.3385    0.0000 C   0  0  0  0  0  0  0  0  0  0  0  0
   11.1299   -2.6505    0.0000 C   0  0  0  0  0  0  0  0  0  0  0  0
   11.9027   -3.9361    0.0000 C   0  0  0  0  0  0  0  0  0  0  0  0
   11.1757   -5.2482    0.0000 N   0  0  0  0  0  0  0  0  0  0  0  0
   13.4024   -3.9097    0.0000 O   0  0  0  0  0  0  0  0  0  0  0  0
   12.4843    0.4850    0.0000 C   0  0  0  0  0  0  0  0  0  0  0  0
   12.7186    1.9665    0.0000 O   0  0  0  0  0  0  0  0  0  0  0  0
   13.6502   -0.4588    0.0000 N   0  0  0  0  0  0  0  0  0  0  0  0
   15.0504    0.0790    0.0000 C   0  0  0  0  0  0  0  0  0  0  0  0
   16.1823    1.0633    0.0000 C   0  0  0  0  0  0  0  0  0  0  0  0
   17.6007    0.5753    0.0000 C   0  0  0  0  0  0  0  0  0  0  0  0
   18.7325    1.5596    0.0000 C   0  0  0  0  0  0  0  0  0  0  0  0
   20.1509    1.0715    0.0000 N   0  0  0  0  0  0  0  0  0  0  0  0
   21.2828    2.0558    0.0000 C   0  0  0  0  0  0  0  0  0  0  0  0
   22.6311    1.3985    0.0000 N   0  0  0  0  0  0  0  0  0  0  0  0
   20.9963    3.5282    0.0000 N   0  0  0  0  0  0  0  0  0  0  0  0
   16.2163   -0.8647    0.0000 C   0  0  0  0  0  0  0  0  0  0  0  0
   15.9820   -2.3463    0.0000 O   0  0  0  0  0  0  0  0  0  0  0  0
   17.6166   -0.3269    0.0000 N   0  0  0  0  0  0  0  0  0  0  0  0
   18.7825   -1.2706    0.0000 C   0  0  0  0  0  0  0  0  0  0  0  0
   19.5553   -2.5562    0.0000 C   0  0  0  0  0  0  0  0  0  0  0  0
   18.8284   -3.8683    0.0000 C   0  0  0  0  0  0  0  0  0  0  0  0
   20.1828   -0.7328    0.0000 C   0  0  0  0  0  0  0  0  0  0  0  0
   20.7687    0.6480    0.0000 O   0  0  0  0  0  0  0  0  0  0  0  0
   21.3487   -1.6766    0.0000 N   0  0  0  0  0  0  0  0  0  0  0  0
   22.7489   -1.1387    0.0000 C   0  0  0  0  0  0  0  0  0  0  0  0
   23.8808   -0.1544    0.0000 C   0  0  0  0  0  0  0  0  0  0  0  0
   25.2992   -0.6425    0.0000 C   0  0  0  0  0  0  0  0  0  0  0  0
   26.4311    0.3418    0.0000 S   0  0  0  0  0  0  0  0  0  0  0  0
   27.8494   -0.1462    0.0000 C   0  0  0  0  0  0  0  0  0  0  0  0
   23.9149   -2.0825    0.0000 C   0  0  0  0  0  0  0  0  0  0  0  0
   25.3702   -1.7193    0.0000 O   0  0  0  0  0  0  0  0  0  0  0  0
   23.6805   -3.5641    0.0000 O   0  0  0  0  0  0  0  0  0  0  0  0
  -11.3758   -5.5847    0.0000 H   0  0  0  0  0  0  0  0  0  0  0  0
  -13.9489   -9.2674    0.0000 H   0  0  0  0  0  0  0  0  0  0  0  0
  -12.7899  -12.0345    0.0000 H   0  0  0  0  0  0  0  0  0  0  0  0
   -9.4719   -7.0757    0.0000 H   0  0  0  0  0  0  0  0  0  0  0  0
   -2.8907   -9.9042    0.0000 H   0  0  0  0  0  0  0  0  0  0  0  0
   -5.1092  -14.6030    0.0000 H   0  0  0  0  0  0  0  0  0  0  0  0
   -7.8220  -13.3221    0.0000 H   0  0  0  0  0  0  0  0  0  0  0  0
   -2.5199  -14.3889    0.0000 H   0  0  0  0  0  0  0  0  0  0  0  0
  -10.7820   -9.0515    0.0000 H   0  0  0  0  0  0  0  0  0  0  0  0
  -10.9410   -5.9011    0.0000 H   0  0  0  0  0  0  0  0  0  0  0  0
   -5.8506   -5.6336    0.0000 H   0  0  0  0  0  0  0  0  0  0  0  0
   -7.2357   -3.6549    0.0000 H   0  0  0  0  0  0  0  0  0  0  0  0
  -13.2909   -4.1131    0.0000 H   0  0  0  0  0  0  0  0  0  0  0  0
  -17.1504   -5.4472    0.0000 H   0  0  0  0  0  0  0  0  0  0  0  0
  -15.6160   -6.6150    0.0000 H   0  0  0  0  0  0  0  0  0  0  0  0
  -16.1549   -2.2374    0.0000 H   0  0  0  0  0  0  0  0  0  0  0  0
  -14.8036   -3.4028    0.0000 H   0  0  0  0  0  0  0  0  0  0  0  0
  -19.9840   -3.3032    0.0000 H   0  0  0  0  0  0  0  0  0  0  0  0
  -21.2937   -1.7819    0.0000 H   0  0  0  0  0  0  0  0  0  0  0  0
  -21.3915   -0.5996    0.0000 H   0  0  0  0  0  0  0  0  0  0  0  0
  -20.3494    1.1161    0.0000 H   0  0  0  0  0  0  0  0  0  0  0  0
  -19.2551    1.5745    0.0000 H   0  0  0  0  0  0  0  0  0  0  0  0
  -17.4146    1.2575    0.0000 H   0  0  0  0  0  0  0  0  0  0  0  0
  -16.2600   -1.6339    0.0000 H   0  0  0  0  0  0  0  0  0  0  0  0
  -14.6356   -1.5665    0.0000 H   0  0  0  0  0  0  0  0  0  0  0  0
  -15.2932    1.7851    0.0000 H   0  0  0  0  0  0  0  0  0  0  0  0
  -13.3607    3.8376    0.0000 H   0  0  0  0  0  0  0  0  0  0  0  0
  -14.9063    2.6845    0.0000 H   0  0  0  0  0  0  0  0  0  0  0  0
  -10.4568    2.5348    0.0000 H   0  0  0  0  0  0  0  0  0  0  0  0
  -11.4999    1.0870    0.0000 H   0  0  0  0  0  0  0  0  0  0  0  0
  -11.6394    6.4398    0.0000 H   0  0  0  0  0  0  0  0  0  0  0  0
  -11.8043    3.1883    0.0000 H   0  0  0  0  0  0  0  0  0  0  0  0
  -10.8563   -0.2400    0.0000 H   0  0  0  0  0  0  0  0  0  0  0  0
   -9.9065   -1.3629    0.0000 H   0  0  0  0  0  0  0  0  0  0  0  0
   -9.5456   -1.8729    0.0000 H   0  0  0  0  0  0  0  0  0  0  0  0
   -8.5847   -2.4882    0.0000 H   0  0  0  0  0  0  0  0  0  0  0  0
   -8.0451   -2.7698    0.0000 H   0  0  0  0  0  0  0  0  0  0  0  0
   -6.4529   -3.1079    0.0000 H   0  0  0  0  0  0  0  0  0  0  0  0
   -5.5603   -3.4767    0.0000 H   0  0  0  0  0  0  0  0  0  0  0  0
  -10.8185   -1.3373    0.0000 H   0  0  0  0  0  0  0  0  0  0  0  0
  -12.1502   -0.7589    0.0000 H   0  0  0  0  0  0  0  0  0  0  0  0
  -12.3132    0.9044    0.0000 H   0  0  0  0  0  0  0  0  0  0  0  0
  -11.6109    4.8840    0.0000 H   0  0  0  0  0  0  0  0  0  0  0  0
  -11.1099    5.4981    0.0000 H   0  0  0  0  0  0  0  0  0  0  0  0
   -8.9574    7.7974    0.0000 H   0  0  0  0  0  0  0  0  0  0  0  0
  -12.5620    8.4542    0.0000 H   0  0  0  0  0  0  0  0  0  0  0  0
  -13.2074    6.7906    0.0000 H   0  0  0  0  0  0  0  0  0  0  0  0
  -11.8270    5.6915    0.0000 H   0  0  0  0  0  0  0  0  0  0  0  0
  -10.0233   10.0078    0.0000 H   0  0  0  0  0  0  0  0  0  0  0  0
   -8.9052    8.6171    0.0000 H   0  0  0  0  0  0  0  0  0  0  0  0
  -11.9052   10.6774    0.0000 H   0  0  0  0  0  0  0  0  0  0  0  0
  -13.2617    9.3068    0.0000 H   0  0  0  0  0  0  0  0  0  0  0  0
  -12.4872    7.8681    0.0000 H   0  0  0  0  0  0  0  0  0  0  0  0
   -7.9931    9.0255    0.0000 H   0  0  0  0  0  0  0  0  0  0  0  0
   -7.0288    9.0805    0.0000 H   0  0  0  0  0  0  0  0  0  0  0  0
   -4.0786   10.2962    0.0000 H   0  0  0  0  0  0  0  0  0  0  0  0
   -3.8891    8.8312    0.0000 H   0  0  0  0  0  0  0  0  0  0  0  0
   -7.3146    9.7418    0.0000 H   0  0  0  0  0  0  0  0  0  0  0  0
   -6.1318   13.3265    0.0000 H   0  0  0  0  0  0  0  0  0  0  0  0
   -4.3725   13.0279    0.0000 H   0  0  0  0  0  0  0  0  0  0  0  0
   -4.1436   11.2582    0.0000 H   0  0  0  0  0  0  0  0  0  0  0  0
   -7.3488   13.0260    0.0000 H   0  0  0  0  0  0  0  0  0  0  0  0
   -8.7670   11.9429    0.0000 H   0  0  0  0  0  0  0  0  0  0  0  0
   -7.9867   10.1795    0.0000 H   0  0  0  0  0  0  0  0  0  0  0  0
   -2.3277    8.8429    0.0000 H   0  0  0  0  0  0  0  0  0  0  0  0
   -1.5023    8.0967    0.0000 H   0  0  0  0  0  0  0  0  0  0  0  0
    1.1416    6.7545    0.0000 H   0  0  0  0  0  0  0  0  0  0  0  0
    0.0792    5.5132    0.0000 H   0  0  0  0  0  0  0  0  0  0  0  0
   -0.4525   10.9190    0.0000 H   0  0  0  0  0  0  0  0  0  0  0  0
    1.0619    4.2997    0.0000 H   0  0  0  0  0  0  0  0  0  0  0  0
    0.1086   -0.1818    0.0000 H   0  0  0  0  0  0  0  0  0  0  0  0
    0.7682    0.9481    0.0000 H   0  0  0  0  0  0  0  0  0  0  0  0
   -0.9152   -1.5837    0.0000 H   0  0  0  0  0  0  0  0  0  0  0  0
   -0.1237   -0.7618    0.0000 H   0  0  0  0  0  0  0  0  0  0  0  0
   -2.6615   -2.6948    0.0000 H   0  0  0  0  0  0  0  0  0  0  0  0
   -1.3745   -1.9832    0.0000 H   0  0  0  0  0  0  0  0  0  0  0  0
   -3.6266   -3.2487    0.0000 H   0  0  0  0  0  0  0  0  0  0  0  0
    2.4091    2.6941    0.0000 H   0  0  0  0  0  0  0  0  0  0  0  0
    1.8806    4.3984    0.0000 H   0  0  0  0  0  0  0  0  0  0  0  0
    0.4138    4.5727    0.0000 H   0  0  0  0  0  0  0  0  0  0  0  0
    2.6328    3.5506    0.0000 H   0  0  0  0  0  0  0  0  0  0  0  0
    2.2536    0.1806    0.0000 H   0  0  0  0  0  0  0  0  0  0  0  0
    5.2005   -1.1995    0.0000 H   0  0  0  0  0  0  0  0  0  0  0  0
    5.4947    0.5605    0.0000 H   0  0  0  0  0  0  0  0  0  0  0  0
    5.5380   -3.0780    0.0000 H   0  0  0  0  0  0  0  0  0  0  0  0
    3.1518   -5.3041    0.0000 H   0  0  0  0  0  0  0  0  0  0  0  0
    0.2973   -3.7226    0.0000 H   0  0  0  0  0  0  0  0  0  0  0  0
    5.8996   -0.7401    0.0000 H   0  0  0  0  0  0  0  0  0  0  0  0
    6.5791    2.5824    0.0000 H   0  0  0  0  0  0  0  0  0  0  0  0
    9.2107    3.5932    0.0000 H   0  0  0  0  0  0  0  0  0  0  0  0
    7.3179    3.2249    0.0000 H   0  0  0  0  0  0  0  0  0  0  0  0
   11.0340    2.7773    0.0000 H   0  0  0  0  0  0  0  0  0  0  0  0
   11.0681    0.8493    0.0000 H   0  0  0  0  0  0  0  0  0  0  0  0
    9.8764    0.2933    0.0000 H   0  0  0  0  0  0  0  0  0  0  0  0
   10.3313    2.3328    0.0000 H   0  0  0  0  0  0  0  0  0  0  0  0
    9.8406   -0.8919    0.0000 H   0  0  0  0  0  0  0  0  0  0  0  0
   12.8990   -2.4173    0.0000 H   0  0  0  0  0  0  0  0  0  0  0  0
   13.1932   -0.6573    0.0000 H   0  0  0  0  0  0  0  0  0  0  0  0
    9.9980   -3.6349    0.0000 H   0  0  0  0  0  0  0  0  0  0  0  0
    9.8576   -1.8560    0.0000 H   0  0  0  0  0  0  0  0  0  0  0  0
   11.9485   -6.5338    0.0000 H   0  0  0  0  0  0  0  0  0  0  0  0
    9.6760   -5.2747    0.0000 H   0  0  0  0  0  0  0  0  0  0  0  0
   13.5982   -1.9579    0.0000 H   0  0  0  0  0  0  0  0  0  0  0  0
   14.2776    1.3646    0.0000 H   0  0  0  0  0  0  0  0  0  0  0  0
   16.7439    2.4542    0.0000 H   0  0  0  0  0  0  0  0  0  0  0  0
   15.0164    2.0071    0.0000 H   0  0  0  0  0  0  0  0  0  0  0  0
   18.7666   -0.3685    0.0000 H   0  0  0  0  0  0  0  0  0  0  0  0
   17.5750   -0.9245    0.0000 H   0  0  0  0  0  0  0  0  0  0  0  0
   19.4595    2.8717    0.0000 H   0  0  0  0  0  0  0  0  0  0  0  0
   17.6904    2.6384    0.0000 H   0  0  0  0  0  0  0  0  0  0  0  0
   20.7852   -0.2878    0.0000 H   0  0  0  0  0  0  0  0  0  0  0  0
   23.8330    2.5521    0.0000 H   0  0  0  0  0  0  0  0  0  0  0  0
   22.1282    4.5125    0.0000 H   0  0  0  0  0  0  0  0  0  0  0  0
   19.5779    4.0163    0.0000 H   0  0  0  0  0  0  0  0  0  0  0  0
   18.2025    1.0540    0.0000 H   0  0  0  0  0  0  0  0  0  0  0  0
   17.5391   -2.1096    0.0000 H   0  0  0  0  0  0  0  0  0  0  0  0
   20.5975   -3.6351    0.0000 H   0  0  0  0  0  0  0  0  0  0  0  0
   20.8917   -1.8751    0.0000 H   0  0  0  0  0  0  0  0  0  0  0  0
   19.6012   -5.1539    0.0000 H   0  0  0  0  0  0  0  0  0  0  0  0
   17.6965   -4.8526    0.0000 H   0  0  0  0  0  0  0  0  0  0  0  0
   17.5561   -3.0737    0.0000 H   0  0  0  0  0  0  0  0  0  0  0  0
   21.2967   -3.1757    0.0000 H   0  0  0  0  0  0  0  0  0  0  0  0
   21.9761    0.1469    0.0000 H   0  0  0  0  0  0  0  0  0  0  0  0
   24.6078    1.1577    0.0000 H   0  0  0  0  0  0  0  0  0  0  0  0
   22.6086    0.6402    0.0000 H   0  0  0  0  0  0  0  0  0  0  0  0
   26.3414   -1.7213    0.0000 H   0  0  0  0  0  0  0  0  0  0  0  0
   25.0908   -2.1279    0.0000 H   0  0  0  0  0  0  0  0  0  0  0  0
   28.9813    0.8381    0.0000 H   0  0  0  0  0  0  0  0  0  0  0  0
   29.0153   -1.0900    0.0000 H   0  0  0  0  0  0  0  0  0  0  0  0
   27.2878   -1.5371    0.0000 H   0  0  0  0  0  0  0  0  0  0  0  0
   24.8464   -4.5078    0.0000 H   0  0  0  0  0  0  0  0  0  0  0  0
  1  2  1  0
  2  3  1  0
  3  4  2  0
  4  5  1  0
  5  6  2  0
  6  7  1  0
  7  8  2  0
  7  9  1  0
  9 10  1  0
 10 11  1  0
 11 12  2  0
  9 13  1  0
 13 14  1  0
 14 15  2  0
 15 16  1  0
 16 17  2  0
 17 18  1  0
 16 19  1  0
 14 20  1  0
 20 21  1  0
 21 22  2  0
 22 23  1  0
 23 24  2  0
 24 25  1  0
 25 26  2  0
 25 27  1  0
  1 28  2  0
  1 29  1  0
 29 30  1  0
 30 31  1  0
 31 32  1  0
 32 33  2  0
 32 34  1  0
 34 35  1  0
 35 36  1  0
 36 37  1  0
 37 38  1  0
 38 39  1  0
 39 40  2  0
 39 41  1  0
 41 42  1  0
 42 43  1  0
 43 44  1  0
 44 45  1  0
 45 46  2  0
 45 47  1  0
 42 48  1  0
 48 49  2  0
 48 50  1  0
 51 50  1  6
 51 52  1  0
 52 53  1  0
 53 54  1  0
 54 55  1  0
 51 56  1  0
 51 57  1  0
 57 58  2  0
 57 59  1  0
 59 60  1  0
 60 61  1  0
 61 62  1  0
 61 63  1  0
 63 64  1  0
 60 65  1  0
 65 66  2  0
 65 67  1  0
 67 68  1  0
 68 69  1  0
 69 70  1  0
 70 71  1  0
 70 72  1  0
 68 73  1  0
 73 74  2  0
 73 75  1  0
 75 76  1  0
 76 77  1  0
 77 78  1  0
 78 79  2  0
 78 80  1  0
 76 81  1  0
 81 82  2  0
 81 83  1  0
 83 84  1  0
 84 85  1  0
 85 86  1  0
 86 87  1  0
 87 88  1  0
 84 89  1  0
 84 90  1  6
 90 91  2  0
 90 92  1  0
 92 93  1  0
 93 94  1  0
 94 95  1  0
 95 96  2  0
 96 97  1  0
 97 98  1  0
 98 99  2  0
 93100  1  0
100101  2  0
100102  1  0
102103  1  0
103104  1  0
104105  1  0
103106  1  0
106107  2  0
106108  1  0
108109  1  0
109110  1  0
110111  1  0
111112  1  0
112113  1  0
112114  2  0
109115  1  0
115116  2  0
115117  1  0
117118  1  0
118119  1  0
119120  1  0
120121  1  0
121122  1  0
122123  1  0
123124  2  3
123125  1  0
118126  1  0
126127  2  0
126128  1  0
128129  1  0
129130  1  0
130131  1  0
129132  1  0
132133  2  0
132134  1  0
134135  1  0
135136  1  0
136137  1  0
137138  1  0
138139  1  0
135140  1  0
140141  2  0
140142  1  0
  8  3  1  0
 38 34  1  0
 99 95  1  0
 11  6  1  0
 55 88  2  0
 18 13  2  0
 22  9  1  0
 26 21  1  0
  2143  1  0
  4144  1  0
  5145  1  0
  8146  1  0
 15147  1  0
 17148  1  0
 18149  1  0
 19150  1  0
 23151  1  0
 24152  1  0
 26153  1  0
 27154  1  0
 29155  1  0
 30156  1  0
 30157  1  0
 31158  1  0
 31159  1  0
 35160  1  0
 35161  1  0
 36162  1  0
 36163  1  0
 37164  1  0
 37165  1  0
 38166  1  0
 41167  1  0
 42168  1  1
 43169  1  0
 43170  1  0
 44171  1  0
 44172  1  0
 47173  1  0
 50174  1  0
 52175  1  0
 52176  1  0
 53177  1  0
 53178  1  0
 54179  1  0
 54180  1  0
 55181  1  0
 56182  1  0
 56183  1  0
 56184  1  0
 59185  1  0
 60186  1  1
 61187  1  6
 62188  1  0
 62189  1  0
 62190  1  0
 63191  1  0
 63192  1  0
 64193  1  0
 64194  1  0
 64195  1  0
 67196  1  0
 68197  1  1
 69198  1  0
 69199  1  0
 70200  1  0
 71201  1  0
 71202  1  0
 71203  1  0
 72204  1  0
 72205  1  0
 72206  1  0
 75207  1  0
 76208  1  1
 77209  1  0
 77210  1  0
 80211  1  0
 83212  1  0
 85213  1  0
 85214  1  0
 86215  1  0
 86216  1  0
 87217  1  0
 87218  1  0
 88219  1  0
 89220  1  0
 89221  1  0
 89222  1  0
 92223  1  0
 93224  1  6
 94225  1  0
 94226  1  0
 96227  1  0
 97228  1  0
 98229  1  0
102230  1  0
103231  1  1
104232  1  0
104233  1  0
105234  1  0
105235  1  0
105236  1  0
108237  1  0
109238  1  6
110239  1  0
110240  1  0
111241  1  0
111242  1  0
113243  1  0
113244  1  0
117245  1  0
118246  1  1
119247  1  0
119248  1  0
120249  1  0
120250  1  0
121251  1  0
121252  1  0
122253  1  0
124254  1  0
125255  1  0
125256  1  0
128257  1  0
129258  1  6
130259  1  0
130260  1  0
131261  1  0
131262  1  0
131263  1  0
134264  1  0
135265  1  1
136266  1  0
136267  1  0
137268  1  0
137269  1  0
139270  1  0
139271  1  0
139272  1  0
142273  1  0
M  END
