
     RDKit          2D

382391  0  0  0  0  0  0  0  0999 V2000
   33.9711   -0.8292    0.0000 C   0  0  0  0  0  0  0  0  0  0  0  0
   35.2728   -0.0837    0.0000 N   0  0  0  0  0  0  0  0  0  0  0  0
   36.5692   -0.8382    0.0000 C   0  0  0  0  0  0  0  0  0  0  0  0
   36.5640   -2.3382    0.0000 C   0  0  0  0  0  0  0  0  0  0  0  0
   37.8604   -3.0927    0.0000 C   0  0  0  0  0  0  0  0  0  0  0  0
   39.1621   -2.3472    0.0000 C   0  0  0  0  0  0  0  0  0  0  0  0
   39.1673   -0.8472    0.0000 C   0  0  0  0  0  0  0  0  0  0  0  0
   37.8708   -0.0927    0.0000 C   0  0  0  0  0  0  0  0  0  0  0  0
   40.5955   -0.3886    0.0000 C   0  0  0  0  0  0  0  0  0  0  0  0
   41.4729   -1.6052    0.0000 O   0  0  0  0  0  0  0  0  0  0  0  0
   40.5870   -2.8156    0.0000 C   0  0  0  0  0  0  0  0  0  0  0  0
   41.0456   -4.2438    0.0000 O   0  0  0  0  0  0  0  0  0  0  0  0
   42.0637   -0.0818    0.0000 C   0  0  0  0  0  0  0  0  0  0  0  0
   42.5322    1.3431    0.0000 C   0  0  0  0  0  0  0  0  0  0  0  0
   44.0005    1.6499    0.0000 C   0  0  0  0  0  0  0  0  0  0  0  0
   45.0003    0.5317    0.0000 C   0  0  0  0  0  0  0  0  0  0  0  0
   44.5319   -0.8932    0.0000 C   0  0  0  0  0  0  0  0  0  0  0  0
   43.0636   -1.2000    0.0000 C   0  0  0  0  0  0  0  0  0  0  0  0
   46.4686    0.8385    0.0000 O   0  0  0  0  0  0  0  0  0  0  0  0
   41.5324    2.4613    0.0000 O   0  0  0  0  0  0  0  0  0  0  0  0
   40.0641    2.1546    0.0000 C   0  0  0  0  0  0  0  0  0  0  0  0
   39.5956    0.7296    0.0000 C   0  0  0  0  0  0  0  0  0  0  0  0
   38.3460    1.0878    0.0000 C   0  0  0  0  0  0  0  0  0  0  0  0
   37.8127    1.6842    0.0000 C   0  0  0  0  0  0  0  0  0  0  0  0
   38.0626    2.4442    0.0000 C   0  0  0  0  0  0  0  0  0  0  0  0
   38.8457    2.6078    0.0000 C   0  0  0  0  0  0  0  0  0  0  0  0
   36.5962    4.0842    0.0000 O   0  0  0  0  0  0  0  0  0  0  0  0
   33.9659   -2.3291    0.0000 S   0  0  0  0  0  0  0  0  0  0  0  0
   32.6747   -0.0747    0.0000 N   0  0  0  0  0  0  0  0  0  0  0  0
   31.3731   -0.8201    0.0000 C   0  0  0  0  0  0  0  0  0  0  0  0
   30.0767   -0.0656    0.0000 C   0  0  0  0  0  0  0  0  0  0  0  0
   28.7750   -0.8111    0.0000 C   0  0  0  0  0  0  0  0  0  0  0  0
   28.7698   -2.3111    0.0000 O   0  0  0  0  0  0  0  0  0  0  0  0
   27.4786   -0.0566    0.0000 N   0  0  0  0  0  0  0  0  0  0  0  0
   26.1770   -0.8021    0.0000 C   0  0  0  0  0  0  0  0  0  0  0  0
   25.2088   -1.9478    0.0000 C   0  0  0  0  0  0  0  0  0  0  0  0
   23.7325   -1.6823    0.0000 C   0  0  0  0  0  0  0  0  0  0  0  0
   22.7643   -2.8280    0.0000 C   0  0  0  0  0  0  0  0  0  0  0  0
   21.2880   -2.5624    0.0000 N   0  0  0  0  0  0  0  0  0  0  0  0
   20.3199   -3.7081    0.0000 C   0  0  0  0  0  0  0  0  0  0  0  0
   18.8436   -3.4425    0.0000 N   0  0  0  0  0  0  0  0  0  0  0  0
   20.8280   -5.1194    0.0000 N   0  0  0  0  0  0  0  0  0  0  0  0
   24.8805   -0.0476    0.0000 C   0  0  0  0  0  0  0  0  0  0  0  0
   24.8857    1.4524    0.0000 O   0  0  0  0  0  0  0  0  0  0  0  0
   23.5789   -0.7931    0.0000 N   0  0  0  0  0  0  0  0  0  0  0  0
   22.2825   -0.0386    0.0000 C   0  0  0  0  0  0  0  0  0  0  0  0
   21.3223    1.1138    0.0000 C   0  0  0  0  0  0  0  0  0  0  0  0
   21.8402    2.5215    0.0000 C   0  0  0  0  0  0  0  0  0  0  0  0
   20.8800    3.6739    0.0000 C   0  0  0  0  0  0  0  0  0  0  0  0
   21.3979    5.0817    0.0000 N   0  0  0  0  0  0  0  0  0  0  0  0
   19.4019    3.4186    0.0000 O   0  0  0  0  0  0  0  0  0  0  0  0
   20.9808   -0.7841    0.0000 C   0  0  0  0  0  0  0  0  0  0  0  0
   20.7126   -1.8442    0.0000 O   0  0  0  0  0  0  0  0  0  0  0  0
   19.6844   -0.0296    0.0000 N   0  0  0  0  0  0  0  0  0  0  0  0
   18.3828   -0.7751    0.0000 C   0  0  0  0  0  0  0  0  0  0  0  0
   17.4146   -1.9208    0.0000 C   0  0  0  0  0  0  0  0  0  0  0  0
   15.9383   -1.6552    0.0000 C   0  0  0  0  0  0  0  0  0  0  0  0
   16.8967   -3.3286    0.0000 C   0  0  0  0  0  0  0  0  0  0  0  0
   15.4186   -3.5839    0.0000 C   0  0  0  0  0  0  0  0  0  0  0  0
   17.0864   -0.0206    0.0000 C   0  0  0  0  0  0  0  0  0  0  0  0
   17.0916    1.4794    0.0000 O   0  0  0  0  0  0  0  0  0  0  0  0
   15.7847   -0.7661    0.0000 N   0  0  0  0  0  0  0  0  0  0  0  0
   14.4883   -0.0116    0.0000 C   0  0  0  0  0  0  0  0  0  0  0  0
   13.5281    1.1408    0.0000 C   0  0  0  0  0  0  0  0  0  0  0  0
   14.0460    2.5486    0.0000 C   0  0  0  0  0  0  0  0  0  0  0  0
   13.0858    3.7010    0.0000 C   0  0  0  0  0  0  0  0  0  0  0  0
   13.6037    5.1087    0.0000 C   0  0  0  0  0  0  0  0  0  0  0  0
   12.6435    6.2611    0.0000 N   0  0  0  0  0  0  0  0  0  0  0  0
   13.1867   -0.7571    0.0000 C   0  0  0  0  0  0  0  0  0  0  0  0
   13.1815   -2.2571    0.0000 O   0  0  0  0  0  0  0  0  0  0  0  0
   11.8902   -0.0026    0.0000 N   0  0  0  0  0  0  0  0  0  0  0  0
   10.5886   -0.7481    0.0000 C   0  0  0  0  0  0  0  0  0  0  0  0
    9.6204   -1.8938    0.0000 C   0  0  0  0  0  0  0  0  0  0  0  0
    8.1228   -1.8101    0.0000 C   0  0  0  0  0  0  0  0  0  0  0  0
    9.1025   -3.3015    0.0000 C   0  0  0  0  0  0  0  0  0  0  0  0
   10.0627   -4.4539    0.0000 C   0  0  0  0  0  0  0  0  0  0  0  0
    9.2922    0.0064    0.0000 C   0  0  0  0  0  0  0  0  0  0  0  0
    9.4802    1.4946    0.0000 O   0  0  0  0  0  0  0  0  0  0  0  0
    7.9905   -0.7391    0.0000 N   0  0  0  0  0  0  0  0  0  0  0  0
    6.6941    0.0154    0.0000 C   0  0  0  0  0  0  0  0  0  0  0  0
    5.7339    1.1678    0.0000 C   0  0  0  0  0  0  0  0  0  0  0  0
    6.2518    2.5756    0.0000 C   0  0  0  0  0  0  0  0  0  0  0  0
    7.6952    2.9840    0.0000 C   0  0  0  0  0  0  0  0  0  0  0  0
    7.7527    4.4829    0.0000 N   0  0  0  0  0  0  0  0  0  0  0  0
    6.3449    5.0009    0.0000 C   0  0  0  0  0  0  0  0  0  0  0  0
    5.7879    6.3936    0.0000 C   0  0  0  0  0  0  0  0  0  0  0  0
    4.3032    6.6075    0.0000 C   0  0  0  0  0  0  0  0  0  0  0  0
    3.3756    5.4287    0.0000 C   0  0  0  0  0  0  0  0  0  0  0  0
    3.9327    4.0360    0.0000 C   0  0  0  0  0  0  0  0  0  0  0  0
    5.4174    3.8220    0.0000 C   0  0  0  0  0  0  0  0  0  0  0  0
    5.3925   -0.7301    0.0000 C   0  0  0  0  0  0  0  0  0  0  0  0
    5.3873   -2.2300    0.0000 O   0  0  0  0  0  0  0  0  0  0  0  0
    4.0961    0.0244    0.0000 N   0  0  0  0  0  0  0  0  0  0  0  0
    2.7944   -0.7210    0.0000 C   0  0  0  0  0  0  0  0  0  0  0  0
    1.8263   -1.8668    0.0000 C   0  0  0  0  0  0  0  0  0  0  0  0
    0.3500   -1.6012    0.0000 C   0  0  0  0  0  0  0  0  0  0  0  0
   -0.1582   -0.1899    0.0000 C   0  0  0  0  0  0  0  0  0  0  0  0
   -1.6345    0.0757    0.0000 C   0  0  0  0  0  0  0  0  0  0  0  0
   -2.6026   -1.0700    0.0000 C   0  0  0  0  0  0  0  0  0  0  0  0
   -2.0945   -2.4813    0.0000 C   0  0  0  0  0  0  0  0  0  0  0  0
   -0.6182   -2.7469    0.0000 C   0  0  0  0  0  0  0  0  0  0  0  0
    1.4980    0.0335    0.0000 C   0  0  0  0  0  0  0  0  0  0  0  0
    1.6860    1.5216    0.0000 O   0  0  0  0  0  0  0  0  0  0  0  0
    0.1964   -0.7120    0.0000 N   0  0  0  0  0  0  0  0  0  0  0  0
   -1.1001    0.0425    0.0000 C   0  0  0  0  0  0  0  0  0  0  0  0
   -2.0603    1.1949    0.0000 C   0  0  0  0  0  0  0  0  0  0  0  0
   -1.5423    2.6026    0.0000 C   0  0  0  0  0  0  0  0  0  0  0  0
   -2.5025    3.7550    0.0000 C   0  0  0  0  0  0  0  0  0  0  0  0
   -1.9846    5.1628    0.0000 N   0  0  0  0  0  0  0  0  0  0  0  0
   -3.9806    3.4997    0.0000 O   0  0  0  0  0  0  0  0  0  0  0  0
   -2.4017   -0.7030    0.0000 C   0  0  0  0  0  0  0  0  0  0  0  0
   -2.7697   -2.1572    0.0000 O   0  0  0  0  0  0  0  0  0  0  0  0
   -3.6981    0.0515    0.0000 N   0  0  0  0  0  0  0  0  0  0  0  0
   -4.9998   -0.6940    0.0000 C   0  0  0  0  0  0  0  0  0  0  0  0
   -5.9679   -1.8397    0.0000 C   0  0  0  0  0  0  0  0  0  0  0  0
   -7.4442   -1.5741    0.0000 C   0  0  0  0  0  0  0  0  0  0  0  0
   -8.4124   -2.7199    0.0000 N   0  0  0  0  0  0  0  0  0  0  0  0
   -8.2788   -0.3277    0.0000 O   0  0  0  0  0  0  0  0  0  0  0  0
   -6.2962    0.0605    0.0000 C   0  0  0  0  0  0  0  0  0  0  0  0
   -6.2910    1.5605    0.0000 O   0  0  0  0  0  0  0  0  0  0  0  0
   -7.5978   -0.6850    0.0000 N   0  0  0  0  0  0  0  0  0  0  0  0
   -8.8943    0.0695    0.0000 C   0  0  0  0  0  0  0  0  0  0  0  0
   -9.8544    1.2219    0.0000 C   0  0  0  0  0  0  0  0  0  0  0  0
  -11.3325    0.9665    0.0000 C   0  0  0  0  0  0  0  0  0  0  0  0
  -12.2927    2.1190    0.0000 C   0  0  0  0  0  0  0  0  0  0  0  0
  -13.7708    1.8636    0.0000 N   0  0  0  0  0  0  0  0  0  0  0  0
  -14.7310    3.0160    0.0000 C   0  0  0  0  0  0  0  0  0  0  0  0
  -16.1670    2.5824    0.0000 N   0  0  0  0  0  0  0  0  0  0  0  0
  -14.2131    4.4238    0.0000 N   0  0  0  0  0  0  0  0  0  0  0  0
  -10.1959   -0.6760    0.0000 C   0  0  0  0  0  0  0  0  0  0  0  0
  -10.3839   -2.1642    0.0000 O   0  0  0  0  0  0  0  0  0  0  0  0
  -11.4923    0.0785    0.0000 N   0  0  0  0  0  0  0  0  0  0  0  0
  -12.7939   -0.6670    0.0000 C   0  0  0  0  0  0  0  0  0  0  0  0
  -13.7621   -1.8127    0.0000 C   0  0  0  0  0  0  0  0  0  0  0  0
  -15.2384   -1.5471    0.0000 C   0  0  0  0  0  0  0  0  0  0  0  0
  -16.2066   -2.6928    0.0000 C   0  0  0  0  0  0  0  0  0  0  0  0
  -17.6829   -2.4272    0.0000 N   0  0  0  0  0  0  0  0  0  0  0  0
  -18.6510   -3.5730    0.0000 C   0  0  0  0  0  0  0  0  0  0  0  0
  -20.0839   -3.1294    0.0000 N   0  0  0  0  0  0  0  0  0  0  0  0
  -18.1429   -4.9843    0.0000 N   0  0  0  0  0  0  0  0  0  0  0  0
  -14.0904    0.0875    0.0000 C   0  0  0  0  0  0  0  0  0  0  0  0
  -14.4483    1.5442    0.0000 O   0  0  0  0  0  0  0  0  0  0  0  0
  -15.3920   -0.6580    0.0000 N   0  0  0  0  0  0  0  0  0  0  0  0
  -16.6884    0.0965    0.0000 C   0  0  0  0  0  0  0  0  0  0  0  0
  -17.6486    1.2489    0.0000 C   0  0  0  0  0  0  0  0  0  0  0  0
  -19.1267    0.9936    0.0000 C   0  0  0  0  0  0  0  0  0  0  0  0
  -20.0869    2.1460    0.0000 S   0  0  0  0  0  0  0  0  0  0  0  0
  -21.5851    2.0727    0.0000 C   0  0  0  0  0  0  0  0  0  0  0  0
  -17.9901   -0.6490    0.0000 C   0  0  0  0  0  0  0  0  0  0  0  0
  -18.3581   -2.1031    0.0000 O   0  0  0  0  0  0  0  0  0  0  0  0
  -19.2865    0.1055    0.0000 N   0  0  0  0  0  0  0  0  0  0  0  0
  -20.5881   -0.6400    0.0000 C   0  0  0  0  0  0  0  0  0  0  0  0
  -21.5563   -1.7857    0.0000 C   0  0  0  0  0  0  0  0  0  0  0  0
  -23.0326   -1.5201    0.0000 C   0  0  0  0  0  0  0  0  0  0  0  0
  -24.0007   -2.6658    0.0000 C   0  0  0  0  0  0  0  0  0  0  0  0
  -25.4770   -2.4002    0.0000 C   0  0  0  0  0  0  0  0  0  0  0  0
  -26.4452   -3.5459    0.0000 N   0  0  0  0  0  0  0  0  0  0  0  0
  -21.8846    0.1145    0.0000 C   0  0  0  0  0  0  0  0  0  0  0  0
  -22.0622    1.6040    0.0000 O   0  0  0  0  0  0  0  0  0  0  0  0
  -23.1862   -0.6310    0.0000 N   0  0  0  0  0  0  0  0  0  0  0  0
  -24.4826    0.1235    0.0000 C   0  0  0  0  0  0  0  0  0  0  0  0
  -25.4428    1.2760    0.0000 C   0  0  0  0  0  0  0  0  0  0  0  0
  -26.9209    1.0206    0.0000 C   0  0  0  0  0  0  0  0  0  0  0  0
  -27.5831   -0.3253    0.0000 C   0  0  0  0  0  0  0  0  0  0  0  0
  -29.0678   -0.1114    0.0000 N   0  0  0  0  0  0  0  0  0  0  0  0
  -29.3232    1.3667    0.0000 C   0  0  0  0  0  0  0  0  0  0  0  0
  -30.5925    2.1660    0.0000 C   0  0  0  0  0  0  0  0  0  0  0  0
  -30.5349    3.6649    0.0000 C   0  0  0  0  0  0  0  0  0  0  0  0
  -29.2081    4.3645    0.0000 C   0  0  0  0  0  0  0  0  0  0  0  0
  -27.9388    3.5652    0.0000 C   0  0  0  0  0  0  0  0  0  0  0  0
  -27.9963    2.0663    0.0000 C   0  0  0  0  0  0  0  0  0  0  0  0
  -25.7842   -0.6219    0.0000 C   0  0  0  0  0  0  0  0  0  0  0  0
  -26.1523   -2.0761    0.0000 O   0  0  0  0  0  0  0  0  0  0  0  0
  -27.0807    0.1326    0.0000 N   0  0  0  0  0  0  0  0  0  0  0  0
  -28.3823   -0.6129    0.0000 C   0  0  0  0  0  0  0  0  0  0  0  0
  -29.3505   -1.7586    0.0000 C   0  0  0  0  0  0  0  0  0  0  0  0
  -30.8268   -1.4931    0.0000 C   0  0  0  0  0  0  0  0  0  0  0  0
  -31.7949   -2.6388    0.0000 C   0  0  0  0  0  0  0  0  0  0  0  0
  -33.2712   -2.3732    0.0000 C   0  0  0  0  0  0  0  0  0  0  0  0
  -34.2394   -3.5189    0.0000 N   0  0  0  0  0  0  0  0  0  0  0  0
  -29.6787    0.1416    0.0000 C   0  0  0  0  0  0  0  0  0  0  0  0
  -30.0366    1.5982    0.0000 O   0  0  0  0  0  0  0  0  0  0  0  0
  -30.9804   -0.6039    0.0000 N   0  0  0  0  0  0  0  0  0  0  0  0
  -32.2768    0.1506    0.0000 C   0  0  0  0  0  0  0  0  0  0  0  0
  -33.2370    1.3030    0.0000 C   0  0  0  0  0  0  0  0  0  0  0  0
  -34.7151    1.0476    0.0000 C   0  0  0  0  0  0  0  0  0  0  0  0
  -35.6753    2.2000    0.0000 C   0  0  0  0  0  0  0  0  0  0  0  0
  -37.1534    1.9447    0.0000 C   0  0  0  0  0  0  0  0  0  0  0  0
  -38.1136    3.0971    0.0000 N   0  0  0  0  0  0  0  0  0  0  0  0
  -33.5784   -0.5949    0.0000 C   0  0  0  0  0  0  0  0  0  0  0  0
  -34.9572   -0.0041    0.0000 O   0  0  0  0  0  0  0  0  0  0  0  0
  -33.9464   -2.0491    0.0000 O   0  0  0  0  0  0  0  0  0  0  0  0
   35.0951    1.4058    0.0000 H   0  0  0  0  0  0  0  0  0  0  0  0
   35.2624   -3.0836    0.0000 H   0  0  0  0  0  0  0  0  0  0  0  0
   37.8552   -4.5926    0.0000 H   0  0  0  0  0  0  0  0  0  0  0  0
   37.5129    1.3640    0.0000 H   0  0  0  0  0  0  0  0  0  0  0  0
   44.4690    3.0749    0.0000 H   0  0  0  0  0  0  0  0  0  0  0  0
   45.5317   -2.0114    0.0000 H   0  0  0  0  0  0  0  0  0  0  0  0
   42.5951   -2.6250    0.0000 H   0  0  0  0  0  0  0  0  0  0  0  0
   47.4685   -0.2797    0.0000 H   0  0  0  0  0  0  0  0  0  0  0  0
   37.6589   -1.0022    0.0000 H   0  0  0  0  0  0  0  0  0  0  0  0
   35.6328    1.4155    0.0000 H   0  0  0  0  0  0  0  0  0  0  0  0
   39.5327    4.6977    0.0000 H   0  0  0  0  0  0  0  0  0  0  0  0
   37.0646    5.5091    0.0000 H   0  0  0  0  0  0  0  0  0  0  0  0
   32.6799    1.4253    0.0000 H   0  0  0  0  0  0  0  0  0  0  0  0
   30.4049   -1.9659    0.0000 H   0  0  0  0  0  0  0  0  0  0  0  0
   32.3333   -1.9725    0.0000 H   0  0  0  0  0  0  0  0  0  0  0  0
   29.1165    1.0868    0.0000 H   0  0  0  0  0  0  0  0  0  0  0  0
   31.0448    1.0801    0.0000 H   0  0  0  0  0  0  0  0  0  0  0  0
   27.4838    1.4434    0.0000 H   0  0  0  0  0  0  0  0  0  0  0  0
   27.1372   -1.9545    0.0000 H   0  0  0  0  0  0  0  0  0  0  0  0
   24.8664   -3.4082    0.0000 H   0  0  0  0  0  0  0  0  0  0  0  0
   26.5052   -2.7023    0.0000 H   0  0  0  0  0  0  0  0  0  0  0  0
   22.4361   -0.9278    0.0000 H   0  0  0  0  0  0  0  0  0  0  0  0
   23.5287   -0.1962    0.0000 H   0  0  0  0  0  0  0  0  0  0  0  0
   22.2464   -4.2357    0.0000 H   0  0  0  0  0  0  0  0  0  0  0  0
   23.9591   -3.7349    0.0000 H   0  0  0  0  0  0  0  0  0  0  0  0
   20.4535   -1.3160    0.0000 H   0  0  0  0  0  0  0  0  0  0  0  0
   17.8754   -4.5882    0.0000 H   0  0  0  0  0  0  0  0  0  0  0  0
   18.4899   -1.9732    0.0000 H   0  0  0  0  0  0  0  0  0  0  0  0
   19.8599   -6.2651    0.0000 H   0  0  0  0  0  0  0  0  0  0  0  0
   22.3043   -5.3850    0.0000 H   0  0  0  0  0  0  0  0  0  0  0  0
   23.2109   -2.2473    0.0000 H   0  0  0  0  0  0  0  0  0  0  0  0
   23.3831    0.9805    0.0000 H   0  0  0  0  0  0  0  0  0  0  0  0
   20.1275    2.0207    0.0000 H   0  0  0  0  0  0  0  0  0  0  0  0
   20.1057    0.2364    0.0000 H   0  0  0  0  0  0  0  0  0  0  0  0
   22.8084    3.6673    0.0000 H   0  0  0  0  0  0  0  0  0  0  0  0
   23.2189    1.9307    0.0000 H   0  0  0  0  0  0  0  0  0  0  0  0
   20.4377    6.2341    0.0000 H   0  0  0  0  0  0  0  0  0  0  0  0
   22.8760    5.3370    0.0000 H   0  0  0  0  0  0  0  0  0  0  0  0
   19.5067    1.4598    0.0000 H   0  0  0  0  0  0  0  0  0  0  0  0
   19.3430   -1.9275    0.0000 H   0  0  0  0  0  0  0  0  0  0  0  0
   18.8551   -2.3392    0.0000 H   0  0  0  0  0  0  0  0  0  0  0  0
   14.8164   -2.6678    0.0000 H   0  0  0  0  0  0  0  0  0  0  0  0
   14.6419   -0.9007    0.0000 H   0  0  0  0  0  0  0  0  0  0  0  0
   15.7346   -0.1691    0.0000 H   0  0  0  0  0  0  0  0  0  0  0  0
   16.8915   -4.8286    0.0000 H   0  0  0  0  0  0  0  0  0  0  0  0
   18.3296   -3.7721    0.0000 H   0  0  0  0  0  0  0  0  0  0  0  0
   14.9007   -4.9917    0.0000 H   0  0  0  0  0  0  0  0  0  0  0  0
   13.9423   -3.3183    0.0000 H   0  0  0  0  0  0  0  0  0  0  0  0
   15.2409   -2.0945    0.0000 H   0  0  0  0  0  0  0  0  0  0  0  0
   15.7795   -2.2661    0.0000 H   0  0  0  0  0  0  0  0  0  0  0  0
   15.5889    1.0076    0.0000 H   0  0  0  0  0  0  0  0  0  0  0  0
   12.2317    1.8953    0.0000 H   0  0  0  0  0  0  0  0  0  0  0  0
   12.3115    0.2634    0.0000 H   0  0  0  0  0  0  0  0  0  0  0  0
   15.1466    3.5677    0.0000 H   0  0  0  0  0  0  0  0  0  0  0  0
   15.4247    1.9577    0.0000 H   0  0  0  0  0  0  0  0  0  0  0  0
   11.7071    4.2918    0.0000 H   0  0  0  0  0  0  0  0  0  0  0  0
   11.9852    2.6818    0.0000 H   0  0  0  0  0  0  0  0  0  0  0  0
   14.5719    6.2544    0.0000 H   0  0  0  0  0  0  0  0  0  0  0  0
   14.9825    4.5179    0.0000 H   0  0  0  0  0  0  0  0  0  0  0  0
   13.1615    7.6689    0.0000 H   0  0  0  0  0  0  0  0  0  0  0  0
   11.3471    7.0156    0.0000 H   0  0  0  0  0  0  0  0  0  0  0  0
   11.5430    5.2420    0.0000 H   0  0  0  0  0  0  0  0  0  0  0  0
   11.7126    1.4869    0.0000 H   0  0  0  0  0  0  0  0  0  0  0  0
   11.5488   -1.9005    0.0000 H   0  0  0  0  0  0  0  0  0  0  0  0
   10.9992   -2.4846    0.0000 H   0  0  0  0  0  0  0  0  0  0  0  0
    7.0435   -2.6474    0.0000 H   0  0  0  0  0  0  0  0  0  0  0  0
    6.8477   -0.8737    0.0000 H   0  0  0  0  0  0  0  0  0  0  0  0
    7.9404   -0.1421    0.0000 H   0  0  0  0  0  0  0  0  0  0  0  0
    8.1344   -4.4473    0.0000 H   0  0  0  0  0  0  0  0  0  0  0  0
    7.6621   -2.8832    0.0000 H   0  0  0  0  0  0  0  0  0  0  0  0
    9.5448   -5.8617    0.0000 H   0  0  0  0  0  0  0  0  0  0  0  0
   11.3591   -5.2084    0.0000 H   0  0  0  0  0  0  0  0  0  0  0  0
   11.1633   -3.4348    0.0000 H   0  0  0  0  0  0  0  0  0  0  0  0
    7.6225   -2.1932    0.0000 H   0  0  0  0  0  0  0  0  0  0  0  0
    7.6623    1.1612    0.0000 H   0  0  0  0  0  0  0  0  0  0  0  0
    4.5391    2.0747    0.0000 H   0  0  0  0  0  0  0  0  0  0  0  0
    4.5173    0.2904    0.0000 H   0  0  0  0  0  0  0  0  0  0  0  0
    8.9782    2.2071    0.0000 H   0  0  0  0  0  0  0  0  0  0  0  0
    8.9992    5.3174    0.0000 H   0  0  0  0  0  0  0  0  0  0  0  0
    6.7155    7.5724    0.0000 H   0  0  0  0  0  0  0  0  0  0  0  0
    3.7461    8.0002    0.0000 H   0  0  0  0  0  0  0  0  0  0  0  0
    1.8909    5.6426    0.0000 H   0  0  0  0  0  0  0  0  0  0  0  0
    3.0051    2.8572    0.0000 H   0  0  0  0  0  0  0  0  0  0  0  0
    3.9184    1.5139    0.0000 H   0  0  0  0  0  0  0  0  0  0  0  0
    3.7546   -1.8734    0.0000 H   0  0  0  0  0  0  0  0  0  0  0  0
    1.3083   -3.2745    0.0000 H   0  0  0  0  0  0  0  0  0  0  0  0
    3.1227   -2.6213    0.0000 H   0  0  0  0  0  0  0  0  0  0  0  0
    0.6631    1.0653    0.0000 H   0  0  0  0  0  0  0  0  0  0  0  0
   -2.4690    1.3221    0.0000 H   0  0  0  0  0  0  0  0  0  0  0  0
   -4.0789   -0.8044    0.0000 H   0  0  0  0  0  0  0  0  0  0  0  0
   -3.0627   -3.6270    0.0000 H   0  0  0  0  0  0  0  0  0  0  0  0
   -0.1101   -4.1582    0.0000 H   0  0  0  0  0  0  0  0  0  0  0  0
   -0.1716   -2.1662    0.0000 H   0  0  0  0  0  0  0  0  0  0  0  0
    0.0005    1.0616    0.0000 H   0  0  0  0  0  0  0  0  0  0  0  0
   -3.2551    2.1018    0.0000 H   0  0  0  0  0  0  0  0  0  0  0  0
   -3.2769    0.3175    0.0000 H   0  0  0  0  0  0  0  0  0  0  0  0
   -0.5742    3.7483    0.0000 H   0  0  0  0  0  0  0  0  0  0  0  0
   -0.1636    2.0118    0.0000 H   0  0  0  0  0  0  0  0  0  0  0  0
   -2.9448    6.3152    0.0000 H   0  0  0  0  0  0  0  0  0  0  0  0
   -0.5065    5.4181    0.0000 H   0  0  0  0  0  0  0  0  0  0  0  0
   -3.8758    1.5409    0.0000 H   0  0  0  0  0  0  0  0  0  0  0  0
   -4.0396   -1.8464    0.0000 H   0  0  0  0  0  0  0  0  0  0  0  0
   -6.4858   -3.2475    0.0000 H   0  0  0  0  0  0  0  0  0  0  0  0
   -4.6715   -2.5942    0.0000 H   0  0  0  0  0  0  0  0  0  0  0  0
   -9.9100   -2.6362    0.0000 H   0  0  0  0  0  0  0  0  0  0  0  0
   -7.9042   -4.1312    0.0000 H   0  0  0  0  0  0  0  0  0  0  0  0
   -7.9658   -2.1392    0.0000 H   0  0  0  0  0  0  0  0  0  0  0  0
   -7.9261    1.2152    0.0000 H   0  0  0  0  0  0  0  0  0  0  0  0
  -10.1868    2.6846    0.0000 H   0  0  0  0  0  0  0  0  0  0  0  0
   -8.5528    1.9674    0.0000 H   0  0  0  0  0  0  0  0  0  0  0  0
  -12.6342    0.2211    0.0000 H   0  0  0  0  0  0  0  0  0  0  0  0
  -11.5466   -0.5181    0.0000 H   0  0  0  0  0  0  0  0  0  0  0  0
  -12.8009    3.5303    0.0000 H   0  0  0  0  0  0  0  0  0  0  0  0
  -11.0917    3.0175    0.0000 H   0  0  0  0  0  0  0  0  0  0  0  0
  -14.7589    0.7350    0.0000 H   0  0  0  0  0  0  0  0  0  0  0  0
  -17.1693    3.9131    0.0000 H   0  0  0  0  0  0  0  0  0  0  0  0
  -16.5730    1.2938    0.0000 H   0  0  0  0  0  0  0  0  0  0  0  0
  -15.1733    5.5762    0.0000 H   0  0  0  0  0  0  0  0  0  0  0  0
  -12.7350    4.6791    0.0000 H   0  0  0  0  0  0  0  0  0  0  0  0
  -11.8502    1.5352    0.0000 H   0  0  0  0  0  0  0  0  0  0  0  0
  -11.8338   -1.8194    0.0000 H   0  0  0  0  0  0  0  0  0  0  0  0
  -14.1046   -3.2731    0.0000 H   0  0  0  0  0  0  0  0  0  0  0  0
  -12.4657   -2.5672    0.0000 H   0  0  0  0  0  0  0  0  0  0  0  0
  -16.5348   -0.7926    0.0000 H   0  0  0  0  0  0  0  0  0  0  0  0
  -15.6218   -0.0969    0.0000 H   0  0  0  0  0  0  0  0  0  0  0  0
  -16.7245   -4.1006    0.0000 H   0  0  0  0  0  0  0  0  0  0  0  0
  -15.0118   -3.5997    0.0000 H   0  0  0  0  0  0  0  0  0  0  0  0
  -18.6631   -1.2918    0.0000 H   0  0  0  0  0  0  0  0  0  0  0  0
  -21.0955   -4.4531    0.0000 H   0  0  0  0  0  0  0  0  0  0  0  0
  -20.4810   -1.8380    0.0000 H   0  0  0  0  0  0  0  0  0  0  0  0
  -19.1110   -6.1300    0.0000 H   0  0  0  0  0  0  0  0  0  0  0  0
  -16.6666   -5.2499    0.0000 H   0  0  0  0  0  0  0  0  0  0  0  0
  -15.7600   -2.1121    0.0000 H   0  0  0  0  0  0  0  0  0  0  0  0
  -15.7203    1.2422    0.0000 H   0  0  0  0  0  0  0  0  0  0  0  0
  -18.1568    2.6602    0.0000 H   0  0  0  0  0  0  0  0  0  0  0  0
  -16.2053    1.6573    0.0000 H   0  0  0  0  0  0  0  0  0  0  0  0
  -20.3278    0.0950    0.0000 H   0  0  0  0  0  0  0  0  0  0  0  0
  -19.5202   -0.4539    0.0000 H   0  0  0  0  0  0  0  0  0  0  0  0
  -22.5252    3.0430    0.0000 H   0  0  0  0  0  0  0  0  0  0  0  0
  -22.9702    1.3083    0.0000 H   0  0  0  0  0  0  0  0  0  0  0  0
  -21.2551    0.4268    0.0000 H   0  0  0  0  0  0  0  0  0  0  0  0
  -19.6444    1.5622    0.0000 H   0  0  0  0  0  0  0  0  0  0  0  0
  -19.6279   -1.7924    0.0000 H   0  0  0  0  0  0  0  0  0  0  0  0
  -21.8987   -3.2461    0.0000 H   0  0  0  0  0  0  0  0  0  0  0  0
  -20.1158   -2.2041    0.0000 H   0  0  0  0  0  0  0  0  0  0  0  0
  -24.2274   -0.6132    0.0000 H   0  0  0  0  0  0  0  0  0  0  0  0
  -23.2364   -0.0340    0.0000 H   0  0  0  0  0  0  0  0  0  0  0  0
  -24.3432   -4.1262    0.0000 H   0  0  0  0  0  0  0  0  0  0  0  0
  -22.8060   -3.5727    0.0000 H   0  0  0  0  0  0  0  0  0  0  0  0
  -26.9175   -1.9818    0.0000 H   0  0  0  0  0  0  0  0  0  0  0  0
  -25.1346   -0.9398    0.0000 H   0  0  0  0  0  0  0  0  0  0  0  0
  -27.8781   -3.1024    0.0000 H   0  0  0  0  0  0  0  0  0  0  0  0
  -26.9631   -4.9537    0.0000 H   0  0  0  0  0  0  0  0  0  0  0  0
  -25.2504   -4.4528    0.0000 H   0  0  0  0  0  0  0  0  0  0  0  0
  -23.5542   -2.0851    0.0000 H   0  0  0  0  0  0  0  0  0  0  0  0
  -23.6613    1.3787    0.0000 H   0  0  0  0  0  0  0  0  0  0  0  0
  -25.9509    2.6873    0.0000 H   0  0  0  0  0  0  0  0  0  0  0  0
  -24.1412    2.0214    0.0000 H   0  0  0  0  0  0  0  0  0  0  0  0
  -26.8835   -1.6522    0.0000 H   0  0  0  0  0  0  0  0  0  0  0  0
  -30.3427   -0.9018    0.0000 H   0  0  0  0  0  0  0  0  0  0  0  0
  -31.9193    1.4664    0.0000 H   0  0  0  0  0  0  0  0  0  0  0  0
  -31.8042    4.4642    0.0000 H   0  0  0  0  0  0  0  0  0  0  0  0
  -29.1505    5.8634    0.0000 H   0  0  0  0  0  0  0  0  0  0  0  0
  -26.6119    4.2648    0.0000 H   0  0  0  0  0  0  0  0  0  0  0  0
  -27.4386    1.5892    0.0000 H   0  0  0  0  0  0  0  0  0  0  0  0
  -27.7295   -1.9634    0.0000 H   0  0  0  0  0  0  0  0  0  0  0  0
  -29.6929   -3.2190    0.0000 H   0  0  0  0  0  0  0  0  0  0  0  0
  -27.9717   -2.3495    0.0000 H   0  0  0  0  0  0  0  0  0  0  0  0
  -32.0216   -0.5862    0.0000 H   0  0  0  0  0  0  0  0  0  0  0  0
  -31.0305   -0.0070    0.0000 H   0  0  0  0  0  0  0  0  0  0  0  0
  -32.1374   -4.0992    0.0000 H   0  0  0  0  0  0  0  0  0  0  0  0
  -30.6001   -3.5457    0.0000 H   0  0  0  0  0  0  0  0  0  0  0  0
  -34.5677   -1.6187    0.0000 H   0  0  0  0  0  0  0  0  0  0  0  0
  -32.9288   -0.9128    0.0000 H   0  0  0  0  0  0  0  0  0  0  0  0
  -35.7157   -3.2533    0.0000 H   0  0  0  0  0  0  0  0  0  0  0  0
  -34.7573   -4.9266    0.0000 H   0  0  0  0  0  0  0  0  0  0  0  0
  -33.0446   -4.4258    0.0000 H   0  0  0  0  0  0  0  0  0  0  0  0
  -31.3484   -2.0581    0.0000 H   0  0  0  0  0  0  0  0  0  0  0  0
  -31.1762    1.1697    0.0000 H   0  0  0  0  0  0  0  0  0  0  0  0
  -33.5693    2.7657    0.0000 H   0  0  0  0  0  0  0  0  0  0  0  0
  -32.0359    2.2016    0.0000 H   0  0  0  0  0  0  0  0  0  0  0  0
  -35.9161    0.1490    0.0000 H   0  0  0  0  0  0  0  0  0  0  0  0
  -34.7466   -0.4520    0.0000 H   0  0  0  0  0  0  0  0  0  0  0  0
  -36.0076    3.6628    0.0000 H   0  0  0  0  0  0  0  0  0  0  0  0
  -34.4742    3.0986    0.0000 H   0  0  0  0  0  0  0  0  0  0  0  0
  -38.4550    1.1992    0.0000 H   0  0  0  0  0  0  0  0  0  0  0  0
  -36.8211    0.4820    0.0000 H   0  0  0  0  0  0  0  0  0  0  0  0
  -39.5917    2.8417    0.0000 H   0  0  0  0  0  0  0  0  0  0  0  0
  -38.6217    4.5084    0.0000 H   0  0  0  0  0  0  0  0  0  0  0  0
  -36.9125    3.9957    0.0000 H   0  0  0  0  0  0  0  0  0  0  0  0
  1  2  1  0
  2  3  1  0
  3  4  2  0
  4  5  1  0
  5  6  2  0
  6  7  1  0
  7  8  2  0
  7  9  1  0
  9 10  1  0
 10 11  1  0
 11 12  2  0
  9 13  1  0
 13 14  1  0
 14 15  2  0
 15 16  1  0
 16 17  2  0
 17 18  1  0
 16 19  1  0
 14 20  1  0
 20 21  1  0
 21 22  2  0
 22 23  1  0
 23 24  2  0
 24 25  1  0
 25 26  2  0
 25 27  1  0
  1 28  2  0
  1 29  1  0
 29 30  1  0
 30 31  1  0
 31 32  1  0
 32 33  2  0
 32 34  1  0
 34 35  1  0
 35 36  1  0
 36 37  1  0
 37 38  1  0
 38 39  1  0
 39 40  1  0
 40 41  2  3
 40 42  1  0
 35 43  1  0
 43 44  2  0
 43 45  1  0
 45 46  1  0
 46 47  1  0
 47 48  1  0
 48 49  1  0
 49 50  1  0
 49 51  2  0
 46 52  1  0
 52 53  2  0
 52 54  1  0
 54 55  1  0
 55 56  1  0
 56 57  1  0
 56 58  1  0
 58 59  1  0
 55 60  1  0
 60 61  2  0
 60 62  1  0
 62 63  1  0
 63 64  1  0
 64 65  1  0
 65 66  1  0
 66 67  1  0
 67 68  1  0
 63 69  1  0
 69 70  2  0
 69 71  1  0
 71 72  1  0
 72 73  1  0
 73 74  1  0
 73 75  1  0
 75 76  1  0
 72 77  1  0
 77 78  2  0
 77 79  1  0
 79 80  1  0
 80 81  1  0
 81 82  1  0
 82 83  2  0
 83 84  1  0
 84 85  1  0
 85 86  2  0
 86 87  1  0
 87 88  2  0
 88 89  1  0
 89 90  2  0
 80 91  1  0
 91 92  2  0
 91 93  1  0
 93 94  1  0
 94 95  1  0
 95 96  1  0
 96 97  2  0
 97 98  1  0
 98 99  2  0
 99100  1  0
100101  2  0
 94102  1  0
102103  2  0
102104  1  0
104105  1  0
105106  1  0
106107  1  0
107108  1  0
108109  1  0
108110  2  0
105111  1  0
111112  2  0
111113  1  0
113114  1  0
114115  1  0
115116  1  0
116117  1  0
116118  2  0
114119  1  0
119120  2  0
119121  1  0
121122  1  0
122123  1  0
123124  1  0
124125  1  0
125126  1  0
126127  1  0
127128  2  3
127129  1  0
122130  1  0
130131  2  0
130132  1  0
132133  1  0
133134  1  0
134135  1  0
135136  1  0
136137  1  0
137138  1  0
138139  2  3
138140  1  0
133141  1  0
141142  2  0
141143  1  0
143144  1  0
144145  1  0
145146  1  0
146147  1  0
147148  1  0
144149  1  0
149150  2  0
149151  1  0
151152  1  0
152153  1  0
153154  1  0
154155  1  0
155156  1  0
156157  1  0
152158  1  0
158159  2  0
158160  1  0
160161  1  0
161162  1  0
162163  1  0
163164  2  0
164165  1  0
165166  1  0
166167  2  0
167168  1  0
168169  2  0
169170  1  0
170171  2  0
161172  1  0
172173  2  0
172174  1  0
174175  1  0
175176  1  0
176177  1  0
177178  1  0
178179  1  0
179180  1  0
175181  1  0
181182  2  0
181183  1  0
183184  1  0
184185  1  0
185186  1  0
186187  1  0
187188  1  0
188189  1  0
184190  1  0
190191  2  0
190192  1  0
  8  3  1  0
 90 82  1  0
101 96  1  0
171163  1  0
 11  6  1  0
 90 85  1  0
171166  1  0
 18 13  2  0
 22  9  1  0
 26 21  1  0
  2193  1  0
  4194  1  0
  5195  1  0
  8196  1  0
 15197  1  0
 17198  1  0
 18199  1  0
 19200  1  0
 23201  1  0
 24202  1  0
 26203  1  0
 27204  1  0
 29205  1  0
 30206  1  0
 30207  1  0
 31208  1  0
 31209  1  0
 34210  1  0
 35211  1  1
 36212  1  0
 36213  1  0
 37214  1  0
 37215  1  0
 38216  1  0
 38217  1  0
 39218  1  0
 41219  1  0
 41220  1  0
 42221  1  0
 42222  1  0
 45223  1  0
 46224  1  6
 47225  1  0
 47226  1  0
 48227  1  0
 48228  1  0
 50229  1  0
 50230  1  0
 54231  1  0
 55232  1  1
 56233  1  1
 57234  1  0
 57235  1  0
 57236  1  0
 58237  1  0
 58238  1  0
 59239  1  0
 59240  1  0
 59241  1  0
 62242  1  0
 63243  1  6
 64244  1  0
 64245  1  0
 65246  1  0
 65247  1  0
 66248  1  0
 66249  1  0
 67250  1  0
 67251  1  0
 68252  1  0
 68253  1  0
 68254  1  0
 71255  1  0
 72256  1  1
 73257  1  1
 74258  1  0
 74259  1  0
 74260  1  0
 75261  1  0
 75262  1  0
 76263  1  0
 76264  1  0
 76265  1  0
 79266  1  0
 80267  1  6
 81268  1  0
 81269  1  0
 83270  1  0
 84271  1  0
 86272  1  0
 87273  1  0
 88274  1  0
 89275  1  0
 93276  1  0
 94277  1  1
 95278  1  0
 95279  1  0
 97280  1  0
 98281  1  0
 99282  1  0
100283  1  0
101284  1  0
104285  1  0
105286  1  6
106287  1  0
106288  1  0
107289  1  0
107290  1  0
109291  1  0
109292  1  0
113293  1  0
114294  1  1
115295  1  0
115296  1  0
117297  1  0
117298  1  0
121299  1  0
122300  1  6
123301  1  0
123302  1  0
124303  1  0
124304  1  0
125305  1  0
125306  1  0
126307  1  0
128308  1  0
128309  1  0
129310  1  0
129311  1  0
132312  1  0
133313  1  1
134314  1  0
134315  1  0
135316  1  0
135317  1  0
136318  1  0
136319  1  0
137320  1  0
139321  1  0
139322  1  0
140323  1  0
140324  1  0
143325  1  0
144326  1  6
145327  1  0
145328  1  0
146329  1  0
146330  1  0
148331  1  0
148332  1  0
148333  1  0
151334  1  0
152335  1  1
153336  1  0
153337  1  0
154338  1  0
154339  1  0
155340  1  0
155341  1  0
156342  1  0
156343  1  0
157344  1  0
157345  1  0
157346  1  0
160347  1  0
161348  1  6
162349  1  0
162350  1  0
164351  1  0
165352  1  0
167353  1  0
168354  1  0
169355  1  0
170356  1  0
174357  1  0
175358  1  1
176359  1  0
176360  1  0
177361  1  0
177362  1  0
178363  1  0
178364  1  0
179365  1  0
179366  1  0
180367  1  0
180368  1  0
180369  1  0
183370  1  0
184371  1  6
185372  1  0
185373  1  0
186374  1  0
186375  1  0
187376  1  0
187377  1  0
188378  1  0
188379  1  0
189380  1  0
189381  1  0
189382  1  0
M  CHG  8  41   1  68   1 128   1 139   1 157   1 180   1 189   1 192  -1
M  END
