
     RDKit          2D

257258  0  0  0  0  0  0  0  0999 V2000
   25.8722   -7.8371    0.0000 N   0  0  0  0  0  0  0  0  0  0  0  0
   24.6885   -6.9157    0.0000 C   0  0  0  0  0  0  0  0  0  0  0  0
   24.8946   -5.4299    0.0000 C   0  0  0  0  0  0  0  0  0  0  0  0
   23.7109   -4.5086    0.0000 C   0  0  0  0  0  0  0  0  0  0  0  0
   22.3211   -5.0730    0.0000 O   0  0  0  0  0  0  0  0  0  0  0  0
   23.9170   -3.0228    0.0000 N   0  0  0  0  0  0  0  0  0  0  0  0
   22.7333   -2.1014    0.0000 C   0  0  0  0  0  0  0  0  0  0  0  0
   23.8462   -1.0957    0.0000 C   0  0  0  0  0  0  0  0  0  0  0  0
   25.2359   -0.5313    0.0000 O   0  0  0  0  0  0  0  0  0  0  0  0
   23.5317    0.3709    0.0000 C   0  0  0  0  0  0  0  0  0  0  0  0
   21.3059   -1.6405    0.0000 C   0  0  0  0  0  0  0  0  0  0  0  0
   21.1858   -0.2958    0.0000 O   0  0  0  0  0  0  0  0  0  0  0  0
   20.1930   -2.6462    0.0000 N   0  0  0  0  0  0  0  0  0  0  0  0
   18.7655   -2.1853    0.0000 C   0  0  0  0  0  0  0  0  0  0  0  0
   19.4674   -0.8596    0.0000 C   0  0  0  0  0  0  0  0  0  0  0  0
   18.6702    0.4111    0.0000 C   0  0  0  0  0  0  0  0  0  0  0  0
   19.3720    1.7368    0.0000 C   0  0  0  0  0  0  0  0  0  0  0  0
   18.5748    3.0074    0.0000 C   0  0  0  0  0  0  0  0  0  0  0  0
   17.0758    2.9523    0.0000 C   0  0  0  0  0  0  0  0  0  0  0  0
   16.2786    4.2230    0.0000 O   0  0  0  0  0  0  0  0  0  0  0  0
   16.3740    1.6266    0.0000 C   0  0  0  0  0  0  0  0  0  0  0  0
   17.1712    0.3560    0.0000 C   0  0  0  0  0  0  0  0  0  0  0  0
   17.2666   -2.2403    0.0000 C   0  0  0  0  0  0  0  0  0  0  0  0
   16.5768   -1.3918    0.0000 O   0  0  0  0  0  0  0  0  0  0  0  0
   16.5647   -3.5660    0.0000 N   0  0  0  0  0  0  0  0  0  0  0  0
   15.0658   -3.6211    0.0000 C   0  0  0  0  0  0  0  0  0  0  0  0
   15.3803   -5.0877    0.0000 C   0  0  0  0  0  0  0  0  0  0  0  0
   16.8077   -5.5487    0.0000 C   0  0  0  0  0  0  0  0  0  0  0  0
   17.1222   -7.0153    0.0000 C   0  0  0  0  0  0  0  0  0  0  0  0
   18.5496   -7.4763    0.0000 N   0  0  0  0  0  0  0  0  0  0  0  0
   18.8642   -8.9429    0.0000 C   0  0  0  0  0  0  0  0  0  0  0  0
   20.2916   -9.4039    0.0000 N   0  0  0  0  0  0  0  0  0  0  0  0
   17.7513   -9.9486    0.0000 N   0  0  0  0  0  0  0  0  0  0  0  0
   13.6383   -3.1601    0.0000 C   0  0  0  0  0  0  0  0  0  0  0  0
   12.5254   -4.1658    0.0000 O   0  0  0  0  0  0  0  0  0  0  0  0
   13.3238   -1.6935    0.0000 N   0  0  0  0  0  0  0  0  0  0  0  0
   11.8964   -1.2325    0.0000 C   0  0  0  0  0  0  0  0  0  0  0  0
   11.5819    0.2341    0.0000 C   0  0  0  0  0  0  0  0  0  0  0  0
   12.8091    1.0967    0.0000 O   0  0  0  0  0  0  0  0  0  0  0  0
   10.1544    0.6951    0.0000 N   0  0  0  0  0  0  0  0  0  0  0  0
    9.8399    2.1617    0.0000 C   0  0  0  0  0  0  0  0  0  0  0  0
   11.3389    2.2168    0.0000 C   0  0  0  0  0  0  0  0  0  0  0  0
    9.0428    3.4324    0.0000 C   0  0  0  0  0  0  0  0  0  0  0  0
    9.9009    4.6626    0.0000 O   0  0  0  0  0  0  0  0  0  0  0  0
    7.5438    3.3773    0.0000 N   0  0  0  0  0  0  0  0  0  0  0  0
    6.7466    4.6479    0.0000 C   0  0  0  0  0  0  0  0  0  0  0  0
    8.1363    5.2124    0.0000 C   0  0  0  0  0  0  0  0  0  0  0  0
    5.5629    5.5693    0.0000 C   0  0  0  0  0  0  0  0  0  0  0  0
    5.9485    7.0189    0.0000 O   0  0  0  0  0  0  0  0  0  0  0  0
    4.1731    5.0049    0.0000 N   0  0  0  0  0  0  0  0  0  0  0  0
    2.9895    5.9262    0.0000 C   0  0  0  0  0  0  0  0  0  0  0  0
    4.1024    6.9319    0.0000 C   0  0  0  0  0  0  0  0  0  0  0  0
    3.7878    8.3986    0.0000 C   0  0  0  0  0  0  0  0  0  0  0  0
    4.9007    9.4043    0.0000 C   0  0  0  0  0  0  0  0  0  0  0  0
    4.5862   10.8709    0.0000 N   0  0  0  0  0  0  0  0  0  0  0  0
    6.3282    8.9433    0.0000 O   0  0  0  0  0  0  0  0  0  0  0  0
    1.5620    6.3872    0.0000 C   0  0  0  0  0  0  0  0  0  0  0  0
    1.4286    7.8812    0.0000 O   0  0  0  0  0  0  0  0  0  0  0  0
    0.4491    5.3815    0.0000 N   0  0  0  0  0  0  0  0  0  0  0  0
   -0.9783    5.8424    0.0000 C   0  0  0  0  0  0  0  0  0  0  0  0
   -0.8114    4.3517    0.0000 C   0  0  0  0  0  0  0  0  0  0  0  0
   -1.0912    2.8781    0.0000 C   0  0  0  0  0  0  0  0  0  0  0  0
   -1.7930    1.5524    0.0000 C   0  0  0  0  0  0  0  0  0  0  0  0
   -2.8544    0.4924    0.0000 C   0  0  0  0  0  0  0  0  0  0  0  0
    0.0289    6.9539    0.0000 C   0  0  0  0  0  0  0  0  0  0  0  0
   -1.5772    7.2177    0.0000 C   0  0  0  0  0  0  0  0  0  0  0  0
   -0.3065    8.0148    0.0000 O   0  0  0  0  0  0  0  0  0  0  0  0
   -2.5548    8.3553    0.0000 N   0  0  0  0  0  0  0  0  0  0  0  0
   -3.8244    9.1542    0.0000 C   0  0  0  0  0  0  0  0  0  0  0  0
   -4.0654   10.6347    0.0000 C   0  0  0  0  0  0  0  0  0  0  0  0
   -5.2730    9.5434    0.0000 C   0  0  0  0  0  0  0  0  0  0  0  0
   -5.1040   11.0339    0.0000 O   0  0  0  0  0  0  0  0  0  0  0  0
   -6.7720    9.4884    0.0000 N   0  0  0  0  0  0  0  0  0  0  0  0
   -8.1881    8.9939    0.0000 C   0  0  0  0  0  0  0  0  0  0  0  0
   -9.4959    9.7286    0.0000 C   0  0  0  0  0  0  0  0  0  0  0  0
   -9.3957    8.1040    0.0000 C   0  0  0  0  0  0  0  0  0  0  0  0
  -10.4556    9.1654    0.0000 O   0  0  0  0  0  0  0  0  0  0  0  0
  -10.2872    6.8977    0.0000 N   0  0  0  0  0  0  0  0  0  0  0  0
  -10.7836    5.4822    0.0000 C   0  0  0  0  0  0  0  0  0  0  0  0
  -12.1734    4.9178    0.0000 C   0  0  0  0  0  0  0  0  0  0  0  0
  -13.3570    5.8392    0.0000 C   0  0  0  0  0  0  0  0  0  0  0  0
  -14.7468    5.2747    0.0000 C   0  0  0  0  0  0  0  0  0  0  0  0
  -15.9305    6.1961    0.0000 N   0  0  0  0  0  0  0  0  0  0  0  0
  -14.9529    3.7890    0.0000 O   0  0  0  0  0  0  0  0  0  0  0  0
  -10.8407    3.9833    0.0000 C   0  0  0  0  0  0  0  0  0  0  0  0
  -12.3314    3.8164    0.0000 O   0  0  0  0  0  0  0  0  0  0  0  0
  -10.4535    2.5342    0.0000 N   0  0  0  0  0  0  0  0  0  0  0  0
   -9.6563    1.2635    0.0000 C   0  0  0  0  0  0  0  0  0  0  0  0
   -8.5200    0.2843    0.0000 C   0  0  0  0  0  0  0  0  0  0  0  0
   -7.1456   -0.3165    0.0000 C   0  0  0  0  0  0  0  0  0  0  0  0
   -5.6551   -0.4854    0.0000 C   0  0  0  0  0  0  0  0  0  0  0  0
   -4.1811   -0.2076    0.0000 C   0  0  0  0  0  0  0  0  0  0  0  0
  -11.1424    1.0595    0.0000 C   0  0  0  0  0  0  0  0  0  0  0  0
  -10.0815   -0.1749    0.0000 C   0  0  0  0  0  0  0  0  0  0  0  0
   -9.3422   -1.4801    0.0000 O   0  0  0  0  0  0  0  0  0  0  0  0
  -11.5399   -0.5259    0.0000 N   0  0  0  0  0  0  0  0  0  0  0  0
  -11.9651   -1.9644    0.0000 C   0  0  0  0  0  0  0  0  0  0  0  0
  -11.8727   -3.4615    0.0000 C   0  0  0  0  0  0  0  0  0  0  0  0
  -13.0127   -4.4364    0.0000 C   0  0  0  0  0  0  0  0  0  0  0  0
  -13.4234   -2.3154    0.0000 C   0  0  0  0  0  0  0  0  0  0  0  0
  -14.4566   -1.2279    0.0000 O   0  0  0  0  0  0  0  0  0  0  0  0
  -13.8487   -3.7538    0.0000 N   0  0  0  0  0  0  0  0  0  0  0  0
  -15.3070   -4.1048    0.0000 C   0  0  0  0  0  0  0  0  0  0  0  0
  -16.7975   -3.9359    0.0000 C   0  0  0  0  0  0  0  0  0  0  0  0
  -17.3964   -2.5606    0.0000 C   0  0  0  0  0  0  0  0  0  0  0  0
  -18.8868   -2.3916    0.0000 C   0  0  0  0  0  0  0  0  0  0  0  0
  -19.4857   -1.0164    0.0000 N   0  0  0  0  0  0  0  0  0  0  0  0
  -20.9762   -0.8474    0.0000 C   0  0  0  0  0  0  0  0  0  0  0  0
  -21.5751    0.5278    0.0000 N   0  0  0  0  0  0  0  0  0  0  0  0
  -21.8677   -2.0537    0.0000 N   0  0  0  0  0  0  0  0  0  0  0  0
  -15.7322   -5.5433    0.0000 C   0  0  0  0  0  0  0  0  0  0  0  0
  -14.6991   -6.6308    0.0000 O   0  0  0  0  0  0  0  0  0  0  0  0
  -17.1906   -5.8943    0.0000 N   0  0  0  0  0  0  0  0  0  0  0  0
  -17.6158   -7.3328    0.0000 C   0  0  0  0  0  0  0  0  0  0  0  0
  -17.5234   -8.8299    0.0000 C   0  0  0  0  0  0  0  0  0  0  0  0
  -18.7738   -9.6585    0.0000 C   0  0  0  0  0  0  0  0  0  0  0  0
  -18.6813  -11.1557    0.0000 C   0  0  0  0  0  0  0  0  0  0  0  0
  -19.9317  -11.9843    0.0000 O   0  0  0  0  0  0  0  0  0  0  0  0
  -17.3386  -11.8242    0.0000 O   0  0  0  0  0  0  0  0  0  0  0  0
  -19.0742   -7.6837    0.0000 C   0  0  0  0  0  0  0  0  0  0  0  0
  -19.6716   -9.0597    0.0000 O   0  0  0  0  0  0  0  0  0  0  0  0
  -20.1073   -6.5963    0.0000 N   0  0  0  0  0  0  0  0  0  0  0  0
  -21.5657   -6.9473    0.0000 C   0  0  0  0  0  0  0  0  0  0  0  0
  -22.8160   -7.7759    0.0000 C   0  0  0  0  0  0  0  0  0  0  0  0
  -22.7236   -9.2730    0.0000 C   0  0  0  0  0  0  0  0  0  0  0  0
  -22.5988   -5.8598    0.0000 C   0  0  0  0  0  0  0  0  0  0  0  0
  -24.0891   -6.0304    0.0000 O   0  0  0  0  0  0  0  0  0  0  0  0
  -22.1736   -4.4213    0.0000 O   0  0  0  0  0  0  0  0  0  0  0  0
   25.6661   -9.3228    0.0000 H   0  0  0  0  0  0  0  0  0  0  0  0
   27.2619   -7.2726    0.0000 H   0  0  0  0  0  0  0  0  0  0  0  0
   23.9867   -8.2414    0.0000 H   0  0  0  0  0  0  0  0  0  0  0  0
   23.2611   -6.4548    0.0000 H   0  0  0  0  0  0  0  0  0  0  0  0
   26.3220   -5.8909    0.0000 H   0  0  0  0  0  0  0  0  0  0  0  0
   25.5964   -4.1042    0.0000 H   0  0  0  0  0  0  0  0  0  0  0  0
   24.8671   -2.7664    0.0000 H   0  0  0  0  0  0  0  0  0  0  0  0
   22.0315   -3.4271    0.0000 H   0  0  0  0  0  0  0  0  0  0  0  0
   24.4669   -1.8594    0.0000 H   0  0  0  0  0  0  0  0  0  0  0  0
   25.4890    0.4198    0.0000 H   0  0  0  0  0  0  0  0  0  0  0  0
   22.1042    0.8319    0.0000 H   0  0  0  0  0  0  0  0  0  0  0  0
   23.7377    1.8567    0.0000 H   0  0  0  0  0  0  0  0  0  0  0  0
   24.5034    0.5267    0.0000 H   0  0  0  0  0  0  0  0  0  0  0  0
   20.5075   -4.1129    0.0000 H   0  0  0  0  0  0  0  0  0  0  0  0
   18.5595   -3.6710    0.0000 H   0  0  0  0  0  0  0  0  0  0  0  0
   20.3512    0.1609    0.0000 H   0  0  0  0  0  0  0  0  0  0  0  0
   20.4671   -1.3025    0.0000 H   0  0  0  0  0  0  0  0  0  0  0  0
   20.8710    1.7918    0.0000 H   0  0  0  0  0  0  0  0  0  0  0  0
   19.2766    4.3331    0.0000 H   0  0  0  0  0  0  0  0  0  0  0  0
   14.7797    4.1679    0.0000 H   0  0  0  0  0  0  0  0  0  0  0  0
   14.8750    1.5716    0.0000 H   0  0  0  0  0  0  0  0  0  0  0  0
   16.5456   -0.5409    0.0000 H   0  0  0  0  0  0  0  0  0  0  0  0
   17.5109   -4.7300    0.0000 H   0  0  0  0  0  0  0  0  0  0  0  0
   15.2718   -2.1353    0.0000 H   0  0  0  0  0  0  0  0  0  0  0  0
   14.9946   -6.5373    0.0000 H   0  0  0  0  0  0  0  0  0  0  0  0
   13.8813   -5.1428    0.0000 H   0  0  0  0  0  0  0  0  0  0  0  0
   18.3067   -5.4936    0.0000 H   0  0  0  0  0  0  0  0  0  0  0  0
   17.5326   -4.2355    0.0000 H   0  0  0  0  0  0  0  0  0  0  0  0
   16.9161   -8.5011    0.0000 H   0  0  0  0  0  0  0  0  0  0  0  0
   15.6411   -7.2527    0.0000 H   0  0  0  0  0  0  0  0  0  0  0  0
   19.6625   -6.4706    0.0000 H   0  0  0  0  0  0  0  0  0  0  0  0
   20.6061  -10.8705    0.0000 H   0  0  0  0  0  0  0  0  0  0  0  0
   21.4045   -8.3982    0.0000 H   0  0  0  0  0  0  0  0  0  0  0  0
   18.0658  -11.4153    0.0000 H   0  0  0  0  0  0  0  0  0  0  0  0
   16.3238   -9.4877    0.0000 H   0  0  0  0  0  0  0  0  0  0  0  0
   14.4367   -0.6878    0.0000 H   0  0  0  0  0  0  0  0  0  0  0  0
   11.6903   -2.7183    0.0000 H   0  0  0  0  0  0  0  0  0  0  0  0
   10.3974   -1.2876    0.0000 H   0  0  0  0  0  0  0  0  0  0  0  0
    9.0415   -0.3106    0.0000 H   0  0  0  0  0  0  0  0  0  0  0  0
    8.4502    1.5973    0.0000 H   0  0  0  0  0  0  0  0  0  0  0  0
   12.2850    1.0528    0.0000 H   0  0  0  0  0  0  0  0  0  0  0  0
   12.7287    2.7812    0.0000 H   0  0  0  0  0  0  0  0  0  0  0  0
   11.0244    3.6834    0.0000 H   0  0  0  0  0  0  0  0  0  0  0  0
    6.8419    2.0516    0.0000 H   0  0  0  0  0  0  0  0  0  0  0  0
    5.6337    3.6422    0.0000 H   0  0  0  0  0  0  0  0  0  0  0  0
    9.4235    4.4422    0.0000 H   0  0  0  0  0  0  0  0  0  0  0  0
    9.2492    6.2181    0.0000 H   0  0  0  0  0  0  0  0  0  0  0  0
    7.3392    6.4830    0.0000 H   0  0  0  0  0  0  0  0  0  0  0  0
    3.9671    3.5191    0.0000 H   0  0  0  0  0  0  0  0  0  0  0  0
    2.2876    4.6005    0.0000 H   0  0  0  0  0  0  0  0  0  0  0  0
    5.4130    7.6615    0.0000 H   0  0  0  0  0  0  0  0  0  0  0  0
    5.1833    5.8920    0.0000 H   0  0  0  0  0  0  0  0  0  0  0  0
    2.9907    9.6692    0.0000 H   0  0  0  0  0  0  0  0  0  0  0  0
    2.3981    7.8342    0.0000 H   0  0  0  0  0  0  0  0  0  0  0  0
    5.6991   11.8767    0.0000 H   0  0  0  0  0  0  0  0  0  0  0  0
    3.1588   11.3319    0.0000 H   0  0  0  0  0  0  0  0  0  0  0  0
    1.1092    4.0345    0.0000 H   0  0  0  0  0  0  0  0  0  0  0  0
    0.6256    4.7821    0.0000 H   0  0  0  0  0  0  0  0  0  0  0  0
    0.4168    3.4905    0.0000 H   0  0  0  0  0  0  0  0  0  0  0  0
    0.4087    2.8657    0.0000 H   0  0  0  0  0  0  0  0  0  0  0  0
   -0.0339    1.8141    0.0000 H   0  0  0  0  0  0  0  0  0  0  0  0
   -0.3187    1.2761    0.0000 H   0  0  0  0  0  0  0  0  0  0  0  0
   -1.2634    0.1490    0.0000 H   0  0  0  0  0  0  0  0  0  0  0  0
   -1.9645   -0.7151    0.0000 H   0  0  0  0  0  0  0  0  0  0  0  0
    1.5282    7.0016    0.0000 H   0  0  0  0  0  0  0  0  0  0  0  0
    0.4217    8.4016    0.0000 H   0  0  0  0  0  0  0  0  0  0  0  0
   -1.0095    8.0363    0.0000 H   0  0  0  0  0  0  0  0  0  0  0  0
   -1.5756    9.4916    0.0000 H   0  0  0  0  0  0  0  0  0  0  0  0
   -2.5740    9.9828    0.0000 H   0  0  0  0  0  0  0  0  0  0  0  0
   -2.9037   11.5837    0.0000 H   0  0  0  0  0  0  0  0  0  0  0  0
   -4.7982   11.9435    0.0000 H   0  0  0  0  0  0  0  0  0  0  0  0
   -5.5591   10.4976    0.0000 H   0  0  0  0  0  0  0  0  0  0  0  0
   -7.0498   10.9624    0.0000 H   0  0  0  0  0  0  0  0  0  0  0  0
   -8.0564   10.4881    0.0000 H   0  0  0  0  0  0  0  0  0  0  0  0
   -9.5136   11.2284    0.0000 H   0  0  0  0  0  0  0  0  0  0  0  0
  -10.9761    9.9716    0.0000 H   0  0  0  0  0  0  0  0  0  0  0  0
  -10.3201    8.4752    0.0000 H   0  0  0  0  0  0  0  0  0  0  0  0
  -11.6129    7.5995    0.0000 H   0  0  0  0  0  0  0  0  0  0  0  0
  -11.7354    6.6415    0.0000 H   0  0  0  0  0  0  0  0  0  0  0  0
  -13.2863    3.9121    0.0000 H   0  0  0  0  0  0  0  0  0  0  0  0
  -11.7073    3.4920    0.0000 H   0  0  0  0  0  0  0  0  0  0  0  0
  -14.1542    7.1098    0.0000 H   0  0  0  0  0  0  0  0  0  0  0  0
  -12.3750    6.9730    0.0000 H   0  0  0  0  0  0  0  0  0  0  0  0
  -17.3202    5.6317    0.0000 H   0  0  0  0  0  0  0  0  0  0  0  0
  -15.7244    7.6819    0.0000 H   0  0  0  0  0  0  0  0  0  0  0  0
  -11.8287    1.9353    0.0000 H   0  0  0  0  0  0  0  0  0  0  0  0
   -8.5023   -1.2156    0.0000 H   0  0  0  0  0  0  0  0  0  0  0  0
   -9.6863   -0.6589    0.0000 H   0  0  0  0  0  0  0  0  0  0  0  0
   -6.8641   -1.7898    0.0000 H   0  0  0  0  0  0  0  0  0  0  0  0
   -7.9821   -1.5616    0.0000 H   0  0  0  0  0  0  0  0  0  0  0  0
   -4.7956   -1.7147    0.0000 H   0  0  0  0  0  0  0  0  0  0  0  0
   -6.2593   -1.8584    0.0000 H   0  0  0  0  0  0  0  0  0  0  0  0
   -3.6866   -1.6237    0.0000 H   0  0  0  0  0  0  0  0  0  0  0  0
  -12.0280   -0.1512    0.0000 H   0  0  0  0  0  0  0  0  0  0  0  0
  -12.5591    1.5524    0.0000 H   0  0  0  0  0  0  0  0  0  0  0  0
  -11.4496    2.5277    0.0000 H   0  0  0  0  0  0  0  0  0  0  0  0
  -12.6979    0.4275    0.0000 H   0  0  0  0  0  0  0  0  0  0  0  0
  -10.4746   -2.1334    0.0000 H   0  0  0  0  0  0  0  0  0  0  0  0
  -11.2738   -4.8368    0.0000 H   0  0  0  0  0  0  0  0  0  0  0  0
  -10.4143   -3.1106    0.0000 H   0  0  0  0  0  0  0  0  0  0  0  0
  -13.0306   -5.7873    0.0000 H   0  0  0  0  0  0  0  0  0  0  0  0
  -14.5814   -4.6411    0.0000 H   0  0  0  0  0  0  0  0  0  0  0  0
  -14.2976   -3.3572    0.0000 H   0  0  0  0  0  0  0  0  0  0  0  0
  -12.9558   -4.9592    0.0000 H   0  0  0  0  0  0  0  0  0  0  0  0
  -15.2162   -2.6076    0.0000 H   0  0  0  0  0  0  0  0  0  0  0  0
  -18.2558   -4.2869    0.0000 H   0  0  0  0  0  0  0  0  0  0  0  0
  -17.0701   -5.4109    0.0000 H   0  0  0  0  0  0  0  0  0  0  0  0
  -17.4888   -1.0635    0.0000 H   0  0  0  0  0  0  0  0  0  0  0  0
  -15.9917   -2.0345    0.0000 H   0  0  0  0  0  0  0  0  0  0  0  0
  -20.3452   -2.7426    0.0000 H   0  0  0  0  0  0  0  0  0  0  0  0
  -18.9776   -3.8889    0.0000 H   0  0  0  0  0  0  0  0  0  0  0  0
  -18.5942    0.1899    0.0000 H   0  0  0  0  0  0  0  0  0  0  0  0
  -23.0655    0.6968    0.0000 H   0  0  0  0  0  0  0  0  0  0  0  0
  -20.6835    1.7341    0.0000 H   0  0  0  0  0  0  0  0  0  0  0  0
  -23.3582   -1.8847    0.0000 H   0  0  0  0  0  0  0  0  0  0  0  0
  -21.2688   -3.4290    0.0000 H   0  0  0  0  0  0  0  0  0  0  0  0
  -18.3486   -4.9409    0.0000 H   0  0  0  0  0  0  0  0  0  0  0  0
  -16.1254   -7.5017    0.0000 H   0  0  0  0  0  0  0  0  0  0  0  0
  -16.9245  -10.2052    0.0000 H   0  0  0  0  0  0  0  0  0  0  0  0
  -16.0650   -8.4789    0.0000 H   0  0  0  0  0  0  0  0  0  0  0  0
  -20.2321  -10.0095    0.0000 H   0  0  0  0  0  0  0  0  0  0  0  0
  -19.8258   -8.5893    0.0000 H   0  0  0  0  0  0  0  0  0  0  0  0
  -19.6821   -5.1578    0.0000 H   0  0  0  0  0  0  0  0  0  0  0  0
  -20.8036   -8.2392    0.0000 H   0  0  0  0  0  0  0  0  0  0  0  0
  -24.2744   -8.1268    0.0000 H   0  0  0  0  0  0  0  0  0  0  0  0
  -23.5781   -6.4839    0.0000 H   0  0  0  0  0  0  0  0  0  0  0  0
  -23.9740  -10.1016    0.0000 H   0  0  0  0  0  0  0  0  0  0  0  0
  -22.1247  -10.6483    0.0000 H   0  0  0  0  0  0  0  0  0  0  0  0
  -21.2333   -9.1024    0.0000 H   0  0  0  0  0  0  0  0  0  0  0  0
  1  2  1  0
  2  3  1  0
  3  4  1  0
  4  5  2  0
  4  6  1  0
  6  7  1  0
  7  8  1  0
  8  9  1  0
  8 10  1  0
  7 11  1  0
 11 12  2  0
 11 13  1  0
 13 14  1  0
 14 15  1  0
 15 16  1  0
 16 17  2  0
 17 18  1  0
 18 19  2  0
 19 20  1  0
 19 21  1  0
 21 22  2  0
 14 23  1  0
 23 24  2  0
 23 25  1  0
 25 26  1  0
 26 27  1  0
 27 28  1  0
 28 29  1  0
 29 30  1  0
 30 31  1  0
 31 32  2  3
 31 33  1  0
 26 34  1  0
 34 35  2  0
 34 36  1  0
 36 37  1  0
 37 38  1  0
 38 39  2  0
 38 40  1  0
 40 41  1  0
 41 42  1  0
 41 43  1  0
 43 44  2  0
 43 45  1  0
 45 46  1  0
 46 47  1  0
 46 48  1  0
 48 49  2  0
 48 50  1  0
 50 51  1  0
 51 52  1  0
 52 53  1  0
 53 54  1  0
 54 55  1  0
 54 56  2  0
 51 57  1  0
 57 58  2  0
 57 59  1  0
 60 59  1  1
 60 61  1  0
 61 62  1  0
 62 63  1  0
 63 64  1  0
 60 65  1  0
 60 66  1  0
 66 67  2  0
 66 68  1  0
 68 69  1  0
 69 70  1  0
 69 71  1  0
 71 72  2  0
 71 73  1  0
 73 74  1  0
 74 75  1  0
 74 76  1  0
 76 77  2  0
 76 78  1  0
 78 79  1  0
 79 80  1  0
 80 81  1  0
 81 82  1  0
 82 83  1  0
 82 84  2  0
 79 85  1  0
 85 86  2  0
 85 87  1  0
 87 88  1  0
 88 89  1  0
 89 90  1  0
 90 91  1  0
 91 92  1  0
 88 93  1  0
 88 94  1  1
 94 95  2  0
 94 96  1  0
 96 97  1  0
 97 98  1  0
 98 99  1  0
 97100  1  0
100101  2  0
100102  1  0
102103  1  0
103104  1  0
104105  1  0
105106  1  0
106107  1  0
107108  1  0
108109  2  3
108110  1  0
103111  1  0
111112  2  0
111113  1  0
113114  1  0
114115  1  0
115116  1  0
116117  1  0
117118  2  0
117119  1  0
114120  1  0
120121  2  0
120122  1  0
122123  1  0
123124  1  0
124125  1  0
123126  1  0
126127  2  0
126128  1  0
 22 16  1  0
 64 92  2  0
  1129  1  0
  1130  1  0
  2131  1  0
  2132  1  0
  3133  1  0
  3134  1  0
  6135  1  0
  7136  1  6
  8137  1  6
  9138  1  0
 10139  1  0
 10140  1  0
 10141  1  0
 13142  1  0
 14143  1  6
 15144  1  0
 15145  1  0
 17146  1  0
 18147  1  0
 20148  1  0
 21149  1  0
 22150  1  0
 25151  1  0
 26152  1  1
 27153  1  0
 27154  1  0
 28155  1  0
 28156  1  0
 29157  1  0
 29158  1  0
 30159  1  0
 32160  1  0
 32161  1  0
 33162  1  0
 33163  1  0
 36164  1  0
 37165  1  0
 37166  1  0
 40167  1  0
 41168  1  6
 42169  1  0
 42170  1  0
 42171  1  0
 45172  1  0
 46173  1  6
 47174  1  0
 47175  1  0
 47176  1  0
 50177  1  0
 51178  1  6
 52179  1  0
 52180  1  0
 53181  1  0
 53182  1  0
 55183  1  0
 55184  1  0
 59185  1  0
 61186  1  0
 61187  1  0
 62188  1  0
 62189  1  0
 63190  1  0
 63191  1  0
 64192  1  0
 65193  1  0
 65194  1  0
 65195  1  0
 68196  1  0
 69197  1  6
 70198  1  0
 70199  1  0
 70200  1  0
 73201  1  0
 74202  1  6
 75203  1  0
 75204  1  0
 75205  1  0
 78206  1  0
 79207  1  6
 80208  1  0
 80209  1  0
 81210  1  0
 81211  1  0
 83212  1  0
 83213  1  0
 87214  1  0
 89215  1  0
 89216  1  0
 90217  1  0
 90218  1  0
 91219  1  0
 91220  1  0
 92221  1  0
 93222  1  0
 93223  1  0
 93224  1  0
 96225  1  0
 97226  1  1
 98227  1  0
 98228  1  0
 99229  1  0
 99230  1  0
 99231  1  0
102232  1  0
103233  1  6
104234  1  0
104235  1  0
105236  1  0
105237  1  0
106238  1  0
106239  1  0
107240  1  0
109241  1  0
109242  1  0
110243  1  0
110244  1  0
113245  1  0
114246  1  1
115247  1  0
115248  1  0
116249  1  0
116250  1  0
122251  1  0
123252  1  1
124253  1  0
124254  1  0
125255  1  0
125256  1  0
125257  1  0
M  CHG  4  32   1 109   1 119  -1 128  -1
M  END
