
     RDKit          2D

343351  0  0  0  0  0  0  0  0999 V2000
   21.9693   -3.0239    0.0000 C   0  0  0  0  0  0  0  0  0  0  0  0
   23.4581   -2.8409    0.0000 N   0  0  0  0  0  0  0  0  0  0  0  0
   24.3609   -4.0388    0.0000 C   0  0  0  0  0  0  0  0  0  0  0  0
   23.7749   -5.4196    0.0000 C   0  0  0  0  0  0  0  0  0  0  0  0
   24.6778   -6.6175    0.0000 C   0  0  0  0  0  0  0  0  0  0  0  0
   26.1666   -6.4346    0.0000 C   0  0  0  0  0  0  0  0  0  0  0  0
   26.7525   -5.0538    0.0000 C   0  0  0  0  0  0  0  0  0  0  0  0
   25.8497   -3.8559    0.0000 C   0  0  0  0  0  0  0  0  0  0  0  0
   28.2468   -5.1844    0.0000 C   0  0  0  0  0  0  0  0  0  0  0  0
   28.5844   -6.6459    0.0000 O   0  0  0  0  0  0  0  0  0  0  0  0
   27.2987   -7.4186    0.0000 C   0  0  0  0  0  0  0  0  0  0  0  0
   27.1681   -8.9129    0.0000 O   0  0  0  0  0  0  0  0  0  0  0  0
   29.7193   -5.4705    0.0000 C   0  0  0  0  0  0  0  0  0  0  0  0
   30.7033   -4.3383    0.0000 C   0  0  0  0  0  0  0  0  0  0  0  0
   32.1758   -4.6244    0.0000 C   0  0  0  0  0  0  0  0  0  0  0  0
   32.6642   -6.0426    0.0000 C   0  0  0  0  0  0  0  0  0  0  0  0
   31.6802   -7.1748    0.0000 C   0  0  0  0  0  0  0  0  0  0  0  0
   30.2078   -6.8887    0.0000 C   0  0  0  0  0  0  0  0  0  0  0  0
   34.1367   -6.3287    0.0000 O   0  0  0  0  0  0  0  0  0  0  0  0
   30.2148   -2.9201    0.0000 O   0  0  0  0  0  0  0  0  0  0  0  0
   28.7424   -2.6340    0.0000 C   0  0  0  0  0  0  0  0  0  0  0  0
   27.7584   -3.7661    0.0000 C   0  0  0  0  0  0  0  0  0  0  0  0
   26.7451   -2.9517    0.0000 C   0  0  0  0  0  0  0  0  0  0  0  0
   26.4846   -2.1953    0.0000 C   0  0  0  0  0  0  0  0  0  0  0  0
   27.0094   -1.5915    0.0000 C   0  0  0  0  0  0  0  0  0  0  0  0
   27.7947   -1.7441    0.0000 C   0  0  0  0  0  0  0  0  0  0  0  0
   26.2930    0.4886    0.0000 O   0  0  0  0  0  0  0  0  0  0  0  0
   21.3833   -4.4047    0.0000 S   0  0  0  0  0  0  0  0  0  0  0  0
   21.0665   -1.8260    0.0000 N   0  0  0  0  0  0  0  0  0  0  0  0
   19.5777   -2.0089    0.0000 C   0  0  0  0  0  0  0  0  0  0  0  0
   18.6748   -0.8110    0.0000 C   0  0  0  0  0  0  0  0  0  0  0  0
   17.1860   -0.9940    0.0000 C   0  0  0  0  0  0  0  0  0  0  0  0
   17.0614   -1.7813    0.0000 O   0  0  0  0  0  0  0  0  0  0  0  0
   16.2832    0.2039    0.0000 N   0  0  0  0  0  0  0  0  0  0  0  0
   14.7944    0.0210    0.0000 C   0  0  0  0  0  0  0  0  0  0  0  0
   15.2331   -1.4134    0.0000 C   0  0  0  0  0  0  0  0  0  0  0  0
   16.6947   -1.7507    0.0000 C   0  0  0  0  0  0  0  0  0  0  0  0
   17.1334   -3.1852    0.0000 C   0  0  0  0  0  0  0  0  0  0  0  0
   18.1835   -1.5678    0.0000 C   0  0  0  0  0  0  0  0  0  0  0  0
   13.3328    0.3583    0.0000 C   0  0  0  0  0  0  0  0  0  0  0  0
   12.4513   -0.8553    0.0000 O   0  0  0  0  0  0  0  0  0  0  0  0
   12.8942    1.7927    0.0000 N   0  0  0  0  0  0  0  0  0  0  0  0
   11.4326    2.1300    0.0000 C   0  0  0  0  0  0  0  0  0  0  0  0
   11.3542    0.6321    0.0000 C   0  0  0  0  0  0  0  0  0  0  0  0
   12.5033   -0.3320    0.0000 O   0  0  0  0  0  0  0  0  0  0  0  0
   10.1745    2.9469    0.0000 C   0  0  0  0  0  0  0  0  0  0  0  0
    9.1710    1.8320    0.0000 O   0  0  0  0  0  0  0  0  0  0  0  0
   10.2529    4.4448    0.0000 N   0  0  0  0  0  0  0  0  0  0  0  0
    8.9948    5.2617    0.0000 C   0  0  0  0  0  0  0  0  0  0  0  0
    8.7677    3.7790    0.0000 C   0  0  0  0  0  0  0  0  0  0  0  0
    8.1136    2.4291    0.0000 C   0  0  0  0  0  0  0  0  0  0  0  0
    7.0907    1.3320    0.0000 C   0  0  0  0  0  0  0  0  0  0  0  0
    5.7898    0.5851    0.0000 C   0  0  0  0  0  0  0  0  0  0  0  0
   10.2568    6.0725    0.0000 C   0  0  0  0  0  0  0  0  0  0  0  0
    8.7748    6.7455    0.0000 C   0  0  0  0  0  0  0  0  0  0  0  0
   10.2092    7.1841    0.0000 O   0  0  0  0  0  0  0  0  0  0  0  0
    8.1273    8.0985    0.0000 N   0  0  0  0  0  0  0  0  0  0  0  0
    7.1096    9.2005    0.0000 C   0  0  0  0  0  0  0  0  0  0  0  0
    7.2626   10.6927    0.0000 C   0  0  0  0  0  0  0  0  0  0  0  0
    8.6313   11.3063    0.0000 C   0  0  0  0  0  0  0  0  0  0  0  0
    8.7843   12.7985    0.0000 C   0  0  0  0  0  0  0  0  0  0  0  0
   10.1530   13.4121    0.0000 O   0  0  0  0  0  0  0  0  0  0  0  0
    7.5685   13.6771    0.0000 O   0  0  0  0  0  0  0  0  0  0  0  0
    5.8124    9.9536    0.0000 C   0  0  0  0  0  0  0  0  0  0  0  0
    6.3638   11.3486    0.0000 O   0  0  0  0  0  0  0  0  0  0  0  0
    4.3508   10.2910    0.0000 N   0  0  0  0  0  0  0  0  0  0  0  0
    2.8548   10.1825    0.0000 C   0  0  0  0  0  0  0  0  0  0  0  0
    1.7835   11.2324    0.0000 C   0  0  0  0  0  0  0  0  0  0  0  0
    0.4177   11.8526    0.0000 O   0  0  0  0  0  0  0  0  0  0  0  0
    2.1571   12.6851    0.0000 C   0  0  0  0  0  0  0  0  0  0  0  0
    1.4571    9.6378    0.0000 C   0  0  0  0  0  0  0  0  0  0  0  0
    0.7103   10.9387    0.0000 O   0  0  0  0  0  0  0  0  0  0  0  0
    0.2821    8.7054    0.0000 N   0  0  0  0  0  0  0  0  0  0  0  0
   -0.5658    7.4681    0.0000 C   0  0  0  0  0  0  0  0  0  0  0  0
   -2.0546    7.2852    0.0000 C   0  0  0  0  0  0  0  0  0  0  0  0
   -1.0114    6.0358    0.0000 C   0  0  0  0  0  0  0  0  0  0  0  0
   -2.3142    6.7793    0.0000 O   0  0  0  0  0  0  0  0  0  0  0  0
   -1.0150    4.5358    0.0000 N   0  0  0  0  0  0  0  0  0  0  0  0
   -0.5764    3.1014    0.0000 C   0  0  0  0  0  0  0  0  0  0  0  0
    0.2656    1.8600    0.0000 C   0  0  0  0  0  0  0  0  0  0  0  0
    1.4361    0.9219    0.0000 C   0  0  0  0  0  0  0  0  0  0  0  0
    2.8311    0.3706    0.0000 C   0  0  0  0  0  0  0  0  0  0  0  0
    4.3266    0.2549    0.0000 C   0  0  0  0  0  0  0  0  0  0  0  0
   -0.0603    1.6929    0.0000 C   0  0  0  0  0  0  0  0  0  0  0  0
    0.1798    0.2123    0.0000 C   0  0  0  0  0  0  0  0  0  0  0  0
    0.1354   -1.2871    0.0000 C   0  0  0  0  0  0  0  0  0  0  0  0
   -0.1920   -2.7509    0.0000 C   0  0  0  0  0  0  0  0  0  0  0  0
   -1.3496    4.3867    0.0000 C   0  0  0  0  0  0  0  0  0  0  0  0
   -0.1436    5.2786    0.0000 O   0  0  0  0  0  0  0  0  0  0  0  0
   -2.3521    5.5025    0.0000 N   0  0  0  0  0  0  0  0  0  0  0  0
   -3.5477    6.4084    0.0000 C   0  0  0  0  0  0  0  0  0  0  0  0
   -3.5509    7.9084    0.0000 C   0  0  0  0  0  0  0  0  0  0  0  0
   -4.8515    8.6556    0.0000 C   0  0  0  0  0  0  0  0  0  0  0  0
   -4.8547   10.1556    0.0000 O   0  0  0  0  0  0  0  0  0  0  0  0
   -6.2925    8.2392    0.0000 O   0  0  0  0  0  0  0  0  0  0  0  0
   -4.8931    7.0716    0.0000 C   0  0  0  0  0  0  0  0  0  0  0  0
   -4.7159    8.5611    0.0000 O   0  0  0  0  0  0  0  0  0  0  0  0
   -6.3397    7.4683    0.0000 N   0  0  0  0  0  0  0  0  0  0  0  0
   -7.8352    7.5840    0.0000 C   0  0  0  0  0  0  0  0  0  0  0  0
   -8.6489    8.8441    0.0000 C   0  0  0  0  0  0  0  0  0  0  0  0
   -7.9644   10.1788    0.0000 C   0  0  0  0  0  0  0  0  0  0  0  0
   -8.7780   11.4390    0.0000 C   0  0  0  0  0  0  0  0  0  0  0  0
   -6.8646   11.1989    0.0000 C   0  0  0  0  0  0  0  0  0  0  0  0
   -9.3256    7.4145    0.0000 C   0  0  0  0  0  0  0  0  0  0  0  0
   -9.8125    8.8333    0.0000 O   0  0  0  0  0  0  0  0  0  0  0  0
  -10.7570    6.9661    0.0000 N   0  0  0  0  0  0  0  0  0  0  0  0
  -12.0777    6.2549    0.0000 C   0  0  0  0  0  0  0  0  0  0  0  0
  -13.4435    6.8751    0.0000 C   0  0  0  0  0  0  0  0  0  0  0  0
  -13.5892    8.3680    0.0000 C   0  0  0  0  0  0  0  0  0  0  0  0
  -12.4671    9.3635    0.0000 C   0  0  0  0  0  0  0  0  0  0  0  0
  -13.0671   10.7383    0.0000 N   0  0  0  0  0  0  0  0  0  0  0  0
  -14.5600   10.5925    0.0000 C   0  0  0  0  0  0  0  0  0  0  0  0
  -15.6672   11.6044    0.0000 C   0  0  0  0  0  0  0  0  0  0  0  0
  -17.0972   11.1515    0.0000 C   0  0  0  0  0  0  0  0  0  0  0  0
  -17.4199    9.6866    0.0000 C   0  0  0  0  0  0  0  0  0  0  0  0
  -16.3127    8.6747    0.0000 C   0  0  0  0  0  0  0  0  0  0  0  0
  -14.8827    9.1276    0.0000 C   0  0  0  0  0  0  0  0  0  0  0  0
  -13.2399    5.3066    0.0000 C   0  0  0  0  0  0  0  0  0  0  0  0
  -14.4166    6.2369    0.0000 O   0  0  0  0  0  0  0  0  0  0  0  0
  -14.2017    4.1555    0.0000 N   0  0  0  0  0  0  0  0  0  0  0  0
  -14.9282    2.8432    0.0000 C   0  0  0  0  0  0  0  0  0  0  0  0
  -16.4124    2.6266    0.0000 C   0  0  0  0  0  0  0  0  0  0  0  0
  -17.3422    3.8037    0.0000 C   0  0  0  0  0  0  0  0  0  0  0  0
  -18.8265    3.5870    0.0000 C   0  0  0  0  0  0  0  0  0  0  0  0
  -19.7562    4.7641    0.0000 C   0  0  0  0  0  0  0  0  0  0  0  0
  -21.2405    4.5475    0.0000 N   0  0  0  0  0  0  0  0  0  0  0  0
  -15.3932    1.4171    0.0000 C   0  0  0  0  0  0  0  0  0  0  0  0
  -16.8860    1.5636    0.0000 O   0  0  0  0  0  0  0  0  0  0  0  0
  -15.5799   -0.0713    0.0000 N   0  0  0  0  0  0  0  0  0  0  0  0
  -15.4816   -1.5680    0.0000 C   0  0  0  0  0  0  0  0  0  0  0  0
  -16.6131   -2.5527    0.0000 C   0  0  0  0  0  0  0  0  0  0  0  0
  -18.0317   -2.0651    0.0000 C   0  0  0  0  0  0  0  0  0  0  0  0
  -19.1632   -3.0498    0.0000 C   0  0  0  0  0  0  0  0  0  0  0  0
  -19.1979   -1.1218    0.0000 C   0  0  0  0  0  0  0  0  0  0  0  0
  -15.1018   -3.0191    0.0000 C   0  0  0  0  0  0  0  0  0  0  0  0
  -16.4368   -3.7030    0.0000 O   0  0  0  0  0  0  0  0  0  0  0  0
  -14.4542   -4.3722    0.0000 N   0  0  0  0  0  0  0  0  0  0  0  0
  -13.5623   -5.5782    0.0000 C   0  0  0  0  0  0  0  0  0  0  0  0
  -13.9819   -7.0183    0.0000 C   0  0  0  0  0  0  0  0  0  0  0  0
  -15.4388   -7.3750    0.0000 C   0  0  0  0  0  0  0  0  0  0  0  0
  -15.8584   -8.8152    0.0000 C   0  0  0  0  0  0  0  0  0  0  0  0
  -16.9299   -7.2120    0.0000 C   0  0  0  0  0  0  0  0  0  0  0  0
  -12.4583   -6.5936    0.0000 C   0  0  0  0  0  0  0  0  0  0  0  0
  -13.2117   -7.8907    0.0000 O   0  0  0  0  0  0  0  0  0  0  0  0
  -11.1820   -7.3817    0.0000 N   0  0  0  0  0  0  0  0  0  0  0  0
   -9.7797   -7.9141    0.0000 C   0  0  0  0  0  0  0  0  0  0  0  0
   -8.3019   -8.1714    0.0000 C   0  0  0  0  0  0  0  0  0  0  0  0
   -6.8021   -8.1444    0.0000 C   0  0  0  0  0  0  0  0  0  0  0  0
   -5.3346   -7.8341    0.0000 C   0  0  0  0  0  0  0  0  0  0  0  0
   -3.9523   -7.2517    0.0000 C   0  0  0  0  0  0  0  0  0  0  0  0
   -2.7052   -6.4181    0.0000 C   0  0  0  0  0  0  0  0  0  0  0  0
   -1.6384   -5.3636    0.0000 C   0  0  0  0  0  0  0  0  0  0  0  0
   -0.7904   -4.1263    0.0000 C   0  0  0  0  0  0  0  0  0  0  0  0
  -10.8794   -8.9342    0.0000 C   0  0  0  0  0  0  0  0  0  0  0  0
   -9.3540   -9.3524    0.0000 C   0  0  0  0  0  0  0  0  0  0  0  0
   -8.0237  -10.0455    0.0000 O   0  0  0  0  0  0  0  0  0  0  0  0
  -10.3868  -10.4402    0.0000 N   0  0  0  0  0  0  0  0  0  0  0  0
   -9.9612  -11.8786    0.0000 C   0  0  0  0  0  0  0  0  0  0  0  0
   -9.0692  -13.0846    0.0000 C   0  0  0  0  0  0  0  0  0  0  0  0
   -9.6677  -14.4600    0.0000 C   0  0  0  0  0  0  0  0  0  0  0  0
   -8.7758  -15.6660    0.0000 C   0  0  0  0  0  0  0  0  0  0  0  0
   -9.2021  -17.1042    0.0000 O   0  0  0  0  0  0  0  0  0  0  0  0
   -7.2854  -15.4966    0.0000 O   0  0  0  0  0  0  0  0  0  0  0  0
  -10.9940  -12.9664    0.0000 C   0  0  0  0  0  0  0  0  0  0  0  0
  -12.4524  -12.6158    0.0000 O   0  0  0  0  0  0  0  0  0  0  0  0
  -10.5683  -14.4047    0.0000 N   0  0  0  0  0  0  0  0  0  0  0  0
  -11.6011  -15.4925    0.0000 C   0  0  0  0  0  0  0  0  0  0  0  0
  -12.9437  -16.1614    0.0000 C   0  0  0  0  0  0  0  0  0  0  0  0
  -14.1943  -15.3332    0.0000 C   0  0  0  0  0  0  0  0  0  0  0  0
  -15.5369  -16.0022    0.0000 N   0  0  0  0  0  0  0  0  0  0  0  0
  -14.1024  -13.8360    0.0000 O   0  0  0  0  0  0  0  0  0  0  0  0
  -11.1755  -16.9308    0.0000 C   0  0  0  0  0  0  0  0  0  0  0  0
  -12.0680  -18.1364    0.0000 O   0  0  0  0  0  0  0  0  0  0  0  0
   -9.7706  -17.4565    0.0000 O   0  0  0  0  0  0  0  0  0  0  0  0
   23.8714   -1.3990    0.0000 H   0  0  0  0  0  0  0  0  0  0  0  0
   22.2861   -5.6025    0.0000 H   0  0  0  0  0  0  0  0  0  0  0  0
   24.0918   -7.9983    0.0000 H   0  0  0  0  0  0  0  0  0  0  0  0
   26.0842   -2.3743    0.0000 H   0  0  0  0  0  0  0  0  0  0  0  0
   33.1598   -3.4923    0.0000 H   0  0  0  0  0  0  0  0  0  0  0  0
   32.1687   -8.5930    0.0000 H   0  0  0  0  0  0  0  0  0  0  0  0
   29.2238   -8.0208    0.0000 H   0  0  0  0  0  0  0  0  0  0  0  0
   34.6252   -7.7470    0.0000 H   0  0  0  0  0  0  0  0  0  0  0  0
   25.3019   -4.6122    0.0000 H   0  0  0  0  0  0  0  0  0  0  0  0
   24.3708   -1.5984    0.0000 H   0  0  0  0  0  0  0  0  0  0  0  0
   29.2379   -0.0836    0.0000 H   0  0  0  0  0  0  0  0  0  0  0  0
   27.2770    1.6207    0.0000 H   0  0  0  0  0  0  0  0  0  0  0  0
   21.6525   -0.4452    0.0000 H   0  0  0  0  0  0  0  0  0  0  0  0
   20.0163   -3.4433    0.0000 H   0  0  0  0  0  0  0  0  0  0  0  0
   18.4457   -2.9932    0.0000 H   0  0  0  0  0  0  0  0  0  0  0  0
   19.9183    0.0279    0.0000 H   0  0  0  0  0  0  0  0  0  0  0  0
   18.4143    0.6662    0.0000 H   0  0  0  0  0  0  0  0  0  0  0  0
   16.8692    1.5847    0.0000 H   0  0  0  0  0  0  0  0  0  0  0  0
   14.8728    1.5189    0.0000 H   0  0  0  0  0  0  0  0  0  0  0  0
   14.9727   -2.8907    0.0000 H   0  0  0  0  0  0  0  0  0  0  0  0
   13.7443   -1.5964    0.0000 H   0  0  0  0  0  0  0  0  0  0  0  0
   17.1332   -0.3163    0.0000 H   0  0  0  0  0  0  0  0  0  0  0  0
   18.4699   -3.8661    0.0000 H   0  0  0  0  0  0  0  0  0  0  0  0
   17.0550   -4.6831    0.0000 H   0  0  0  0  0  0  0  0  0  0  0  0
   15.6779   -3.5482    0.0000 H   0  0  0  0  0  0  0  0  0  0  0  0
   19.0863   -2.7657    0.0000 H   0  0  0  0  0  0  0  0  0  0  0  0
   19.5930   -1.0547    0.0000 H   0  0  0  0  0  0  0  0  0  0  0  0
   17.5732   -0.1976    0.0000 H   0  0  0  0  0  0  0  0  0  0  0  0
   13.9171    2.8898    0.0000 H   0  0  0  0  0  0  0  0  0  0  0  0
   12.0186    3.5108    0.0000 H   0  0  0  0  0  0  0  0  0  0  0  0
   10.7682   -0.7487    0.0000 H   0  0  0  0  0  0  0  0  0  0  0  0
    9.8926    0.9694    0.0000 H   0  0  0  0  0  0  0  0  0  0  0  0
   12.5339   -1.6827    0.0000 H   0  0  0  0  0  0  0  0  0  0  0  0
   11.6624    4.9579    0.0000 H   0  0  0  0  0  0  0  0  0  0  0  0
   10.2671    3.8202    0.0000 H   0  0  0  0  0  0  0  0  0  0  0  0
    9.5816    2.5190    0.0000 H   0  0  0  0  0  0  0  0  0  0  0  0
    9.4182    1.6888    0.0000 H   0  0  0  0  0  0  0  0  0  0  0  0
    8.8572    1.1264    0.0000 H   0  0  0  0  0  0  0  0  0  0  0  0
    8.4422    0.6812    0.0000 H   0  0  0  0  0  0  0  0  0  0  0  0
    7.2364   -0.1609    0.0000 H   0  0  0  0  0  0  0  0  0  0  0  0
    6.3345   -0.8125    0.0000 H   0  0  0  0  0  0  0  0  0  0  0  0
   11.6638    5.5526    0.0000 H   0  0  0  0  0  0  0  0  0  0  0  0
   11.1654    7.2660    0.0000 H   0  0  0  0  0  0  0  0  0  0  0  0
    9.5361    7.3880    0.0000 H   0  0  0  0  0  0  0  0  0  0  0  0
    9.3686    8.9405    0.0000 H   0  0  0  0  0  0  0  0  0  0  0  0
    8.5799    9.4978    0.0000 H   0  0  0  0  0  0  0  0  0  0  0  0
    6.8960   12.1472    0.0000 H   0  0  0  0  0  0  0  0  0  0  0  0
    5.7847   10.9494    0.0000 H   0  0  0  0  0  0  0  0  0  0  0  0
   10.1274   11.4148    0.0000 H   0  0  0  0  0  0  0  0  0  0  0  0
    9.1725    9.9074    0.0000 H   0  0  0  0  0  0  0  0  0  0  0  0
    7.7214   15.1692    0.0000 H   0  0  0  0  0  0  0  0  0  0  0  0
    4.4665   11.7865    0.0000 H   0  0  0  0  0  0  0  0  0  0  0  0
    3.5390   11.5173    0.0000 H   0  0  0  0  0  0  0  0  0  0  0  0
    0.6613   10.2370    0.0000 H   0  0  0  0  0  0  0  0  0  0  0  0
    0.0911   13.3166    0.0000 H   0  0  0  0  0  0  0  0  0  0  0  0
    1.2218   13.8578    0.0000 H   0  0  0  0  0  0  0  0  0  0  0  0
    3.0051   13.9224    0.0000 H   0  0  0  0  0  0  0  0  0  0  0  0
    3.5883   12.2360    0.0000 H   0  0  0  0  0  0  0  0  0  0  0  0
   -0.8150    9.7283    0.0000 H   0  0  0  0  0  0  0  0  0  0  0  0
   -1.3449    8.7499    0.0000 H   0  0  0  0  0  0  0  0  0  0  0  0
   -2.8271    8.5842    0.0000 H   0  0  0  0  0  0  0  0  0  0  0  0
   -3.5162    6.9477    0.0000 H   0  0  0  0  0  0  0  0  0  0  0  0
   -2.1593    5.7888    0.0000 H   0  0  0  0  0  0  0  0  0  0  0  0
   -2.4988    4.3158    0.0000 H   0  0  0  0  0  0  0  0  0  0  0  0
    0.0719    0.3726    0.0000 H   0  0  0  0  0  0  0  0  0  0  0  0
   -1.2122    1.6031    0.0000 H   0  0  0  0  0  0  0  0  0  0  0  0
    1.6894   -0.5565    0.0000 H   0  0  0  0  0  0  0  0  0  0  0  0
    0.4326   -0.1929    0.0000 H   0  0  0  0  0  0  0  0  0  0  0  0
    3.3407   -1.0402    0.0000 H   0  0  0  0  0  0  0  0  0  0  0  0
    2.2008   -0.9906    0.0000 H   0  0  0  0  0  0  0  0  0  0  0  0
    4.4351   -1.2412    0.0000 H   0  0  0  0  0  0  0  0  0  0  0  0
    0.9725    2.7807    0.0000 H   0  0  0  0  0  0  0  0  0  0  0  0
    1.3084    1.0792    0.0000 H   0  0  0  0  0  0  0  0  0  0  0  0
    1.6316    0.5897    0.0000 H   0  0  0  0  0  0  0  0  0  0  0  0
    1.4076   -0.6494    0.0000 H   0  0  0  0  0  0  0  0  0  0  0  0
    1.6323   -1.1912    0.0000 H   0  0  0  0  0  0  0  0  0  0  0  0
    1.3016   -2.2304    0.0000 H   0  0  0  0  0  0  0  0  0  0  0  0
    1.2341   -3.2159    0.0000 H   0  0  0  0  0  0  0  0  0  0  0  0
   -1.4788    6.7221    0.0000 H   0  0  0  0  0  0  0  0  0  0  0  0
   -2.2967    7.2360    0.0000 H   0  0  0  0  0  0  0  0  0  0  0  0
   -3.2166    9.3706    0.0000 H   0  0  0  0  0  0  0  0  0  0  0  0
   -2.0731    7.6510    0.0000 H   0  0  0  0  0  0  0  0  0  0  0  0
   -7.3909    8.7881    0.0000 H   0  0  0  0  0  0  0  0  0  0  0  0
   -5.9041    8.9036    0.0000 H   0  0  0  0  0  0  0  0  0  0  0  0
   -7.0674    8.8726    0.0000 H   0  0  0  0  0  0  0  0  0  0  0  0
   -9.8444    9.7500    0.0000 H   0  0  0  0  0  0  0  0  0  0  0  0
   -9.9628    8.1204    0.0000 H   0  0  0  0  0  0  0  0  0  0  0  0
   -6.5851    9.5892    0.0000 H   0  0  0  0  0  0  0  0  0  0  0  0
   -8.2613   12.8472    0.0000 H   0  0  0  0  0  0  0  0  0  0  0  0
   -9.9736   12.3449    0.0000 H   0  0  0  0  0  0  0  0  0  0  0  0
   -9.9939   10.5605    0.0000 H   0  0  0  0  0  0  0  0  0  0  0  0
   -7.0175   12.6911    0.0000 H   0  0  0  0  0  0  0  0  0  0  0  0
   -5.4823   11.7814    0.0000 H   0  0  0  0  0  0  0  0  0  0  0  0
   -6.0510    9.9388    0.0000 H   0  0  0  0  0  0  0  0  0  0  0  0
  -11.1667    8.4091    0.0000 H   0  0  0  0  0  0  0  0  0  0  0  0
  -12.1285    7.7540    0.0000 H   0  0  0  0  0  0  0  0  0  0  0  0
  -14.9138    7.1723    0.0000 H   0  0  0  0  0  0  0  0  0  0  0  0
  -14.1575    5.5560    0.0000 H   0  0  0  0  0  0  0  0  0  0  0  0
  -10.9738    9.2217    0.0000 H   0  0  0  0  0  0  0  0  0  0  0  0
  -12.3075   12.0317    0.0000 H   0  0  0  0  0  0  0  0  0  0  0  0
  -15.3445   13.0693    0.0000 H   0  0  0  0  0  0  0  0  0  0  0  0
  -18.2045   12.1634    0.0000 H   0  0  0  0  0  0  0  0  0  0  0  0
  -18.8499    9.2336    0.0000 H   0  0  0  0  0  0  0  0  0  0  0  0
  -16.6354    7.2098    0.0000 H   0  0  0  0  0  0  0  0  0  0  0  0
  -15.3264    5.1480    0.0000 H   0  0  0  0  0  0  0  0  0  0  0  0
  -15.6246    4.1717    0.0000 H   0  0  0  0  0  0  0  0  0  0  0  0
  -17.7331    1.9153    0.0000 H   0  0  0  0  0  0  0  0  0  0  0  0
  -16.3000    1.1308    0.0000 H   0  0  0  0  0  0  0  0  0  0  0  0
  -17.6362    5.2746    0.0000 H   0  0  0  0  0  0  0  0  0  0  0  0
  -16.2329    4.8133    0.0000 H   0  0  0  0  0  0  0  0  0  0  0  0
  -20.1471    2.8758    0.0000 H   0  0  0  0  0  0  0  0  0  0  0  0
  -18.5325    2.1161    0.0000 H   0  0  0  0  0  0  0  0  0  0  0  0
  -20.2273    6.1883    0.0000 H   0  0  0  0  0  0  0  0  0  0  0  0
  -18.5321    5.6310    0.0000 H   0  0  0  0  0  0  0  0  0  0  0  0
  -22.1702    5.7246    0.0000 H   0  0  0  0  0  0  0  0  0  0  0  0
  -21.7950    3.1538    0.0000 H   0  0  0  0  0  0  0  0  0  0  0  0
  -17.0627    0.1556    0.0000 H   0  0  0  0  0  0  0  0  0  0  0  0
  -16.7858   -0.8269    0.0000 H   0  0  0  0  0  0  0  0  0  0  0  0
  -17.3397   -3.8650    0.0000 H   0  0  0  0  0  0  0  0  0  0  0  0
  -15.7098   -3.7502    0.0000 H   0  0  0  0  0  0  0  0  0  0  0  0
  -17.6443   -0.6160    0.0000 H   0  0  0  0  0  0  0  0  0  0  0  0
  -20.6306   -2.7388    0.0000 H   0  0  0  0  0  0  0  0  0  0  0  0
  -19.8897   -4.3621    0.0000 H   0  0  0  0  0  0  0  0  0  0  0  0
  -18.1207   -4.1283    0.0000 H   0  0  0  0  0  0  0  0  0  0  0  0
  -20.6532   -1.4854    0.0000 H   0  0  0  0  0  0  0  0  0  0  0  0
  -19.9712    0.1636    0.0000 H   0  0  0  0  0  0  0  0  0  0  0  0
  -18.0664   -0.1371    0.0000 H   0  0  0  0  0  0  0  0  0  0  0  0
  -15.8242   -4.9830    0.0000 H   0  0  0  0  0  0  0  0  0  0  0  0
  -15.0601   -5.6598    0.0000 H   0  0  0  0  0  0  0  0  0  0  0  0
  -13.8835   -8.5151    0.0000 H   0  0  0  0  0  0  0  0  0  0  0  0
  -12.5745   -7.5374    0.0000 H   0  0  0  0  0  0  0  0  0  0  0  0
  -15.8964   -5.9465    0.0000 H   0  0  0  0  0  0  0  0  0  0  0  0
  -17.2610   -9.3468    0.0000 H   0  0  0  0  0  0  0  0  0  0  0  0
  -15.7601  -10.3120    0.0000 H   0  0  0  0  0  0  0  0  0  0  0  0
  -14.3983   -9.1588    0.0000 H   0  0  0  0  0  0  0  0  0  0  0  0
  -17.9576   -8.3046    0.0000 H   0  0  0  0  0  0  0  0  0  0  0  0
  -18.2753   -6.5487    0.0000 H   0  0  0  0  0  0  0  0  0  0  0  0
  -16.5104   -5.7718    0.0000 H   0  0  0  0  0  0  0  0  0  0  0  0
  -12.0043   -8.6363    0.0000 H   0  0  0  0  0  0  0  0  0  0  0  0
   -7.6117   -9.5032    0.0000 H   0  0  0  0  0  0  0  0  0  0  0  0
   -8.8696   -9.5598    0.0000 H   0  0  0  0  0  0  0  0  0  0  0  0
   -6.0228   -9.4261    0.0000 H   0  0  0  0  0  0  0  0  0  0  0  0
   -7.0968   -9.6152    0.0000 H   0  0  0  0  0  0  0  0  0  0  0  0
   -4.3268   -8.9451    0.0000 H   0  0  0  0  0  0  0  0  0  0  0  0
   -5.5284   -9.3215    0.0000 H   0  0  0  0  0  0  0  0  0  0  0  0
   -2.7524   -8.1519    0.0000 H   0  0  0  0  0  0  0  0  0  0  0  0
   -3.8611   -8.7489    0.0000 H   0  0  0  0  0  0  0  0  0  0  0  0
   -1.3567   -7.0750    0.0000 H   0  0  0  0  0  0  0  0  0  0  0  0
   -2.3323   -7.8710    0.0000 H   0  0  0  0  0  0  0  0  0  0  0  0
   -0.1532   -5.5740    0.0000 H   0  0  0  0  0  0  0  0  0  0  0  0
   -0.9972   -6.7197    0.0000 H   0  0  0  0  0  0  0  0  0  0  0  0
    0.5219   -4.8528    0.0000 H   0  0  0  0  0  0  0  0  0  0  0  0
  -10.9096  -10.4339    0.0000 H   0  0  0  0  0  0  0  0  0  0  0  0
  -12.2617   -9.5166    0.0000 H   0  0  0  0  0  0  0  0  0  0  0  0
  -11.9738   -7.9084    0.0000 H   0  0  0  0  0  0  0  0  0  0  0  0
  -11.8771  -10.2701    0.0000 H   0  0  0  0  0  0  0  0  0  0  0  0
   -8.6186  -11.2096    0.0000 H   0  0  0  0  0  0  0  0  0  0  0  0
   -7.8186  -13.9128    0.0000 H   0  0  0  0  0  0  0  0  0  0  0  0
   -8.0364  -11.9968    0.0000 H   0  0  0  0  0  0  0  0  0  0  0  0
  -10.7005  -15.5478    0.0000 H   0  0  0  0  0  0  0  0  0  0  0  0
  -11.1608  -14.3160    0.0000 H   0  0  0  0  0  0  0  0  0  0  0  0
   -6.3935  -16.7026    0.0000 H   0  0  0  0  0  0  0  0  0  0  0  0
   -9.2380  -15.0977    0.0000 H   0  0  0  0  0  0  0  0  0  0  0  0
  -12.4931  -14.2865    0.0000 H   0  0  0  0  0  0  0  0  0  0  0  0
  -13.9765  -17.2492    0.0000 H   0  0  0  0  0  0  0  0  0  0  0  0
  -12.2054  -17.4672    0.0000 H   0  0  0  0  0  0  0  0  0  0  0  0
  -16.7875  -15.1739    0.0000 H   0  0  0  0  0  0  0  0  0  0  0  0
  -15.6288  -17.4993    0.0000 H   0  0  0  0  0  0  0  0  0  0  0  0
   -9.2914  -18.7197    0.0000 H   0  0  0  0  0  0  0  0  0  0  0  0
  1  2  1  0
  2  3  1  0
  3  4  2  0
  4  5  1  0
  5  6  2  0
  6  7  1  0
  7  8  2  0
  7  9  1  0
  9 10  1  0
 10 11  1  0
 11 12  2  0
  9 13  1  0
 13 14  1  0
 14 15  2  0
 15 16  1  0
 16 17  2  0
 17 18  1  0
 16 19  1  0
 14 20  1  0
 20 21  1  0
 21 22  2  0
 22 23  1  0
 23 24  2  0
 24 25  1  0
 25 26  2  0
 25 27  1  0
  1 28  2  0
  1 29  1  0
 29 30  1  0
 30 31  1  0
 31 32  1  0
 32 33  2  0
 32 34  1  0
 34 35  1  0
 35 36  1  0
 36 37  1  0
 37 38  1  0
 37 39  1  0
 35 40  1  0
 40 41  2  0
 40 42  1  0
 42 43  1  0
 43 44  1  0
 44 45  1  0
 43 46  1  0
 46 47  2  0
 46 48  1  0
 49 48  1  1
 49 50  1  0
 50 51  1  0
 51 52  1  0
 52 53  1  0
 49 54  1  0
 49 55  1  0
 55 56  2  0
 55 57  1  0
 57 58  1  0
 58 59  1  0
 59 60  1  0
 60 61  1  0
 61 62  2  0
 61 63  1  0
 58 64  1  0
 64 65  2  0
 64 66  1  0
 66 67  1  0
 67 68  1  0
 68 69  1  0
 68 70  1  0
 67 71  1  0
 71 72  2  0
 71 73  1  0
 73 74  1  0
 74 75  1  0
 74 76  1  0
 76 77  2  0
 76 78  1  0
 78 79  1  0
 79 80  1  0
 80 81  1  0
 81 82  1  0
 82 83  1  0
 79 84  1  0
 84 85  1  0
 85 86  1  0
 86 87  1  0
 79 88  1  0
 88 89  2  0
 88 90  1  0
 90 91  1  0
 91 92  1  0
 92 93  1  0
 93 94  2  0
 93 95  1  0
 91 96  1  0
 96 97  2  0
 96 98  1  0
 98 99  1  0
 99100  1  0
100101  1  0
101102  1  0
101103  1  0
 99104  1  0
104105  2  0
104106  1  0
106107  1  0
107108  1  0
108109  1  0
109110  2  0
110111  1  0
111112  1  0
112113  2  0
113114  1  0
114115  2  0
115116  1  0
116117  2  0
107118  1  0
118119  2  0
118120  1  0
120121  1  0
121122  1  0
122123  1  0
123124  1  0
124125  1  0
125126  1  0
121127  1  0
127128  2  0
127129  1  0
129130  1  0
130131  1  0
131132  1  0
132133  1  0
132134  1  0
130135  1  0
135136  2  0
135137  1  0
137138  1  0
138139  1  0
139140  1  0
140141  1  0
140142  1  0
138143  1  0
143144  2  0
143145  1  0
145146  1  0
146147  1  0
147148  1  0
148149  1  0
149150  1  0
150151  1  0
151152  1  0
152153  1  0
146154  1  0
146155  1  1
155156  2  0
155157  1  0
157158  1  0
158159  1  0
159160  1  0
160161  1  0
161162  2  0
161163  1  0
158164  1  0
164165  2  0
164166  1  0
166167  1  0
167168  1  0
168169  1  0
169170  1  0
169171  2  0
167172  1  0
172173  2  0
172174  1  0
  8  3  1  0
117109  1  0
 11  6  1  0
 53 83  2  0
117112  1  0
 18 13  2  0
 87153  2  0
 22  9  1  0
 26 21  1  0
  2175  1  0
  4176  1  0
  5177  1  0
  8178  1  0
 15179  1  0
 17180  1  0
 18181  1  0
 19182  1  0
 23183  1  0
 24184  1  0
 26185  1  0
 27186  1  0
 29187  1  0
 30188  1  0
 30189  1  0
 31190  1  0
 31191  1  0
 34192  1  0
 35193  1  1
 36194  1  0
 36195  1  0
 37196  1  0
 38197  1  0
 38198  1  0
 38199  1  0
 39200  1  0
 39201  1  0
 39202  1  0
 42203  1  0
 43204  1  1
 44205  1  0
 44206  1  0
 45207  1  0
 48208  1  0
 50209  1  0
 50210  1  0
 51211  1  0
 51212  1  0
 52213  1  0
 52214  1  0
 53215  1  0
 54216  1  0
 54217  1  0
 54218  1  0
 57219  1  0
 58220  1  6
 59221  1  0
 59222  1  0
 60223  1  0
 60224  1  0
 63225  1  0
 66226  1  0
 67227  1  6
 68228  1  1
 69229  1  0
 70230  1  0
 70231  1  0
 70232  1  0
 73233  1  0
 74234  1  6
 75235  1  0
 75236  1  0
 75237  1  0
 78238  1  0
 80239  1  0
 80240  1  0
 81241  1  0
 81242  1  0
 82243  1  0
 82244  1  0
 83245  1  0
 84246  1  0
 84247  1  0
 85248  1  0
 85249  1  0
 86250  1  0
 86251  1  0
 87252  1  0
 90253  1  0
 91254  1  6
 92255  1  0
 92256  1  0
 95257  1  0
 98258  1  0
 99259  1  6
100260  1  0
100261  1  0
101262  1  0
102263  1  0
102264  1  0
102265  1  0
103266  1  0
103267  1  0
103268  1  0
106269  1  0
107270  1  6
108271  1  0
108272  1  0
110273  1  0
111274  1  0
113275  1  0
114276  1  0
115277  1  0
116278  1  0
120279  1  0
121280  1  6
122281  1  0
122282  1  0
123283  1  0
123284  1  0
124285  1  0
124286  1  0
125287  1  0
125288  1  0
126289  1  0
126290  1  0
129291  1  0
130292  1  6
131293  1  0
131294  1  0
132295  1  0
133296  1  0
133297  1  0
133298  1  0
134299  1  0
134300  1  0
134301  1  0
137302  1  0
138303  1  6
139304  1  0
139305  1  0
140306  1  0
141307  1  0
141308  1  0
141309  1  0
142310  1  0
142311  1  0
142312  1  0
145313  1  0
147314  1  0
147315  1  0
148316  1  0
148317  1  0
149318  1  0
149319  1  0
150320  1  0
150321  1  0
151322  1  0
151323  1  0
152324  1  0
152325  1  0
153326  1  0
154327  1  0
154328  1  0
154329  1  0
157330  1  0
158331  1  1
159332  1  0
159333  1  0
160334  1  0
160335  1  0
163336  1  0
166337  1  0
167338  1  6
168339  1  0
168340  1  0
170341  1  0
170342  1  0
174343  1  0
M  END
