
     RDKit          2D

315318  0  0  0  0  0  0  0  0999 V2000
  -25.7744   -3.2664    0.0000 N   0  0  0  0  0  0  0  0  0  0  0  0
  -24.2931   -3.0299    0.0000 C   0  0  0  0  0  0  0  0  0  0  0  0
  -23.3477   -4.1944    0.0000 C   0  0  0  0  0  0  0  0  0  0  0  0
  -21.8664   -3.9578    0.0000 C   0  0  0  0  0  0  0  0  0  0  0  0
  -21.3307   -2.5568    0.0000 O   0  0  0  0  0  0  0  0  0  0  0  0
  -20.9210   -5.1224    0.0000 N   0  0  0  0  0  0  0  0  0  0  0  0
  -19.4397   -4.8858    0.0000 C   0  0  0  0  0  0  0  0  0  0  0  0
  -19.4640   -6.3856    0.0000 C   0  0  0  0  0  0  0  0  0  0  0  0
  -20.7750   -7.1145    0.0000 C   0  0  0  0  0  0  0  0  0  0  0  0
  -20.7992   -8.6143    0.0000 C   0  0  0  0  0  0  0  0  0  0  0  0
  -22.1102   -9.3432    0.0000 O   0  0  0  0  0  0  0  0  0  0  0  0
  -19.5125   -9.3852    0.0000 O   0  0  0  0  0  0  0  0  0  0  0  0
  -18.1287   -4.1569    0.0000 C   0  0  0  0  0  0  0  0  0  0  0  0
  -16.9456   -5.0789    0.0000 O   0  0  0  0  0  0  0  0  0  0  0  0
  -18.1045   -2.6571    0.0000 N   0  0  0  0  0  0  0  0  0  0  0  0
  -16.7935   -1.9282    0.0000 C   0  0  0  0  0  0  0  0  0  0  0  0
  -16.3033   -3.3459    0.0000 C   0  0  0  0  0  0  0  0  0  0  0  0
  -14.8305   -3.6302    0.0000 C   0  0  0  0  0  0  0  0  0  0  0  0
  -14.3403   -5.0478    0.0000 C   0  0  0  0  0  0  0  0  0  0  0  0
  -12.8675   -5.3322    0.0000 N   0  0  0  0  0  0  0  0  0  0  0  0
  -12.3774   -6.7498    0.0000 C   0  0  0  0  0  0  0  0  0  0  0  0
  -10.9045   -7.0341    0.0000 N   0  0  0  0  0  0  0  0  0  0  0  0
  -13.3600   -7.8831    0.0000 N   0  0  0  0  0  0  0  0  0  0  0  0
  -15.8108   -0.7949    0.0000 C   0  0  0  0  0  0  0  0  0  0  0  0
  -14.3380   -1.0792    0.0000 O   0  0  0  0  0  0  0  0  0  0  0  0
  -16.3010    0.6228    0.0000 N   0  0  0  0  0  0  0  0  0  0  0  0
  -15.3184    1.7561    0.0000 C   0  0  0  0  0  0  0  0  0  0  0  0
  -16.6051    2.5270    0.0000 C   0  0  0  0  0  0  0  0  0  0  0  0
  -17.9161    1.7981    0.0000 C   0  0  0  0  0  0  0  0  0  0  0  0
  -19.2029    2.5690    0.0000 C   0  0  0  0  0  0  0  0  0  0  0  0
  -18.8988    0.6648    0.0000 C   0  0  0  0  0  0  0  0  0  0  0  0
  -14.0074    2.4850    0.0000 C   0  0  0  0  0  0  0  0  0  0  0  0
  -14.1877    3.2615    0.0000 O   0  0  0  0  0  0  0  0  0  0  0  0
  -12.7206    1.7141    0.0000 N   0  0  0  0  0  0  0  0  0  0  0  0
  -11.4097    2.4430    0.0000 C   0  0  0  0  0  0  0  0  0  0  0  0
  -12.3551    3.6075    0.0000 C   0  0  0  0  0  0  0  0  0  0  0  0
  -13.8364    3.3709    0.0000 C   0  0  0  0  0  0  0  0  0  0  0  0
  -14.7818    4.5354    0.0000 C   0  0  0  0  0  0  0  0  0  0  0  0
  -16.2631    4.2989    0.0000 N   0  0  0  0  0  0  0  0  0  0  0  0
  -17.2085    5.4634    0.0000 C   0  0  0  0  0  0  0  0  0  0  0  0
  -18.6898    5.2268    0.0000 N   0  0  0  0  0  0  0  0  0  0  0  0
  -16.6728    6.8645    0.0000 N   0  0  0  0  0  0  0  0  0  0  0  0
   -9.9284    2.6795    0.0000 C   0  0  0  0  0  0  0  0  0  0  0  0
   -9.7476    4.1686    0.0000 O   0  0  0  0  0  0  0  0  0  0  0  0
   -8.9829    1.5150    0.0000 N   0  0  0  0  0  0  0  0  0  0  0  0
   -7.5017    1.7516    0.0000 C   0  0  0  0  0  0  0  0  0  0  0  0
   -7.9919    3.1692    0.0000 C   0  0  0  0  0  0  0  0  0  0  0  0
   -9.4647    3.4536    0.0000 C   0  0  0  0  0  0  0  0  0  0  0  0
   -9.9549    4.8712    0.0000 C   0  0  0  0  0  0  0  0  0  0  0  0
  -11.4277    5.1555    0.0000 N   0  0  0  0  0  0  0  0  0  0  0  0
  -11.9178    6.5732    0.0000 C   0  0  0  0  0  0  0  0  0  0  0  0
  -13.3906    6.8575    0.0000 N   0  0  0  0  0  0  0  0  0  0  0  0
  -10.9352    7.7065    0.0000 N   0  0  0  0  0  0  0  0  0  0  0  0
   -6.0289    1.4673    0.0000 C   0  0  0  0  0  0  0  0  0  0  0  0
   -5.3497    2.8047    0.0000 O   0  0  0  0  0  0  0  0  0  0  0  0
   -5.5387    0.0496    0.0000 N   0  0  0  0  0  0  0  0  0  0  0  0
   -4.0659   -0.2347    0.0000 C   0  0  0  0  0  0  0  0  0  0  0  0
   -4.0417    1.2651    0.0000 C   0  0  0  0  0  0  0  0  0  0  0  0
   -5.3284    2.0360    0.0000 C   0  0  0  0  0  0  0  0  0  0  0  0
   -5.3042    3.5358    0.0000 C   0  0  0  0  0  0  0  0  0  0  0  0
   -6.5909    4.3067    0.0000 N   0  0  0  0  0  0  0  0  0  0  0  0
   -6.5666    5.8065    0.0000 C   0  0  0  0  0  0  0  0  0  0  0  0
   -7.8534    6.5774    0.0000 N   0  0  0  0  0  0  0  0  0  0  0  0
   -5.2557    6.5354    0.0000 N   0  0  0  0  0  0  0  0  0  0  0  0
   -2.7792   -1.0056    0.0000 C   0  0  0  0  0  0  0  0  0  0  0  0
   -1.4682   -0.2767    0.0000 O   0  0  0  0  0  0  0  0  0  0  0  0
   -2.8034   -2.5054    0.0000 N   0  0  0  0  0  0  0  0  0  0  0  0
   -1.5167   -3.2763    0.0000 C   0  0  0  0  0  0  0  0  0  0  0  0
   -2.4993   -4.4097    0.0000 C   0  0  0  0  0  0  0  0  0  0  0  0
   -3.9265   -3.9479    0.0000 C   0  0  0  0  0  0  0  0  0  0  0  0
   -3.0351   -5.8107    0.0000 C   0  0  0  0  0  0  0  0  0  0  0  0
   -4.5163   -6.0473    0.0000 C   0  0  0  0  0  0  0  0  0  0  0  0
   -0.0439   -3.5607    0.0000 C   0  0  0  0  0  0  0  0  0  0  0  0
    0.2698   -5.0275    0.0000 O   0  0  0  0  0  0  0  0  0  0  0  0
    0.9387   -2.4273    0.0000 N   0  0  0  0  0  0  0  0  0  0  0  0
    2.4115   -2.7117    0.0000 C   0  0  0  0  0  0  0  0  0  0  0  0
    3.1729   -4.0041    0.0000 C   0  0  0  0  0  0  0  0  0  0  0  0
    4.2814   -5.0147    0.0000 C   0  0  0  0  0  0  0  0  0  0  0  0
    5.6385   -5.6536    0.0000 C   0  0  0  0  0  0  0  0  0  0  0  0
    7.1236   -5.8642    0.0000 C   0  0  0  0  0  0  0  0  0  0  0  0
    1.4037   -3.8226    0.0000 C   0  0  0  0  0  0  0  0  0  0  0  0
    2.0650   -1.2522    0.0000 C   0  0  0  0  0  0  0  0  0  0  0  0
    0.5661   -1.1943    0.0000 O   0  0  0  0  0  0  0  0  0  0  0  0
    2.1639    0.2445    0.0000 N   0  0  0  0  0  0  0  0  0  0  0  0
    2.6997    1.6455    0.0000 C   0  0  0  0  0  0  0  0  0  0  0  0
    1.2023    1.5576    0.0000 C   0  0  0  0  0  0  0  0  0  0  0  0
    0.3774    2.8105    0.0000 C   0  0  0  0  0  0  0  0  0  0  0  0
    1.0500    4.1513    0.0000 C   0  0  0  0  0  0  0  0  0  0  0  0
    0.2252    5.4041    0.0000 C   0  0  0  0  0  0  0  0  0  0  0  0
   -1.2722    5.3162    0.0000 C   0  0  0  0  0  0  0  0  0  0  0  0
   -1.9448    3.9755    0.0000 C   0  0  0  0  0  0  0  0  0  0  0  0
   -1.1200    2.7226    0.0000 C   0  0  0  0  0  0  0  0  0  0  0  0
    3.6246    2.8264    0.0000 C   0  0  0  0  0  0  0  0  0  0  0  0
    2.7354    4.0344    0.0000 O   0  0  0  0  0  0  0  0  0  0  0  0
    4.8565    3.6822    0.0000 N   0  0  0  0  0  0  0  0  0  0  0  0
    6.2860    4.1369    0.0000 C   0  0  0  0  0  0  0  0  0  0  0  0
    5.2836    5.2529    0.0000 C   0  0  0  0  0  0  0  0  0  0  0  0
    5.7489    6.6789    0.0000 S   0  0  0  0  0  0  0  0  0  0  0  0
    7.7859    4.1501    0.0000 C   0  0  0  0  0  0  0  0  0  0  0  0
    7.9965    5.6352    0.0000 O   0  0  0  0  0  0  0  0  0  0  0  0
    9.2231    3.7205    0.0000 N   0  0  0  0  0  0  0  0  0  0  0  0
   10.4698    2.8864    0.0000 C   0  0  0  0  0  0  0  0  0  0  0  0
   10.7173    4.3659    0.0000 C   0  0  0  0  0  0  0  0  0  0  0  0
   12.1223    4.8912    0.0000 C   0  0  0  0  0  0  0  0  0  0  0  0
   12.3698    6.3707    0.0000 C   0  0  0  0  0  0  0  0  0  0  0  0
   13.7748    6.8960    0.0000 N   0  0  0  0  0  0  0  0  0  0  0  0
   14.0223    8.3755    0.0000 C   0  0  0  0  0  0  0  0  0  0  0  0
   15.4273    8.9008    0.0000 N   0  0  0  0  0  0  0  0  0  0  0  0
   12.8649    9.3295    0.0000 N   0  0  0  0  0  0  0  0  0  0  0  0
   11.4153    1.7219    0.0000 C   0  0  0  0  0  0  0  0  0  0  0  0
   12.7077    2.4833    0.0000 O   0  0  0  0  0  0  0  0  0  0  0  0
   11.9755    0.3305    0.0000 N   0  0  0  0  0  0  0  0  0  0  0  0
   12.1007   -1.1643    0.0000 C   0  0  0  0  0  0  0  0  0  0  0  0
   11.7797   -2.6296    0.0000 C   0  0  0  0  0  0  0  0  0  0  0  0
   11.0412   -3.9351    0.0000 C   0  0  0  0  0  0  0  0  0  0  0  0
    9.9506   -4.9650    0.0000 C   0  0  0  0  0  0  0  0  0  0  0  0
    8.6049   -5.6276    0.0000 C   0  0  0  0  0  0  0  0  0  0  0  0
   13.4044   -1.9061    0.0000 C   0  0  0  0  0  0  0  0  0  0  0  0
   13.4117   -0.4354    0.0000 C   0  0  0  0  0  0  0  0  0  0  0  0
   13.6186    1.0503    0.0000 O   0  0  0  0  0  0  0  0  0  0  0  0
   14.6984   -1.2063    0.0000 N   0  0  0  0  0  0  0  0  0  0  0  0
   16.0094   -0.4774    0.0000 C   0  0  0  0  0  0  0  0  0  0  0  0
   16.9921    0.6559    0.0000 C   0  0  0  0  0  0  0  0  0  0  0  0
   18.4649    0.3716    0.0000 C   0  0  0  0  0  0  0  0  0  0  0  0
   19.5606    1.3960    0.0000 C   0  0  0  0  0  0  0  0  0  0  0  0
   20.8734    0.6705    0.0000 N   0  0  0  0  0  0  0  0  0  0  0  0
   20.5891   -0.8023    0.0000 C   0  0  0  0  0  0  0  0  0  0  0  0
   19.1005   -0.9871    0.0000 N   0  0  0  0  0  0  0  0  0  0  0  0
   17.2962   -1.2483    0.0000 C   0  0  0  0  0  0  0  0  0  0  0  0
   17.2719   -2.7481    0.0000 O   0  0  0  0  0  0  0  0  0  0  0  0
   18.6072   -0.5194    0.0000 N   0  0  0  0  0  0  0  0  0  0  0  0
   19.8939   -1.2903    0.0000 C   0  0  0  0  0  0  0  0  0  0  0  0
   20.8394   -2.4548    0.0000 C   0  0  0  0  0  0  0  0  0  0  0  0
   20.3036   -3.8559    0.0000 C   0  0  0  0  0  0  0  0  0  0  0  0
   21.1222   -5.1129    0.0000 C   0  0  0  0  0  0  0  0  0  0  0  0
   20.1797   -6.2798    0.0000 N   0  0  0  0  0  0  0  0  0  0  0  0
   18.7787   -5.7440    0.0000 C   0  0  0  0  0  0  0  0  0  0  0  0
   18.8552   -4.2460    0.0000 N   0  0  0  0  0  0  0  0  0  0  0  0
   21.2049   -0.5614    0.0000 C   0  0  0  0  0  0  0  0  0  0  0  0
   21.5913    0.8879    0.0000 O   0  0  0  0  0  0  0  0  0  0  0  0
   22.4916   -1.3323    0.0000 N   0  0  0  0  0  0  0  0  0  0  0  0
   23.8026   -0.6034    0.0000 C   0  0  0  0  0  0  0  0  0  0  0  0
   24.7853    0.5299    0.0000 C   0  0  0  0  0  0  0  0  0  0  0  0
   26.2621    0.7924    0.0000 O   0  0  0  0  0  0  0  0  0  0  0  0
   25.0894   -1.3744    0.0000 C   0  0  0  0  0  0  0  0  0  0  0  0
   25.0651   -2.8742    0.0000 O   0  0  0  0  0  0  0  0  0  0  0  0
   26.4004   -0.6455    0.0000 N   0  0  0  0  0  0  0  0  0  0  0  0
   27.6871   -1.4164    0.0000 C   0  0  0  0  0  0  0  0  0  0  0  0
   28.6326   -2.5809    0.0000 C   0  0  0  0  0  0  0  0  0  0  0  0
   29.9193   -3.3518    0.0000 O   0  0  0  0  0  0  0  0  0  0  0  0
   28.0968   -3.9819    0.0000 C   0  0  0  0  0  0  0  0  0  0  0  0
   28.9981   -0.6875    0.0000 C   0  0  0  0  0  0  0  0  0  0  0  0
   30.3692   -1.2958    0.0000 O   0  0  0  0  0  0  0  0  0  0  0  0
   29.0224    0.8123    0.0000 O   0  0  0  0  0  0  0  0  0  0  0  0
  -26.7198   -2.1019    0.0000 H   0  0  0  0  0  0  0  0  0  0  0  0
  -26.3101   -4.6675    0.0000 H   0  0  0  0  0  0  0  0  0  0  0  0
  -24.7833   -1.6122    0.0000 H   0  0  0  0  0  0  0  0  0  0  0  0
  -22.9821   -2.3010    0.0000 H   0  0  0  0  0  0  0  0  0  0  0  0
  -24.6587   -4.9233    0.0000 H   0  0  0  0  0  0  0  0  0  0  0  0
  -22.8575   -5.6121    0.0000 H   0  0  0  0  0  0  0  0  0  0  0  0
  -21.6235   -6.4477    0.0000 H   0  0  0  0  0  0  0  0  0  0  0  0
  -19.9299   -3.4682    0.0000 H   0  0  0  0  0  0  0  0  0  0  0  0
  -18.9738   -7.8033    0.0000 H   0  0  0  0  0  0  0  0  0  0  0  0
  -17.9828   -6.1491    0.0000 H   0  0  0  0  0  0  0  0  0  0  0  0
  -22.2562   -7.3511    0.0000 H   0  0  0  0  0  0  0  0  0  0  0  0
  -21.7407   -5.9668    0.0000 H   0  0  0  0  0  0  0  0  0  0  0  0
  -19.3912   -1.8862    0.0000 H   0  0  0  0  0  0  0  0  0  0  0  0
  -17.5900   -0.6571    0.0000 H   0  0  0  0  0  0  0  0  0  0  0  0
  -16.3276   -4.8457    0.0000 H   0  0  0  0  0  0  0  0  0  0  0  0
  -17.6833   -3.9338    0.0000 H   0  0  0  0  0  0  0  0  0  0  0  0
  -13.3493   -3.3936    0.0000 H   0  0  0  0  0  0  0  0  0  0  0  0
  -14.8063   -2.1304    0.0000 H   0  0  0  0  0  0  0  0  0  0  0  0
  -14.3646   -6.5476    0.0000 H   0  0  0  0  0  0  0  0  0  0  0  0
  -15.7817   -5.4632    0.0000 H   0  0  0  0  0  0  0  0  0  0  0  0
  -11.8849   -4.1988    0.0000 H   0  0  0  0  0  0  0  0  0  0  0  0
  -10.4144   -8.4518    0.0000 H   0  0  0  0  0  0  0  0  0  0  0  0
   -9.9219   -5.9008    0.0000 H   0  0  0  0  0  0  0  0  0  0  0  0
  -12.8698   -9.3008    0.0000 H   0  0  0  0  0  0  0  0  0  0  0  0
  -14.8328   -7.5988    0.0000 H   0  0  0  0  0  0  0  0  0  0  0  0
  -17.7975    0.7254    0.0000 H   0  0  0  0  0  0  0  0  0  0  0  0
  -14.3729    0.5916    0.0000 H   0  0  0  0  0  0  0  0  0  0  0  0
  -17.4016    3.7981    0.0000 H   0  0  0  0  0  0  0  0  0  0  0  0
  -15.9259    3.8644    0.0000 H   0  0  0  0  0  0  0  0  0  0  0  0
  -17.4509    0.3721    0.0000 H   0  0  0  0  0  0  0  0  0  0  0  0
  -20.5929    2.0054    0.0000 H   0  0  0  0  0  0  0  0  0  0  0  0
  -20.1483    3.7335    0.0000 H   0  0  0  0  0  0  0  0  0  0  0  0
  -18.3657    3.8137    0.0000 H   0  0  0  0  0  0  0  0  0  0  0  0
  -20.3952    0.7675    0.0000 H   0  0  0  0  0  0  0  0  0  0  0  0
  -19.4345   -0.7363    0.0000 H   0  0  0  0  0  0  0  0  0  0  0  0
  -17.5276    0.0565    0.0000 H   0  0  0  0  0  0  0  0  0  0  0  0
  -12.7449    0.2143    0.0000 H   0  0  0  0  0  0  0  0  0  0  0  0
  -10.9195    1.0253    0.0000 H   0  0  0  0  0  0  0  0  0  0  0  0
  -12.6688    5.0743    0.0000 H   0  0  0  0  0  0  0  0  0  0  0  0
  -11.2595    4.6320    0.0000 H   0  0  0  0  0  0  0  0  0  0  0  0
  -15.1474    2.6420    0.0000 H   0  0  0  0  0  0  0  0  0  0  0  0
  -13.7038    1.8768    0.0000 H   0  0  0  0  0  0  0  0  0  0  0  0
  -15.2720    5.9531    0.0000 H   0  0  0  0  0  0  0  0  0  0  0  0
  -13.5695    5.4187    0.0000 H   0  0  0  0  0  0  0  0  0  0  0  0
  -17.1219    3.0691    0.0000 H   0  0  0  0  0  0  0  0  0  0  0  0
  -19.6352    6.3914    0.0000 H   0  0  0  0  0  0  0  0  0  0  0  0
  -19.2255    3.8258    0.0000 H   0  0  0  0  0  0  0  0  0  0  0  0
  -17.6183    8.0290    0.0000 H   0  0  0  0  0  0  0  0  0  0  0  0
  -15.1916    7.1010    0.0000 H   0  0  0  0  0  0  0  0  0  0  0  0
   -9.5187    0.1140    0.0000 H   0  0  0  0  0  0  0  0  0  0  0  0
   -7.5260    0.2518    0.0000 H   0  0  0  0  0  0  0  0  0  0  0  0
   -7.7850    4.6549    0.0000 H   0  0  0  0  0  0  0  0  0  0  0  0
   -6.6119    3.7572    0.0000 H   0  0  0  0  0  0  0  0  0  0  0  0
  -10.9459    3.2170    0.0000 H   0  0  0  0  0  0  0  0  0  0  0  0
   -9.8511    2.0042    0.0000 H   0  0  0  0  0  0  0  0  0  0  0  0
   -9.9306    6.3710    0.0000 H   0  0  0  0  0  0  0  0  0  0  0  0
   -8.5135    5.2865    0.0000 H   0  0  0  0  0  0  0  0  0  0  0  0
  -12.6553    4.2937    0.0000 H   0  0  0  0  0  0  0  0  0  0  0  0
  -13.8808    8.2752    0.0000 H   0  0  0  0  0  0  0  0  0  0  0  0
  -14.3733    5.7242    0.0000 H   0  0  0  0  0  0  0  0  0  0  0  0
  -11.4254    9.1242    0.0000 H   0  0  0  0  0  0  0  0  0  0  0  0
   -9.4624    7.4222    0.0000 H   0  0  0  0  0  0  0  0  0  0  0  0
   -6.5214   -1.0837    0.0000 H   0  0  0  0  0  0  0  0  0  0  0  0
   -4.6017   -1.6358    0.0000 H   0  0  0  0  0  0  0  0  0  0  0  0
   -3.3391    2.5904    0.0000 H   0  0  0  0  0  0  0  0  0  0  0  0
   -2.6145    0.8034    0.0000 H   0  0  0  0  0  0  0  0  0  0  0  0
   -6.8012    2.3203    0.0000 H   0  0  0  0  0  0  0  0  0  0  0  0
   -6.1873    0.8062    0.0000 H   0  0  0  0  0  0  0  0  0  0  0  0
   -4.7684    4.9369    0.0000 H   0  0  0  0  0  0  0  0  0  0  0  0
   -3.8063    3.6163    0.0000 H   0  0  0  0  0  0  0  0  0  0  0  0
   -8.0393    3.9167    0.0000 H   0  0  0  0  0  0  0  0  0  0  0  0
   -7.8291    8.0772    0.0000 H   0  0  0  0  0  0  0  0  0  0  0  0
   -9.1644    5.8485    0.0000 H   0  0  0  0  0  0  0  0  0  0  0  0
   -5.2314    8.0352    0.0000 H   0  0  0  0  0  0  0  0  0  0  0  0
   -3.9689    5.7645    0.0000 H   0  0  0  0  0  0  0  0  0  0  0  0
   -4.1935   -3.0691    0.0000 H   0  0  0  0  0  0  0  0  0  0  0  0
   -0.9809   -1.8753    0.0000 H   0  0  0  0  0  0  0  0  0  0  0  0
   -1.2126   -5.1806    0.0000 H   0  0  0  0  0  0  0  0  0  0  0  0
   -5.1069   -5.1235    0.0000 H   0  0  0  0  0  0  0  0  0  0  0  0
   -5.2589   -3.3544    0.0000 H   0  0  0  0  0  0  0  0  0  0  0  0
   -3.9742   -2.6253    0.0000 H   0  0  0  0  0  0  0  0  0  0  0  0
   -3.0593   -7.3105    0.0000 H   0  0  0  0  0  0  0  0  0  0  0  0
   -1.5623   -6.0950    0.0000 H   0  0  0  0  0  0  0  0  0  0  0  0
   -5.0521   -7.4483    0.0000 H   0  0  0  0  0  0  0  0  0  0  0  0
   -5.9891   -5.7629    0.0000 H   0  0  0  0  0  0  0  0  0  0  0  0
   -4.8557   -4.5862    0.0000 H   0  0  0  0  0  0  0  0  0  0  0  0
    0.2794   -1.0800    0.0000 H   0  0  0  0  0  0  0  0  0  0  0  0
    2.7076   -5.4301    0.0000 H   0  0  0  0  0  0  0  0  0  0  0  0
    1.7126   -4.3471    0.0000 H   0  0  0  0  0  0  0  0  0  0  0  0
    4.0745   -6.5003    0.0000 H   0  0  0  0  0  0  0  0  0  0  0  0
    2.9871   -5.7728    0.0000 H   0  0  0  0  0  0  0  0  0  0  0  0
    6.0574   -7.0939    0.0000 H   0  0  0  0  0  0  0  0  0  0  0  0
    4.6252   -6.7596    0.0000 H   0  0  0  0  0  0  0  0  0  0  0  0
    7.1368   -7.3641    0.0000 H   0  0  0  0  0  0  0  0  0  0  0  0
    0.0877   -4.1284    0.0000 H   0  0  0  0  0  0  0  0  0  0  0  0
    1.3453   -5.4035    0.0000 H   0  0  0  0  0  0  0  0  0  0  0  0
    2.5340   -5.0638    0.0000 H   0  0  0  0  0  0  0  0  0  0  0  0
    0.6987    0.5654    0.0000 H   0  0  0  0  0  0  0  0  0  0  0  0
    2.0037    2.9743    0.0000 H   0  0  0  0  0  0  0  0  0  0  0  0
   -0.1748    0.9629    0.0000 H   0  0  0  0  0  0  0  0  0  0  0  0
    1.1854    0.0577    0.0000 H   0  0  0  0  0  0  0  0  0  0  0  0
    2.5256    4.4210    0.0000 H   0  0  0  0  0  0  0  0  0  0  0  0
    0.8978    6.7449    0.0000 H   0  0  0  0  0  0  0  0  0  0  0  0
   -2.0970    6.5691    0.0000 H   0  0  0  0  0  0  0  0  0  0  0  0
   -3.4418    4.0708    0.0000 H   0  0  0  0  0  0  0  0  0  0  0  0
   -1.6241    1.3099    0.0000 H   0  0  0  0  0  0  0  0  0  0  0  0
    4.1939    5.0279    0.0000 H   0  0  0  0  0  0  0  0  0  0  0  0
    6.8909    5.5095    0.0000 H   0  0  0  0  0  0  0  0  0  0  0  0
    3.9600    5.9587    0.0000 H   0  0  0  0  0  0  0  0  0  0  0  0
    4.1004    4.3309    0.0000 H   0  0  0  0  0  0  0  0  0  0  0  0
    4.7465    7.7948    0.0000 H   0  0  0  0  0  0  0  0  0  0  0  0
    9.8620    5.0776    0.0000 H   0  0  0  0  0  0  0  0  0  0  0  0
   11.9560    3.0896    0.0000 H   0  0  0  0  0  0  0  0  0  0  0  0
   10.2662    5.7964    0.0000 H   0  0  0  0  0  0  0  0  0  0  0  0
    9.2588    4.7161    0.0000 H   0  0  0  0  0  0  0  0  0  0  0  0
   13.6222    4.9044    0.0000 H   0  0  0  0  0  0  0  0  0  0  0  0
   12.5735    3.4607    0.0000 H   0  0  0  0  0  0  0  0  0  0  0  0
   12.0964    7.8455    0.0000 H   0  0  0  0  0  0  0  0  0  0  0  0
   10.8795    6.5405    0.0000 H   0  0  0  0  0  0  0  0  0  0  0  0
   14.9323    5.9419    0.0000 H   0  0  0  0  0  0  0  0  0  0  0  0
   15.6748   10.3803    0.0000 H   0  0  0  0  0  0  0  0  0  0  0  0
   16.5848    7.9467    0.0000 H   0  0  0  0  0  0  0  0  0  0  0  0
   13.1124   10.8090    0.0000 H   0  0  0  0  0  0  0  0  0  0  0  0
   11.4599    8.8042    0.0000 H   0  0  0  0  0  0  0  0  0  0  0  0
   13.3818    0.8524    0.0000 H   0  0  0  0  0  0  0  0  0  0  0  0
   13.2742   -2.5007    0.0000 H   0  0  0  0  0  0  0  0  0  0  0  0
   12.6660   -3.8398    0.0000 H   0  0  0  0  0  0  0  0  0  0  0  0
   12.5072   -4.2525    0.0000 H   0  0  0  0  0  0  0  0  0  0  0  0
   11.7005   -5.2825    0.0000 H   0  0  0  0  0  0  0  0  0  0  0  0
   11.2579   -5.7003    0.0000 H   0  0  0  0  0  0  0  0  0  0  0  0
   10.0011   -6.4641    0.0000 H   0  0  0  0  0  0  0  0  0  0  0  0
    9.0595   -7.0571    0.0000 H   0  0  0  0  0  0  0  0  0  0  0  0
   14.7502   -1.7869    0.0000 H   0  0  0  0  0  0  0  0  0  0  0  0
   13.9523   -3.3902    0.0000 H   0  0  0  0  0  0  0  0  0  0  0  0
   12.7169   -3.4375    0.0000 H   0  0  0  0  0  0  0  0  0  0  0  0
   14.8572   -2.6979    0.0000 H   0  0  0  0  0  0  0  0  0  0  0  0
   15.0640    0.6871    0.0000 H   0  0  0  0  0  0  0  0  0  0  0  0
   17.5278    2.0570    0.0000 H   0  0  0  0  0  0  0  0  0  0  0  0
   15.7053    1.4268    0.0000 H   0  0  0  0  0  0  0  0  0  0  0  0
   19.3759    2.8846    0.0000 H   0  0  0  0  0  0  0  0  0  0  0  0
   22.2321    1.3061    0.0000 H   0  0  0  0  0  0  0  0  0  0  0  0
   21.7395   -1.7650    0.0000 H   0  0  0  0  0  0  0  0  0  0  0  0
   18.9936    0.9299    0.0000 H   0  0  0  0  0  0  0  0  0  0  0  0
   18.9113   -2.4237    0.0000 H   0  0  0  0  0  0  0  0  0  0  0  0
   22.0226   -3.3768    0.0000 H   0  0  0  0  0  0  0  0  0  0  0  0
   22.1630   -1.7490    0.0000 H   0  0  0  0  0  0  0  0  0  0  0  0
   22.6202   -5.1894    0.0000 H   0  0  0  0  0  0  0  0  0  0  0  0
   20.5698   -7.7282    0.0000 H   0  0  0  0  0  0  0  0  0  0  0  0
   17.5217   -6.5626    0.0000 H   0  0  0  0  0  0  0  0  0  0  0  0
   22.6504   -2.8239    0.0000 H   0  0  0  0  0  0  0  0  0  0  0  0
   22.8572    0.5611    0.0000 H   0  0  0  0  0  0  0  0  0  0  0  0
   25.3210    1.9309    0.0000 H   0  0  0  0  0  0  0  0  0  0  0  0
   23.4985    1.3008    0.0000 H   0  0  0  0  0  0  0  0  0  0  0  0
   27.2407    1.3789    0.0000 H   0  0  0  0  0  0  0  0  0  0  0  0
   26.6073    0.8402    0.0000 H   0  0  0  0  0  0  0  0  0  0  0  0
   26.5737   -2.4215    0.0000 H   0  0  0  0  0  0  0  0  0  0  0  0
   29.7460   -1.5758    0.0000 H   0  0  0  0  0  0  0  0  0  0  0  0
   30.0781   -4.8434    0.0000 H   0  0  0  0  0  0  0  0  0  0  0  0
   28.8933   -5.2530    0.0000 H   0  0  0  0  0  0  0  0  0  0  0  0
   27.1142   -5.1153    0.0000 H   0  0  0  0  0  0  0  0  0  0  0  0
   26.7257   -3.3736    0.0000 H   0  0  0  0  0  0  0  0  0  0  0  0
  1  2  1  0
  2  3  1  0
  3  4  1  0
  4  5  2  0
  4  6  1  0
  6  7  1  0
  7  8  1  0
  8  9  1  0
  9 10  1  0
 10 11  2  0
 10 12  1  0
  7 13  1  0
 13 14  2  0
 13 15  1  0
 15 16  1  0
 16 17  1  0
 17 18  1  0
 18 19  1  0
 19 20  1  0
 20 21  1  0
 21 22  2  3
 21 23  1  0
 16 24  1  0
 24 25  2  0
 24 26  1  0
 26 27  1  0
 27 28  1  0
 28 29  1  0
 29 30  1  0
 29 31  1  0
 27 32  1  0
 32 33  2  0
 32 34  1  0
 34 35  1  0
 35 36  1  0
 36 37  1  0
 37 38  1  0
 38 39  1  0
 39 40  1  0
 40 41  2  3
 40 42  1  0
 35 43  1  0
 43 44  2  0
 43 45  1  0
 45 46  1  0
 46 47  1  0
 47 48  1  0
 48 49  1  0
 49 50  1  0
 50 51  1  0
 51 52  2  3
 51 53  1  0
 46 54  1  0
 54 55  2  0
 54 56  1  0
 56 57  1  0
 57 58  1  0
 58 59  1  0
 59 60  1  0
 60 61  1  0
 61 62  1  0
 62 63  2  3
 62 64  1  0
 57 65  1  0
 65 66  2  0
 65 67  1  0
 67 68  1  0
 68 69  1  0
 69 70  1  0
 69 71  1  0
 71 72  1  0
 68 73  1  0
 73 74  2  0
 73 75  1  0
 76 75  1  6
 76 77  1  0
 77 78  1  0
 78 79  1  0
 79 80  1  0
 76 81  1  0
 76 82  1  0
 82 83  2  0
 82 84  1  0
 84 85  1  0
 85 86  1  0
 86 87  1  0
 87 88  2  0
 88 89  1  0
 89 90  2  0
 90 91  1  0
 91 92  2  0
 85 93  1  0
 93 94  2  0
 93 95  1  0
 95 96  1  0
 96 97  1  0
 97 98  1  0
 96 99  1  0
 99100  2  0
 99101  1  0
101102  1  0
102103  1  0
103104  1  0
104105  1  0
105106  1  0
106107  1  0
107108  2  3
107109  1  0
102110  1  0
110111  2  0
110112  1  0
112113  1  0
113114  1  0
114115  1  0
115116  1  0
116117  1  0
113118  1  0
113119  1  6
119120  2  0
119121  1  0
121122  1  0
122123  1  0
123124  1  0
124125  2  0
125126  1  0
126127  1  0
127128  2  0
122129  1  0
129130  2  0
129131  1  0
131132  1  0
132133  1  0
133134  1  0
134135  2  0
135136  1  0
136137  1  0
137138  2  0
132139  1  0
139140  2  0
139141  1  0
141142  1  0
142143  1  0
143144  1  0
142145  1  0
145146  2  0
145147  1  0
147148  1  0
148149  1  0
149150  1  0
149151  1  0
148152  1  0
152153  2  0
152154  1  0
 92 87  1  0
128124  1  0
138134  1  0
 80117  2  0
  1155  1  0
  1156  1  0
  2157  1  0
  2158  1  0
  3159  1  0
  3160  1  0
  6161  1  0
  7162  1  6
  8163  1  0
  8164  1  0
  9165  1  0
  9166  1  0
 15167  1  0
 16168  1  6
 17169  1  0
 17170  1  0
 18171  1  0
 18172  1  0
 19173  1  0
 19174  1  0
 20175  1  0
 22176  1  0
 22177  1  0
 23178  1  0
 23179  1  0
 26180  1  0
 27181  1  1
 28182  1  0
 28183  1  0
 29184  1  0
 30185  1  0
 30186  1  0
 30187  1  0
 31188  1  0
 31189  1  0
 31190  1  0
 34191  1  0
 35192  1  1
 36193  1  0
 36194  1  0
 37195  1  0
 37196  1  0
 38197  1  0
 38198  1  0
 39199  1  0
 41200  1  0
 41201  1  0
 42202  1  0
 42203  1  0
 45204  1  0
 46205  1  1
 47206  1  0
 47207  1  0
 48208  1  0
 48209  1  0
 49210  1  0
 49211  1  0
 50212  1  0
 52213  1  0
 52214  1  0
 53215  1  0
 53216  1  0
 56217  1  0
 57218  1  1
 58219  1  0
 58220  1  0
 59221  1  0
 59222  1  0
 60223  1  0
 60224  1  0
 61225  1  0
 63226  1  0
 63227  1  0
 64228  1  0
 64229  1  0
 67230  1  0
 68231  1  6
 69232  1  1
 70233  1  0
 70234  1  0
 70235  1  0
 71236  1  0
 71237  1  0
 72238  1  0
 72239  1  0
 72240  1  0
 75241  1  0
 77242  1  0
 77243  1  0
 78244  1  0
 78245  1  0
 79246  1  0
 79247  1  0
 80248  1  0
 81249  1  0
 81250  1  0
 81251  1  0
 84252  1  0
 85253  1  1
 86254  1  0
 86255  1  0
 88256  1  0
 89257  1  0
 90258  1  0
 91259  1  0
 92260  1  0
 95261  1  0
 96262  1  1
 97263  1  0
 97264  1  0
 98265  1  0
101266  1  0
102267  1  1
103268  1  0
103269  1  0
104270  1  0
104271  1  0
105272  1  0
105273  1  0
106274  1  0
108275  1  0
108276  1  0
109277  1  0
109278  1  0
112279  1  0
114280  1  0
114281  1  0
115282  1  0
115283  1  0
116284  1  0
116285  1  0
117286  1  0
118287  1  0
118288  1  0
118289  1  0
121290  1  0
122291  1  1
123292  1  0
123293  1  0
125294  1  0
126295  1  0
127296  1  0
131297  1  0
132298  1  6
133299  1  0
133300  1  0
135301  1  0
136302  1  0
137303  1  0
141304  1  0
142305  1  1
143306  1  0
143307  1  0
144308  1  0
147309  1  0
148310  1  6
149311  1  1
150312  1  0
151313  1  0
151314  1  0
151315  1  0
M  CHG  7  12  -1  22   1  41   1  52   1  63   1 108   1 154  -1
M  END
