
     RDKit          2D

174181  0  0  0  0  0  0  0  0999 V2000
   10.2072   -0.0613    0.0000 C   0  0  0  0  0  0  0  0  0  0  0  0
   11.5789    0.5458    0.0000 N   0  0  0  0  0  0  0  0  0  0  0  0
   12.7905   -0.3385    0.0000 C   0  0  0  0  0  0  0  0  0  0  0  0
   12.6304   -1.8300    0.0000 C   0  0  0  0  0  0  0  0  0  0  0  0
   13.8420   -2.7143    0.0000 C   0  0  0  0  0  0  0  0  0  0  0  0
   15.2137   -2.1072    0.0000 C   0  0  0  0  0  0  0  0  0  0  0  0
   15.3737   -0.6157    0.0000 C   0  0  0  0  0  0  0  0  0  0  0  0
   14.1621    0.2686    0.0000 C   0  0  0  0  0  0  0  0  0  0  0  0
   16.8416   -0.3071    0.0000 C   0  0  0  0  0  0  0  0  0  0  0  0
   17.5888   -1.6078    0.0000 O   0  0  0  0  0  0  0  0  0  0  0  0
   16.5827   -2.7203    0.0000 C   0  0  0  0  0  0  0  0  0  0  0  0
   16.8913   -4.1882    0.0000 O   0  0  0  0  0  0  0  0  0  0  0  0
   18.3337   -0.1536    0.0000 C   0  0  0  0  0  0  0  0  0  0  0  0
   18.9468    1.2154    0.0000 C   0  0  0  0  0  0  0  0  0  0  0  0
   20.4390    1.3690    0.0000 C   0  0  0  0  0  0  0  0  0  0  0  0
   21.3180    0.1535    0.0000 C   0  0  0  0  0  0  0  0  0  0  0  0
   20.7049   -1.2155    0.0000 C   0  0  0  0  0  0  0  0  0  0  0  0
   19.2128   -1.3690    0.0000 C   0  0  0  0  0  0  0  0  0  0  0  0
   22.8101    0.3070    0.0000 O   0  0  0  0  0  0  0  0  0  0  0  0
   18.0678    2.4309    0.0000 O   0  0  0  0  0  0  0  0  0  0  0  0
   16.5757    2.2773    0.0000 C   0  0  0  0  0  0  0  0  0  0  0  0
   15.9626    0.9084    0.0000 C   0  0  0  0  0  0  0  0  0  0  0  0
   14.7566    1.3937    0.0000 C   0  0  0  0  0  0  0  0  0  0  0  0
   14.2878    2.0419    0.0000 C   0  0  0  0  0  0  0  0  0  0  0  0
   14.6148    2.7721    0.0000 C   0  0  0  0  0  0  0  0  0  0  0  0
   15.4106    2.8539    0.0000 C   0  0  0  0  0  0  0  0  0  0  0  0
   13.3255    4.5547    0.0000 O   0  0  0  0  0  0  0  0  0  0  0  0
   10.0472   -1.5527    0.0000 S   0  0  0  0  0  0  0  0  0  0  0  0
    8.9956    0.8230    0.0000 N   0  0  0  0  0  0  0  0  0  0  0  0
    7.6240    0.2159    0.0000 C   0  0  0  0  0  0  0  0  0  0  0  0
    6.4124    1.1002    0.0000 C   0  0  0  0  0  0  0  0  0  0  0  0
    5.0407    0.4931    0.0000 C   0  0  0  0  0  0  0  0  0  0  0  0
    4.8807   -0.9983    0.0000 O   0  0  0  0  0  0  0  0  0  0  0  0
    3.8292    1.3775    0.0000 N   0  0  0  0  0  0  0  0  0  0  0  0
    2.4575    0.7704    0.0000 C   0  0  0  0  0  0  0  0  0  0  0  0
    1.3762   -0.2693    0.0000 C   0  0  0  0  0  0  0  0  0  0  0  0
   -0.0648    0.1473    0.0000 C   0  0  0  0  0  0  0  0  0  0  0  0
   -0.4245    1.6036    0.0000 C   0  0  0  0  0  0  0  0  0  0  0  0
   -1.8655    2.0202    0.0000 C   0  0  0  0  0  0  0  0  0  0  0  0
   -2.9467    0.9805    0.0000 C   0  0  0  0  0  0  0  0  0  0  0  0
   -2.5870   -0.4757    0.0000 C   0  0  0  0  0  0  0  0  0  0  0  0
   -1.1461   -0.8923    0.0000 C   0  0  0  0  0  0  0  0  0  0  0  0
    1.2459    1.6547    0.0000 C   0  0  0  0  0  0  0  0  0  0  0  0
    1.7621    3.0631    0.0000 O   0  0  0  0  0  0  0  0  0  0  0  0
   -0.1257    1.0476    0.0000 N   0  0  0  0  0  0  0  0  0  0  0  0
   -1.3373    1.9319    0.0000 C   0  0  0  0  0  0  0  0  0  0  0  0
   -1.4760    3.4255    0.0000 C   0  0  0  0  0  0  0  0  0  0  0  0
   -2.0487    4.8118    0.0000 C   0  0  0  0  0  0  0  0  0  0  0  0
   -3.0046    5.9678    0.0000 C   0  0  0  0  0  0  0  0  0  0  0  0
   -4.2588    6.7906    0.0000 C   0  0  0  0  0  0  0  0  0  0  0  0
   -0.0330    2.6726    0.0000 C   0  0  0  0  0  0  0  0  0  0  0  0
   -1.6451    0.4638    0.0000 C   0  0  0  0  0  0  0  0  0  0  0  0
   -0.5202   -0.5285    0.0000 O   0  0  0  0  0  0  0  0  0  0  0  0
   -2.3719   -0.8483    0.0000 N   0  0  0  0  0  0  0  0  0  0  0  0
   -3.4532   -1.8880    0.0000 C   0  0  0  0  0  0  0  0  0  0  0  0
   -3.3892   -3.3866    0.0000 C   0  0  0  0  0  0  0  0  0  0  0  0
   -2.0593   -4.0805    0.0000 C   0  0  0  0  0  0  0  0  0  0  0  0
   -1.9953   -5.5791    0.0000 C   0  0  0  0  0  0  0  0  0  0  0  0
   -0.6654   -6.2730    0.0000 N   0  0  0  0  0  0  0  0  0  0  0  0
   -0.6014   -7.7716    0.0000 C   0  0  0  0  0  0  0  0  0  0  0  0
    0.7285   -8.4655    0.0000 N   0  0  0  0  0  0  0  0  0  0  0  0
   -1.8672   -8.5764    0.0000 N   0  0  0  0  0  0  0  0  0  0  0  0
   -4.7929   -2.5627    0.0000 C   0  0  0  0  0  0  0  0  0  0  0  0
   -4.3253   -3.9880    0.0000 O   0  0  0  0  0  0  0  0  0  0  0  0
   -6.2719   -2.8126    0.0000 N   0  0  0  0  0  0  0  0  0  0  0  0
   -7.7589   -2.6154    0.0000 C   0  0  0  0  0  0  0  0  0  0  0  0
   -8.8907   -3.5998    0.0000 C   0  0  0  0  0  0  0  0  0  0  0  0
   -8.6040   -5.0722    0.0000 C   0  0  0  0  0  0  0  0  0  0  0  0
   -9.7357   -6.0566    0.0000 C   0  0  0  0  0  0  0  0  0  0  0  0
   -7.8310   -6.3577    0.0000 C   0  0  0  0  0  0  0  0  0  0  0  0
   -9.1217   -1.9887    0.0000 C   0  0  0  0  0  0  0  0  0  0  0  0
   -9.9445   -3.2428    0.0000 O   0  0  0  0  0  0  0  0  0  0  0  0
  -10.2392   -0.9881    0.0000 N   0  0  0  0  0  0  0  0  0  0  0  0
  -11.0122    0.2974    0.0000 C   0  0  0  0  0  0  0  0  0  0  0  0
  -12.4875    0.5685    0.0000 C   0  0  0  0  0  0  0  0  0  0  0  0
  -13.4599   -0.5736    0.0000 C   0  0  0  0  0  0  0  0  0  0  0  0
  -14.9352   -0.3026    0.0000 C   0  0  0  0  0  0  0  0  0  0  0  0
  -15.9076   -1.4447    0.0000 C   0  0  0  0  0  0  0  0  0  0  0  0
  -15.4047   -2.8579    0.0000 C   0  0  0  0  0  0  0  0  0  0  0  0
  -13.9294   -3.1289    0.0000 C   0  0  0  0  0  0  0  0  0  0  0  0
  -12.9570   -1.9868    0.0000 C   0  0  0  0  0  0  0  0  0  0  0  0
  -11.3719    1.7537    0.0000 C   0  0  0  0  0  0  0  0  0  0  0  0
  -12.8655    1.6150    0.0000 O   0  0  0  0  0  0  0  0  0  0  0  0
  -11.2864    3.2512    0.0000 N   0  0  0  0  0  0  0  0  0  0  0  0
  -10.7632    4.6570    0.0000 C   0  0  0  0  0  0  0  0  0  0  0  0
   -9.8490    5.8462    0.0000 C   0  0  0  0  0  0  0  0  0  0  0  0
   -8.6248    6.7131    0.0000 C   0  0  0  0  0  0  0  0  0  0  0  0
   -7.1995    7.1806    0.0000 C   0  0  0  0  0  0  0  0  0  0  0  0
   -5.6998    7.2072    0.0000 C   0  0  0  0  0  0  0  0  0  0  0  0
  -12.2598    4.5557    0.0000 C   0  0  0  0  0  0  0  0  0  0  0  0
  -11.4711    5.9795    0.0000 C   0  0  0  0  0  0  0  0  0  0  0  0
  -12.9533    6.2100    0.0000 O   0  0  0  0  0  0  0  0  0  0  0  0
  -11.0117    7.4074    0.0000 O   0  0  0  0  0  0  0  0  0  0  0  0
   11.5559    2.0456    0.0000 H   0  0  0  0  0  0  0  0  0  0  0  0
   11.2588   -2.4371    0.0000 H   0  0  0  0  0  0  0  0  0  0  0  0
   13.6820   -4.2057    0.0000 H   0  0  0  0  0  0  0  0  0  0  0  0
   13.9565    1.7544    0.0000 H   0  0  0  0  0  0  0  0  0  0  0  0
   21.0521    2.7379    0.0000 H   0  0  0  0  0  0  0  0  0  0  0  0
   21.5839   -2.4309    0.0000 H   0  0  0  0  0  0  0  0  0  0  0  0
   18.5997   -2.7380    0.0000 H   0  0  0  0  0  0  0  0  0  0  0  0
   23.6891   -0.9084    0.0000 H   0  0  0  0  0  0  0  0  0  0  0  0
   13.8574   -0.6141    0.0000 H   0  0  0  0  0  0  0  0  0  0  0  0
   12.0917    1.9998    0.0000 H   0  0  0  0  0  0  0  0  0  0  0  0
   16.3098    4.8618    0.0000 H   0  0  0  0  0  0  0  0  0  0  0  0
   13.9386    5.9237    0.0000 H   0  0  0  0  0  0  0  0  0  0  0  0
    9.1557    2.3145    0.0000 H   0  0  0  0  0  0  0  0  0  0  0  0
    6.5427   -0.8237    0.0000 H   0  0  0  0  0  0  0  0  0  0  0  0
    8.4601   -1.0295    0.0000 H   0  0  0  0  0  0  0  0  0  0  0  0
    5.5763    2.3456    0.0000 H   0  0  0  0  0  0  0  0  0  0  0  0
    7.4937    2.1399    0.0000 H   0  0  0  0  0  0  0  0  0  0  0  0
    3.9892    2.8689    0.0000 H   0  0  0  0  0  0  0  0  0  0  0  0
    3.2936   -0.4750    0.0000 H   0  0  0  0  0  0  0  0  0  0  0  0
    0.7157   -1.6160    0.0000 H   0  0  0  0  0  0  0  0  0  0  0  0
    2.5878   -1.1536    0.0000 H   0  0  0  0  0  0  0  0  0  0  0  0
    0.8762    2.3507    0.0000 H   0  0  0  0  0  0  0  0  0  0  0  0
   -2.5668    3.3461    0.0000 H   0  0  0  0  0  0  0  0  0  0  0  0
   -4.3877    1.3972    0.0000 H   0  0  0  0  0  0  0  0  0  0  0  0
   -3.8878   -1.2228    0.0000 H   0  0  0  0  0  0  0  0  0  0  0  0
   -0.4447   -2.2182    0.0000 H   0  0  0  0  0  0  0  0  0  0  0  0
   -0.4664   -0.4132    0.0000 H   0  0  0  0  0  0  0  0  0  0  0  0
    0.0184    3.2953    0.0000 H   0  0  0  0  0  0  0  0  0  0  0  0
   -0.4479    4.5177    0.0000 H   0  0  0  0  0  0  0  0  0  0  0  0
   -0.5824    5.1279    0.0000 H   0  0  0  0  0  0  0  0  0  0  0  0
   -1.2290    6.0680    0.0000 H   0  0  0  0  0  0  0  0  0  0  0  0
   -1.6169    6.5371    0.0000 H   0  0  0  0  0  0  0  0  0  0  0  0
   -2.7704    7.4494    0.0000 H   0  0  0  0  0  0  0  0  0  0  0  0
   -3.6321    8.1534    0.0000 H   0  0  0  0  0  0  0  0  0  0  0  0
    0.3404    4.1253    0.0000 H   0  0  0  0  0  0  0  0  0  0  0  0
    1.3417    3.2729    0.0000 H   0  0  0  0  0  0  0  0  0  0  0  0
    0.7970    1.4231    0.0000 H   0  0  0  0  0  0  0  0  0  0  0  0
   -1.3030   -1.9007    0.0000 H   0  0  0  0  0  0  0  0  0  0  0  0
   -2.0032   -2.2721    0.0000 H   0  0  0  0  0  0  0  0  0  0  0  0
   -4.0125   -4.7509    0.0000 H   0  0  0  0  0  0  0  0  0  0  0  0
   -4.8797   -3.5551    0.0000 H   0  0  0  0  0  0  0  0  0  0  0  0
   -0.5723   -4.2777    0.0000 H   0  0  0  0  0  0  0  0  0  0  0  0
   -1.2743   -2.8023    0.0000 H   0  0  0  0  0  0  0  0  0  0  0  0
   -2.4477   -7.0093    0.0000 H   0  0  0  0  0  0  0  0  0  0  0  0
   -3.4952   -5.5647    0.0000 H   0  0  0  0  0  0  0  0  0  0  0  0
    0.6004   -5.4682    0.0000 H   0  0  0  0  0  0  0  0  0  0  0  0
    0.7925   -9.9641    0.0000 H   0  0  0  0  0  0  0  0  0  0  0  0
    1.9943   -7.6607    0.0000 H   0  0  0  0  0  0  0  0  0  0  0  0
   -1.8032  -10.0750    0.0000 H   0  0  0  0  0  0  0  0  0  0  0  0
   -3.1971   -7.8825    0.0000 H   0  0  0  0  0  0  0  0  0  0  0  0
   -6.2453   -4.3123    0.0000 H   0  0  0  0  0  0  0  0  0  0  0  0
   -7.1552   -3.9885    0.0000 H   0  0  0  0  0  0  0  0  0  0  0  0
  -10.3460   -3.9631    0.0000 H   0  0  0  0  0  0  0  0  0  0  0  0
   -9.9517   -2.5395    0.0000 H   0  0  0  0  0  0  0  0  0  0  0  0
   -7.1486   -4.7089    0.0000 H   0  0  0  0  0  0  0  0  0  0  0  0
   -9.6307   -7.5529    0.0000 H   0  0  0  0  0  0  0  0  0  0  0  0
  -11.1360   -6.5946    0.0000 H   0  0  0  0  0  0  0  0  0  0  0  0
  -10.6596   -4.8749    0.0000 H   0  0  0  0  0  0  0  0  0  0  0  0
   -8.3925   -7.7486    0.0000 H   0  0  0  0  0  0  0  0  0  0  0  0
   -6.6650   -7.3013    0.0000 H   0  0  0  0  0  0  0  0  0  0  0  0
   -6.6993   -5.3732    0.0000 H   0  0  0  0  0  0  0  0  0  0  0  0
  -11.2700   -2.0778    0.0000 H   0  0  0  0  0  0  0  0  0  0  0  0
  -11.8660   -0.9358    0.0000 H   0  0  0  0  0  0  0  0  0  0  0  0
  -13.7811    1.3278    0.0000 H   0  0  0  0  0  0  0  0  0  0  0  0
  -12.3201    2.0591    0.0000 H   0  0  0  0  0  0  0  0  0  0  0  0
  -15.4381    1.1106    0.0000 H   0  0  0  0  0  0  0  0  0  0  0  0
  -17.3829   -1.1736    0.0000 H   0  0  0  0  0  0  0  0  0  0  0  0
  -16.3771   -4.0000    0.0000 H   0  0  0  0  0  0  0  0  0  0  0  0
  -13.4265   -4.5421    0.0000 H   0  0  0  0  0  0  0  0  0  0  0  0
  -11.5257   -2.4357    0.0000 H   0  0  0  0  0  0  0  0  0  0  0  0
  -12.7544    3.5590    0.0000 H   0  0  0  0  0  0  0  0  0  0  0  0
  -10.1356    7.3186    0.0000 H   0  0  0  0  0  0  0  0  0  0  0  0
  -11.1822    6.5335    0.0000 H   0  0  0  0  0  0  0  0  0  0  0  0
   -8.6478    8.2129    0.0000 H   0  0  0  0  0  0  0  0  0  0  0  0
   -9.6963    7.7628    0.0000 H   0  0  0  0  0  0  0  0  0  0  0  0
   -6.6070    8.5586    0.0000 H   0  0  0  0  0  0  0  0  0  0  0  0
   -8.0694    8.4026    0.0000 H   0  0  0  0  0  0  0  0  0  0  0  0
   -5.5026    8.6942    0.0000 H   0  0  0  0  0  0  0  0  0  0  0  0
  -13.2414    5.6899    0.0000 H   0  0  0  0  0  0  0  0  0  0  0  0
  -13.6315    3.9486    0.0000 H   0  0  0  0  0  0  0  0  0  0  0  0
  -12.2632    3.0557    0.0000 H   0  0  0  0  0  0  0  0  0  0  0  0
  1  2  1  0
  2  3  1  0
  3  4  2  0
  4  5  1  0
  5  6  2  0
  6  7  1  0
  7  8  2  0
  7  9  1  0
  9 10  1  0
 10 11  1  0
 11 12  2  0
  9 13  1  0
 13 14  1  0
 14 15  2  0
 15 16  1  0
 16 17  2  0
 17 18  1  0
 16 19  1  0
 14 20  1  0
 20 21  1  0
 21 22  2  0
 22 23  1  0
 23 24  2  0
 24 25  1  0
 25 26  2  0
 25 27  1  0
  1 28  2  0
  1 29  1  0
 29 30  1  0
 30 31  1  0
 31 32  1  0
 32 33  2  0
 32 34  1  0
 34 35  1  0
 35 36  1  0
 36 37  1  0
 37 38  2  0
 38 39  1  0
 39 40  2  0
 40 41  1  0
 41 42  2  0
 35 43  1  0
 43 44  2  0
 43 45  1  0
 46 45  1  6
 46 47  1  0
 47 48  1  0
 48 49  1  0
 49 50  1  0
 46 51  1  0
 46 52  1  0
 52 53  2  0
 52 54  1  0
 54 55  1  0
 55 56  1  0
 56 57  1  0
 57 58  1  0
 58 59  1  0
 59 60  1  0
 60 61  2  3
 60 62  1  0
 55 63  1  0
 63 64  2  0
 63 65  1  0
 65 66  1  0
 66 67  1  0
 67 68  1  0
 68 69  1  0
 68 70  1  0
 66 71  1  0
 71 72  2  0
 71 73  1  0
 73 74  1  0
 74 75  1  0
 75 76  1  0
 76 77  2  0
 77 78  1  0
 78 79  2  0
 79 80  1  0
 80 81  2  0
 74 82  1  0
 82 83  2  0
 82 84  1  0
 84 85  1  0
 85 86  1  0
 86 87  1  0
 87 88  1  0
 88 89  1  0
 85 90  1  0
 85 91  1  6
 91 92  2  0
 91 93  1  0
  8  3  1  0
 42 37  1  0
 81 76  1  0
 11  6  1  0
 50 89  2  0
 18 13  2  0
 22  9  1  0
 26 21  1  0
  2 94  1  0
  4 95  1  0
  5 96  1  0
  8 97  1  0
 15 98  1  0
 17 99  1  0
 18100  1  0
 19101  1  0
 23102  1  0
 24103  1  0
 26104  1  0
 27105  1  0
 29106  1  0
 30107  1  0
 30108  1  0
 31109  1  0
 31110  1  0
 34111  1  0
 35112  1  1
 36113  1  0
 36114  1  0
 38115  1  0
 39116  1  0
 40117  1  0
 41118  1  0
 42119  1  0
 45120  1  0
 47121  1  0
 47122  1  0
 48123  1  0
 48124  1  0
 49125  1  0
 49126  1  0
 50127  1  0
 51128  1  0
 51129  1  0
 51130  1  0
 54131  1  0
 55132  1  1
 56133  1  0
 56134  1  0
 57135  1  0
 57136  1  0
 58137  1  0
 58138  1  0
 59139  1  0
 61140  1  0
 61141  1  0
 62142  1  0
 62143  1  0
 65144  1  0
 66145  1  1
 67146  1  0
 67147  1  0
 68148  1  0
 69149  1  0
 69150  1  0
 69151  1  0
 70152  1  0
 70153  1  0
 70154  1  0
 73155  1  0
 74156  1  1
 75157  1  0
 75158  1  0
 77159  1  0
 78160  1  0
 79161  1  0
 80162  1  0
 81163  1  0
 84164  1  0
 86165  1  0
 86166  1  0
 87167  1  0
 87168  1  0
 88169  1  0
 88170  1  0
 89171  1  0
 90172  1  0
 90173  1  0
 90174  1  0
M  CHG  2  61   1  93  -1
M  END
