
     RDKit          2D

287295  0  0  0  0  0  0  0  0999 V2000
  -23.6291   -2.6324    0.0000 C   0  0  0  0  0  0  0  0  0  0  0  0
  -24.6173   -3.7609    0.0000 N   0  0  0  0  0  0  0  0  0  0  0  0
  -26.0887   -3.4694    0.0000 C   0  0  0  0  0  0  0  0  0  0  0  0
  -26.5719   -2.0494    0.0000 C   0  0  0  0  0  0  0  0  0  0  0  0
  -28.0433   -1.7579    0.0000 C   0  0  0  0  0  0  0  0  0  0  0  0
  -29.0315   -2.8864    0.0000 C   0  0  0  0  0  0  0  0  0  0  0  0
  -28.5482   -4.3065    0.0000 C   0  0  0  0  0  0  0  0  0  0  0  0
  -27.0768   -4.5980    0.0000 C   0  0  0  0  0  0  0  0  0  0  0  0
  -29.7494   -5.2049    0.0000 C   0  0  0  0  0  0  0  0  0  0  0  0
  -30.9750   -4.3401    0.0000 O   0  0  0  0  0  0  0  0  0  0  0  0
  -30.5313   -2.9072    0.0000 C   0  0  0  0  0  0  0  0  0  0  0  0
  -31.4297   -1.7060    0.0000 O   0  0  0  0  0  0  0  0  0  0  0  0
  -31.0379   -5.9728    0.0000 C   0  0  0  0  0  0  0  0  0  0  0  0
  -31.0171   -7.4727    0.0000 C   0  0  0  0  0  0  0  0  0  0  0  0
  -32.3056   -8.2406    0.0000 C   0  0  0  0  0  0  0  0  0  0  0  0
  -33.6150   -7.5087    0.0000 C   0  0  0  0  0  0  0  0  0  0  0  0
  -33.6357   -6.0088    0.0000 C   0  0  0  0  0  0  0  0  0  0  0  0
  -32.3472   -5.2409    0.0000 C   0  0  0  0  0  0  0  0  0  0  0  0
  -34.9035   -8.2766    0.0000 O   0  0  0  0  0  0  0  0  0  0  0  0
  -29.7078   -8.2046    0.0000 O   0  0  0  0  0  0  0  0  0  0  0  0
  -28.4193   -7.4366    0.0000 C   0  0  0  0  0  0  0  0  0  0  0  0
  -28.4401   -5.9368    0.0000 C   0  0  0  0  0  0  0  0  0  0  0  0
  -27.1419   -5.8688    0.0000 C   0  0  0  0  0  0  0  0  0  0  0  0
  -26.4436   -6.2591    0.0000 C   0  0  0  0  0  0  0  0  0  0  0  0
  -26.4325   -7.0591    0.0000 C   0  0  0  0  0  0  0  0  0  0  0  0
  -27.1197   -7.4686    0.0000 C   0  0  0  0  0  0  0  0  0  0  0  0
  -24.5122   -8.1326    0.0000 O   0  0  0  0  0  0  0  0  0  0  0  0
  -24.1124   -1.2124    0.0000 S   0  0  0  0  0  0  0  0  0  0  0  0
  -22.1577   -2.9239    0.0000 N   0  0  0  0  0  0  0  0  0  0  0  0
  -21.1696   -1.7954    0.0000 C   0  0  0  0  0  0  0  0  0  0  0  0
  -19.6982   -2.0869    0.0000 C   0  0  0  0  0  0  0  0  0  0  0  0
  -18.7100   -0.9584    0.0000 C   0  0  0  0  0  0  0  0  0  0  0  0
  -19.1933    0.4617    0.0000 O   0  0  0  0  0  0  0  0  0  0  0  0
  -17.2386   -1.2499    0.0000 N   0  0  0  0  0  0  0  0  0  0  0  0
  -16.2505   -0.1213    0.0000 C   0  0  0  0  0  0  0  0  0  0  0  0
  -15.7079    1.2771    0.0000 C   0  0  0  0  0  0  0  0  0  0  0  0
  -14.7791   -0.4128    0.0000 C   0  0  0  0  0  0  0  0  0  0  0  0
  -14.4725   -1.8812    0.0000 O   0  0  0  0  0  0  0  0  0  0  0  0
  -13.7909    0.7157    0.0000 N   0  0  0  0  0  0  0  0  0  0  0  0
  -12.3195    0.4242    0.0000 C   0  0  0  0  0  0  0  0  0  0  0  0
  -11.5645   -0.8719    0.0000 C   0  0  0  0  0  0  0  0  0  0  0  0
  -10.4609   -1.8879    0.0000 C   0  0  0  0  0  0  0  0  0  0  0  0
   -9.1070   -2.5335    0.0000 C   0  0  0  0  0  0  0  0  0  0  0  0
   -7.6228   -2.7512    0.0000 C   0  0  0  0  0  0  0  0  0  0  0  0
  -13.3328   -0.6818    0.0000 C   0  0  0  0  0  0  0  0  0  0  0  0
  -12.6590    1.8853    0.0000 C   0  0  0  0  0  0  0  0  0  0  0  0
  -14.1384    2.1327    0.0000 O   0  0  0  0  0  0  0  0  0  0  0  0
  -12.5527    3.3815    0.0000 N   0  0  0  0  0  0  0  0  0  0  0  0
  -12.0101    4.7799    0.0000 C   0  0  0  0  0  0  0  0  0  0  0  0
  -12.6996    6.1121    0.0000 C   0  0  0  0  0  0  0  0  0  0  0  0
  -12.8919    7.5997    0.0000 O   0  0  0  0  0  0  0  0  0  0  0  0
  -14.1980    6.1810    0.0000 C   0  0  0  0  0  0  0  0  0  0  0  0
  -11.0795    5.9563    0.0000 C   0  0  0  0  0  0  0  0  0  0  0  0
  -12.1040    7.0519    0.0000 O   0  0  0  0  0  0  0  0  0  0  0  0
   -9.8434    6.8061    0.0000 N   0  0  0  0  0  0  0  0  0  0  0  0
   -8.4118    7.2538    0.0000 C   0  0  0  0  0  0  0  0  0  0  0  0
   -7.8002    8.6235    0.0000 C   0  0  0  0  0  0  0  0  0  0  0  0
   -8.6805    9.8380    0.0000 C   0  0  0  0  0  0  0  0  0  0  0  0
   -8.0689   11.2076    0.0000 C   0  0  0  0  0  0  0  0  0  0  0  0
   -9.9231   10.6781    0.0000 C   0  0  0  0  0  0  0  0  0  0  0  0
   -6.9118    7.2596    0.0000 C   0  0  0  0  0  0  0  0  0  0  0  0
   -6.6940    8.7438    0.0000 O   0  0  0  0  0  0  0  0  0  0  0  0
   -5.4767    6.8231    0.0000 N   0  0  0  0  0  0  0  0  0  0  0  0
   -4.2341    5.9829    0.0000 C   0  0  0  0  0  0  0  0  0  0  0  0
   -2.7819    6.3587    0.0000 C   0  0  0  0  0  0  0  0  0  0  0  0
   -2.3813    7.8042    0.0000 C   0  0  0  0  0  0  0  0  0  0  0  0
   -0.9291    8.1800    0.0000 C   0  0  0  0  0  0  0  0  0  0  0  0
   -0.5285    9.6255    0.0000 C   0  0  0  0  0  0  0  0  0  0  0  0
   -1.5800   10.6952    0.0000 C   0  0  0  0  0  0  0  0  0  0  0  0
   -3.0322   10.3195    0.0000 C   0  0  0  0  0  0  0  0  0  0  0  0
   -3.4328    8.8740    0.0000 C   0  0  0  0  0  0  0  0  0  0  0  0
   -3.2943    4.8138    0.0000 C   0  0  0  0  0  0  0  0  0  0  0  0
   -1.9982    5.5689    0.0000 O   0  0  0  0  0  0  0  0  0  0  0  0
   -2.7408    3.4197    0.0000 N   0  0  0  0  0  0  0  0  0  0  0  0
   -2.6229    1.9243    0.0000 C   0  0  0  0  0  0  0  0  0  0  0  0
   -2.9510    0.4606    0.0000 C   0  0  0  0  0  0  0  0  0  0  0  0
   -3.6960   -0.8413    0.0000 C   0  0  0  0  0  0  0  0  0  0  0  0
   -4.7916   -1.8658    0.0000 C   0  0  0  0  0  0  0  0  0  0  0  0
   -6.1405   -2.5219    0.0000 C   0  0  0  0  0  0  0  0  0  0  0  0
   -1.3084    2.6468    0.0000 C   0  0  0  0  0  0  0  0  0  0  0  0
   -1.4237    1.0233    0.0000 C   0  0  0  0  0  0  0  0  0  0  0  0
   -1.2388   -0.4653    0.0000 O   0  0  0  0  0  0  0  0  0  0  0  0
   -0.0438    1.6113    0.0000 N   0  0  0  0  0  0  0  0  0  0  0  0
    1.1554    0.7102    0.0000 C   0  0  0  0  0  0  0  0  0  0  0  0
    1.9741   -0.5466    0.0000 C   0  0  0  0  0  0  0  0  0  0  0  0
    3.0546   -1.5871    0.0000 O   0  0  0  0  0  0  0  0  0  0  0  0
    1.2950   -1.8841    0.0000 C   0  0  0  0  0  0  0  0  0  0  0  0
    2.5354    1.2983    0.0000 C   0  0  0  0  0  0  0  0  0  0  0  0
    2.7161    2.7873    0.0000 O   0  0  0  0  0  0  0  0  0  0  0  0
    3.7346    0.3972    0.0000 N   0  0  0  0  0  0  0  0  0  0  0  0
    5.1145    0.9852    0.0000 C   0  0  0  0  0  0  0  0  0  0  0  0
    6.2101    2.0098    0.0000 C   0  0  0  0  0  0  0  0  0  0  0  0
    7.6452    1.5732    0.0000 C   0  0  0  0  0  0  0  0  0  0  0  0
    7.9847    0.1121    0.0000 C   0  0  0  0  0  0  0  0  0  0  0  0
    9.4197   -0.3244    0.0000 C   0  0  0  0  0  0  0  0  0  0  0  0
   10.5153    0.7001    0.0000 C   0  0  0  0  0  0  0  0  0  0  0  0
   10.1759    2.1612    0.0000 C   0  0  0  0  0  0  0  0  0  0  0  0
    8.7408    2.5977    0.0000 C   0  0  0  0  0  0  0  0  0  0  0  0
    6.3137    0.0842    0.0000 C   0  0  0  0  0  0  0  0  0  0  0  0
    5.7781   -1.3169    0.0000 O   0  0  0  0  0  0  0  0  0  0  0  0
    7.6937    0.6722    0.0000 N   0  0  0  0  0  0  0  0  0  0  0  0
    8.8929   -0.2288    0.0000 C   0  0  0  0  0  0  0  0  0  0  0  0
    9.7116   -1.4857    0.0000 C   0  0  0  0  0  0  0  0  0  0  0  0
    9.0325   -2.8232    0.0000 C   0  0  0  0  0  0  0  0  0  0  0  0
    7.5346   -2.9038    0.0000 C   0  0  0  0  0  0  0  0  0  0  0  0
    6.8555   -4.2412    0.0000 C   0  0  0  0  0  0  0  0  0  0  0  0
    7.6742   -5.4981    0.0000 C   0  0  0  0  0  0  0  0  0  0  0  0
    6.9951   -6.8355    0.0000 O   0  0  0  0  0  0  0  0  0  0  0  0
    9.1721   -5.4175    0.0000 C   0  0  0  0  0  0  0  0  0  0  0  0
    9.8512   -4.0800    0.0000 C   0  0  0  0  0  0  0  0  0  0  0  0
   10.2728    0.3592    0.0000 C   0  0  0  0  0  0  0  0  0  0  0  0
   10.8085    1.7603    0.0000 O   0  0  0  0  0  0  0  0  0  0  0  0
   11.4720   -0.5419    0.0000 N   0  0  0  0  0  0  0  0  0  0  0  0
   12.8520    0.0462    0.0000 C   0  0  0  0  0  0  0  0  0  0  0  0
   13.9476    1.0707    0.0000 C   0  0  0  0  0  0  0  0  0  0  0  0
   15.3826    0.6341    0.0000 C   0  0  0  0  0  0  0  0  0  0  0  0
   16.4782    1.6587    0.0000 C   0  0  0  0  0  0  0  0  0  0  0  0
   16.5818   -0.2669    0.0000 C   0  0  0  0  0  0  0  0  0  0  0  0
   14.0512   -0.8549    0.0000 C   0  0  0  0  0  0  0  0  0  0  0  0
   13.8705   -2.3440    0.0000 O   0  0  0  0  0  0  0  0  0  0  0  0
   15.4311   -0.2669    0.0000 N   0  0  0  0  0  0  0  0  0  0  0  0
   16.6303   -1.1679    0.0000 C   0  0  0  0  0  0  0  0  0  0  0  0
   18.0103   -0.5799    0.0000 C   0  0  0  0  0  0  0  0  0  0  0  0
   18.3712    0.8760    0.0000 O   0  0  0  0  0  0  0  0  0  0  0  0
   19.2095   -1.4809    0.0000 N   0  0  0  0  0  0  0  0  0  0  0  0
   20.5894   -0.8929    0.0000 C   0  0  0  0  0  0  0  0  0  0  0  0
   21.7886   -1.7940    0.0000 C   0  0  0  0  0  0  0  0  0  0  0  0
   21.6079   -3.2830    0.0000 O   0  0  0  0  0  0  0  0  0  0  0  0
   23.1686   -1.2059    0.0000 N   0  0  0  0  0  0  0  0  0  0  0  0
   24.3678   -2.1070    0.0000 C   0  0  0  0  0  0  0  0  0  0  0  0
   25.1865   -3.3639    0.0000 C   0  0  0  0  0  0  0  0  0  0  0  0
   24.5074   -4.7013    0.0000 C   0  0  0  0  0  0  0  0  0  0  0  0
   25.3261   -5.9582    0.0000 C   0  0  0  0  0  0  0  0  0  0  0  0
   23.4118   -5.7258    0.0000 C   0  0  0  0  0  0  0  0  0  0  0  0
   25.7477   -1.5190    0.0000 C   0  0  0  0  0  0  0  0  0  0  0  0
   25.9284   -0.0299    0.0000 O   0  0  0  0  0  0  0  0  0  0  0  0
   26.9469   -2.4200    0.0000 N   0  0  0  0  0  0  0  0  0  0  0  0
   28.3269   -1.8320    0.0000 C   0  0  0  0  0  0  0  0  0  0  0  0
   29.4225   -0.8075    0.0000 C   0  0  0  0  0  0  0  0  0  0  0  0
   30.8575   -1.2440    0.0000 C   0  0  0  0  0  0  0  0  0  0  0  0
   31.9531   -0.2195    0.0000 C   0  0  0  0  0  0  0  0  0  0  0  0
   32.0567   -2.1451    0.0000 C   0  0  0  0  0  0  0  0  0  0  0  0
   29.5261   -2.7330    0.0000 C   0  0  0  0  0  0  0  0  0  0  0  0
   29.3454   -4.2221    0.0000 O   0  0  0  0  0  0  0  0  0  0  0  0
   30.9060   -2.1450    0.0000 N   0  0  0  0  0  0  0  0  0  0  0  0
   32.1052   -3.0461    0.0000 C   0  0  0  0  0  0  0  0  0  0  0  0
   33.4852   -2.4580    0.0000 C   0  0  0  0  0  0  0  0  0  0  0  0
   34.6844   -3.3591    0.0000 O   0  0  0  0  0  0  0  0  0  0  0  0
   33.8461   -1.0021    0.0000 O   0  0  0  0  0  0  0  0  0  0  0  0
  -23.9645   -5.1115    0.0000 H   0  0  0  0  0  0  0  0  0  0  0  0
  -25.5838   -0.9209    0.0000 H   0  0  0  0  0  0  0  0  0  0  0  0
  -28.5266   -0.3379    0.0000 H   0  0  0  0  0  0  0  0  0  0  0  0
  -26.2643   -5.8588    0.0000 H   0  0  0  0  0  0  0  0  0  0  0  0
  -32.2848   -9.7405    0.0000 H   0  0  0  0  0  0  0  0  0  0  0  0
  -34.9451   -5.2769    0.0000 H   0  0  0  0  0  0  0  0  0  0  0  0
  -32.3680   -3.7410    0.0000 H   0  0  0  0  0  0  0  0  0  0  0  0
  -36.2128   -7.5447    0.0000 H   0  0  0  0  0  0  0  0  0  0  0  0
  -27.1724   -3.6690    0.0000 H   0  0  0  0  0  0  0  0  0  0  0  0
  -24.4698   -5.2956    0.0000 H   0  0  0  0  0  0  0  0  0  0  0  0
  -27.0892   -9.6684    0.0000 H   0  0  0  0  0  0  0  0  0  0  0  0
  -24.4914   -9.6324    0.0000 H   0  0  0  0  0  0  0  0  0  0  0  0
  -21.6745   -4.3439    0.0000 H   0  0  0  0  0  0  0  0  0  0  0  0
  -20.6270   -0.3970    0.0000 H   0  0  0  0  0  0  0  0  0  0  0  0
  -22.4525   -1.0182    0.0000 H   0  0  0  0  0  0  0  0  0  0  0  0
  -18.4152   -2.8640    0.0000 H   0  0  0  0  0  0  0  0  0  0  0  0
  -20.2407   -3.4853    0.0000 H   0  0  0  0  0  0  0  0  0  0  0  0
  -16.7554   -2.6699    0.0000 H   0  0  0  0  0  0  0  0  0  0  0  0
  -17.5334    0.6558    0.0000 H   0  0  0  0  0  0  0  0  0  0  0  0
  -14.5068    2.1756    0.0000 H   0  0  0  0  0  0  0  0  0  0  0  0
  -15.6763    2.7768    0.0000 H   0  0  0  0  0  0  0  0  0  0  0  0
  -17.1793    1.5686    0.0000 H   0  0  0  0  0  0  0  0  0  0  0  0
  -14.2742    2.1357    0.0000 H   0  0  0  0  0  0  0  0  0  0  0  0
  -13.0264   -1.2078    0.0000 H   0  0  0  0  0  0  0  0  0  0  0  0
  -12.0367   -2.2957    0.0000 H   0  0  0  0  0  0  0  0  0  0  0  0
  -11.6576   -2.7923    0.0000 H   0  0  0  0  0  0  0  0  0  0  0  0
  -10.6751   -3.3725    0.0000 H   0  0  0  0  0  0  0  0  0  0  0  0
  -10.1256   -3.6345    0.0000 H   0  0  0  0  0  0  0  0  0  0  0  0
   -8.6951   -3.9758    0.0000 H   0  0  0  0  0  0  0  0  0  0  0  0
   -7.6170   -4.2512    0.0000 H   0  0  0  0  0  0  0  0  0  0  0  0
  -12.9490   -2.3030    0.0000 H   0  0  0  0  0  0  0  0  0  0  0  0
  -14.3007   -1.7730    0.0000 H   0  0  0  0  0  0  0  0  0  0  0  0
  -14.4458    0.0243    0.0000 H   0  0  0  0  0  0  0  0  0  0  0  0
  -14.0164    3.7096    0.0000 H   0  0  0  0  0  0  0  0  0  0  0  0
  -13.4870    4.5174    0.0000 H   0  0  0  0  0  0  0  0  0  0  0  0
  -11.4189    6.8929    0.0000 H   0  0  0  0  0  0  0  0  0  0  0  0
  -14.1957    8.3414    0.0000 H   0  0  0  0  0  0  0  0  0  0  0  0
  -15.0448    7.4192    0.0000 H   0  0  0  0  0  0  0  0  0  0  0  0
  -15.6297    5.7333    0.0000 H   0  0  0  0  0  0  0  0  0  0  0  0
  -14.1885    4.6810    0.0000 H   0  0  0  0  0  0  0  0  0  0  0  0
  -10.4995    8.1550    0.0000 H   0  0  0  0  0  0  0  0  0  0  0  0
   -9.5379    8.2447    0.0000 H   0  0  0  0  0  0  0  0  0  0  0  0
   -6.6334    9.5661    0.0000 H   0  0  0  0  0  0  0  0  0  0  0  0
   -6.3912    8.1090    0.0000 H   0  0  0  0  0  0  0  0  0  0  0  0
   -9.8473    8.8953    0.0000 H   0  0  0  0  0  0  0  0  0  0  0  0
   -8.7946   12.5203    0.0000 H   0  0  0  0  0  0  0  0  0  0  0  0
   -7.0257   12.2855    0.0000 H   0  0  0  0  0  0  0  0  0  0  0  0
   -6.7331   10.5252    0.0000 H   0  0  0  0  0  0  0  0  0  0  0  0
  -10.0000   12.1761    0.0000 H   0  0  0  0  0  0  0  0  0  0  0  0
  -11.3782   11.0426    0.0000 H   0  0  0  0  0  0  0  0  0  0  0  0
  -10.5347    9.3085    0.0000 H   0  0  0  0  0  0  0  0  0  0  0  0
   -5.0010    8.2457    0.0000 H   0  0  0  0  0  0  0  0  0  0  0  0
   -3.9794    7.4612    0.0000 H   0  0  0  0  0  0  0  0  0  0  0  0
   -1.2888    6.2152    0.0000 H   0  0  0  0  0  0  0  0  0  0  0  0
   -2.3057    4.9363    0.0000 H   0  0  0  0  0  0  0  0  0  0  0  0
    0.1224    7.1103    0.0000 H   0  0  0  0  0  0  0  0  0  0  0  0
    0.9237   10.0013    0.0000 H   0  0  0  0  0  0  0  0  0  0  0  0
   -1.1793   12.1407    0.0000 H   0  0  0  0  0  0  0  0  0  0  0  0
   -4.0837   11.3892    0.0000 H   0  0  0  0  0  0  0  0  0  0  0  0
   -4.9199    8.6780    0.0000 H   0  0  0  0  0  0  0  0  0  0  0  0
   -1.2798    3.7591    0.0000 H   0  0  0  0  0  0  0  0  0  0  0  0
   -2.0707   -0.7539    0.0000 H   0  0  0  0  0  0  0  0  0  0  0  0
   -1.4523    0.3991    0.0000 H   0  0  0  0  0  0  0  0  0  0  0  0
   -3.0432   -2.1918    0.0000 H   0  0  0  0  0  0  0  0  0  0  0  0
   -2.2820   -1.3419    0.0000 H   0  0  0  0  0  0  0  0  0  0  0  0
   -4.7483   -3.3652    0.0000 H   0  0  0  0  0  0  0  0  0  0  0  0
   -3.4878   -2.6076    0.0000 H   0  0  0  0  0  0  0  0  0  0  0  0
   -5.6928   -3.9535    0.0000 H   0  0  0  0  0  0  0  0  0  0  0  0
    0.1245    2.2032    0.0000 H   0  0  0  0  0  0  0  0  0  0  0  0
   -0.4652    3.8874    0.0000 H   0  0  0  0  0  0  0  0  0  0  0  0
   -1.9374    4.0086    0.0000 H   0  0  0  0  0  0  0  0  0  0  0  0
    0.3171    3.0672    0.0000 H   0  0  0  0  0  0  0  0  0  0  0  0
   -0.0569   -0.1731    0.0000 H   0  0  0  0  0  0  0  0  0  0  0  0
    3.2851    0.1823    0.0000 H   0  0  0  0  0  0  0  0  0  0  0  0
    3.1755   -2.9477    0.0000 H   0  0  0  0  0  0  0  0  0  0  0  0
    1.9544   -3.2314    0.0000 H   0  0  0  0  0  0  0  0  0  0  0  0
    0.1994   -2.9086    0.0000 H   0  0  0  0  0  0  0  0  0  0  0  0
   -0.0051   -1.1359    0.0000 H   0  0  0  0  0  0  0  0  0  0  0  0
    3.7367   -1.1028    0.0000 H   0  0  0  0  0  0  0  0  0  0  0  0
    4.2958    2.2421    0.0000 H   0  0  0  0  0  0  0  0  0  0  0  0
    6.8892    3.3472    0.0000 H   0  0  0  0  0  0  0  0  0  0  0  0
    5.0109    2.9108    0.0000 H   0  0  0  0  0  0  0  0  0  0  0  0
    6.8890   -0.9124    0.0000 H   0  0  0  0  0  0  0  0  0  0  0  0
   10.1026   -1.6599    0.0000 H   0  0  0  0  0  0  0  0  0  0  0  0
   11.9504    0.2635    0.0000 H   0  0  0  0  0  0  0  0  0  0  0  0
   11.2715    3.1857    0.0000 H   0  0  0  0  0  0  0  0  0  0  0  0
    8.4013    4.0588    0.0000 H   0  0  0  0  0  0  0  0  0  0  0  0
    8.2293    2.0733    0.0000 H   0  0  0  0  0  0  0  0  0  0  0  0
    7.7973   -1.2534    0.0000 H   0  0  0  0  0  0  0  0  0  0  0  0
   10.7920   -2.5262    0.0000 H   0  0  0  0  0  0  0  0  0  0  0  0
   11.0225   -0.7567    0.0000 H   0  0  0  0  0  0  0  0  0  0  0  0
    6.4361   -1.8824    0.0000 H   0  0  0  0  0  0  0  0  0  0  0  0
    5.3577   -4.3218    0.0000 H   0  0  0  0  0  0  0  0  0  0  0  0
    7.8138   -8.0924    0.0000 H   0  0  0  0  0  0  0  0  0  0  0  0
    9.9908   -6.6743    0.0000 H   0  0  0  0  0  0  0  0  0  0  0  0
   11.3490   -3.9994    0.0000 H   0  0  0  0  0  0  0  0  0  0  0  0
   11.4742   -2.0419    0.0000 H   0  0  0  0  0  0  0  0  0  0  0  0
   12.0333    1.3030    0.0000 H   0  0  0  0  0  0  0  0  0  0  0  0
   14.4586    2.4810    0.0000 H   0  0  0  0  0  0  0  0  0  0  0  0
   12.7484    1.9717    0.0000 H   0  0  0  0  0  0  0  0  0  0  0  0
   15.4111   -0.8656    0.0000 H   0  0  0  0  0  0  0  0  0  0  0  0
   17.9763    1.5823    0.0000 H   0  0  0  0  0  0  0  0  0  0  0  0
   17.1574    2.9961    0.0000 H   0  0  0  0  0  0  0  0  0  0  0  0
   15.3978    2.6992    0.0000 H   0  0  0  0  0  0  0  0  0  0  0  0
   16.7668   -1.7555    0.0000 H   0  0  0  0  0  0  0  0  0  0  0  0
   18.0799   -0.3432    0.0000 H   0  0  0  0  0  0  0  0  0  0  0  0
   17.4189    0.9778    0.0000 H   0  0  0  0  0  0  0  0  0  0  0  0
   15.9668    1.1342    0.0000 H   0  0  0  0  0  0  0  0  0  0  0  0
   17.4490   -2.4248    0.0000 H   0  0  0  0  0  0  0  0  0  0  0  0
   15.5347   -2.1924    0.0000 H   0  0  0  0  0  0  0  0  0  0  0  0
   19.0288   -2.9700    0.0000 H   0  0  0  0  0  0  0  0  0  0  0  0
   21.6850    0.1316    0.0000 H   0  0  0  0  0  0  0  0  0  0  0  0
   19.7707    0.3639    0.0000 H   0  0  0  0  0  0  0  0  0  0  0  0
   23.3493    0.2831    0.0000 H   0  0  0  0  0  0  0  0  0  0  0  0
   23.1555   -2.9903    0.0000 H   0  0  0  0  0  0  0  0  0  0  0  0
   26.3857   -4.2649    0.0000 H   0  0  0  0  0  0  0  0  0  0  0  0
   26.4974   -2.6349    0.0000 H   0  0  0  0  0  0  0  0  0  0  0  0
   23.2073   -3.9532    0.0000 H   0  0  0  0  0  0  0  0  0  0  0  0
   24.8151   -7.3684    0.0000 H   0  0  0  0  0  0  0  0  0  0  0  0
   26.5253   -6.8592    0.0000 H   0  0  0  0  0  0  0  0  0  0  0  0
   26.5384   -5.0748    0.0000 H   0  0  0  0  0  0  0  0  0  0  0  0
   23.5706   -7.2174    0.0000 H   0  0  0  0  0  0  0  0  0  0  0  0
   22.0318   -6.3139    0.0000 H   0  0  0  0  0  0  0  0  0  0  0  0
   22.5931   -4.4690    0.0000 H   0  0  0  0  0  0  0  0  0  0  0  0
   26.9491   -3.9200    0.0000 H   0  0  0  0  0  0  0  0  0  0  0  0
   27.5082   -0.5751    0.0000 H   0  0  0  0  0  0  0  0  0  0  0  0
   29.9335    0.6028    0.0000 H   0  0  0  0  0  0  0  0  0  0  0  0
   28.2233    0.0936    0.0000 H   0  0  0  0  0  0  0  0  0  0  0  0
   30.8860   -2.7437    0.0000 H   0  0  0  0  0  0  0  0  0  0  0  0
   33.4512   -0.2958    0.0000 H   0  0  0  0  0  0  0  0  0  0  0  0
   32.6323    1.1180    0.0000 H   0  0  0  0  0  0  0  0  0  0  0  0
   30.8727    0.8210    0.0000 H   0  0  0  0  0  0  0  0  0  0  0  0
   32.2417   -3.6336    0.0000 H   0  0  0  0  0  0  0  0  0  0  0  0
   33.5548   -2.2214    0.0000 H   0  0  0  0  0  0  0  0  0  0  0  0
   32.8938   -0.9004    0.0000 H   0  0  0  0  0  0  0  0  0  0  0  0
   31.4417   -0.7439    0.0000 H   0  0  0  0  0  0  0  0  0  0  0  0
   32.9239   -4.3029    0.0000 H   0  0  0  0  0  0  0  0  0  0  0  0
   31.0096   -4.0706    0.0000 H   0  0  0  0  0  0  0  0  0  0  0  0
  1  2  1  0
  2  3  1  0
  3  4  2  0
  4  5  1  0
  5  6  2  0
  6  7  1  0
  7  8  2  0
  7  9  1  0
  9 10  1  0
 10 11  1  0
 11 12  2  0
  9 13  1  0
 13 14  1  0
 14 15  2  0
 15 16  1  0
 16 17  2  0
 17 18  1  0
 16 19  1  0
 14 20  1  0
 20 21  1  0
 21 22  2  0
 22 23  1  0
 23 24  2  0
 24 25  1  0
 25 26  2  0
 25 27  1  0
  1 28  2  0
  1 29  1  0
 29 30  1  0
 30 31  1  0
 31 32  1  0
 32 33  2  0
 32 34  1  0
 34 35  1  0
 35 36  1  0
 35 37  1  0
 37 38  2  0
 37 39  1  0
 40 39  1  6
 40 41  1  0
 41 42  1  0
 42 43  1  0
 43 44  1  0
 40 45  1  0
 40 46  1  0
 46 47  2  0
 46 48  1  0
 48 49  1  0
 49 50  1  0
 50 51  1  0
 50 52  1  0
 49 53  1  0
 53 54  2  0
 53 55  1  0
 55 56  1  0
 56 57  1  0
 57 58  1  0
 58 59  1  0
 58 60  1  0
 56 61  1  0
 61 62  2  0
 61 63  1  0
 63 64  1  0
 64 65  1  0
 65 66  1  0
 66 67  2  0
 67 68  1  0
 68 69  2  0
 69 70  1  0
 70 71  2  0
 64 72  1  0
 72 73  2  0
 72 74  1  0
 74 75  1  0
 75 76  1  0
 76 77  1  0
 77 78  1  0
 78 79  1  0
 75 80  1  0
 75 81  1  6
 81 82  2  0
 81 83  1  0
 83 84  1  0
 84 85  1  0
 85 86  1  0
 85 87  1  0
 84 88  1  0
 88 89  2  0
 88 90  1  0
 90 91  1  0
 91 92  1  0
 92 93  1  0
 93 94  2  0
 94 95  1  0
 95 96  2  0
 96 97  1  0
 97 98  2  0
 91 99  1  0
 99100  2  0
 99101  1  0
101102  1  0
102103  1  0
103104  1  0
104105  2  0
105106  1  0
106107  2  0
107108  1  0
107109  1  0
109110  2  0
102111  1  0
111112  2  0
111113  1  0
113114  1  0
114115  1  0
115116  1  0
116117  1  0
116118  1  0
114119  1  0
119120  2  0
119121  1  0
121122  1  0
122123  1  0
123124  2  0
123125  1  0
125126  1  0
126127  1  0
127128  2  0
127129  1  0
129130  1  0
130131  1  0
131132  1  0
132133  1  0
132134  1  0
130135  1  0
135136  2  0
135137  1  0
137138  1  0
138139  1  0
139140  1  0
140141  1  0
140142  1  0
138143  1  0
143144  2  0
143145  1  0
145146  1  0
146147  1  0
147148  2  0
147149  1  0
  8  3  1  0
 71 66  1  0
 98 93  1  0
110104  1  0
 11  6  1  0
 44 79  2  0
 18 13  2  0
 22  9  1  0
 26 21  1  0
  2150  1  0
  4151  1  0
  5152  1  0
  8153  1  0
 15154  1  0
 17155  1  0
 18156  1  0
 19157  1  0
 23158  1  0
 24159  1  0
 26160  1  0
 27161  1  0
 29162  1  0
 30163  1  0
 30164  1  0
 31165  1  0
 31166  1  0
 34167  1  0
 35168  1  1
 36169  1  0
 36170  1  0
 36171  1  0
 39172  1  0
 41173  1  0
 41174  1  0
 42175  1  0
 42176  1  0
 43177  1  0
 43178  1  0
 44179  1  0
 45180  1  0
 45181  1  0
 45182  1  0
 48183  1  0
 49184  1  1
 50185  1  6
 51186  1  0
 52187  1  0
 52188  1  0
 52189  1  0
 55190  1  0
 56191  1  1
 57192  1  0
 57193  1  0
 58194  1  0
 59195  1  0
 59196  1  0
 59197  1  0
 60198  1  0
 60199  1  0
 60200  1  0
 63201  1  0
 64202  1  1
 65203  1  0
 65204  1  0
 67205  1  0
 68206  1  0
 69207  1  0
 70208  1  0
 71209  1  0
 74210  1  0
 76211  1  0
 76212  1  0
 77213  1  0
 77214  1  0
 78215  1  0
 78216  1  0
 79217  1  0
 80218  1  0
 80219  1  0
 80220  1  0
 83221  1  0
 84222  1  6
 85223  1  1
 86224  1  0
 87225  1  0
 87226  1  0
 87227  1  0
 90228  1  0
 91229  1  1
 92230  1  0
 92231  1  0
 94232  1  0
 95233  1  0
 96234  1  0
 97235  1  0
 98236  1  0
101237  1  0
102238  1  6
103239  1  0
103240  1  0
105241  1  0
106242  1  0
108243  1  0
109244  1  0
110245  1  0
113246  1  0
114247  1  1
115248  1  0
115249  1  0
116250  1  0
117251  1  0
117252  1  0
117253  1  0
118254  1  0
118255  1  0
118256  1  0
121257  1  0
122258  1  0
122259  1  0
125260  1  0
126261  1  0
126262  1  0
129263  1  0
130264  1  6
131265  1  0
131266  1  0
132267  1  0
133268  1  0
133269  1  0
133270  1  0
134271  1  0
134272  1  0
134273  1  0
137274  1  0
138275  1  1
139276  1  0
139277  1  0
140278  1  0
141279  1  0
141280  1  0
141281  1  0
142282  1  0
142283  1  0
142284  1  0
145285  1  0
146286  1  0
146287  1  0
M  CHG  1 149  -1
M  END
