
     RDKit          2D

403410  0  0  0  0  0  0  0  0999 V2000
  -15.7767  -10.6811    0.0000 C   0  0  0  0  0  0  0  0  0  0  0  0
  -14.8361  -11.8496    0.0000 N   0  0  0  0  0  0  0  0  0  0  0  0
  -15.3777  -13.2484    0.0000 C   0  0  0  0  0  0  0  0  0  0  0  0
  -16.8599  -13.4788    0.0000 C   0  0  0  0  0  0  0  0  0  0  0  0
  -17.4015  -14.8776    0.0000 C   0  0  0  0  0  0  0  0  0  0  0  0
  -16.4609  -16.0460    0.0000 C   0  0  0  0  0  0  0  0  0  0  0  0
  -14.9787  -15.8157    0.0000 C   0  0  0  0  0  0  0  0  0  0  0  0
  -14.4371  -14.4168    0.0000 C   0  0  0  0  0  0  0  0  0  0  0  0
  -14.3016  -17.1541    0.0000 C   0  0  0  0  0  0  0  0  0  0  0  0
  -15.3653  -18.2117    0.0000 O   0  0  0  0  0  0  0  0  0  0  0  0
  -16.6998  -17.5269    0.0000 C   0  0  0  0  0  0  0  0  0  0  0  0
  -18.0383  -18.2040    0.0000 O   0  0  0  0  0  0  0  0  0  0  0  0
  -13.7681  -18.5561    0.0000 C   0  0  0  0  0  0  0  0  0  0  0  0
  -12.2872  -18.7950    0.0000 C   0  0  0  0  0  0  0  0  0  0  0  0
  -11.7537  -20.1969    0.0000 C   0  0  0  0  0  0  0  0  0  0  0  0
  -12.7011  -21.3599    0.0000 C   0  0  0  0  0  0  0  0  0  0  0  0
  -14.1819  -21.1210    0.0000 C   0  0  0  0  0  0  0  0  0  0  0  0
  -14.7154  -19.7190    0.0000 C   0  0  0  0  0  0  0  0  0  0  0  0
  -12.1676  -22.7618    0.0000 O   0  0  0  0  0  0  0  0  0  0  0  0
  -11.3399  -17.6320    0.0000 O   0  0  0  0  0  0  0  0  0  0  0  0
  -11.8734  -16.2301    0.0000 C   0  0  0  0  0  0  0  0  0  0  0  0
  -13.3542  -15.9911    0.0000 C   0  0  0  0  0  0  0  0  0  0  0  0
  -13.1966  -14.7007    0.0000 C   0  0  0  0  0  0  0  0  0  0  0  0
  -12.6914  -14.0805    0.0000 C   0  0  0  0  0  0  0  0  0  0  0  0
  -11.9016  -14.2079    0.0000 C   0  0  0  0  0  0  0  0  0  0  0  0
  -11.6171  -14.9556    0.0000 C   0  0  0  0  0  0  0  0  0  0  0  0
  -10.5122  -12.5022    0.0000 O   0  0  0  0  0  0  0  0  0  0  0  0
  -17.2589  -10.9115    0.0000 S   0  0  0  0  0  0  0  0  0  0  0  0
  -15.2351   -9.2823    0.0000 N   0  0  0  0  0  0  0  0  0  0  0  0
  -16.1757   -8.1139    0.0000 C   0  0  0  0  0  0  0  0  0  0  0  0
  -15.6341   -6.7151    0.0000 C   0  0  0  0  0  0  0  0  0  0  0  0
  -16.5747   -5.5466    0.0000 C   0  0  0  0  0  0  0  0  0  0  0  0
  -17.3416   -5.7642    0.0000 O   0  0  0  0  0  0  0  0  0  0  0  0
  -16.0331   -4.1478    0.0000 N   0  0  0  0  0  0  0  0  0  0  0  0
  -16.9737   -2.9794    0.0000 C   0  0  0  0  0  0  0  0  0  0  0  0
  -17.9610   -4.1086    0.0000 C   0  0  0  0  0  0  0  0  0  0  0  0
  -19.2751   -4.8320    0.0000 O   0  0  0  0  0  0  0  0  0  0  0  0
  -17.6535   -5.5767    0.0000 C   0  0  0  0  0  0  0  0  0  0  0  0
  -17.4579   -1.5597    0.0000 C   0  0  0  0  0  0  0  0  0  0  0  0
  -18.9561   -1.6339    0.0000 O   0  0  0  0  0  0  0  0  0  0  0  0
  -16.4706   -0.4305    0.0000 N   0  0  0  0  0  0  0  0  0  0  0  0
  -16.9548    0.9892    0.0000 C   0  0  0  0  0  0  0  0  0  0  0  0
  -18.2688    0.2658    0.0000 C   0  0  0  0  0  0  0  0  0  0  0  0
  -18.2994   -1.2339    0.0000 C   0  0  0  0  0  0  0  0  0  0  0  0
  -19.6134   -1.9573    0.0000 C   0  0  0  0  0  0  0  0  0  0  0  0
  -19.6439   -3.4570    0.0000 N   0  0  0  0  0  0  0  0  0  0  0  0
  -20.9579   -4.1804    0.0000 C   0  0  0  0  0  0  0  0  0  0  0  0
  -20.9884   -5.6801    0.0000 N   0  0  0  0  0  0  0  0  0  0  0  0
  -22.2414   -3.4041    0.0000 N   0  0  0  0  0  0  0  0  0  0  0  0
  -16.9243    2.4889    0.0000 C   0  0  0  0  0  0  0  0  0  0  0  0
  -18.3575    2.9315    0.0000 O   0  0  0  0  0  0  0  0  0  0  0  0
  -15.6103    3.2123    0.0000 N   0  0  0  0  0  0  0  0  0  0  0  0
  -15.5797    4.7120    0.0000 C   0  0  0  0  0  0  0  0  0  0  0  0
  -17.0619    4.4816    0.0000 C   0  0  0  0  0  0  0  0  0  0  0  0
  -17.6035    3.0828    0.0000 C   0  0  0  0  0  0  0  0  0  0  0  0
  -19.0857    2.8525    0.0000 C   0  0  0  0  0  0  0  0  0  0  0  0
  -19.7938    1.5301    0.0000 N   0  0  0  0  0  0  0  0  0  0  0  0
  -20.0264    4.0209    0.0000 O   0  0  0  0  0  0  0  0  0  0  0  0
  -15.0381    6.1108    0.0000 C   0  0  0  0  0  0  0  0  0  0  0  0
  -16.1141    7.1559    0.0000 O   0  0  0  0  0  0  0  0  0  0  0  0
  -13.5559    6.3412    0.0000 N   0  0  0  0  0  0  0  0  0  0  0  0
  -13.0143    7.7400    0.0000 C   0  0  0  0  0  0  0  0  0  0  0  0
  -14.5104    7.8489    0.0000 C   0  0  0  0  0  0  0  0  0  0  0  0
  -12.0270    8.8692    0.0000 C   0  0  0  0  0  0  0  0  0  0  0  0
  -12.8403   10.1295    0.0000 O   0  0  0  0  0  0  0  0  0  0  0  0
  -10.5554    8.5787    0.0000 N   0  0  0  0  0  0  0  0  0  0  0  0
   -9.5680    9.7079    0.0000 C   0  0  0  0  0  0  0  0  0  0  0  0
  -10.8515   10.4842    0.0000 C   0  0  0  0  0  0  0  0  0  0  0  0
  -12.1655    9.7608    0.0000 C   0  0  0  0  0  0  0  0  0  0  0  0
  -13.4490   10.5371    0.0000 C   0  0  0  0  0  0  0  0  0  0  0  0
  -14.7631    9.8136    0.0000 N   0  0  0  0  0  0  0  0  0  0  0  0
  -16.0466   10.5899    0.0000 C   0  0  0  0  0  0  0  0  0  0  0  0
  -17.3606    9.8665    0.0000 N   0  0  0  0  0  0  0  0  0  0  0  0
  -16.0161   12.0896    0.0000 N   0  0  0  0  0  0  0  0  0  0  0  0
   -8.2540   10.4313    0.0000 C   0  0  0  0  0  0  0  0  0  0  0  0
   -8.5872   11.8938    0.0000 O   0  0  0  0  0  0  0  0  0  0  0  0
   -6.9705    9.6551    0.0000 N   0  0  0  0  0  0  0  0  0  0  0  0
   -5.6564   10.3785    0.0000 C   0  0  0  0  0  0  0  0  0  0  0  0
   -6.5970   11.5469    0.0000 C   0  0  0  0  0  0  0  0  0  0  0  0
   -8.0792   11.3166    0.0000 C   0  0  0  0  0  0  0  0  0  0  0  0
   -9.0198   12.4850    0.0000 C   0  0  0  0  0  0  0  0  0  0  0  0
  -10.5020   12.2546    0.0000 N   0  0  0  0  0  0  0  0  0  0  0  0
  -11.4426   13.4231    0.0000 C   0  0  0  0  0  0  0  0  0  0  0  0
  -12.9249   13.1927    0.0000 N   0  0  0  0  0  0  0  0  0  0  0  0
  -10.9010   14.8219    0.0000 N   0  0  0  0  0  0  0  0  0  0  0  0
   -4.1742   10.6088    0.0000 C   0  0  0  0  0  0  0  0  0  0  0  0
   -3.9872   12.0971    0.0000 O   0  0  0  0  0  0  0  0  0  0  0  0
   -3.2336    9.4404    0.0000 N   0  0  0  0  0  0  0  0  0  0  0  0
   -1.7514    9.6708    0.0000 C   0  0  0  0  0  0  0  0  0  0  0  0
   -2.2357   11.0904    0.0000 C   0  0  0  0  0  0  0  0  0  0  0  0
   -3.7073   11.3809    0.0000 C   0  0  0  0  0  0  0  0  0  0  0  0
   -4.1915   12.8006    0.0000 N   0  0  0  0  0  0  0  0  0  0  0  0
   -4.9385   10.5242    0.0000 O   0  0  0  0  0  0  0  0  0  0  0  0
   -0.2798    9.3803    0.0000 C   0  0  0  0  0  0  0  0  0  0  0  0
    0.5625   10.6214    0.0000 O   0  0  0  0  0  0  0  0  0  0  0  0
    0.2044    7.9606    0.0000 N   0  0  0  0  0  0  0  0  0  0  0  0
    1.6760    7.6701    0.0000 C   0  0  0  0  0  0  0  0  0  0  0  0
    2.8593    8.5921    0.0000 C   0  0  0  0  0  0  0  0  0  0  0  0
    4.2543    9.1433    0.0000 C   0  0  0  0  0  0  0  0  0  0  0  0
    5.7481    9.2792    0.0000 C   0  0  0  0  0  0  0  0  0  0  0  0
    7.2197    8.9887    0.0000 C   0  0  0  0  0  0  0  0  0  0  0  0
    1.1536    9.0762    0.0000 C   0  0  0  0  0  0  0  0  0  0  0  0
    0.8005    6.4522    0.0000 C   0  0  0  0  0  0  0  0  0  0  0  0
   -0.6043    6.9782    0.0000 O   0  0  0  0  0  0  0  0  0  0  0  0
    0.3035    5.0369    0.0000 N   0  0  0  0  0  0  0  0  0  0  0  0
    0.2255    3.5389    0.0000 C   0  0  0  0  0  0  0  0  0  0  0  0
   -1.1047    4.2322    0.0000 C   0  0  0  0  0  0  0  0  0  0  0  0
   -2.3702    3.4269    0.0000 C   0  0  0  0  0  0  0  0  0  0  0  0
   -3.7004    4.1202    0.0000 C   0  0  0  0  0  0  0  0  0  0  0  0
   -4.9659    3.3149    0.0000 N   0  0  0  0  0  0  0  0  0  0  0  0
   -6.2960    4.0082    0.0000 C   0  0  0  0  0  0  0  0  0  0  0  0
   -7.5615    3.2029    0.0000 N   0  0  0  0  0  0  0  0  0  0  0  0
   -6.3607    5.5068    0.0000 N   0  0  0  0  0  0  0  0  0  0  0  0
    0.5726    2.0796    0.0000 C   0  0  0  0  0  0  0  0  0  0  0  0
   -0.8225    1.5284    0.0000 O   0  0  0  0  0  0  0  0  0  0  0  0
    1.3167    0.7772    0.0000 N   0  0  0  0  0  0  0  0  0  0  0  0
    2.3977   -0.2627    0.0000 C   0  0  0  0  0  0  0  0  0  0  0  0
    1.0026   -0.8140    0.0000 C   0  0  0  0  0  0  0  0  0  0  0  0
    0.7825   -2.2977    0.0000 C   0  0  0  0  0  0  0  0  0  0  0  0
   -0.6125   -2.8490    0.0000 C   0  0  0  0  0  0  0  0  0  0  0  0
   -0.8326   -4.3327    0.0000 N   0  0  0  0  0  0  0  0  0  0  0  0
   -2.2277   -4.8840    0.0000 C   0  0  0  0  0  0  0  0  0  0  0  0
   -2.4478   -6.3678    0.0000 N   0  0  0  0  0  0  0  0  0  0  0  0
   -3.4026   -3.9515    0.0000 N   0  0  0  0  0  0  0  0  0  0  0  0
    3.7278   -0.9560    0.0000 C   0  0  0  0  0  0  0  0  0  0  0  0
    3.2309   -2.3713    0.0000 O   0  0  0  0  0  0  0  0  0  0  0  0
    5.1994   -1.2465    0.0000 N   0  0  0  0  0  0  0  0  0  0  0  0
    6.6933   -1.1106    0.0000 C   0  0  0  0  0  0  0  0  0  0  0  0
    6.1963   -2.5259    0.0000 C   0  0  0  0  0  0  0  0  0  0  0  0
    7.1735   -3.6639    0.0000 C   0  0  0  0  0  0  0  0  0  0  0  0
    6.6766   -5.0792    0.0000 C   0  0  0  0  0  0  0  0  0  0  0  0
    7.6538   -6.2172    0.0000 N   0  0  0  0  0  0  0  0  0  0  0  0
    7.1568   -7.6325    0.0000 C   0  0  0  0  0  0  0  0  0  0  0  0
    8.1340   -8.7705    0.0000 N   0  0  0  0  0  0  0  0  0  0  0  0
    5.7275   -8.0874    0.0000 N   0  0  0  0  0  0  0  0  0  0  0  0
    8.0883   -0.5594    0.0000 C   0  0  0  0  0  0  0  0  0  0  0  0
    8.8325   -1.8618    0.0000 O   0  0  0  0  0  0  0  0  0  0  0  0
    9.2715    0.3626    0.0000 N   0  0  0  0  0  0  0  0  0  0  0  0
    9.8128    2.9859    0.0000 C   0  0  0  0  0  0  0  0  0  0  0  0
   10.3096    4.4012    0.0000 C   0  0  0  0  0  0  0  0  0  0  0  0
   11.2195    5.5937    0.0000 C   0  0  0  0  0  0  0  0  0  0  0  0
    9.7260    5.7334    0.0000 C   0  0  0  0  0  0  0  0  0  0  0  0
    8.6717    6.8004    0.0000 N   0  0  0  0  0  0  0  0  0  0  0  0
    8.5499    8.2954    0.0000 C   0  0  0  0  0  0  0  0  0  0  0  0
    9.4176    9.5190    0.0000 C   0  0  0  0  0  0  0  0  0  0  0  0
   10.8688    9.8986    0.0000 C   0  0  0  0  0  0  0  0  0  0  0  0
   12.2244    9.2565    0.0000 C   0  0  0  0  0  0  0  0  0  0  0  0
   12.8502    7.8933    0.0000 C   0  0  0  0  0  0  0  0  0  0  0  0
   12.4533    6.4468    0.0000 C   0  0  0  0  0  0  0  0  0  0  0  0
    9.7777    1.4863    0.0000 C   0  0  0  0  0  0  0  0  0  0  0  0
    8.2911    1.2864    0.0000 O   0  0  0  0  0  0  0  0  0  0  0  0
   10.2077    0.0492    0.0000 N   0  0  0  0  0  0  0  0  0  0  0  0
   11.0607   -1.1846    0.0000 C   0  0  0  0  0  0  0  0  0  0  0  0
    9.5865   -1.4620    0.0000 C   0  0  0  0  0  0  0  0  0  0  0  0
    9.0897   -2.8774    0.0000 C   0  0  0  0  0  0  0  0  0  0  0  0
    7.6156   -3.1548    0.0000 C   0  0  0  0  0  0  0  0  0  0  0  0
    7.1188   -4.5701    0.0000 N   0  0  0  0  0  0  0  0  0  0  0  0
    5.6447   -4.8475    0.0000 C   0  0  0  0  0  0  0  0  0  0  0  0
    4.8201   -6.1006    0.0000 N   0  0  0  0  0  0  0  0  0  0  0  0
    4.5359   -3.8372    0.0000 N   0  0  0  0  0  0  0  0  0  0  0  0
   12.2532   -2.0945    0.0000 C   0  0  0  0  0  0  0  0  0  0  0  0
   11.5411   -3.4147    0.0000 O   0  0  0  0  0  0  0  0  0  0  0  0
   13.6685   -2.5913    0.0000 N   0  0  0  0  0  0  0  0  0  0  0  0
   15.1681   -2.6264    0.0000 C   0  0  0  0  0  0  0  0  0  0  0  0
   14.5261   -3.9821    0.0000 C   0  0  0  0  0  0  0  0  0  0  0  0
   15.3791   -5.2159    0.0000 C   0  0  0  0  0  0  0  0  0  0  0  0
   14.7371   -6.5716    0.0000 C   0  0  0  0  0  0  0  0  0  0  0  0
   15.5901   -7.8054    0.0000 O   0  0  0  0  0  0  0  0  0  0  0  0
   13.2420   -6.6934    0.0000 O   0  0  0  0  0  0  0  0  0  0  0  0
   16.6052   -2.1964    0.0000 C   0  0  0  0  0  0  0  0  0  0  0  0
   17.2547   -3.5485    0.0000 O   0  0  0  0  0  0  0  0  0  0  0  0
   17.8390   -1.3434    0.0000 N   0  0  0  0  0  0  0  0  0  0  0  0
   18.7489   -0.1509    0.0000 C   0  0  0  0  0  0  0  0  0  0  0  0
   19.2457    1.2644    0.0000 C   0  0  0  0  0  0  0  0  0  0  0  0
   19.2808    2.7640    0.0000 C   0  0  0  0  0  0  0  0  0  0  0  0
   18.8509    4.2011    0.0000 C   0  0  0  0  0  0  0  0  0  0  0  0
   17.9979    5.4349    0.0000 C   0  0  0  0  0  0  0  0  0  0  0  0
   16.8053    6.3448    0.0000 C   0  0  0  0  0  0  0  0  0  0  0  0
   15.3900    6.8416    0.0000 C   0  0  0  0  0  0  0  0  0  0  0  0
   13.8904    6.8767    0.0000 C   0  0  0  0  0  0  0  0  0  0  0  0
   20.2476   -0.2122    0.0000 C   0  0  0  0  0  0  0  0  0  0  0  0
   19.4683   -1.4671    0.0000 C   0  0  0  0  0  0  0  0  0  0  0  0
   18.8500   -2.8338    0.0000 O   0  0  0  0  0  0  0  0  0  0  0  0
   20.9678   -1.5023    0.0000 N   0  0  0  0  0  0  0  0  0  0  0  0
   21.6872   -2.8185    0.0000 C   0  0  0  0  0  0  0  0  0  0  0  0
   21.9130   -4.3014    0.0000 C   0  0  0  0  0  0  0  0  0  0  0  0
   20.7417   -5.2384    0.0000 C   0  0  0  0  0  0  0  0  0  0  0  0
   20.9675   -6.7214    0.0000 C   0  0  0  0  0  0  0  0  0  0  0  0
   19.7961   -7.6584    0.0000 N   0  0  0  0  0  0  0  0  0  0  0  0
   22.3646   -7.2673    0.0000 O   0  0  0  0  0  0  0  0  0  0  0  0
   23.1868   -2.8537    0.0000 C   0  0  0  0  0  0  0  0  0  0  0  0
   23.9670   -1.5726    0.0000 O   0  0  0  0  0  0  0  0  0  0  0  0
   23.9062   -4.1699    0.0000 N   0  0  0  0  0  0  0  0  0  0  0  0
   25.4058   -4.2051    0.0000 C   0  0  0  0  0  0  0  0  0  0  0  0
   26.8269   -3.7252    0.0000 C   0  0  0  0  0  0  0  0  0  0  0  0
   27.9531   -4.7160    0.0000 C   0  0  0  0  0  0  0  0  0  0  0  0
   29.3743   -4.2361    0.0000 C   0  0  0  0  0  0  0  0  0  0  0  0
   30.5004   -5.2270    0.0000 N   0  0  0  0  0  0  0  0  0  0  0  0
   31.9216   -4.7471    0.0000 C   0  0  0  0  0  0  0  0  0  0  0  0
   33.0478   -5.7379    0.0000 N   0  0  0  0  0  0  0  0  0  0  0  0
   32.2166   -3.2764    0.0000 N   0  0  0  0  0  0  0  0  0  0  0  0
   26.1251   -5.5213    0.0000 C   0  0  0  0  0  0  0  0  0  0  0  0
   27.6092   -5.7390    0.0000 O   0  0  0  0  0  0  0  0  0  0  0  0
   25.3449   -6.8024    0.0000 O   0  0  0  0  0  0  0  0  0  0  0  0
  -13.3930  -11.4403    0.0000 H   0  0  0  0  0  0  0  0  0  0  0  0
  -17.8005  -12.3103    0.0000 H   0  0  0  0  0  0  0  0  0  0  0  0
  -18.8837  -15.1079    0.0000 H   0  0  0  0  0  0  0  0  0  0  0  0
  -13.0547  -13.8347    0.0000 H   0  0  0  0  0  0  0  0  0  0  0  0
  -10.2729  -20.4358    0.0000 H   0  0  0  0  0  0  0  0  0  0  0  0
  -15.1293  -22.2839    0.0000 H   0  0  0  0  0  0  0  0  0  0  0  0
  -16.1963  -19.4801    0.0000 H   0  0  0  0  0  0  0  0  0  0  0  0
  -13.1149  -23.9248    0.0000 H   0  0  0  0  0  0  0  0  0  0  0  0
  -15.3686  -14.3503    0.0000 H   0  0  0  0  0  0  0  0  0  0  0  0
  -13.2990  -11.9697    0.0000 H   0  0  0  0  0  0  0  0  0  0  0  0
   -9.4452  -15.3060    0.0000 H   0  0  0  0  0  0  0  0  0  0  0  0
   -9.0313  -12.7411    0.0000 H   0  0  0  0  0  0  0  0  0  0  0  0
  -13.7529   -9.0520    0.0000 H   0  0  0  0  0  0  0  0  0  0  0  0
  -17.1630   -9.2431    0.0000 H   0  0  0  0  0  0  0  0  0  0  0  0
  -17.4592   -7.3376    0.0000 H   0  0  0  0  0  0  0  0  0  0  0  0
  -14.3506   -7.4914    0.0000 H   0  0  0  0  0  0  0  0  0  0  0  0
  -14.6467   -5.5859    0.0000 H   0  0  0  0  0  0  0  0  0  0  0  0
  -14.5509   -3.9175    0.0000 H   0  0  0  0  0  0  0  0  0  0  0  0
  -15.6596   -2.2560    0.0000 H   0  0  0  0  0  0  0  0  0  0  0  0
  -19.1564   -3.2025    0.0000 H   0  0  0  0  0  0  0  0  0  0  0  0
  -19.3056   -6.3317    0.0000 H   0  0  0  0  0  0  0  0  0  0  0  0
  -18.3264   -6.7482    0.0000 H   0  0  0  0  0  0  0  0  0  0  0  0
  -16.5362   -6.6967    0.0000 H   0  0  0  0  0  0  0  0  0  0  0  0
  -16.0203   -5.1885    0.0000 H   0  0  0  0  0  0  0  0  0  0  0  0
  -14.9990   -0.7210    0.0000 H   0  0  0  0  0  0  0  0  0  0  0  0
  -15.4726    1.2196    0.0000 H   0  0  0  0  0  0  0  0  0  0  0  0
  -19.7681    0.2178    0.0000 H   0  0  0  0  0  0  0  0  0  0  0  0
  -18.9225    1.6159    0.0000 H   0  0  0  0  0  0  0  0  0  0  0  0
  -17.8151   -2.6536    0.0000 H   0  0  0  0  0  0  0  0  0  0  0  0
  -16.8055   -1.3690    0.0000 H   0  0  0  0  0  0  0  0  0  0  0  0
  -21.0956   -2.1877    0.0000 H   0  0  0  0  0  0  0  0  0  0  0  0
  -20.2671   -0.6072    0.0000 H   0  0  0  0  0  0  0  0  0  0  0  0
  -18.5864   -4.5208    0.0000 H   0  0  0  0  0  0  0  0  0  0  0  0
  -22.3025   -6.4035    0.0000 H   0  0  0  0  0  0  0  0  0  0  0  0
  -19.8091   -6.6070    0.0000 H   0  0  0  0  0  0  0  0  0  0  0  0
  -23.5555   -4.1276    0.0000 H   0  0  0  0  0  0  0  0  0  0  0  0
  -22.2109   -1.9045    0.0000 H   0  0  0  0  0  0  0  0  0  0  0  0
  -14.3267    2.4360    0.0000 H   0  0  0  0  0  0  0  0  0  0  0  0
  -14.1081    4.4215    0.0000 H   0  0  0  0  0  0  0  0  0  0  0  0
  -18.5335    4.7721    0.0000 H   0  0  0  0  0  0  0  0  0  0  0  0
  -17.0314    5.9813    0.0000 H   0  0  0  0  0  0  0  0  0  0  0  0
  -17.6341    1.5831    0.0000 H   0  0  0  0  0  0  0  0  0  0  0  0
  -16.2460    2.4449    0.0000 H   0  0  0  0  0  0  0  0  0  0  0  0
  -21.1096    1.2233    0.0000 H   0  0  0  0  0  0  0  0  0  0  0  0
  -19.0209    0.0543    0.0000 H   0  0  0  0  0  0  0  0  0  0  0  0
  -12.6153    5.1727    0.0000 H   0  0  0  0  0  0  0  0  0  0  0  0
  -11.7308    6.9637    0.0000 H   0  0  0  0  0  0  0  0  0  0  0  0
  -15.6036    7.0300    0.0000 H   0  0  0  0  0  0  0  0  0  0  0  0
  -15.7694    8.8067    0.0000 H   0  0  0  0  0  0  0  0  0  0  0  0
  -14.2989    9.5187    0.0000 H   0  0  0  0  0  0  0  0  0  0  0  0
  -10.0711    7.1590    0.0000 H   0  0  0  0  0  0  0  0  0  0  0  0
   -8.6274    8.5395    0.0000 H   0  0  0  0  0  0  0  0  0  0  0  0
  -11.6427   11.7586    0.0000 H   0  0  0  0  0  0  0  0  0  0  0  0
  -10.1667   11.8188    0.0000 H   0  0  0  0  0  0  0  0  0  0  0  0
  -13.1529    8.6316    0.0000 H   0  0  0  0  0  0  0  0  0  0  0  0
  -11.5356    8.3995    0.0000 H   0  0  0  0  0  0  0  0  0  0  0  0
  -14.3896   11.7055    0.0000 H   0  0  0  0  0  0  0  0  0  0  0  0
  -12.6067   11.7782    0.0000 H   0  0  0  0  0  0  0  0  0  0  0  0
  -14.9762    8.3289    0.0000 H   0  0  0  0  0  0  0  0  0  0  0  0
  -18.6441   10.6428    0.0000 H   0  0  0  0  0  0  0  0  0  0  0  0
  -17.3911    8.3668    0.0000 H   0  0  0  0  0  0  0  0  0  0  0  0
  -17.2996   12.8659    0.0000 H   0  0  0  0  0  0  0  0  0  0  0  0
  -14.7020   12.8130    0.0000 H   0  0  0  0  0  0  0  0  0  0  0  0
   -7.0010    8.1554    0.0000 H   0  0  0  0  0  0  0  0  0  0  0  0
   -5.1722    8.9588    0.0000 H   0  0  0  0  0  0  0  0  0  0  0  0
   -6.9046   13.0150    0.0000 H   0  0  0  0  0  0  0  0  0  0  0  0
   -5.3810   12.4251    0.0000 H   0  0  0  0  0  0  0  0  0  0  0  0
   -9.3933   10.5931    0.0000 H   0  0  0  0  0  0  0  0  0  0  0  0
   -7.9529    9.8219    0.0000 H   0  0  0  0  0  0  0  0  0  0  0  0
   -9.5041   13.9047    0.0000 H   0  0  0  0  0  0  0  0  0  0  0  0
   -7.8038   13.3632    0.0000 H   0  0  0  0  0  0  0  0  0  0  0  0
  -11.3660   11.0285    0.0000 H   0  0  0  0  0  0  0  0  0  0  0  0
  -13.8655   14.3612    0.0000 H   0  0  0  0  0  0  0  0  0  0  0  0
  -13.4665   11.7939    0.0000 H   0  0  0  0  0  0  0  0  0  0  0  0
  -11.8416   15.9903    0.0000 H   0  0  0  0  0  0  0  0  0  0  0  0
   -9.4188   15.0523    0.0000 H   0  0  0  0  0  0  0  0  0  0  0  0
   -3.7752    8.0416    0.0000 H   0  0  0  0  0  0  0  0  0  0  0  0
   -1.7819    8.1711    0.0000 H   0  0  0  0  0  0  0  0  0  0  0  0
   -2.2051   12.5901    0.0000 H   0  0  0  0  0  0  0  0  0  0  0  0
   -0.7535   11.3208    0.0000 H   0  0  0  0  0  0  0  0  0  0  0  0
   -5.6167   13.2683    0.0000 H   0  0  0  0  0  0  0  0  0  0  0  0
   -3.2041   13.9298    0.0000 H   0  0  0  0  0  0  0  0  0  0  0  0
   -0.9132    6.9602    0.0000 H   0  0  0  0  0  0  0  0  0  0  0  0
    2.9374   10.0900    0.0000 H   0  0  0  0  0  0  0  0  0  0  0  0
    1.6235    9.4423    0.0000 H   0  0  0  0  0  0  0  0  0  0  0  0
    4.5750   10.6086    0.0000 H   0  0  0  0  0  0  0  0  0  0  0  0
    3.3082   10.3073    0.0000 H   0  0  0  0  0  0  0  0  0  0  0  0
    6.6237   10.4972    0.0000 H   0  0  0  0  0  0  0  0  0  0  0  0
    5.1683   10.6626    0.0000 H   0  0  0  0  0  0  0  0  0  0  0  0
    7.7167   10.4040    0.0000 H   0  0  0  0  0  0  0  0  0  0  0  0
    0.0458    9.8495    0.0000 H   0  0  0  0  0  0  0  0  0  0  0  0
    1.6874   10.5655    0.0000 H   0  0  0  0  0  0  0  0  0  0  0  0
    2.6644    9.8080    0.0000 H   0  0  0  0  0  0  0  0  0  0  0  0
   -1.1681    5.3274    0.0000 H   0  0  0  0  0  0  0  0  0  0  0  0
   -0.8366    2.4796    0.0000 H   0  0  0  0  0  0  0  0  0  0  0  0
   -1.9751    5.4539    0.0000 H   0  0  0  0  0  0  0  0  0  0  0  0
   -0.5059    5.6075    0.0000 H   0  0  0  0  0  0  0  0  0  0  0  0
   -3.2840    2.2374    0.0000 H   0  0  0  0  0  0  0  0  0  0  0  0
   -1.4998    2.2053    0.0000 H   0  0  0  0  0  0  0  0  0  0  0  0
   -4.7132    5.2267    0.0000 H   0  0  0  0  0  0  0  0  0  0  0  0
   -2.9384    5.4123    0.0000 H   0  0  0  0  0  0  0  0  0  0  0  0
   -4.9012    1.8163    0.0000 H   0  0  0  0  0  0  0  0  0  0  0  0
   -8.8917    3.8962    0.0000 H   0  0  0  0  0  0  0  0  0  0  0  0
   -7.4969    1.7043    0.0000 H   0  0  0  0  0  0  0  0  0  0  0  0
   -7.6908    6.2002    0.0000 H   0  0  0  0  0  0  0  0  0  0  0  0
   -5.0952    6.3121    0.0000 H   0  0  0  0  0  0  0  0  0  0  0  0
    0.1335   -0.1447    0.0000 H   0  0  0  0  0  0  0  0  0  0  0  0
    2.5028   -1.7590    0.0000 H   0  0  0  0  0  0  0  0  0  0  0  0
   -0.4906   -0.6718    0.0000 H   0  0  0  0  0  0  0  0  0  0  0  0
    0.3554    0.5392    0.0000 H   0  0  0  0  0  0  0  0  0  0  0  0
    1.0832   -3.7673    0.0000 H   0  0  0  0  0  0  0  0  0  0  0  0
    2.2758   -2.4399    0.0000 H   0  0  0  0  0  0  0  0  0  0  0  0
   -2.1120   -2.8899    0.0000 H   0  0  0  0  0  0  0  0  0  0  0  0
   -1.0900   -1.4270    0.0000 H   0  0  0  0  0  0  0  0  0  0  0  0
    0.3423   -5.2653    0.0000 H   0  0  0  0  0  0  0  0  0  0  0  0
   -3.8428   -6.9190    0.0000 H   0  0  0  0  0  0  0  0  0  0  0  0
   -1.2729   -7.3003    0.0000 H   0  0  0  0  0  0  0  0  0  0  0  0
   -4.7976   -4.5027    0.0000 H   0  0  0  0  0  0  0  0  0  0  0  0
   -3.1825   -2.4677    0.0000 H   0  0  0  0  0  0  0  0  0  0  0  0
    5.3045   -2.7428    0.0000 H   0  0  0  0  0  0  0  0  0  0  0  0
    7.9938   -1.8581    0.0000 H   0  0  0  0  0  0  0  0  0  0  0  0
    4.9929   -3.4213    0.0000 H   0  0  0  0  0  0  0  0  0  0  0  0
    4.8090   -1.9556    0.0000 H   0  0  0  0  0  0  0  0  0  0  0  0
    8.3817   -4.5530    0.0000 H   0  0  0  0  0  0  0  0  0  0  0  0
    8.2589   -2.6285    0.0000 H   0  0  0  0  0  0  0  0  0  0  0  0
    5.8740   -6.3465    0.0000 H   0  0  0  0  0  0  0  0  0  0  0  0
    5.1925   -4.8616    0.0000 H   0  0  0  0  0  0  0  0  0  0  0  0
    9.1279   -5.9400    0.0000 H   0  0  0  0  0  0  0  0  0  0  0  0
    7.6371  -10.1858    0.0000 H   0  0  0  0  0  0  0  0  0  0  0  0
    9.6082   -8.4933    0.0000 H   0  0  0  0  0  0  0  0  0  0  0  0
    5.1857   -9.3251    0.0000 H   0  0  0  0  0  0  0  0  0  0  0  0
    4.5741   -6.8994    0.0000 H   0  0  0  0  0  0  0  0  0  0  0  0
   10.0687   -0.9081    0.0000 H   0  0  0  0  0  0  0  0  0  0  0  0
    8.3372    3.2552    0.0000 H   0  0  0  0  0  0  0  0  0  0  0  0
    9.2931    5.5043    0.0000 H   0  0  0  0  0  0  0  0  0  0  0  0
    8.8406    4.0981    0.0000 H   0  0  0  0  0  0  0  0  0  0  0  0
    8.9235    4.4661    0.0000 H   0  0  0  0  0  0  0  0  0  0  0  0
    7.3085    6.1746    0.0000 H   0  0  0  0  0  0  0  0  0  0  0  0
    8.5646   10.7528    0.0000 H   0  0  0  0  0  0  0  0  0  0  0  0
   11.0084   11.3920    0.0000 H   0  0  0  0  0  0  0  0  0  0  0  0
   13.2914   10.3108    0.0000 H   0  0  0  0  0  0  0  0  0  0  0  0
   14.2714    8.3732    0.0000 H   0  0  0  0  0  0  0  0  0  0  0  0
    9.0529   -0.9081    0.0000 H   0  0  0  0  0  0  0  0  0  0  0  0
   10.8950   -2.6754    0.0000 H   0  0  0  0  0  0  0  0  0  0  0  0
    8.0878   -1.4008    0.0000 H   0  0  0  0  0  0  0  0  0  0  0  0
    8.8670   -0.1459    0.0000 H   0  0  0  0  0  0  0  0  0  0  0  0
    9.2897   -4.3640    0.0000 H   0  0  0  0  0  0  0  0  0  0  0  0
   10.5291   -3.2995    0.0000 H   0  0  0  0  0  0  0  0  0  0  0  0
    6.1206   -3.2767    0.0000 H   0  0  0  0  0  0  0  0  0  0  0  0
    7.5984   -1.6549    0.0000 H   0  0  0  0  0  0  0  0  0  0  0  0
    8.3424   -5.4377    0.0000 H   0  0  0  0  0  0  0  0  0  0  0  0
    3.6737   -6.5403    0.0000 H   0  0  0  0  0  0  0  0  0  0  0  0
    5.9569   -7.5502    0.0000 H   0  0  0  0  0  0  0  0  0  0  0  0
    3.1932   -3.9870    0.0000 H   0  0  0  0  0  0  0  0  0  0  0  0
    5.1642   -2.2943    0.0000 H   0  0  0  0  0  0  0  0  0  0  0  0
   13.3993   -4.0669    0.0000 H   0  0  0  0  0  0  0  0  0  0  0  0
   16.2769   -3.6367    0.0000 H   0  0  0  0  0  0  0  0  0  0  0  0
   13.4591   -5.0364    0.0000 H   0  0  0  0  0  0  0  0  0  0  0  0
   13.1289   -3.4362    0.0000 H   0  0  0  0  0  0  0  0  0  0  0  0
   16.6027   -6.0836    0.0000 H   0  0  0  0  0  0  0  0  0  0  0  0
   16.5666   -4.2995    0.0000 H   0  0  0  0  0  0  0  0  0  0  0  0
   18.7346   -2.5468    0.0000 H   0  0  0  0  0  0  0  0  0  0  0  0
   20.4540    0.3756    0.0000 H   0  0  0  0  0  0  0  0  0  0  0  0
   20.6299    1.8423    0.0000 H   0  0  0  0  0  0  0  0  0  0  0  0
   20.7047    2.2920    0.0000 H   0  0  0  0  0  0  0  0  0  0  0  0
   20.5294    3.5953    0.0000 H   0  0  0  0  0  0  0  0  0  0  0  0
   20.3508    4.1922    0.0000 H   0  0  0  0  0  0  0  0  0  0  0  0
   19.7814    5.3775    0.0000 H   0  0  0  0  0  0  0  0  0  0  0  0
   19.4272    5.8900    0.0000 H   0  0  0  0  0  0  0  0  0  0  0  0
   18.5193    6.8414    0.0000 H   0  0  0  0  0  0  0  0  0  0  0  0
   18.0241    7.2192    0.0000 H   0  0  0  0  0  0  0  0  0  0  0  0
   16.8667    7.8435    0.0000 H   0  0  0  0  0  0  0  0  0  0  0  0
   16.2789    8.0499    0.0000 H   0  0  0  0  0  0  0  0  0  0  0  0
   14.9852    8.2859    0.0000 H   0  0  0  0  0  0  0  0  0  0  0  0
   13.8732    8.3766    0.0000 H   0  0  0  0  0  0  0  0  0  0  0  0
   21.3260   -1.0262    0.0000 H   0  0  0  0  0  0  0  0  0  0  0  0
   21.4984    0.7564    0.0000 H   0  0  0  0  0  0  0  0  0  0  0  0
   20.4757    1.4509    0.0000 H   0  0  0  0  0  0  0  0  0  0  0  0
   21.8984   -0.3258    0.0000 H   0  0  0  0  0  0  0  0  0  0  0  0
   20.2181   -3.1216    0.0000 H   0  0  0  0  0  0  0  0  0  0  0  0
   22.4666   -5.6956    0.0000 H   0  0  0  0  0  0  0  0  0  0  0  0
   23.4081   -4.1797    0.0000 H   0  0  0  0  0  0  0  0  0  0  0  0
   19.3205   -5.7183    0.0000 H   0  0  0  0  0  0  0  0  0  0  0  0
   19.8672   -4.0197    0.0000 H   0  0  0  0  0  0  0  0  0  0  0  0
   20.0219   -9.1413    0.0000 H   0  0  0  0  0  0  0  0  0  0  0  0
   18.3990   -7.1124    0.0000 H   0  0  0  0  0  0  0  0  0  0  0  0
   23.2879   -5.5366    0.0000 H   0  0  0  0  0  0  0  0  0  0  0  0
   25.1800   -2.7222    0.0000 H   0  0  0  0  0  0  0  0  0  0  0  0
   27.8753   -2.6524    0.0000 H   0  0  0  0  0  0  0  0  0  0  0  0
   26.1076   -2.4089    0.0000 H   0  0  0  0  0  0  0  0  0  0  0  0
   28.6725   -6.0323    0.0000 H   0  0  0  0  0  0  0  0  0  0  0  0
   27.1954   -6.0106    0.0000 H   0  0  0  0  0  0  0  0  0  0  0  0
   30.5456   -3.2991    0.0000 H   0  0  0  0  0  0  0  0  0  0  0  0
   28.8207   -2.8420    0.0000 H   0  0  0  0  0  0  0  0  0  0  0  0
   30.2054   -6.6977    0.0000 H   0  0  0  0  0  0  0  0  0  0  0  0
   34.4689   -5.2581    0.0000 H   0  0  0  0  0  0  0  0  0  0  0  0
   32.7528   -7.2086    0.0000 H   0  0  0  0  0  0  0  0  0  0  0  0
   33.6378   -2.7965    0.0000 H   0  0  0  0  0  0  0  0  0  0  0  0
   31.0904   -2.2856    0.0000 H   0  0  0  0  0  0  0  0  0  0  0  0
  1  2  1  0
  2  3  1  0
  3  4  2  0
  4  5  1  0
  5  6  2  0
  6  7  1  0
  7  8  2  0
  7  9  1  0
  9 10  1  0
 10 11  1  0
 11 12  2  0
  9 13  1  0
 13 14  1  0
 14 15  2  0
 15 16  1  0
 16 17  2  0
 17 18  1  0
 16 19  1  0
 14 20  1  0
 20 21  1  0
 21 22  2  0
 22 23  1  0
 23 24  2  0
 24 25  1  0
 25 26  2  0
 25 27  1  0
  1 28  2  0
  1 29  1  0
 29 30  1  0
 30 31  1  0
 31 32  1  0
 32 33  2  0
 32 34  1  0
 34 35  1  0
 35 36  1  0
 36 37  1  0
 36 38  1  0
 35 39  1  0
 39 40  2  0
 39 41  1  0
 41 42  1  0
 42 43  1  0
 43 44  1  0
 44 45  1  0
 45 46  1  0
 46 47  1  0
 47 48  2  3
 47 49  1  0
 42 50  1  0
 50 51  2  0
 50 52  1  0
 52 53  1  0
 53 54  1  0
 54 55  1  0
 55 56  1  0
 56 57  1  0
 56 58  2  0
 53 59  1  0
 59 60  2  0
 59 61  1  0
 61 62  1  0
 62 63  1  0
 62 64  1  0
 64 65  2  0
 64 66  1  0
 66 67  1  0
 67 68  1  0
 68 69  1  0
 69 70  1  0
 70 71  1  0
 71 72  1  0
 72 73  2  3
 72 74  1  0
 67 75  1  0
 75 76  2  0
 75 77  1  0
 77 78  1  0
 78 79  1  0
 79 80  1  0
 80 81  1  0
 81 82  1  0
 82 83  1  0
 83 84  2  3
 83 85  1  0
 78 86  1  0
 86 87  2  0
 86 88  1  0
 88 89  1  0
 89 90  1  0
 90 91  1  0
 91 92  1  0
 91 93  2  0
 89 94  1  0
 94 95  2  0
 94 96  1  0
 97 96  1  6
 97 98  1  0
 98 99  1  0
 99100  1  0
100101  1  0
 97102  1  0
 97103  1  0
103104  2  0
103105  1  0
105106  1  0
106107  1  0
107108  1  0
108109  1  0
109110  1  0
110111  1  0
111112  2  3
111113  1  0
106114  1  0
114115  2  0
114116  1  0
116117  1  0
117118  1  0
118119  1  0
119120  1  0
120121  1  0
121122  1  0
122123  2  3
122124  1  0
117125  1  0
125126  2  0
125127  1  0
127128  1  0
128129  1  0
129130  1  0
130131  1  0
131132  1  0
132133  1  0
133134  2  3
133135  1  0
128136  1  0
136137  2  0
136138  1  0
138139  1  0
139140  1  0
140141  1  0
141142  2  0
142143  1  0
143144  1  0
144145  1  0
145146  2  0
146147  1  0
147148  2  0
148149  1  0
139150  1  0
150151  2  0
150152  1  0
152153  1  0
153154  1  0
154155  1  0
155156  1  0
156157  1  0
157158  1  0
158159  2  3
158160  1  0
153161  1  0
161162  2  0
161163  1  0
163164  1  0
164165  1  0
165166  1  0
166167  1  0
167168  2  0
167169  1  0
164170  1  0
170171  2  0
170172  1  0
172173  1  0
173174  1  0
174175  1  0
175176  1  0
176177  1  0
177178  1  0
178179  1  0
179180  1  0
173181  1  0
173182  1  1
182183  2  0
182184  1  0
184185  1  0
185186  1  0
186187  1  0
187188  1  0
188189  1  0
188190  2  0
185191  1  0
191192  2  0
191193  1  0
193194  1  0
194195  1  0
195196  1  0
196197  1  0
197198  1  0
198199  1  0
199200  2  3
199201  1  0
194202  1  0
202203  2  0
202204  1  0
  8  3  1  0
149141  1  0
 11  6  1  0
101144  2  0
180149  2  0
 18 13  2  0
 22  9  1  0
 26 21  1  0
  2205  1  0
  4206  1  0
  5207  1  0
  8208  1  0
 15209  1  0
 17210  1  0
 18211  1  0
 19212  1  0
 23213  1  0
 24214  1  0
 26215  1  0
 27216  1  0
 29217  1  0
 30218  1  0
 30219  1  0
 31220  1  0
 31221  1  0
 34222  1  0
 35223  1  1
 36224  1  6
 37225  1  0
 38226  1  0
 38227  1  0
 38228  1  0
 41229  1  0
 42230  1  1
 43231  1  0
 43232  1  0
 44233  1  0
 44234  1  0
 45235  1  0
 45236  1  0
 46237  1  0
 48238  1  0
 48239  1  0
 49240  1  0
 49241  1  0
 52242  1  0
 53243  1  1
 54244  1  0
 54245  1  0
 55246  1  0
 55247  1  0
 57248  1  0
 57249  1  0
 61250  1  0
 62251  1  1
 63252  1  0
 63253  1  0
 63254  1  0
 66255  1  0
 67256  1  1
 68257  1  0
 68258  1  0
 69259  1  0
 69260  1  0
 70261  1  0
 70262  1  0
 71263  1  0
 73264  1  0
 73265  1  0
 74266  1  0
 74267  1  0
 77268  1  0
 78269  1  1
 79270  1  0
 79271  1  0
 80272  1  0
 80273  1  0
 81274  1  0
 81275  1  0
 82276  1  0
 84277  1  0
 84278  1  0
 85279  1  0
 85280  1  0
 88281  1  0
 89282  1  1
 90283  1  0
 90284  1  0
 92285  1  0
 92286  1  0
 96287  1  0
 98288  1  0
 98289  1  0
 99290  1  0
 99291  1  0
100292  1  0
100293  1  0
101294  1  0
102295  1  0
102296  1  0
102297  1  0
105298  1  0
106299  1  6
107300  1  0
107301  1  0
108302  1  0
108303  1  0
109304  1  0
109305  1  0
110306  1  0
112307  1  0
112308  1  0
113309  1  0
113310  1  0
116311  1  0
117312  1  6
118313  1  0
118314  1  0
119315  1  0
119316  1  0
120317  1  0
120318  1  0
121319  1  0
123320  1  0
123321  1  0
124322  1  0
124323  1  0
127324  1  0
128325  1  6
129326  1  0
129327  1  0
130328  1  0
130329  1  0
131330  1  0
131331  1  0
132332  1  0
134333  1  0
134334  1  0
135335  1  0
135336  1  0
138337  1  0
139338  1  1
140339  1  0
140340  1  0
142341  1  0
143342  1  0
145343  1  0
146344  1  0
147345  1  0
148346  1  0
152347  1  0
153348  1  6
154349  1  0
154350  1  0
155351  1  0
155352  1  0
156353  1  0
156354  1  0
157355  1  0
159356  1  0
159357  1  0
160358  1  0
160359  1  0
163360  1  0
164361  1  6
165362  1  0
165363  1  0
166364  1  0
166365  1  0
172366  1  0
174367  1  0
174368  1  0
175369  1  0
175370  1  0
176371  1  0
176372  1  0
177373  1  0
177374  1  0
178375  1  0
178376  1  0
179377  1  0
179378  1  0
180379  1  0
181380  1  0
181381  1  0
181382  1  0
184383  1  0
185384  1  6
186385  1  0
186386  1  0
187387  1  0
187388  1  0
189389  1  0
189390  1  0
193391  1  0
194392  1  1
195393  1  0
195394  1  0
196395  1  0
196396  1  0
197397  1  0
197398  1  0
198399  1  0
200400  1  0
200401  1  0
201402  1  0
201403  1  0
M  CHG  8  48   1  73   1  84   1 112   1 123   1 134   1 159   1 169  -1
M  CHG  2 200   1 204  -1
M  END
