
     RDKit          2D

161162  0  0  0  0  0  0  0  0999 V2000
   -0.4007   -6.9610    0.0000 N   0  0  0  0  0  0  0  0  0  0  0  0
   -1.8521   -6.5822    0.0000 C   0  0  0  0  0  0  0  0  0  0  0  0
   -2.2497   -5.1358    0.0000 C   0  0  0  0  0  0  0  0  0  0  0  0
   -3.7010   -4.7570    0.0000 C   0  0  0  0  0  0  0  0  0  0  0  0
   -4.4428   -5.7193    0.0000 O   0  0  0  0  0  0  0  0  0  0  0  0
   -4.0986   -3.3107    0.0000 N   0  0  0  0  0  0  0  0  0  0  0  0
   -5.5500   -2.9318    0.0000 C   0  0  0  0  0  0  0  0  0  0  0  0
   -5.6711   -4.4269    0.0000 C   0  0  0  0  0  0  0  0  0  0  0  0
   -7.0264   -5.0697    0.0000 C   0  0  0  0  0  0  0  0  0  0  0  0
   -7.1474   -6.5648    0.0000 C   0  0  0  0  0  0  0  0  0  0  0  0
   -8.5028   -7.2075    0.0000 C   0  0  0  0  0  0  0  0  0  0  0  0
   -8.6238   -8.7026    0.0000 N   0  0  0  0  0  0  0  0  0  0  0  0
   -6.7843   -2.0794    0.0000 C   0  0  0  0  0  0  0  0  0  0  0  0
   -7.9245   -2.8023    0.0000 O   0  0  0  0  0  0  0  0  0  0  0  0
   -6.6632   -0.5843    0.0000 N   0  0  0  0  0  0  0  0  0  0  0  0
   -7.8975    0.2680    0.0000 C   0  0  0  0  0  0  0  0  0  0  0  0
   -8.5226   -1.0955    0.0000 C   0  0  0  0  0  0  0  0  0  0  0  0
  -10.0160   -1.2359    0.0000 C   0  0  0  0  0  0  0  0  0  0  0  0
  -10.6412   -2.5994    0.0000 N   0  0  0  0  0  0  0  0  0  0  0  0
  -10.8844   -0.0128    0.0000 O   0  0  0  0  0  0  0  0  0  0  0  0
   -8.7658    1.4912    0.0000 C   0  0  0  0  0  0  0  0  0  0  0  0
  -10.0845    1.2019    0.0000 O   0  0  0  0  0  0  0  0  0  0  0  0
   -8.1407    2.8547    0.0000 N   0  0  0  0  0  0  0  0  0  0  0  0
   -9.0090    4.0778    0.0000 C   0  0  0  0  0  0  0  0  0  0  0  0
  -10.2433    4.9302    0.0000 C   0  0  0  0  0  0  0  0  0  0  0  0
  -11.5986    4.2875    0.0000 C   0  0  0  0  0  0  0  0  0  0  0  0
  -11.8753    2.8132    0.0000 C   0  0  0  0  0  0  0  0  0  0  0  0
  -13.3629    2.6208    0.0000 N   0  0  0  0  0  0  0  0  0  0  0  0
  -14.0056    3.9761    0.0000 C   0  0  0  0  0  0  0  0  0  0  0  0
  -12.9152    5.0062    0.0000 N   0  0  0  0  0  0  0  0  0  0  0  0
   -7.6537    4.7206    0.0000 C   0  0  0  0  0  0  0  0  0  0  0  0
   -7.5327    6.2157    0.0000 O   0  0  0  0  0  0  0  0  0  0  0  0
   -6.4194    3.8682    0.0000 N   0  0  0  0  0  0  0  0  0  0  0  0
   -5.0641    4.5109    0.0000 C   0  0  0  0  0  0  0  0  0  0  0  0
   -4.0103    5.5784    0.0000 C   0  0  0  0  0  0  0  0  0  0  0  0
   -3.3852    6.9419    0.0000 O   0  0  0  0  0  0  0  0  0  0  0  0
   -2.5236    5.3793    0.0000 C   0  0  0  0  0  0  0  0  0  0  0  0
   -3.8298    3.6585    0.0000 C   0  0  0  0  0  0  0  0  0  0  0  0
   -3.9509    2.1634    0.0000 O   0  0  0  0  0  0  0  0  0  0  0  0
   -2.4745    4.3012    0.0000 N   0  0  0  0  0  0  0  0  0  0  0  0
   -1.2402    3.4488    0.0000 C   0  0  0  0  0  0  0  0  0  0  0  0
   -0.3719    2.2257    0.0000 C   0  0  0  0  0  0  0  0  0  0  0  0
   -0.9970    0.8622    0.0000 C   0  0  0  0  0  0  0  0  0  0  0  0
   -0.2613   -0.4450    0.0000 C   0  0  0  0  0  0  0  0  0  0  0  0
   -1.2772   -1.5486    0.0000 N   0  0  0  0  0  0  0  0  0  0  0  0
   -2.6407   -0.9235    0.0000 C   0  0  0  0  0  0  0  0  0  0  0  0
   -2.4676    0.5664    0.0000 N   0  0  0  0  0  0  0  0  0  0  0  0
    0.1151    4.0916    0.0000 C   0  0  0  0  0  0  0  0  0  0  0  0
    0.2362    5.5867    0.0000 O   0  0  0  0  0  0  0  0  0  0  0  0
    1.3494    3.2392    0.0000 N   0  0  0  0  0  0  0  0  0  0  0  0
    2.7047    3.8819    0.0000 C   0  0  0  0  0  0  0  0  0  0  0  0
    3.7585    4.9494    0.0000 C   0  0  0  0  0  0  0  0  0  0  0  0
    5.2098    4.5706    0.0000 C   0  0  0  0  0  0  0  0  0  0  0  0
    6.2636    5.6381    0.0000 C   0  0  0  0  0  0  0  0  0  0  0  0
    7.6580    5.0852    0.0000 N   0  0  0  0  0  0  0  0  0  0  0  0
    5.8660    7.0844    0.0000 O   0  0  0  0  0  0  0  0  0  0  0  0
    3.9390    3.0295    0.0000 C   0  0  0  0  0  0  0  0  0  0  0  0
    3.8179    1.5344    0.0000 O   0  0  0  0  0  0  0  0  0  0  0  0
    5.2943    3.6722    0.0000 N   0  0  0  0  0  0  0  0  0  0  0  0
    6.5286    2.8199    0.0000 C   0  0  0  0  0  0  0  0  0  0  0  0
    7.9800    2.4410    0.0000 C   0  0  0  0  0  0  0  0  0  0  0  0
    9.0337    3.5085    0.0000 C   0  0  0  0  0  0  0  0  0  0  0  0
   10.4851    3.1297    0.0000 C   0  0  0  0  0  0  0  0  0  0  0  0
   11.5389    4.1972    0.0000 N   0  0  0  0  0  0  0  0  0  0  0  0
   10.8827    1.6834    0.0000 O   0  0  0  0  0  0  0  0  0  0  0  0
    6.4075    1.3247    0.0000 C   0  0  0  0  0  0  0  0  0  0  0  0
    5.0522    0.6820    0.0000 O   0  0  0  0  0  0  0  0  0  0  0  0
    7.6418    0.4724    0.0000 N   0  0  0  0  0  0  0  0  0  0  0  0
    7.5208   -1.0227    0.0000 C   0  0  0  0  0  0  0  0  0  0  0  0
    6.8957   -2.3863    0.0000 C   0  0  0  0  0  0  0  0  0  0  0  0
    5.4022   -2.5267    0.0000 C   0  0  0  0  0  0  0  0  0  0  0  0
    4.7771   -3.8902    0.0000 O   0  0  0  0  0  0  0  0  0  0  0  0
    4.5339   -1.3036    0.0000 O   0  0  0  0  0  0  0  0  0  0  0  0
    8.7550   -1.8751    0.0000 C   0  0  0  0  0  0  0  0  0  0  0  0
    8.8171   -3.3738    0.0000 O   0  0  0  0  0  0  0  0  0  0  0  0
   10.1104   -1.2324    0.0000 N   0  0  0  0  0  0  0  0  0  0  0  0
   11.3446   -2.0848    0.0000 C   0  0  0  0  0  0  0  0  0  0  0  0
   12.2129   -3.3079    0.0000 C   0  0  0  0  0  0  0  0  0  0  0  0
   13.7064   -3.1675    0.0000 C   0  0  0  0  0  0  0  0  0  0  0  0
   12.6106   -4.7543    0.0000 C   0  0  0  0  0  0  0  0  0  0  0  0
   11.5568   -5.8218    0.0000 C   0  0  0  0  0  0  0  0  0  0  0  0
   12.7000   -1.4421    0.0000 C   0  0  0  0  0  0  0  0  0  0  0  0
   14.0289   -2.1377    0.0000 O   0  0  0  0  0  0  0  0  0  0  0  0
   12.8210    0.0530    0.0000 O   0  0  0  0  0  0  0  0  0  0  0  0
   -0.0031   -8.4074    0.0000 H   0  0  0  0  0  0  0  0  0  0  0  0
    0.6531   -5.8935    0.0000 H   0  0  0  0  0  0  0  0  0  0  0  0
   -1.9731   -8.0773    0.0000 H   0  0  0  0  0  0  0  0  0  0  0  0
   -3.3455   -6.7226    0.0000 H   0  0  0  0  0  0  0  0  0  0  0  0
   -0.7563   -4.9954    0.0000 H   0  0  0  0  0  0  0  0  0  0  0  0
   -2.1286   -3.6407    0.0000 H   0  0  0  0  0  0  0  0  0  0  0  0
   -3.0449   -2.2432    0.0000 H   0  0  0  0  0  0  0  0  0  0  0  0
   -4.9249   -1.5683    0.0000 H   0  0  0  0  0  0  0  0  0  0  0  0
   -5.3490   -5.5985    0.0000 H   0  0  0  0  0  0  0  0  0  0  0  0
   -4.5900   -4.5911    0.0000 H   0  0  0  0  0  0  0  0  0  0  0  0
   -8.5258   -5.0270    0.0000 H   0  0  0  0  0  0  0  0  0  0  0  0
   -7.4240   -3.6233    0.0000 H   0  0  0  0  0  0  0  0  0  0  0  0
   -6.5765   -7.9519    0.0000 H   0  0  0  0  0  0  0  0  0  0  0  0
   -5.6481   -6.6074    0.0000 H   0  0  0  0  0  0  0  0  0  0  0  0
   -9.9962   -7.3479    0.0000 H   0  0  0  0  0  0  0  0  0  0  0  0
   -9.0737   -5.8204    0.0000 H   0  0  0  0  0  0  0  0  0  0  0  0
   -9.9791   -9.3453    0.0000 H   0  0  0  0  0  0  0  0  0  0  0  0
   -8.2262  -10.1489    0.0000 H   0  0  0  0  0  0  0  0  0  0  0  0
   -7.1244   -8.7453    0.0000 H   0  0  0  0  0  0  0  0  0  0  0  0
   -5.3079    0.0584    0.0000 H   0  0  0  0  0  0  0  0  0  0  0  0
   -6.8438    1.3356    0.0000 H   0  0  0  0  0  0  0  0  0  0  0  0
   -8.7948   -2.4178    0.0000 H   0  0  0  0  0  0  0  0  0  0  0  0
   -7.5628   -1.6195    0.0000 H   0  0  0  0  0  0  0  0  0  0  0  0
  -12.1346   -2.7399    0.0000 H   0  0  0  0  0  0  0  0  0  0  0  0
   -9.7728   -3.8226    0.0000 H   0  0  0  0  0  0  0  0  0  0  0  0
   -7.2878    2.6160    0.0000 H   0  0  0  0  0  0  0  0  0  0  0  0
  -10.0628    3.0103    0.0000 H   0  0  0  0  0  0  0  0  0  0  0  0
   -9.1895    5.9977    0.0000 H   0  0  0  0  0  0  0  0  0  0  0  0
  -11.1116    6.1534    0.0000 H   0  0  0  0  0  0  0  0  0  0  0  0
  -11.0748    1.7262    0.0000 H   0  0  0  0  0  0  0  0  0  0  0  0
  -14.0816    1.3042    0.0000 H   0  0  0  0  0  0  0  0  0  0  0  0
  -15.4799    4.2528    0.0000 H   0  0  0  0  0  0  0  0  0  0  0  0
   -6.3828    2.9832    0.0000 H   0  0  0  0  0  0  0  0  0  0  0  0
   -5.9324    5.7340    0.0000 H   0  0  0  0  0  0  0  0  0  0  0  0
   -5.2446    6.4308    0.0000 H   0  0  0  0  0  0  0  0  0  0  0  0
   -4.2535    8.1651    0.0000 H   0  0  0  0  0  0  0  0  0  0  0  0
   -1.5052    6.2671    0.0000 H   0  0  0  0  0  0  0  0  0  0  0  0
   -1.3247    4.3472    0.0000 H   0  0  0  0  0  0  0  0  0  0  0  0
   -2.4706    3.7022    0.0000 H   0  0  0  0  0  0  0  0  0  0  0  0
   -2.1721    5.7704    0.0000 H   0  0  0  0  0  0  0  0  0  0  0  0
   -2.2940    2.3813    0.0000 H   0  0  0  0  0  0  0  0  0  0  0  0
    0.7493    1.2292    0.0000 H   0  0  0  0  0  0  0  0  0  0  0  0
    0.9088    3.0065    0.0000 H   0  0  0  0  0  0  0  0  0  0  0  0
    1.2286   -0.6182    0.0000 H   0  0  0  0  0  0  0  0  0  0  0  0
   -0.9814   -3.0192    0.0000 H   0  0  0  0  0  0  0  0  0  0  0  0
   -3.9479   -1.6592    0.0000 H   0  0  0  0  0  0  0  0  0  0  0  0
    1.4115    1.7405    0.0000 H   0  0  0  0  0  0  0  0  0  0  0  0
    1.8364    5.1050    0.0000 H   0  0  0  0  0  0  0  0  0  0  0  0
    4.3836    6.3130    0.0000 H   0  0  0  0  0  0  0  0  0  0  0  0
    2.5242    5.8018    0.0000 H   0  0  0  0  0  0  0  0  0  0  0  0
    6.5388    3.8750    0.0000 H   0  0  0  0  0  0  0  0  0  0  0  0
    5.2982    3.0732    0.0000 H   0  0  0  0  0  0  0  0  0  0  0  0
    8.7688    6.3268    0.0000 H   0  0  0  0  0  0  0  0  0  0  0  0
    7.9541    3.7670    0.0000 H   0  0  0  0  0  0  0  0  0  0  0  0
    5.7735    5.0936    0.0000 H   0  0  0  0  0  0  0  0  0  0  0  0
    7.1537    4.1834    0.0000 H   0  0  0  0  0  0  0  0  0  0  0  0
    9.3089    1.7454    0.0000 H   0  0  0  0  0  0  0  0  0  0  0  0
    7.7034    0.9667    0.0000 H   0  0  0  0  0  0  0  0  0  0  0  0
    9.6588    4.8721    0.0000 H   0  0  0  0  0  0  0  0  0  0  0  0
    7.7047    4.2041    0.0000 H   0  0  0  0  0  0  0  0  0  0  0  0
   12.9902    3.8184    0.0000 H   0  0  0  0  0  0  0  0  0  0  0  0
   11.1413    5.6435    0.0000 H   0  0  0  0  0  0  0  0  0  0  0  0
    9.0654    0.9451    0.0000 H   0  0  0  0  0  0  0  0  0  0  0  0
    6.0694   -0.6439    0.0000 H   0  0  0  0  0  0  0  0  0  0  0  0
    6.7746   -3.8814    0.0000 H   0  0  0  0  0  0  0  0  0  0  0  0
    8.2900   -2.9392    0.0000 H   0  0  0  0  0  0  0  0  0  0  0  0
   10.2314    0.2627    0.0000 H   0  0  0  0  0  0  0  0  0  0  0  0
   10.2909   -3.1523    0.0000 H   0  0  0  0  0  0  0  0  0  0  0  0
   10.7894   -3.7806    0.0000 H   0  0  0  0  0  0  0  0  0  0  0  0
   14.7173   -4.2757    0.0000 H   0  0  0  0  0  0  0  0  0  0  0  0
   15.0617   -2.5248    0.0000 H   0  0  0  0  0  0  0  0  0  0  0  0
   13.8536   -1.6748    0.0000 H   0  0  0  0  0  0  0  0  0  0  0  0
   13.4789   -5.9774    0.0000 H   0  0  0  0  0  0  0  0  0  0  0  0
   14.0341   -4.2816    0.0000 H   0  0  0  0  0  0  0  0  0  0  0  0
   11.9544   -7.2681    0.0000 H   0  0  0  0  0  0  0  0  0  0  0  0
   10.2015   -6.4645    0.0000 H   0  0  0  0  0  0  0  0  0  0  0  0
   10.5459   -4.7136    0.0000 H   0  0  0  0  0  0  0  0  0  0  0  0
  1  2  1  0
  2  3  1  0
  3  4  1  0
  4  5  2  0
  4  6  1  0
  6  7  1  0
  7  8  1  0
  8  9  1  0
  9 10  1  0
 10 11  1  0
 11 12  1  0
  7 13  1  0
 13 14  2  0
 13 15  1  0
 15 16  1  0
 16 17  1  0
 17 18  1  0
 18 19  1  0
 18 20  2  0
 16 21  1  0
 21 22  2  0
 21 23  1  0
 23 24  1  0
 24 25  1  0
 25 26  1  0
 26 27  2  0
 27 28  1  0
 28 29  1  0
 29 30  2  0
 24 31  1  0
 31 32  2  0
 31 33  1  0
 33 34  1  0
 34 35  1  0
 35 36  1  0
 35 37  1  0
 34 38  1  0
 38 39  2  0
 38 40  1  0
 40 41  1  0
 41 42  1  0
 42 43  1  0
 43 44  2  0
 44 45  1  0
 45 46  1  0
 46 47  2  0
 41 48  1  0
 48 49  2  0
 48 50  1  0
 50 51  1  0
 51 52  1  0
 52 53  1  0
 53 54  1  0
 54 55  1  0
 54 56  2  0
 51 57  1  0
 57 58  2  0
 57 59  1  0
 59 60  1  0
 60 61  1  0
 61 62  1  0
 62 63  1  0
 63 64  1  0
 63 65  2  0
 60 66  1  0
 66 67  2  0
 66 68  1  0
 68 69  1  0
 69 70  1  0
 70 71  1  0
 71 72  2  0
 71 73  1  0
 69 74  1  0
 74 75  2  0
 74 76  1  0
 76 77  1  0
 77 78  1  0
 78 79  1  0
 78 80  1  0
 80 81  1  0
 77 82  1  0
 82 83  2  0
 82 84  1  0
 30 26  1  0
 47 43  1  0
  1 85  1  0
  1 86  1  0
  2 87  1  0
  2 88  1  0
  3 89  1  0
  3 90  1  0
  6 91  1  0
  7 92  1  1
  8 93  1  0
  8 94  1  0
  9 95  1  0
  9 96  1  0
 10 97  1  0
 10 98  1  0
 11 99  1  0
 11100  1  0
 12101  1  0
 12102  1  0
 12103  1  0
 15104  1  0
 16105  1  1
 17106  1  0
 17107  1  0
 19108  1  0
 19109  1  0
 23110  1  0
 24111  1  1
 25112  1  0
 25113  1  0
 27114  1  0
 28115  1  0
 29116  1  0
 33117  1  0
 34118  1  1
 35119  1  1
 36120  1  0
 37121  1  0
 37122  1  0
 37123  1  0
 40124  1  0
 41125  1  6
 42126  1  0
 42127  1  0
 44128  1  0
 45129  1  0
 46130  1  0
 50131  1  0
 51132  1  1
 52133  1  0
 52134  1  0
 53135  1  0
 53136  1  0
 55137  1  0
 55138  1  0
 59139  1  0
 60140  1  1
 61141  1  0
 61142  1  0
 62143  1  0
 62144  1  0
 64145  1  0
 64146  1  0
 68147  1  0
 69148  1  6
 70149  1  0
 70150  1  0
 76151  1  0
 77152  1  6
 78153  1  6
 79154  1  0
 79155  1  0
 79156  1  0
 80157  1  0
 80158  1  0
 81159  1  0
 81160  1  0
 81161  1  0
M  CHG  3  12   1  73  -1  84  -1
M  END
