
     RDKit          2D

465471  0  0  0  0  0  0  0  0999 V2000
   26.6981   10.9674    0.0000 C   0  0  0  0  0  0  0  0  0  0  0  0
   26.1560   12.3660    0.0000 N   0  0  0  0  0  0  0  0  0  0  0  0
   27.0961   13.5348    0.0000 C   0  0  0  0  0  0  0  0  0  0  0  0
   28.5784   13.3049    0.0000 C   0  0  0  0  0  0  0  0  0  0  0  0
   29.5186   14.4737    0.0000 C   0  0  0  0  0  0  0  0  0  0  0  0
   28.9765   15.8723    0.0000 C   0  0  0  0  0  0  0  0  0  0  0  0
   27.4942   16.1022    0.0000 C   0  0  0  0  0  0  0  0  0  0  0  0
   26.5540   14.9334    0.0000 C   0  0  0  0  0  0  0  0  0  0  0  0
   27.2547   17.5829    0.0000 C   0  0  0  0  0  0  0  0  0  0  0  0
   28.5890   18.2683    0.0000 O   0  0  0  0  0  0  0  0  0  0  0  0
   29.6531   17.2111    0.0000 C   0  0  0  0  0  0  0  0  0  0  0  0
   31.1339   17.4505    0.0000 O   0  0  0  0  0  0  0  0  0  0  0  0
   27.1714   19.0806    0.0000 C   0  0  0  0  0  0  0  0  0  0  0  0
   25.8326   19.7572    0.0000 C   0  0  0  0  0  0  0  0  0  0  0  0
   25.7493   21.2549    0.0000 C   0  0  0  0  0  0  0  0  0  0  0  0
   27.0046   22.0760    0.0000 C   0  0  0  0  0  0  0  0  0  0  0  0
   28.3433   21.3993    0.0000 C   0  0  0  0  0  0  0  0  0  0  0  0
   28.4267   19.9017    0.0000 C   0  0  0  0  0  0  0  0  0  0  0  0
   26.9212   23.5737    0.0000 O   0  0  0  0  0  0  0  0  0  0  0  0
   24.5773   18.9362    0.0000 O   0  0  0  0  0  0  0  0  0  0  0  0
   24.6607   17.4385    0.0000 C   0  0  0  0  0  0  0  0  0  0  0  0
   25.9994   16.7619    0.0000 C   0  0  0  0  0  0  0  0  0  0  0  0
   25.4580   15.5800    0.0000 C   0  0  0  0  0  0  0  0  0  0  0  0
   24.7885   15.1421    0.0000 C   0  0  0  0  0  0  0  0  0  0  0  0
   24.0745   15.5029    0.0000 C   0  0  0  0  0  0  0  0  0  0  0  0
   24.0301   16.3017    0.0000 C   0  0  0  0  0  0  0  0  0  0  0  0
   22.2334   14.2987    0.0000 O   0  0  0  0  0  0  0  0  0  0  0  0
   28.1803   10.7375    0.0000 S   0  0  0  0  0  0  0  0  0  0  0  0
   25.7579    9.7986    0.0000 N   0  0  0  0  0  0  0  0  0  0  0  0
   26.3000    8.4000    0.0000 C   0  0  0  0  0  0  0  0  0  0  0  0
   25.3598    7.2312    0.0000 C   0  0  0  0  0  0  0  0  0  0  0  0
   25.9019    5.8326    0.0000 C   0  0  0  0  0  0  0  0  0  0  0  0
   26.6987    5.8074    0.0000 O   0  0  0  0  0  0  0  0  0  0  0  0
   24.9617    4.6638    0.0000 N   0  0  0  0  0  0  0  0  0  0  0  0
   25.5038    3.2652    0.0000 C   0  0  0  0  0  0  0  0  0  0  0  0
   26.7871    4.0419    0.0000 C   0  0  0  0  0  0  0  0  0  0  0  0
   28.2586    4.3329    0.0000 O   0  0  0  0  0  0  0  0  0  0  0  0
   26.9390    5.5342    0.0000 C   0  0  0  0  0  0  0  0  0  0  0  0
   25.5349    1.7655    0.0000 C   0  0  0  0  0  0  0  0  0  0  0  0
   26.9850    1.3821    0.0000 O   0  0  0  0  0  0  0  0  0  0  0  0
   24.2517    0.9888    0.0000 N   0  0  0  0  0  0  0  0  0  0  0  0
   24.2827   -0.5109    0.0000 C   0  0  0  0  0  0  0  0  0  0  0  0
   25.7542   -0.2199    0.0000 C   0  0  0  0  0  0  0  0  0  0  0  0
   26.2379    1.1999    0.0000 C   0  0  0  0  0  0  0  0  0  0  0  0
   27.2365   -0.4497    0.0000 C   0  0  0  0  0  0  0  0  0  0  0  0
   28.1767    0.7190    0.0000 C   0  0  0  0  0  0  0  0  0  0  0  0
   23.7990   -1.9308    0.0000 C   0  0  0  0  0  0  0  0  0  0  0  0
   25.0305   -2.7871    0.0000 O   0  0  0  0  0  0  0  0  0  0  0  0
   22.3275   -2.2218    0.0000 N   0  0  0  0  0  0  0  0  0  0  0  0
   21.8437   -3.6416    0.0000 C   0  0  0  0  0  0  0  0  0  0  0  0
   23.3260   -3.8715    0.0000 C   0  0  0  0  0  0  0  0  0  0  0  0
   24.2662   -2.7027    0.0000 C   0  0  0  0  0  0  0  0  0  0  0  0
   25.7485   -2.9325    0.0000 C   0  0  0  0  0  0  0  0  0  0  0  0
   24.7499   -1.2828    0.0000 C   0  0  0  0  0  0  0  0  0  0  0  0
   20.9036   -4.8104    0.0000 C   0  0  0  0  0  0  0  0  0  0  0  0
   21.7680   -6.0363    0.0000 O   0  0  0  0  0  0  0  0  0  0  0  0
   19.4213   -4.5806    0.0000 N   0  0  0  0  0  0  0  0  0  0  0  0
   18.4811   -5.7494    0.0000 C   0  0  0  0  0  0  0  0  0  0  0  0
   19.7954   -6.4723    0.0000 C   0  0  0  0  0  0  0  0  0  0  0  0
   21.0786   -5.6956    0.0000 C   0  0  0  0  0  0  0  0  0  0  0  0
   22.3929   -6.4185    0.0000 C   0  0  0  0  0  0  0  0  0  0  0  0
   23.6761   -5.6418    0.0000 C   0  0  0  0  0  0  0  0  0  0  0  0
   24.9904   -6.3647    0.0000 N   0  0  0  0  0  0  0  0  0  0  0  0
   17.1979   -6.5261    0.0000 C   0  0  0  0  0  0  0  0  0  0  0  0
   17.4115   -8.0108    0.0000 O   0  0  0  0  0  0  0  0  0  0  0  0
   15.8836   -5.8032    0.0000 N   0  0  0  0  0  0  0  0  0  0  0  0
   14.6003   -6.5799    0.0000 C   0  0  0  0  0  0  0  0  0  0  0  0
   15.5881   -7.7088    0.0000 C   0  0  0  0  0  0  0  0  0  0  0  0
   13.1288   -6.8709    0.0000 C   0  0  0  0  0  0  0  0  0  0  0  0
   12.6451   -8.2908    0.0000 O   0  0  0  0  0  0  0  0  0  0  0  0
   12.1411   -5.7420    0.0000 N   0  0  0  0  0  0  0  0  0  0  0  0
   10.6696   -6.0331    0.0000 C   0  0  0  0  0  0  0  0  0  0  0  0
   10.6385   -4.5334    0.0000 C   0  0  0  0  0  0  0  0  0  0  0  0
   11.8175   -3.6060    0.0000 O   0  0  0  0  0  0  0  0  0  0  0  0
    9.3863   -6.8098    0.0000 C   0  0  0  0  0  0  0  0  0  0  0  0
    8.1700   -5.9320    0.0000 O   0  0  0  0  0  0  0  0  0  0  0  0
    9.4174   -8.3095    0.0000 N   0  0  0  0  0  0  0  0  0  0  0  0
    8.1342   -9.0862    0.0000 C   0  0  0  0  0  0  0  0  0  0  0  0
    7.5921   -7.6876    0.0000 C   0  0  0  0  0  0  0  0  0  0  0  0
    8.3828   -6.4129    0.0000 C   0  0  0  0  0  0  0  0  0  0  0  0
    7.1940  -10.2550    0.0000 C   0  0  0  0  0  0  0  0  0  0  0  0
    5.7117  -10.0252    0.0000 O   0  0  0  0  0  0  0  0  0  0  0  0
    7.7361  -11.6536    0.0000 N   0  0  0  0  0  0  0  0  0  0  0  0
    6.7959  -12.8224    0.0000 C   0  0  0  0  0  0  0  0  0  0  0  0
    8.1102  -13.5453    0.0000 C   0  0  0  0  0  0  0  0  0  0  0  0
    9.3934  -12.7686    0.0000 C   0  0  0  0  0  0  0  0  0  0  0  0
   10.7077  -13.4915    0.0000 O   0  0  0  0  0  0  0  0  0  0  0  0
    9.5454  -11.2763    0.0000 O   0  0  0  0  0  0  0  0  0  0  0  0
    5.5127  -13.5991    0.0000 C   0  0  0  0  0  0  0  0  0  0  0  0
    5.9057  -15.0467    0.0000 O   0  0  0  0  0  0  0  0  0  0  0  0
    4.1984  -12.8762    0.0000 N   0  0  0  0  0  0  0  0  0  0  0  0
    2.9151  -13.6529    0.0000 C   0  0  0  0  0  0  0  0  0  0  0  0
    3.9029  -14.7818    0.0000 C   0  0  0  0  0  0  0  0  0  0  0  0
    5.3744  -14.4908    0.0000 C   0  0  0  0  0  0  0  0  0  0  0  0
    6.3622  -15.6196    0.0000 C   0  0  0  0  0  0  0  0  0  0  0  0
    7.8337  -15.3286    0.0000 C   0  0  0  0  0  0  0  0  0  0  0  0
    8.3174  -13.9088    0.0000 C   0  0  0  0  0  0  0  0  0  0  0  0
    9.7889  -13.6178    0.0000 O   0  0  0  0  0  0  0  0  0  0  0  0
    7.3297  -12.7799    0.0000 C   0  0  0  0  0  0  0  0  0  0  0  0
    5.8582  -13.0709    0.0000 C   0  0  0  0  0  0  0  0  0  0  0  0
    1.4436  -13.9439    0.0000 C   0  0  0  0  0  0  0  0  0  0  0  0
    1.3179  -15.4386    0.0000 O   0  0  0  0  0  0  0  0  0  0  0  0
    0.4559  -12.8151    0.0000 N   0  0  0  0  0  0  0  0  0  0  0  0
   -1.0156  -13.1061    0.0000 C   0  0  0  0  0  0  0  0  0  0  0  0
   -0.4735  -14.5047    0.0000 C   0  0  0  0  0  0  0  0  0  0  0  0
    1.0088  -14.7345    0.0000 C   0  0  0  0  0  0  0  0  0  0  0  0
   -0.4425  -16.0044    0.0000 C   0  0  0  0  0  0  0  0  0  0  0  0
    0.8718  -16.7273    0.0000 C   0  0  0  0  0  0  0  0  0  0  0  0
   -2.4979  -12.8762    0.0000 C   0  0  0  0  0  0  0  0  0  0  0  0
   -3.1273  -14.2378    0.0000 O   0  0  0  0  0  0  0  0  0  0  0  0
   -3.0400  -11.4776    0.0000 N   0  0  0  0  0  0  0  0  0  0  0  0
   -4.5223  -11.2478    0.0000 C   0  0  0  0  0  0  0  0  0  0  0  0
   -4.4912  -12.7475    0.0000 C   0  0  0  0  0  0  0  0  0  0  0  0
   -3.1770  -13.4704    0.0000 C   0  0  0  0  0  0  0  0  0  0  0  0
   -3.1459  -14.9701    0.0000 C   0  0  0  0  0  0  0  0  0  0  0  0
   -1.8316  -15.6930    0.0000 N   0  0  0  0  0  0  0  0  0  0  0  0
   -1.8006  -17.1927    0.0000 C   0  0  0  0  0  0  0  0  0  0  0  0
   -0.5842  -18.0705    0.0000 N   0  0  0  0  0  0  0  0  0  0  0  0
   -3.0838  -17.9694    0.0000 N   0  0  0  0  0  0  0  0  0  0  0  0
   -5.8366  -10.5248    0.0000 C   0  0  0  0  0  0  0  0  0  0  0  0
   -6.8937  -11.5890    0.0000 O   0  0  0  0  0  0  0  0  0  0  0  0
   -5.8676   -9.0252    0.0000 N   0  0  0  0  0  0  0  0  0  0  0  0
   -7.1819   -8.3022    0.0000 C   0  0  0  0  0  0  0  0  0  0  0  0
   -7.6657   -9.7221    0.0000 C   0  0  0  0  0  0  0  0  0  0  0  0
   -6.6779  -10.8509    0.0000 C   0  0  0  0  0  0  0  0  0  0  0  0
   -7.1616  -12.2708    0.0000 C   0  0  0  0  0  0  0  0  0  0  0  0
   -6.1739  -13.3997    0.0000 C   0  0  0  0  0  0  0  0  0  0  0  0
   -6.6576  -14.8195    0.0000 N   0  0  0  0  0  0  0  0  0  0  0  0
   -8.1697   -7.1734    0.0000 C   0  0  0  0  0  0  0  0  0  0  0  0
   -9.5271   -7.8118    0.0000 O   0  0  0  0  0  0  0  0  0  0  0  0
   -7.6860   -5.7535    0.0000 N   0  0  0  0  0  0  0  0  0  0  0  0
   -8.6737   -4.6247    0.0000 C   0  0  0  0  0  0  0  0  0  0  0  0
   -9.6139   -5.7934    0.0000 C   0  0  0  0  0  0  0  0  0  0  0  0
   -9.0718   -7.1921    0.0000 C   0  0  0  0  0  0  0  0  0  0  0  0
  -10.0120   -8.3608    0.0000 C   0  0  0  0  0  0  0  0  0  0  0  0
   -8.0840   -8.3209    0.0000 C   0  0  0  0  0  0  0  0  0  0  0  0
   -9.2158   -3.2260    0.0000 C   0  0  0  0  0  0  0  0  0  0  0  0
  -10.7097   -3.3617    0.0000 O   0  0  0  0  0  0  0  0  0  0  0  0
   -8.2757   -2.0573    0.0000 N   0  0  0  0  0  0  0  0  0  0  0  0
   -8.8178   -0.6586    0.0000 C   0  0  0  0  0  0  0  0  0  0  0  0
   -9.8302   -1.7654    0.0000 C   0  0  0  0  0  0  0  0  0  0  0  0
  -11.0338   -2.6606    0.0000 C   0  0  0  0  0  0  0  0  0  0  0  0
  -12.3850   -3.3119    0.0000 C   0  0  0  0  0  0  0  0  0  0  0  0
  -13.8351   -3.6956    0.0000 C   0  0  0  0  0  0  0  0  0  0  0  0
  -15.3316   -3.7980    0.0000 C   0  0  0  0  0  0  0  0  0  0  0  0
  -16.8204   -3.6153    0.0000 C   0  0  0  0  0  0  0  0  0  0  0  0
  -18.2478   -3.1542    0.0000 C   0  0  0  0  0  0  0  0  0  0  0  0
   -7.3239   -0.7940    0.0000 C   0  0  0  0  0  0  0  0  0  0  0  0
   -8.0331    0.6198    0.0000 C   0  0  0  0  0  0  0  0  0  0  0  0
   -6.6155    0.1293    0.0000 O   0  0  0  0  0  0  0  0  0  0  0  0
   -7.5046    2.0236    0.0000 N   0  0  0  0  0  0  0  0  0  0  0  0
   -7.2512    3.5020    0.0000 C   0  0  0  0  0  0  0  0  0  0  0  0
   -5.9213    4.1958    0.0000 C   0  0  0  0  0  0  0  0  0  0  0  0
   -4.6555    3.3910    0.0000 C   0  0  0  0  0  0  0  0  0  0  0  0
   -3.3256    4.0847    0.0000 C   0  0  0  0  0  0  0  0  0  0  0  0
   -2.0598    3.2799    0.0000 N   0  0  0  0  0  0  0  0  0  0  0  0
   -0.7299    3.9737    0.0000 C   0  0  0  0  0  0  0  0  0  0  0  0
    0.5359    3.1688    0.0000 N   0  0  0  0  0  0  0  0  0  0  0  0
   -0.6658    5.4723    0.0000 N   0  0  0  0  0  0  0  0  0  0  0  0
   -7.2823    5.0017    0.0000 C   0  0  0  0  0  0  0  0  0  0  0  0
   -5.8246    5.3555    0.0000 O   0  0  0  0  0  0  0  0  0  0  0  0
   -7.5966    6.4684    0.0000 N   0  0  0  0  0  0  0  0  0  0  0  0
   -8.1828    7.8491    0.0000 C   0  0  0  0  0  0  0  0  0  0  0  0
   -7.4391    9.1518    0.0000 C   0  0  0  0  0  0  0  0  0  0  0  0
   -5.9391    9.1590    0.0000 C   0  0  0  0  0  0  0  0  0  0  0  0
   -5.1954   10.4617    0.0000 C   0  0  0  0  0  0  0  0  0  0  0  0
   -3.6954   10.4689    0.0000 O   0  0  0  0  0  0  0  0  0  0  0  0
   -5.9517   11.7571    0.0000 O   0  0  0  0  0  0  0  0  0  0  0  0
   -9.0197    9.0939    0.0000 C   0  0  0  0  0  0  0  0  0  0  0  0
   -7.9847   10.1796    0.0000 O   0  0  0  0  0  0  0  0  0  0  0  0
  -10.0771   10.1579    0.0000 N   0  0  0  0  0  0  0  0  0  0  0  0
  -11.3167   11.0025    0.0000 C   0  0  0  0  0  0  0  0  0  0  0  0
  -11.3954   12.5004    0.0000 C   0  0  0  0  0  0  0  0  0  0  0  0
  -10.1374   13.3175    0.0000 C   0  0  0  0  0  0  0  0  0  0  0  0
  -10.2160   14.8154    0.0000 C   0  0  0  0  0  0  0  0  0  0  0  0
   -8.9581   15.6325    0.0000 N   0  0  0  0  0  0  0  0  0  0  0  0
  -11.5526   15.4963    0.0000 O   0  0  0  0  0  0  0  0  0  0  0  0
  -12.6938   11.5972    0.0000 C   0  0  0  0  0  0  0  0  0  0  0  0
  -12.4101   13.0701    0.0000 O   0  0  0  0  0  0  0  0  0  0  0  0
  -14.1585   11.9206    0.0000 N   0  0  0  0  0  0  0  0  0  0  0  0
  -15.6580   11.9609    0.0000 C   0  0  0  0  0  0  0  0  0  0  0  0
  -16.5340   13.1785    0.0000 C   0  0  0  0  0  0  0  0  0  0  0  0
  -15.9174   14.5460    0.0000 C   0  0  0  0  0  0  0  0  0  0  0  0
  -16.7934   15.7636    0.0000 C   0  0  0  0  0  0  0  0  0  0  0  0
  -16.1769   17.1311    0.0000 N   0  0  0  0  0  0  0  0  0  0  0  0
  -18.2859   15.6138    0.0000 O   0  0  0  0  0  0  0  0  0  0  0  0
  -17.1380   11.7167    0.0000 C   0  0  0  0  0  0  0  0  0  0  0  0
  -17.6956   13.1092    0.0000 O   0  0  0  0  0  0  0  0  0  0  0  0
  -18.5450   11.1969    0.0000 N   0  0  0  0  0  0  0  0  0  0  0  0
  -19.8282   10.4202    0.0000 C   0  0  0  0  0  0  0  0  0  0  0  0
  -21.2235   10.9709    0.0000 C   0  0  0  0  0  0  0  0  0  0  0  0
  -21.4441   12.4546    0.0000 C   0  0  0  0  0  0  0  0  0  0  0  0
  -22.8394   13.0053    0.0000 C   0  0  0  0  0  0  0  0  0  0  0  0
  -23.0600   14.4890    0.0000 N   0  0  0  0  0  0  0  0  0  0  0  0
  -24.4552   15.0398    0.0000 C   0  0  0  0  0  0  0  0  0  0  0  0
  -24.6759   16.5234    0.0000 N   0  0  0  0  0  0  0  0  0  0  0  0
  -25.6298   14.1068    0.0000 N   0  0  0  0  0  0  0  0  0  0  0  0
  -20.9413    9.4146    0.0000 C   0  0  0  0  0  0  0  0  0  0  0  0
  -22.1632   10.2846    0.0000 O   0  0  0  0  0  0  0  0  0  0  0  0
  -21.8439    8.2166    0.0000 N   0  0  0  0  0  0  0  0  0  0  0  0
  -22.5035    6.8694    0.0000 C   0  0  0  0  0  0  0  0  0  0  0  0
  -23.9750    6.5784    0.0000 C   0  0  0  0  0  0  0  0  0  0  0  0
  -22.8962    5.4217    0.0000 C   0  0  0  0  0  0  0  0  0  0  0  0
  -24.3945    5.4929    0.0000 O   0  0  0  0  0  0  0  0  0  0  0  0
  -23.0078    3.9259    0.0000 N   0  0  0  0  0  0  0  0  0  0  0  0
  -22.8344    2.4359    0.0000 C   0  0  0  0  0  0  0  0  0  0  0  0
  -22.3821    1.0057    0.0000 C   0  0  0  0  0  0  0  0  0  0  0  0
  -21.6673   -0.3130    0.0000 C   0  0  0  0  0  0  0  0  0  0  0  0
  -20.7158   -1.4726    0.0000 C   0  0  0  0  0  0  0  0  0  0  0  0
  -19.5621   -2.4312    0.0000 C   0  0  0  0  0  0  0  0  0  0  0  0
  -24.2464    2.9421    0.0000 C   0  0  0  0  0  0  0  0  0  0  0  0
  -23.9149    1.3956    0.0000 C   0  0  0  0  0  0  0  0  0  0  0  0
  -23.9173   -0.1044    0.0000 O   0  0  0  0  0  0  0  0  0  0  0  0
  -25.3562    1.8112    0.0000 N   0  0  0  0  0  0  0  0  0  0  0  0
  -26.4368    0.7708    0.0000 C   0  0  0  0  0  0  0  0  0  0  0  0
  -27.0964   -0.5764    0.0000 C   0  0  0  0  0  0  0  0  0  0  0  0
  -28.5929   -0.6787    0.0000 C   0  0  0  0  0  0  0  0  0  0  0  0
  -29.2525   -2.0259    0.0000 C   0  0  0  0  0  0  0  0  0  0  0  0
  -30.7253   -2.3100    0.0000 O   0  0  0  0  0  0  0  0  0  0  0  0
  -28.4155   -3.2708    0.0000 O   0  0  0  0  0  0  0  0  0  0  0  0
  -27.8781    1.1865    0.0000 C   0  0  0  0  0  0  0  0  0  0  0  0
  -28.2387    2.6424    0.0000 O   0  0  0  0  0  0  0  0  0  0  0  0
  -28.9586    0.1461    0.0000 N   0  0  0  0  0  0  0  0  0  0  0  0
  -30.3999    0.5617    0.0000 C   0  0  0  0  0  0  0  0  0  0  0  0
  -31.6121    1.4452    0.0000 C   0  0  0  0  0  0  0  0  0  0  0  0
  -31.4531    2.9368    0.0000 C   0  0  0  0  0  0  0  0  0  0  0  0
  -32.6653    3.8203    0.0000 C   0  0  0  0  0  0  0  0  0  0  0  0
  -30.7935    4.2840    0.0000 C   0  0  0  0  0  0  0  0  0  0  0  0
  -31.4805   -0.4786    0.0000 C   0  0  0  0  0  0  0  0  0  0  0  0
  -32.9617   -0.2418    0.0000 O   0  0  0  0  0  0  0  0  0  0  0  0
  -31.3000   -1.9677    0.0000 O   0  0  0  0  0  0  0  0  0  0  0  0
   24.6567   12.4134    0.0000 H   0  0  0  0  0  0  0  0  0  0  0  0
   29.1205   11.9063    0.0000 H   0  0  0  0  0  0  0  0  0  0  0  0
   31.0009   14.2439    0.0000 H   0  0  0  0  0  0  0  0  0  0  0  0
   25.0602   14.7977    0.0000 H   0  0  0  0  0  0  0  0  0  0  0  0
   24.4106   21.9316    0.0000 H   0  0  0  0  0  0  0  0  0  0  0  0
   29.5987   22.2204    0.0000 H   0  0  0  0  0  0  0  0  0  0  0  0
   29.7654   19.2250    0.0000 H   0  0  0  0  0  0  0  0  0  0  0  0
   28.1766   24.3947    0.0000 H   0  0  0  0  0  0  0  0  0  0  0  0
   27.4215   14.5876    0.0000 H   0  0  0  0  0  0  0  0  0  0  0  0
   24.7276   12.9465    0.0000 H   0  0  0  0  0  0  0  0  0  0  0  0
   22.0666   17.2941    0.0000 H   0  0  0  0  0  0  0  0  0  0  0  0
   20.8947   14.9754    0.0000 H   0  0  0  0  0  0  0  0  0  0  0  0
   24.2756   10.0284    0.0000 H   0  0  0  0  0  0  0  0  0  0  0  0
   27.5832    9.1767    0.0000 H   0  0  0  0  0  0  0  0  0  0  0  0
   27.2877    7.2711    0.0000 H   0  0  0  0  0  0  0  0  0  0  0  0
   24.3720    8.3600    0.0000 H   0  0  0  0  0  0  0  0  0  0  0  0
   24.0766    6.4545    0.0000 H   0  0  0  0  0  0  0  0  0  0  0  0
   23.4794    4.8936    0.0000 H   0  0  0  0  0  0  0  0  0  0  0  0
   24.0323    2.9742    0.0000 H   0  0  0  0  0  0  0  0  0  0  0  0
   27.3292    2.6433    0.0000 H   0  0  0  0  0  0  0  0  0  0  0  0
   28.9118    5.6832    0.0000 H   0  0  0  0  0  0  0  0  0  0  0  0
   27.9354    6.4466    0.0000 H   0  0  0  0  0  0  0  0  0  0  0  0
   26.2139    6.9402    0.0000 H   0  0  0  0  0  0  0  0  0  0  0  0
   25.2650    5.6594    0.0000 H   0  0  0  0  0  0  0  0  0  0  0  0
   22.9374    1.7117    0.0000 H   0  0  0  0  0  0  0  0  0  0  0  0
   22.8395   -0.1021    0.0000 H   0  0  0  0  0  0  0  0  0  0  0  0
   26.1472   -1.6675    0.0000 H   0  0  0  0  0  0  0  0  0  0  0  0
   27.6630    1.6681    0.0000 H   0  0  0  0  0  0  0  0  0  0  0  0
   26.2069    2.6996    0.0000 H   0  0  0  0  0  0  0  0  0  0  0  0
   24.8772    1.8206    0.0000 H   0  0  0  0  0  0  0  0  0  0  0  0
   28.5508   -1.1727    0.0000 H   0  0  0  0  0  0  0  0  0  0  0  0
   26.9294   -1.9180    0.0000 H   0  0  0  0  0  0  0  0  0  0  0  0
   29.6590    0.4892    0.0000 H   0  0  0  0  0  0  0  0  0  0  0  0
   28.6604    2.1389    0.0000 H   0  0  0  0  0  0  0  0  0  0  0  0
   27.2089    1.8650    0.0000 H   0  0  0  0  0  0  0  0  0  0  0  0
   21.3397   -1.0929    0.0000 H   0  0  0  0  0  0  0  0  0  0  0  0
   20.5294   -2.9187    0.0000 H   0  0  0  0  0  0  0  0  0  0  0  0
   24.6403   -4.5944    0.0000 H   0  0  0  0  0  0  0  0  0  0  0  0
   22.6728   -5.2218    0.0000 H   0  0  0  0  0  0  0  0  0  0  0  0
   23.1659   -1.6832    0.0000 H   0  0  0  0  0  0  0  0  0  0  0  0
   27.0451   -2.1784    0.0000 H   0  0  0  0  0  0  0  0  0  0  0  0
   27.0628   -3.6555    0.0000 H   0  0  0  0  0  0  0  0  0  0  0  0
   25.6227   -4.4272    0.0000 H   0  0  0  0  0  0  0  0  0  0  0  0
   26.2214   -0.9918    0.0000 H   0  0  0  0  0  0  0  0  0  0  0  0
   25.0827    0.1798    0.0000 H   0  0  0  0  0  0  0  0  0  0  0  0
   23.2507   -1.2354    0.0000 H   0  0  0  0  0  0  0  0  0  0  0  0
   18.8792   -3.1820    0.0000 H   0  0  0  0  0  0  0  0  0  0  0  0
   17.4933   -4.6205    0.0000 H   0  0  0  0  0  0  0  0  0  0  0  0
   20.6382   -7.7132    0.0000 H   0  0  0  0  0  0  0  0  0  0  0  0
   18.8552   -7.6411    0.0000 H   0  0  0  0  0  0  0  0  0  0  0  0
   21.8693   -4.4209    0.0000 H   0  0  0  0  0  0  0  0  0  0  0  0
   20.3933   -4.3613    0.0000 H   0  0  0  0  0  0  0  0  0  0  0  0
   23.3807   -7.5474    0.0000 H   0  0  0  0  0  0  0  0  0  0  0  0
   21.6022   -7.6932    0.0000 H   0  0  0  0  0  0  0  0  0  0  0  0
   24.8712   -4.7352    0.0000 H   0  0  0  0  0  0  0  0  0  0  0  0
   22.6884   -4.5129    0.0000 H   0  0  0  0  0  0  0  0  0  0  0  0
   26.2736   -5.5880    0.0000 H   0  0  0  0  0  0  0  0  0  0  0  0
   25.0215   -7.8644    0.0000 H   0  0  0  0  0  0  0  0  0  0  0  0
   15.8525   -4.3035    0.0000 H   0  0  0  0  0  0  0  0  0  0  0  0
   14.0582   -5.1813    0.0000 H   0  0  0  0  0  0  0  0  0  0  0  0
   17.0841   -7.5993    0.0000 H   0  0  0  0  0  0  0  0  0  0  0  0
   16.1302   -9.1074    0.0000 H   0  0  0  0  0  0  0  0  0  0  0  0
   14.3049   -8.4855    0.0000 H   0  0  0  0  0  0  0  0  0  0  0  0
   12.7943   -4.3917    0.0000 H   0  0  0  0  0  0  0  0  0  0  0  0
   11.2117   -7.4317    0.0000 H   0  0  0  0  0  0  0  0  0  0  0  0
   10.0964   -3.1348    0.0000 H   0  0  0  0  0  0  0  0  0  0  0  0
    9.1670   -4.8244    0.0000 H   0  0  0  0  0  0  0  0  0  0  0  0
   11.8907   -2.2570    0.0000 H   0  0  0  0  0  0  0  0  0  0  0  0
   10.7317   -9.0324    0.0000 H   0  0  0  0  0  0  0  0  0  0  0  0
    9.1219  -10.2151    0.0000 H   0  0  0  0  0  0  0  0  0  0  0  0
    6.6043   -6.5587    0.0000 H   0  0  0  0  0  0  0  0  0  0  0  0
    6.3088   -8.4643    0.0000 H   0  0  0  0  0  0  0  0  0  0  0  0
    7.9901   -5.1202    0.0000 H   0  0  0  0  0  0  0  0  0  0  0  0
    9.8155   -5.7421    0.0000 H   0  0  0  0  0  0  0  0  0  0  0  0
    9.7850   -7.3358    0.0000 H   0  0  0  0  0  0  0  0  0  0  0  0
    9.2353  -11.7010    0.0000 H   0  0  0  0  0  0  0  0  0  0  0  0
    5.8081  -11.6935    0.0000 H   0  0  0  0  0  0  0  0  0  0  0  0
    9.0980  -14.6742    0.0000 H   0  0  0  0  0  0  0  0  0  0  0  0
    7.1700  -14.7141    0.0000 H   0  0  0  0  0  0  0  0  0  0  0  0
   10.6456  -10.4922    0.0000 H   0  0  0  0  0  0  0  0  0  0  0  0
    3.9847  -11.3915    0.0000 H   0  0  0  0  0  0  0  0  0  0  0  0
    2.3730  -12.2543    0.0000 H   0  0  0  0  0  0  0  0  0  0  0  0
    4.4450  -16.1804    0.0000 H   0  0  0  0  0  0  0  0  0  0  0  0
    2.6197  -15.5585    0.0000 H   0  0  0  0  0  0  0  0  0  0  0  0
    5.8784  -17.0395    0.0000 H   0  0  0  0  0  0  0  0  0  0  0  0
    8.8215  -16.4575    0.0000 H   0  0  0  0  0  0  0  0  0  0  0  0
   10.2727  -12.1979    0.0000 H   0  0  0  0  0  0  0  0  0  0  0  0
    8.1426  -11.5193    0.0000 H   0  0  0  0  0  0  0  0  0  0  0  0
    5.0154  -11.8301    0.0000 H   0  0  0  0  0  0  0  0  0  0  0  0
    0.9396  -11.3952    0.0000 H   0  0  0  0  0  0  0  0  0  0  0  0
   -1.0467  -11.6064    0.0000 H   0  0  0  0  0  0  0  0  0  0  0  0
   -1.8309  -15.1431    0.0000 H   0  0  0  0  0  0  0  0  0  0  0  0
    1.7173  -16.0566    0.0000 H   0  0  0  0  0  0  0  0  0  0  0  0
    2.4803  -14.4435    0.0000 H   0  0  0  0  0  0  0  0  0  0  0  0
    1.3837  -13.2867    0.0000 H   0  0  0  0  0  0  0  0  0  0  0  0
   -0.7495  -17.4726    0.0000 H   0  0  0  0  0  0  0  0  0  0  0  0
   -1.9363  -16.1400    0.0000 H   0  0  0  0  0  0  0  0  0  0  0  0
    0.9029  -18.2270    0.0000 H   0  0  0  0  0  0  0  0  0  0  0  0
    2.3541  -16.9571    0.0000 H   0  0  0  0  0  0  0  0  0  0  0  0
    1.8324  -15.5752    0.0000 H   0  0  0  0  0  0  0  0  0  0  0  0
   -2.0998  -10.3088    0.0000 H   0  0  0  0  0  0  0  0  0  0  0  0
   -4.0386   -9.8279    0.0000 H   0  0  0  0  0  0  0  0  0  0  0  0
   -4.9750  -14.1673    0.0000 H   0  0  0  0  0  0  0  0  0  0  0  0
   -5.9345  -12.3387    0.0000 H   0  0  0  0  0  0  0  0  0  0  0  0
   -1.6947  -13.7002    0.0000 H   0  0  0  0  0  0  0  0  0  0  0  0
   -2.3640  -12.2098    0.0000 H   0  0  0  0  0  0  0  0  0  0  0  0
   -3.6296  -16.3899    0.0000 H   0  0  0  0  0  0  0  0  0  0  0  0
   -4.6398  -15.1058    0.0000 H   0  0  0  0  0  0  0  0  0  0  0  0
   -0.3986  -15.2499    0.0000 H   0  0  0  0  0  0  0  0  0  0  0  0
   -0.4552  -19.4153    0.0000 H   0  0  0  0  0  0  0  0  0  0  0  0
   -3.0527  -19.4691    0.0000 H   0  0  0  0  0  0  0  0  0  0  0  0
   -4.3981  -17.2465    0.0000 H   0  0  0  0  0  0  0  0  0  0  0  0
   -4.5844   -8.2484    0.0000 H   0  0  0  0  0  0  0  0  0  0  0  0
   -6.1063   -7.2568    0.0000 H   0  0  0  0  0  0  0  0  0  0  0  0
   -8.7413  -10.7675    0.0000 H   0  0  0  0  0  0  0  0  0  0  0  0
   -9.1158   -9.3386    0.0000 H   0  0  0  0  0  0  0  0  0  0  0  0
   -5.2853  -11.4083    0.0000 H   0  0  0  0  0  0  0  0  0  0  0  0
   -5.4828   -9.9444    0.0000 H   0  0  0  0  0  0  0  0  0  0  0  0
   -8.1018  -13.4396    0.0000 H   0  0  0  0  0  0  0  0  0  0  0  0
   -8.5543  -11.7135    0.0000 H   0  0  0  0  0  0  0  0  0  0  0  0
   -5.0736  -14.4191    0.0000 H   0  0  0  0  0  0  0  0  0  0  0  0
   -5.2337  -12.2309    0.0000 H   0  0  0  0  0  0  0  0  0  0  0  0
   -5.6698  -15.9484    0.0000 H   0  0  0  0  0  0  0  0  0  0  0  0
   -8.1291  -15.1105    0.0000 H   0  0  0  0  0  0  0  0  0  0  0  0
   -6.2145   -5.4625    0.0000 H   0  0  0  0  0  0  0  0  0  0  0  0
   -7.3905   -3.8479    0.0000 H   0  0  0  0  0  0  0  0  0  0  0  0
  -10.9823   -6.4080    0.0000 H   0  0  0  0  0  0  0  0  0  0  0  0
  -10.6017   -4.6646    0.0000 H   0  0  0  0  0  0  0  0  0  0  0  0
   -7.6388   -6.7489    0.0000 H   0  0  0  0  0  0  0  0  0  0  0  0
   -9.8244   -9.8491    0.0000 H   0  0  0  0  0  0  0  0  0  0  0  0
  -11.2952   -9.1376    0.0000 H   0  0  0  0  0  0  0  0  0  0  0  0
  -11.1300   -7.3608    0.0000 H   0  0  0  0  0  0  0  0  0  0  0  0
   -8.5678   -9.7408    0.0000 H   0  0  0  0  0  0  0  0  0  0  0  0
   -6.9837   -9.3404    0.0000 H   0  0  0  0  0  0  0  0  0  0  0  0
   -7.2933   -7.0462    0.0000 H   0  0  0  0  0  0  0  0  0  0  0  0
   -6.8324   -2.4661    0.0000 H   0  0  0  0  0  0  0  0  0  0  0  0
   -8.5323   -2.5175    0.0000 H   0  0  0  0  0  0  0  0  0  0  0  0
   -9.7445   -3.2630    0.0000 H   0  0  0  0  0  0  0  0  0  0  0  0
  -10.0301   -3.7754    0.0000 H   0  0  0  0  0  0  0  0  0  0  0  0
  -11.0503   -4.1605    0.0000 H   0  0  0  0  0  0  0  0  0  0  0  0
  -11.2015   -4.2334    0.0000 H   0  0  0  0  0  0  0  0  0  0  0  0
  -12.5037   -4.8072    0.0000 H   0  0  0  0  0  0  0  0  0  0  0  0
  -12.9923   -4.9365    0.0000 H   0  0  0  0  0  0  0  0  0  0  0  0
  -14.2347   -5.1414    0.0000 H   0  0  0  0  0  0  0  0  0  0  0  0
  -14.7389   -5.1759    0.0000 H   0  0  0  0  0  0  0  0  0  0  0  0
  -15.9976   -5.1421    0.0000 H   0  0  0  0  0  0  0  0  0  0  0  0
  -16.4992   -5.0805    0.0000 H   0  0  0  0  0  0  0  0  0  0  0  0
  -17.8675   -4.6894    0.0000 H   0  0  0  0  0  0  0  0  0  0  0  0
  -18.8425   -4.5312    0.0000 H   0  0  0  0  0  0  0  0  0  0  0  0
   -6.5329   -2.0685    0.0000 H   0  0  0  0  0  0  0  0  0  0  0  0
   -5.8378   -0.5899    0.0000 H   0  0  0  0  0  0  0  0  0  0  0  0
   -7.0846    0.6868    0.0000 H   0  0  0  0  0  0  0  0  0  0  0  0
   -6.1155    1.4573    0.0000 H   0  0  0  0  0  0  0  0  0  0  0  0
   -6.1558    2.4773    0.0000 H   0  0  0  0  0  0  0  0  0  0  0  0
   -4.9089    5.3026    0.0000 H   0  0  0  0  0  0  0  0  0  0  0  0
   -6.5206    5.5709    0.0000 H   0  0  0  0  0  0  0  0  0  0  0  0
   -3.7414    2.2017    0.0000 H   0  0  0  0  0  0  0  0  0  0  0  0
   -5.3701    2.0721    0.0000 H   0  0  0  0  0  0  0  0  0  0  0  0
   -2.3132    5.1915    0.0000 H   0  0  0  0  0  0  0  0  0  0  0  0
   -4.0880    5.3765    0.0000 H   0  0  0  0  0  0  0  0  0  0  0  0
   -2.1240    1.7813    0.0000 H   0  0  0  0  0  0  0  0  0  0  0  0
    1.8658    3.8626    0.0000 H   0  0  0  0  0  0  0  0  0  0  0  0
    0.6641    6.1661    0.0000 H   0  0  0  0  0  0  0  0  0  0  0  0
   -1.9316    6.2772    0.0000 H   0  0  0  0  0  0  0  0  0  0  0  0
   -6.1220    6.7430    0.0000 H   0  0  0  0  0  0  0  0  0  0  0  0
   -6.7073    7.5793    0.0000 H   0  0  0  0  0  0  0  0  0  0  0  0
   -7.0075   10.5883    0.0000 H   0  0  0  0  0  0  0  0  0  0  0  0
   -8.6867    9.9846    0.0000 H   0  0  0  0  0  0  0  0  0  0  0  0
   -4.5271    8.6528    0.0000 H   0  0  0  0  0  0  0  0  0  0  0  0
   -5.8272    7.6632    0.0000 H   0  0  0  0  0  0  0  0  0  0  0  0
   -5.2080   13.0597    0.0000 H   0  0  0  0  0  0  0  0  0  0  0  0
   -8.9850   11.1861    0.0000 H   0  0  0  0  0  0  0  0  0  0  0  0
   -9.9296   11.5733    0.0000 H   0  0  0  0  0  0  0  0  0  0  0  0
  -11.8089   13.9423    0.0000 H   0  0  0  0  0  0  0  0  0  0  0  0
  -12.8951   12.5265    0.0000 H   0  0  0  0  0  0  0  0  0  0  0  0
   -8.6759   13.6550    0.0000 H   0  0  0  0  0  0  0  0  0  0  0  0
   -9.2345   12.1196    0.0000 H   0  0  0  0  0  0  0  0  0  0  0  0
   -9.0367   17.1304    0.0000 H   0  0  0  0  0  0  0  0  0  0  0  0
   -7.6215   14.9516    0.0000 H   0  0  0  0  0  0  0  0  0  0  0  0
  -13.7957   13.3760    0.0000 H   0  0  0  0  0  0  0  0  0  0  0  0
  -14.7996   13.1910    0.0000 H   0  0  0  0  0  0  0  0  0  0  0  0
  -17.6614   14.1680    0.0000 H   0  0  0  0  0  0  0  0  0  0  0  0
  -17.8098   12.3897    0.0000 H   0  0  0  0  0  0  0  0  0  0  0  0
  -14.8704   15.6201    0.0000 H   0  0  0  0  0  0  0  0  0  0  0  0
  -14.5103   14.0264    0.0000 H   0  0  0  0  0  0  0  0  0  0  0  0
  -17.0529   18.3487    0.0000 H   0  0  0  0  0  0  0  0  0  0  0  0
  -14.6844   17.2809    0.0000 H   0  0  0  0  0  0  0  0  0  0  0  0
  -19.0267   12.6175    0.0000 H   0  0  0  0  0  0  0  0  0  0  0  0
  -19.7712   11.9191    0.0000 H   0  0  0  0  0  0  0  0  0  0  0  0
  -22.7229   11.0112    0.0000 H   0  0  0  0  0  0  0  0  0  0  0  0
  -21.8703    9.6175    0.0000 H   0  0  0  0  0  0  0  0  0  0  0  0
  -21.1440   13.9243    0.0000 H   0  0  0  0  0  0  0  0  0  0  0  0
  -19.9795   12.7783    0.0000 H   0  0  0  0  0  0  0  0  0  0  0  0
  -24.3388   13.0457    0.0000 H   0  0  0  0  0  0  0  0  0  0  0  0
  -23.3164   11.5832    0.0000 H   0  0  0  0  0  0  0  0  0  0  0  0
  -21.8854   15.4219    0.0000 H   0  0  0  0  0  0  0  0  0  0  0  0
  -26.0711   17.0742    0.0000 H   0  0  0  0  0  0  0  0  0  0  0  0
  -27.0251   14.6576    0.0000 H   0  0  0  0  0  0  0  0  0  0  0  0
  -25.4092   12.6231    0.0000 H   0  0  0  0  0  0  0  0  0  0  0  0
  -23.1223    9.0012    0.0000 H   0  0  0  0  0  0  0  0  0  0  0  0
  -23.4177    8.0586    0.0000 H   0  0  0  0  0  0  0  0  0  0  0  0
  -24.9628    7.7072    0.0000 H   0  0  0  0  0  0  0  0  0  0  0  0
  -25.3433    5.9639    0.0000 H   0  0  0  0  0  0  0  0  0  0  0  0
  -23.7874    5.0902    0.0000 H   0  0  0  0  0  0  0  0  0  0  0  0
  -24.5001    4.0778    0.0000 H   0  0  0  0  0  0  0  0  0  0  0  0
  -23.2462   -0.2203    0.0000 H   0  0  0  0  0  0  0  0  0  0  0  0
  -23.8759    0.8701    0.0000 H   0  0  0  0  0  0  0  0  0  0  0  0
  -22.4459   -1.5951    0.0000 H   0  0  0  0  0  0  0  0  0  0  0  0
  -23.1084   -0.7289    0.0000 H   0  0  0  0  0  0  0  0  0  0  0  0
  -21.0624   -2.9320    0.0000 H   0  0  0  0  0  0  0  0  0  0  0  0
  -22.1253   -1.9858    0.0000 H   0  0  0  0  0  0  0  0  0  0  0  0
  -20.4067   -3.6708    0.0000 H   0  0  0  0  0  0  0  0  0  0  0  0
  -25.5914    2.2781    0.0000 H   0  0  0  0  0  0  0  0  0  0  0  0
  -25.4001    3.9007    0.0000 H   0  0  0  0  0  0  0  0  0  0  0  0
  -23.8400    4.3860    0.0000 H   0  0  0  0  0  0  0  0  0  0  0  0
  -25.8917    3.2124    0.0000 H   0  0  0  0  0  0  0  0  0  0  0  0
  -25.2246   -0.1127    0.0000 H   0  0  0  0  0  0  0  0  0  0  0  0
  -27.2554   -2.0679    0.0000 H   0  0  0  0  0  0  0  0  0  0  0  0
  -25.6551   -0.9920    0.0000 H   0  0  0  0  0  0  0  0  0  0  0  0
  -30.0341   -0.2631    0.0000 H   0  0  0  0  0  0  0  0  0  0  0  0
  -29.1528    0.7128    0.0000 H   0  0  0  0  0  0  0  0  0  0  0  0
  -29.0751   -4.6180    0.0000 H   0  0  0  0  0  0  0  0  0  0  0  0
  -28.9610   -1.3539    0.0000 H   0  0  0  0  0  0  0  0  0  0  0  0
  -29.5810    1.8185    0.0000 H   0  0  0  0  0  0  0  0  0  0  0  0
  -33.0933    1.6821    0.0000 H   0  0  0  0  0  0  0  0  0  0  0  0
  -32.4310    0.1885    0.0000 H   0  0  0  0  0  0  0  0  0  0  0  0
  -29.9719    2.6999    0.0000 H   0  0  0  0  0  0  0  0  0  0  0  0
  -32.6892    5.3201    0.0000 H   0  0  0  0  0  0  0  0  0  0  0  0
  -34.1065    4.2359    0.0000 H   0  0  0  0  0  0  0  0  0  0  0  0
  -33.4841    2.5635    0.0000 H   0  0  0  0  0  0  0  0  0  0  0  0
  -31.4724    5.6215    0.0000 H   0  0  0  0  0  0  0  0  0  0  0  0
  -29.7129    5.3243    0.0000 H   0  0  0  0  0  0  0  0  0  0  0  0
  -29.5813    3.4005    0.0000 H   0  0  0  0  0  0  0  0  0  0  0  0
  -32.2004   -2.9750    0.0000 H   0  0  0  0  0  0  0  0  0  0  0  0
  1  2  1  0
  2  3  1  0
  3  4  2  0
  4  5  1  0
  5  6  2  0
  6  7  1  0
  7  8  2  0
  7  9  1  0
  9 10  1  0
 10 11  1  0
 11 12  2  0
  9 13  1  0
 13 14  1  0
 14 15  2  0
 15 16  1  0
 16 17  2  0
 17 18  1  0
 16 19  1  0
 14 20  1  0
 20 21  1  0
 21 22  2  0
 22 23  1  0
 23 24  2  0
 24 25  1  0
 25 26  2  0
 25 27  1  0
  1 28  2  0
  1 29  1  0
 29 30  1  0
 30 31  1  0
 31 32  1  0
 32 33  2  0
 32 34  1  0
 34 35  1  0
 35 36  1  0
 36 37  1  0
 36 38  1  0
 35 39  1  0
 39 40  2  0
 39 41  1  0
 41 42  1  0
 42 43  1  0
 43 44  1  0
 43 45  1  0
 45 46  1  0
 42 47  1  0
 47 48  2  0
 47 49  1  0
 49 50  1  0
 50 51  1  0
 51 52  1  0
 52 53  1  0
 52 54  1  0
 50 55  1  0
 55 56  2  0
 55 57  1  0
 57 58  1  0
 58 59  1  0
 59 60  1  0
 60 61  1  0
 61 62  1  0
 62 63  1  0
 58 64  1  0
 64 65  2  0
 64 66  1  0
 66 67  1  0
 67 68  1  0
 67 69  1  0
 69 70  2  0
 69 71  1  0
 71 72  1  0
 72 73  1  0
 73 74  1  0
 72 75  1  0
 75 76  2  0
 75 77  1  0
 77 78  1  0
 78 79  1  0
 79 80  1  0
 78 81  1  0
 81 82  2  0
 81 83  1  0
 83 84  1  0
 84 85  1  0
 85 86  1  0
 86 87  2  0
 86 88  1  0
 84 89  1  0
 89 90  2  0
 89 91  1  0
 91 92  1  0
 92 93  1  0
 93 94  1  0
 94 95  2  0
 95 96  1  0
 96 97  2  0
 97 98  1  0
 97 99  1  0
 99100  2  0
 92101  1  0
101102  2  0
101103  1  0
103104  1  0
104105  1  0
105106  1  0
105107  1  0
107108  1  0
104109  1  0
109110  2  0
109111  1  0
111112  1  0
112113  1  0
113114  1  0
114115  1  0
115116  1  0
116117  1  0
117118  2  3
117119  1  0
112120  1  0
120121  2  0
120122  1  0
122123  1  0
123124  1  0
124125  1  0
125126  1  0
126127  1  0
127128  1  0
123129  1  0
129130  2  0
129131  1  0
131132  1  0
132133  1  0
133134  1  0
134135  1  0
134136  1  0
132137  1  0
137138  2  0
137139  1  0
140139  1  6
140141  1  0
141142  1  0
142143  1  0
143144  1  0
144145  1  0
145146  1  0
146147  1  0
140148  1  0
140149  1  0
149150  2  0
149151  1  0
151152  1  0
152153  1  0
153154  1  0
154155  1  0
155156  1  0
156157  1  0
157158  2  3
157159  1  0
152160  1  0
160161  2  0
160162  1  0
162163  1  0
163164  1  0
164165  1  0
165166  1  0
166167  2  0
166168  1  0
163169  1  0
169170  2  0
169171  1  0
171172  1  0
172173  1  0
173174  1  0
174175  1  0
175176  1  0
175177  2  0
172178  1  0
178179  2  0
178180  1  0
180181  1  0
181182  1  0
182183  1  0
183184  1  0
184185  1  0
184186  2  0
181187  1  0
187188  2  0
187189  1  0
189190  1  0
190191  1  0
191192  1  0
192193  1  0
193194  1  0
194195  1  0
195196  2  3
195197  1  0
190198  1  0
198199  2  0
198200  1  0
200201  1  0
201202  1  0
201203  1  0
203204  2  0
203205  1  0
205206  1  0
206207  1  0
207208  1  0
208209  1  0
209210  1  0
206211  1  0
206212  1  1
212213  2  0
212214  1  0
214215  1  0
215216  1  0
216217  1  0
217218  1  0
218219  2  0
218220  1  0
215221  1  0
221222  2  0
221223  1  0
223224  1  0
224225  1  0
225226  1  0
226227  1  0
226228  1  0
224229  1  0
229230  2  0
229231  1  0
  8  3  1  0
100 94  1  0
 11  6  1  0
147210  2  0
 18 13  2  0
 22  9  1  0
 26 21  1  0
  2232  1  0
  4233  1  0
  5234  1  0
  8235  1  0
 15236  1  0
 17237  1  0
 18238  1  0
 19239  1  0
 23240  1  0
 24241  1  0
 26242  1  0
 27243  1  0
 29244  1  0
 30245  1  0
 30246  1  0
 31247  1  0
 31248  1  0
 34249  1  0
 35250  1  1
 36251  1  6
 37252  1  0
 38253  1  0
 38254  1  0
 38255  1  0
 41256  1  0
 42257  1  1
 43258  1  6
 44259  1  0
 44260  1  0
 44261  1  0
 45262  1  0
 45263  1  0
 46264  1  0
 46265  1  0
 46266  1  0
 49267  1  0
 50268  1  1
 51269  1  0
 51270  1  0
 52271  1  0
 53272  1  0
 53273  1  0
 53274  1  0
 54275  1  0
 54276  1  0
 54277  1  0
 57278  1  0
 58279  1  1
 59280  1  0
 59281  1  0
 60282  1  0
 60283  1  0
 61284  1  0
 61285  1  0
 62286  1  0
 62287  1  0
 63288  1  0
 63289  1  0
 66290  1  0
 67291  1  1
 68292  1  0
 68293  1  0
 68294  1  0
 71295  1  0
 72296  1  6
 73297  1  0
 73298  1  0
 74299  1  0
 77300  1  0
 78301  1  6
 79302  1  0
 79303  1  0
 80304  1  0
 80305  1  0
 80306  1  0
 83307  1  0
 84308  1  1
 85309  1  0
 85310  1  0
 88311  1  0
 91312  1  0
 92313  1  1
 93314  1  0
 93315  1  0
 95316  1  0
 96317  1  0
 98318  1  0
 99319  1  0
100320  1  0
103321  1  0
104322  1  1
105323  1  6
106324  1  0
106325  1  0
106326  1  0
107327  1  0
107328  1  0
108329  1  0
108330  1  0
108331  1  0
111332  1  0
112333  1  1
113334  1  0
113335  1  0
114336  1  0
114337  1  0
115338  1  0
115339  1  0
116340  1  0
118341  1  0
119342  1  0
119343  1  0
122344  1  0
123345  1  1
124346  1  0
124347  1  0
125348  1  0
125349  1  0
126350  1  0
126351  1  0
127352  1  0
127353  1  0
128354  1  0
128355  1  0
131356  1  0
132357  1  1
133358  1  0
133359  1  0
134360  1  0
135361  1  0
135362  1  0
135363  1  0
136364  1  0
136365  1  0
136366  1  0
139367  1  0
141368  1  0
141369  1  0
142370  1  0
142371  1  0
143372  1  0
143373  1  0
144374  1  0
144375  1  0
145376  1  0
145377  1  0
146378  1  0
146379  1  0
147380  1  0
148381  1  0
148382  1  0
148383  1  0
151384  1  0
152385  1  6
153386  1  0
153387  1  0
154388  1  0
154389  1  0
155390  1  0
155391  1  0
156392  1  0
158393  1  0
159394  1  0
159395  1  0
162396  1  0
163397  1  6
164398  1  0
164399  1  0
165400  1  0
165401  1  0
168402  1  0
171403  1  0
172404  1  6
173405  1  0
173406  1  0
174407  1  0
174408  1  0
176409  1  0
176410  1  0
180411  1  0
181412  1  6
182413  1  0
182414  1  0
183415  1  0
183416  1  0
185417  1  0
185418  1  0
189419  1  0
190420  1  6
191421  1  0
191422  1  0
192423  1  0
192424  1  0
193425  1  0
193426  1  0
194427  1  0
196428  1  0
197429  1  0
197430  1  0
200431  1  0
201432  1  6
202433  1  0
202434  1  0
202435  1  0
205436  1  0
207437  1  0
207438  1  0
208439  1  0
208440  1  0
209441  1  0
209442  1  0
210443  1  0
211444  1  0
211445  1  0
211446  1  0
214447  1  0
215448  1  1
216449  1  0
216450  1  0
217451  1  0
217452  1  0
220453  1  0
223454  1  0
224455  1  6
225456  1  0
225457  1  0
226458  1  0
227459  1  0
227460  1  0
227461  1  0
228462  1  0
228463  1  0
228464  1  0
231465  1  0
M  END
