
     RDKit          2D

339345  0  0  0  0  0  0  0  0999 V2000
  -26.2201    0.8417    0.0000 C   0  0  0  0  0  0  0  0  0  0  0  0
  -27.5098    0.0757    0.0000 N   0  0  0  0  0  0  0  0  0  0  0  0
  -28.8180    0.8096    0.0000 C   0  0  0  0  0  0  0  0  0  0  0  0
  -28.8365    2.3095    0.0000 C   0  0  0  0  0  0  0  0  0  0  0  0
  -30.1447    3.0434    0.0000 C   0  0  0  0  0  0  0  0  0  0  0  0
  -31.4344    2.2774    0.0000 C   0  0  0  0  0  0  0  0  0  0  0  0
  -31.4159    0.7775    0.0000 C   0  0  0  0  0  0  0  0  0  0  0  0
  -30.1076    0.0436    0.0000 C   0  0  0  0  0  0  0  0  0  0  0  0
  -32.8366    0.2964    0.0000 C   0  0  0  0  0  0  0  0  0  0  0  0
  -33.7332    1.4989    0.0000 O   0  0  0  0  0  0  0  0  0  0  0  0
  -32.8666    2.7232    0.0000 C   0  0  0  0  0  0  0  0  0  0  0  0
  -33.3477    4.1440    0.0000 O   0  0  0  0  0  0  0  0  0  0  0  0
  -34.2999   -0.0336    0.0000 C   0  0  0  0  0  0  0  0  0  0  0  0
  -34.7457   -1.4658    0.0000 C   0  0  0  0  0  0  0  0  0  0  0  0
  -36.2090   -1.7958    0.0000 C   0  0  0  0  0  0  0  0  0  0  0  0
  -37.2264   -0.6936    0.0000 C   0  0  0  0  0  0  0  0  0  0  0  0
  -36.7805    0.7386    0.0000 C   0  0  0  0  0  0  0  0  0  0  0  0
  -35.3173    1.0686    0.0000 C   0  0  0  0  0  0  0  0  0  0  0  0
  -38.6896   -1.0236    0.0000 O   0  0  0  0  0  0  0  0  0  0  0  0
  -33.7283   -2.5681    0.0000 O   0  0  0  0  0  0  0  0  0  0  0  0
  -32.2651   -2.2381    0.0000 C   0  0  0  0  0  0  0  0  0  0  0  0
  -31.8192   -0.8059    0.0000 C   0  0  0  0  0  0  0  0  0  0  0  0
  -30.5640   -1.1443    0.0000 C   0  0  0  0  0  0  0  0  0  0  0  0
  -30.0214   -1.7321    0.0000 C   0  0  0  0  0  0  0  0  0  0  0  0
  -30.2592   -2.4959    0.0000 C   0  0  0  0  0  0  0  0  0  0  0  0
  -31.0396   -2.6719    0.0000 C   0  0  0  0  0  0  0  0  0  0  0  0
  -28.7670   -4.1125    0.0000 O   0  0  0  0  0  0  0  0  0  0  0  0
  -26.2386    2.3416    0.0000 S   0  0  0  0  0  0  0  0  0  0  0  0
  -24.9119    0.1078    0.0000 N   0  0  0  0  0  0  0  0  0  0  0  0
  -23.6222    0.8738    0.0000 C   0  0  0  0  0  0  0  0  0  0  0  0
  -22.3140    0.1399    0.0000 C   0  0  0  0  0  0  0  0  0  0  0  0
  -21.0243    0.9059    0.0000 C   0  0  0  0  0  0  0  0  0  0  0  0
  -21.0429    2.4058    0.0000 O   0  0  0  0  0  0  0  0  0  0  0  0
  -19.7161    0.1721    0.0000 N   0  0  0  0  0  0  0  0  0  0  0  0
  -18.4265    0.9381    0.0000 C   0  0  0  0  0  0  0  0  0  0  0  0
  -17.4766    2.0990    0.0000 C   0  0  0  0  0  0  0  0  0  0  0  0
  -15.9962    1.8568    0.0000 C   0  0  0  0  0  0  0  0  0  0  0  0
  -15.0463    3.0177    0.0000 C   0  0  0  0  0  0  0  0  0  0  0  0
  -13.5660    2.7755    0.0000 N   0  0  0  0  0  0  0  0  0  0  0  0
  -12.6161    3.9364    0.0000 C   0  0  0  0  0  0  0  0  0  0  0  0
  -11.1764    3.5155    0.0000 N   0  0  0  0  0  0  0  0  0  0  0  0
  -13.1465    5.3394    0.0000 N   0  0  0  0  0  0  0  0  0  0  0  0
  -17.1183    0.2042    0.0000 C   0  0  0  0  0  0  0  0  0  0  0  0
  -17.0997   -1.2957    0.0000 O   0  0  0  0  0  0  0  0  0  0  0  0
  -15.8286    0.9702    0.0000 N   0  0  0  0  0  0  0  0  0  0  0  0
  -14.5204    0.2363    0.0000 C   0  0  0  0  0  0  0  0  0  0  0  0
  -13.5421   -0.9008    0.0000 C   0  0  0  0  0  0  0  0  0  0  0  0
  -14.0376   -2.3166    0.0000 C   0  0  0  0  0  0  0  0  0  0  0  0
  -13.0593   -3.4536    0.0000 C   0  0  0  0  0  0  0  0  0  0  0  0
  -13.5549   -4.8694    0.0000 N   0  0  0  0  0  0  0  0  0  0  0  0
  -12.5766   -6.0064    0.0000 C   0  0  0  0  0  0  0  0  0  0  0  0
  -13.0721   -7.4222    0.0000 N   0  0  0  0  0  0  0  0  0  0  0  0
  -11.1027   -5.7277    0.0000 N   0  0  0  0  0  0  0  0  0  0  0  0
  -13.2307    1.0023    0.0000 C   0  0  0  0  0  0  0  0  0  0  0  0
  -12.9792    2.0665    0.0000 O   0  0  0  0  0  0  0  0  0  0  0  0
  -11.9225    0.2684    0.0000 N   0  0  0  0  0  0  0  0  0  0  0  0
  -10.6328    1.0344    0.0000 C   0  0  0  0  0  0  0  0  0  0  0  0
   -9.6829    2.1953    0.0000 C   0  0  0  0  0  0  0  0  0  0  0  0
   -8.2026    1.9531    0.0000 C   0  0  0  0  0  0  0  0  0  0  0  0
   -7.2527    3.1140    0.0000 C   0  0  0  0  0  0  0  0  0  0  0  0
   -5.7724    2.8718    0.0000 N   0  0  0  0  0  0  0  0  0  0  0  0
   -4.8225    4.0327    0.0000 C   0  0  0  0  0  0  0  0  0  0  0  0
   -3.3827    3.6119    0.0000 N   0  0  0  0  0  0  0  0  0  0  0  0
   -5.3529    5.4358    0.0000 N   0  0  0  0  0  0  0  0  0  0  0  0
   -9.3246    0.3005    0.0000 C   0  0  0  0  0  0  0  0  0  0  0  0
   -9.3061   -1.1994    0.0000 O   0  0  0  0  0  0  0  0  0  0  0  0
   -8.0350    1.0665    0.0000 N   0  0  0  0  0  0  0  0  0  0  0  0
   -6.7267    0.3326    0.0000 C   0  0  0  0  0  0  0  0  0  0  0  0
   -5.7484   -0.8044    0.0000 C   0  0  0  0  0  0  0  0  0  0  0  0
   -6.2440   -2.2202    0.0000 C   0  0  0  0  0  0  0  0  0  0  0  0
   -5.2657   -3.3573    0.0000 C   0  0  0  0  0  0  0  0  0  0  0  0
   -5.7613   -4.7730    0.0000 N   0  0  0  0  0  0  0  0  0  0  0  0
   -4.7829   -5.9101    0.0000 C   0  0  0  0  0  0  0  0  0  0  0  0
   -5.2785   -7.3259    0.0000 N   0  0  0  0  0  0  0  0  0  0  0  0
   -3.3091   -5.6314    0.0000 N   0  0  0  0  0  0  0  0  0  0  0  0
   -5.4371    1.0986    0.0000 C   0  0  0  0  0  0  0  0  0  0  0  0
   -5.1856    2.1628    0.0000 O   0  0  0  0  0  0  0  0  0  0  0  0
   -4.1289    0.3647    0.0000 N   0  0  0  0  0  0  0  0  0  0  0  0
   -2.8392    1.1307    0.0000 C   0  0  0  0  0  0  0  0  0  0  0  0
   -1.8893    2.2916    0.0000 C   0  0  0  0  0  0  0  0  0  0  0  0
   -0.4090    2.0494    0.0000 C   0  0  0  0  0  0  0  0  0  0  0  0
    0.5409    3.2103    0.0000 C   0  0  0  0  0  0  0  0  0  0  0  0
    2.0212    2.9681    0.0000 N   0  0  0  0  0  0  0  0  0  0  0  0
    2.9712    4.1290    0.0000 C   0  0  0  0  0  0  0  0  0  0  0  0
    4.4109    3.7082    0.0000 N   0  0  0  0  0  0  0  0  0  0  0  0
    2.4407    5.5321    0.0000 N   0  0  0  0  0  0  0  0  0  0  0  0
   -1.5310    0.3969    0.0000 C   0  0  0  0  0  0  0  0  0  0  0  0
   -1.5124   -1.1030    0.0000 O   0  0  0  0  0  0  0  0  0  0  0  0
   -0.2413    1.1629    0.0000 N   0  0  0  0  0  0  0  0  0  0  0  0
    1.0669    0.4290    0.0000 C   0  0  0  0  0  0  0  0  0  0  0  0
    2.0452   -0.7081    0.0000 C   0  0  0  0  0  0  0  0  0  0  0  0
    1.5496   -2.1239    0.0000 C   0  0  0  0  0  0  0  0  0  0  0  0
    2.5279   -3.2609    0.0000 C   0  0  0  0  0  0  0  0  0  0  0  0
    2.0324   -4.6767    0.0000 N   0  0  0  0  0  0  0  0  0  0  0  0
    3.0107   -5.8138    0.0000 C   0  0  0  0  0  0  0  0  0  0  0  0
    2.5151   -7.2295    0.0000 N   0  0  0  0  0  0  0  0  0  0  0  0
    4.4846   -5.5350    0.0000 N   0  0  0  0  0  0  0  0  0  0  0  0
    2.3566    1.1950    0.0000 C   0  0  0  0  0  0  0  0  0  0  0  0
    2.6080    2.2592    0.0000 O   0  0  0  0  0  0  0  0  0  0  0  0
    3.6648    0.4611    0.0000 N   0  0  0  0  0  0  0  0  0  0  0  0
    4.9544    1.2271    0.0000 C   0  0  0  0  0  0  0  0  0  0  0  0
    5.9043    2.3880    0.0000 C   0  0  0  0  0  0  0  0  0  0  0  0
    7.3847    2.1458    0.0000 C   0  0  0  0  0  0  0  0  0  0  0  0
    8.3346    3.3067    0.0000 C   0  0  0  0  0  0  0  0  0  0  0  0
    9.8149    3.0645    0.0000 N   0  0  0  0  0  0  0  0  0  0  0  0
   10.7648    4.2254    0.0000 C   0  0  0  0  0  0  0  0  0  0  0  0
   12.2045    3.8046    0.0000 N   0  0  0  0  0  0  0  0  0  0  0  0
   10.2344    5.6285    0.0000 N   0  0  0  0  0  0  0  0  0  0  0  0
    6.2626    0.4932    0.0000 C   0  0  0  0  0  0  0  0  0  0  0  0
    6.2812   -1.0067    0.0000 O   0  0  0  0  0  0  0  0  0  0  0  0
    7.5523    1.2592    0.0000 N   0  0  0  0  0  0  0  0  0  0  0  0
    8.8605    0.5253    0.0000 C   0  0  0  0  0  0  0  0  0  0  0  0
    9.8388   -0.6117    0.0000 C   0  0  0  0  0  0  0  0  0  0  0  0
    9.3433   -2.0275    0.0000 C   0  0  0  0  0  0  0  0  0  0  0  0
   10.3216   -3.1646    0.0000 C   0  0  0  0  0  0  0  0  0  0  0  0
    9.8260   -4.5804    0.0000 N   0  0  0  0  0  0  0  0  0  0  0  0
   10.8043   -5.7174    0.0000 C   0  0  0  0  0  0  0  0  0  0  0  0
   10.3088   -7.1332    0.0000 N   0  0  0  0  0  0  0  0  0  0  0  0
   12.2782   -5.4387    0.0000 N   0  0  0  0  0  0  0  0  0  0  0  0
   10.1502    1.2913    0.0000 C   0  0  0  0  0  0  0  0  0  0  0  0
   10.4017    2.3555    0.0000 O   0  0  0  0  0  0  0  0  0  0  0  0
   11.4584    0.5574    0.0000 N   0  0  0  0  0  0  0  0  0  0  0  0
   12.7481    1.3234    0.0000 C   0  0  0  0  0  0  0  0  0  0  0  0
   13.6980    2.4843    0.0000 C   0  0  0  0  0  0  0  0  0  0  0  0
   15.1783    2.2421    0.0000 C   0  0  0  0  0  0  0  0  0  0  0  0
   15.8525    0.9022    0.0000 C   0  0  0  0  0  0  0  0  0  0  0  0
   17.3352    1.1293    0.0000 N   0  0  0  0  0  0  0  0  0  0  0  0
   17.5774    2.6096    0.0000 C   0  0  0  0  0  0  0  0  0  0  0  0
   18.8395    3.4201    0.0000 C   0  0  0  0  0  0  0  0  0  0  0  0
   18.7686    4.9185    0.0000 C   0  0  0  0  0  0  0  0  0  0  0  0
   17.4356    5.6062    0.0000 C   0  0  0  0  0  0  0  0  0  0  0  0
   16.1735    4.7957    0.0000 C   0  0  0  0  0  0  0  0  0  0  0  0
   16.2443    3.2974    0.0000 C   0  0  0  0  0  0  0  0  0  0  0  0
   14.0563    0.5895    0.0000 C   0  0  0  0  0  0  0  0  0  0  0  0
   14.0748   -0.9103    0.0000 O   0  0  0  0  0  0  0  0  0  0  0  0
   15.3459    1.3555    0.0000 N   0  0  0  0  0  0  0  0  0  0  0  0
   16.6542    0.6217    0.0000 C   0  0  0  0  0  0  0  0  0  0  0  0
   17.6325   -0.5154    0.0000 C   0  0  0  0  0  0  0  0  0  0  0  0
   17.1369   -1.9312    0.0000 C   0  0  0  0  0  0  0  0  0  0  0  0
   18.1152   -3.0682    0.0000 C   0  0  0  0  0  0  0  0  0  0  0  0
   17.6196   -4.4840    0.0000 N   0  0  0  0  0  0  0  0  0  0  0  0
   18.5980   -5.6211    0.0000 C   0  0  0  0  0  0  0  0  0  0  0  0
   18.1024   -7.0368    0.0000 N   0  0  0  0  0  0  0  0  0  0  0  0
   20.0718   -5.3424    0.0000 N   0  0  0  0  0  0  0  0  0  0  0  0
   17.9438    1.3877    0.0000 C   0  0  0  0  0  0  0  0  0  0  0  0
   18.2888    2.8475    0.0000 O   0  0  0  0  0  0  0  0  0  0  0  0
   19.2520    0.6538    0.0000 N   0  0  0  0  0  0  0  0  0  0  0  0
   20.5417    1.4198    0.0000 C   0  0  0  0  0  0  0  0  0  0  0  0
   21.4916    2.5807    0.0000 C   0  0  0  0  0  0  0  0  0  0  0  0
   22.9719    2.3385    0.0000 C   0  0  0  0  0  0  0  0  0  0  0  0
   23.9218    3.4994    0.0000 C   0  0  0  0  0  0  0  0  0  0  0  0
   25.4021    3.2572    0.0000 N   0  0  0  0  0  0  0  0  0  0  0  0
   26.3521    4.4181    0.0000 C   0  0  0  0  0  0  0  0  0  0  0  0
   27.8324    4.1759    0.0000 N   0  0  0  0  0  0  0  0  0  0  0  0
   25.8216    5.8212    0.0000 N   0  0  0  0  0  0  0  0  0  0  0  0
   21.8499    0.6859    0.0000 C   0  0  0  0  0  0  0  0  0  0  0  0
   21.8685   -0.8140    0.0000 O   0  0  0  0  0  0  0  0  0  0  0  0
   23.1396    1.4519    0.0000 N   0  0  0  0  0  0  0  0  0  0  0  0
   24.4478    0.7180    0.0000 C   0  0  0  0  0  0  0  0  0  0  0  0
   25.4261   -0.4191    0.0000 C   0  0  0  0  0  0  0  0  0  0  0  0
   24.9305   -1.8348    0.0000 C   0  0  0  0  0  0  0  0  0  0  0  0
   25.9088   -2.9719    0.0000 C   0  0  0  0  0  0  0  0  0  0  0  0
   25.4133   -4.3877    0.0000 N   0  0  0  0  0  0  0  0  0  0  0  0
   26.3916   -5.5247    0.0000 C   0  0  0  0  0  0  0  0  0  0  0  0
   25.8960   -6.9405    0.0000 N   0  0  0  0  0  0  0  0  0  0  0  0
   27.8655   -5.2460    0.0000 N   0  0  0  0  0  0  0  0  0  0  0  0
   25.7375    1.4840    0.0000 C   0  0  0  0  0  0  0  0  0  0  0  0
   27.1254    0.9151    0.0000 O   0  0  0  0  0  0  0  0  0  0  0  0
   26.0824    2.9438    0.0000 O   0  0  0  0  0  0  0  0  0  0  0  0
  -27.3085   -1.4107    0.0000 H   0  0  0  0  0  0  0  0  0  0  0  0
  -27.5468    3.0755    0.0000 H   0  0  0  0  0  0  0  0  0  0  0  0
  -30.1633    4.5433    0.0000 H   0  0  0  0  0  0  0  0  0  0  0  0
  -29.7267   -1.4072    0.0000 H   0  0  0  0  0  0  0  0  0  0  0  0
  -36.6548   -3.2280    0.0000 H   0  0  0  0  0  0  0  0  0  0  0  0
  -37.7979    1.8408    0.0000 H   0  0  0  0  0  0  0  0  0  0  0  0
  -34.8714    2.5008    0.0000 H   0  0  0  0  0  0  0  0  0  0  0  0
  -39.7070    0.0787    0.0000 H   0  0  0  0  0  0  0  0  0  0  0  0
  -29.9101    0.9563    0.0000 H   0  0  0  0  0  0  0  0  0  0  0  0
  -27.8460   -1.4290    0.0000 H   0  0  0  0  0  0  0  0  0  0  0  0
  -31.6935   -4.7725    0.0000 H   0  0  0  0  0  0  0  0  0  0  0  0
  -29.2129   -5.5448    0.0000 H   0  0  0  0  0  0  0  0  0  0  0  0
  -24.8933   -1.3921    0.0000 H   0  0  0  0  0  0  0  0  0  0  0  0
  -22.6723    2.0347    0.0000 H   0  0  0  0  0  0  0  0  0  0  0  0
  -24.6005    2.0109    0.0000 H   0  0  0  0  0  0  0  0  0  0  0  0
  -21.3357   -0.9971    0.0000 H   0  0  0  0  0  0  0  0  0  0  0  0
  -23.2639   -1.0210    0.0000 H   0  0  0  0  0  0  0  0  0  0  0  0
  -19.6976   -1.3278    0.0000 H   0  0  0  0  0  0  0  0  0  0  0  0
  -19.4048    2.0751    0.0000 H   0  0  0  0  0  0  0  0  0  0  0  0
  -17.1573    3.5646    0.0000 H   0  0  0  0  0  0  0  0  0  0  0  0
  -18.7848    2.8328    0.0000 H   0  0  0  0  0  0  0  0  0  0  0  0
  -14.6880    1.1229    0.0000 H   0  0  0  0  0  0  0  0  0  0  0  0
  -15.7690    0.3741    0.0000 H   0  0  0  0  0  0  0  0  0  0  0  0
  -14.5508    4.4334    0.0000 H   0  0  0  0  0  0  0  0  0  0  0  0
  -16.2553    3.9055    0.0000 H   0  0  0  0  0  0  0  0  0  0  0  0
  -12.7119    1.5424    0.0000 H   0  0  0  0  0  0  0  0  0  0  0  0
  -10.1859    4.8551    0.0000 H   0  0  0  0  0  0  0  0  0  0  0  0
  -10.7589    2.2306    0.0000 H   0  0  0  0  0  0  0  0  0  0  0  0
  -12.1966    6.5003    0.0000 H   0  0  0  0  0  0  0  0  0  0  0  0
  -14.6268    5.5816    0.0000 H   0  0  0  0  0  0  0  0  0  0  0  0
  -15.4836    2.4300    0.0000 H   0  0  0  0  0  0  0  0  0  0  0  0
  -15.6047   -0.8002    0.0000 H   0  0  0  0  0  0  0  0  0  0  0  0
  -12.2339   -1.6347    0.0000 H   0  0  0  0  0  0  0  0  0  0  0  0
  -12.3395   -0.0042    0.0000 H   0  0  0  0  0  0  0  0  0  0  0  0
  -14.9875   -3.4774    0.0000 H   0  0  0  0  0  0  0  0  0  0  0  0
  -15.4255   -1.7476    0.0000 H   0  0  0  0  0  0  0  0  0  0  0  0
  -11.7511   -4.1875    0.0000 H   0  0  0  0  0  0  0  0  0  0  0  0
  -11.9750   -2.4172    0.0000 H   0  0  0  0  0  0  0  0  0  0  0  0
  -15.0288   -5.1481    0.0000 H   0  0  0  0  0  0  0  0  0  0  0  0
  -12.0938   -8.5593    0.0000 H   0  0  0  0  0  0  0  0  0  0  0  0
  -14.5460   -7.7009    0.0000 H   0  0  0  0  0  0  0  0  0  0  0  0
  -10.1244   -6.8648    0.0000 H   0  0  0  0  0  0  0  0  0  0  0  0
  -10.6071   -4.3120    0.0000 H   0  0  0  0  0  0  0  0  0  0  0  0
  -11.7213   -1.2180    0.0000 H   0  0  0  0  0  0  0  0  0  0  0  0
  -11.6111    2.1715    0.0000 H   0  0  0  0  0  0  0  0  0  0  0  0
   -9.3636    3.6609    0.0000 H   0  0  0  0  0  0  0  0  0  0  0  0
  -11.1298    2.5908    0.0000 H   0  0  0  0  0  0  0  0  0  0  0  0
   -6.8944    1.2192    0.0000 H   0  0  0  0  0  0  0  0  0  0  0  0
   -7.9753    0.4704    0.0000 H   0  0  0  0  0  0  0  0  0  0  0  0
   -6.7571    4.5298    0.0000 H   0  0  0  0  0  0  0  0  0  0  0  0
   -8.4617    4.0019    0.0000 H   0  0  0  0  0  0  0  0  0  0  0  0
   -4.9182    1.6388    0.0000 H   0  0  0  0  0  0  0  0  0  0  0  0
   -2.3923    4.9514    0.0000 H   0  0  0  0  0  0  0  0  0  0  0  0
   -2.9653    2.3270    0.0000 H   0  0  0  0  0  0  0  0  0  0  0  0
   -4.4030    6.5967    0.0000 H   0  0  0  0  0  0  0  0  0  0  0  0
   -6.8332    5.6780    0.0000 H   0  0  0  0  0  0  0  0  0  0  0  0
   -7.6900    2.5263    0.0000 H   0  0  0  0  0  0  0  0  0  0  0  0
   -7.8111   -0.7038    0.0000 H   0  0  0  0  0  0  0  0  0  0  0  0
   -4.4402   -1.5383    0.0000 H   0  0  0  0  0  0  0  0  0  0  0  0
   -4.5458    0.0921    0.0000 H   0  0  0  0  0  0  0  0  0  0  0  0
   -7.1939   -3.3811    0.0000 H   0  0  0  0  0  0  0  0  0  0  0  0
   -7.6319   -1.6513    0.0000 H   0  0  0  0  0  0  0  0  0  0  0  0
   -3.9575   -4.0912    0.0000 H   0  0  0  0  0  0  0  0  0  0  0  0
   -4.1814   -2.3208    0.0000 H   0  0  0  0  0  0  0  0  0  0  0  0
   -7.2351   -5.0518    0.0000 H   0  0  0  0  0  0  0  0  0  0  0  0
   -4.3002   -8.4629    0.0000 H   0  0  0  0  0  0  0  0  0  0  0  0
   -6.7524   -7.6046    0.0000 H   0  0  0  0  0  0  0  0  0  0  0  0
   -2.3308   -6.7685    0.0000 H   0  0  0  0  0  0  0  0  0  0  0  0
   -2.8135   -4.2156    0.0000 H   0  0  0  0  0  0  0  0  0  0  0  0
   -3.9276   -1.1217    0.0000 H   0  0  0  0  0  0  0  0  0  0  0  0
   -3.8175    2.2678    0.0000 H   0  0  0  0  0  0  0  0  0  0  0  0
   -1.5700    3.7573    0.0000 H   0  0  0  0  0  0  0  0  0  0  0  0
   -3.3362    2.6872    0.0000 H   0  0  0  0  0  0  0  0  0  0  0  0
    0.8992    1.3156    0.0000 H   0  0  0  0  0  0  0  0  0  0  0  0
   -0.1817    0.5668    0.0000 H   0  0  0  0  0  0  0  0  0  0  0  0
    1.0365    4.6261    0.0000 H   0  0  0  0  0  0  0  0  0  0  0  0
   -0.6681    4.0982    0.0000 H   0  0  0  0  0  0  0  0  0  0  0  0
    2.8754    1.7351    0.0000 H   0  0  0  0  0  0  0  0  0  0  0  0
    5.4014    5.0478    0.0000 H   0  0  0  0  0  0  0  0  0  0  0  0
    4.8284    2.4233    0.0000 H   0  0  0  0  0  0  0  0  0  0  0  0
    3.3906    6.6930    0.0000 H   0  0  0  0  0  0  0  0  0  0  0  0
    0.9604    5.7743    0.0000 H   0  0  0  0  0  0  0  0  0  0  0  0
    0.1036    2.6227    0.0000 H   0  0  0  0  0  0  0  0  0  0  0  0
   -0.0174   -0.6075    0.0000 H   0  0  0  0  0  0  0  0  0  0  0  0
    3.3534   -1.4420    0.0000 H   0  0  0  0  0  0  0  0  0  0  0  0
    3.2478    0.1885    0.0000 H   0  0  0  0  0  0  0  0  0  0  0  0
    0.5997   -3.2848    0.0000 H   0  0  0  0  0  0  0  0  0  0  0  0
    0.1617   -1.5549    0.0000 H   0  0  0  0  0  0  0  0  0  0  0  0
    3.8362   -3.9948    0.0000 H   0  0  0  0  0  0  0  0  0  0  0  0
    3.6123   -2.2245    0.0000 H   0  0  0  0  0  0  0  0  0  0  0  0
    0.5585   -4.9554    0.0000 H   0  0  0  0  0  0  0  0  0  0  0  0
    3.4934   -8.3666    0.0000 H   0  0  0  0  0  0  0  0  0  0  0  0
    1.0412   -7.5082    0.0000 H   0  0  0  0  0  0  0  0  0  0  0  0
    5.4629   -6.6721    0.0000 H   0  0  0  0  0  0  0  0  0  0  0  0
    4.9801   -4.1193    0.0000 H   0  0  0  0  0  0  0  0  0  0  0  0
    3.8660   -1.0254    0.0000 H   0  0  0  0  0  0  0  0  0  0  0  0
    3.9761    2.3641    0.0000 H   0  0  0  0  0  0  0  0  0  0  0  0
    6.2236    3.8536    0.0000 H   0  0  0  0  0  0  0  0  0  0  0  0
    4.4574    2.7835    0.0000 H   0  0  0  0  0  0  0  0  0  0  0  0
    8.6929    1.4119    0.0000 H   0  0  0  0  0  0  0  0  0  0  0  0
    7.6119    0.6631    0.0000 H   0  0  0  0  0  0  0  0  0  0  0  0
    8.8301    4.7225    0.0000 H   0  0  0  0  0  0  0  0  0  0  0  0
    7.1256    4.1946    0.0000 H   0  0  0  0  0  0  0  0  0  0  0  0
   10.6690    1.8314    0.0000 H   0  0  0  0  0  0  0  0  0  0  0  0
   13.1950    5.1441    0.0000 H   0  0  0  0  0  0  0  0  0  0  0  0
   12.6220    2.5196    0.0000 H   0  0  0  0  0  0  0  0  0  0  0  0
   11.1843    6.7894    0.0000 H   0  0  0  0  0  0  0  0  0  0  0  0
    8.7541    5.8707    0.0000 H   0  0  0  0  0  0  0  0  0  0  0  0
    7.8973    2.7190    0.0000 H   0  0  0  0  0  0  0  0  0  0  0  0
    7.7762   -0.5111    0.0000 H   0  0  0  0  0  0  0  0  0  0  0  0
   11.1470   -1.3456    0.0000 H   0  0  0  0  0  0  0  0  0  0  0  0
   11.0414    0.2848    0.0000 H   0  0  0  0  0  0  0  0  0  0  0  0
    8.3934   -3.1884    0.0000 H   0  0  0  0  0  0  0  0  0  0  0  0
    7.9554   -1.4586    0.0000 H   0  0  0  0  0  0  0  0  0  0  0  0
   11.6298   -3.8985    0.0000 H   0  0  0  0  0  0  0  0  0  0  0  0
   11.4059   -2.1281    0.0000 H   0  0  0  0  0  0  0  0  0  0  0  0
    8.3521   -4.8591    0.0000 H   0  0  0  0  0  0  0  0  0  0  0  0
   11.2871   -8.2702    0.0000 H   0  0  0  0  0  0  0  0  0  0  0  0
    8.8349   -7.4119    0.0000 H   0  0  0  0  0  0  0  0  0  0  0  0
   13.2565   -6.5758    0.0000 H   0  0  0  0  0  0  0  0  0  0  0  0
   12.7738   -4.0229    0.0000 H   0  0  0  0  0  0  0  0  0  0  0  0
   11.6596   -0.9290    0.0000 H   0  0  0  0  0  0  0  0  0  0  0  0
   11.7698    2.4605    0.0000 H   0  0  0  0  0  0  0  0  0  0  0  0
   14.1935    3.9001    0.0000 H   0  0  0  0  0  0  0  0  0  0  0  0
   12.2511    2.8798    0.0000 H   0  0  0  0  0  0  0  0  0  0  0  0
   15.0073   -0.3371    0.0000 H   0  0  0  0  0  0  0  0  0  0  0  0
   18.5125    0.1998    0.0000 H   0  0  0  0  0  0  0  0  0  0  0  0
   20.1725    2.7324    0.0000 H   0  0  0  0  0  0  0  0  0  0  0  0
   20.0308    5.7290    0.0000 H   0  0  0  0  0  0  0  0  0  0  0  0
   17.3647    7.1046    0.0000 H   0  0  0  0  0  0  0  0  0  0  0  0
   14.8404    5.4835    0.0000 H   0  0  0  0  0  0  0  0  0  0  0  0
   15.6909    2.8153    0.0000 H   0  0  0  0  0  0  0  0  0  0  0  0
   15.7043   -0.5392    0.0000 H   0  0  0  0  0  0  0  0  0  0  0  0
   18.9407   -1.2493    0.0000 H   0  0  0  0  0  0  0  0  0  0  0  0
   18.9354    0.2279    0.0000 H   0  0  0  0  0  0  0  0  0  0  0  0
   16.1870   -3.0921    0.0000 H   0  0  0  0  0  0  0  0  0  0  0  0
   15.7490   -1.3622    0.0000 H   0  0  0  0  0  0  0  0  0  0  0  0
   19.4234   -3.8021    0.0000 H   0  0  0  0  0  0  0  0  0  0  0  0
   19.1995   -2.0318    0.0000 H   0  0  0  0  0  0  0  0  0  0  0  0
   16.1458   -4.7627    0.0000 H   0  0  0  0  0  0  0  0  0  0  0  0
   19.0807   -8.1739    0.0000 H   0  0  0  0  0  0  0  0  0  0  0  0
   16.6285   -7.3156    0.0000 H   0  0  0  0  0  0  0  0  0  0  0  0
   21.0501   -6.4794    0.0000 H   0  0  0  0  0  0  0  0  0  0  0  0
   20.5674   -3.9266    0.0000 H   0  0  0  0  0  0  0  0  0  0  0  0
   19.4533   -0.8327    0.0000 H   0  0  0  0  0  0  0  0  0  0  0  0
   19.4321    2.4291    0.0000 H   0  0  0  0  0  0  0  0  0  0  0  0
   21.8109    4.0463    0.0000 H   0  0  0  0  0  0  0  0  0  0  0  0
   20.2826    3.4685    0.0000 H   0  0  0  0  0  0  0  0  0  0  0  0
   24.2801    1.6046    0.0000 H   0  0  0  0  0  0  0  0  0  0  0  0
   23.1992    0.8558    0.0000 H   0  0  0  0  0  0  0  0  0  0  0  0
   24.4174    4.9151    0.0000 H   0  0  0  0  0  0  0  0  0  0  0  0
   22.7128    4.3873    0.0000 H   0  0  0  0  0  0  0  0  0  0  0  0
   26.2563    2.0241    0.0000 H   0  0  0  0  0  0  0  0  0  0  0  0
   28.7823    5.3368    0.0000 H   0  0  0  0  0  0  0  0  0  0  0  0
   28.3628    2.7728    0.0000 H   0  0  0  0  0  0  0  0  0  0  0  0
   26.7715    6.9821    0.0000 H   0  0  0  0  0  0  0  0  0  0  0  0
   24.3413    6.0634    0.0000 H   0  0  0  0  0  0  0  0  0  0  0  0
   23.4845    2.9117    0.0000 H   0  0  0  0  0  0  0  0  0  0  0  0
   23.3635   -0.3184    0.0000 H   0  0  0  0  0  0  0  0  0  0  0  0
   26.8140   -0.9880    0.0000 H   0  0  0  0  0  0  0  0  0  0  0  0
   26.5104    0.6174    0.0000 H   0  0  0  0  0  0  0  0  0  0  0  0
   23.9806   -2.9957    0.0000 H   0  0  0  0  0  0  0  0  0  0  0  0
   23.5426   -1.2659    0.0000 H   0  0  0  0  0  0  0  0  0  0  0  0
   27.2171   -3.7058    0.0000 H   0  0  0  0  0  0  0  0  0  0  0  0
   26.9932   -1.9354    0.0000 H   0  0  0  0  0  0  0  0  0  0  0  0
   23.9394   -4.6664    0.0000 H   0  0  0  0  0  0  0  0  0  0  0  0
   26.8743   -8.0776    0.0000 H   0  0  0  0  0  0  0  0  0  0  0  0
   24.4221   -7.2192    0.0000 H   0  0  0  0  0  0  0  0  0  0  0  0
   28.8438   -6.3831    0.0000 H   0  0  0  0  0  0  0  0  0  0  0  0
   28.3610   -3.8302    0.0000 H   0  0  0  0  0  0  0  0  0  0  0  0
  1  2  1  0
  2  3  1  0
  3  4  2  0
  4  5  1  0
  5  6  2  0
  6  7  1  0
  7  8  2  0
  7  9  1  0
  9 10  1  0
 10 11  1  0
 11 12  2  0
  9 13  1  0
 13 14  1  0
 14 15  2  0
 15 16  1  0
 16 17  2  0
 17 18  1  0
 16 19  1  0
 14 20  1  0
 20 21  1  0
 21 22  2  0
 22 23  1  0
 23 24  2  0
 24 25  1  0
 25 26  2  0
 25 27  1  0
  1 28  2  0
  1 29  1  0
 29 30  1  0
 30 31  1  0
 31 32  1  0
 32 33  2  0
 32 34  1  0
 34 35  1  0
 35 36  1  0
 36 37  1  0
 37 38  1  0
 38 39  1  0
 39 40  1  0
 40 41  2  3
 40 42  1  0
 35 43  1  0
 43 44  2  0
 43 45  1  0
 45 46  1  0
 46 47  1  0
 47 48  1  0
 48 49  1  0
 49 50  1  0
 50 51  1  0
 51 52  2  3
 51 53  1  0
 46 54  1  0
 54 55  2  0
 54 56  1  0
 56 57  1  0
 57 58  1  0
 58 59  1  0
 59 60  1  0
 60 61  1  0
 61 62  1  0
 62 63  2  3
 62 64  1  0
 57 65  1  0
 65 66  2  0
 65 67  1  0
 67 68  1  0
 68 69  1  0
 69 70  1  0
 70 71  1  0
 71 72  1  0
 72 73  1  0
 73 74  2  3
 73 75  1  0
 68 76  1  0
 76 77  2  0
 76 78  1  0
 78 79  1  0
 79 80  1  0
 80 81  1  0
 81 82  1  0
 82 83  1  0
 83 84  1  0
 84 85  2  3
 84 86  1  0
 79 87  1  0
 87 88  2  0
 87 89  1  0
 89 90  1  0
 90 91  1  0
 91 92  1  0
 92 93  1  0
 93 94  1  0
 94 95  1  0
 95 96  2  3
 95 97  1  0
 90 98  1  0
 98 99  2  0
 98100  1  0
100101  1  0
101102  1  0
102103  1  0
103104  1  0
104105  1  0
105106  1  0
106107  2  3
106108  1  0
101109  1  0
109110  2  0
109111  1  0
111112  1  0
112113  1  0
113114  1  0
114115  1  0
115116  1  0
116117  1  0
117118  2  3
117119  1  0
112120  1  0
120121  2  0
120122  1  0
122123  1  0
123124  1  0
124125  1  0
125126  2  0
126127  1  0
127128  1  0
128129  2  0
129130  1  0
130131  2  0
131132  1  0
132133  2  0
123134  1  0
134135  2  0
134136  1  0
136137  1  0
137138  1  0
138139  1  0
139140  1  0
140141  1  0
141142  1  0
142143  2  3
142144  1  0
137145  1  0
145146  2  0
145147  1  0
147148  1  0
148149  1  0
149150  1  0
150151  1  0
151152  1  0
152153  1  0
153154  2  3
153155  1  0
148156  1  0
156157  2  0
156158  1  0
158159  1  0
159160  1  0
160161  1  0
161162  1  0
162163  1  0
163164  1  0
164165  2  3
164166  1  0
159167  1  0
167168  2  0
167169  1  0
  8  3  1  0
133125  1  0
 11  6  1  0
133128  1  0
 18 13  2  0
 22  9  1  0
 26 21  1  0
  2170  1  0
  4171  1  0
  5172  1  0
  8173  1  0
 15174  1  0
 17175  1  0
 18176  1  0
 19177  1  0
 23178  1  0
 24179  1  0
 26180  1  0
 27181  1  0
 29182  1  0
 30183  1  0
 30184  1  0
 31185  1  0
 31186  1  0
 34187  1  0
 35188  1  1
 36189  1  0
 36190  1  0
 37191  1  0
 37192  1  0
 38193  1  0
 38194  1  0
 39195  1  0
 41196  1  0
 41197  1  0
 42198  1  0
 42199  1  0
 45200  1  0
 46201  1  6
 47202  1  0
 47203  1  0
 48204  1  0
 48205  1  0
 49206  1  0
 49207  1  0
 50208  1  0
 52209  1  0
 52210  1  0
 53211  1  0
 53212  1  0
 56213  1  0
 57214  1  1
 58215  1  0
 58216  1  0
 59217  1  0
 59218  1  0
 60219  1  0
 60220  1  0
 61221  1  0
 63222  1  0
 63223  1  0
 64224  1  0
 64225  1  0
 67226  1  0
 68227  1  6
 69228  1  0
 69229  1  0
 70230  1  0
 70231  1  0
 71232  1  0
 71233  1  0
 72234  1  0
 74235  1  0
 74236  1  0
 75237  1  0
 75238  1  0
 78239  1  0
 79240  1  1
 80241  1  0
 80242  1  0
 81243  1  0
 81244  1  0
 82245  1  0
 82246  1  0
 83247  1  0
 85248  1  0
 85249  1  0
 86250  1  0
 86251  1  0
 89252  1  0
 90253  1  6
 91254  1  0
 91255  1  0
 92256  1  0
 92257  1  0
 93258  1  0
 93259  1  0
 94260  1  0
 96261  1  0
 96262  1  0
 97263  1  0
 97264  1  0
100265  1  0
101266  1  1
102267  1  0
102268  1  0
103269  1  0
103270  1  0
104271  1  0
104272  1  0
105273  1  0
107274  1  0
107275  1  0
108276  1  0
108277  1  0
111278  1  0
112279  1  6
113280  1  0
113281  1  0
114282  1  0
114283  1  0
115284  1  0
115285  1  0
116286  1  0
118287  1  0
118288  1  0
119289  1  0
119290  1  0
122291  1  0
123292  1  1
124293  1  0
124294  1  0
126295  1  0
127296  1  0
129297  1  0
130298  1  0
131299  1  0
132300  1  0
136301  1  0
137302  1  6
138303  1  0
138304  1  0
139305  1  0
139306  1  0
140307  1  0
140308  1  0
141309  1  0
143310  1  0
143311  1  0
144312  1  0
144313  1  0
147314  1  0
148315  1  1
149316  1  0
149317  1  0
150318  1  0
150319  1  0
151320  1  0
151321  1  0
152322  1  0
154323  1  0
154324  1  0
155325  1  0
155326  1  0
158327  1  0
159328  1  6
160329  1  0
160330  1  0
161331  1  0
161332  1  0
162333  1  0
162334  1  0
163335  1  0
165336  1  0
165337  1  0
166338  1  0
166339  1  0
M  CHG  8  41   1  52   1  63   1  74   1  85   1  96   1 107   1 118   1
M  CHG  4 143   1 154   1 165   1 169  -1
M  END
