
     RDKit          2D

328332  0  0  0  0  0  0  0  0999 V2000
  -26.0641    0.7957    0.0000 C   0  0  0  0  0  0  0  0  0  0  0  0
  -27.3561    0.0337    0.0000 N   0  0  0  0  0  0  0  0  0  0  0  0
  -28.6620    0.7715    0.0000 C   0  0  0  0  0  0  0  0  0  0  0  0
  -28.6760    2.2715    0.0000 C   0  0  0  0  0  0  0  0  0  0  0  0
  -29.9820    3.0093    0.0000 C   0  0  0  0  0  0  0  0  0  0  0  0
  -31.2740    2.2472    0.0000 C   0  0  0  0  0  0  0  0  0  0  0  0
  -31.2600    0.7473    0.0000 C   0  0  0  0  0  0  0  0  0  0  0  0
  -29.9540    0.0094    0.0000 C   0  0  0  0  0  0  0  0  0  0  0  0
  -32.6822    0.2705    0.0000 C   0  0  0  0  0  0  0  0  0  0  0  0
  -33.5752    1.4758    0.0000 O   0  0  0  0  0  0  0  0  0  0  0  0
  -32.7048    2.6975    0.0000 C   0  0  0  0  0  0  0  0  0  0  0  0
  -33.1816    4.1197    0.0000 O   0  0  0  0  0  0  0  0  0  0  0  0
  -34.1465   -0.0550    0.0000 C   0  0  0  0  0  0  0  0  0  0  0  0
  -34.5967   -1.4858    0.0000 C   0  0  0  0  0  0  0  0  0  0  0  0
  -36.0609   -1.8114    0.0000 C   0  0  0  0  0  0  0  0  0  0  0  0
  -37.0750   -0.7061    0.0000 C   0  0  0  0  0  0  0  0  0  0  0  0
  -36.6248    0.7248    0.0000 C   0  0  0  0  0  0  0  0  0  0  0  0
  -35.1605    1.0503    0.0000 C   0  0  0  0  0  0  0  0  0  0  0  0
  -38.5392   -1.0316    0.0000 O   0  0  0  0  0  0  0  0  0  0  0  0
  -33.5826   -2.5912    0.0000 O   0  0  0  0  0  0  0  0  0  0  0  0
  -32.1184   -2.2656    0.0000 C   0  0  0  0  0  0  0  0  0  0  0  0
  -31.6682   -0.8348    0.0000 C   0  0  0  0  0  0  0  0  0  0  0  0
  -30.4140   -1.1770    0.0000 C   0  0  0  0  0  0  0  0  0  0  0  0
  -29.8732   -1.7665    0.0000 C   0  0  0  0  0  0  0  0  0  0  0  0
  -30.1133   -2.5296    0.0000 C   0  0  0  0  0  0  0  0  0  0  0  0
  -30.8942   -2.7032    0.0000 C   0  0  0  0  0  0  0  0  0  0  0  0
  -28.6261   -4.1508    0.0000 O   0  0  0  0  0  0  0  0  0  0  0  0
  -26.0781    2.2957    0.0000 S   0  0  0  0  0  0  0  0  0  0  0  0
  -24.7581    0.0579    0.0000 N   0  0  0  0  0  0  0  0  0  0  0  0
  -23.4661    0.8199    0.0000 C   0  0  0  0  0  0  0  0  0  0  0  0
  -22.1601    0.0821    0.0000 C   0  0  0  0  0  0  0  0  0  0  0  0
  -20.8682    0.8441    0.0000 C   0  0  0  0  0  0  0  0  0  0  0  0
  -20.8821    2.3441    0.0000 O   0  0  0  0  0  0  0  0  0  0  0  0
  -19.5622    0.1063    0.0000 N   0  0  0  0  0  0  0  0  0  0  0  0
  -18.2702    0.8683    0.0000 C   0  0  0  0  0  0  0  0  0  0  0  0
  -17.3168    2.0263    0.0000 C   0  0  0  0  0  0  0  0  0  0  0  0
  -15.8372    1.7796    0.0000 C   0  0  0  0  0  0  0  0  0  0  0  0
  -14.8837    2.9376    0.0000 C   0  0  0  0  0  0  0  0  0  0  0  0
  -13.4042    2.6909    0.0000 N   0  0  0  0  0  0  0  0  0  0  0  0
  -12.4507    3.8489    0.0000 C   0  0  0  0  0  0  0  0  0  0  0  0
  -11.0123    3.4237    0.0000 N   0  0  0  0  0  0  0  0  0  0  0  0
  -12.9769    5.2536    0.0000 N   0  0  0  0  0  0  0  0  0  0  0  0
  -16.9642    0.1305    0.0000 C   0  0  0  0  0  0  0  0  0  0  0  0
  -16.9502   -1.3695    0.0000 O   0  0  0  0  0  0  0  0  0  0  0  0
  -15.6722    0.8926    0.0000 N   0  0  0  0  0  0  0  0  0  0  0  0
  -14.3663    0.1547    0.0000 C   0  0  0  0  0  0  0  0  0  0  0  0
  -13.3914   -0.9853    0.0000 C   0  0  0  0  0  0  0  0  0  0  0  0
  -13.8913   -2.3996    0.0000 C   0  0  0  0  0  0  0  0  0  0  0  0
  -12.9164   -3.5396    0.0000 C   0  0  0  0  0  0  0  0  0  0  0  0
  -13.4163   -4.9539    0.0000 N   0  0  0  0  0  0  0  0  0  0  0  0
  -12.4415   -6.0939    0.0000 C   0  0  0  0  0  0  0  0  0  0  0  0
  -12.9413   -7.5082    0.0000 N   0  0  0  0  0  0  0  0  0  0  0  0
  -10.9668   -5.8197    0.0000 N   0  0  0  0  0  0  0  0  0  0  0  0
  -13.0743    0.9168    0.0000 C   0  0  0  0  0  0  0  0  0  0  0  0
  -12.8196    1.9802    0.0000 O   0  0  0  0  0  0  0  0  0  0  0  0
  -11.7683    0.1789    0.0000 N   0  0  0  0  0  0  0  0  0  0  0  0
  -10.4763    0.9410    0.0000 C   0  0  0  0  0  0  0  0  0  0  0  0
   -9.5229    2.0990    0.0000 C   0  0  0  0  0  0  0  0  0  0  0  0
   -8.0433    1.8523    0.0000 C   0  0  0  0  0  0  0  0  0  0  0  0
   -7.0899    3.0103    0.0000 C   0  0  0  0  0  0  0  0  0  0  0  0
   -5.6103    2.7636    0.0000 N   0  0  0  0  0  0  0  0  0  0  0  0
   -4.6568    3.9216    0.0000 C   0  0  0  0  0  0  0  0  0  0  0  0
   -3.2184    3.4964    0.0000 N   0  0  0  0  0  0  0  0  0  0  0  0
   -5.1830    5.3263    0.0000 N   0  0  0  0  0  0  0  0  0  0  0  0
   -9.1703    0.2031    0.0000 C   0  0  0  0  0  0  0  0  0  0  0  0
   -9.1564   -1.2968    0.0000 O   0  0  0  0  0  0  0  0  0  0  0  0
   -7.8783    0.9652    0.0000 N   0  0  0  0  0  0  0  0  0  0  0  0
   -6.5724    0.2273    0.0000 C   0  0  0  0  0  0  0  0  0  0  0  0
   -5.5975   -0.9127    0.0000 C   0  0  0  0  0  0  0  0  0  0  0  0
   -6.0974   -2.3270    0.0000 C   0  0  0  0  0  0  0  0  0  0  0  0
   -5.1226   -3.4670    0.0000 C   0  0  0  0  0  0  0  0  0  0  0  0
   -5.6224   -4.8813    0.0000 N   0  0  0  0  0  0  0  0  0  0  0  0
   -4.6476   -6.0213    0.0000 C   0  0  0  0  0  0  0  0  0  0  0  0
   -5.1475   -7.4356    0.0000 N   0  0  0  0  0  0  0  0  0  0  0  0
   -3.1729   -5.7471    0.0000 N   0  0  0  0  0  0  0  0  0  0  0  0
   -5.2804    0.9894    0.0000 C   0  0  0  0  0  0  0  0  0  0  0  0
   -5.0257    2.0528    0.0000 O   0  0  0  0  0  0  0  0  0  0  0  0
   -3.9744    0.2515    0.0000 N   0  0  0  0  0  0  0  0  0  0  0  0
   -2.6824    1.0136    0.0000 C   0  0  0  0  0  0  0  0  0  0  0  0
   -1.7290    2.1716    0.0000 C   0  0  0  0  0  0  0  0  0  0  0  0
   -0.2494    1.9249    0.0000 C   0  0  0  0  0  0  0  0  0  0  0  0
    0.7040    3.0829    0.0000 C   0  0  0  0  0  0  0  0  0  0  0  0
    2.1836    2.8362    0.0000 N   0  0  0  0  0  0  0  0  0  0  0  0
    3.1370    3.9942    0.0000 C   0  0  0  0  0  0  0  0  0  0  0  0
    4.5755    3.5690    0.0000 N   0  0  0  0  0  0  0  0  0  0  0  0
    2.6109    5.3989    0.0000 N   0  0  0  0  0  0  0  0  0  0  0  0
   -1.3764    0.2757    0.0000 C   0  0  0  0  0  0  0  0  0  0  0  0
   -1.3625   -1.2242    0.0000 O   0  0  0  0  0  0  0  0  0  0  0  0
   -0.0844    1.0378    0.0000 N   0  0  0  0  0  0  0  0  0  0  0  0
    1.2215    0.2999    0.0000 C   0  0  0  0  0  0  0  0  0  0  0  0
    2.1964   -0.8401    0.0000 C   0  0  0  0  0  0  0  0  0  0  0  0
    1.6965   -2.2544    0.0000 C   0  0  0  0  0  0  0  0  0  0  0  0
    2.6713   -3.3944    0.0000 C   0  0  0  0  0  0  0  0  0  0  0  0
    2.1715   -4.8087    0.0000 N   0  0  0  0  0  0  0  0  0  0  0  0
    3.1463   -5.9487    0.0000 C   0  0  0  0  0  0  0  0  0  0  0  0
    2.6464   -7.3630    0.0000 N   0  0  0  0  0  0  0  0  0  0  0  0
    4.6210   -5.6745    0.0000 N   0  0  0  0  0  0  0  0  0  0  0  0
    2.5135    1.0620    0.0000 C   0  0  0  0  0  0  0  0  0  0  0  0
    2.7682    2.1254    0.0000 O   0  0  0  0  0  0  0  0  0  0  0  0
    3.8195    0.3241    0.0000 N   0  0  0  0  0  0  0  0  0  0  0  0
    5.1115    1.0862    0.0000 C   0  0  0  0  0  0  0  0  0  0  0  0
    6.0649    2.2442    0.0000 C   0  0  0  0  0  0  0  0  0  0  0  0
    7.5445    1.9975    0.0000 C   0  0  0  0  0  0  0  0  0  0  0  0
    8.4979    3.1555    0.0000 C   0  0  0  0  0  0  0  0  0  0  0  0
    9.9775    2.9088    0.0000 N   0  0  0  0  0  0  0  0  0  0  0  0
   10.9309    4.0668    0.0000 C   0  0  0  0  0  0  0  0  0  0  0  0
   12.3694    3.6416    0.0000 N   0  0  0  0  0  0  0  0  0  0  0  0
   10.4048    5.4715    0.0000 N   0  0  0  0  0  0  0  0  0  0  0  0
    6.4175    0.3483    0.0000 C   0  0  0  0  0  0  0  0  0  0  0  0
    6.4314   -1.1516    0.0000 O   0  0  0  0  0  0  0  0  0  0  0  0
    7.7094    1.1104    0.0000 N   0  0  0  0  0  0  0  0  0  0  0  0
    9.0154    0.3725    0.0000 C   0  0  0  0  0  0  0  0  0  0  0  0
    9.9903   -0.7675    0.0000 C   0  0  0  0  0  0  0  0  0  0  0  0
    9.4904   -2.1818    0.0000 C   0  0  0  0  0  0  0  0  0  0  0  0
   10.4652   -3.3218    0.0000 C   0  0  0  0  0  0  0  0  0  0  0  0
    9.9654   -4.7360    0.0000 N   0  0  0  0  0  0  0  0  0  0  0  0
   10.9402   -5.8761    0.0000 C   0  0  0  0  0  0  0  0  0  0  0  0
   10.4403   -7.2903    0.0000 N   0  0  0  0  0  0  0  0  0  0  0  0
   12.4149   -5.6019    0.0000 N   0  0  0  0  0  0  0  0  0  0  0  0
   10.3074    1.1346    0.0000 C   0  0  0  0  0  0  0  0  0  0  0  0
   10.5621    2.1980    0.0000 O   0  0  0  0  0  0  0  0  0  0  0  0
   11.6134    0.3967    0.0000 N   0  0  0  0  0  0  0  0  0  0  0  0
   12.9054    1.1588    0.0000 C   0  0  0  0  0  0  0  0  0  0  0  0
   13.8588    2.3168    0.0000 C   0  0  0  0  0  0  0  0  0  0  0  0
   15.3384    2.0701    0.0000 C   0  0  0  0  0  0  0  0  0  0  0  0
   16.2918    3.2281    0.0000 C   0  0  0  0  0  0  0  0  0  0  0  0
   17.7714    2.9814    0.0000 N   0  0  0  0  0  0  0  0  0  0  0  0
   18.7248    4.1394    0.0000 C   0  0  0  0  0  0  0  0  0  0  0  0
   20.1633    3.7142    0.0000 N   0  0  0  0  0  0  0  0  0  0  0  0
   18.1987    5.5441    0.0000 N   0  0  0  0  0  0  0  0  0  0  0  0
   14.2113    0.4210    0.0000 C   0  0  0  0  0  0  0  0  0  0  0  0
   14.2253   -1.0790    0.0000 O   0  0  0  0  0  0  0  0  0  0  0  0
   15.5033    1.1830    0.0000 N   0  0  0  0  0  0  0  0  0  0  0  0
   16.8093    0.4452    0.0000 C   0  0  0  0  0  0  0  0  0  0  0  0
   17.7842   -0.6949    0.0000 C   0  0  0  0  0  0  0  0  0  0  0  0
   17.2843   -2.1091    0.0000 C   0  0  0  0  0  0  0  0  0  0  0  0
   18.2591   -3.2492    0.0000 C   0  0  0  0  0  0  0  0  0  0  0  0
   17.7592   -4.6634    0.0000 N   0  0  0  0  0  0  0  0  0  0  0  0
   18.7341   -5.8035    0.0000 C   0  0  0  0  0  0  0  0  0  0  0  0
   18.2342   -7.2177    0.0000 N   0  0  0  0  0  0  0  0  0  0  0  0
   20.2088   -5.5292    0.0000 N   0  0  0  0  0  0  0  0  0  0  0  0
   18.1013    1.2072    0.0000 C   0  0  0  0  0  0  0  0  0  0  0  0
   18.3843    2.3888    0.0000 O   0  0  0  0  0  0  0  0  0  0  0  0
   19.4073    0.4694    0.0000 N   0  0  0  0  0  0  0  0  0  0  0  0
   20.6993    1.2314    0.0000 C   0  0  0  0  0  0  0  0  0  0  0  0
   21.6527    2.3894    0.0000 C   0  0  0  0  0  0  0  0  0  0  0  0
   23.1323    2.1427    0.0000 C   0  0  0  0  0  0  0  0  0  0  0  0
   24.0857    3.3007    0.0000 C   0  0  0  0  0  0  0  0  0  0  0  0
   25.5653    3.0540    0.0000 N   0  0  0  0  0  0  0  0  0  0  0  0
   26.5187    4.2120    0.0000 C   0  0  0  0  0  0  0  0  0  0  0  0
   27.9983    3.9653    0.0000 N   0  0  0  0  0  0  0  0  0  0  0  0
   25.9926    5.6167    0.0000 N   0  0  0  0  0  0  0  0  0  0  0  0
   22.0052    0.4936    0.0000 C   0  0  0  0  0  0  0  0  0  0  0  0
   22.0192   -1.0064    0.0000 O   0  0  0  0  0  0  0  0  0  0  0  0
   23.2972    1.2556    0.0000 N   0  0  0  0  0  0  0  0  0  0  0  0
   24.6032    0.5178    0.0000 C   0  0  0  0  0  0  0  0  0  0  0  0
   25.5780   -0.6223    0.0000 C   0  0  0  0  0  0  0  0  0  0  0  0
   25.0782   -2.0365    0.0000 C   0  0  0  0  0  0  0  0  0  0  0  0
   26.0530   -3.1765    0.0000 C   0  0  0  0  0  0  0  0  0  0  0  0
   25.5531   -4.5908    0.0000 N   0  0  0  0  0  0  0  0  0  0  0  0
   26.5280   -5.7308    0.0000 C   0  0  0  0  0  0  0  0  0  0  0  0
   26.0281   -7.1451    0.0000 N   0  0  0  0  0  0  0  0  0  0  0  0
   28.0027   -5.4566    0.0000 N   0  0  0  0  0  0  0  0  0  0  0  0
   25.8952    1.2798    0.0000 C   0  0  0  0  0  0  0  0  0  0  0  0
   27.2814    0.7067    0.0000 O   0  0  0  0  0  0  0  0  0  0  0  0
   26.2446    2.7386    0.0000 O   0  0  0  0  0  0  0  0  0  0  0  0
  -27.1594   -1.4534    0.0000 H   0  0  0  0  0  0  0  0  0  0  0  0
  -27.3840    3.0335    0.0000 H   0  0  0  0  0  0  0  0  0  0  0  0
  -29.9960    4.5093    0.0000 H   0  0  0  0  0  0  0  0  0  0  0  0
  -29.5775   -1.4425    0.0000 H   0  0  0  0  0  0  0  0  0  0  0  0
  -36.5111   -3.2422    0.0000 H   0  0  0  0  0  0  0  0  0  0  0  0
  -37.6388    1.8301    0.0000 H   0  0  0  0  0  0  0  0  0  0  0  0
  -34.7103    2.4812    0.0000 H   0  0  0  0  0  0  0  0  0  0  0  0
  -39.5533    0.0737    0.0000 H   0  0  0  0  0  0  0  0  0  0  0  0
  -29.7537    0.9216    0.0000 H   0  0  0  0  0  0  0  0  0  0  0  0
  -27.6969   -1.4700    0.0000 H   0  0  0  0  0  0  0  0  0  0  0  0
  -31.5546   -4.8018    0.0000 H   0  0  0  0  0  0  0  0  0  0  0  0
  -29.0763   -5.5816    0.0000 H   0  0  0  0  0  0  0  0  0  0  0  0
  -24.7441   -1.4421    0.0000 H   0  0  0  0  0  0  0  0  0  0  0  0
  -22.5127    1.9779    0.0000 H   0  0  0  0  0  0  0  0  0  0  0  0
  -24.4410    1.9600    0.0000 H   0  0  0  0  0  0  0  0  0  0  0  0
  -21.1853   -1.0580    0.0000 H   0  0  0  0  0  0  0  0  0  0  0  0
  -23.1136   -1.0759    0.0000 H   0  0  0  0  0  0  0  0  0  0  0  0
  -19.5482   -1.3937    0.0000 H   0  0  0  0  0  0  0  0  0  0  0  0
  -19.2450    2.0084    0.0000 H   0  0  0  0  0  0  0  0  0  0  0  0
  -16.9930    3.4910    0.0000 H   0  0  0  0  0  0  0  0  0  0  0  0
  -18.6227    2.7642    0.0000 H   0  0  0  0  0  0  0  0  0  0  0  0
  -14.5312    1.0418    0.0000 H   0  0  0  0  0  0  0  0  0  0  0  0
  -15.6144    0.2963    0.0000 H   0  0  0  0  0  0  0  0  0  0  0  0
  -14.3839    4.3519    0.0000 H   0  0  0  0  0  0  0  0  0  0  0  0
  -16.0900    3.8292    0.0000 H   0  0  0  0  0  0  0  0  0  0  0  0
  -12.5538    1.4553    0.0000 H   0  0  0  0  0  0  0  0  0  0  0  0
  -10.0177    4.7603    0.0000 H   0  0  0  0  0  0  0  0  0  0  0  0
  -12.0234    6.4116    0.0000 H   0  0  0  0  0  0  0  0  0  0  0  0
  -14.4565    5.5003    0.0000 H   0  0  0  0  0  0  0  0  0  0  0  0
  -15.3228    2.3513    0.0000 H   0  0  0  0  0  0  0  0  0  0  0  0
  -15.4537   -0.8785    0.0000 H   0  0  0  0  0  0  0  0  0  0  0  0
  -12.0854   -1.7232    0.0000 H   0  0  0  0  0  0  0  0  0  0  0  0
  -12.1861   -0.0925    0.0000 H   0  0  0  0  0  0  0  0  0  0  0  0
  -14.8447   -3.5576    0.0000 H   0  0  0  0  0  0  0  0  0  0  0  0
  -15.2775   -1.8264    0.0000 H   0  0  0  0  0  0  0  0  0  0  0  0
  -11.6105   -4.2775    0.0000 H   0  0  0  0  0  0  0  0  0  0  0  0
  -11.8290   -2.5065    0.0000 H   0  0  0  0  0  0  0  0  0  0  0  0
  -14.8910   -5.2281    0.0000 H   0  0  0  0  0  0  0  0  0  0  0  0
  -11.9665   -8.6482    0.0000 H   0  0  0  0  0  0  0  0  0  0  0  0
   -9.9919   -6.9597    0.0000 H   0  0  0  0  0  0  0  0  0  0  0  0
  -10.4669   -4.4054    0.0000 H   0  0  0  0  0  0  0  0  0  0  0  0
  -11.5716   -1.3082    0.0000 H   0  0  0  0  0  0  0  0  0  0  0  0
  -11.4511    2.0810    0.0000 H   0  0  0  0  0  0  0  0  0  0  0  0
   -9.1991    3.5636    0.0000 H   0  0  0  0  0  0  0  0  0  0  0  0
  -10.9090    2.6721    0.0000 H   0  0  0  0  0  0  0  0  0  0  0  0
   -6.7373    1.1144    0.0000 H   0  0  0  0  0  0  0  0  0  0  0  0
   -7.8205    0.3689    0.0000 H   0  0  0  0  0  0  0  0  0  0  0  0
   -6.5900    4.4245    0.0000 H   0  0  0  0  0  0  0  0  0  0  0  0
   -8.2961    3.9018    0.0000 H   0  0  0  0  0  0  0  0  0  0  0  0
   -4.7599    1.5279    0.0000 H   0  0  0  0  0  0  0  0  0  0  0  0
   -2.2238    4.8329    0.0000 H   0  0  0  0  0  0  0  0  0  0  0  0
   -4.2296    6.4843    0.0000 H   0  0  0  0  0  0  0  0  0  0  0  0
   -6.6626    5.5730    0.0000 H   0  0  0  0  0  0  0  0  0  0  0  0
   -7.5289    2.4239    0.0000 H   0  0  0  0  0  0  0  0  0  0  0  0
   -7.6598   -0.8058    0.0000 H   0  0  0  0  0  0  0  0  0  0  0  0
   -4.2916   -1.6506    0.0000 H   0  0  0  0  0  0  0  0  0  0  0  0
   -4.3922   -0.0198    0.0000 H   0  0  0  0  0  0  0  0  0  0  0  0
   -7.0508   -3.4850    0.0000 H   0  0  0  0  0  0  0  0  0  0  0  0
   -7.4836   -1.7538    0.0000 H   0  0  0  0  0  0  0  0  0  0  0  0
   -3.8166   -4.2049    0.0000 H   0  0  0  0  0  0  0  0  0  0  0  0
   -4.0351   -2.4339    0.0000 H   0  0  0  0  0  0  0  0  0  0  0  0
   -7.0971   -5.1555    0.0000 H   0  0  0  0  0  0  0  0  0  0  0  0
   -4.1726   -8.5756    0.0000 H   0  0  0  0  0  0  0  0  0  0  0  0
   -2.1980   -6.8871    0.0000 H   0  0  0  0  0  0  0  0  0  0  0  0
   -2.6730   -4.3328    0.0000 H   0  0  0  0  0  0  0  0  0  0  0  0
   -3.7777   -1.2355    0.0000 H   0  0  0  0  0  0  0  0  0  0  0  0
   -3.6573    2.1536    0.0000 H   0  0  0  0  0  0  0  0  0  0  0  0
   -1.4052    3.6362    0.0000 H   0  0  0  0  0  0  0  0  0  0  0  0
   -3.1151    2.7448    0.0000 H   0  0  0  0  0  0  0  0  0  0  0  0
    1.0566    1.1870    0.0000 H   0  0  0  0  0  0  0  0  0  0  0  0
   -0.0267    0.4415    0.0000 H   0  0  0  0  0  0  0  0  0  0  0  0
    1.2039    4.4971    0.0000 H   0  0  0  0  0  0  0  0  0  0  0  0
   -0.5023    3.9744    0.0000 H   0  0  0  0  0  0  0  0  0  0  0  0
    3.0340    1.6005    0.0000 H   0  0  0  0  0  0  0  0  0  0  0  0
    5.5700    4.9055    0.0000 H   0  0  0  0  0  0  0  0  0  0  0  0
    3.5643    6.5569    0.0000 H   0  0  0  0  0  0  0  0  0  0  0  0
    1.1313    5.6456    0.0000 H   0  0  0  0  0  0  0  0  0  0  0  0
    0.2649    2.4965    0.0000 H   0  0  0  0  0  0  0  0  0  0  0  0
    0.1340   -0.7332    0.0000 H   0  0  0  0  0  0  0  0  0  0  0  0
    3.5023   -1.5780    0.0000 H   0  0  0  0  0  0  0  0  0  0  0  0
    3.4017    0.0528    0.0000 H   0  0  0  0  0  0  0  0  0  0  0  0
    0.7431   -3.4124    0.0000 H   0  0  0  0  0  0  0  0  0  0  0  0
    0.3103   -1.6812    0.0000 H   0  0  0  0  0  0  0  0  0  0  0  0
    3.9773   -4.1323    0.0000 H   0  0  0  0  0  0  0  0  0  0  0  0
    3.7588   -2.3613    0.0000 H   0  0  0  0  0  0  0  0  0  0  0  0
    0.6967   -5.0829    0.0000 H   0  0  0  0  0  0  0  0  0  0  0  0
    3.6213   -8.5030    0.0000 H   0  0  0  0  0  0  0  0  0  0  0  0
    5.5959   -6.8145    0.0000 H   0  0  0  0  0  0  0  0  0  0  0  0
    5.1209   -4.2602    0.0000 H   0  0  0  0  0  0  0  0  0  0  0  0
    4.0162   -1.1629    0.0000 H   0  0  0  0  0  0  0  0  0  0  0  0
    4.1366    2.2262    0.0000 H   0  0  0  0  0  0  0  0  0  0  0  0
    6.3887    3.7088    0.0000 H   0  0  0  0  0  0  0  0  0  0  0  0
    4.6787    2.8174    0.0000 H   0  0  0  0  0  0  0  0  0  0  0  0
    8.8505    1.2596    0.0000 H   0  0  0  0  0  0  0  0  0  0  0  0
    7.7672    0.5141    0.0000 H   0  0  0  0  0  0  0  0  0  0  0  0
    8.9978    4.5698    0.0000 H   0  0  0  0  0  0  0  0  0  0  0  0
    7.2916    4.0471    0.0000 H   0  0  0  0  0  0  0  0  0  0  0  0
   10.8279    1.6732    0.0000 H   0  0  0  0  0  0  0  0  0  0  0  0
   13.3639    4.9781    0.0000 H   0  0  0  0  0  0  0  0  0  0  0  0
   11.3582    6.6295    0.0000 H   0  0  0  0  0  0  0  0  0  0  0  0
    8.9252    5.7182    0.0000 H   0  0  0  0  0  0  0  0  0  0  0  0
    8.0588    2.5691    0.0000 H   0  0  0  0  0  0  0  0  0  0  0  0
    7.9279   -0.6606    0.0000 H   0  0  0  0  0  0  0  0  0  0  0  0
   11.2962   -1.5054    0.0000 H   0  0  0  0  0  0  0  0  0  0  0  0
   11.1956    0.1254    0.0000 H   0  0  0  0  0  0  0  0  0  0  0  0
    8.5370   -3.3398    0.0000 H   0  0  0  0  0  0  0  0  0  0  0  0
    8.1042   -1.6086    0.0000 H   0  0  0  0  0  0  0  0  0  0  0  0
   11.7712   -4.0596    0.0000 H   0  0  0  0  0  0  0  0  0  0  0  0
   11.5527   -2.2886    0.0000 H   0  0  0  0  0  0  0  0  0  0  0  0
    8.4906   -5.0103    0.0000 H   0  0  0  0  0  0  0  0  0  0  0  0
   11.4152   -8.4304    0.0000 H   0  0  0  0  0  0  0  0  0  0  0  0
   13.3898   -6.7419    0.0000 H   0  0  0  0  0  0  0  0  0  0  0  0
   12.9148   -4.1876    0.0000 H   0  0  0  0  0  0  0  0  0  0  0  0
   11.8101   -1.0903    0.0000 H   0  0  0  0  0  0  0  0  0  0  0  0
   11.9305    2.2989    0.0000 H   0  0  0  0  0  0  0  0  0  0  0  0
   14.1826    3.7815    0.0000 H   0  0  0  0  0  0  0  0  0  0  0  0
   12.4726    2.8900    0.0000 H   0  0  0  0  0  0  0  0  0  0  0  0
   16.6443    1.3323    0.0000 H   0  0  0  0  0  0  0  0  0  0  0  0
   15.5611    0.5868    0.0000 H   0  0  0  0  0  0  0  0  0  0  0  0
   16.7917    4.6424    0.0000 H   0  0  0  0  0  0  0  0  0  0  0  0
   15.0855    4.1197    0.0000 H   0  0  0  0  0  0  0  0  0  0  0  0
   18.6218    1.7458    0.0000 H   0  0  0  0  0  0  0  0  0  0  0  0
   21.1578    5.0507    0.0000 H   0  0  0  0  0  0  0  0  0  0  0  0
   19.1521    6.7021    0.0000 H   0  0  0  0  0  0  0  0  0  0  0  0
   16.7191    5.7908    0.0000 H   0  0  0  0  0  0  0  0  0  0  0  0
   15.8527    2.6418    0.0000 H   0  0  0  0  0  0  0  0  0  0  0  0
   15.7218   -0.5880    0.0000 H   0  0  0  0  0  0  0  0  0  0  0  0
   19.0901   -1.4327    0.0000 H   0  0  0  0  0  0  0  0  0  0  0  0
   18.9895    0.1980    0.0000 H   0  0  0  0  0  0  0  0  0  0  0  0
   16.3308   -3.2671    0.0000 H   0  0  0  0  0  0  0  0  0  0  0  0
   15.8981   -1.5360    0.0000 H   0  0  0  0  0  0  0  0  0  0  0  0
   19.5651   -3.9870    0.0000 H   0  0  0  0  0  0  0  0  0  0  0  0
   19.3466   -2.2160    0.0000 H   0  0  0  0  0  0  0  0  0  0  0  0
   16.2845   -4.9376    0.0000 H   0  0  0  0  0  0  0  0  0  0  0  0
   19.2091   -8.3577    0.0000 H   0  0  0  0  0  0  0  0  0  0  0  0
   21.1837   -6.6693    0.0000 H   0  0  0  0  0  0  0  0  0  0  0  0
   20.7087   -4.1150    0.0000 H   0  0  0  0  0  0  0  0  0  0  0  0
   19.6040   -1.0177    0.0000 H   0  0  0  0  0  0  0  0  0  0  0  0
   19.7244    2.3715    0.0000 H   0  0  0  0  0  0  0  0  0  0  0  0
   21.9765    3.8541    0.0000 H   0  0  0  0  0  0  0  0  0  0  0  0
   20.2665    2.9626    0.0000 H   0  0  0  0  0  0  0  0  0  0  0  0
   24.4382    1.4049    0.0000 H   0  0  0  0  0  0  0  0  0  0  0  0
   23.3550    0.6594    0.0000 H   0  0  0  0  0  0  0  0  0  0  0  0
   24.5856    4.7150    0.0000 H   0  0  0  0  0  0  0  0  0  0  0  0
   22.8794    4.1923    0.0000 H   0  0  0  0  0  0  0  0  0  0  0  0
   26.4157    1.8184    0.0000 H   0  0  0  0  0  0  0  0  0  0  0  0
   28.9517    5.1233    0.0000 H   0  0  0  0  0  0  0  0  0  0  0  0
   26.9460    6.7747    0.0000 H   0  0  0  0  0  0  0  0  0  0  0  0
   24.5130    5.8634    0.0000 H   0  0  0  0  0  0  0  0  0  0  0  0
   23.6466    2.7144    0.0000 H   0  0  0  0  0  0  0  0  0  0  0  0
   23.5157   -0.5154    0.0000 H   0  0  0  0  0  0  0  0  0  0  0  0
   26.9642   -1.1954    0.0000 H   0  0  0  0  0  0  0  0  0  0  0  0
   26.6655    0.4109    0.0000 H   0  0  0  0  0  0  0  0  0  0  0  0
   24.1247   -3.1945    0.0000 H   0  0  0  0  0  0  0  0  0  0  0  0
   23.6920   -1.4633    0.0000 H   0  0  0  0  0  0  0  0  0  0  0  0
   27.3590   -3.9144    0.0000 H   0  0  0  0  0  0  0  0  0  0  0  0
   27.1405   -2.1434    0.0000 H   0  0  0  0  0  0  0  0  0  0  0  0
   24.0784   -4.8650    0.0000 H   0  0  0  0  0  0  0  0  0  0  0  0
   27.0030   -8.2851    0.0000 H   0  0  0  0  0  0  0  0  0  0  0  0
   28.9775   -6.5966    0.0000 H   0  0  0  0  0  0  0  0  0  0  0  0
   28.5026   -4.0424    0.0000 H   0  0  0  0  0  0  0  0  0  0  0  0
   27.1732    3.5419    0.0000 H   0  0  0  0  0  0  0  0  0  0  0  0
  1  2  1  0
  2  3  1  0
  3  4  2  0
  4  5  1  0
  5  6  2  0
  6  7  1  0
  7  8  2  0
  7  9  1  0
  9 10  1  0
 10 11  1  0
 11 12  2  0
  9 13  1  0
 13 14  1  0
 14 15  2  0
 15 16  1  0
 16 17  2  0
 17 18  1  0
 16 19  1  0
 14 20  1  0
 20 21  1  0
 21 22  2  0
 22 23  1  0
 23 24  2  0
 24 25  1  0
 25 26  2  0
 25 27  1  0
  1 28  2  0
  1 29  1  0
 29 30  1  0
 30 31  1  0
 31 32  1  0
 32 33  2  0
 32 34  1  0
 34 35  1  0
 35 36  1  0
 36 37  1  0
 37 38  1  0
 38 39  1  0
 39 40  1  0
 40 41  2  3
 40 42  1  0
 35 43  1  0
 43 44  2  0
 43 45  1  0
 45 46  1  0
 46 47  1  0
 47 48  1  0
 48 49  1  0
 49 50  1  0
 50 51  1  0
 51 52  2  3
 51 53  1  0
 46 54  1  0
 54 55  2  0
 54 56  1  0
 56 57  1  0
 57 58  1  0
 58 59  1  0
 59 60  1  0
 60 61  1  0
 61 62  1  0
 62 63  2  3
 62 64  1  0
 57 65  1  0
 65 66  2  0
 65 67  1  0
 67 68  1  0
 68 69  1  0
 69 70  1  0
 70 71  1  0
 71 72  1  0
 72 73  1  0
 73 74  2  3
 73 75  1  0
 68 76  1  0
 76 77  2  0
 76 78  1  0
 78 79  1  0
 79 80  1  0
 80 81  1  0
 81 82  1  0
 82 83  1  0
 83 84  1  0
 84 85  2  3
 84 86  1  0
 79 87  1  0
 87 88  2  0
 87 89  1  0
 89 90  1  0
 90 91  1  0
 91 92  1  0
 92 93  1  0
 93 94  1  0
 94 95  1  0
 95 96  2  3
 95 97  1  0
 90 98  1  0
 98 99  2  0
 98100  1  0
100101  1  0
101102  1  0
102103  1  0
103104  1  0
104105  1  0
105106  1  0
106107  2  3
106108  1  0
101109  1  0
109110  2  0
109111  1  0
111112  1  0
112113  1  0
113114  1  0
114115  1  0
115116  1  0
116117  1  0
117118  2  3
117119  1  0
112120  1  0
120121  2  0
120122  1  0
122123  1  0
123124  1  0
124125  1  0
125126  1  0
126127  1  0
127128  1  0
128129  2  3
128130  1  0
123131  1  0
131132  2  0
131133  1  0
133134  1  0
134135  1  0
135136  1  0
136137  1  0
137138  1  0
138139  1  0
139140  2  3
139141  1  0
134142  1  0
142143  2  0
142144  1  0
144145  1  0
145146  1  0
146147  1  0
147148  1  0
148149  1  0
149150  1  0
150151  2  3
150152  1  0
145153  1  0
153154  2  0
153155  1  0
155156  1  0
156157  1  0
157158  1  0
158159  1  0
159160  1  0
160161  1  0
161162  2  3
161163  1  0
156164  1  0
164165  2  0
164166  1  0
  8  3  1  0
 11  6  1  0
 18 13  2  0
 22  9  1  0
 26 21  1  0
  2167  1  0
  4168  1  0
  5169  1  0
  8170  1  0
 15171  1  0
 17172  1  0
 18173  1  0
 19174  1  0
 23175  1  0
 24176  1  0
 26177  1  0
 27178  1  0
 29179  1  0
 30180  1  0
 30181  1  0
 31182  1  0
 31183  1  0
 34184  1  0
 35185  1  1
 36186  1  0
 36187  1  0
 37188  1  0
 37189  1  0
 38190  1  0
 38191  1  0
 39192  1  0
 41193  1  0
 42194  1  0
 42195  1  0
 45196  1  0
 46197  1  6
 47198  1  0
 47199  1  0
 48200  1  0
 48201  1  0
 49202  1  0
 49203  1  0
 50204  1  0
 52205  1  0
 53206  1  0
 53207  1  0
 56208  1  0
 57209  1  1
 58210  1  0
 58211  1  0
 59212  1  0
 59213  1  0
 60214  1  0
 60215  1  0
 61216  1  0
 63217  1  0
 64218  1  0
 64219  1  0
 67220  1  0
 68221  1  6
 69222  1  0
 69223  1  0
 70224  1  0
 70225  1  0
 71226  1  0
 71227  1  0
 72228  1  0
 74229  1  0
 75230  1  0
 75231  1  0
 78232  1  0
 79233  1  1
 80234  1  0
 80235  1  0
 81236  1  0
 81237  1  0
 82238  1  0
 82239  1  0
 83240  1  0
 85241  1  0
 86242  1  0
 86243  1  0
 89244  1  0
 90245  1  6
 91246  1  0
 91247  1  0
 92248  1  0
 92249  1  0
 93250  1  0
 93251  1  0
 94252  1  0
 96253  1  0
 97254  1  0
 97255  1  0
100256  1  0
101257  1  1
102258  1  0
102259  1  0
103260  1  0
103261  1  0
104262  1  0
104263  1  0
105264  1  0
107265  1  0
108266  1  0
108267  1  0
111268  1  0
112269  1  6
113270  1  0
113271  1  0
114272  1  0
114273  1  0
115274  1  0
115275  1  0
116276  1  0
118277  1  0
119278  1  0
119279  1  0
122280  1  0
123281  1  1
124282  1  0
124283  1  0
125284  1  0
125285  1  0
126286  1  0
126287  1  0
127288  1  0
129289  1  0
130290  1  0
130291  1  0
133292  1  0
134293  1  6
135294  1  0
135295  1  0
136296  1  0
136297  1  0
137298  1  0
137299  1  0
138300  1  0
140301  1  0
141302  1  0
141303  1  0
144304  1  0
145305  1  1
146306  1  0
146307  1  0
147308  1  0
147309  1  0
148310  1  0
148311  1  0
149312  1  0
151313  1  0
152314  1  0
152315  1  0
155316  1  0
156317  1  6
157318  1  0
157319  1  0
158320  1  0
158321  1  0
159322  1  0
159323  1  0
160324  1  0
162325  1  0
163326  1  0
163327  1  0
166328  1  0
M  END
