
     RDKit          2D

364366  0  0  0  0  0  0  0  0999 V2000
  -26.0752   -6.8666    0.0000 N   0  0  0  0  0  0  0  0  0  0  0  0
  -25.1679   -5.6721    0.0000 C   0  0  0  0  0  0  0  0  0  0  0  0
  -25.7487   -4.2891    0.0000 C   0  0  0  0  0  0  0  0  0  0  0  0
  -24.8414   -3.0946    0.0000 C   0  0  0  0  0  0  0  0  0  0  0  0
  -23.3533   -3.2831    0.0000 O   0  0  0  0  0  0  0  0  0  0  0  0
  -25.4223   -1.7116    0.0000 N   0  0  0  0  0  0  0  0  0  0  0  0
  -24.5150   -0.5171    0.0000 C   0  0  0  0  0  0  0  0  0  0  0  0
  -25.8489    0.1690    0.0000 C   0  0  0  0  0  0  0  0  0  0  0  0
  -26.8677    1.2699    0.0000 O   0  0  0  0  0  0  0  0  0  0  0  0
  -27.1100   -0.6432    0.0000 C   0  0  0  0  0  0  0  0  0  0  0  0
  -23.2539    0.2951    0.0000 C   0  0  0  0  0  0  0  0  0  0  0  0
  -23.5087    1.7732    0.0000 O   0  0  0  0  0  0  0  0  0  0  0  0
  -21.9200   -0.3910    0.0000 N   0  0  0  0  0  0  0  0  0  0  0  0
  -20.6589    0.4211    0.0000 C   0  0  0  0  0  0  0  0  0  0  0  0
  -21.6777    1.5221    0.0000 C   0  0  0  0  0  0  0  0  0  0  0  0
  -21.2336    2.9548    0.0000 C   0  0  0  0  0  0  0  0  0  0  0  0
  -22.2524    4.0557    0.0000 C   0  0  0  0  0  0  0  0  0  0  0  0
  -21.8084    5.4885    0.0000 N   0  0  0  0  0  0  0  0  0  0  0  0
  -22.8272    6.5894    0.0000 C   0  0  0  0  0  0  0  0  0  0  0  0
  -22.3832    8.0222    0.0000 N   0  0  0  0  0  0  0  0  0  0  0  0
  -24.2900    6.2576    0.0000 N   0  0  0  0  0  0  0  0  0  0  0  0
  -19.1960    0.7530    0.0000 C   0  0  0  0  0  0  0  0  0  0  0  0
  -18.9300    2.2292    0.0000 O   0  0  0  0  0  0  0  0  0  0  0  0
  -18.1772   -0.3479    0.0000 N   0  0  0  0  0  0  0  0  0  0  0  0
  -16.7144   -0.0161    0.0000 C   0  0  0  0  0  0  0  0  0  0  0  0
  -17.2952    1.3669    0.0000 C   0  0  0  0  0  0  0  0  0  0  0  0
  -16.3879    2.5614    0.0000 C   0  0  0  0  0  0  0  0  0  0  0  0
  -16.9687    3.9444    0.0000 C   0  0  0  0  0  0  0  0  0  0  0  0
  -16.0615    5.1389    0.0000 N   0  0  0  0  0  0  0  0  0  0  0  0
  -18.4569    4.1328    0.0000 O   0  0  0  0  0  0  0  0  0  0  0  0
  -15.2263   -0.2046    0.0000 C   0  0  0  0  0  0  0  0  0  0  0  0
  -14.4714    1.0916    0.0000 O   0  0  0  0  0  0  0  0  0  0  0  0
  -14.6454   -1.5876    0.0000 N   0  0  0  0  0  0  0  0  0  0  0  0
  -13.1573   -1.7760    0.0000 C   0  0  0  0  0  0  0  0  0  0  0  0
  -13.2301   -0.2778    0.0000 C   0  0  0  0  0  0  0  0  0  0  0  0
  -11.8234   -2.4621    0.0000 C   0  0  0  0  0  0  0  0  0  0  0  0
  -10.5623   -1.6500    0.0000 O   0  0  0  0  0  0  0  0  0  0  0  0
  -11.7506   -3.9604    0.0000 N   0  0  0  0  0  0  0  0  0  0  0  0
  -10.4167   -4.6464    0.0000 C   0  0  0  0  0  0  0  0  0  0  0  0
  -11.3240   -5.8409    0.0000 C   0  0  0  0  0  0  0  0  0  0  0  0
  -12.8121   -5.6525    0.0000 C   0  0  0  0  0  0  0  0  0  0  0  0
  -13.7194   -6.8470    0.0000 C   0  0  0  0  0  0  0  0  0  0  0  0
  -15.2075   -6.6585    0.0000 N   0  0  0  0  0  0  0  0  0  0  0  0
  -16.1148   -7.8530    0.0000 C   0  0  0  0  0  0  0  0  0  0  0  0
  -17.6029   -7.6645    0.0000 N   0  0  0  0  0  0  0  0  0  0  0  0
  -15.5340   -9.2360    0.0000 N   0  0  0  0  0  0  0  0  0  0  0  0
   -8.9286   -4.8349    0.0000 C   0  0  0  0  0  0  0  0  0  0  0  0
   -8.5207   -6.2784    0.0000 O   0  0  0  0  0  0  0  0  0  0  0  0
   -8.0213   -3.6404    0.0000 N   0  0  0  0  0  0  0  0  0  0  0  0
   -6.5332   -3.8289    0.0000 C   0  0  0  0  0  0  0  0  0  0  0  0
   -6.9773   -5.2617    0.0000 C   0  0  0  0  0  0  0  0  0  0  0  0
   -5.9585   -6.3626    0.0000 C   0  0  0  0  0  0  0  0  0  0  0  0
   -6.4025   -7.7954    0.0000 C   0  0  0  0  0  0  0  0  0  0  0  0
   -5.3837   -8.8963    0.0000 N   0  0  0  0  0  0  0  0  0  0  0  0
   -5.8277  -10.3291    0.0000 C   0  0  0  0  0  0  0  0  0  0  0  0
   -4.8089  -11.4300    0.0000 N   0  0  0  0  0  0  0  0  0  0  0  0
   -7.2905  -10.6609    0.0000 N   0  0  0  0  0  0  0  0  0  0  0  0
   -5.0704   -3.4971    0.0000 C   0  0  0  0  0  0  0  0  0  0  0  0
   -4.0516   -4.5980    0.0000 O   0  0  0  0  0  0  0  0  0  0  0  0
   -4.6264   -2.0643    0.0000 N   0  0  0  0  0  0  0  0  0  0  0  0
   -3.1635   -1.7324    0.0000 C   0  0  0  0  0  0  0  0  0  0  0  0
   -3.7444   -0.3494    0.0000 C   0  0  0  0  0  0  0  0  0  0  0  0
   -5.2325   -0.1610    0.0000 C   0  0  0  0  0  0  0  0  0  0  0  0
   -6.1307    1.0404    0.0000 N   0  0  0  0  0  0  0  0  0  0  0  0
   -6.1398   -1.3555    0.0000 O   0  0  0  0  0  0  0  0  0  0  0  0
   -1.6754   -1.9209    0.0000 C   0  0  0  0  0  0  0  0  0  0  0  0
   -0.9205   -0.6247    0.0000 O   0  0  0  0  0  0  0  0  0  0  0  0
   -1.0946   -3.3039    0.0000 N   0  0  0  0  0  0  0  0  0  0  0  0
    0.3935   -3.4924    0.0000 C   0  0  0  0  0  0  0  0  0  0  0  0
    1.1447   -4.7907    0.0000 C   0  0  0  0  0  0  0  0  0  0  0  0
    2.1281   -5.9234    0.0000 C   0  0  0  0  0  0  0  0  0  0  0  0
    3.3080   -6.8495    0.0000 C   0  0  0  0  0  0  0  0  0  0  0  0
    4.6420   -7.5356    0.0000 C   0  0  0  0  0  0  0  0  0  0  0  0
   -0.5823   -4.6316    0.0000 C   0  0  0  0  0  0  0  0  0  0  0  0
   -0.0984   -2.0753    0.0000 C   0  0  0  0  0  0  0  0  0  0  0  0
   -0.8956   -2.0710    0.0000 O   0  0  0  0  0  0  0  0  0  0  0  0
   -0.3133   -0.5908    0.0000 N   0  0  0  0  0  0  0  0  0  0  0  0
   -0.2434    0.9076    0.0000 C   0  0  0  0  0  0  0  0  0  0  0  0
   -1.6170    0.3049    0.0000 C   0  0  0  0  0  0  0  0  0  0  0  0
   -2.8257    1.1931    0.0000 C   0  0  0  0  0  0  0  0  0  0  0  0
   -4.1993    0.5904    0.0000 C   0  0  0  0  0  0  0  0  0  0  0  0
   -5.4080    1.4786    0.0000 N   0  0  0  0  0  0  0  0  0  0  0  0
   -6.7816    0.8759    0.0000 C   0  0  0  0  0  0  0  0  0  0  0  0
   -8.0896    1.6102    0.0000 N   0  0  0  0  0  0  0  0  0  0  0  0
   -6.9465   -0.6150    0.0000 N   0  0  0  0  0  0  0  0  0  0  0  0
    0.1089    2.3656    0.0000 C   0  0  0  0  0  0  0  0  0  0  0  0
   -1.2388    3.0241    0.0000 O   0  0  0  0  0  0  0  0  0  0  0  0
    0.7307    3.7306    0.0000 N   0  0  0  0  0  0  0  0  0  0  0  0
    1.5997    4.9533    0.0000 C   0  0  0  0  0  0  0  0  0  0  0  0
    0.1183    5.1889    0.0000 C   0  0  0  0  0  0  0  0  0  0  0  0
   -0.4184    6.5896    0.0000 C   0  0  0  0  0  0  0  0  0  0  0  0
   -1.8998    6.8253    0.0000 C   0  0  0  0  0  0  0  0  0  0  0  0
   -2.4364    8.2260    0.0000 N   0  0  0  0  0  0  0  0  0  0  0  0
   -3.9178    8.4616    0.0000 C   0  0  0  0  0  0  0  0  0  0  0  0
   -4.4544    9.8623    0.0000 N   0  0  0  0  0  0  0  0  0  0  0  0
   -4.8625    7.2965    0.0000 N   0  0  0  0  0  0  0  0  0  0  0  0
    2.6843    5.9895    0.0000 C   0  0  0  0  0  0  0  0  0  0  0  0
    1.9065    7.2721    0.0000 O   0  0  0  0  0  0  0  0  0  0  0  0
    3.9454    6.8016    0.0000 N   0  0  0  0  0  0  0  0  0  0  0  0
    5.3374    7.3604    0.0000 C   0  0  0  0  0  0  0  0  0  0  0  0
    4.2186    8.3595    0.0000 C   0  0  0  0  0  0  0  0  0  0  0  0
    4.5244    9.8280    0.0000 C   0  0  0  0  0  0  0  0  0  0  0  0
    3.4056   10.8271    0.0000 C   0  0  0  0  0  0  0  0  0  0  0  0
    3.7114   12.2956    0.0000 N   0  0  0  0  0  0  0  0  0  0  0  0
    2.5925   13.2947    0.0000 C   0  0  0  0  0  0  0  0  0  0  0  0
    2.8984   14.7632    0.0000 N   0  0  0  0  0  0  0  0  0  0  0  0
    1.1679   12.8253    0.0000 N   0  0  0  0  0  0  0  0  0  0  0  0
    6.8100    7.6457    0.0000 C   0  0  0  0  0  0  0  0  0  0  0  0
    6.8491    9.1452    0.0000 O   0  0  0  0  0  0  0  0  0  0  0  0
    8.3100    7.6471    0.0000 N   0  0  0  0  0  0  0  0  0  0  0  0
    9.7832    7.3646    0.0000 C   0  0  0  0  0  0  0  0  0  0  0  0
    9.3821    8.8100    0.0000 C   0  0  0  0  0  0  0  0  0  0  0  0
   10.4333    9.8801    0.0000 C   0  0  0  0  0  0  0  0  0  0  0  0
   11.9169    9.6586    0.0000 C   0  0  0  0  0  0  0  0  0  0  0  0
   12.5860   11.0011    0.0000 N   0  0  0  0  0  0  0  0  0  0  0  0
   11.5159   12.0523    0.0000 C   0  0  0  0  0  0  0  0  0  0  0  0
   11.5811   13.5509    0.0000 C   0  0  0  0  0  0  0  0  0  0  0  0
   10.3159   14.3566    0.0000 C   0  0  0  0  0  0  0  0  0  0  0  0
    8.9855   13.6638    0.0000 C   0  0  0  0  0  0  0  0  0  0  0  0
    8.9203   12.1652    0.0000 C   0  0  0  0  0  0  0  0  0  0  0  0
   10.1855   11.3595    0.0000 C   0  0  0  0  0  0  0  0  0  0  0  0
   11.1763    6.8085    0.0000 C   0  0  0  0  0  0  0  0  0  0  0  0
   12.0198    8.0488    0.0000 O   0  0  0  0  0  0  0  0  0  0  0  0
   12.4389    5.9987    0.0000 N   0  0  0  0  0  0  0  0  0  0  0  0
   13.5255    4.9646    0.0000 C   0  0  0  0  0  0  0  0  0  0  0  0
   13.9695    6.3974    0.0000 C   0  0  0  0  0  0  0  0  0  0  0  0
   15.4324    6.7292    0.0000 C   0  0  0  0  0  0  0  0  0  0  0  0
   15.8764    8.1620    0.0000 C   0  0  0  0  0  0  0  0  0  0  0  0
   17.3392    8.4939    0.0000 N   0  0  0  0  0  0  0  0  0  0  0  0
   17.7833    9.9266    0.0000 C   0  0  0  0  0  0  0  0  0  0  0  0
   19.2461   10.2585    0.0000 N   0  0  0  0  0  0  0  0  0  0  0  0
   16.7644   11.0276    0.0000 N   0  0  0  0  0  0  0  0  0  0  0  0
   14.3968    3.7436    0.0000 C   0  0  0  0  0  0  0  0  0  0  0  0
   15.7770    4.3309    0.0000 O   0  0  0  0  0  0  0  0  0  0  0  0
   15.0212    2.3797    0.0000 N   0  0  0  0  0  0  0  0  0  0  0  0
   15.3762    0.9223    0.0000 C   0  0  0  0  0  0  0  0  0  0  0  0
   16.5243    1.8876    0.0000 C   0  0  0  0  0  0  0  0  0  0  0  0
   17.9344    1.3759    0.0000 C   0  0  0  0  0  0  0  0  0  0  0  0
   19.0825    2.3412    0.0000 C   0  0  0  0  0  0  0  0  0  0  0  0
   20.4925    1.8295    0.0000 O   0  0  0  0  0  0  0  0  0  0  0  0
   18.8206    3.8181    0.0000 O   0  0  0  0  0  0  0  0  0  0  0  0
   15.4490   -0.5759    0.0000 C   0  0  0  0  0  0  0  0  0  0  0  0
   16.9276   -0.8280    0.0000 O   0  0  0  0  0  0  0  0  0  0  0  0
   15.2369   -2.0608    0.0000 N   0  0  0  0  0  0  0  0  0  0  0  0
   14.7476   -3.4788    0.0000 C   0  0  0  0  0  0  0  0  0  0  0  0
   13.9989   -4.7785    0.0000 C   0  0  0  0  0  0  0  0  0  0  0  0
   13.0176   -5.9131    0.0000 C   0  0  0  0  0  0  0  0  0  0  0  0
   11.8394   -6.8415    0.0000 C   0  0  0  0  0  0  0  0  0  0  0  0
   10.5068   -7.5301    0.0000 C   0  0  0  0  0  0  0  0  0  0  0  0
    9.0680   -7.9540    0.0000 C   0  0  0  0  0  0  0  0  0  0  0  0
    7.5749   -8.0980    0.0000 C   0  0  0  0  0  0  0  0  0  0  0  0
    6.0816   -7.9568    0.0000 C   0  0  0  0  0  0  0  0  0  0  0  0
   15.7256   -4.6161    0.0000 C   0  0  0  0  0  0  0  0  0  0  0  0
   16.2354   -3.2875    0.0000 C   0  0  0  0  0  0  0  0  0  0  0  0
   16.9780   -1.9842    0.0000 O   0  0  0  0  0  0  0  0  0  0  0  0
   17.1449   -4.4803    0.0000 N   0  0  0  0  0  0  0  0  0  0  0  0
   18.6327   -4.2890    0.0000 C   0  0  0  0  0  0  0  0  0  0  0  0
   19.9653   -3.6004    0.0000 C   0  0  0  0  0  0  0  0  0  0  0  0
   21.2279   -4.4102    0.0000 C   0  0  0  0  0  0  0  0  0  0  0  0
   22.5605   -3.7216    0.0000 C   0  0  0  0  0  0  0  0  0  0  0  0
   23.9125   -4.3714    0.0000 N   0  0  0  0  0  0  0  0  0  0  0  0
   22.6305   -2.2232    0.0000 O   0  0  0  0  0  0  0  0  0  0  0  0
   19.5422   -5.4818    0.0000 C   0  0  0  0  0  0  0  0  0  0  0  0
   18.9640   -6.8659    0.0000 O   0  0  0  0  0  0  0  0  0  0  0  0
   21.0300   -5.2905    0.0000 N   0  0  0  0  0  0  0  0  0  0  0  0
   21.9395   -6.4833    0.0000 C   0  0  0  0  0  0  0  0  0  0  0  0
   22.3863   -7.9152    0.0000 C   0  0  0  0  0  0  0  0  0  0  0  0
   21.3695   -9.0180    0.0000 C   0  0  0  0  0  0  0  0  0  0  0  0
   21.8163  -10.4500    0.0000 C   0  0  0  0  0  0  0  0  0  0  0  0
   20.7995  -11.5528    0.0000 N   0  0  0  0  0  0  0  0  0  0  0  0
   21.2463  -12.9848    0.0000 C   0  0  0  0  0  0  0  0  0  0  0  0
   20.2296  -14.0876    0.0000 N   0  0  0  0  0  0  0  0  0  0  0  0
   22.7097  -13.3138    0.0000 N   0  0  0  0  0  0  0  0  0  0  0  0
   23.4273   -6.2920    0.0000 C   0  0  0  0  0  0  0  0  0  0  0  0
   24.4754   -7.3650    0.0000 O   0  0  0  0  0  0  0  0  0  0  0  0
   24.1699   -4.9887    0.0000 O   0  0  0  0  0  0  0  0  0  0  0  0
  -25.4944   -8.2496    0.0000 H   0  0  0  0  0  0  0  0  0  0  0  0
  -27.5633   -6.6781    0.0000 H   0  0  0  0  0  0  0  0  0  0  0  0
  -24.1491   -6.7730    0.0000 H   0  0  0  0  0  0  0  0  0  0  0  0
  -23.9068   -4.8599    0.0000 H   0  0  0  0  0  0  0  0  0  0  0  0
  -27.0098   -5.1012    0.0000 H   0  0  0  0  0  0  0  0  0  0  0  0
  -26.7675   -3.1882    0.0000 H   0  0  0  0  0  0  0  0  0  0  0  0
  -26.9223   -1.7059    0.0000 H   0  0  0  0  0  0  0  0  0  0  0  0
  -23.4962   -1.6180    0.0000 H   0  0  0  0  0  0  0  0  0  0  0  0
  -24.9416    1.3635    0.0000 H   0  0  0  0  0  0  0  0  0  0  0  0
  -28.3601    1.1188    0.0000 H   0  0  0  0  0  0  0  0  0  0  0  0
  -28.5176   -0.1248    0.0000 H   0  0  0  0  0  0  0  0  0  0  0  0
  -28.0173   -1.8377    0.0000 H   0  0  0  0  0  0  0  0  0  0  0  0
  -26.5535   -2.0361    0.0000 H   0  0  0  0  0  0  0  0  0  0  0  0
  -21.8472   -1.8893    0.0000 H   0  0  0  0  0  0  0  0  0  0  0  0
  -20.0780   -0.9619    0.0000 H   0  0  0  0  0  0  0  0  0  0  0  0
  -23.0116    2.2081    0.0000 H   0  0  0  0  0  0  0  0  0  0  0  0
  -22.8470    0.5826    0.0000 H   0  0  0  0  0  0  0  0  0  0  0  0
  -20.3263    4.1493    0.0000 H   0  0  0  0  0  0  0  0  0  0  0  0
  -19.8997    2.2687    0.0000 H   0  0  0  0  0  0  0  0  0  0  0  0
  -23.5863    4.7418    0.0000 H   0  0  0  0  0  0  0  0  0  0  0  0
  -23.2986    2.9808    0.0000 H   0  0  0  0  0  0  0  0  0  0  0  0
  -20.3456    5.8204    0.0000 H   0  0  0  0  0  0  0  0  0  0  0  0
  -23.4020    9.1231    0.0000 H   0  0  0  0  0  0  0  0  0  0  0  0
  -20.9204    8.3541    0.0000 H   0  0  0  0  0  0  0  0  0  0  0  0
  -25.3089    7.3585    0.0000 H   0  0  0  0  0  0  0  0  0  0  0  0
  -24.7341    4.8248    0.0000 H   0  0  0  0  0  0  0  0  0  0  0  0
  -18.6212   -1.7807    0.0000 H   0  0  0  0  0  0  0  0  0  0  0  0
  -16.6416   -1.5143    0.0000 H   0  0  0  0  0  0  0  0  0  0  0  0
  -18.1722    2.5838    0.0000 H   0  0  0  0  0  0  0  0  0  0  0  0
  -18.7154    0.8840    0.0000 H   0  0  0  0  0  0  0  0  0  0  0  0
  -15.1268    3.3735    0.0000 H   0  0  0  0  0  0  0  0  0  0  0  0
  -15.3691    1.4605    0.0000 H   0  0  0  0  0  0  0  0  0  0  0  0
  -16.6423    6.5219    0.0000 H   0  0  0  0  0  0  0  0  0  0  0  0
  -14.5734    4.9504    0.0000 H   0  0  0  0  0  0  0  0  0  0  0  0
  -15.5527   -2.7821    0.0000 H   0  0  0  0  0  0  0  0  0  0  0  0
  -13.6014   -3.2088    0.0000 H   0  0  0  0  0  0  0  0  0  0  0  0
  -14.4705    0.5657    0.0000 H   0  0  0  0  0  0  0  0  0  0  0  0
  -12.7861    1.1550    0.0000 H   0  0  0  0  0  0  0  0  0  0  0  0
  -11.7420   -0.4663    0.0000 H   0  0  0  0  0  0  0  0  0  0  0  0
  -13.1014   -4.6127    0.0000 H   0  0  0  0  0  0  0  0  0  0  0  0
   -9.9727   -3.2137    0.0000 H   0  0  0  0  0  0  0  0  0  0  0  0
  -11.5901   -7.3172    0.0000 H   0  0  0  0  0  0  0  0  0  0  0  0
   -9.9901   -6.5270    0.0000 H   0  0  0  0  0  0  0  0  0  0  0  0
  -14.1460   -4.9664    0.0000 H   0  0  0  0  0  0  0  0  0  0  0  0
  -12.9112   -4.1557    0.0000 H   0  0  0  0  0  0  0  0  0  0  0  0
  -14.1634   -8.2797    0.0000 H   0  0  0  0  0  0  0  0  0  0  0  0
  -12.4791   -7.6905    0.0000 H   0  0  0  0  0  0  0  0  0  0  0  0
  -15.7884   -5.2755    0.0000 H   0  0  0  0  0  0  0  0  0  0  0  0
  -18.5102   -8.8590    0.0000 H   0  0  0  0  0  0  0  0  0  0  0  0
  -18.1838   -6.2815    0.0000 H   0  0  0  0  0  0  0  0  0  0  0  0
  -16.4413  -10.4305    0.0000 H   0  0  0  0  0  0  0  0  0  0  0  0
  -14.0459   -9.4244    0.0000 H   0  0  0  0  0  0  0  0  0  0  0  0
   -8.6022   -2.2574    0.0000 H   0  0  0  0  0  0  0  0  0  0  0  0
   -6.6060   -2.3307    0.0000 H   0  0  0  0  0  0  0  0  0  0  0  0
   -7.8845   -6.4562    0.0000 H   0  0  0  0  0  0  0  0  0  0  0  0
   -8.4375   -4.9188    0.0000 H   0  0  0  0  0  0  0  0  0  0  0  0
   -4.6246   -7.0487    0.0000 H   0  0  0  0  0  0  0  0  0  0  0  0
   -5.0512   -5.1681    0.0000 H   0  0  0  0  0  0  0  0  0  0  0  0
   -7.3098   -8.9899    0.0000 H   0  0  0  0  0  0  0  0  0  0  0  0
   -7.8101   -7.2770    0.0000 H   0  0  0  0  0  0  0  0  0  0  0  0
   -3.9208   -8.5644    0.0000 H   0  0  0  0  0  0  0  0  0  0  0  0
   -5.2529  -12.8628    0.0000 H   0  0  0  0  0  0  0  0  0  0  0  0
   -3.3461  -11.0981    0.0000 H   0  0  0  0  0  0  0  0  0  0  0  0
   -7.7346  -12.0937    0.0000 H   0  0  0  0  0  0  0  0  0  0  0  0
   -8.3093   -9.5600    0.0000 H   0  0  0  0  0  0  0  0  0  0  0  0
   -5.9721   -1.4017    0.0000 H   0  0  0  0  0  0  0  0  0  0  0  0
   -3.0908   -3.2307    0.0000 H   0  0  0  0  0  0  0  0  0  0  0  0
   -4.1775    1.0867    0.0000 H   0  0  0  0  0  0  0  0  0  0  0  0
   -2.2970   -0.7434    0.0000 H   0  0  0  0  0  0  0  0  0  0  0  0
   -7.3378    1.2650    0.0000 H   0  0  0  0  0  0  0  0  0  0  0  0
   -5.0829    2.5555    0.0000 H   0  0  0  0  0  0  0  0  0  0  0  0
   -2.1407   -4.3789    0.0000 H   0  0  0  0  0  0  0  0  0  0  0  0
    0.4021   -6.0940    0.0000 H   0  0  0  0  0  0  0  0  0  0  0  0
   -0.3292   -5.0690    0.0000 H   0  0  0  0  0  0  0  0  0  0  0  0
    1.6455   -7.3437    0.0000 H   0  0  0  0  0  0  0  0  0  0  0  0
    0.7334   -6.4756    0.0000 H   0  0  0  0  0  0  0  0  0  0  0  0
    3.2857   -8.3494    0.0000 H   0  0  0  0  0  0  0  0  0  0  0  0
    2.0431   -7.6557    0.0000 H   0  0  0  0  0  0  0  0  0  0  0  0
    4.0858   -8.9287    0.0000 H   0  0  0  0  0  0  0  0  0  0  0  0
   -1.9212   -4.8128    0.0000 H   0  0  0  0  0  0  0  0  0  0  0  0
   -0.7885   -6.2001    0.0000 H   0  0  0  0  0  0  0  0  0  0  0  0
    0.7214   -5.6890    0.0000 H   0  0  0  0  0  0  0  0  0  0  0  0
   -1.7494   -1.0240    0.0000 H   0  0  0  0  0  0  0  0  0  0  0  0
   -1.2674    2.0037    0.0000 H   0  0  0  0  0  0  0  0  0  0  0  0
   -2.5672   -0.8558    0.0000 H   0  0  0  0  0  0  0  0  0  0  0  0
   -0.9432   -1.0353    0.0000 H   0  0  0  0  0  0  0  0  0  0  0  0
   -3.6578    2.4412    0.0000 H   0  0  0  0  0  0  0  0  0  0  0  0
   -2.0240    2.4609    0.0000 H   0  0  0  0  0  0  0  0  0  0  0  0
   -5.5832    0.0119    0.0000 H   0  0  0  0  0  0  0  0  0  0  0  0
   -3.2213   -0.5469    0.0000 H   0  0  0  0  0  0  0  0  0  0  0  0
   -5.0627    2.9383    0.0000 H   0  0  0  0  0  0  0  0  0  0  0  0
   -9.3640    1.1614    0.0000 H   0  0  0  0  0  0  0  0  0  0  0  0
   -7.8255    3.2550    0.0000 H   0  0  0  0  0  0  0  0  0  0  0  0
   -8.3201   -1.2177    0.0000 H   0  0  0  0  0  0  0  0  0  0  0  0
   -5.9886   -1.7693    0.0000 H   0  0  0  0  0  0  0  0  0  0  0  0
   -0.6506    4.3154    0.0000 H   0  0  0  0  0  0  0  0  0  0  0  0
    1.3308    6.4290    0.0000 H   0  0  0  0  0  0  0  0  0  0  0  0
   -1.3543    4.9037    0.0000 H   0  0  0  0  0  0  0  0  0  0  0  0
   -0.2202    3.7276    0.0000 H   0  0  0  0  0  0  0  0  0  0  0  0
   -0.4436    8.0894    0.0000 H   0  0  0  0  0  0  0  0  0  0  0  0
    0.9415    7.2228    0.0000 H   0  0  0  0  0  0  0  0  0  0  0  0
   -3.3724    6.5400    0.0000 H   0  0  0  0  0  0  0  0  0  0  0  0
   -2.0575    5.3336    0.0000 H   0  0  0  0  0  0  0  0  0  0  0  0
   -1.4917    9.3911    0.0000 H   0  0  0  0  0  0  0  0  0  0  0  0
   -5.9358   10.0979    0.0000 H   0  0  0  0  0  0  0  0  0  0  0  0
   -3.5097   11.0274    0.0000 H   0  0  0  0  0  0  0  0  0  0  0  0
   -6.3439    7.5321    0.0000 H   0  0  0  0  0  0  0  0  0  0  0  0
   -4.3259    5.8957    0.0000 H   0  0  0  0  0  0  0  0  0  0  0  0
    3.0995    8.0404    0.0000 H   0  0  0  0  0  0  0  0  0  0  0  0
    5.9091    8.7472    0.0000 H   0  0  0  0  0  0  0  0  0  0  0  0
    2.8255    8.9157    0.0000 H   0  0  0  0  0  0  0  0  0  0  0  0
    3.1438    7.3132    0.0000 H   0  0  0  0  0  0  0  0  0  0  0  0
    5.3140   11.1034    0.0000 H   0  0  0  0  0  0  0  0  0  0  0  0
    6.0107    9.6255    0.0000 H   0  0  0  0  0  0  0  0  0  0  0  0
    2.0125   11.3833    0.0000 H   0  0  0  0  0  0  0  0  0  0  0  0
    2.4664    9.6576    0.0000 H   0  0  0  0  0  0  0  0  0  0  0  0
    5.1360   12.7650    0.0000 H   0  0  0  0  0  0  0  0  0  0  0  0
    1.7795   15.7623    0.0000 H   0  0  0  0  0  0  0  0  0  0  0  0
    4.3230   15.2326    0.0000 H   0  0  0  0  0  0  0  0  0  0  0  0
    0.0490   13.8244    0.0000 H   0  0  0  0  0  0  0  0  0  0  0  0
    0.8621   11.3568    0.0000 H   0  0  0  0  0  0  0  0  0  0  0  0
    8.2681    9.1465    0.0000 H   0  0  0  0  0  0  0  0  0  0  0  0
   10.9002    8.3659    0.0000 H   0  0  0  0  0  0  0  0  0  0  0  0
    8.6662   10.1282    0.0000 H   0  0  0  0  0  0  0  0  0  0  0  0
    7.9123    8.5108    0.0000 H   0  0  0  0  0  0  0  0  0  0  0  0
   12.7667    8.4225    0.0000 H   0  0  0  0  0  0  0  0  0  0  0  0
   14.0654   11.2489    0.0000 H   0  0  0  0  0  0  0  0  0  0  0  0
   12.9116   14.2437    0.0000 H   0  0  0  0  0  0  0  0  0  0  0  0
   10.3811   15.8552    0.0000 H   0  0  0  0  0  0  0  0  0  0  0  0
    7.7203   14.4696    0.0000 H   0  0  0  0  0  0  0  0  0  0  0  0
    7.5899   11.4724    0.0000 H   0  0  0  0  0  0  0  0  0  0  0  0
   13.2143    7.2827    0.0000 H   0  0  0  0  0  0  0  0  0  0  0  0
   15.0245    5.0207    0.0000 H   0  0  0  0  0  0  0  0  0  0  0  0
   13.8967    7.8956    0.0000 H   0  0  0  0  0  0  0  0  0  0  0  0
   12.5713    6.9403    0.0000 H   0  0  0  0  0  0  0  0  0  0  0  0
   16.9205    6.5408    0.0000 H   0  0  0  0  0  0  0  0  0  0  0  0
   15.8655    5.2931    0.0000 H   0  0  0  0  0  0  0  0  0  0  0  0
   15.8036    9.6602    0.0000 H   0  0  0  0  0  0  0  0  0  0  0  0
   14.4224    8.5305    0.0000 H   0  0  0  0  0  0  0  0  0  0  0  0
   18.3580    7.3929    0.0000 H   0  0  0  0  0  0  0  0  0  0  0  0
   19.6901   11.6913    0.0000 H   0  0  0  0  0  0  0  0  0  0  0  0
   20.2649    9.1576    0.0000 H   0  0  0  0  0  0  0  0  0  0  0  0
   17.2085   12.4603    0.0000 H   0  0  0  0  0  0  0  0  0  0  0  0
   15.3016   10.6957    0.0000 H   0  0  0  0  0  0  0  0  0  0  0  0
   16.3677    3.0407    0.0000 H   0  0  0  0  0  0  0  0  0  0  0  0
   16.6675    0.1591    0.0000 H   0  0  0  0  0  0  0  0  0  0  0  0
   17.4260    3.0864    0.0000 H   0  0  0  0  0  0  0  0  0  0  0  0
   15.6416    3.1003    0.0000 H   0  0  0  0  0  0  0  0  0  0  0  0
   19.0843    0.4128    0.0000 H   0  0  0  0  0  0  0  0  0  0  0  0
   17.5223   -0.0664    0.0000 H   0  0  0  0  0  0  0  0  0  0  0  0
   16.7270   -2.2327    0.0000 H   0  0  0  0  0  0  0  0  0  0  0  0
   15.4733   -5.0541    0.0000 H   0  0  0  0  0  0  0  0  0  0  0  0
   14.5797   -6.1615    0.0000 H   0  0  0  0  0  0  0  0  0  0  0  0
   14.3359   -6.6287    0.0000 H   0  0  0  0  0  0  0  0  0  0  0  0
   13.5029   -7.3325    0.0000 H   0  0  0  0  0  0  0  0  0  0  0  0
   13.1059   -7.6452    0.0000 H   0  0  0  0  0  0  0  0  0  0  0  0
   12.0473   -8.3270    0.0000 H   0  0  0  0  0  0  0  0  0  0  0  0
   11.5983   -8.5590    0.0000 H   0  0  0  0  0  0  0  0  0  0  0  0
   10.4298   -9.0281    0.0000 H   0  0  0  0  0  0  0  0  0  0  0  0
    9.9450   -9.1709    0.0000 H   0  0  0  0  0  0  0  0  0  0  0  0
    8.7088   -9.4104    0.0000 H   0  0  0  0  0  0  0  0  0  0  0  0
    8.2058   -9.4589    0.0000 H   0  0  0  0  0  0  0  0  0  0  0  0
    6.7853   -9.3733    0.0000 H   0  0  0  0  0  0  0  0  0  0  0  0
    5.7991   -9.4300    0.0000 H   0  0  0  0  0  0  0  0  0  0  0  0
   15.2911   -6.2244    0.0000 H   0  0  0  0  0  0  0  0  0  0  0  0
   16.6588   -5.7372    0.0000 H   0  0  0  0  0  0  0  0  0  0  0  0
   16.8604   -3.9454    0.0000 H   0  0  0  0  0  0  0  0  0  0  0  0
   16.7398   -5.9245    0.0000 H   0  0  0  0  0  0  0  0  0  0  0  0
   18.1860   -2.8571    0.0000 H   0  0  0  0  0  0  0  0  0  0  0  0
   20.9820   -2.4975    0.0000 H   0  0  0  0  0  0  0  0  0  0  0  0
   19.0557   -2.4076    0.0000 H   0  0  0  0  0  0  0  0  0  0  0  0
   22.1375   -5.6029    0.0000 H   0  0  0  0  0  0  0  0  0  0  0  0
   20.8481   -5.8613    0.0000 H   0  0  0  0  0  0  0  0  0  0  0  0
   25.1558   -3.8427    0.0000 H   0  0  0  0  0  0  0  0  0  0  0  0
   24.1592   -6.0190    0.0000 H   0  0  0  0  0  0  0  0  0  0  0  0
   21.9259   -4.0874    0.0000 H   0  0  0  0  0  0  0  0  0  0  0  0
   20.5329   -7.0043    0.0000 H   0  0  0  0  0  0  0  0  0  0  0  0
   23.4344   -8.9882    0.0000 H   0  0  0  0  0  0  0  0  0  0  0  0
   23.7929   -7.3942    0.0000 H   0  0  0  0  0  0  0  0  0  0  0  0
   20.0369   -9.7066    0.0000 H   0  0  0  0  0  0  0  0  0  0  0  0
   20.3214   -7.9450    0.0000 H   0  0  0  0  0  0  0  0  0  0  0  0
   22.7258  -11.6428    0.0000 H   0  0  0  0  0  0  0  0  0  0  0  0
   23.2229   -9.9290    0.0000 H   0  0  0  0  0  0  0  0  0  0  0  0
   19.3361  -11.2237    0.0000 H   0  0  0  0  0  0  0  0  0  0  0  0
   20.6763  -15.5195    0.0000 H   0  0  0  0  0  0  0  0  0  0  0  0
   18.7661  -13.7585    0.0000 H   0  0  0  0  0  0  0  0  0  0  0  0
   23.1565  -14.7458    0.0000 H   0  0  0  0  0  0  0  0  0  0  0  0
   23.7265  -12.2110    0.0000 H   0  0  0  0  0  0  0  0  0  0  0  0
  1  2  1  0
  2  3  1  0
  3  4  1  0
  4  5  2  0
  4  6  1  0
  6  7  1  0
  7  8  1  0
  8  9  1  0
  8 10  1  0
  7 11  1  0
 11 12  2  0
 11 13  1  0
 13 14  1  0
 14 15  1  0
 15 16  1  0
 16 17  1  0
 17 18  1  0
 18 19  1  0
 19 20  2  3
 19 21  1  0
 14 22  1  0
 22 23  2  0
 22 24  1  0
 24 25  1  0
 25 26  1  0
 26 27  1  0
 27 28  1  0
 28 29  1  0
 28 30  2  0
 25 31  1  0
 31 32  2  0
 31 33  1  0
 33 34  1  0
 34 35  1  0
 34 36  1  0
 36 37  2  0
 36 38  1  0
 38 39  1  0
 39 40  1  0
 40 41  1  0
 41 42  1  0
 42 43  1  0
 43 44  1  0
 44 45  2  3
 44 46  1  0
 39 47  1  0
 47 48  2  0
 47 49  1  0
 49 50  1  0
 50 51  1  0
 51 52  1  0
 52 53  1  0
 53 54  1  0
 54 55  1  0
 55 56  2  3
 55 57  1  0
 50 58  1  0
 58 59  2  0
 58 60  1  0
 60 61  1  0
 61 62  1  0
 62 63  1  0
 63 64  1  0
 63 65  2  0
 61 66  1  0
 66 67  2  0
 66 68  1  0
 69 68  1  1
 69 70  1  0
 70 71  1  0
 71 72  1  0
 72 73  1  0
 69 74  1  0
 69 75  1  0
 75 76  2  0
 75 77  1  0
 77 78  1  0
 78 79  1  0
 79 80  1  0
 80 81  1  0
 81 82  1  0
 82 83  1  0
 83 84  2  3
 83 85  1  0
 78 86  1  0
 86 87  2  0
 86 88  1  0
 88 89  1  0
 89 90  1  0
 90 91  1  0
 91 92  1  0
 92 93  1  0
 93 94  1  0
 94 95  2  3
 94 96  1  0
 89 97  1  0
 97 98  2  0
 97 99  1  0
 99100  1  0
100101  1  0
101102  1  0
102103  1  0
103104  1  0
104105  1  0
105106  2  3
105107  1  0
100108  1  0
108109  2  0
108110  1  0
110111  1  0
111112  1  0
112113  1  0
113114  2  0
114115  1  0
115116  1  0
116117  2  0
117118  1  0
118119  2  0
119120  1  0
120121  2  0
111122  1  0
122123  2  0
122124  1  0
124125  1  0
125126  1  0
126127  1  0
127128  1  0
128129  1  0
129130  1  0
130131  2  3
130132  1  0
125133  1  0
133134  2  0
133135  1  0
135136  1  0
136137  1  0
137138  1  0
138139  1  0
139140  2  0
139141  1  0
136142  1  0
142143  2  0
142144  1  0
144145  1  0
145146  1  0
146147  1  0
147148  1  0
148149  1  0
149150  1  0
150151  1  0
151152  1  0
145153  1  0
145154  1  6
154155  2  0
154156  1  0
156157  1  0
157158  1  0
158159  1  0
159160  1  0
160161  1  0
160162  2  0
157163  1  0
163164  2  0
163165  1  0
165166  1  0
166167  1  0
167168  1  0
168169  1  0
169170  1  0
170171  1  0
171172  2  3
171173  1  0
166174  1  0
174175  2  0
174176  1  0
121113  1  0
121116  1  0
 73152  2  0
  1177  1  0
  1178  1  0
  2179  1  0
  2180  1  0
  3181  1  0
  3182  1  0
  6183  1  0
  7184  1  1
  8185  1  6
  9186  1  0
 10187  1  0
 10188  1  0
 10189  1  0
 13190  1  0
 14191  1  1
 15192  1  0
 15193  1  0
 16194  1  0
 16195  1  0
 17196  1  0
 17197  1  0
 18198  1  0
 20199  1  0
 20200  1  0
 21201  1  0
 21202  1  0
 24203  1  0
 25204  1  1
 26205  1  0
 26206  1  0
 27207  1  0
 27208  1  0
 29209  1  0
 29210  1  0
 33211  1  0
 34212  1  1
 35213  1  0
 35214  1  0
 35215  1  0
 38216  1  0
 39217  1  6
 40218  1  0
 40219  1  0
 41220  1  0
 41221  1  0
 42222  1  0
 42223  1  0
 43224  1  0
 45225  1  0
 45226  1  0
 46227  1  0
 46228  1  0
 49229  1  0
 50230  1  6
 51231  1  0
 51232  1  0
 52233  1  0
 52234  1  0
 53235  1  0
 53236  1  0
 54237  1  0
 56238  1  0
 56239  1  0
 57240  1  0
 57241  1  0
 60242  1  0
 61243  1  1
 62244  1  0
 62245  1  0
 64246  1  0
 64247  1  0
 68248  1  0
 70249  1  0
 70250  1  0
 71251  1  0
 71252  1  0
 72253  1  0
 72254  1  0
 73255  1  0
 74256  1  0
 74257  1  0
 74258  1  0
 77259  1  0
 78260  1  1
 79261  1  0
 79262  1  0
 80263  1  0
 80264  1  0
 81265  1  0
 81266  1  0
 82267  1  0
 84268  1  0
 84269  1  0
 85270  1  0
 85271  1  0
 88272  1  0
 89273  1  1
 90274  1  0
 90275  1  0
 91276  1  0
 91277  1  0
 92278  1  0
 92279  1  0
 93280  1  0
 95281  1  0
 95282  1  0
 96283  1  0
 96284  1  0
 99285  1  0
100286  1  1
101287  1  0
101288  1  0
102289  1  0
102290  1  0
103291  1  0
103292  1  0
104293  1  0
106294  1  0
106295  1  0
107296  1  0
107297  1  0
110298  1  0
111299  1  1
112300  1  0
112301  1  0
114302  1  0
115303  1  0
117304  1  0
118305  1  0
119306  1  0
120307  1  0
124308  1  0
125309  1  1
126310  1  0
126311  1  0
127312  1  0
127313  1  0
128314  1  0
128315  1  0
129316  1  0
131317  1  0
131318  1  0
132319  1  0
132320  1  0
135321  1  0
136322  1  1
137323  1  0
137324  1  0
138325  1  0
138326  1  0
144327  1  0
146328  1  0
146329  1  0
147330  1  0
147331  1  0
148332  1  0
148333  1  0
149334  1  0
149335  1  0
150336  1  0
150337  1  0
151338  1  0
151339  1  0
152340  1  0
153341  1  0
153342  1  0
153343  1  0
156344  1  0
157345  1  1
158346  1  0
158347  1  0
159348  1  0
159349  1  0
161350  1  0
161351  1  0
165352  1  0
166353  1  6
167354  1  0
167355  1  0
168356  1  0
168357  1  0
169358  1  0
169359  1  0
170360  1  0
172361  1  0
172362  1  0
173363  1  0
173364  1  0
M  CHG  8  20   1  45   1  56   1  84   1  95   1 106   1 131   1 141  -1
M  CHG  2 172   1 176  -1
M  END
