
     RDKit          2D

414420  0  0  0  0  0  0  0  0999 V2000
  -38.6269   -5.0267    0.0000 C   0  0  0  0  0  0  0  0  0  0  0  0
  -39.6386   -6.1341    0.0000 N   0  0  0  0  0  0  0  0  0  0  0  0
  -41.1036   -5.8116    0.0000 C   0  0  0  0  0  0  0  0  0  0  0  0
  -41.5567   -4.3817    0.0000 C   0  0  0  0  0  0  0  0  0  0  0  0
  -43.0216   -4.0592    0.0000 C   0  0  0  0  0  0  0  0  0  0  0  0
  -44.0334   -5.1667    0.0000 C   0  0  0  0  0  0  0  0  0  0  0  0
  -43.5802   -6.5966    0.0000 C   0  0  0  0  0  0  0  0  0  0  0  0
  -42.1153   -6.9191    0.0000 C   0  0  0  0  0  0  0  0  0  0  0  0
  -44.8001   -7.4694    0.0000 C   0  0  0  0  0  0  0  0  0  0  0  0
  -46.0072   -6.5790    0.0000 O   0  0  0  0  0  0  0  0  0  0  0  0
  -45.5334   -5.1558    0.0000 C   0  0  0  0  0  0  0  0  0  0  0  0
  -46.4062   -3.9359    0.0000 O   0  0  0  0  0  0  0  0  0  0  0  0
  -46.1046   -8.2100    0.0000 C   0  0  0  0  0  0  0  0  0  0  0  0
  -46.1154   -9.7099    0.0000 C   0  0  0  0  0  0  0  0  0  0  0  0
  -47.4199  -10.4505    0.0000 C   0  0  0  0  0  0  0  0  0  0  0  0
  -48.7134   -9.6911    0.0000 C   0  0  0  0  0  0  0  0  0  0  0  0
  -48.7026   -8.1911    0.0000 C   0  0  0  0  0  0  0  0  0  0  0  0
  -47.3981   -7.4506    0.0000 C   0  0  0  0  0  0  0  0  0  0  0  0
  -50.0179  -10.4317    0.0000 O   0  0  0  0  0  0  0  0  0  0  0  0
  -44.8219  -10.4693    0.0000 O   0  0  0  0  0  0  0  0  0  0  0  0
  -43.5174   -9.7288    0.0000 C   0  0  0  0  0  0  0  0  0  0  0  0
  -43.5065   -8.2288    0.0000 C   0  0  0  0  0  0  0  0  0  0  0  0
  -42.2072   -8.1882    0.0000 C   0  0  0  0  0  0  0  0  0  0  0  0
  -41.5173   -8.5932    0.0000 C   0  0  0  0  0  0  0  0  0  0  0  0
  -41.5231   -9.3932    0.0000 C   0  0  0  0  0  0  0  0  0  0  0  0
  -42.2188   -9.7882    0.0000 C   0  0  0  0  0  0  0  0  0  0  0  0
  -39.6258  -10.5070    0.0000 O   0  0  0  0  0  0  0  0  0  0  0  0
  -39.0801   -3.5968    0.0000 S   0  0  0  0  0  0  0  0  0  0  0  0
  -37.1620   -5.3492    0.0000 N   0  0  0  0  0  0  0  0  0  0  0  0
  -36.1502   -4.2418    0.0000 C   0  0  0  0  0  0  0  0  0  0  0  0
  -34.6853   -4.5643    0.0000 C   0  0  0  0  0  0  0  0  0  0  0  0
  -33.6735   -3.4569    0.0000 C   0  0  0  0  0  0  0  0  0  0  0  0
  -34.1267   -2.0270    0.0000 O   0  0  0  0  0  0  0  0  0  0  0  0
  -32.2086   -3.7794    0.0000 N   0  0  0  0  0  0  0  0  0  0  0  0
  -31.1969   -2.6720    0.0000 C   0  0  0  0  0  0  0  0  0  0  0  0
  -30.6249   -1.2853    0.0000 C   0  0  0  0  0  0  0  0  0  0  0  0
  -29.3078   -0.5675    0.0000 O   0  0  0  0  0  0  0  0  0  0  0  0
  -29.7319   -2.9945    0.0000 C   0  0  0  0  0  0  0  0  0  0  0  0
  -29.2788   -4.4244    0.0000 O   0  0  0  0  0  0  0  0  0  0  0  0
  -28.7202   -1.8871    0.0000 N   0  0  0  0  0  0  0  0  0  0  0  0
  -27.2553   -2.2096    0.0000 C   0  0  0  0  0  0  0  0  0  0  0  0
  -25.9890   -3.0136    0.0000 C   0  0  0  0  0  0  0  0  0  0  0  0
  -24.5743   -3.5123    0.0000 O   0  0  0  0  0  0  0  0  0  0  0  0
  -26.0522   -4.5123    0.0000 C   0  0  0  0  0  0  0  0  0  0  0  0
  -26.2435   -1.1022    0.0000 C   0  0  0  0  0  0  0  0  0  0  0  0
  -26.6967    0.3278    0.0000 O   0  0  0  0  0  0  0  0  0  0  0  0
  -24.7786   -1.4247    0.0000 N   0  0  0  0  0  0  0  0  0  0  0  0
  -23.7668   -0.3172    0.0000 C   0  0  0  0  0  0  0  0  0  0  0  0
  -23.1949    1.0694    0.0000 C   0  0  0  0  0  0  0  0  0  0  0  0
  -22.3019   -0.6397    0.0000 C   0  0  0  0  0  0  0  0  0  0  0  0
  -21.8487   -2.0696    0.0000 O   0  0  0  0  0  0  0  0  0  0  0  0
  -21.2902    0.4677    0.0000 N   0  0  0  0  0  0  0  0  0  0  0  0
  -19.8252    0.1452    0.0000 C   0  0  0  0  0  0  0  0  0  0  0  0
  -18.5590   -0.6589    0.0000 C   0  0  0  0  0  0  0  0  0  0  0  0
  -18.6222   -2.1576    0.0000 C   0  0  0  0  0  0  0  0  0  0  0  0
  -17.3559   -2.9617    0.0000 C   0  0  0  0  0  0  0  0  0  0  0  0
  -19.1942   -3.5442    0.0000 C   0  0  0  0  0  0  0  0  0  0  0  0
  -18.8135    1.2526    0.0000 C   0  0  0  0  0  0  0  0  0  0  0  0
  -19.2667    2.6825    0.0000 O   0  0  0  0  0  0  0  0  0  0  0  0
  -17.3486    0.9301    0.0000 N   0  0  0  0  0  0  0  0  0  0  0  0
  -16.3368    2.0375    0.0000 C   0  0  0  0  0  0  0  0  0  0  0  0
  -15.7648    3.4242    0.0000 C   0  0  0  0  0  0  0  0  0  0  0  0
  -14.2780    3.6222    0.0000 C   0  0  0  0  0  0  0  0  0  0  0  0
  -13.7060    5.0088    0.0000 C   0  0  0  0  0  0  0  0  0  0  0  0
  -12.2191    5.2068    0.0000 N   0  0  0  0  0  0  0  0  0  0  0  0
  -11.6471    6.5935    0.0000 C   0  0  0  0  0  0  0  0  0  0  0  0
  -10.1603    6.7915    0.0000 N   0  0  0  0  0  0  0  0  0  0  0  0
  -12.2472    7.9682    0.0000 N   0  0  0  0  0  0  0  0  0  0  0  0
  -14.8719    1.7150    0.0000 C   0  0  0  0  0  0  0  0  0  0  0  0
  -14.5964    0.2405    0.0000 O   0  0  0  0  0  0  0  0  0  0  0  0
  -13.8602    2.8224    0.0000 N   0  0  0  0  0  0  0  0  0  0  0  0
  -12.3952    2.4999    0.0000 C   0  0  0  0  0  0  0  0  0  0  0  0
  -11.6677    1.1882    0.0000 C   0  0  0  0  0  0  0  0  0  0  0  0
  -10.5859    0.1491    0.0000 C   0  0  0  0  0  0  0  0  0  0  0  0
   -9.2458   -0.5249    0.0000 C   0  0  0  0  0  0  0  0  0  0  0  0
   -7.7666   -0.7740    0.0000 C   0  0  0  0  0  0  0  0  0  0  0  0
  -13.4316    1.4155    0.0000 C   0  0  0  0  0  0  0  0  0  0  0  0
  -12.7038    3.9678    0.0000 C   0  0  0  0  0  0  0  0  0  0  0  0
  -13.4632    4.2103    0.0000 O   0  0  0  0  0  0  0  0  0  0  0  0
  -12.5659    5.4615    0.0000 N   0  0  0  0  0  0  0  0  0  0  0  0
  -11.9940    6.8482    0.0000 C   0  0  0  0  0  0  0  0  0  0  0  0
  -12.6552    8.1946    0.0000 C   0  0  0  0  0  0  0  0  0  0  0  0
  -14.1518    8.2951    0.0000 C   0  0  0  0  0  0  0  0  0  0  0  0
  -14.8130    9.6415    0.0000 C   0  0  0  0  0  0  0  0  0  0  0  0
  -15.5926    7.8777    0.0000 C   0  0  0  0  0  0  0  0  0  0  0  0
  -11.0387    8.0046    0.0000 C   0  0  0  0  0  0  0  0  0  0  0  0
  -11.8962    9.2353    0.0000 O   0  0  0  0  0  0  0  0  0  0  0  0
   -9.7849    8.8281    0.0000 N   0  0  0  0  0  0  0  0  0  0  0  0
   -8.3442    9.2455    0.0000 C   0  0  0  0  0  0  0  0  0  0  0  0
   -7.7038   10.6020    0.0000 C   0  0  0  0  0  0  0  0  0  0  0  0
   -8.7022   11.7214    0.0000 C   0  0  0  0  0  0  0  0  0  0  0  0
   -6.6381   11.6576    0.0000 C   0  0  0  0  0  0  0  0  0  0  0  0
   -7.0194   13.1083    0.0000 C   0  0  0  0  0  0  0  0  0  0  0  0
   -6.8444    9.2197    0.0000 C   0  0  0  0  0  0  0  0  0  0  0  0
   -6.4169   10.6575    0.0000 O   0  0  0  0  0  0  0  0  0  0  0  0
   -5.4189    8.7529    0.0000 N   0  0  0  0  0  0  0  0  0  0  0  0
   -4.1942    7.8867    0.0000 C   0  0  0  0  0  0  0  0  0  0  0  0
   -2.7345    8.2318    0.0000 C   0  0  0  0  0  0  0  0  0  0  0  0
   -2.3034    9.6685    0.0000 C   0  0  0  0  0  0  0  0  0  0  0  0
   -0.8436   10.0136    0.0000 C   0  0  0  0  0  0  0  0  0  0  0  0
   -0.4126   11.4503    0.0000 O   0  0  0  0  0  0  0  0  0  0  0  0
    0.1851    8.9219    0.0000 O   0  0  0  0  0  0  0  0  0  0  0  0
   -3.2793    6.6981    0.0000 C   0  0  0  0  0  0  0  0  0  0  0  0
   -1.9676    7.4256    0.0000 O   0  0  0  0  0  0  0  0  0  0  0  0
   -2.7555    5.2925    0.0000 N   0  0  0  0  0  0  0  0  0  0  0  0
   -2.6691    3.7950    0.0000 C   0  0  0  0  0  0  0  0  0  0  0  0
   -3.0281    2.3386    0.0000 C   0  0  0  0  0  0  0  0  0  0  0  0
   -3.8003    1.0526    0.0000 C   0  0  0  0  0  0  0  0  0  0  0  0
   -4.9173    0.0515    0.0000 C   0  0  0  0  0  0  0  0  0  0  0  0
   -6.2798   -0.5760    0.0000 C   0  0  0  0  0  0  0  0  0  0  0  0
   -1.3397    4.4896    0.0000 C   0  0  0  0  0  0  0  0  0  0  0  0
   -1.4892    2.8688    0.0000 C   0  0  0  0  0  0  0  0  0  0  0  0
   -1.3357    1.3767    0.0000 O   0  0  0  0  0  0  0  0  0  0  0  0
   -0.0972    3.4276    0.0000 N   0  0  0  0  0  0  0  0  0  0  0  0
    1.0827    2.5014    0.0000 C   0  0  0  0  0  0  0  0  0  0  0  0
    1.8747    1.2276    0.0000 C   0  0  0  0  0  0  0  0  0  0  0  0
    1.1675   -0.0953    0.0000 C   0  0  0  0  0  0  0  0  0  0  0  0
    1.9595   -1.3691    0.0000 C   0  0  0  0  0  0  0  0  0  0  0  0
    0.0506   -1.0964    0.0000 C   0  0  0  0  0  0  0  0  0  0  0  0
    2.4748    3.0602    0.0000 C   0  0  0  0  0  0  0  0  0  0  0  0
    2.6869    4.5451    0.0000 O   0  0  0  0  0  0  0  0  0  0  0  0
    3.6547    2.1340    0.0000 N   0  0  0  0  0  0  0  0  0  0  0  0
    5.0468    2.6928    0.0000 C   0  0  0  0  0  0  0  0  0  0  0  0
    6.1637    3.6940    0.0000 C   0  0  0  0  0  0  0  0  0  0  0  0
    7.6355    3.4045    0.0000 C   0  0  0  0  0  0  0  0  0  0  0  0
    6.2267    1.7666    0.0000 C   0  0  0  0  0  0  0  0  0  0  0  0
    6.0146    0.2817    0.0000 O   0  0  0  0  0  0  0  0  0  0  0  0
    7.6187    2.3254    0.0000 N   0  0  0  0  0  0  0  0  0  0  0  0
    8.7986    1.3992    0.0000 C   0  0  0  0  0  0  0  0  0  0  0  0
    9.5906    0.1253    0.0000 C   0  0  0  0  0  0  0  0  0  0  0  0
    8.8834   -1.1975    0.0000 C   0  0  0  0  0  0  0  0  0  0  0  0
    9.6754   -2.4713    0.0000 N   0  0  0  0  0  0  0  0  0  0  0  0
    7.3842   -1.2464    0.0000 O   0  0  0  0  0  0  0  0  0  0  0  0
   10.1907    1.9580    0.0000 C   0  0  0  0  0  0  0  0  0  0  0  0
   10.4028    3.4429    0.0000 O   0  0  0  0  0  0  0  0  0  0  0  0
   11.3706    1.0318    0.0000 N   0  0  0  0  0  0  0  0  0  0  0  0
   12.7627    1.5906    0.0000 C   0  0  0  0  0  0  0  0  0  0  0  0
   13.8796    2.5917    0.0000 C   0  0  0  0  0  0  0  0  0  0  0  0
   15.3514    2.3022    0.0000 C   0  0  0  0  0  0  0  0  0  0  0  0
   14.5868    3.9146    0.0000 C   0  0  0  0  0  0  0  0  0  0  0  0
   13.7948    5.1884    0.0000 C   0  0  0  0  0  0  0  0  0  0  0  0
   13.9426    0.6644    0.0000 C   0  0  0  0  0  0  0  0  0  0  0  0
   13.7305   -0.8205    0.0000 O   0  0  0  0  0  0  0  0  0  0  0  0
   15.3346    1.2232    0.0000 N   0  0  0  0  0  0  0  0  0  0  0  0
   16.5145    0.2970    0.0000 C   0  0  0  0  0  0  0  0  0  0  0  0
   17.3065   -0.9769    0.0000 C   0  0  0  0  0  0  0  0  0  0  0  0
   18.3648   -2.0400    0.0000 O   0  0  0  0  0  0  0  0  0  0  0  0
   16.5993   -2.2997    0.0000 C   0  0  0  0  0  0  0  0  0  0  0  0
   17.9066    0.8558    0.0000 C   0  0  0  0  0  0  0  0  0  0  0  0
   18.1187    2.3407    0.0000 O   0  0  0  0  0  0  0  0  0  0  0  0
   19.0865   -0.0704    0.0000 N   0  0  0  0  0  0  0  0  0  0  0  0
   20.4786    0.4884    0.0000 C   0  0  0  0  0  0  0  0  0  0  0  0
   21.5955    1.4895    0.0000 C   0  0  0  0  0  0  0  0  0  0  0  0
   23.0211    1.0228    0.0000 C   0  0  0  0  0  0  0  0  0  0  0  0
   24.1381    2.0239    0.0000 C   0  0  0  0  0  0  0  0  0  0  0  0
   25.6099    1.7344    0.0000 N   0  0  0  0  0  0  0  0  0  0  0  0
   23.8295    3.4919    0.0000 O   0  0  0  0  0  0  0  0  0  0  0  0
   21.6585   -0.4378    0.0000 C   0  0  0  0  0  0  0  0  0  0  0  0
   21.4464   -1.9227    0.0000 O   0  0  0  0  0  0  0  0  0  0  0  0
   23.0505    0.1210    0.0000 N   0  0  0  0  0  0  0  0  0  0  0  0
   24.2304   -0.8052    0.0000 C   0  0  0  0  0  0  0  0  0  0  0  0
   25.0224   -2.0791    0.0000 C   0  0  0  0  0  0  0  0  0  0  0  0
   24.3152   -3.4019    0.0000 C   0  0  0  0  0  0  0  0  0  0  0  0
   25.1072   -4.6758    0.0000 N   0  0  0  0  0  0  0  0  0  0  0  0
   22.8160   -3.4509    0.0000 O   0  0  0  0  0  0  0  0  0  0  0  0
   25.6225   -0.2464    0.0000 C   0  0  0  0  0  0  0  0  0  0  0  0
   26.0140    1.2015    0.0000 O   0  0  0  0  0  0  0  0  0  0  0  0
   26.8024   -1.1726    0.0000 N   0  0  0  0  0  0  0  0  0  0  0  0
   28.1945   -0.6139    0.0000 C   0  0  0  0  0  0  0  0  0  0  0  0
   29.3114    0.3873    0.0000 C   0  0  0  0  0  0  0  0  0  0  0  0
   30.7370   -0.0794    0.0000 C   0  0  0  0  0  0  0  0  0  0  0  0
   31.8540    0.9217    0.0000 C   0  0  0  0  0  0  0  0  0  0  0  0
   33.3258    0.6322    0.0000 N   0  0  0  0  0  0  0  0  0  0  0  0
   31.5454    2.3897    0.0000 O   0  0  0  0  0  0  0  0  0  0  0  0
   29.3744   -1.5400    0.0000 C   0  0  0  0  0  0  0  0  0  0  0  0
   29.1623   -3.0249    0.0000 O   0  0  0  0  0  0  0  0  0  0  0  0
   30.7664   -0.9813    0.0000 N   0  0  0  0  0  0  0  0  0  0  0  0
   31.9463   -1.9074    0.0000 C   0  0  0  0  0  0  0  0  0  0  0  0
   32.7383   -3.1813    0.0000 C   0  0  0  0  0  0  0  0  0  0  0  0
   32.0311   -4.5041    0.0000 C   0  0  0  0  0  0  0  0  0  0  0  0
   32.8231   -5.7780    0.0000 C   0  0  0  0  0  0  0  0  0  0  0  0
   32.1159   -7.1008    0.0000 C   0  0  0  0  0  0  0  0  0  0  0  0
   32.9079   -8.3747    0.0000 N   0  0  0  0  0  0  0  0  0  0  0  0
   33.3384   -1.3487    0.0000 C   0  0  0  0  0  0  0  0  0  0  0  0
   33.7299    0.0993    0.0000 O   0  0  0  0  0  0  0  0  0  0  0  0
   34.5183   -2.2748    0.0000 N   0  0  0  0  0  0  0  0  0  0  0  0
   35.9104   -1.7161    0.0000 C   0  0  0  0  0  0  0  0  0  0  0  0
   36.8970   -0.5862    0.0000 C   0  0  0  0  0  0  0  0  0  0  0  0
   37.0903   -2.6422    0.0000 C   0  0  0  0  0  0  0  0  0  0  0  0
   36.8782   -4.1272    0.0000 O   0  0  0  0  0  0  0  0  0  0  0  0
   38.4823   -2.0835    0.0000 N   0  0  0  0  0  0  0  0  0  0  0  0
   38.8485   -0.6289    0.0000 C   0  0  0  0  0  0  0  0  0  0  0  0
   40.3451   -0.5276    0.0000 C   0  0  0  0  0  0  0  0  0  0  0  0
   40.9038   -1.9196    0.0000 C   0  0  0  0  0  0  0  0  0  0  0  0
   39.7526   -2.8812    0.0000 C   0  0  0  0  0  0  0  0  0  0  0  0
   40.8292   -3.9257    0.0000 C   0  0  0  0  0  0  0  0  0  0  0  0
   42.3113   -3.6944    0.0000 O   0  0  0  0  0  0  0  0  0  0  0  0
   40.4631   -5.3803    0.0000 N   0  0  0  0  0  0  0  0  0  0  0  0
   41.5397   -6.4247    0.0000 C   0  0  0  0  0  0  0  0  0  0  0  0
   42.9087   -7.0379    0.0000 C   0  0  0  0  0  0  0  0  0  0  0  0
   43.0621   -8.5300    0.0000 C   0  0  0  0  0  0  0  0  0  0  0  0
   44.4310   -9.1432    0.0000 C   0  0  0  0  0  0  0  0  0  0  0  0
   42.6959   -9.9847    0.0000 C   0  0  0  0  0  0  0  0  0  0  0  0
   41.1735   -7.8793    0.0000 C   0  0  0  0  0  0  0  0  0  0  0  0
   42.1148   -9.0472    0.0000 O   0  0  0  0  0  0  0  0  0  0  0  0
   39.7307   -8.2895    0.0000 O   0  0  0  0  0  0  0  0  0  0  0  0
  -39.0145   -7.4981    0.0000 H   0  0  0  0  0  0  0  0  0  0  0  0
  -40.5450   -3.2743    0.0000 H   0  0  0  0  0  0  0  0  0  0  0  0
  -43.4748   -2.6293    0.0000 H   0  0  0  0  0  0  0  0  0  0  0  0
  -41.3296   -8.1968    0.0000 H   0  0  0  0  0  0  0  0  0  0  0  0
  -47.4307  -11.9505    0.0000 H   0  0  0  0  0  0  0  0  0  0  0  0
  -49.9961   -7.4317    0.0000 H   0  0  0  0  0  0  0  0  0  0  0  0
  -47.3872   -5.9506    0.0000 H   0  0  0  0  0  0  0  0  0  0  0  0
  -51.3114   -9.6723    0.0000 H   0  0  0  0  0  0  0  0  0  0  0  0
  -42.1912   -5.9883    0.0000 H   0  0  0  0  0  0  0  0  0  0  0  0
  -39.5236   -7.6716    0.0000 H   0  0  0  0  0  0  0  0  0  0  0  0
  -42.2347  -11.9881    0.0000 H   0  0  0  0  0  0  0  0  0  0  0  0
  -39.6367  -12.0070    0.0000 H   0  0  0  0  0  0  0  0  0  0  0  0
  -36.7088   -6.7791    0.0000 H   0  0  0  0  0  0  0  0  0  0  0  0
  -35.5782   -2.8551    0.0000 H   0  0  0  0  0  0  0  0  0  0  0  0
  -37.4165   -3.4377    0.0000 H   0  0  0  0  0  0  0  0  0  0  0  0
  -33.4190   -5.3684    0.0000 H   0  0  0  0  0  0  0  0  0  0  0  0
  -35.2573   -5.9510    0.0000 H   0  0  0  0  0  0  0  0  0  0  0  0
  -31.7554   -5.2093    0.0000 H   0  0  0  0  0  0  0  0  0  0  0  0
  -32.4631   -1.8679    0.0000 H   0  0  0  0  0  0  0  0  0  0  0  0
  -30.5617    0.2133    0.0000 H   0  0  0  0  0  0  0  0  0  0  0  0
  -32.0898   -0.9628    0.0000 H   0  0  0  0  0  0  0  0  0  0  0  0
  -28.5660    0.2993    0.0000 H   0  0  0  0  0  0  0  0  0  0  0  0
  -28.9957   -0.4126    0.0000 H   0  0  0  0  0  0  0  0  0  0  0  0
  -27.9920   -3.5162    0.0000 H   0  0  0  0  0  0  0  0  0  0  0  0
  -25.0985   -1.8066    0.0000 H   0  0  0  0  0  0  0  0  0  0  0  0
  -23.9000   -4.7001    0.0000 H   0  0  0  0  0  0  0  0  0  0  0  0
  -24.8934   -5.4648    0.0000 H   0  0  0  0  0  0  0  0  0  0  0  0
  -26.6242   -5.8990    0.0000 H   0  0  0  0  0  0  0  0  0  0  0  0
  -27.5455   -4.3708    0.0000 H   0  0  0  0  0  0  0  0  0  0  0  0
  -24.1545   -2.7887    0.0000 H   0  0  0  0  0  0  0  0  0  0  0  0
  -25.0331    0.4868    0.0000 H   0  0  0  0  0  0  0  0  0  0  0  0
  -21.8778    1.7872    0.0000 H   0  0  0  0  0  0  0  0  0  0  0  0
  -23.1316    2.5681    0.0000 H   0  0  0  0  0  0  0  0  0  0  0  0
  -24.6598    1.3919    0.0000 H   0  0  0  0  0  0  0  0  0  0  0  0
  -21.5657    1.9422    0.0000 H   0  0  0  0  0  0  0  0  0  0  0  0
  -20.5620   -1.1614    0.0000 H   0  0  0  0  0  0  0  0  0  0  0  0
  -17.0940   -0.9814    0.0000 H   0  0  0  0  0  0  0  0  0  0  0  0
  -17.6685    0.5482    0.0000 H   0  0  0  0  0  0  0  0  0  0  0  0
  -20.1155   -2.0160    0.0000 H   0  0  0  0  0  0  0  0  0  0  0  0
  -17.2360   -4.4568    0.0000 H   0  0  0  0  0  0  0  0  0  0  0  0
  -15.8910   -3.2841    0.0000 H   0  0  0  0  0  0  0  0  0  0  0  0
  -16.6192   -1.6550    0.0000 H   0  0  0  0  0  0  0  0  0  0  0  0
  -18.4310   -4.8356    0.0000 H   0  0  0  0  0  0  0  0  0  0  0  0
  -20.2059   -4.6516    0.0000 H   0  0  0  0  0  0  0  0  0  0  0  0
  -20.4604   -2.7402    0.0000 H   0  0  0  0  0  0  0  0  0  0  0  0
  -16.7245   -0.4339    0.0000 H   0  0  0  0  0  0  0  0  0  0  0  0
  -17.6031    2.8416    0.0000 H   0  0  0  0  0  0  0  0  0  0  0  0
  -15.8848    4.9194    0.0000 H   0  0  0  0  0  0  0  0  0  0  0  0
  -17.2298    3.7467    0.0000 H   0  0  0  0  0  0  0  0  0  0  0  0
  -12.7785    3.6637    0.0000 H   0  0  0  0  0  0  0  0  0  0  0  0
  -13.7998    2.2004    0.0000 H   0  0  0  0  0  0  0  0  0  0  0  0
  -14.1842    6.4306    0.0000 H   0  0  0  0  0  0  0  0  0  0  0  0
  -15.1207    5.5075    0.0000 H   0  0  0  0  0  0  0  0  0  0  0  0
  -11.3042    4.0181    0.0000 H   0  0  0  0  0  0  0  0  0  0  0  0
   -9.2697    7.9985    0.0000 H   0  0  0  0  0  0  0  0  0  0  0  0
  -12.1383    9.1912    0.0000 H   0  0  0  0  0  0  0  0  0  0  0  0
  -13.7915    6.9639    0.0000 H   0  0  0  0  0  0  0  0  0  0  0  0
  -14.1356    4.2969    0.0000 H   0  0  0  0  0  0  0  0  0  0  0  0
  -13.1364    0.8832    0.0000 H   0  0  0  0  0  0  0  0  0  0  0  0
  -12.1699   -0.2253    0.0000 H   0  0  0  0  0  0  0  0  0  0  0  0
  -11.8013   -0.7299    0.0000 H   0  0  0  0  0  0  0  0  0  0  0  0
  -10.8313   -1.3307    0.0000 H   0  0  0  0  0  0  0  0  0  0  0  0
  -10.2875   -1.6042    0.0000 H   0  0  0  0  0  0  0  0  0  0  0  0
   -8.8645   -1.9756    0.0000 H   0  0  0  0  0  0  0  0  0  0  0  0
   -7.7925   -2.2737    0.0000 H   0  0  0  0  0  0  0  0  0  0  0  0
  -13.0822   -0.2134    0.0000 H   0  0  0  0  0  0  0  0  0  0  0  0
  -14.4223    0.3450    0.0000 H   0  0  0  0  0  0  0  0  0  0  0  0
  -14.6103    2.0057    0.0000 H   0  0  0  0  0  0  0  0  0  0  0  0
  -13.9677    5.9953    0.0000 H   0  0  0  0  0  0  0  0  0  0  0  0
  -13.4932    6.7992    0.0000 H   0  0  0  0  0  0  0  0  0  0  0  0
  -12.6330    9.6944    0.0000 H   0  0  0  0  0  0  0  0  0  0  0  0
  -11.3582    8.9482    0.0000 H   0  0  0  0  0  0  0  0  0  0  0  0
  -14.5362    6.8452    0.0000 H   0  0  0  0  0  0  0  0  0  0  0  0
  -16.2862    9.9238    0.0000 H   0  0  0  0  0  0  0  0  0  0  0  0
  -14.9739   11.1329    0.0000 H   0  0  0  0  0  0  0  0  0  0  0  0
  -13.4339   10.2314    0.0000 H   0  0  0  0  0  0  0  0  0  0  0  0
  -16.7930    8.7772    0.0000 H   0  0  0  0  0  0  0  0  0  0  0  0
  -16.8037    6.9928    0.0000 H   0  0  0  0  0  0  0  0  0  0  0  0
  -14.9313    6.5313    0.0000 H   0  0  0  0  0  0  0  0  0  0  0  0
  -10.4124   10.1906    0.0000 H   0  0  0  0  0  0  0  0  0  0  0  0
   -9.4491   10.2600    0.0000 H   0  0  0  0  0  0  0  0  0  0  0  0
   -6.3060   10.0578    0.0000 H   0  0  0  0  0  0  0  0  0  0  0  0
   -8.1029   13.2758    0.0000 H   0  0  0  0  0  0  0  0  0  0  0  0
   -9.7829   12.7010    0.0000 H   0  0  0  0  0  0  0  0  0  0  0  0
   -9.7447   10.9169    0.0000 H   0  0  0  0  0  0  0  0  0  0  0  0
   -5.2756   12.2850    0.0000 H   0  0  0  0  0  0  0  0  0  0  0  0
   -5.6397   10.5381    0.0000 H   0  0  0  0  0  0  0  0  0  0  0  0
   -5.9537   14.1639    0.0000 H   0  0  0  0  0  0  0  0  0  0  0  0
   -7.8739   14.3411    0.0000 H   0  0  0  0  0  0  0  0  0  0  0  0
   -8.4932   12.8291    0.0000 H   0  0  0  0  0  0  0  0  0  0  0  0
   -4.7449   10.0930    0.0000 H   0  0  0  0  0  0  0  0  0  0  0  0
   -4.0900    9.3831    0.0000 H   0  0  0  0  0  0  0  0  0  0  0  0
   -1.2447    8.0567    0.0000 H   0  0  0  0  0  0  0  0  0  0  0  0
   -2.2884    6.7997    0.0000 H   0  0  0  0  0  0  0  0  0  0  0  0
   -2.3897   11.1660    0.0000 H   0  0  0  0  0  0  0  0  0  0  0  0
   -3.7607   10.0238    0.0000 H   0  0  0  0  0  0  0  0  0  0  0  0
    1.6449    9.2669    0.0000 H   0  0  0  0  0  0  0  0  0  0  0  0
   -1.2875    5.6011    0.0000 H   0  0  0  0  0  0  0  0  0  0  0  0
   -2.1736    1.1058    0.0000 H   0  0  0  0  0  0  0  0  0  0  0  0
   -1.5310    2.2454    0.0000 H   0  0  0  0  0  0  0  0  0  0  0  0
   -3.1762   -0.3114    0.0000 H   0  0  0  0  0  0  0  0  0  0  0  0
   -2.3972    0.5223    0.0000 H   0  0  0  0  0  0  0  0  0  0  0  0
   -4.9057   -1.4485    0.0000 H   0  0  0  0  0  0  0  0  0  0  0  0
   -3.6295   -0.7176    0.0000 H   0  0  0  0  0  0  0  0  0  0  0  0
   -5.8624   -2.0167    0.0000 H   0  0  0  0  0  0  0  0  0  0  0  0
    0.0836    4.0158    0.0000 H   0  0  0  0  0  0  0  0  0  0  0  0
   -0.4704    5.7121    0.0000 H   0  0  0  0  0  0  0  0  0  0  0  0
   -1.9397    5.8643    0.0000 H   0  0  0  0  0  0  0  0  0  0  0  0
    0.2944    4.8756    0.0000 H   0  0  0  0  0  0  0  0  0  0  0  0
   -0.1480    1.6439    0.0000 H   0  0  0  0  0  0  0  0  0  0  0  0
    3.0547    0.3014    0.0000 H   0  0  0  0  0  0  0  0  0  0  0  0
    3.2008    1.9287    0.0000 H   0  0  0  0  0  0  0  0  0  0  0  0
   -0.1165    0.6802    0.0000 H   0  0  0  0  0  0  0  0  0  0  0  0
    1.4189   -2.7683    0.0000 H   0  0  0  0  0  0  0  0  0  0  0  0
    3.1395   -2.2953    0.0000 H   0  0  0  0  0  0  0  0  0  0  0  0
    3.1902   -0.5116    0.0000 H   0  0  0  0  0  0  0  0  0  0  0  0
    0.1779   -2.5910    0.0000 H   0  0  0  0  0  0  0  0  0  0  0  0
   -1.3415   -1.6552    0.0000 H   0  0  0  0  0  0  0  0  0  0  0  0
   -0.7414    0.1774    0.0000 H   0  0  0  0  0  0  0  0  0  0  0  0
    3.6252    0.6343    0.0000 H   0  0  0  0  0  0  0  0  0  0  0  0
    4.2548    3.9667    0.0000 H   0  0  0  0  0  0  0  0  0  0  0  0
    6.8709    5.0168    0.0000 H   0  0  0  0  0  0  0  0  0  0  0  0
    4.9838    4.6201    0.0000 H   0  0  0  0  0  0  0  0  0  0  0  0
    8.7063    4.2284    0.0000 H   0  0  0  0  0  0  0  0  0  0  0  0
    8.7692    2.3010    0.0000 H   0  0  0  0  0  0  0  0  0  0  0  0
    7.5860    1.7272    0.0000 H   0  0  0  0  0  0  0  0  0  0  0  0
    8.0103    3.7734    0.0000 H   0  0  0  0  0  0  0  0  0  0  0  0
    7.6817    0.3980    0.0000 H   0  0  0  0  0  0  0  0  0  0  0  0
   10.6489   -0.9377    0.0000 H   0  0  0  0  0  0  0  0  0  0  0  0
   10.9167    0.8265    0.0000 H   0  0  0  0  0  0  0  0  0  0  0  0
    8.9682   -3.7942    0.0000 H   0  0  0  0  0  0  0  0  0  0  0  0
   11.1746   -2.4224    0.0000 H   0  0  0  0  0  0  0  0  0  0  0  0
   11.3411   -0.4679    0.0000 H   0  0  0  0  0  0  0  0  0  0  0  0
   11.9707    2.8644    0.0000 H   0  0  0  0  0  0  0  0  0  0  0  0
   12.5956    3.3672    0.0000 H   0  0  0  0  0  0  0  0  0  0  0  0
   16.5359    2.9825    0.0000 H   0  0  0  0  0  0  0  0  0  0  0  0
   16.4851    1.1988    0.0000 H   0  0  0  0  0  0  0  0  0  0  0  0
   15.3019    0.6250    0.0000 H   0  0  0  0  0  0  0  0  0  0  0  0
   15.7038    4.9157    0.0000 H   0  0  0  0  0  0  0  0  0  0  0  0
   15.9558    3.3014    0.0000 H   0  0  0  0  0  0  0  0  0  0  0  0
   14.5021    6.5113    0.0000 H   0  0  0  0  0  0  0  0  0  0  0  0
   12.6149    6.1146    0.0000 H   0  0  0  0  0  0  0  0  0  0  0  0
   12.5642    4.3309    0.0000 H   0  0  0  0  0  0  0  0  0  0  0  0
   15.8998    2.6126    0.0000 H   0  0  0  0  0  0  0  0  0  0  0  0
   15.2839   -0.5605    0.0000 H   0  0  0  0  0  0  0  0  0  0  0  0
   18.6326   -0.2757    0.0000 H   0  0  0  0  0  0  0  0  0  0  0  0
   18.4569   -3.4027    0.0000 H   0  0  0  0  0  0  0  0  0  0  0  0
   17.2302   -3.6606    0.0000 H   0  0  0  0  0  0  0  0  0  0  0  0
   15.4824   -3.3009    0.0000 H   0  0  0  0  0  0  0  0  0  0  0  0
   15.3153   -1.5243    0.0000 H   0  0  0  0  0  0  0  0  0  0  0  0
   19.0570   -1.5701    0.0000 H   0  0  0  0  0  0  0  0  0  0  0  0
   19.6866    1.7622    0.0000 H   0  0  0  0  0  0  0  0  0  0  0  0
   22.3027    2.8124    0.0000 H   0  0  0  0  0  0  0  0  0  0  0  0
   20.4156    2.4157    0.0000 H   0  0  0  0  0  0  0  0  0  0  0  0
   24.2010    0.0966    0.0000 H   0  0  0  0  0  0  0  0  0  0  0  0
   23.0178   -0.4772    0.0000 H   0  0  0  0  0  0  0  0  0  0  0  0
   26.6806    2.5584    0.0000 H   0  0  0  0  0  0  0  0  0  0  0  0
   26.2624    0.2016    0.0000 H   0  0  0  0  0  0  0  0  0  0  0  0
   23.6157    1.5104    0.0000 H   0  0  0  0  0  0  0  0  0  0  0  0
   23.1135   -1.8064    0.0000 H   0  0  0  0  0  0  0  0  0  0  0  0
   26.0807   -3.1422    0.0000 H   0  0  0  0  0  0  0  0  0  0  0  0
   26.3485   -1.3779    0.0000 H   0  0  0  0  0  0  0  0  0  0  0  0
   24.4000   -5.9986    0.0000 H   0  0  0  0  0  0  0  0  0  0  0  0
   26.6064   -4.6268    0.0000 H   0  0  0  0  0  0  0  0  0  0  0  0
   26.7729   -2.6723    0.0000 H   0  0  0  0  0  0  0  0  0  0  0  0
   27.4025    0.6600    0.0000 H   0  0  0  0  0  0  0  0  0  0  0  0
   30.0186    1.7101    0.0000 H   0  0  0  0  0  0  0  0  0  0  0  0
   28.1315    1.3135    0.0000 H   0  0  0  0  0  0  0  0  0  0  0  0
   31.9169   -1.0056    0.0000 H   0  0  0  0  0  0  0  0  0  0  0  0
   30.7337   -1.5794    0.0000 H   0  0  0  0  0  0  0  0  0  0  0  0
   34.3965    1.4562    0.0000 H   0  0  0  0  0  0  0  0  0  0  0  0
   33.9783   -0.9006    0.0000 H   0  0  0  0  0  0  0  0  0  0  0  0
   31.3316    0.4082    0.0000 H   0  0  0  0  0  0  0  0  0  0  0  0
   30.7157   -2.7650    0.0000 H   0  0  0  0  0  0  0  0  0  0  0  0
   33.9183   -4.1075    0.0000 H   0  0  0  0  0  0  0  0  0  0  0  0
   34.0644   -2.4802    0.0000 H   0  0  0  0  0  0  0  0  0  0  0  0
   30.8004   -5.3617    0.0000 H   0  0  0  0  0  0  0  0  0  0  0  0
   30.7471   -3.7287    0.0000 H   0  0  0  0  0  0  0  0  0  0  0  0
   34.0031   -6.7041    0.0000 H   0  0  0  0  0  0  0  0  0  0  0  0
   34.0538   -4.9204    0.0000 H   0  0  0  0  0  0  0  0  0  0  0  0
   30.9990   -8.1020    0.0000 H   0  0  0  0  0  0  0  0  0  0  0  0
   30.8319   -6.3254    0.0000 H   0  0  0  0  0  0  0  0  0  0  0  0
   32.2007   -9.6975    0.0000 H   0  0  0  0  0  0  0  0  0  0  0  0
   34.4071   -8.3257    0.0000 H   0  0  0  0  0  0  0  0  0  0  0  0
   34.4888   -3.7745    0.0000 H   0  0  0  0  0  0  0  0  0  0  0  0
   35.1184   -0.4422    0.0000 H   0  0  0  0  0  0  0  0  0  0  0  0
   38.5051   -0.4576    0.0000 H   0  0  0  0  0  0  0  0  0  0  0  0
   37.7345    0.6079    0.0000 H   0  0  0  0  0  0  0  0  0  0  0  0
   35.8474    0.2113    0.0000 H   0  0  0  0  0  0  0  0  0  0  0  0
   37.4005   -0.2373    0.0000 H   0  0  0  0  0  0  0  0  0  0  0  0
   38.9042    0.8701    0.0000 H   0  0  0  0  0  0  0  0  0  0  0  0
   40.0880    0.9502    0.0000 H   0  0  0  0  0  0  0  0  0  0  0  0
   41.7879   -0.1174    0.0000 H   0  0  0  0  0  0  0  0  0  0  0  0
   42.2299   -1.2184    0.0000 H   0  0  0  0  0  0  0  0  0  0  0  0
   41.8854   -3.0539    0.0000 H   0  0  0  0  0  0  0  0  0  0  0  0
   38.8264   -4.0612    0.0000 H   0  0  0  0  0  0  0  0  0  0  0  0
   39.0202   -5.7905    0.0000 H   0  0  0  0  0  0  0  0  0  0  0  0
   42.3813   -5.1830    0.0000 H   0  0  0  0  0  0  0  0  0  0  0  0
   44.4068   -6.9628    0.0000 H   0  0  0  0  0  0  0  0  0  0  0  0
   43.2748   -5.5833    0.0000 H   0  0  0  0  0  0  0  0  0  0  0  0
   41.6267   -8.9655    0.0000 H   0  0  0  0  0  0  0  0  0  0  0  0
   44.7652  -10.6055    0.0000 H   0  0  0  0  0  0  0  0  0  0  0  0
   45.9271   -9.2513    0.0000 H   0  0  0  0  0  0  0  0  0  0  0  0
   44.9718   -7.7441    0.0000 H   0  0  0  0  0  0  0  0  0  0  0  0
   43.6372  -11.1525    0.0000 H   0  0  0  0  0  0  0  0  0  0  0  0
   41.8543  -11.2263    0.0000 H   0  0  0  0  0  0  0  0  0  0  0  0
   41.3270   -9.3715    0.0000 H   0  0  0  0  0  0  0  0  0  0  0  0
   39.3645   -9.7441    0.0000 H   0  0  0  0  0  0  0  0  0  0  0  0
  1  2  1  0
  2  3  1  0
  3  4  2  0
  4  5  1  0
  5  6  2  0
  6  7  1  0
  7  8  2  0
  7  9  1  0
  9 10  1  0
 10 11  1  0
 11 12  2  0
  9 13  1  0
 13 14  1  0
 14 15  2  0
 15 16  1  0
 16 17  2  0
 17 18  1  0
 16 19  1  0
 14 20  1  0
 20 21  1  0
 21 22  2  0
 22 23  1  0
 23 24  2  0
 24 25  1  0
 25 26  2  0
 25 27  1  0
  1 28  2  0
  1 29  1  0
 29 30  1  0
 30 31  1  0
 31 32  1  0
 32 33  2  0
 32 34  1  0
 34 35  1  0
 35 36  1  0
 36 37  1  0
 35 38  1  0
 38 39  2  0
 38 40  1  0
 40 41  1  0
 41 42  1  0
 42 43  1  0
 42 44  1  0
 41 45  1  0
 45 46  2  0
 45 47  1  0
 47 48  1  0
 48 49  1  0
 48 50  1  0
 50 51  2  0
 50 52  1  0
 52 53  1  0
 53 54  1  0
 54 55  1  0
 55 56  1  0
 55 57  1  0
 53 58  1  0
 58 59  2  0
 58 60  1  0
 60 61  1  0
 61 62  1  0
 62 63  1  0
 63 64  1  0
 64 65  1  0
 65 66  1  0
 66 67  2  3
 66 68  1  0
 61 69  1  0
 69 70  2  0
 69 71  1  0
 72 71  1  6
 72 73  1  0
 73 74  1  0
 74 75  1  0
 75 76  1  0
 72 77  1  0
 72 78  1  0
 78 79  2  0
 78 80  1  0
 80 81  1  0
 81 82  1  0
 82 83  1  0
 83 84  1  0
 83 85  1  0
 81 86  1  0
 86 87  2  0
 86 88  1  0
 88 89  1  0
 89 90  1  0
 90 91  1  0
 90 92  1  0
 92 93  1  0
 89 94  1  0
 94 95  2  0
 94 96  1  0
 96 97  1  0
 97 98  1  0
 98 99  1  0
 99100  1  0
100101  2  0
100102  1  0
 97103  1  0
103104  2  0
103105  1  0
105106  1  0
106107  1  0
107108  1  0
108109  1  0
109110  1  0
106111  1  0
106112  1  6
112113  2  0
112114  1  0
114115  1  0
115116  1  0
116117  1  0
117118  1  0
117119  1  0
115120  1  0
120121  2  0
120122  1  0
122123  1  0
123124  1  0
124125  1  0
123126  1  0
126127  2  0
126128  1  0
128129  1  0
129130  1  0
130131  1  0
131132  1  0
131133  2  0
129134  1  0
134135  2  0
134136  1  0
136137  1  0
137138  1  0
138139  1  0
138140  1  0
140141  1  0
137142  1  0
142143  2  0
142144  1  0
144145  1  0
145146  1  0
146147  1  0
146148  1  0
145149  1  0
149150  2  0
149151  1  0
151152  1  0
152153  1  0
153154  1  0
154155  1  0
155156  1  0
155157  2  0
152158  1  0
158159  2  0
158160  1  0
160161  1  0
161162  1  0
162163  1  0
163164  1  0
163165  2  0
161166  1  0
166167  2  0
166168  1  0
168169  1  0
169170  1  0
170171  1  0
171172  1  0
172173  1  0
172174  2  0
169175  1  0
175176  2  0
175177  1  0
177178  1  0
178179  1  0
179180  1  0
180181  1  0
181182  1  0
182183  1  0
178184  1  0
184185  2  0
184186  1  0
186187  1  0
187188  1  0
187189  1  0
189190  2  0
189191  1  0
191192  1  0
192193  1  0
193194  1  0
194195  1  0
195196  1  0
196197  2  0
196198  1  0
198199  1  0
199200  1  0
200201  1  0
201202  1  0
201203  1  0
199204  1  0
204205  2  0
204206  1  0
  8  3  1  0
195191  1  0
 11  6  1  0
 76110  2  0
 18 13  2  0
 22  9  1  0
 26 21  1  0
  2207  1  0
  4208  1  0
  5209  1  0
  8210  1  0
 15211  1  0
 17212  1  0
 18213  1  0
 19214  1  0
 23215  1  0
 24216  1  0
 26217  1  0
 27218  1  0
 29219  1  0
 30220  1  0
 30221  1  0
 31222  1  0
 31223  1  0
 34224  1  0
 35225  1  1
 36226  1  0
 36227  1  0
 37228  1  0
 40229  1  0
 41230  1  6
 42231  1  1
 43232  1  0
 44233  1  0
 44234  1  0
 44235  1  0
 47236  1  0
 48237  1  1
 49238  1  0
 49239  1  0
 49240  1  0
 52241  1  0
 53242  1  6
 54243  1  0
 54244  1  0
 55245  1  0
 56246  1  0
 56247  1  0
 56248  1  0
 57249  1  0
 57250  1  0
 57251  1  0
 60252  1  0
 61253  1  1
 62254  1  0
 62255  1  0
 63256  1  0
 63257  1  0
 64258  1  0
 64259  1  0
 65260  1  0
 67261  1  0
 68262  1  0
 68263  1  0
 71264  1  0
 73265  1  0
 73266  1  0
 74267  1  0
 74268  1  0
 75269  1  0
 75270  1  0
 76271  1  0
 77272  1  0
 77273  1  0
 77274  1  0
 80275  1  0
 81276  1  1
 82277  1  0
 82278  1  0
 83279  1  0
 84280  1  0
 84281  1  0
 84282  1  0
 85283  1  0
 85284  1  0
 85285  1  0
 88286  1  0
 89287  1  1
 90288  1  6
 91289  1  0
 91290  1  0
 91291  1  0
 92292  1  0
 92293  1  0
 93294  1  0
 93295  1  0
 93296  1  0
 96297  1  0
 97298  1  1
 98299  1  0
 98300  1  0
 99301  1  0
 99302  1  0
102303  1  0
105304  1  0
107305  1  0
107306  1  0
108307  1  0
108308  1  0
109309  1  0
109310  1  0
110311  1  0
111312  1  0
111313  1  0
111314  1  0
114315  1  0
115316  1  6
116317  1  0
116318  1  0
117319  1  0
118320  1  0
118321  1  0
118322  1  0
119323  1  0
119324  1  0
119325  1  0
122326  1  0
123327  1  1
124328  1  0
124329  1  0
125330  1  0
125331  1  0
125332  1  0
128333  1  0
129334  1  6
130335  1  0
130336  1  0
132337  1  0
132338  1  0
136339  1  0
137340  1  1
138341  1  1
139342  1  0
139343  1  0
139344  1  0
140345  1  0
140346  1  0
141347  1  0
141348  1  0
141349  1  0
144350  1  0
145351  1  6
146352  1  1
147353  1  0
148354  1  0
148355  1  0
148356  1  0
151357  1  0
152358  1  1
153359  1  0
153360  1  0
154361  1  0
154362  1  0
156363  1  0
156364  1  0
160365  1  0
161366  1  6
162367  1  0
162368  1  0
164369  1  0
164370  1  0
168371  1  0
169372  1  1
170373  1  0
170374  1  0
171375  1  0
171376  1  0
173377  1  0
173378  1  0
177379  1  0
178380  1  6
179381  1  0
179382  1  0
180383  1  0
180384  1  0
181385  1  0
181386  1  0
182387  1  0
182388  1  0
183389  1  0
183390  1  0
186391  1  0
187392  1  1
188393  1  0
188394  1  0
188395  1  0
192396  1  0
192397  1  0
193398  1  0
193399  1  0
194400  1  0
194401  1  0
195402  1  0
198403  1  0
199404  1  1
200405  1  0
200406  1  0
201407  1  0
202408  1  0
202409  1  0
202410  1  0
203411  1  0
203412  1  0
203413  1  0
206414  1  0
M  END
