
     RDKit          2D

284287  0  0  0  0  0  0  0  0999 V2000
   19.3557    9.8569    0.0000 N   0  0  0  0  0  0  0  0  0  0  0  0
   18.0160    9.1822    0.0000 C   0  0  0  0  0  0  0  0  0  0  0  0
   17.9304    7.6847    0.0000 C   0  0  0  0  0  0  0  0  0  0  0  0
   16.5907    7.0100    0.0000 C   0  0  0  0  0  0  0  0  0  0  0  0
   15.4462    7.9796    0.0000 O   0  0  0  0  0  0  0  0  0  0  0  0
   16.5051    5.5124    0.0000 N   0  0  0  0  0  0  0  0  0  0  0  0
   15.1654    4.8378    0.0000 C   0  0  0  0  0  0  0  0  0  0  0  0
   14.7337    6.2743    0.0000 C   0  0  0  0  0  0  0  0  0  0  0  0
   13.2737    6.6186    0.0000 C   0  0  0  0  0  0  0  0  0  0  0  0
   12.8419    8.0551    0.0000 C   0  0  0  0  0  0  0  0  0  0  0  0
   11.3820    8.3995    0.0000 C   0  0  0  0  0  0  0  0  0  0  0  0
   10.9502    9.8360    0.0000 N   0  0  0  0  0  0  0  0  0  0  0  0
   14.1373    3.7456    0.0000 C   0  0  0  0  0  0  0  0  0  0  0  0
   12.7302    4.2653    0.0000 O   0  0  0  0  0  0  0  0  0  0  0  0
   14.5690    2.3091    0.0000 N   0  0  0  0  0  0  0  0  0  0  0  0
   13.5409    1.2169    0.0000 C   0  0  0  0  0  0  0  0  0  0  0  0
   12.6438    2.4191    0.0000 C   0  0  0  0  0  0  0  0  0  0  0  0
   11.1541    2.2433    0.0000 C   0  0  0  0  0  0  0  0  0  0  0  0
   10.2571    3.4455    0.0000 C   0  0  0  0  0  0  0  0  0  0  0  0
    8.7674    3.2698    0.0000 N   0  0  0  0  0  0  0  0  0  0  0  0
   10.8497    4.8235    0.0000 O   0  0  0  0  0  0  0  0  0  0  0  0
   12.9482   -0.1611    0.0000 C   0  0  0  0  0  0  0  0  0  0  0  0
   11.4586   -0.3368    0.0000 O   0  0  0  0  0  0  0  0  0  0  0  0
   13.8453   -1.3633    0.0000 N   0  0  0  0  0  0  0  0  0  0  0  0
   13.2527   -2.7413    0.0000 C   0  0  0  0  0  0  0  0  0  0  0  0
   14.7126   -3.0856    0.0000 C   0  0  0  0  0  0  0  0  0  0  0  0
   15.7408   -1.9934    0.0000 C   0  0  0  0  0  0  0  0  0  0  0  0
   17.2007   -2.3377    0.0000 C   0  0  0  0  0  0  0  0  0  0  0  0
   18.2289   -1.2455    0.0000 C   0  0  0  0  0  0  0  0  0  0  0  0
   19.6889   -1.5899    0.0000 N   0  0  0  0  0  0  0  0  0  0  0  0
   12.2245   -3.8334    0.0000 C   0  0  0  0  0  0  0  0  0  0  0  0
   12.6319   -4.5186    0.0000 O   0  0  0  0  0  0  0  0  0  0  0  0
   10.7646   -3.4891    0.0000 N   0  0  0  0  0  0  0  0  0  0  0  0
    9.7364   -4.5813    0.0000 C   0  0  0  0  0  0  0  0  0  0  0  0
   10.9905   -5.4042    0.0000 C   0  0  0  0  0  0  0  0  0  0  0  0
   12.3302   -4.7295    0.0000 C   0  0  0  0  0  0  0  0  0  0  0  0
   13.5844   -5.5524    0.0000 C   0  0  0  0  0  0  0  0  0  0  0  0
   14.9241   -4.8778    0.0000 N   0  0  0  0  0  0  0  0  0  0  0  0
   16.1782   -5.7006    0.0000 C   0  0  0  0  0  0  0  0  0  0  0  0
   17.5179   -5.0260    0.0000 N   0  0  0  0  0  0  0  0  0  0  0  0
   16.0926   -7.1982    0.0000 N   0  0  0  0  0  0  0  0  0  0  0  0
    8.3967   -5.2560    0.0000 C   0  0  0  0  0  0  0  0  0  0  0  0
    8.8536   -6.6847    0.0000 O   0  0  0  0  0  0  0  0  0  0  0  0
    7.1426   -4.4331    0.0000 N   0  0  0  0  0  0  0  0  0  0  0  0
    5.8028   -5.1077    0.0000 C   0  0  0  0  0  0  0  0  0  0  0  0
    6.6999   -6.3099    0.0000 C   0  0  0  0  0  0  0  0  0  0  0  0
    8.1896   -6.1342    0.0000 C   0  0  0  0  0  0  0  0  0  0  0  0
    9.0866   -7.3364    0.0000 C   0  0  0  0  0  0  0  0  0  0  0  0
   10.5763   -7.1606    0.0000 C   0  0  0  0  0  0  0  0  0  0  0  0
   11.4733   -8.3628    0.0000 N   0  0  0  0  0  0  0  0  0  0  0  0
    4.3132   -5.2835    0.0000 C   0  0  0  0  0  0  0  0  0  0  0  0
    4.0716   -6.7639    0.0000 O   0  0  0  0  0  0  0  0  0  0  0  0
    3.4161   -4.0813    0.0000 N   0  0  0  0  0  0  0  0  0  0  0  0
    1.9265   -4.2570    0.0000 C   0  0  0  0  0  0  0  0  0  0  0  0
    2.3582   -5.6936    0.0000 C   0  0  0  0  0  0  0  0  0  0  0  0
    3.8182   -6.0379    0.0000 C   0  0  0  0  0  0  0  0  0  0  0  0
    4.2499   -7.4744    0.0000 C   0  0  0  0  0  0  0  0  0  0  0  0
    5.7099   -7.8187    0.0000 C   0  0  0  0  0  0  0  0  0  0  0  0
    6.7381   -6.7265    0.0000 C   0  0  0  0  0  0  0  0  0  0  0  0
    6.3063   -5.2900    0.0000 C   0  0  0  0  0  0  0  0  0  0  0  0
    4.8463   -4.9457    0.0000 C   0  0  0  0  0  0  0  0  0  0  0  0
    0.4665   -3.9127    0.0000 C   0  0  0  0  0  0  0  0  0  0  0  0
   -0.4209   -5.1221    0.0000 O   0  0  0  0  0  0  0  0  0  0  0  0
    0.0347   -2.4762    0.0000 N   0  0  0  0  0  0  0  0  0  0  0  0
   -1.4252   -2.1319    0.0000 C   0  0  0  0  0  0  0  0  0  0  0  0
   -1.5108   -3.6294    0.0000 C   0  0  0  0  0  0  0  0  0  0  0  0
   -0.3663   -4.5991    0.0000 O   0  0  0  0  0  0  0  0  0  0  0  0
   -2.6793   -1.3090    0.0000 C   0  0  0  0  0  0  0  0  0  0  0  0
   -3.6882   -2.4190    0.0000 O   0  0  0  0  0  0  0  0  0  0  0  0
   -2.5938    0.1886    0.0000 N   0  0  0  0  0  0  0  0  0  0  0  0
   -3.8479    1.0115    0.0000 C   0  0  0  0  0  0  0  0  0  0  0  0
   -4.0822   -0.4701    0.0000 C   0  0  0  0  0  0  0  0  0  0  0  0
   -4.7427   -1.8168    0.0000 C   0  0  0  0  0  0  0  0  0  0  0  0
   -5.7709   -2.9090    0.0000 C   0  0  0  0  0  0  0  0  0  0  0  0
   -7.0753   -3.6496    0.0000 C   0  0  0  0  0  0  0  0  0  0  0  0
   -2.5820    1.8162    0.0000 C   0  0  0  0  0  0  0  0  0  0  0  0
   -4.0607    2.4963    0.0000 C   0  0  0  0  0  0  0  0  0  0  0  0
   -2.6242    2.9281    0.0000 O   0  0  0  0  0  0  0  0  0  0  0  0
   -4.7018    3.8524    0.0000 N   0  0  0  0  0  0  0  0  0  0  0  0
   -5.7141    4.9593    0.0000 C   0  0  0  0  0  0  0  0  0  0  0  0
   -5.5540    6.4508    0.0000 C   0  0  0  0  0  0  0  0  0  0  0  0
   -4.1823    7.0578    0.0000 C   0  0  0  0  0  0  0  0  0  0  0  0
   -2.9707    6.1734    0.0000 C   0  0  0  0  0  0  0  0  0  0  0  0
   -1.5991    6.7805    0.0000 C   0  0  0  0  0  0  0  0  0  0  0  0
   -1.4389    8.2719    0.0000 C   0  0  0  0  0  0  0  0  0  0  0  0
   -2.6505    9.1563    0.0000 C   0  0  0  0  0  0  0  0  0  0  0  0
   -4.0222    8.5492    0.0000 C   0  0  0  0  0  0  0  0  0  0  0  0
   -7.0077    5.7187    0.0000 C   0  0  0  0  0  0  0  0  0  0  0  0
   -6.4496    7.1110    0.0000 O   0  0  0  0  0  0  0  0  0  0  0  0
   -8.4676    6.0630    0.0000 N   0  0  0  0  0  0  0  0  0  0  0  0
   -9.9642    5.9617    0.0000 C   0  0  0  0  0  0  0  0  0  0  0  0
  -11.0304    7.0168    0.0000 C   0  0  0  0  0  0  0  0  0  0  0  0
  -10.6498    8.4677    0.0000 C   0  0  0  0  0  0  0  0  0  0  0  0
   -9.2030    8.8635    0.0000 C   0  0  0  0  0  0  0  0  0  0  0  0
   -8.8223   10.3144    0.0000 C   0  0  0  0  0  0  0  0  0  0  0  0
   -9.8885   11.3695    0.0000 C   0  0  0  0  0  0  0  0  0  0  0  0
  -11.3354   10.9737    0.0000 C   0  0  0  0  0  0  0  0  0  0  0  0
  -11.7160    9.5228    0.0000 C   0  0  0  0  0  0  0  0  0  0  0  0
  -11.3644    5.4238    0.0000 C   0  0  0  0  0  0  0  0  0  0  0  0
  -12.1050    6.7282    0.0000 O   0  0  0  0  0  0  0  0  0  0  0  0
  -12.5439    4.4971    0.0000 N   0  0  0  0  0  0  0  0  0  0  0  0
  -13.3978    3.2638    0.0000 C   0  0  0  0  0  0  0  0  0  0  0  0
  -14.8875    3.0881    0.0000 C   0  0  0  0  0  0  0  0  0  0  0  0
  -15.7845    4.2903    0.0000 C   0  0  0  0  0  0  0  0  0  0  0  0
  -17.2742    4.1145    0.0000 C   0  0  0  0  0  0  0  0  0  0  0  0
  -18.1712    5.3167    0.0000 C   0  0  0  0  0  0  0  0  0  0  0  0
  -19.6609    5.1409    0.0000 N   0  0  0  0  0  0  0  0  0  0  0  0
  -13.8503    1.8337    0.0000 C   0  0  0  0  0  0  0  0  0  0  0  0
  -15.3319    2.0680    0.0000 O   0  0  0  0  0  0  0  0  0  0  0  0
  -13.8611    0.3337    0.0000 N   0  0  0  0  0  0  0  0  0  0  0  0
  -13.4293   -1.1028    0.0000 C   0  0  0  0  0  0  0  0  0  0  0  0
  -12.5933   -2.3482    0.0000 C   0  0  0  0  0  0  0  0  0  0  0  0
  -11.4273   -3.2919    0.0000 C   0  0  0  0  0  0  0  0  0  0  0  0
  -10.0350   -3.8500    0.0000 C   0  0  0  0  0  0  0  0  0  0  0  0
   -8.5401   -3.9728    0.0000 C   0  0  0  0  0  0  0  0  0  0  0  0
  -14.9163   -0.9055    0.0000 C   0  0  0  0  0  0  0  0  0  0  0  0
  -14.2207   -2.3770    0.0000 C   0  0  0  0  0  0  0  0  0  0  0  0
  -13.8539   -3.8315    0.0000 O   0  0  0  0  0  0  0  0  0  0  0  0
  -15.7199   -2.3288    0.0000 N   0  0  0  0  0  0  0  0  0  0  0  0
  -16.5113   -3.6031    0.0000 C   0  0  0  0  0  0  0  0  0  0  0  0
  -16.8191   -5.0711    0.0000 C   0  0  0  0  0  0  0  0  0  0  0  0
  -18.2444   -5.5386    0.0000 C   0  0  0  0  0  0  0  0  0  0  0  0
  -18.5522   -7.0067    0.0000 C   0  0  0  0  0  0  0  0  0  0  0  0
  -19.7436   -5.4904    0.0000 C   0  0  0  0  0  0  0  0  0  0  0  0
  -18.0105   -3.5548    0.0000 C   0  0  0  0  0  0  0  0  0  0  0  0
  -18.7184   -2.2324    0.0000 O   0  0  0  0  0  0  0  0  0  0  0  0
  -18.8019   -4.8291    0.0000 N   0  0  0  0  0  0  0  0  0  0  0  0
  -20.3011   -4.7809    0.0000 C   0  0  0  0  0  0  0  0  0  0  0  0
  -21.6934   -4.2228    0.0000 C   0  0  0  0  0  0  0  0  0  0  0  0
  -21.9063   -2.7380    0.0000 C   0  0  0  0  0  0  0  0  0  0  0  0
  -21.0925   -6.0551    0.0000 C   0  0  0  0  0  0  0  0  0  0  0  0
  -22.5864   -6.1900    0.0000 O   0  0  0  0  0  0  0  0  0  0  0  0
  -20.5511   -7.4540    0.0000 O   0  0  0  0  0  0  0  0  0  0  0  0
   19.4413   11.3544    0.0000 H   0  0  0  0  0  0  0  0  0  0  0  0
   20.6099    9.0340    0.0000 H   0  0  0  0  0  0  0  0  0  0  0  0
   17.5842   10.6187    0.0000 H   0  0  0  0  0  0  0  0  0  0  0  0
   16.5263    9.0065    0.0000 H   0  0  0  0  0  0  0  0  0  0  0  0
   19.4201    7.8604    0.0000 H   0  0  0  0  0  0  0  0  0  0  0  0
   18.3622    6.2481    0.0000 H   0  0  0  0  0  0  0  0  0  0  0  0
   17.7593    4.6895    0.0000 H   0  0  0  0  0  0  0  0  0  0  0  0
   16.0625    3.6356    0.0000 H   0  0  0  0  0  0  0  0  0  0  0  0
   14.8192    7.7719    0.0000 H   0  0  0  0  0  0  0  0  0  0  0  0
   16.1365    6.8053    0.0000 H   0  0  0  0  0  0  0  0  0  0  0  0
   11.8166    6.2626    0.0000 H   0  0  0  0  0  0  0  0  0  0  0  0
   13.1881    5.1211    0.0000 H   0  0  0  0  0  0  0  0  0  0  0  0
   13.1094    9.5311    0.0000 H   0  0  0  0  0  0  0  0  0  0  0  0
   14.2991    8.4112    0.0000 H   0  0  0  0  0  0  0  0  0  0  0  0
    9.8923    8.2237    0.0000 H   0  0  0  0  0  0  0  0  0  0  0  0
   11.1145    6.9235    0.0000 H   0  0  0  0  0  0  0  0  0  0  0  0
    9.4903   10.1803    0.0000 H   0  0  0  0  0  0  0  0  0  0  0  0
   11.0358   11.3335    0.0000 H   0  0  0  0  0  0  0  0  0  0  0  0
   12.4073   10.1920    0.0000 H   0  0  0  0  0  0  0  0  0  0  0  0
   16.0290    1.9648    0.0000 H   0  0  0  0  0  0  0  0  0  0  0  0
   14.7950    0.3940    0.0000 H   0  0  0  0  0  0  0  0  0  0  0  0
   12.0401    3.7923    0.0000 H   0  0  0  0  0  0  0  0  0  0  0  0
   13.7805    3.3979    0.0000 H   0  0  0  0  0  0  0  0  0  0  0  0
    9.8144    1.5687    0.0000 H   0  0  0  0  0  0  0  0  0  0  0  0
   11.5859    0.8068    0.0000 H   0  0  0  0  0  0  0  0  0  0  0  0
    7.8704    4.4720    0.0000 H   0  0  0  0  0  0  0  0  0  0  0  0
    8.1748    1.8918    0.0000 H   0  0  0  0  0  0  0  0  0  0  0  0
   15.3024   -1.0072    0.0000 H   0  0  0  0  0  0  0  0  0  0  0  0
   11.9985   -1.9184    0.0000 H   0  0  0  0  0  0  0  0  0  0  0  0
   15.8571   -4.0552    0.0000 H   0  0  0  0  0  0  0  0  0  0  0  0
   14.4711   -4.5660    0.0000 H   0  0  0  0  0  0  0  0  0  0  0  0
   16.1610   -0.5535    0.0000 H   0  0  0  0  0  0  0  0  0  0  0  0
   14.8650   -0.7756    0.0000 H   0  0  0  0  0  0  0  0  0  0  0  0
   18.3452   -3.3074    0.0000 H   0  0  0  0  0  0  0  0  0  0  0  0
   16.7805   -3.7777    0.0000 H   0  0  0  0  0  0  0  0  0  0  0  0
   18.8215    0.1324    0.0000 H   0  0  0  0  0  0  0  0  0  0  0  0
   17.0844   -0.2759    0.0000 H   0  0  0  0  0  0  0  0  0  0  0  0
   20.7170   -0.4977    0.0000 H   0  0  0  0  0  0  0  0  0  0  0  0
   20.9430   -2.4128    0.0000 H   0  0  0  0  0  0  0  0  0  0  0  0
   19.2686   -3.0298    0.0000 H   0  0  0  0  0  0  0  0  0  0  0  0
   10.3328   -2.0526    0.0000 H   0  0  0  0  0  0  0  0  0  0  0  0
    8.8393   -3.3791    0.0000 H   0  0  0  0  0  0  0  0  0  0  0  0
   11.8876   -6.6064    0.0000 H   0  0  0  0  0  0  0  0  0  0  0  0
    9.8369   -6.3629    0.0000 H   0  0  0  0  0  0  0  0  0  0  0  0
   13.3584   -3.6373    0.0000 H   0  0  0  0  0  0  0  0  0  0  0  0
   11.7507   -3.3460    0.0000 H   0  0  0  0  0  0  0  0  0  0  0  0
   14.4814   -6.7546    0.0000 H   0  0  0  0  0  0  0  0  0  0  0  0
   12.8510   -6.8609    0.0000 H   0  0  0  0  0  0  0  0  0  0  0  0
   15.3695   -3.4454    0.0000 H   0  0  0  0  0  0  0  0  0  0  0  0
   18.7721   -5.8489    0.0000 H   0  0  0  0  0  0  0  0  0  0  0  0
   17.6035   -3.5284    0.0000 H   0  0  0  0  0  0  0  0  0  0  0  0
   17.3468   -8.0211    0.0000 H   0  0  0  0  0  0  0  0  0  0  0  0
   14.7529   -7.8729    0.0000 H   0  0  0  0  0  0  0  0  0  0  0  0
    7.2281   -2.9355    0.0000 H   0  0  0  0  0  0  0  0  0  0  0  0
    5.3711   -3.6712    0.0000 H   0  0  0  0  0  0  0  0  0  0  0  0
    6.9533   -7.7884    0.0000 H   0  0  0  0  0  0  0  0  0  0  0  0
    5.3602   -6.9846    0.0000 H   0  0  0  0  0  0  0  0  0  0  0  0
    9.4370   -5.3012    0.0000 H   0  0  0  0  0  0  0  0  0  0  0  0
    8.3014   -4.6383    0.0000 H   0  0  0  0  0  0  0  0  0  0  0  0
    9.3401   -8.8148    0.0000 H   0  0  0  0  0  0  0  0  0  0  0  0
    7.8391   -8.1693    0.0000 H   0  0  0  0  0  0  0  0  0  0  0  0
   12.0394   -6.8302    0.0000 H   0  0  0  0  0  0  0  0  0  0  0  0
   10.1445   -5.7241    0.0000 H   0  0  0  0  0  0  0  0  0  0  0  0
   12.9630   -8.1870    0.0000 H   0  0  0  0  0  0  0  0  0  0  0  0
   11.9051   -9.7993    0.0000 H   0  0  0  0  0  0  0  0  0  0  0  0
   10.2258   -9.1957    0.0000 H   0  0  0  0  0  0  0  0  0  0  0  0
    3.8363   -2.6413    0.0000 H   0  0  0  0  0  0  0  0  0  0  0  0
    2.0120   -2.7595    0.0000 H   0  0  0  0  0  0  0  0  0  0  0  0
    2.2726   -7.1911    0.0000 H   0  0  0  0  0  0  0  0  0  0  0  0
    0.8686   -5.8693    0.0000 H   0  0  0  0  0  0  0  0  0  0  0  0
    3.2218   -8.5666    0.0000 H   0  0  0  0  0  0  0  0  0  0  0  0
    6.1417   -9.2552    0.0000 H   0  0  0  0  0  0  0  0  0  0  0  0
    8.1451   -7.2463    0.0000 H   0  0  0  0  0  0  0  0  0  0  0  0
    7.4599   -4.3313    0.0000 H   0  0  0  0  0  0  0  0  0  0  0  0
    4.5929   -3.4673    0.0000 H   0  0  0  0  0  0  0  0  0  0  0  0
    1.0629   -1.3840    0.0000 H   0  0  0  0  0  0  0  0  0  0  0  0
   -0.8326   -0.7539    0.0000 H   0  0  0  0  0  0  0  0  0  0  0  0
   -2.1034   -5.0074    0.0000 H   0  0  0  0  0  0  0  0  0  0  0  0
   -2.9707   -3.2851    0.0000 H   0  0  0  0  0  0  0  0  0  0  0  0
   -0.3422   -5.9499    0.0000 H   0  0  0  0  0  0  0  0  0  0  0  0
   -1.1818    0.6949    0.0000 H   0  0  0  0  0  0  0  0  0  0  0  0
   -2.5825   -0.4362    0.0000 H   0  0  0  0  0  0  0  0  0  0  0  0
   -3.2743   -1.7340    0.0000 H   0  0  0  0  0  0  0  0  0  0  0  0
   -3.4417   -2.5634    0.0000 H   0  0  0  0  0  0  0  0  0  0  0  0
   -4.0053   -3.1231    0.0000 H   0  0  0  0  0  0  0  0  0  0  0  0
   -4.4225   -3.5663    0.0000 H   0  0  0  0  0  0  0  0  0  0  0  0
   -5.6323   -4.4026    0.0000 H   0  0  0  0  0  0  0  0  0  0  0  0
   -6.5374   -5.0499    0.0000 H   0  0  0  0  0  0  0  0  0  0  0  0
   -1.1775    1.2895    0.0000 H   0  0  0  0  0  0  0  0  0  0  0  0
   -1.6677    3.0053    0.0000 H   0  0  0  0  0  0  0  0  0  0  0  0
   -3.2964    3.1351    0.0000 H   0  0  0  0  0  0  0  0  0  0  0  0
   -3.3637    4.5304    0.0000 H   0  0  0  0  0  0  0  0  0  0  0  0
   -4.2888    5.4268    0.0000 H   0  0  0  0  0  0  0  0  0  0  0  0
   -5.9136    7.9070    0.0000 H   0  0  0  0  0  0  0  0  0  0  0  0
   -7.0306    6.7146    0.0000 H   0  0  0  0  0  0  0  0  0  0  0  0
   -2.9479    4.6736    0.0000 H   0  0  0  0  0  0  0  0  0  0  0  0
   -0.3875    5.8961    0.0000 H   0  0  0  0  0  0  0  0  0  0  0  0
   -0.0673    8.8789    0.0000 H   0  0  0  0  0  0  0  0  0  0  0  0
   -2.4904   10.6477    0.0000 H   0  0  0  0  0  0  0  0  0  0  0  0
   -5.2337    9.4336    0.0000 H   0  0  0  0  0  0  0  0  0  0  0  0
   -8.1634    7.5318    0.0000 H   0  0  0  0  0  0  0  0  0  0  0  0
   -9.4410    7.3675    0.0000 H   0  0  0  0  0  0  0  0  0  0  0  0
  -12.3932    7.6436    0.0000 H   0  0  0  0  0  0  0  0  0  0  0  0
  -12.1573    6.0268    0.0000 H   0  0  0  0  0  0  0  0  0  0  0  0
   -8.0161    7.9463    0.0000 H   0  0  0  0  0  0  0  0  0  0  0  0
   -7.3755   10.7103    0.0000 H   0  0  0  0  0  0  0  0  0  0  0  0
   -9.5079   12.8204    0.0000 H   0  0  0  0  0  0  0  0  0  0  0  0
  -12.4016   12.0288    0.0000 H   0  0  0  0  0  0  0  0  0  0  0  0
  -13.1628    9.1270    0.0000 H   0  0  0  0  0  0  0  0  0  0  0  0
  -13.6361    5.5252    0.0000 H   0  0  0  0  0  0  0  0  0  0  0  0
  -14.0082    4.6340    0.0000 H   0  0  0  0  0  0  0  0  0  0  0  0
  -16.1350    2.2551    0.0000 H   0  0  0  0  0  0  0  0  0  0  0  0
  -14.8161    1.5898    0.0000 H   0  0  0  0  0  0  0  0  0  0  0  0
  -16.0380    5.7687    0.0000 H   0  0  0  0  0  0  0  0  0  0  0  0
  -14.5370    5.1232    0.0000 H   0  0  0  0  0  0  0  0  0  0  0  0
  -18.5217    3.2816    0.0000 H   0  0  0  0  0  0  0  0  0  0  0  0
  -17.0207    2.6361    0.0000 H   0  0  0  0  0  0  0  0  0  0  0  0
  -18.6030    6.7532    0.0000 H   0  0  0  0  0  0  0  0  0  0  0  0
  -16.9238    6.1496    0.0000 H   0  0  0  0  0  0  0  0  0  0  0  0
  -20.5580    6.3431    0.0000 H   0  0  0  0  0  0  0  0  0  0  0  0
  -21.0006    4.4663    0.0000 H   0  0  0  0  0  0  0  0  0  0  0  0
  -19.4075    3.6625    0.0000 H   0  0  0  0  0  0  0  0  0  0  0  0
  -15.3459    0.1209    0.0000 H   0  0  0  0  0  0  0  0  0  0  0  0
  -12.9739   -3.7991    0.0000 H   0  0  0  0  0  0  0  0  0  0  0  0
  -13.9680   -2.9485    0.0000 H   0  0  0  0  0  0  0  0  0  0  0  0
  -11.5465   -4.7871    0.0000 H   0  0  0  0  0  0  0  0  0  0  0  0
  -12.5640   -4.2707    0.0000 H   0  0  0  0  0  0  0  0  0  0  0  0
   -9.5322   -5.2632    0.0000 H   0  0  0  0  0  0  0  0  0  0  0  0
  -10.9816   -5.0136    0.0000 H   0  0  0  0  0  0  0  0  0  0  0  0
   -8.4388   -5.4694    0.0000 H   0  0  0  0  0  0  0  0  0  0  0  0
  -16.0912   -1.8381    0.0000 H   0  0  0  0  0  0  0  0  0  0  0  0
  -16.1516   -0.0547    0.0000 H   0  0  0  0  0  0  0  0  0  0  0  0
  -14.8233    0.5916    0.0000 H   0  0  0  0  0  0  0  0  0  0  0  0
  -16.5837   -1.1025    0.0000 H   0  0  0  0  0  0  0  0  0  0  0  0
  -15.1190   -4.1611    0.0000 H   0  0  0  0  0  0  0  0  0  0  0  0
  -16.4269   -6.5189    0.0000 H   0  0  0  0  0  0  0  0  0  0  0  0
  -15.3199   -5.1194    0.0000 H   0  0  0  0  0  0  0  0  0  0  0  0
  -19.1296   -4.3276    0.0000 H   0  0  0  0  0  0  0  0  0  0  0  0
  -19.8221   -7.8051    0.0000 H   0  0  0  0  0  0  0  0  0  0  0  0
  -18.3394   -8.4915    0.0000 H   0  0  0  0  0  0  0  0  0  0  0  0
  -17.0701   -7.2373    0.0000 H   0  0  0  0  0  0  0  0  0  0  0  0
  -20.7505   -4.3785    0.0000 H   0  0  0  0  0  0  0  0  0  0  0  0
  -20.9067   -6.4377    0.0000 H   0  0  0  0  0  0  0  0  0  0  0  0
  -19.7134   -6.9901    0.0000 H   0  0  0  0  0  0  0  0  0  0  0  0
  -18.4351   -6.2836    0.0000 H   0  0  0  0  0  0  0  0  0  0  0  0
  -19.8166   -3.3613    0.0000 H   0  0  0  0  0  0  0  0  0  0  0  0
  -23.1927   -4.1746    0.0000 H   0  0  0  0  0  0  0  0  0  0  0  0
  -22.3473   -5.5728    0.0000 H   0  0  0  0  0  0  0  0  0  0  0  0
  -23.2986   -2.1799    0.0000 H   0  0  0  0  0  0  0  0  0  0  0  0
  -21.5985   -1.2699    0.0000 H   0  0  0  0  0  0  0  0  0  0  0  0
  -20.4124   -2.6031    0.0000 H   0  0  0  0  0  0  0  0  0  0  0  0
  1  2  1  0
  2  3  1  0
  3  4  1  0
  4  5  2  0
  4  6  1  0
  6  7  1  0
  7  8  1  0
  8  9  1  0
  9 10  1  0
 10 11  1  0
 11 12  1  0
  7 13  1  0
 13 14  2  0
 13 15  1  0
 15 16  1  0
 16 17  1  0
 17 18  1  0
 18 19  1  0
 19 20  1  0
 19 21  2  0
 16 22  1  0
 22 23  2  0
 22 24  1  0
 24 25  1  0
 25 26  1  0
 26 27  1  0
 27 28  1  0
 28 29  1  0
 29 30  1  0
 25 31  1  0
 31 32  2  0
 31 33  1  0
 33 34  1  0
 34 35  1  0
 35 36  1  0
 36 37  1  0
 37 38  1  0
 38 39  1  0
 39 40  2  3
 39 41  1  0
 34 42  1  0
 42 43  2  0
 42 44  1  0
 44 45  1  0
 45 46  1  0
 46 47  1  0
 47 48  1  0
 48 49  1  0
 49 50  1  0
 45 51  1  0
 51 52  2  0
 51 53  1  0
 53 54  1  0
 54 55  1  0
 55 56  1  0
 56 57  2  0
 57 58  1  0
 58 59  2  0
 59 60  1  0
 60 61  2  0
 54 62  1  0
 62 63  2  0
 62 64  1  0
 64 65  1  0
 65 66  1  0
 66 67  1  0
 65 68  1  0
 68 69  2  0
 68 70  1  0
 71 70  1  1
 71 72  1  0
 72 73  1  0
 73 74  1  0
 74 75  1  0
 71 76  1  0
 71 77  1  0
 77 78  2  0
 77 79  1  0
 79 80  1  0
 80 81  1  0
 81 82  1  0
 82 83  2  0
 83 84  1  0
 84 85  2  0
 85 86  1  0
 86 87  2  0
 80 88  1  0
 88 89  2  0
 88 90  1  0
 90 91  1  0
 91 92  1  0
 92 93  1  0
 93 94  2  0
 94 95  1  0
 95 96  2  0
 96 97  1  0
 97 98  2  0
 91 99  1  0
 99100  2  0
 99101  1  0
101102  1  0
102103  1  0
103104  1  0
104105  1  0
105106  1  0
106107  1  0
102108  1  0
108109  2  0
108110  1  0
110111  1  0
111112  1  0
112113  1  0
113114  1  0
114115  1  0
111116  1  0
111117  1  1
117118  2  0
117119  1  0
119120  1  0
120121  1  0
121122  1  0
122123  1  0
122124  1  0
120125  1  0
125126  2  0
125127  1  0
127128  1  0
128129  1  0
129130  1  0
128131  1  0
131132  2  0
131133  1  0
 61 56  1  0
 87 82  1  0
 98 93  1  0
 75115  2  0
  1134  1  0
  1135  1  0
  2136  1  0
  2137  1  0
  3138  1  0
  3139  1  0
  6140  1  0
  7141  1  6
  8142  1  0
  8143  1  0
  9144  1  0
  9145  1  0
 10146  1  0
 10147  1  0
 11148  1  0
 11149  1  0
 12150  1  0
 12151  1  0
 12152  1  0
 15153  1  0
 16154  1  6
 17155  1  0
 17156  1  0
 18157  1  0
 18158  1  0
 20159  1  0
 20160  1  0
 24161  1  0
 25162  1  1
 26163  1  0
 26164  1  0
 27165  1  0
 27166  1  0
 28167  1  0
 28168  1  0
 29169  1  0
 29170  1  0
 30171  1  0
 30172  1  0
 30173  1  0
 33174  1  0
 34175  1  1
 35176  1  0
 35177  1  0
 36178  1  0
 36179  1  0
 37180  1  0
 37181  1  0
 38182  1  0
 40183  1  0
 40184  1  0
 41185  1  0
 41186  1  0
 44187  1  0
 45188  1  1
 46189  1  0
 46190  1  0
 47191  1  0
 47192  1  0
 48193  1  0
 48194  1  0
 49195  1  0
 49196  1  0
 50197  1  0
 50198  1  0
 50199  1  0
 53200  1  0
 54201  1  1
 55202  1  0
 55203  1  0
 57204  1  0
 58205  1  0
 59206  1  0
 60207  1  0
 61208  1  0
 64209  1  0
 65210  1  1
 66211  1  0
 66212  1  0
 67213  1  0
 70214  1  0
 72215  1  0
 72216  1  0
 73217  1  0
 73218  1  0
 74219  1  0
 74220  1  0
 75221  1  0
 76222  1  0
 76223  1  0
 76224  1  0
 79225  1  0
 80226  1  6
 81227  1  0
 81228  1  0
 83229  1  0
 84230  1  0
 85231  1  0
 86232  1  0
 87233  1  0
 90234  1  0
 91235  1  6
 92236  1  0
 92237  1  0
 94238  1  0
 95239  1  0
 96240  1  0
 97241  1  0
 98242  1  0
101243  1  0
102244  1  6
103245  1  0
103246  1  0
104247  1  0
104248  1  0
105249  1  0
105250  1  0
106251  1  0
106252  1  0
107253  1  0
107254  1  0
107255  1  0
110256  1  0
112257  1  0
112258  1  0
113259  1  0
113260  1  0
114261  1  0
114262  1  0
115263  1  0
116264  1  0
116265  1  0
116266  1  0
119267  1  0
120268  1  1
121269  1  0
121270  1  0
122271  1  0
123272  1  0
123273  1  0
123274  1  0
124275  1  0
124276  1  0
124277  1  0
127278  1  0
128279  1  6
129280  1  0
129281  1  0
130282  1  0
130283  1  0
130284  1  0
M  CHG  6  12   1  30   1  40   1  50   1 107   1 133  -1
M  END
