
     RDKit          2D

281281  0  0  0  0  0  0  0  0999 V2000
  -22.4545   -3.6766    0.0000 N   0  0  0  0  0  0  0  0  0  0  0  0
  -21.1000   -3.0321    0.0000 C   0  0  0  0  0  0  0  0  0  0  0  0
  -19.8646   -3.8829    0.0000 C   0  0  0  0  0  0  0  0  0  0  0  0
  -18.5101   -3.2385    0.0000 C   0  0  0  0  0  0  0  0  0  0  0  0
  -18.5741   -1.7398    0.0000 O   0  0  0  0  0  0  0  0  0  0  0  0
  -17.2747   -4.0893    0.0000 N   0  0  0  0  0  0  0  0  0  0  0  0
  -15.9202   -3.4448    0.0000 C   0  0  0  0  0  0  0  0  0  0  0  0
  -16.7901   -2.2228    0.0000 C   0  0  0  0  0  0  0  0  0  0  0  0
  -16.1668   -0.8585    0.0000 C   0  0  0  0  0  0  0  0  0  0  0  0
  -17.0366    0.3636    0.0000 C   0  0  0  0  0  0  0  0  0  0  0  0
  -16.4133    1.7279    0.0000 N   0  0  0  0  0  0  0  0  0  0  0  0
  -17.2832    2.9499    0.0000 C   0  0  0  0  0  0  0  0  0  0  0  0
  -16.6598    4.3143    0.0000 N   0  0  0  0  0  0  0  0  0  0  0  0
  -18.7764    2.8076    0.0000 N   0  0  0  0  0  0  0  0  0  0  0  0
  -14.4270   -3.3025    0.0000 C   0  0  0  0  0  0  0  0  0  0  0  0
  -13.9746   -1.8723    0.0000 O   0  0  0  0  0  0  0  0  0  0  0  0
  -13.5571   -4.5245    0.0000 N   0  0  0  0  0  0  0  0  0  0  0  0
  -12.0639   -4.3821    0.0000 C   0  0  0  0  0  0  0  0  0  0  0  0
  -12.4633   -2.9363    0.0000 C   0  0  0  0  0  0  0  0  0  0  0  0
  -11.4110   -1.8674    0.0000 C   0  0  0  0  0  0  0  0  0  0  0  0
  -11.8104   -0.4216    0.0000 N   0  0  0  0  0  0  0  0  0  0  0  0
  -10.6696   -2.1603    0.0000 O   0  0  0  0  0  0  0  0  0  0  0  0
  -10.6120   -4.7591    0.0000 C   0  0  0  0  0  0  0  0  0  0  0  0
   -9.5596   -3.6902    0.0000 O   0  0  0  0  0  0  0  0  0  0  0  0
  -10.2125   -6.2049    0.0000 N   0  0  0  0  0  0  0  0  0  0  0  0
   -8.7607   -6.5819    0.0000 C   0  0  0  0  0  0  0  0  0  0  0  0
   -9.3840   -7.9462    0.0000 C   0  0  0  0  0  0  0  0  0  0  0  0
  -10.8835   -7.9055    0.0000 C   0  0  0  0  0  0  0  0  0  0  0  0
   -9.5032   -9.4415    0.0000 C   0  0  0  0  0  0  0  0  0  0  0  0
  -10.8577  -10.0860    0.0000 C   0  0  0  0  0  0  0  0  0  0  0  0
   -7.2675   -6.4396    0.0000 C   0  0  0  0  0  0  0  0  0  0  0  0
   -6.5530   -7.7585    0.0000 O   0  0  0  0  0  0  0  0  0  0  0  0
   -6.6441   -5.0752    0.0000 N   0  0  0  0  0  0  0  0  0  0  0  0
   -5.1509   -4.9329    0.0000 C   0  0  0  0  0  0  0  0  0  0  0  0
   -4.1333   -6.0349    0.0000 C   0  0  0  0  0  0  0  0  0  0  0  0
   -2.9255   -6.9245    0.0000 C   0  0  0  0  0  0  0  0  0  0  0  0
   -1.5713   -7.5694    0.0000 C   0  0  0  0  0  0  0  0  0  0  0  0
   -0.1194   -7.9464    0.0000 C   0  0  0  0  0  0  0  0  0  0  0  0
    1.3776   -8.0418    0.0000 C   0  0  0  0  0  0  0  0  0  0  0  0
    2.8655   -7.8521    0.0000 C   0  0  0  0  0  0  0  0  0  0  0  0
    4.2907   -7.3843    0.0000 C   0  0  0  0  0  0  0  0  0  0  0  0
   -5.8532   -6.2583    0.0000 C   0  0  0  0  0  0  0  0  0  0  0  0
   -5.9415   -3.6582    0.0000 C   0  0  0  0  0  0  0  0  0  0  0  0
   -7.3567   -4.1552    0.0000 O   0  0  0  0  0  0  0  0  0  0  0  0
   -6.4766   -2.2569    0.0000 N   0  0  0  0  0  0  0  0  0  0  0  0
   -6.7368   -0.7796    0.0000 C   0  0  0  0  0  0  0  0  0  0  0  0
   -7.9449   -1.6688    0.0000 C   0  0  0  0  0  0  0  0  0  0  0  0
   -9.3189   -1.0671    0.0000 C   0  0  0  0  0  0  0  0  0  0  0  0
   -9.8986   -1.6144    0.0000 O   0  0  0  0  0  0  0  0  0  0  0  0
   -9.4849    0.4236    0.0000 O   0  0  0  0  0  0  0  0  0  0  0  0
   -6.7128    0.7202    0.0000 C   0  0  0  0  0  0  0  0  0  0  0  0
   -8.2035    0.8867    0.0000 O   0  0  0  0  0  0  0  0  0  0  0  0
   -6.4053    2.1884    0.0000 N   0  0  0  0  0  0  0  0  0  0  0  0
   -5.8256    3.5718    0.0000 C   0  0  0  0  0  0  0  0  0  0  0  0
   -7.3226    3.4769    0.0000 C   0  0  0  0  0  0  0  0  0  0  0  0
   -8.1532    4.7259    0.0000 C   0  0  0  0  0  0  0  0  0  0  0  0
   -9.6502    4.6310    0.0000 C   0  0  0  0  0  0  0  0  0  0  0  0
  -10.4809    5.8800    0.0000 N   0  0  0  0  0  0  0  0  0  0  0  0
  -11.9779    5.7851    0.0000 C   0  0  0  0  0  0  0  0  0  0  0  0
  -12.8086    7.0341    0.0000 N   0  0  0  0  0  0  0  0  0  0  0  0
  -12.6442    4.4412    0.0000 N   0  0  0  0  0  0  0  0  0  0  0  0
   -4.9945    4.8205    0.0000 C   0  0  0  0  0  0  0  0  0  0  0  0
   -6.1585    5.7665    0.0000 O   0  0  0  0  0  0  0  0  0  0  0  0
   -3.9421    5.8894    0.0000 N   0  0  0  0  0  0  0  0  0  0  0  0
   -2.7064    6.7398    0.0000 C   0  0  0  0  0  0  0  0  0  0  0  0
   -4.0171    7.4693    0.0000 C   0  0  0  0  0  0  0  0  0  0  0  0
   -3.8576    8.9608    0.0000 C   0  0  0  0  0  0  0  0  0  0  0  0
   -5.4982    7.7065    0.0000 C   0  0  0  0  0  0  0  0  0  0  0  0
   -6.0333    9.1078    0.0000 C   0  0  0  0  0  0  0  0  0  0  0  0
   -1.3322    7.3409    0.0000 C   0  0  0  0  0  0  0  0  0  0  0  0
   -1.6228    8.8125    0.0000 O   0  0  0  0  0  0  0  0  0  0  0  0
    0.1310    7.6712    0.0000 N   0  0  0  0  0  0  0  0  0  0  0  0
    1.6303    7.7185    0.0000 C   0  0  0  0  0  0  0  0  0  0  0  0
    0.9221    9.0408    0.0000 C   0  0  0  0  0  0  0  0  0  0  0  0
    1.7131   10.3152    0.0000 C   0  0  0  0  0  0  0  0  0  0  0  0
    1.0050   11.6375    0.0000 C   0  0  0  0  0  0  0  0  0  0  0  0
    1.7960   12.9120    0.0000 C   0  0  0  0  0  0  0  0  0  0  0  0
    1.0878   14.2343    0.0000 N   0  0  0  0  0  0  0  0  0  0  0  0
    3.1114    7.4812    0.0000 C   0  0  0  0  0  0  0  0  0  0  0  0
    3.6625    8.8763    0.0000 O   0  0  0  0  0  0  0  0  0  0  0  0
    4.5209    6.9680    0.0000 N   0  0  0  0  0  0  0  0  0  0  0  0
    5.8077    6.1972    0.0000 C   0  0  0  0  0  0  0  0  0  0  0  0
    5.9268    7.6925    0.0000 C   0  0  0  0  0  0  0  0  0  0  0  0
    7.2813    8.3370    0.0000 C   0  0  0  0  0  0  0  0  0  0  0  0
    7.4004    9.8322    0.0000 C   0  0  0  0  0  0  0  0  0  0  0  0
    8.7549   10.4767    0.0000 O   0  0  0  0  0  0  0  0  0  0  0  0
    6.1651   10.6830    0.0000 O   0  0  0  0  0  0  0  0  0  0  0  0
    6.9254    5.1969    0.0000 C   0  0  0  0  0  0  0  0  0  0  0  0
    8.1433    6.0726    0.0000 O   0  0  0  0  0  0  0  0  0  0  0  0
    7.8336    4.0031    0.0000 N   0  0  0  0  0  0  0  0  0  0  0  0
    8.4995    2.6590    0.0000 C   0  0  0  0  0  0  0  0  0  0  0  0
    9.4081    3.8525    0.0000 C   0  0  0  0  0  0  0  0  0  0  0  0
   10.8960    3.6624    0.0000 C   0  0  0  0  0  0  0  0  0  0  0  0
   11.8046    4.8559    0.0000 C   0  0  0  0  0  0  0  0  0  0  0  0
   12.2292    2.9748    0.0000 C   0  0  0  0  0  0  0  0  0  0  0  0
    8.8990    1.2132    0.0000 C   0  0  0  0  0  0  0  0  0  0  0  0
   10.3970    1.2914    0.0000 O   0  0  0  0  0  0  0  0  0  0  0  0
    9.0176   -0.2821    0.0000 N   0  0  0  0  0  0  0  0  0  0  0  0
    8.8511   -1.7728    0.0000 C   0  0  0  0  0  0  0  0  0  0  0  0
    8.4055   -3.2051    0.0000 C   0  0  0  0  0  0  0  0  0  0  0  0
    7.6969   -4.5272    0.0000 C   0  0  0  0  0  0  0  0  0  0  0  0
    6.7508   -5.6913    0.0000 C   0  0  0  0  0  0  0  0  0  0  0  0
    5.6016   -6.6552    0.0000 C   0  0  0  0  0  0  0  0  0  0  0  0
   10.0546   -2.6681    0.0000 C   0  0  0  0  0  0  0  0  0  0  0  0
   10.2607   -1.2601    0.0000 C   0  0  0  0  0  0  0  0  0  0  0  0
   10.6996    0.1743    0.0000 O   0  0  0  0  0  0  0  0  0  0  0  0
   11.4096   -2.2244    0.0000 N   0  0  0  0  0  0  0  0  0  0  0  0
   12.8193   -1.7116    0.0000 C   0  0  0  0  0  0  0  0  0  0  0  0
   13.9685   -0.7476    0.0000 C   0  0  0  0  0  0  0  0  0  0  0  0
   14.7187    0.5513    0.0000 O   0  0  0  0  0  0  0  0  0  0  0  0
   15.4300   -1.0853    0.0000 C   0  0  0  0  0  0  0  0  0  0  0  0
   13.9682   -2.6760    0.0000 C   0  0  0  0  0  0  0  0  0  0  0  0
   13.7075   -4.1532    0.0000 O   0  0  0  0  0  0  0  0  0  0  0  0
   15.3778   -2.1632    0.0000 N   0  0  0  0  0  0  0  0  0  0  0  0
   16.5267   -3.1276    0.0000 C   0  0  0  0  0  0  0  0  0  0  0  0
   17.2765   -4.4267    0.0000 C   0  0  0  0  0  0  0  0  0  0  0  0
   16.5263   -5.7257    0.0000 C   0  0  0  0  0  0  0  0  0  0  0  0
   17.2761   -7.0248    0.0000 C   0  0  0  0  0  0  0  0  0  0  0  0
   15.3770   -6.6896    0.0000 C   0  0  0  0  0  0  0  0  0  0  0  0
   17.9363   -2.6148    0.0000 C   0  0  0  0  0  0  0  0  0  0  0  0
   18.1970   -1.1376    0.0000 O   0  0  0  0  0  0  0  0  0  0  0  0
   19.0852   -3.5792    0.0000 N   0  0  0  0  0  0  0  0  0  0  0  0
   20.4949   -3.0664    0.0000 C   0  0  0  0  0  0  0  0  0  0  0  0
   21.6441   -2.1024    0.0000 C   0  0  0  0  0  0  0  0  0  0  0  0
   23.0535   -2.6156    0.0000 C   0  0  0  0  0  0  0  0  0  0  0  0
   22.3943   -0.8035    0.0000 C   0  0  0  0  0  0  0  0  0  0  0  0
   21.6445    0.4957    0.0000 C   0  0  0  0  0  0  0  0  0  0  0  0
   21.6438   -4.0307    0.0000 C   0  0  0  0  0  0  0  0  0  0  0  0
   23.1054   -3.6936    0.0000 O   0  0  0  0  0  0  0  0  0  0  0  0
   21.3830   -5.5079    0.0000 O   0  0  0  0  0  0  0  0  0  0  0  0
  -23.6898   -2.8258    0.0000 H   0  0  0  0  0  0  0  0  0  0  0  0
  -22.5736   -5.1719    0.0000 H   0  0  0  0  0  0  0  0  0  0  0  0
  -21.9698   -1.8101    0.0000 H   0  0  0  0  0  0  0  0  0  0  0  0
  -20.0476   -1.9633    0.0000 H   0  0  0  0  0  0  0  0  0  0  0  0
  -20.9170   -4.9518    0.0000 H   0  0  0  0  0  0  0  0  0  0  0  0
  -18.9947   -5.1050    0.0000 H   0  0  0  0  0  0  0  0  0  0  0  0
  -17.3938   -5.5845    0.0000 H   0  0  0  0  0  0  0  0  0  0  0  0
  -15.5208   -4.8906    0.0000 H   0  0  0  0  0  0  0  0  0  0  0  0
  -18.0255   -1.3720    0.0000 H   0  0  0  0  0  0  0  0  0  0  0  0
  -18.0699   -3.0052    0.0000 H   0  0  0  0  0  0  0  0  0  0  0  0
  -15.1144    0.2104    0.0000 H   0  0  0  0  0  0  0  0  0  0  0  0
  -14.9314   -1.7092    0.0000 H   0  0  0  0  0  0  0  0  0  0  0  0
  -18.2720    1.2144    0.0000 H   0  0  0  0  0  0  0  0  0  0  0  0
  -18.2115   -0.5691    0.0000 H   0  0  0  0  0  0  0  0  0  0  0  0
  -14.9201    1.8702    0.0000 H   0  0  0  0  0  0  0  0  0  0  0  0
  -17.5297    5.5363    0.0000 H   0  0  0  0  0  0  0  0  0  0  0  0
  -15.1666    4.4566    0.0000 H   0  0  0  0  0  0  0  0  0  0  0  0
  -19.6463    4.0296    0.0000 H   0  0  0  0  0  0  0  0  0  0  0  0
  -19.3997    1.4432    0.0000 H   0  0  0  0  0  0  0  0  0  0  0  0
  -14.1805   -5.8888    0.0000 H   0  0  0  0  0  0  0  0  0  0  0  0
  -12.1830   -5.8774    0.0000 H   0  0  0  0  0  0  0  0  0  0  0  0
  -13.1778   -1.6174    0.0000 H   0  0  0  0  0  0  0  0  0  0  0  0
  -13.9335   -3.2339    0.0000 H   0  0  0  0  0  0  0  0  0  0  0  0
  -10.7580    0.6472    0.0000 H   0  0  0  0  0  0  0  0  0  0  0  0
  -13.2623   -0.0447    0.0000 H   0  0  0  0  0  0  0  0  0  0  0  0
  -11.3874   -7.1375    0.0000 H   0  0  0  0  0  0  0  0  0  0  0  0
   -8.6416   -5.0866    0.0000 H   0  0  0  0  0  0  0  0  0  0  0  0
   -7.9322   -8.3232    0.0000 H   0  0  0  0  0  0  0  0  0  0  0  0
  -11.6846   -9.3662    0.0000 H   0  0  0  0  0  0  0  0  0  0  0  0
  -12.3291   -7.7116    0.0000 H   0  0  0  0  0  0  0  0  0  0  0  0
  -11.3020   -6.6500    0.0000 H   0  0  0  0  0  0  0  0  0  0  0  0
   -9.1037  -10.8873    0.0000 H   0  0  0  0  0  0  0  0  0  0  0  0
   -8.0099   -9.2992    0.0000 H   0  0  0  0  0  0  0  0  0  0  0  0
  -10.9768  -11.5812    0.0000 H   0  0  0  0  0  0  0  0  0  0  0  0
  -12.3509  -10.2283    0.0000 H   0  0  0  0  0  0  0  0  0  0  0  0
  -11.5951   -8.7798    0.0000 H   0  0  0  0  0  0  0  0  0  0  0  0
   -7.6565   -3.9684    0.0000 H   0  0  0  0  0  0  0  0  0  0  0  0
   -4.5721   -7.4693    0.0000 H   0  0  0  0  0  0  0  0  0  0  0  0
   -5.5104   -6.6296    0.0000 H   0  0  0  0  0  0  0  0  0  0  0  0
   -3.0850   -8.4160    0.0000 H   0  0  0  0  0  0  0  0  0  0  0  0
   -4.1652   -7.7690    0.0000 H   0  0  0  0  0  0  0  0  0  0  0  0
   -1.4455   -9.0641    0.0000 H   0  0  0  0  0  0  0  0  0  0  0  0
   -2.6287   -8.6333    0.0000 H   0  0  0  0  0  0  0  0  0  0  0  0
    0.2869   -9.3903    0.0000 H   0  0  0  0  0  0  0  0  0  0  0  0
   -0.9564   -9.1912    0.0000 H   0  0  0  0  0  0  0  0  0  0  0  0
    2.0498   -9.3827    0.0000 H   0  0  0  0  0  0  0  0  0  0  0  0
    0.7913   -9.4224    0.0000 H   0  0  0  0  0  0  0  0  0  0  0  0
    3.9176   -8.9213    0.0000 H   0  0  0  0  0  0  0  0  0  0  0  0
    2.5511   -9.3188    0.0000 H   0  0  0  0  0  0  0  0  0  0  0  0
    4.8919   -8.7586    0.0000 H   0  0  0  0  0  0  0  0  0  0  0  0
   -7.0530   -6.8795    0.0000 H   0  0  0  0  0  0  0  0  0  0  0  0
   -5.5195   -7.8047    0.0000 H   0  0  0  0  0  0  0  0  0  0  0  0
   -4.3494   -7.0042    0.0000 H   0  0  0  0  0  0  0  0  0  0  0  0
   -7.8629   -2.8296    0.0000 H   0  0  0  0  0  0  0  0  0  0  0  0
   -8.0700   -0.0920    0.0000 H   0  0  0  0  0  0  0  0  0  0  0  0
   -8.9220   -2.8069    0.0000 H   0  0  0  0  0  0  0  0  0  0  0  0
   -7.1422   -2.9359    0.0000 H   0  0  0  0  0  0  0  0  0  0  0  0
   -7.8812    2.4561    0.0000 H   0  0  0  0  0  0  0  0  0  0  0  0
   -6.4114    4.9527    0.0000 H   0  0  0  0  0  0  0  0  0  0  0  0
   -8.6968    2.8757    0.0000 H   0  0  0  0  0  0  0  0  0  0  0  0
   -7.3324    1.9769    0.0000 H   0  0  0  0  0  0  0  0  0  0  0  0
   -8.5066    6.1837    0.0000 H   0  0  0  0  0  0  0  0  0  0  0  0
   -6.9653    5.6417    0.0000 H   0  0  0  0  0  0  0  0  0  0  0  0
  -11.0245    4.0298    0.0000 H   0  0  0  0  0  0  0  0  0  0  0  0
   -9.4772    3.1410    0.0000 H   0  0  0  0  0  0  0  0  0  0  0  0
   -9.8146    7.2239    0.0000 H   0  0  0  0  0  0  0  0  0  0  0  0
  -14.3056    6.9392    0.0000 H   0  0  0  0  0  0  0  0  0  0  0  0
  -12.1422    8.3780    0.0000 H   0  0  0  0  0  0  0  0  0  0  0  0
  -14.1412    4.3464    0.0000 H   0  0  0  0  0  0  0  0  0  0  0  0
  -11.8136    3.1922    0.0000 H   0  0  0  0  0  0  0  0  0  0  0  0
   -4.9061    7.0386    0.0000 H   0  0  0  0  0  0  0  0  0  0  0  0
   -2.4527    8.2181    0.0000 H   0  0  0  0  0  0  0  0  0  0  0  0
   -4.8363    6.2127    0.0000 H   0  0  0  0  0  0  0  0  0  0  0  0
   -5.2502    9.8752    0.0000 H   0  0  0  0  0  0  0  0  0  0  0  0
   -3.5498   10.3865    0.0000 H   0  0  0  0  0  0  0  0  0  0  0  0
   -2.5461    9.0973    0.0000 H   0  0  0  0  0  0  0  0  0  0  0  0
   -6.9711    7.4229    0.0000 H   0  0  0  0  0  0  0  0  0  0  0  0
   -5.6577    6.2150    0.0000 H   0  0  0  0  0  0  0  0  0  0  0  0
   -7.5144    9.3451    0.0000 H   0  0  0  0  0  0  0  0  0  0  0  0
   -6.0569   10.6076    0.0000 H   0  0  0  0  0  0  0  0  0  0  0  0
   -4.6728    9.7395    0.0000 H   0  0  0  0  0  0  0  0  0  0  0  0
   -0.2386    9.1249    0.0000 H   0  0  0  0  0  0  0  0  0  0  0  0
    2.6430    8.8250    0.0000 H   0  0  0  0  0  0  0  0  0  0  0  0
   -0.1956   10.0411    0.0000 H   0  0  0  0  0  0  0  0  0  0  0  0
   -0.4464    8.4266    0.0000 H   0  0  0  0  0  0  0  0  0  0  0  0
    2.9966   11.0916    0.0000 H   0  0  0  0  0  0  0  0  0  0  0  0
    3.0397    9.6151    0.0000 H   0  0  0  0  0  0  0  0  0  0  0  0
   -0.2264   12.4942    0.0000 H   0  0  0  0  0  0  0  0  0  0  0  0
   -0.2785   10.8612    0.0000 H   0  0  0  0  0  0  0  0  0  0  0  0
    2.9752   13.8390    0.0000 H   0  0  0  0  0  0  0  0  0  0  0  0
    3.0273   12.0554    0.0000 H   0  0  0  0  0  0  0  0  0  0  0  0
    1.8789   15.5088    0.0000 H   0  0  0  0  0  0  0  0  0  0  0  0
   -0.0299   15.2346    0.0000 H   0  0  0  0  0  0  0  0  0  0  0  0
   -0.1956   13.4579    0.0000 H   0  0  0  0  0  0  0  0  0  0  0  0
    4.9959    8.3908    0.0000 H   0  0  0  0  0  0  0  0  0  0  0  0
    7.2579    6.5806    0.0000 H   0  0  0  0  0  0  0  0  0  0  0  0
    5.7066    9.1763    0.0000 H   0  0  0  0  0  0  0  0  0  0  0  0
    4.4435    7.9157    0.0000 H   0  0  0  0  0  0  0  0  0  0  0  0
    8.7746    8.4793    0.0000 H   0  0  0  0  0  0  0  0  0  0  0  0
    8.0188    7.0308    0.0000 H   0  0  0  0  0  0  0  0  0  0  0  0
    9.0025    4.9432    0.0000 H   0  0  0  0  0  0  0  0  0  0  0  0
    9.9268    2.1975    0.0000 H   0  0  0  0  0  0  0  0  0  0  0  0
    9.8538    5.2848    0.0000 H   0  0  0  0  0  0  0  0  0  0  0  0
    8.2810    4.8422    0.0000 H   0  0  0  0  0  0  0  0  0  0  0  0
   10.8102    2.1648    0.0000 H   0  0  0  0  0  0  0  0  0  0  0  0
   13.3046    4.8485    0.0000 H   0  0  0  0  0  0  0  0  0  0  0  0
   12.2503    6.2881    0.0000 H   0  0  0  0  0  0  0  0  0  0  0  0
   10.5653    5.7008    0.0000 H   0  0  0  0  0  0  0  0  0  0  0  0
   13.5806    3.6257    0.0000 H   0  0  0  0  0  0  0  0  0  0  0  0
   13.2468    1.8728    0.0000 H   0  0  0  0  0  0  0  0  0  0  0  0
   11.3206    1.7813    0.0000 H   0  0  0  0  0  0  0  0  0  0  0  0
   10.5092   -0.1232    0.0000 H   0  0  0  0  0  0  0  0  0  0  0  0
    9.9045   -3.1507    0.0000 H   0  0  0  0  0  0  0  0  0  0  0  0
    9.2754   -4.4271    0.0000 H   0  0  0  0  0  0  0  0  0  0  0  0
    9.1400   -4.9364    0.0000 H   0  0  0  0  0  0  0  0  0  0  0  0
    8.4815   -5.8056    0.0000 H   0  0  0  0  0  0  0  0  0  0  0  0
    8.1627   -6.1978    0.0000 H   0  0  0  0  0  0  0  0  0  0  0  0
    7.1042   -7.1490    0.0000 H   0  0  0  0  0  0  0  0  0  0  0  0
    6.4520   -7.8909    0.0000 H   0  0  0  0  0  0  0  0  0  0  0  0
    9.9833   -4.3325    0.0000 H   0  0  0  0  0  0  0  0  0  0  0  0
   11.2108   -3.5573    0.0000 H   0  0  0  0  0  0  0  0  0  0  0  0
   11.0147   -1.7649    0.0000 H   0  0  0  0  0  0  0  0  0  0  0  0
   11.3309   -3.7224    0.0000 H   0  0  0  0  0  0  0  0  0  0  0  0
   12.0695   -0.4125    0.0000 H   0  0  0  0  0  0  0  0  0  0  0  0
   12.8196    0.2167    0.0000 H   0  0  0  0  0  0  0  0  0  0  0  0
   16.2076    0.7339    0.0000 H   0  0  0  0  0  0  0  0  0  0  0  0
   16.6361   -0.4442    0.0000 H   0  0  0  0  0  0  0  0  0  0  0  0
   16.5269   -2.2253    0.0000 H   0  0  0  0  0  0  0  0  0  0  0  0
   15.3255   -2.7600    0.0000 H   0  0  0  0  0  0  0  0  0  0  0  0
   15.8166   -0.7288    0.0000 H   0  0  0  0  0  0  0  0  0  0  0  0
   15.2685   -3.9443    0.0000 H   0  0  0  0  0  0  0  0  0  0  0  0
   18.4254   -5.3911    0.0000 H   0  0  0  0  0  0  0  0  0  0  0  0
   18.6248   -3.7695    0.0000 H   0  0  0  0  0  0  0  0  0  0  0  0
   15.2684   -4.9085    0.0000 H   0  0  0  0  0  0  0  0  0  0  0  0
   16.6898   -8.4055    0.0000 H   0  0  0  0  0  0  0  0  0  0  0  0
   18.4250   -7.9892    0.0000 H   0  0  0  0  0  0  0  0  0  0  0  0
   18.5342   -6.2081    0.0000 H   0  0  0  0  0  0  0  0  0  0  0  0
   15.4553   -8.1876    0.0000 H   0  0  0  0  0  0  0  0  0  0  0  0
   13.9674   -7.2024    0.0000 H   0  0  0  0  0  0  0  0  0  0  0  0
   14.6273   -5.3905    0.0000 H   0  0  0  0  0  0  0  0  0  0  0  0
   19.0065   -5.0771    0.0000 H   0  0  0  0  0  0  0  0  0  0  0  0
   19.7451   -1.7672    0.0000 H   0  0  0  0  0  0  0  0  0  0  0  0
   20.3862   -1.2852    0.0000 H   0  0  0  0  0  0  0  0  0  0  0  0
   24.3117   -1.7989    0.0000 H   0  0  0  0  0  0  0  0  0  0  0  0
   24.2024   -3.5800    0.0000 H   0  0  0  0  0  0  0  0  0  0  0  0
   22.8188   -4.0971    0.0000 H   0  0  0  0  0  0  0  0  0  0  0  0
   23.5435    0.1605    0.0000 H   0  0  0  0  0  0  0  0  0  0  0  0
   23.6522   -1.6206    0.0000 H   0  0  0  0  0  0  0  0  0  0  0  0
   22.3947    1.7946    0.0000 H   0  0  0  0  0  0  0  0  0  0  0  0
   20.4956    1.4601    0.0000 H   0  0  0  0  0  0  0  0  0  0  0  0
   20.3864   -0.3210    0.0000 H   0  0  0  0  0  0  0  0  0  0  0  0
  1  2  1  0
  2  3  1  0
  3  4  1  0
  4  5  2  0
  4  6  1  0
  6  7  1  0
  7  8  1  0
  8  9  1  0
  9 10  1  0
 10 11  1  0
 11 12  1  0
 12 13  2  3
 12 14  1  0
  7 15  1  0
 15 16  2  0
 15 17  1  0
 17 18  1  0
 18 19  1  0
 19 20  1  0
 20 21  1  0
 20 22  2  0
 18 23  1  0
 23 24  2  0
 23 25  1  0
 25 26  1  0
 26 27  1  0
 27 28  1  0
 27 29  1  0
 29 30  1  0
 26 31  1  0
 31 32  2  0
 31 33  1  0
 34 33  1  1
 34 35  1  0
 35 36  1  0
 36 37  1  0
 37 38  1  0
 38 39  1  0
 39 40  1  0
 40 41  1  0
 34 42  1  0
 34 43  1  0
 43 44  2  0
 43 45  1  0
 45 46  1  0
 46 47  1  0
 47 48  1  0
 48 49  2  0
 48 50  1  0
 46 51  1  0
 51 52  2  0
 51 53  1  0
 53 54  1  0
 54 55  1  0
 55 56  1  0
 56 57  1  0
 57 58  1  0
 58 59  1  0
 59 60  2  3
 59 61  1  0
 54 62  1  0
 62 63  2  0
 62 64  1  0
 64 65  1  0
 65 66  1  0
 66 67  1  0
 66 68  1  0
 68 69  1  0
 65 70  1  0
 70 71  2  0
 70 72  1  0
 72 73  1  0
 73 74  1  0
 74 75  1  0
 75 76  1  0
 76 77  1  0
 77 78  1  0
 73 79  1  0
 79 80  2  0
 79 81  1  0
 81 82  1  0
 82 83  1  0
 83 84  1  0
 84 85  1  0
 85 86  2  0
 85 87  1  0
 82 88  1  0
 88 89  2  0
 88 90  1  0
 90 91  1  0
 91 92  1  0
 92 93  1  0
 93 94  1  0
 93 95  1  0
 91 96  1  0
 96 97  2  0
 96 98  1  0
 98 99  1  0
 99100  1  0
100101  1  0
101102  1  0
102103  1  0
 99104  1  0
 99105  1  6
105106  2  0
105107  1  0
107108  1  0
108109  1  0
109110  1  0
109111  1  0
108112  1  0
112113  2  0
112114  1  0
114115  1  0
115116  1  0
116117  1  0
117118  1  0
117119  1  0
115120  1  0
120121  2  0
120122  1  0
122123  1  0
123124  1  0
124125  1  0
124126  1  0
126127  1  0
123128  1  0
128129  2  0
128130  1  0
 41103  2  0
  1131  1  0
  1132  1  0
  2133  1  0
  2134  1  0
  3135  1  0
  3136  1  0
  6137  1  0
  7138  1  1
  8139  1  0
  8140  1  0
  9141  1  0
  9142  1  0
 10143  1  0
 10144  1  0
 11145  1  0
 13146  1  0
 13147  1  0
 14148  1  0
 14149  1  0
 17150  1  0
 18151  1  1
 19152  1  0
 19153  1  0
 21154  1  0
 21155  1  0
 25156  1  0
 26157  1  6
 27158  1  1
 28159  1  0
 28160  1  0
 28161  1  0
 29162  1  0
 29163  1  0
 30164  1  0
 30165  1  0
 30166  1  0
 33167  1  0
 35168  1  0
 35169  1  0
 36170  1  0
 36171  1  0
 37172  1  0
 37173  1  0
 38174  1  0
 38175  1  0
 39176  1  0
 39177  1  0
 40178  1  0
 40179  1  0
 41180  1  0
 42181  1  0
 42182  1  0
 42183  1  0
 45184  1  0
 46185  1  1
 47186  1  0
 47187  1  0
 53188  1  0
 54189  1  1
 55190  1  0
 55191  1  0
 56192  1  0
 56193  1  0
 57194  1  0
 57195  1  0
 58196  1  0
 60197  1  0
 60198  1  0
 61199  1  0
 61200  1  0
 64201  1  0
 65202  1  1
 66203  1  1
 67204  1  0
 67205  1  0
 67206  1  0
 68207  1  0
 68208  1  0
 69209  1  0
 69210  1  0
 69211  1  0
 72212  1  0
 73213  1  1
 74214  1  0
 74215  1  0
 75216  1  0
 75217  1  0
 76218  1  0
 76219  1  0
 77220  1  0
 77221  1  0
 78222  1  0
 78223  1  0
 78224  1  0
 81225  1  0
 82226  1  1
 83227  1  0
 83228  1  0
 84229  1  0
 84230  1  0
 90231  1  0
 91232  1  1
 92233  1  0
 92234  1  0
 93235  1  0
 94236  1  0
 94237  1  0
 94238  1  0
 95239  1  0
 95240  1  0
 95241  1  0
 98242  1  0
100243  1  0
100244  1  0
101245  1  0
101246  1  0
102247  1  0
102248  1  0
103249  1  0
104250  1  0
104251  1  0
104252  1  0
107253  1  0
108254  1  1
109255  1  1
110256  1  0
111257  1  0
111258  1  0
111259  1  0
114260  1  0
115261  1  6
116262  1  0
116263  1  0
117264  1  0
118265  1  0
118266  1  0
118267  1  0
119268  1  0
119269  1  0
119270  1  0
122271  1  0
123272  1  1
124273  1  1
125274  1  0
125275  1  0
125276  1  0
126277  1  0
126278  1  0
127279  1  0
127280  1  0
127281  1  0
M  CHG  6  13   1  50  -1  60   1  78   1  87  -1 130  -1
M  END
