
     RDKit          2D

310318  0  0  0  0  0  0  0  0999 V2000
   24.8886   -0.7502    0.0000 C   0  0  0  0  0  0  0  0  0  0  0  0
   26.1993   -0.0209    0.0000 N   0  0  0  0  0  0  0  0  0  0  0  0
   27.4863   -0.7913    0.0000 C   0  0  0  0  0  0  0  0  0  0  0  0
   27.4626   -2.2912    0.0000 C   0  0  0  0  0  0  0  0  0  0  0  0
   28.7496   -3.0616    0.0000 C   0  0  0  0  0  0  0  0  0  0  0  0
   30.0603   -2.3323    0.0000 C   0  0  0  0  0  0  0  0  0  0  0  0
   30.0841   -0.8325    0.0000 C   0  0  0  0  0  0  0  0  0  0  0  0
   28.7971   -0.0620    0.0000 C   0  0  0  0  0  0  0  0  0  0  0  0
   31.5178   -0.3916    0.0000 C   0  0  0  0  0  0  0  0  0  0  0  0
   32.3802   -1.6189    0.0000 O   0  0  0  0  0  0  0  0  0  0  0  0
   31.4794   -2.8183    0.0000 C   0  0  0  0  0  0  0  0  0  0  0  0
   31.9203   -4.2521    0.0000 O   0  0  0  0  0  0  0  0  0  0  0  0
   32.9898   -0.1030    0.0000 C   0  0  0  0  0  0  0  0  0  0  0  0
   33.4758    1.3161    0.0000 C   0  0  0  0  0  0  0  0  0  0  0  0
   34.9478    1.6047    0.0000 C   0  0  0  0  0  0  0  0  0  0  0  0
   35.9337    0.4742    0.0000 C   0  0  0  0  0  0  0  0  0  0  0  0
   35.4477   -0.9449    0.0000 C   0  0  0  0  0  0  0  0  0  0  0  0
   33.9757   -1.2335    0.0000 C   0  0  0  0  0  0  0  0  0  0  0  0
   37.4057    0.7628    0.0000 O   0  0  0  0  0  0  0  0  0  0  0  0
   32.4899    2.4465    0.0000 O   0  0  0  0  0  0  0  0  0  0  0  0
   31.0179    2.1579    0.0000 C   0  0  0  0  0  0  0  0  0  0  0  0
   30.5319    0.7389    0.0000 C   0  0  0  0  0  0  0  0  0  0  0  0
   29.2867    1.1125    0.0000 C   0  0  0  0  0  0  0  0  0  0  0  0
   28.7609    1.7154    0.0000 C   0  0  0  0  0  0  0  0  0  0  0  0
   29.0201    2.4723    0.0000 C   0  0  0  0  0  0  0  0  0  0  0  0
   29.8052    2.6262    0.0000 C   0  0  0  0  0  0  0  0  0  0  0  0
   27.5741    4.1303    0.0000 O   0  0  0  0  0  0  0  0  0  0  0  0
   24.8648   -2.2500    0.0000 S   0  0  0  0  0  0  0  0  0  0  0  0
   23.6016    0.0203    0.0000 N   0  0  0  0  0  0  0  0  0  0  0  0
   22.2908   -0.7091    0.0000 C   0  0  0  0  0  0  0  0  0  0  0  0
   21.0038    0.0614    0.0000 C   0  0  0  0  0  0  0  0  0  0  0  0
   19.6931   -0.6680    0.0000 C   0  0  0  0  0  0  0  0  0  0  0  0
   19.6693   -2.1678    0.0000 O   0  0  0  0  0  0  0  0  0  0  0  0
   18.4061    0.1025    0.0000 N   0  0  0  0  0  0  0  0  0  0  0  0
   17.0953   -0.6268    0.0000 C   0  0  0  0  0  0  0  0  0  0  0  0
   16.1130   -1.7605    0.0000 C   0  0  0  0  0  0  0  0  0  0  0  0
   14.6401   -1.4767    0.0000 C   0  0  0  0  0  0  0  0  0  0  0  0
   13.6579   -2.6103    0.0000 C   0  0  0  0  0  0  0  0  0  0  0  0
   12.1850   -2.3265    0.0000 C   0  0  0  0  0  0  0  0  0  0  0  0
   11.2027   -3.4601    0.0000 N   0  0  0  0  0  0  0  0  0  0  0  0
   15.8083    0.1436    0.0000 C   0  0  0  0  0  0  0  0  0  0  0  0
   15.8320    1.6435    0.0000 O   0  0  0  0  0  0  0  0  0  0  0  0
   14.4976   -0.5857    0.0000 N   0  0  0  0  0  0  0  0  0  0  0  0
   13.2105    0.1848    0.0000 C   0  0  0  0  0  0  0  0  0  0  0  0
   12.2647    1.3490    0.0000 C   0  0  0  0  0  0  0  0  0  0  0  0
   12.8000    2.7502    0.0000 C   0  0  0  0  0  0  0  0  0  0  0  0
   11.8541    3.9144    0.0000 C   0  0  0  0  0  0  0  0  0  0  0  0
   12.3894    5.3156    0.0000 N   0  0  0  0  0  0  0  0  0  0  0  0
   10.3729    3.6773    0.0000 O   0  0  0  0  0  0  0  0  0  0  0  0
   11.8998   -0.5446    0.0000 C   0  0  0  0  0  0  0  0  0  0  0  0
   11.5872   -1.7187    0.0000 O   0  0  0  0  0  0  0  0  0  0  0  0
   10.6128    0.2259    0.0000 N   0  0  0  0  0  0  0  0  0  0  0  0
    9.3020   -0.5034    0.0000 C   0  0  0  0  0  0  0  0  0  0  0  0
    8.3198   -1.6371    0.0000 C   0  0  0  0  0  0  0  0  0  0  0  0
    6.8469   -1.3533    0.0000 C   0  0  0  0  0  0  0  0  0  0  0  0
    5.8646   -2.4869    0.0000 C   0  0  0  0  0  0  0  0  0  0  0  0
    4.3917   -2.2031    0.0000 C   0  0  0  0  0  0  0  0  0  0  0  0
    3.4095   -3.3368    0.0000 N   0  0  0  0  0  0  0  0  0  0  0  0
    8.0150    0.2670    0.0000 C   0  0  0  0  0  0  0  0  0  0  0  0
    8.0388    1.7669    0.0000 O   0  0  0  0  0  0  0  0  0  0  0  0
    6.7043   -0.4623    0.0000 N   0  0  0  0  0  0  0  0  0  0  0  0
    5.4173    0.3082    0.0000 C   0  0  0  0  0  0  0  0  0  0  0  0
    4.4714    1.4724    0.0000 C   0  0  0  0  0  0  0  0  0  0  0  0
    5.0067    2.8736    0.0000 C   0  0  0  0  0  0  0  0  0  0  0  0
    4.0608    4.0378    0.0000 C   0  0  0  0  0  0  0  0  0  0  0  0
    4.5961    5.4390    0.0000 N   0  0  0  0  0  0  0  0  0  0  0  0
    3.6503    6.6032    0.0000 C   0  0  0  0  0  0  0  0  0  0  0  0
    4.1855    8.0045    0.0000 N   0  0  0  0  0  0  0  0  0  0  0  0
    2.1691    6.3662    0.0000 N   0  0  0  0  0  0  0  0  0  0  0  0
    4.1065   -0.4212    0.0000 C   0  0  0  0  0  0  0  0  0  0  0  0
    3.7939   -1.5953    0.0000 O   0  0  0  0  0  0  0  0  0  0  0  0
    2.8195    0.3493    0.0000 N   0  0  0  0  0  0  0  0  0  0  0  0
    1.5088   -0.3800    0.0000 C   0  0  0  0  0  0  0  0  0  0  0  0
    0.5265   -1.5137    0.0000 C   0  0  0  0  0  0  0  0  0  0  0  0
   -0.9464   -1.2299    0.0000 C   0  0  0  0  0  0  0  0  0  0  0  0
   -1.9286   -2.3635    0.0000 C   0  0  0  0  0  0  0  0  0  0  0  0
   -3.4015   -2.0797    0.0000 C   0  0  0  0  0  0  0  0  0  0  0  0
   -4.3838   -3.2134    0.0000 N   0  0  0  0  0  0  0  0  0  0  0  0
    0.2218    0.3904    0.0000 C   0  0  0  0  0  0  0  0  0  0  0  0
    0.4075    1.7276    0.0000 O   0  0  0  0  0  0  0  0  0  0  0  0
   -1.0890   -0.3389    0.0000 N   0  0  0  0  0  0  0  0  0  0  0  0
   -2.3760    0.4316    0.0000 C   0  0  0  0  0  0  0  0  0  0  0  0
   -3.3218    1.5958    0.0000 C   0  0  0  0  0  0  0  0  0  0  0  0
   -2.7865    2.9970    0.0000 C   0  0  0  0  0  0  0  0  0  0  0  0
   -1.3054    3.2340    0.0000 C   0  0  0  0  0  0  0  0  0  0  0  0
   -0.3327    2.2979    0.0000 F   0  0  0  0  0  0  0  0  0  0  0  0
   -0.7701    4.6353    0.0000 C   0  0  0  0  0  0  0  0  0  0  0  0
    0.7110    4.8723    0.0000 F   0  0  0  0  0  0  0  0  0  0  0  0
   -1.7160    5.7995    0.0000 C   0  0  0  0  0  0  0  0  0  0  0  0
   -1.1807    7.2007    0.0000 F   0  0  0  0  0  0  0  0  0  0  0  0
   -3.1971    5.5624    0.0000 C   0  0  0  0  0  0  0  0  0  0  0  0
   -4.1430    6.7266    0.0000 F   0  0  0  0  0  0  0  0  0  0  0  0
   -3.7324    4.1612    0.0000 C   0  0  0  0  0  0  0  0  0  0  0  0
   -5.2136    3.9241    0.0000 F   0  0  0  0  0  0  0  0  0  0  0  0
   -3.6867   -0.2978    0.0000 C   0  0  0  0  0  0  0  0  0  0  0  0
   -3.9993   -1.4719    0.0000 O   0  0  0  0  0  0  0  0  0  0  0  0
   -4.9737    0.4727    0.0000 N   0  0  0  0  0  0  0  0  0  0  0  0
   -6.2845   -0.2566    0.0000 C   0  0  0  0  0  0  0  0  0  0  0  0
   -7.2667   -1.3903    0.0000 C   0  0  0  0  0  0  0  0  0  0  0  0
   -8.7004   -1.8313    0.0000 O   0  0  0  0  0  0  0  0  0  0  0  0
   -7.5715    0.5138    0.0000 C   0  0  0  0  0  0  0  0  0  0  0  0
   -7.3651    1.9996    0.0000 O   0  0  0  0  0  0  0  0  0  0  0  0
   -8.8822   -0.2155    0.0000 N   0  0  0  0  0  0  0  0  0  0  0  0
  -10.1692    0.5550    0.0000 C   0  0  0  0  0  0  0  0  0  0  0  0
  -10.4431    2.0297    0.0000 C   0  0  0  0  0  0  0  0  0  0  0  0
  -11.1395    3.3583    0.0000 C   0  0  0  0  0  0  0  0  0  0  0  0
  -12.1966    4.4225    0.0000 C   0  0  0  0  0  0  0  0  0  0  0  0
  -13.5204    5.1278    0.0000 C   0  0  0  0  0  0  0  0  0  0  0  0
   -8.8424    1.2547    0.0000 C   0  0  0  0  0  0  0  0  0  0  0  0
  -10.3422   -0.9350    0.0000 C   0  0  0  0  0  0  0  0  0  0  0  0
   -9.5690   -1.3671    0.0000 O   0  0  0  0  0  0  0  0  0  0  0  0
  -10.9466   -2.3079    0.0000 N   0  0  0  0  0  0  0  0  0  0  0  0
  -11.9289   -3.4415    0.0000 C   0  0  0  0  0  0  0  0  0  0  0  0
  -11.7288   -4.9281    0.0000 C   0  0  0  0  0  0  0  0  0  0  0  0
  -10.3414   -5.4982    0.0000 C   0  0  0  0  0  0  0  0  0  0  0  0
  -10.1413   -6.9848    0.0000 C   0  0  0  0  0  0  0  0  0  0  0  0
   -8.7539   -7.5548    0.0000 C   0  0  0  0  0  0  0  0  0  0  0  0
   -7.5664   -6.6383    0.0000 C   0  0  0  0  0  0  0  0  0  0  0  0
   -7.7665   -5.1517    0.0000 C   0  0  0  0  0  0  0  0  0  0  0  0
   -9.1540   -4.5816    0.0000 C   0  0  0  0  0  0  0  0  0  0  0  0
  -13.2016   -4.2353    0.0000 C   0  0  0  0  0  0  0  0  0  0  0  0
  -12.6064   -5.6121    0.0000 O   0  0  0  0  0  0  0  0  0  0  0  0
  -14.6518   -4.6186    0.0000 N   0  0  0  0  0  0  0  0  0  0  0  0
  -16.1506   -4.5575    0.0000 C   0  0  0  0  0  0  0  0  0  0  0  0
  -17.1881   -5.6408    0.0000 C   0  0  0  0  0  0  0  0  0  0  0  0
  -16.7687   -7.0810    0.0000 C   0  0  0  0  0  0  0  0  0  0  0  0
  -17.8063   -8.1643    0.0000 C   0  0  0  0  0  0  0  0  0  0  0  0
  -17.3869   -9.6044    0.0000 C   0  0  0  0  0  0  0  0  0  0  0  0
  -15.9300   -9.9613    0.0000 C   0  0  0  0  0  0  0  0  0  0  0  0
  -14.8924   -8.8780    0.0000 C   0  0  0  0  0  0  0  0  0  0  0  0
  -15.3118   -7.4379    0.0000 C   0  0  0  0  0  0  0  0  0  0  0  0
  -17.5647   -4.0573    0.0000 C   0  0  0  0  0  0  0  0  0  0  0  0
  -18.2701   -5.3811    0.0000 O   0  0  0  0  0  0  0  0  0  0  0  0
  -18.7686   -3.1625    0.0000 N   0  0  0  0  0  0  0  0  0  0  0  0
  -19.6553   -1.9526    0.0000 C   0  0  0  0  0  0  0  0  0  0  0  0
  -21.1491   -1.8169    0.0000 C   0  0  0  0  0  0  0  0  0  0  0  0
  -22.0136   -3.0427    0.0000 C   0  0  0  0  0  0  0  0  0  0  0  0
  -23.5075   -2.9070    0.0000 C   0  0  0  0  0  0  0  0  0  0  0  0
  -24.3720   -4.1328    0.0000 C   0  0  0  0  0  0  0  0  0  0  0  0
  -25.8658   -3.9970    0.0000 N   0  0  0  0  0  0  0  0  0  0  0  0
  -20.1459   -0.5352    0.0000 C   0  0  0  0  0  0  0  0  0  0  0  0
  -21.6207   -0.8091    0.0000 O   0  0  0  0  0  0  0  0  0  0  0  0
  -20.1970    0.9640    0.0000 N   0  0  0  0  0  0  0  0  0  0  0  0
  -19.8039    2.4115    0.0000 C   0  0  0  0  0  0  0  0  0  0  0  0
  -19.0016    3.6789    0.0000 C   0  0  0  0  0  0  0  0  0  0  0  0
  -17.8613    4.6535    0.0000 C   0  0  0  0  0  0  0  0  0  0  0  0
  -16.4845    5.2487    0.0000 C   0  0  0  0  0  0  0  0  0  0  0  0
  -14.9933    5.4117    0.0000 C   0  0  0  0  0  0  0  0  0  0  0  0
  -21.2850    2.1745    0.0000 C   0  0  0  0  0  0  0  0  0  0  0  0
  -20.6291    3.6641    0.0000 C   0  0  0  0  0  0  0  0  0  0  0  0
  -20.3015    5.1279    0.0000 O   0  0  0  0  0  0  0  0  0  0  0  0
  -22.1265    3.5757    0.0000 N   0  0  0  0  0  0  0  0  0  0  0  0
  -22.9518    4.8283    0.0000 C   0  0  0  0  0  0  0  0  0  0  0  0
  -23.2989    6.2876    0.0000 C   0  0  0  0  0  0  0  0  0  0  0  0
  -22.2086    7.3178    0.0000 C   0  0  0  0  0  0  0  0  0  0  0  0
  -22.5557    8.7771    0.0000 C   0  0  0  0  0  0  0  0  0  0  0  0
  -20.8318    7.9130    0.0000 C   0  0  0  0  0  0  0  0  0  0  0  0
  -24.4492    4.7399    0.0000 C   0  0  0  0  0  0  0  0  0  0  0  0
  -25.4210    5.8825    0.0000 O   0  0  0  0  0  0  0  0  0  0  0  0
  -25.1213    3.3989    0.0000 O   0  0  0  0  0  0  0  0  0  0  0  0
   26.0401    1.4706    0.0000 H   0  0  0  0  0  0  0  0  0  0  0  0
   26.1518   -3.0205    0.0000 H   0  0  0  0  0  0  0  0  0  0  0  0
   28.7258   -4.5614    0.0000 H   0  0  0  0  0  0  0  0  0  0  0  0
   28.5218    1.1214    0.0000 H   0  0  0  0  0  0  0  0  0  0  0  0
   35.4339    3.0237    0.0000 H   0  0  0  0  0  0  0  0  0  0  0  0
   36.4336   -2.0753    0.0000 H   0  0  0  0  0  0  0  0  0  0  0  0
   33.4896   -2.6525    0.0000 H   0  0  0  0  0  0  0  0  0  0  0  0
   38.3916   -0.3677    0.0000 H   0  0  0  0  0  0  0  0  0  0  0  0
   28.5738   -0.9688    0.0000 H   0  0  0  0  0  0  0  0  0  0  0  0
   26.5778    1.4737    0.0000 H   0  0  0  0  0  0  0  0  0  0  0  0
   30.5181    4.7075    0.0000 H   0  0  0  0  0  0  0  0  0  0  0  0
   28.0602    5.5493    0.0000 H   0  0  0  0  0  0  0  0  0  0  0  0
   23.6253    1.5201    0.0000 H   0  0  0  0  0  0  0  0  0  0  0  0
   21.3086   -1.8427    0.0000 H   0  0  0  0  0  0  0  0  0  0  0  0
   23.2367   -1.8733    0.0000 H   0  0  0  0  0  0  0  0  0  0  0  0
   20.0579    1.2256    0.0000 H   0  0  0  0  0  0  0  0  0  0  0  0
   21.9861    1.1950    0.0000 H   0  0  0  0  0  0  0  0  0  0  0  0
   18.4298    1.6023    0.0000 H   0  0  0  0  0  0  0  0  0  0  0  0
   18.0412   -1.7910    0.0000 H   0  0  0  0  0  0  0  0  0  0  0  0
   15.7526   -3.2165    0.0000 H   0  0  0  0  0  0  0  0  0  0  0  0
   17.4001   -2.5310    0.0000 H   0  0  0  0  0  0  0  0  0  0  0  0
   13.4567   -0.5550    0.0000 H   0  0  0  0  0  0  0  0  0  0  0  0
   14.4548    0.0118    0.0000 H   0  0  0  0  0  0  0  0  0  0  0  0
   13.2974   -4.0664    0.0000 H   0  0  0  0  0  0  0  0  0  0  0  0
   14.8414   -3.5319    0.0000 H   0  0  0  0  0  0  0  0  0  0  0  0
   10.8137   -1.7186    0.0000 H   0  0  0  0  0  0  0  0  0  0  0  0
   12.5455   -0.8704    0.0000 H   0  0  0  0  0  0  0  0  0  0  0  0
    9.7754   -2.9989    0.0000 H   0  0  0  0  0  0  0  0  0  0  0  0
   10.6675   -4.8614    0.0000 H   0  0  0  0  0  0  0  0  0  0  0  0
   12.3862   -4.3818    0.0000 H   0  0  0  0  0  0  0  0  0  0  0  0
   14.1116   -2.0352    0.0000 H   0  0  0  0  0  0  0  0  0  0  0  0
   14.3237    1.1903    0.0000 H   0  0  0  0  0  0  0  0  0  0  0  0
   11.0812    2.2706    0.0000 H   0  0  0  0  0  0  0  0  0  0  0  0
   11.0373    0.4867    0.0000 H   0  0  0  0  0  0  0  0  0  0  0  0
   13.7822    3.8839    0.0000 H   0  0  0  0  0  0  0  0  0  0  0  0
   14.1713    2.1424    0.0000 H   0  0  0  0  0  0  0  0  0  0  0  0
   11.4435    6.4798    0.0000 H   0  0  0  0  0  0  0  0  0  0  0  0
   13.8705    5.5527    0.0000 H   0  0  0  0  0  0  0  0  0  0  0  0
   10.4535    1.7174    0.0000 H   0  0  0  0  0  0  0  0  0  0  0  0
   10.0990   -1.7742    0.0000 H   0  0  0  0  0  0  0  0  0  0  0  0
    7.9593   -3.0931    0.0000 H   0  0  0  0  0  0  0  0  0  0  0  0
    9.6911   -2.2449    0.0000 H   0  0  0  0  0  0  0  0  0  0  0  0
    5.6634   -0.4317    0.0000 H   0  0  0  0  0  0  0  0  0  0  0  0
    6.6615    0.1352    0.0000 H   0  0  0  0  0  0  0  0  0  0  0  0
    5.5042   -3.9430    0.0000 H   0  0  0  0  0  0  0  0  0  0  0  0
    7.0481   -3.4085    0.0000 H   0  0  0  0  0  0  0  0  0  0  0  0
    3.0204   -1.5952    0.0000 H   0  0  0  0  0  0  0  0  0  0  0  0
    4.7522   -0.7471    0.0000 H   0  0  0  0  0  0  0  0  0  0  0  0
    1.9822   -2.8755    0.0000 H   0  0  0  0  0  0  0  0  0  0  0  0
    2.8742   -4.7380    0.0000 H   0  0  0  0  0  0  0  0  0  0  0  0
    4.5930   -4.2584    0.0000 H   0  0  0  0  0  0  0  0  0  0  0  0
    6.3183   -1.9118    0.0000 H   0  0  0  0  0  0  0  0  0  0  0  0
    6.5304    1.3136    0.0000 H   0  0  0  0  0  0  0  0  0  0  0  0
    3.1844    2.2428    0.0000 H   0  0  0  0  0  0  0  0  0  0  0  0
    3.2440    0.6101    0.0000 H   0  0  0  0  0  0  0  0  0  0  0  0
    5.9890    4.0073    0.0000 H   0  0  0  0  0  0  0  0  0  0  0  0
    6.3780    2.2658    0.0000 H   0  0  0  0  0  0  0  0  0  0  0  0
    2.7738    4.8083    0.0000 H   0  0  0  0  0  0  0  0  0  0  0  0
    2.9477    3.0323    0.0000 H   0  0  0  0  0  0  0  0  0  0  0  0
    6.0773    5.6761    0.0000 H   0  0  0  0  0  0  0  0  0  0  0  0
    3.2397    9.1686    0.0000 H   0  0  0  0  0  0  0  0  0  0  0  0
    5.6667    8.2415    0.0000 H   0  0  0  0  0  0  0  0  0  0  0  0
    1.2232    7.5303    0.0000 H   0  0  0  0  0  0  0  0  0  0  0  0
    1.6338    4.9649    0.0000 H   0  0  0  0  0  0  0  0  0  0  0  0
    2.6603    1.8408    0.0000 H   0  0  0  0  0  0  0  0  0  0  0  0
    2.3057   -1.6508    0.0000 H   0  0  0  0  0  0  0  0  0  0  0  0
    0.1661   -2.9697    0.0000 H   0  0  0  0  0  0  0  0  0  0  0  0
    1.8979   -2.1215    0.0000 H   0  0  0  0  0  0  0  0  0  0  0  0
   -2.1298   -0.3083    0.0000 H   0  0  0  0  0  0  0  0  0  0  0  0
   -1.1317    0.2586    0.0000 H   0  0  0  0  0  0  0  0  0  0  0  0
   -2.2891   -3.8196    0.0000 H   0  0  0  0  0  0  0  0  0  0  0  0
   -0.7451   -3.2851    0.0000 H   0  0  0  0  0  0  0  0  0  0  0  0
   -4.7728   -1.4719    0.0000 H   0  0  0  0  0  0  0  0  0  0  0  0
   -3.0410   -0.6237    0.0000 H   0  0  0  0  0  0  0  0  0  0  0  0
   -5.8111   -2.7521    0.0000 H   0  0  0  0  0  0  0  0  0  0  0  0
   -4.9190   -4.6146    0.0000 H   0  0  0  0  0  0  0  0  0  0  0  0
   -3.2003   -4.1350    0.0000 H   0  0  0  0  0  0  0  0  0  0  0  0
   -1.4749   -1.7884    0.0000 H   0  0  0  0  0  0  0  0  0  0  0  0
   -1.3937    1.5652    0.0000 H   0  0  0  0  0  0  0  0  0  0  0  0
   -4.5053    2.5174    0.0000 H   0  0  0  0  0  0  0  0  0  0  0  0
   -4.5492    0.7335    0.0000 H   0  0  0  0  0  0  0  0  0  0  0  0
   -5.1330    1.9642    0.0000 H   0  0  0  0  0  0  0  0  0  0  0  0
   -5.4875   -1.5274    0.0000 H   0  0  0  0  0  0  0  0  0  0  0  0
   -7.8020   -2.7915    0.0000 H   0  0  0  0  0  0  0  0  0  0  0  0
   -5.8954   -1.9981    0.0000 H   0  0  0  0  0  0  0  0  0  0  0  0
   -9.6644   -2.3616    0.0000 H   0  0  0  0  0  0  0  0  0  0  0  0
   -8.9060   -1.7153    0.0000 H   0  0  0  0  0  0  0  0  0  0  0  0
   -8.9535    1.8531    0.0000 H   0  0  0  0  0  0  0  0  0  0  0  0
   -9.5186    3.2109    0.0000 H   0  0  0  0  0  0  0  0  0  0  0  0
   -9.7080    3.8064    0.0000 H   0  0  0  0  0  0  0  0  0  0  0  0
  -10.4375    4.6838    0.0000 H   0  0  0  0  0  0  0  0  0  0  0  0
  -10.8664    5.1156    0.0000 H   0  0  0  0  0  0  0  0  0  0  0  0
  -12.0982    5.9192    0.0000 H   0  0  0  0  0  0  0  0  0  0  0  0
  -13.0203    6.5420    0.0000 H   0  0  0  0  0  0  0  0  0  0  0  0
   -8.6572    2.9103    0.0000 H   0  0  0  0  0  0  0  0  0  0  0  0
   -7.5633    1.9557    0.0000 H   0  0  0  0  0  0  0  0  0  0  0  0
   -8.0325    0.2147    0.0000 H   0  0  0  0  0  0  0  0  0  0  0  0
   -9.6792   -3.1102    0.0000 H   0  0  0  0  0  0  0  0  0  0  0  0
  -10.4916   -3.8706    0.0000 H   0  0  0  0  0  0  0  0  0  0  0  0
  -12.0493   -6.3935    0.0000 H   0  0  0  0  0  0  0  0  0  0  0  0
  -13.1978   -5.2315    0.0000 H   0  0  0  0  0  0  0  0  0  0  0  0
  -11.3287   -7.9013    0.0000 H   0  0  0  0  0  0  0  0  0  0  0  0
   -8.5538   -9.0414    0.0000 H   0  0  0  0  0  0  0  0  0  0  0  0
   -6.1790   -7.2083    0.0000 H   0  0  0  0  0  0  0  0  0  0  0  0
   -6.5791   -4.2351    0.0000 H   0  0  0  0  0  0  0  0  0  0  0  0
   -9.1713   -3.0817    0.0000 H   0  0  0  0  0  0  0  0  0  0  0  0
  -14.3084   -6.0788    0.0000 H   0  0  0  0  0  0  0  0  0  0  0  0
  -15.5899   -5.9488    0.0000 H   0  0  0  0  0  0  0  0  0  0  0  0
  -18.5336   -6.3039    0.0000 H   0  0  0  0  0  0  0  0  0  0  0  0
  -18.3412   -4.6814    0.0000 H   0  0  0  0  0  0  0  0  0  0  0  0
  -19.2632   -7.8074    0.0000 H   0  0  0  0  0  0  0  0  0  0  0  0
  -18.4244  -10.6877    0.0000 H   0  0  0  0  0  0  0  0  0  0  0  0
  -15.5106  -11.4015    0.0000 H   0  0  0  0  0  0  0  0  0  0  0  0
  -13.4355   -9.2349    0.0000 H   0  0  0  0  0  0  0  0  0  0  0  0
  -14.1500   -6.4891    0.0000 H   0  0  0  0  0  0  0  0  0  0  0  0
  -19.8329   -4.2196    0.0000 H   0  0  0  0  0  0  0  0  0  0  0  0
  -20.2288   -3.3387    0.0000 H   0  0  0  0  0  0  0  0  0  0  0  0
  -22.4185   -1.0177    0.0000 H   0  0  0  0  0  0  0  0  0  0  0  0
  -21.1180   -0.3172    0.0000 H   0  0  0  0  0  0  0  0  0  0  0  0
  -22.2273   -4.5274    0.0000 H   0  0  0  0  0  0  0  0  0  0  0  0
  -20.7443   -3.8419    0.0000 H   0  0  0  0  0  0  0  0  0  0  0  0
  -24.7768   -2.1078    0.0000 H   0  0  0  0  0  0  0  0  0  0  0  0
  -23.2938   -1.4223    0.0000 H   0  0  0  0  0  0  0  0  0  0  0  0
  -24.7651   -5.5804    0.0000 H   0  0  0  0  0  0  0  0  0  0  0  0
  -23.1026   -4.9320    0.0000 H   0  0  0  0  0  0  0  0  0  0  0  0
  -26.7303   -5.2228    0.0000 H   0  0  0  0  0  0  0  0  0  0  0  0
  -27.2231   -3.3585    0.0000 H   0  0  0  0  0  0  0  0  0  0  0  0
  -25.6521   -2.5123    0.0000 H   0  0  0  0  0  0  0  0  0  0  0  0
  -21.6870    1.1369    0.0000 H   0  0  0  0  0  0  0  0  0  0  0  0
  -19.4210    5.1191    0.0000 H   0  0  0  0  0  0  0  0  0  0  0  0
  -20.3918    4.2421    0.0000 H   0  0  0  0  0  0  0  0  0  0  0  0
  -18.0206    6.1451    0.0000 H   0  0  0  0  0  0  0  0  0  0  0  0
  -19.0238    5.6015    0.0000 H   0  0  0  0  0  0  0  0  0  0  0  0
  -16.0197    6.6749    0.0000 H   0  0  0  0  0  0  0  0  0  0  0  0
  -17.4619    6.3866    0.0000 H   0  0  0  0  0  0  0  0  0  0  0  0
  -14.9322    6.9104    0.0000 H   0  0  0  0  0  0  0  0  0  0  0  0
  -22.4845    3.0752    0.0000 H   0  0  0  0  0  0  0  0  0  0  0  0
  -22.4971    1.2908    0.0000 H   0  0  0  0  0  0  0  0  0  0  0  0
  -21.1520    0.6804    0.0000 H   0  0  0  0  0  0  0  0  0  0  0  0
  -22.9571    2.3267    0.0000 H   0  0  0  0  0  0  0  0  0  0  0  0
  -21.5126    5.2512    0.0000 H   0  0  0  0  0  0  0  0  0  0  0  0
  -24.2706    7.4302    0.0000 H   0  0  0  0  0  0  0  0  0  0  0  0
  -24.7380    5.8647    0.0000 H   0  0  0  0  0  0  0  0  0  0  0  0
  -21.2368    6.1752    0.0000 H   0  0  0  0  0  0  0  0  0  0  0  0
  -21.5992    9.9326    0.0000 H   0  0  0  0  0  0  0  0  0  0  0  0
  -23.3809   10.0297    0.0000 H   0  0  0  0  0  0  0  0  0  0  0  0
  -23.9948    8.3542    0.0000 H   0  0  0  0  0  0  0  0  0  0  0  0
  -20.4785    9.3708    0.0000 H   0  0  0  0  0  0  0  0  0  0  0  0
  -19.3344    8.0014    0.0000 H   0  0  0  0  0  0  0  0  0  0  0  0
  -20.4847    6.4537    0.0000 H   0  0  0  0  0  0  0  0  0  0  0  0
  1  2  1  0
  2  3  1  0
  3  4  2  0
  4  5  1  0
  5  6  2  0
  6  7  1  0
  7  8  2  0
  7  9  1  0
  9 10  1  0
 10 11  1  0
 11 12  2  0
  9 13  1  0
 13 14  1  0
 14 15  2  0
 15 16  1  0
 16 17  2  0
 17 18  1  0
 16 19  1  0
 14 20  1  0
 20 21  1  0
 21 22  2  0
 22 23  1  0
 23 24  2  0
 24 25  1  0
 25 26  2  0
 25 27  1  0
  1 28  2  0
  1 29  1  0
 29 30  1  0
 30 31  1  0
 31 32  1  0
 32 33  2  0
 32 34  1  0
 34 35  1  0
 35 36  1  0
 36 37  1  0
 37 38  1  0
 38 39  1  0
 39 40  1  0
 35 41  1  0
 41 42  2  0
 41 43  1  0
 43 44  1  0
 44 45  1  0
 45 46  1  0
 46 47  1  0
 47 48  1  0
 47 49  2  0
 44 50  1  0
 50 51  2  0
 50 52  1  0
 52 53  1  0
 53 54  1  0
 54 55  1  0
 55 56  1  0
 56 57  1  0
 57 58  1  0
 53 59  1  0
 59 60  2  0
 59 61  1  0
 61 62  1  0
 62 63  1  0
 63 64  1  0
 64 65  1  0
 65 66  1  0
 66 67  1  0
 67 68  2  3
 67 69  1  0
 62 70  1  0
 70 71  2  0
 70 72  1  0
 72 73  1  0
 73 74  1  0
 74 75  1  0
 75 76  1  0
 76 77  1  0
 77 78  1  0
 73 79  1  0
 79 80  2  0
 79 81  1  0
 81 82  1  0
 82 83  1  0
 83 84  1  0
 84 85  2  0
 85 86  1  0
 85 87  1  0
 87 88  1  0
 87 89  2  0
 89 90  1  0
 89 91  1  0
 91 92  1  0
 91 93  2  0
 93 94  1  0
 82 95  1  0
 95 96  2  0
 95 97  1  0
 97 98  1  0
 98 99  1  0
 99100  1  0
 98101  1  0
101102  2  0
101103  1  0
104103  1  6
104105  1  0
105106  1  0
106107  1  0
107108  1  0
104109  1  0
104110  1  0
110111  2  0
110112  1  0
112113  1  0
113114  1  0
114115  1  0
115116  2  0
116117  1  0
117118  2  0
118119  1  0
119120  2  0
113121  1  0
121122  2  0
121123  1  0
123124  1  0
124125  1  0
125126  1  0
126127  2  0
127128  1  0
128129  2  0
129130  1  0
130131  2  0
124132  1  0
132133  2  0
132134  1  0
134135  1  0
135136  1  0
136137  1  0
137138  1  0
138139  1  0
139140  1  0
135141  1  0
141142  2  0
141143  1  0
143144  1  0
144145  1  0
145146  1  0
146147  1  0
147148  1  0
144149  1  0
144150  1  6
150151  2  0
150152  1  0
152153  1  0
153154  1  0
154155  1  0
155156  1  0
155157  1  0
153158  1  0
158159  2  0
158160  1  0
  8  3  1  0
 93 84  1  0
120115  1  0
131126  1  0
 11  6  1  0
108148  2  0
 18 13  2  0
 22  9  1  0
 26 21  1  0
  2161  1  0
  4162  1  0
  5163  1  0
  8164  1  0
 15165  1  0
 17166  1  0
 18167  1  0
 19168  1  0
 23169  1  0
 24170  1  0
 26171  1  0
 27172  1  0
 29173  1  0
 30174  1  0
 30175  1  0
 31176  1  0
 31177  1  0
 34178  1  0
 35179  1  1
 36180  1  0
 36181  1  0
 37182  1  0
 37183  1  0
 38184  1  0
 38185  1  0
 39186  1  0
 39187  1  0
 40188  1  0
 40189  1  0
 40190  1  0
 43191  1  0
 44192  1  6
 45193  1  0
 45194  1  0
 46195  1  0
 46196  1  0
 48197  1  0
 48198  1  0
 52199  1  0
 53200  1  1
 54201  1  0
 54202  1  0
 55203  1  0
 55204  1  0
 56205  1  0
 56206  1  0
 57207  1  0
 57208  1  0
 58209  1  0
 58210  1  0
 58211  1  0
 61212  1  0
 62213  1  6
 63214  1  0
 63215  1  0
 64216  1  0
 64217  1  0
 65218  1  0
 65219  1  0
 66220  1  0
 68221  1  0
 68222  1  0
 69223  1  0
 69224  1  0
 72225  1  0
 73226  1  1
 74227  1  0
 74228  1  0
 75229  1  0
 75230  1  0
 76231  1  0
 76232  1  0
 77233  1  0
 77234  1  0
 78235  1  0
 78236  1  0
 78237  1  0
 81238  1  0
 82239  1  1
 83240  1  0
 83241  1  0
 97242  1  0
 98243  1  1
 99244  1  0
 99245  1  0
100246  1  0
103247  1  0
105248  1  0
105249  1  0
106250  1  0
106251  1  0
107252  1  0
107253  1  0
108254  1  0
109255  1  0
109256  1  0
109257  1  0
112258  1  0
113259  1  1
114260  1  0
114261  1  0
116262  1  0
117263  1  0
118264  1  0
119265  1  0
120266  1  0
123267  1  0
124268  1  1
125269  1  0
125270  1  0
127271  1  0
128272  1  0
129273  1  0
130274  1  0
131275  1  0
134276  1  0
135277  1  1
136278  1  0
136279  1  0
137280  1  0
137281  1  0
138282  1  0
138283  1  0
139284  1  0
139285  1  0
140286  1  0
140287  1  0
140288  1  0
143289  1  0
145290  1  0
145291  1  0
146292  1  0
146293  1  0
147294  1  0
147295  1  0
148296  1  0
149297  1  0
149298  1  0
149299  1  0
152300  1  0
153301  1  6
154302  1  0
154303  1  0
155304  1  0
156305  1  0
156306  1  0
156307  1  0
157308  1  0
157309  1  0
157310  1  0
M  CHG  6  40   1  58   1  68   1  78   1 140   1 160  -1
M  END
