
     RDKit          2D

248250  0  0  0  0  0  0  0  0999 V2000
   26.1836    4.1398    0.0000 N   0  0  0  0  0  0  0  0  0  0  0  0
   24.7935    3.5762    0.0000 C   0  0  0  0  0  0  0  0  0  0  0  0
   24.5865    2.0905    0.0000 C   0  0  0  0  0  0  0  0  0  0  0  0
   23.1964    1.5269    0.0000 C   0  0  0  0  0  0  0  0  0  0  0  0
   22.0133    2.4490    0.0000 O   0  0  0  0  0  0  0  0  0  0  0  0
   22.9895    0.0413    0.0000 N   0  0  0  0  0  0  0  0  0  0  0  0
   21.5994   -0.5223    0.0000 C   0  0  0  0  0  0  0  0  0  0  0  0
   22.3958   -1.7934    0.0000 C   0  0  0  0  0  0  0  0  0  0  0  0
   23.8948   -1.7393    0.0000 C   0  0  0  0  0  0  0  0  0  0  0  0
   24.6912   -3.0104    0.0000 C   0  0  0  0  0  0  0  0  0  0  0  0
   26.1903   -2.9562    0.0000 O   0  0  0  0  0  0  0  0  0  0  0  0
   23.9886   -4.3356    0.0000 O   0  0  0  0  0  0  0  0  0  0  0  0
   20.1004   -0.5765    0.0000 C   0  0  0  0  0  0  0  0  0  0  0  0
   19.5645   -1.9775    0.0000 O   0  0  0  0  0  0  0  0  0  0  0  0
   19.3039    0.6946    0.0000 N   0  0  0  0  0  0  0  0  0  0  0  0
   17.8049    0.6404    0.0000 C   0  0  0  0  0  0  0  0  0  0  0  0
   18.1186   -0.8264    0.0000 C   0  0  0  0  0  0  0  0  0  0  0  0
   17.0051   -1.8314    0.0000 C   0  0  0  0  0  0  0  0  0  0  0  0
   17.3187   -3.2983    0.0000 N   0  0  0  0  0  0  0  0  0  0  0  0
   15.5323   -1.5471    0.0000 O   0  0  0  0  0  0  0  0  0  0  0  0
   16.3778    1.1022    0.0000 C   0  0  0  0  0  0  0  0  0  0  0  0
   15.6614    0.2761    0.0000 O   0  0  0  0  0  0  0  0  0  0  0  0
   16.0641    2.5691    0.0000 N   0  0  0  0  0  0  0  0  0  0  0  0
   17.0665    3.6850    0.0000 C   0  0  0  0  0  0  0  0  0  0  0  0
   16.3149    4.9831    0.0000 C   0  0  0  0  0  0  0  0  0  0  0  0
   14.8480    4.6695    0.0000 C   0  0  0  0  0  0  0  0  0  0  0  0
   14.6931    3.1775    0.0000 C   0  0  0  0  0  0  0  0  0  0  0  0
   14.2313    1.7504    0.0000 C   0  0  0  0  0  0  0  0  0  0  0  0
   14.8335    1.2281    0.0000 O   0  0  0  0  0  0  0  0  0  0  0  0
   12.7644    1.4367    0.0000 N   0  0  0  0  0  0  0  0  0  0  0  0
   12.3026    0.0096    0.0000 C   0  0  0  0  0  0  0  0  0  0  0  0
   13.7883   -0.1974    0.0000 C   0  0  0  0  0  0  0  0  0  0  0  0
   14.7103    0.9858    0.0000 C   0  0  0  0  0  0  0  0  0  0  0  0
   16.1960    0.7788    0.0000 C   0  0  0  0  0  0  0  0  0  0  0  0
   16.9670    2.0655    0.0000 O   0  0  0  0  0  0  0  0  0  0  0  0
   16.7596   -0.6113    0.0000 O   0  0  0  0  0  0  0  0  0  0  0  0
   11.3806   -1.1736    0.0000 C   0  0  0  0  0  0  0  0  0  0  0  0
   12.1094   -2.4846    0.0000 O   0  0  0  0  0  0  0  0  0  0  0  0
    9.8949   -0.9666    0.0000 N   0  0  0  0  0  0  0  0  0  0  0  0
    8.9729   -2.1497    0.0000 C   0  0  0  0  0  0  0  0  0  0  0  0
   10.2981   -2.8523    0.0000 C   0  0  0  0  0  0  0  0  0  0  0  0
   11.6568   -2.2168    0.0000 O   0  0  0  0  0  0  0  0  0  0  0  0
    7.7018   -2.9462    0.0000 C   0  0  0  0  0  0  0  0  0  0  0  0
    8.1170   -4.3875    0.0000 O   0  0  0  0  0  0  0  0  0  0  0  0
    6.3765   -2.2436    0.0000 N   0  0  0  0  0  0  0  0  0  0  0  0
    5.1054   -3.0400    0.0000 C   0  0  0  0  0  0  0  0  0  0  0  0
    6.1104   -4.1535    0.0000 C   0  0  0  0  0  0  0  0  0  0  0  0
    7.5773   -3.8398    0.0000 C   0  0  0  0  0  0  0  0  0  0  0  0
    6.6740   -5.5436    0.0000 C   0  0  0  0  0  0  0  0  0  0  0  0
    8.1597   -5.7505    0.0000 C   0  0  0  0  0  0  0  0  0  0  0  0
    3.6385   -3.3536    0.0000 C   0  0  0  0  0  0  0  0  0  0  0  0
    3.5358   -4.8501    0.0000 O   0  0  0  0  0  0  0  0  0  0  0  0
    2.6335   -2.2401    0.0000 N   0  0  0  0  0  0  0  0  0  0  0  0
    1.1666   -2.5538    0.0000 C   0  0  0  0  0  0  0  0  0  0  0  0
    1.7302   -3.9439    0.0000 C   0  0  0  0  0  0  0  0  0  0  0  0
    3.2159   -4.1508    0.0000 C   0  0  0  0  0  0  0  0  0  0  0  0
    3.7795   -5.5409    0.0000 C   0  0  0  0  0  0  0  0  0  0  0  0
    4.6827   -3.8372    0.0000 C   0  0  0  0  0  0  0  0  0  0  0  0
   -0.3190   -2.3468    0.0000 C   0  0  0  0  0  0  0  0  0  0  0  0
   -0.9274   -3.7179    0.0000 O   0  0  0  0  0  0  0  0  0  0  0  0
   -0.8826   -0.9567    0.0000 N   0  0  0  0  0  0  0  0  0  0  0  0
   -2.3683   -0.7498    0.0000 C   0  0  0  0  0  0  0  0  0  0  0  0
   -2.3141   -2.2488    0.0000 C   0  0  0  0  0  0  0  0  0  0  0  0
   -0.9888   -2.9514    0.0000 C   0  0  0  0  0  0  0  0  0  0  0  0
   -0.9346   -4.4504    0.0000 O   0  0  0  0  0  0  0  0  0  0  0  0
    0.4372   -2.4862    0.0000 O   0  0  0  0  0  0  0  0  0  0  0  0
   -3.6935   -0.0472    0.0000 C   0  0  0  0  0  0  0  0  0  0  0  0
   -4.5947   -1.2463    0.0000 O   0  0  0  0  0  0  0  0  0  0  0  0
   -3.7477    1.4518    0.0000 N   0  0  0  0  0  0  0  0  0  0  0  0
   -5.0730    2.1544    0.0000 C   0  0  0  0  0  0  0  0  0  0  0  0
   -5.1683    0.6575    0.0000 C   0  0  0  0  0  0  0  0  0  0  0  0
   -5.7007   -0.7449    0.0000 C   0  0  0  0  0  0  0  0  0  0  0  0
   -6.6228   -1.9280    0.0000 C   0  0  0  0  0  0  0  0  0  0  0  0
   -7.8526   -2.7868    0.0000 C   0  0  0  0  0  0  0  0  0  0  0  0
   -3.8875    3.0735    0.0000 C   0  0  0  0  0  0  0  0  0  0  0  0
   -5.4231    3.6130    0.0000 C   0  0  0  0  0  0  0  0  0  0  0  0
   -4.0330    4.1766    0.0000 O   0  0  0  0  0  0  0  0  0  0  0  0
   -6.1876    4.9036    0.0000 N   0  0  0  0  0  0  0  0  0  0  0  0
   -7.2985    5.9115    0.0000 C   0  0  0  0  0  0  0  0  0  0  0  0
   -7.2779    7.4113    0.0000 C   0  0  0  0  0  0  0  0  0  0  0  0
   -5.9687    8.1434    0.0000 C   0  0  0  0  0  0  0  0  0  0  0  0
   -5.7914    9.6329    0.0000 C   0  0  0  0  0  0  0  0  0  0  0  0
   -4.3200    9.9246    0.0000 N   0  0  0  0  0  0  0  0  0  0  0  0
   -3.5879    8.6153    0.0000 C   0  0  0  0  0  0  0  0  0  0  0  0
   -4.6069    7.5145    0.0000 N   0  0  0  0  0  0  0  0  0  0  0  0
   -8.6572    6.5471    0.0000 C   0  0  0  0  0  0  0  0  0  0  0  0
   -8.2311    7.9854    0.0000 O   0  0  0  0  0  0  0  0  0  0  0  0
  -10.1428    6.7541    0.0000 N   0  0  0  0  0  0  0  0  0  0  0  0
  -11.6235    6.5140    0.0000 C   0  0  0  0  0  0  0  0  0  0  0  0
  -12.7832    7.4652    0.0000 C   0  0  0  0  0  0  0  0  0  0  0  0
  -12.5393    8.9453    0.0000 C   0  0  0  0  0  0  0  0  0  0  0  0
  -12.9676    5.8481    0.0000 C   0  0  0  0  0  0  0  0  0  0  0  0
  -13.8263    7.0779    0.0000 O   0  0  0  0  0  0  0  0  0  0  0  0
  -14.0556    4.8156    0.0000 N   0  0  0  0  0  0  0  0  0  0  0  0
  -14.7911    3.5082    0.0000 C   0  0  0  0  0  0  0  0  0  0  0  0
  -16.2579    3.1946    0.0000 C   0  0  0  0  0  0  0  0  0  0  0  0
  -17.2630    4.3081    0.0000 C   0  0  0  0  0  0  0  0  0  0  0  0
  -18.7298    3.9944    0.0000 C   0  0  0  0  0  0  0  0  0  0  0  0
  -19.7348    5.1079    0.0000 N   0  0  0  0  0  0  0  0  0  0  0  0
  -19.1916    2.5673    0.0000 O   0  0  0  0  0  0  0  0  0  0  0  0
  -15.1085    2.0422    0.0000 C   0  0  0  0  0  0  0  0  0  0  0  0
  -16.6054    2.1375    0.0000 O   0  0  0  0  0  0  0  0  0  0  0  0
  -14.9796    0.5477    0.0000 N   0  0  0  0  0  0  0  0  0  0  0  0
  -14.4161   -0.8424    0.0000 C   0  0  0  0  0  0  0  0  0  0  0  0
  -13.4678   -2.0046    0.0000 C   0  0  0  0  0  0  0  0  0  0  0  0
  -12.2190   -2.8356    0.0000 C   0  0  0  0  0  0  0  0  0  0  0  0
  -10.7808   -3.2617    0.0000 C   0  0  0  0  0  0  0  0  0  0  0  0
   -9.2809   -3.2449    0.0000 C   0  0  0  0  0  0  0  0  0  0  0  0
  -15.9149   -0.7844    0.0000 C   0  0  0  0  0  0  0  0  0  0  0  0
  -15.0854   -2.1848    0.0000 C   0  0  0  0  0  0  0  0  0  0  0  0
  -14.5848   -3.5988    0.0000 O   0  0  0  0  0  0  0  0  0  0  0  0
  -16.5826   -2.2763    0.0000 N   0  0  0  0  0  0  0  0  0  0  0  0
  -17.2519   -3.6187    0.0000 C   0  0  0  0  0  0  0  0  0  0  0  0
  -17.4218   -5.1090    0.0000 C   0  0  0  0  0  0  0  0  0  0  0  0
  -18.7142   -5.8703    0.0000 C   0  0  0  0  0  0  0  0  0  0  0  0
  -18.7491   -3.7102    0.0000 C   0  0  0  0  0  0  0  0  0  0  0  0
  -19.5770   -2.4593    0.0000 O   0  0  0  0  0  0  0  0  0  0  0  0
  -19.4185   -5.0526    0.0000 N   0  0  0  0  0  0  0  0  0  0  0  0
  -20.9157   -5.1441    0.0000 C   0  0  0  0  0  0  0  0  0  0  0  0
  -22.3539   -4.7180    0.0000 C   0  0  0  0  0  0  0  0  0  0  0  0
  -22.7040   -3.2594    0.0000 C   0  0  0  0  0  0  0  0  0  0  0  0
  -24.1422   -2.8334    0.0000 S   0  0  0  0  0  0  0  0  0  0  0  0
  -24.4924   -1.3748    0.0000 C   0  0  0  0  0  0  0  0  0  0  0  0
  -21.5850   -6.4865    0.0000 C   0  0  0  0  0  0  0  0  0  0  0  0
  -23.0599   -6.7598    0.0000 O   0  0  0  0  0  0  0  0  0  0  0  0
  -20.7572   -7.7373    0.0000 O   0  0  0  0  0  0  0  0  0  0  0  0
   26.3905    5.6254    0.0000 H   0  0  0  0  0  0  0  0  0  0  0  0
   27.3667    3.2177    0.0000 H   0  0  0  0  0  0  0  0  0  0  0  0
   24.4798    5.0430    0.0000 H   0  0  0  0  0  0  0  0  0  0  0  0
   23.2945    3.5220    0.0000 H   0  0  0  0  0  0  0  0  0  0  0  0
   26.0855    2.1447    0.0000 H   0  0  0  0  0  0  0  0  0  0  0  0
   24.9002    0.6237    0.0000 H   0  0  0  0  0  0  0  0  0  0  0  0
   24.2762   -0.7297    0.0000 H   0  0  0  0  0  0  0  0  0  0  0  0
   21.2857    0.9445    0.0000 H   0  0  0  0  0  0  0  0  0  0  0  0
   22.7094   -3.2603    0.0000 H   0  0  0  0  0  0  0  0  0  0  0  0
   21.0057   -2.3570    0.0000 H   0  0  0  0  0  0  0  0  0  0  0  0
   25.2849   -1.1757    0.0000 H   0  0  0  0  0  0  0  0  0  0  0  0
   24.1278   -0.2575    0.0000 H   0  0  0  0  0  0  0  0  0  0  0  0
   20.0065    2.0199    0.0000 H   0  0  0  0  0  0  0  0  0  0  0  0
   18.3652    2.0319    0.0000 H   0  0  0  0  0  0  0  0  0  0  0  0
   18.7541   -2.1851    0.0000 H   0  0  0  0  0  0  0  0  0  0  0  0
   19.6037   -0.6159    0.0000 H   0  0  0  0  0  0  0  0  0  0  0  0
   16.2052   -4.3033    0.0000 H   0  0  0  0  0  0  0  0  0  0  0  0
   18.7459   -3.7601    0.0000 H   0  0  0  0  0  0  0  0  0  0  0  0
   18.2789    4.5682    0.0000 H   0  0  0  0  0  0  0  0  0  0  0  0
   18.1997    2.7023    0.0000 H   0  0  0  0  0  0  0  0  0  0  0  0
   15.8496    6.4092    0.0000 H   0  0  0  0  0  0  0  0  0  0  0  0
   17.6845    5.5949    0.0000 H   0  0  0  0  0  0  0  0  0  0  0  0
   13.3480    4.6677    0.0000 H   0  0  0  0  0  0  0  0  0  0  0  0
   14.6894    6.1611    0.0000 H   0  0  0  0  0  0  0  0  0  0  0  0
   13.2255    3.4876    0.0000 H   0  0  0  0  0  0  0  0  0  0  0  0
   11.7594    2.5502    0.0000 H   0  0  0  0  0  0  0  0  0  0  0  0
   10.9774    0.7122    0.0000 H   0  0  0  0  0  0  0  0  0  0  0  0
   15.0180   -1.0563    0.0000 H   0  0  0  0  0  0  0  0  0  0  0  0
   13.3265   -1.6245    0.0000 H   0  0  0  0  0  0  0  0  0  0  0  0
   15.5037    2.2588    0.0000 H   0  0  0  0  0  0  0  0  0  0  0  0
   13.5945    1.9882    0.0000 H   0  0  0  0  0  0  0  0  0  0  0  0
    9.3313    0.4235    0.0000 H   0  0  0  0  0  0  0  0  0  0  0  0
    7.9678   -1.0362    0.0000 H   0  0  0  0  0  0  0  0  0  0  0  0
   11.3032   -3.9658    0.0000 H   0  0  0  0  0  0  0  0  0  0  0  0
    9.3761   -4.0355    0.0000 H   0  0  0  0  0  0  0  0  0  0  0  0
   12.8945   -2.7585    0.0000 H   0  0  0  0  0  0  0  0  0  0  0  0
    6.3223   -0.7445    0.0000 H   0  0  0  0  0  0  0  0  0  0  0  0
    4.7154   -1.5916    0.0000 H   0  0  0  0  0  0  0  0  0  0  0  0
    5.0698   -5.2338    0.0000 H   0  0  0  0  0  0  0  0  0  0  0  0
    8.7105   -4.8225    0.0000 H   0  0  0  0  0  0  0  0  0  0  0  0
    8.8484   -3.0434    0.0000 H   0  0  0  0  0  0  0  0  0  0  0  0
    7.4114   -2.3534    0.0000 H   0  0  0  0  0  0  0  0  0  0  0  0
    6.7282   -7.0426    0.0000 H   0  0  0  0  0  0  0  0  0  0  0  0
    5.2564   -6.0337    0.0000 H   0  0  0  0  0  0  0  0  0  0  0  0
    8.7233   -7.1406    0.0000 H   0  0  0  0  0  0  0  0  0  0  0  0
    9.6265   -5.4369    0.0000 H   0  0  0  0  0  0  0  0  0  0  0  0
    8.6464   -4.3317    0.0000 H   0  0  0  0  0  0  0  0  0  0  0  0
    3.0953   -0.8130    0.0000 H   0  0  0  0  0  0  0  0  0  0  0  0
    1.1125   -1.0548    0.0000 H   0  0  0  0  0  0  0  0  0  0  0  0
    1.6013   -5.4383    0.0000 H   0  0  0  0  0  0  0  0  0  0  0  0
    0.2634   -4.2575    0.0000 H   0  0  0  0  0  0  0  0  0  0  0  0
    3.5261   -2.6832    0.0000 H   0  0  0  0  0  0  0  0  0  0  0  0
    5.0922   -6.2666    0.0000 H   0  0  0  0  0  0  0  0  0  0  0  0
    3.8337   -7.0399    0.0000 H   0  0  0  0  0  0  0  0  0  0  0  0
    2.3618   -6.0310    0.0000 H   0  0  0  0  0  0  0  0  0  0  0  0
    5.6878   -4.9507    0.0000 H   0  0  0  0  0  0  0  0  0  0  0  0
    6.1088   -3.3720    0.0000 H   0  0  0  0  0  0  0  0  0  0  0  0
    3.9539   -2.5262    0.0000 H   0  0  0  0  0  0  0  0  0  0  0  0
    0.0394    0.2264    0.0000 H   0  0  0  0  0  0  0  0  0  0  0  0
   -1.9065    0.6774    0.0000 H   0  0  0  0  0  0  0  0  0  0  0  0
   -2.7759   -3.6759    0.0000 H   0  0  0  0  0  0  0  0  0  0  0  0
   -3.7997   -2.0418    0.0000 H   0  0  0  0  0  0  0  0  0  0  0  0
   -2.3890    2.0874    0.0000 H   0  0  0  0  0  0  0  0  0  0  0  0
   -3.6784    0.8309    0.0000 H   0  0  0  0  0  0  0  0  0  0  0  0
   -4.2464   -0.5257    0.0000 H   0  0  0  0  0  0  0  0  0  0  0  0
   -4.3358   -1.3671    0.0000 H   0  0  0  0  0  0  0  0  0  0  0  0
   -4.8449   -1.9768    0.0000 H   0  0  0  0  0  0  0  0  0  0  0  0
   -5.2191   -2.4569    0.0000 H   0  0  0  0  0  0  0  0  0  0  0  0
   -6.3458   -3.4022    0.0000 H   0  0  0  0  0  0  0  0  0  0  0  0
   -7.1867   -4.1309    0.0000 H   0  0  0  0  0  0  0  0  0  0  0  0
   -2.4401    2.6798    0.0000 H   0  0  0  0  0  0  0  0  0  0  0  0
   -3.0878    4.3425    0.0000 H   0  0  0  0  0  0  0  0  0  0  0  0
   -4.7215    4.3202    0.0000 H   0  0  0  0  0  0  0  0  0  0  0  0
   -5.0254    5.8519    0.0000 H   0  0  0  0  0  0  0  0  0  0  0  0
   -5.9229    6.5096    0.0000 H   0  0  0  0  0  0  0  0  0  0  0  0
   -7.7715    8.8278    0.0000 H   0  0  0  0  0  0  0  0  0  0  0  0
   -8.7726    7.5366    0.0000 H   0  0  0  0  0  0  0  0  0  0  0  0
   -6.8922   10.6518    0.0000 H   0  0  0  0  0  0  0  0  0  0  0  0
   -3.6911   11.2864    0.0000 H   0  0  0  0  0  0  0  0  0  0  0  0
   -2.0985    8.4381    0.0000 H   0  0  0  0  0  0  0  0  0  0  0  0
  -10.1596    8.2540    0.0000 H   0  0  0  0  0  0  0  0  0  0  0  0
  -11.0597    7.9040    0.0000 H   0  0  0  0  0  0  0  0  0  0  0  0
  -14.1984    7.9625    0.0000 H   0  0  0  0  0  0  0  0  0  0  0  0
  -13.8132    6.3747    0.0000 H   0  0  0  0  0  0  0  0  0  0  0  0
  -13.6991    9.8965    0.0000 H   0  0  0  0  0  0  0  0  0  0  0  0
  -11.8039   10.2526    0.0000 H   0  0  0  0  0  0  0  0  0  0  0  0
  -11.0741    8.6242    0.0000 H   0  0  0  0  0  0  0  0  0  0  0  0
  -15.2388    5.7376    0.0000 H   0  0  0  0  0  0  0  0  0  0  0  0
  -15.5264    4.8156    0.0000 H   0  0  0  0  0  0  0  0  0  0  0  0
  -17.5290    2.3981    0.0000 H   0  0  0  0  0  0  0  0  0  0  0  0
  -16.0474    1.7094    0.0000 H   0  0  0  0  0  0  0  0  0  0  0  0
  -17.8266    5.6982    0.0000 H   0  0  0  0  0  0  0  0  0  0  0  0
  -16.0984    5.2535    0.0000 H   0  0  0  0  0  0  0  0  0  0  0  0
  -21.2017    4.7943    0.0000 H   0  0  0  0  0  0  0  0  0  0  0  0
  -19.2731    6.5351    0.0000 H   0  0  0  0  0  0  0  0  0  0  0  0
  -16.4382    0.1976    0.0000 H   0  0  0  0  0  0  0  0  0  0  0  0
  -13.7117   -3.4846    0.0000 H   0  0  0  0  0  0  0  0  0  0  0  0
  -14.7806   -2.7302    0.0000 H   0  0  0  0  0  0  0  0  0  0  0  0
  -12.1985   -4.3355    0.0000 H   0  0  0  0  0  0  0  0  0  0  0  0
  -13.2596   -3.9160    0.0000 H   0  0  0  0  0  0  0  0  0  0  0  0
  -10.1486   -4.6220    0.0000 H   0  0  0  0  0  0  0  0  0  0  0  0
  -11.6149   -4.5084    0.0000 H   0  0  0  0  0  0  0  0  0  0  0  0
   -9.0408   -4.7256    0.0000 H   0  0  0  0  0  0  0  0  0  0  0  0
  -16.9979   -1.8222    0.0000 H   0  0  0  0  0  0  0  0  0  0  0  0
  -17.2241   -0.0522    0.0000 H   0  0  0  0  0  0  0  0  0  0  0  0
  -15.9617    0.7149    0.0000 H   0  0  0  0  0  0  0  0  0  0  0  0
  -17.5568   -1.1357    0.0000 H   0  0  0  0  0  0  0  0  0  0  0  0
  -15.8137   -4.0447    0.0000 H   0  0  0  0  0  0  0  0  0  0  0  0
  -17.0717   -6.5676    0.0000 H   0  0  0  0  0  0  0  0  0  0  0  0
  -15.9246   -5.0175    0.0000 H   0  0  0  0  0  0  0  0  0  0  0  0
  -18.9673   -7.1974    0.0000 H   0  0  0  0  0  0  0  0  0  0  0  0
  -20.2946   -5.7986    0.0000 H   0  0  0  0  0  0  0  0  0  0  0  0
  -19.7914   -4.5837    0.0000 H   0  0  0  0  0  0  0  0  0  0  0  0
  -18.7493   -6.3950    0.0000 H   0  0  0  0  0  0  0  0  0  0  0  0
  -20.5654   -3.6855    0.0000 H   0  0  0  0  0  0  0  0  0  0  0  0
  -23.8511   -4.8095    0.0000 H   0  0  0  0  0  0  0  0  0  0  0  0
  -22.7042   -6.1765    0.0000 H   0  0  0  0  0  0  0  0  0  0  0  0
  -22.3538   -1.8009    0.0000 H   0  0  0  0  0  0  0  0  0  0  0  0
  -21.2291   -2.9861    0.0000 H   0  0  0  0  0  0  0  0  0  0  0  0
  -25.9306   -0.9487    0.0000 H   0  0  0  0  0  0  0  0  0  0  0  0
  -24.3225    0.1155    0.0000 H   0  0  0  0  0  0  0  0  0  0  0  0
  -23.0175   -1.1015    0.0000 H   0  0  0  0  0  0  0  0  0  0  0  0
  1  2  1  0
  2  3  1  0
  3  4  1  0
  4  5  2  0
  4  6  1  0
  6  7  1  0
  7  8  1  0
  8  9  1  0
  9 10  1  0
 10 11  2  0
 10 12  1  0
  7 13  1  0
 13 14  2  0
 13 15  1  0
 15 16  1  0
 16 17  1  0
 17 18  1  0
 18 19  1  0
 18 20  2  0
 16 21  1  0
 21 22  2  0
 21 23  1  0
 23 24  1  0
 24 25  1  0
 25 26  1  0
 26 27  1  0
 27 28  1  0
 28 29  2  0
 28 30  1  0
 30 31  1  0
 31 32  1  0
 32 33  1  0
 33 34  1  0
 34 35  2  0
 34 36  1  0
 31 37  1  0
 37 38  2  0
 37 39  1  0
 39 40  1  0
 40 41  1  0
 41 42  1  0
 40 43  1  0
 43 44  2  0
 43 45  1  0
 45 46  1  0
 46 47  1  0
 47 48  1  0
 47 49  1  0
 49 50  1  0
 46 51  1  0
 51 52  2  0
 51 53  1  0
 53 54  1  0
 54 55  1  0
 55 56  1  0
 56 57  1  0
 56 58  1  0
 54 59  1  0
 59 60  2  0
 59 61  1  0
 61 62  1  0
 62 63  1  0
 63 64  1  0
 64 65  2  0
 64 66  1  0
 62 67  1  0
 67 68  2  0
 67 69  1  0
 70 69  1  1
 70 71  1  0
 71 72  1  0
 72 73  1  0
 73 74  1  0
 70 75  1  0
 70 76  1  0
 76 77  2  0
 76 78  1  0
 78 79  1  0
 79 80  1  0
 80 81  1  0
 81 82  2  0
 82 83  1  0
 83 84  1  0
 84 85  2  0
 79 86  1  0
 86 87  2  0
 86 88  1  0
 88 89  1  0
 89 90  1  0
 90 91  1  0
 89 92  1  0
 92 93  2  0
 92 94  1  0
 94 95  1  0
 95 96  1  0
 96 97  1  0
 97 98  1  0
 98 99  1  0
 98100  2  0
 95101  1  0
101102  2  0
101103  1  0
103104  1  0
104105  1  0
105106  1  0
106107  1  0
107108  1  0
104109  1  0
104110  1  1
110111  2  0
110112  1  0
112113  1  0
113114  1  0
114115  1  0
113116  1  0
116117  2  0
116118  1  0
118119  1  0
119120  1  0
120121  1  0
121122  1  0
122123  1  0
119124  1  0
124125  2  0
124126  1  0
 27 23  1  0
 85 81  1  0
 74108  2  0
  1127  1  0
  1128  1  0
  2129  1  0
  2130  1  0
  3131  1  0
  3132  1  0
  6133  1  0
  7134  1  1
  8135  1  0
  8136  1  0
  9137  1  0
  9138  1  0
 15139  1  0
 16140  1  1
 17141  1  0
 17142  1  0
 19143  1  0
 19144  1  0
 24145  1  0
 24146  1  0
 25147  1  0
 25148  1  0
 26149  1  0
 26150  1  0
 27151  1  0
 30152  1  0
 31153  1  1
 32154  1  0
 32155  1  0
 33156  1  0
 33157  1  0
 39158  1  0
 40159  1  1
 41160  1  0
 41161  1  0
 42162  1  0
 45163  1  0
 46164  1  1
 47165  1  6
 48166  1  0
 48167  1  0
 48168  1  0
 49169  1  0
 49170  1  0
 50171  1  0
 50172  1  0
 50173  1  0
 53174  1  0
 54175  1  1
 55176  1  0
 55177  1  0
 56178  1  0
 57179  1  0
 57180  1  0
 57181  1  0
 58182  1  0
 58183  1  0
 58184  1  0
 61185  1  0
 62186  1  1
 63187  1  0
 63188  1  0
 69189  1  0
 71190  1  0
 71191  1  0
 72192  1  0
 72193  1  0
 73194  1  0
 73195  1  0
 74196  1  0
 75197  1  0
 75198  1  0
 75199  1  0
 78200  1  0
 79201  1  6
 80202  1  0
 80203  1  0
 82204  1  0
 83205  1  0
 84206  1  0
 88207  1  0
 89208  1  6
 90209  1  0
 90210  1  0
 91211  1  0
 91212  1  0
 91213  1  0
 94214  1  0
 95215  1  6
 96216  1  0
 96217  1  0
 97218  1  0
 97219  1  0
 99220  1  0
 99221  1  0
103222  1  0
105223  1  0
105224  1  0
106225  1  0
106226  1  0
107227  1  0
107228  1  0
108229  1  0
109230  1  0
109231  1  0
109232  1  0
112233  1  0
113234  1  1
114235  1  0
114236  1  0
115237  1  0
115238  1  0
115239  1  0
118240  1  0
119241  1  6
120242  1  0
120243  1  0
121244  1  0
121245  1  0
123246  1  0
123247  1  0
123248  1  0
M  CHG  4  12  -1  36  -1  66  -1 126  -1
M  END
