
     RDKit          2D

419420  0  0  0  0  0  0  0  0999 V2000
  -42.0172    1.9595    0.0000 N   0  0  0  0  0  0  0  0  0  0  0  0
  -41.2785    0.6541    0.0000 C   0  0  0  0  0  0  0  0  0  0  0  0
  -42.0397   -0.6384    0.0000 C   0  0  0  0  0  0  0  0  0  0  0  0
  -41.3010   -1.9439    0.0000 C   0  0  0  0  0  0  0  0  0  0  0  0
  -39.8010   -1.9569    0.0000 O   0  0  0  0  0  0  0  0  0  0  0  0
  -42.0622   -3.2364    0.0000 N   0  0  0  0  0  0  0  0  0  0  0  0
  -41.3235   -4.5419    0.0000 C   0  0  0  0  0  0  0  0  0  0  0  0
  -42.7374   -5.0427    0.0000 C   0  0  0  0  0  0  0  0  0  0  0  0
  -43.9883   -4.2149    0.0000 O   0  0  0  0  0  0  0  0  0  0  0  0
  -40.1828   -5.5160    0.0000 C   0  0  0  0  0  0  0  0  0  0  0  0
  -40.5887   -6.8035    0.0000 O   0  0  0  0  0  0  0  0  0  0  0  0
  -38.7689   -5.0152    0.0000 N   0  0  0  0  0  0  0  0  0  0  0  0
  -37.6282   -5.9893    0.0000 C   0  0  0  0  0  0  0  0  0  0  0  0
  -38.7856   -6.9435    0.0000 C   0  0  0  0  0  0  0  0  0  0  0  0
  -38.5379   -8.4229    0.0000 C   0  0  0  0  0  0  0  0  0  0  0  0
  -39.6953   -9.3771    0.0000 C   0  0  0  0  0  0  0  0  0  0  0  0
  -39.4476  -10.8565    0.0000 O   0  0  0  0  0  0  0  0  0  0  0  0
  -41.1003   -8.8519    0.0000 O   0  0  0  0  0  0  0  0  0  0  0  0
  -36.2231   -6.5145    0.0000 C   0  0  0  0  0  0  0  0  0  0  0  0
  -36.1642   -7.8632    0.0000 O   0  0  0  0  0  0  0  0  0  0  0  0
  -35.0658   -5.5603    0.0000 N   0  0  0  0  0  0  0  0  0  0  0  0
  -33.6607   -6.0855    0.0000 C   0  0  0  0  0  0  0  0  0  0  0  0
  -34.4219   -7.3780    0.0000 C   0  0  0  0  0  0  0  0  0  0  0  0
  -33.6832   -8.6835    0.0000 C   0  0  0  0  0  0  0  0  0  0  0  0
  -34.4444   -9.9760    0.0000 C   0  0  0  0  0  0  0  0  0  0  0  0
  -33.7057  -11.2815    0.0000 O   0  0  0  0  0  0  0  0  0  0  0  0
  -35.9444   -9.9630    0.0000 O   0  0  0  0  0  0  0  0  0  0  0  0
  -32.1608   -6.0985    0.0000 C   0  0  0  0  0  0  0  0  0  0  0  0
  -31.6958   -7.2210    0.0000 O   0  0  0  0  0  0  0  0  0  0  0  0
  -31.3996   -4.8060    0.0000 N   0  0  0  0  0  0  0  0  0  0  0  0
  -29.8996   -4.8190    0.0000 C   0  0  0  0  0  0  0  0  0  0  0  0
  -30.1729   -6.2939    0.0000 C   0  0  0  0  0  0  0  0  0  0  0  0
  -29.0322   -7.2680    0.0000 C   0  0  0  0  0  0  0  0  0  0  0  0
  -29.3054   -8.7429    0.0000 C   0  0  0  0  0  0  0  0  0  0  0  0
  -27.6272   -7.7932    0.0000 C   0  0  0  0  0  0  0  0  0  0  0  0
  -28.4857   -4.3182    0.0000 C   0  0  0  0  0  0  0  0  0  0  0  0
  -27.3450   -5.2923    0.0000 O   0  0  0  0  0  0  0  0  0  0  0  0
  -28.2124   -2.8433    0.0000 N   0  0  0  0  0  0  0  0  0  0  0  0
  -26.7985   -2.3425    0.0000 C   0  0  0  0  0  0  0  0  0  0  0  0
  -27.5372   -1.0370    0.0000 C   0  0  0  0  0  0  0  0  0  0  0  0
  -29.0372   -1.0240    0.0000 C   0  0  0  0  0  0  0  0  0  0  0  0
  -25.2986   -2.3555    0.0000 C   0  0  0  0  0  0  0  0  0  0  0  0
  -24.7245   -3.7413    0.0000 O   0  0  0  0  0  0  0  0  0  0  0  0
  -24.5373   -1.0630    0.0000 N   0  0  0  0  0  0  0  0  0  0  0  0
  -23.0374   -1.0760    0.0000 C   0  0  0  0  0  0  0  0  0  0  0  0
  -22.0546   -2.2092    0.0000 C   0  0  0  0  0  0  0  0  0  0  0  0
  -20.7815   -3.0024    0.0000 C   0  0  0  0  0  0  0  0  0  0  0  0
  -19.3312   -3.3851    0.0000 C   0  0  0  0  0  0  0  0  0  0  0  0
  -17.8324   -3.3233    0.0000 C   0  0  0  0  0  0  0  0  0  0  0  0
  -23.8275   -2.3511    0.0000 C   0  0  0  0  0  0  0  0  0  0  0  0
  -23.6425    0.2966    0.0000 C   0  0  0  0  0  0  0  0  0  0  0  0
  -25.1271    0.0822    0.0000 O   0  0  0  0  0  0  0  0  0  0  0  0
  -23.8161    1.7865    0.0000 N   0  0  0  0  0  0  0  0  0  0  0  0
  -23.5428    3.2614    0.0000 C   0  0  0  0  0  0  0  0  0  0  0  0
  -24.9996    2.9038    0.0000 C   0  0  0  0  0  0  0  0  0  0  0  0
  -26.0376    3.9867    0.0000 C   0  0  0  0  0  0  0  0  0  0  0  0
  -27.4944    3.6291    0.0000 C   0  0  0  0  0  0  0  0  0  0  0  0
  -28.5324    4.7120    0.0000 O   0  0  0  0  0  0  0  0  0  0  0  0
  -27.9131    2.1888    0.0000 O   0  0  0  0  0  0  0  0  0  0  0  0
  -22.8470    4.5902    0.0000 C   0  0  0  0  0  0  0  0  0  0  0  0
  -24.0573    5.4763    0.0000 O   0  0  0  0  0  0  0  0  0  0  0  0
  -21.7904    5.6549    0.0000 N   0  0  0  0  0  0  0  0  0  0  0  0
  -20.4669    6.3608    0.0000 C   0  0  0  0  0  0  0  0  0  0  0  0
  -21.6547    7.2769    0.0000 C   0  0  0  0  0  0  0  0  0  0  0  0
  -18.9941    6.6453    0.0000 C   0  0  0  0  0  0  0  0  0  0  0  0
  -19.0559    8.1441    0.0000 O   0  0  0  0  0  0  0  0  0  0  0  0
  -17.5029    6.4831    0.0000 N   0  0  0  0  0  0  0  0  0  0  0  0
  -16.1258    5.8885    0.0000 C   0  0  0  0  0  0  0  0  0  0  0  0
  -16.1502    7.3883    0.0000 C   0  0  0  0  0  0  0  0  0  0  0  0
  -14.8635    8.1593    0.0000 C   0  0  0  0  0  0  0  0  0  0  0  0
  -14.7310    9.6534    0.0000 C   0  0  0  0  0  0  0  0  0  0  0  0
  -13.2691    9.9891    0.0000 N   0  0  0  0  0  0  0  0  0  0  0  0
  -12.4980    8.7025    0.0000 C   0  0  0  0  0  0  0  0  0  0  0  0
  -13.4835    7.5716    0.0000 N   0  0  0  0  0  0  0  0  0  0  0  0
  -14.9851    4.9144    0.0000 C   0  0  0  0  0  0  0  0  0  0  0  0
  -13.8519    5.8971    0.0000 O   0  0  0  0  0  0  0  0  0  0  0  0
  -14.1822    3.6473    0.0000 N   0  0  0  0  0  0  0  0  0  0  0  0
  -13.7885    2.1999    0.0000 C   0  0  0  0  0  0  0  0  0  0  0  0
  -13.8389    0.7008    0.0000 C   0  0  0  0  0  0  0  0  0  0  0  0
  -14.3289   -0.7169    0.0000 C   0  0  0  0  0  0  0  0  0  0  0  0
  -15.2150   -1.9272    0.0000 C   0  0  0  0  0  0  0  0  0  0  0  0
  -16.4185   -2.8225    0.0000 C   0  0  0  0  0  0  0  0  0  0  0  0
  -12.3720    1.7064    0.0000 C   0  0  0  0  0  0  0  0  0  0  0  0
  -12.6311    3.1541    0.0000 C   0  0  0  0  0  0  0  0  0  0  0  0
  -12.6966    4.6527    0.0000 O   0  0  0  0  0  0  0  0  0  0  0  0
  -11.2261    2.6289    0.0000 N   0  0  0  0  0  0  0  0  0  0  0  0
  -10.0687    3.5831    0.0000 C   0  0  0  0  0  0  0  0  0  0  0  0
   -9.3075    4.8756    0.0000 C   0  0  0  0  0  0  0  0  0  0  0  0
   -7.8075    4.8626    0.0000 C   0  0  0  0  0  0  0  0  0  0  0  0
   -7.0463    6.1551    0.0000 C   0  0  0  0  0  0  0  0  0  0  0  0
   -6.4025    4.3374    0.0000 C   0  0  0  0  0  0  0  0  0  0  0  0
   -8.6636    3.0579    0.0000 C   0  0  0  0  0  0  0  0  0  0  0  0
   -8.4160    1.5785    0.0000 O   0  0  0  0  0  0  0  0  0  0  0  0
   -7.5063    4.0121    0.0000 N   0  0  0  0  0  0  0  0  0  0  0  0
   -6.1012    3.4869    0.0000 C   0  0  0  0  0  0  0  0  0  0  0  0
   -4.9606    2.5128    0.0000 C   0  0  0  0  0  0  0  0  0  0  0  0
   -5.2338    1.0379    0.0000 S   0  0  0  0  0  0  0  0  0  0  0  0
   -4.9439    4.4410    0.0000 C   0  0  0  0  0  0  0  0  0  0  0  0
   -5.0093    5.9396    0.0000 O   0  0  0  0  0  0  0  0  0  0  0  0
   -3.5388    3.9158    0.0000 N   0  0  0  0  0  0  0  0  0  0  0  0
   -2.3814    4.8700    0.0000 C   0  0  0  0  0  0  0  0  0  0  0  0
   -1.6202    6.1625    0.0000 C   0  0  0  0  0  0  0  0  0  0  0  0
   -1.3470    7.6374    0.0000 O   0  0  0  0  0  0  0  0  0  0  0  0
   -0.1299    6.3325    0.0000 C   0  0  0  0  0  0  0  0  0  0  0  0
   -0.9764    4.3448    0.0000 C   0  0  0  0  0  0  0  0  0  0  0  0
   -0.7287    2.8654    0.0000 O   0  0  0  0  0  0  0  0  0  0  0  0
    0.1810    5.2990    0.0000 N   0  0  0  0  0  0  0  0  0  0  0  0
    1.5860    4.7738    0.0000 C   0  0  0  0  0  0  0  0  0  0  0  0
    2.7267    3.7997    0.0000 C   0  0  0  0  0  0  0  0  0  0  0  0
    2.4534    2.3248    0.0000 C   0  0  0  0  0  0  0  0  0  0  0  0
    3.5941    1.3507    0.0000 C   0  0  0  0  0  0  0  0  0  0  0  0
    1.6922    1.0323    0.0000 C   0  0  0  0  0  0  0  0  0  0  0  0
    2.7434    5.7280    0.0000 C   0  0  0  0  0  0  0  0  0  0  0  0
    2.4957    7.2074    0.0000 O   0  0  0  0  0  0  0  0  0  0  0  0
    4.1484    5.2028    0.0000 N   0  0  0  0  0  0  0  0  0  0  0  0
    5.3058    6.1570    0.0000 C   0  0  0  0  0  0  0  0  0  0  0  0
    6.0670    7.4495    0.0000 C   0  0  0  0  0  0  0  0  0  0  0  0
    7.5670    7.4365    0.0000 C   0  0  0  0  0  0  0  0  0  0  0  0
    8.3282    8.7290    0.0000 C   0  0  0  0  0  0  0  0  0  0  0  0
    8.9720    6.9112    0.0000 C   0  0  0  0  0  0  0  0  0  0  0  0
    6.7108    5.6317    0.0000 C   0  0  0  0  0  0  0  0  0  0  0  0
    6.9585    4.1523    0.0000 O   0  0  0  0  0  0  0  0  0  0  0  0
    7.8682    6.5859    0.0000 N   0  0  0  0  0  0  0  0  0  0  0  0
    9.2733    6.0607    0.0000 C   0  0  0  0  0  0  0  0  0  0  0  0
   10.4139    5.0866    0.0000 C   0  0  0  0  0  0  0  0  0  0  0  0
   10.1407    3.6117    0.0000 C   0  0  0  0  0  0  0  0  0  0  0  0
   11.2814    2.6376    0.0000 C   0  0  0  0  0  0  0  0  0  0  0  0
   11.0081    1.1627    0.0000 O   0  0  0  0  0  0  0  0  0  0  0  0
   12.6953    3.1384    0.0000 O   0  0  0  0  0  0  0  0  0  0  0  0
   10.4306    7.0149    0.0000 C   0  0  0  0  0  0  0  0  0  0  0  0
   10.3651    8.5135    0.0000 O   0  0  0  0  0  0  0  0  0  0  0  0
   11.8357    6.4897    0.0000 N   0  0  0  0  0  0  0  0  0  0  0  0
   12.9931    7.4439    0.0000 C   0  0  0  0  0  0  0  0  0  0  0  0
   13.7543    8.7364    0.0000 C   0  0  0  0  0  0  0  0  0  0  0  0
   13.0156   10.0419    0.0000 C   0  0  0  0  0  0  0  0  0  0  0  0
   13.7768   11.3344    0.0000 N   0  0  0  0  0  0  0  0  0  0  0  0
   11.5156   10.0549    0.0000 O   0  0  0  0  0  0  0  0  0  0  0  0
   14.3981    6.9187    0.0000 C   0  0  0  0  0  0  0  0  0  0  0  0
   15.6632    7.7247    0.0000 O   0  0  0  0  0  0  0  0  0  0  0  0
   14.6458    5.4393    0.0000 N   0  0  0  0  0  0  0  0  0  0  0  0
   16.0508    4.9140    0.0000 C   0  0  0  0  0  0  0  0  0  0  0  0
   17.5508    4.9011    0.0000 C   0  0  0  0  0  0  0  0  0  0  0  0
   16.2985    3.4346    0.0000 C   0  0  0  0  0  0  0  0  0  0  0  0
   15.1411    2.4804    0.0000 O   0  0  0  0  0  0  0  0  0  0  0  0
   17.7035    2.9094    0.0000 N   0  0  0  0  0  0  0  0  0  0  0  0
   17.9512    1.4300    0.0000 C   0  0  0  0  0  0  0  0  0  0  0  0
   17.6779   -0.0449    0.0000 C   0  0  0  0  0  0  0  0  0  0  0  0
   18.6914   -1.1508    0.0000 C   0  0  0  0  0  0  0  0  0  0  0  0
   16.9167   -1.3374    0.0000 C   0  0  0  0  0  0  0  0  0  0  0  0
   15.4168   -1.3244    0.0000 C   0  0  0  0  0  0  0  0  0  0  0  0
   19.3562    0.9048    0.0000 C   0  0  0  0  0  0  0  0  0  0  0  0
   20.5136    1.8590    0.0000 O   0  0  0  0  0  0  0  0  0  0  0  0
   19.6039   -0.5746    0.0000 N   0  0  0  0  0  0  0  0  0  0  0  0
   21.0090   -1.0998    0.0000 C   0  0  0  0  0  0  0  0  0  0  0  0
   22.5089   -1.1128    0.0000 C   0  0  0  0  0  0  0  0  0  0  0  0
   23.2701    0.1797    0.0000 C   0  0  0  0  0  0  0  0  0  0  0  0
   24.7701    0.1667    0.0000 C   0  0  0  0  0  0  0  0  0  0  0  0
   25.5313    1.4592    0.0000 N   0  0  0  0  0  0  0  0  0  0  0  0
   25.5088   -1.1388    0.0000 O   0  0  0  0  0  0  0  0  0  0  0  0
   21.2566   -2.5793    0.0000 C   0  0  0  0  0  0  0  0  0  0  0  0
   20.0993   -3.5335    0.0000 O   0  0  0  0  0  0  0  0  0  0  0  0
   22.6617   -3.1045    0.0000 N   0  0  0  0  0  0  0  0  0  0  0  0
   22.9093   -4.5839    0.0000 C   0  0  0  0  0  0  0  0  0  0  0  0
   22.6361   -6.0588    0.0000 C   0  0  0  0  0  0  0  0  0  0  0  0
   21.2222   -6.5596    0.0000 C   0  0  0  0  0  0  0  0  0  0  0  0
   20.9489   -8.0345    0.0000 O   0  0  0  0  0  0  0  0  0  0  0  0
   20.0815   -5.5855    0.0000 O   0  0  0  0  0  0  0  0  0  0  0  0
   24.3144   -5.1091    0.0000 C   0  0  0  0  0  0  0  0  0  0  0  0
   24.7405   -6.5473    0.0000 O   0  0  0  0  0  0  0  0  0  0  0  0
   25.4718   -4.1549    0.0000 N   0  0  0  0  0  0  0  0  0  0  0  0
   26.8768   -4.6801    0.0000 C   0  0  0  0  0  0  0  0  0  0  0  0
   28.0175   -5.6542    0.0000 C   0  0  0  0  0  0  0  0  0  0  0  0
   28.7562   -6.9597    0.0000 O   0  0  0  0  0  0  0  0  0  0  0  0
   29.4819   -5.3295    0.0000 C   0  0  0  0  0  0  0  0  0  0  0  0
   28.0342   -3.7259    0.0000 C   0  0  0  0  0  0  0  0  0  0  0  0
   27.7865   -2.2465    0.0000 O   0  0  0  0  0  0  0  0  0  0  0  0
   29.4392   -4.2511    0.0000 N   0  0  0  0  0  0  0  0  0  0  0  0
   30.5966   -3.2970    0.0000 C   0  0  0  0  0  0  0  0  0  0  0  0
   31.3578   -2.0045    0.0000 C   0  0  0  0  0  0  0  0  0  0  0  0
   32.8482   -1.8345    0.0000 C   0  0  0  0  0  0  0  0  0  0  0  0
   32.0016   -3.8222    0.0000 C   0  0  0  0  0  0  0  0  0  0  0  0
   32.2493   -5.3016    0.0000 O   0  0  0  0  0  0  0  0  0  0  0  0
   33.1590   -2.8680    0.0000 N   0  0  0  0  0  0  0  0  0  0  0  0
   34.5640   -3.3932    0.0000 C   0  0  0  0  0  0  0  0  0  0  0  0
   35.7047   -4.3673    0.0000 C   0  0  0  0  0  0  0  0  0  0  0  0
   35.4315   -5.8422    0.0000 C   0  0  0  0  0  0  0  0  0  0  0  0
   36.5721   -6.8163    0.0000 C   0  0  0  0  0  0  0  0  0  0  0  0
   36.2989   -8.2912    0.0000 N   0  0  0  0  0  0  0  0  0  0  0  0
   37.4396   -9.2653    0.0000 C   0  0  0  0  0  0  0  0  0  0  0  0
   37.1663  -10.7402    0.0000 N   0  0  0  0  0  0  0  0  0  0  0  0
   38.8535   -8.7645    0.0000 N   0  0  0  0  0  0  0  0  0  0  0  0
   35.7214   -2.4390    0.0000 C   0  0  0  0  0  0  0  0  0  0  0  0
   35.4737   -0.9596    0.0000 O   0  0  0  0  0  0  0  0  0  0  0  0
   37.1265   -2.9642    0.0000 N   0  0  0  0  0  0  0  0  0  0  0  0
   38.2838   -2.0100    0.0000 C   0  0  0  0  0  0  0  0  0  0  0  0
   39.0451   -0.7175    0.0000 C   0  0  0  0  0  0  0  0  0  0  0  0
   40.5450   -0.7305    0.0000 C   0  0  0  0  0  0  0  0  0  0  0  0
   41.3062    0.5620    0.0000 C   0  0  0  0  0  0  0  0  0  0  0  0
   42.8062    0.5490    0.0000 O   0  0  0  0  0  0  0  0  0  0  0  0
   40.5675    1.8675    0.0000 O   0  0  0  0  0  0  0  0  0  0  0  0
   39.6889   -2.5352    0.0000 C   0  0  0  0  0  0  0  0  0  0  0  0
   40.9539   -1.7292    0.0000 O   0  0  0  0  0  0  0  0  0  0  0  0
   39.9366   -4.0146    0.0000 N   0  0  0  0  0  0  0  0  0  0  0  0
   41.3416   -4.5399    0.0000 C   0  0  0  0  0  0  0  0  0  0  0  0
   42.8415   -4.5529    0.0000 C   0  0  0  0  0  0  0  0  0  0  0  0
   43.6028   -3.2604    0.0000 C   0  0  0  0  0  0  0  0  0  0  0  0
   45.1027   -3.2733    0.0000 C   0  0  0  0  0  0  0  0  0  0  0  0
   45.8639   -1.9809    0.0000 N   0  0  0  0  0  0  0  0  0  0  0  0
   45.8414   -4.5788    0.0000 O   0  0  0  0  0  0  0  0  0  0  0  0
   41.5893   -6.0193    0.0000 C   0  0  0  0  0  0  0  0  0  0  0  0
   42.9198   -6.7118    0.0000 O   0  0  0  0  0  0  0  0  0  0  0  0
   40.4319   -6.9735    0.0000 O   0  0  0  0  0  0  0  0  0  0  0  0
  -41.2560    3.2520    0.0000 H   0  0  0  0  0  0  0  0  0  0  0  0
  -43.5171    1.9725    0.0000 H   0  0  0  0  0  0  0  0  0  0  0  0
  -40.1211    1.6082    0.0000 H   0  0  0  0  0  0  0  0  0  0  0  0
  -40.1378   -0.3200    0.0000 H   0  0  0  0  0  0  0  0  0  0  0  0
  -43.1804    0.3357    0.0000 H   0  0  0  0  0  0  0  0  0  0  0  0
  -43.1971   -1.5926    0.0000 H   0  0  0  0  0  0  0  0  0  0  0  0
  -43.5494   -3.0407    0.0000 H   0  0  0  0  0  0  0  0  0  0  0  0
  -40.1661   -3.5877    0.0000 H   0  0  0  0  0  0  0  0  0  0  0  0
  -43.8948   -5.9969    0.0000 H   0  0  0  0  0  0  0  0  0  0  0  0
  -41.9987   -6.3482    0.0000 H   0  0  0  0  0  0  0  0  0  0  0  0
  -45.2920   -4.5694    0.0000 H   0  0  0  0  0  0  0  0  0  0  0  0
  -38.4956   -3.5403    0.0000 H   0  0  0  0  0  0  0  0  0  0  0  0
  -36.8670   -4.6968    0.0000 H   0  0  0  0  0  0  0  0  0  0  0  0
  -39.9937   -7.5460    0.0000 H   0  0  0  0  0  0  0  0  0  0  0  0
  -39.5384   -6.1504    0.0000 H   0  0  0  0  0  0  0  0  0  0  0  0
  -37.7992   -9.7284    0.0000 H   0  0  0  0  0  0  0  0  0  0  0  0
  -37.1240   -7.9221    0.0000 H   0  0  0  0  0  0  0  0  0  0  0  0
  -35.3134   -4.0809    0.0000 H   0  0  0  0  0  0  0  0  0  0  0  0
  -33.3875   -4.6106    0.0000 H   0  0  0  0  0  0  0  0  0  0  0  0
  -35.3511   -8.3574    0.0000 H   0  0  0  0  0  0  0  0  0  0  0  0
  -35.4006   -6.8902    0.0000 H   0  0  0  0  0  0  0  0  0  0  0  0
  -32.5425   -9.6576    0.0000 H   0  0  0  0  0  0  0  0  0  0  0  0
  -32.5258   -7.7293    0.0000 H   0  0  0  0  0  0  0  0  0  0  0  0
  -32.1383   -3.5005    0.0000 H   0  0  0  0  0  0  0  0  0  0  0  0
  -30.1473   -3.3396    0.0000 H   0  0  0  0  0  0  0  0  0  0  0  0
  -30.7895   -7.3408    0.0000 H   0  0  0  0  0  0  0  0  0  0  0  0
  -31.2594   -6.1703    0.0000 H   0  0  0  0  0  0  0  0  0  0  0  0
  -28.2710   -5.9755    0.0000 H   0  0  0  0  0  0  0  0  0  0  0  0
  -28.2920   -9.8488    0.0000 H   0  0  0  0  0  0  0  0  0  0  0  0
  -30.0667  -10.0354    0.0000 H   0  0  0  0  0  0  0  0  0  0  0  0
  -30.7640   -8.3929    0.0000 H   0  0  0  0  0  0  0  0  0  0  0  0
  -27.2010   -9.2314    0.0000 H   0  0  0  0  0  0  0  0  0  0  0  0
  -26.1272   -7.8062    0.0000 H   0  0  0  0  0  0  0  0  0  0  0  0
  -27.3539   -6.3183    0.0000 H   0  0  0  0  0  0  0  0  0  0  0  0
  -29.2257   -2.1728    0.0000 H   0  0  0  0  0  0  0  0  0  0  0  0
  -26.5508   -3.8219    0.0000 H   0  0  0  0  0  0  0  0  0  0  0  0
  -27.7849    0.4424    0.0000 H   0  0  0  0  0  0  0  0  0  0  0  0
  -26.1233   -0.5362    0.0000 H   0  0  0  0  0  0  0  0  0  0  0  0
  -29.7759    0.2815    0.0000 H   0  0  0  0  0  0  0  0  0  0  0  0
  -30.4511   -1.5248    0.0000 H   0  0  0  0  0  0  0  0  0  0  0  0
  -29.2794   -2.2146    0.0000 H   0  0  0  0  0  0  0  0  0  0  0  0
  -25.4297    0.1427    0.0000 H   0  0  0  0  0  0  0  0  0  0  0  0
  -22.2540   -3.6959    0.0000 H   0  0  0  0  0  0  0  0  0  0  0  0
  -23.4287   -2.8109    0.0000 H   0  0  0  0  0  0  0  0  0  0  0  0
  -20.7160   -4.5010    0.0000 H   0  0  0  0  0  0  0  0  0  0  0  0
  -21.9172   -3.9824    0.0000 H   0  0  0  0  0  0  0  0  0  0  0  0
  -18.6584   -4.7258    0.0000 H   0  0  0  0  0  0  0  0  0  0  0  0
  -20.1275   -4.6563    0.0000 H   0  0  0  0  0  0  0  0  0  0  0  0
  -17.5480   -4.7961    0.0000 H   0  0  0  0  0  0  0  0  0  0  0  0
  -25.0663   -2.8901    0.0000 H   0  0  0  0  0  0  0  0  0  0  0  0
  -23.5987   -3.9164    0.0000 H   0  0  0  0  0  0  0  0  0  0  0  0
  -22.4912   -3.3671    0.0000 H   0  0  0  0  0  0  0  0  0  0  0  0
  -25.3152    1.8369    0.0000 H   0  0  0  0  0  0  0  0  0  0  0  0
  -24.3170    4.5461    0.0000 H   0  0  0  0  0  0  0  0  0  0  0  0
  -26.2462    2.0696    0.0000 H   0  0  0  0  0  0  0  0  0  0  0  0
  -24.7446    1.4257    0.0000 H   0  0  0  0  0  0  0  0  0  0  0  0
  -26.6427    5.3592    0.0000 H   0  0  0  0  0  0  0  0  0  0  0  0
  -24.9020    4.9666    0.0000 H   0  0  0  0  0  0  0  0  0  0  0  0
  -22.6857    6.8584    0.0000 H   0  0  0  0  0  0  0  0  0  0  0  0
  -20.1204    7.8203    0.0000 H   0  0  0  0  0  0  0  0  0  0  0  0
  -21.4553    8.7636    0.0000 H   0  0  0  0  0  0  0  0  0  0  0  0
  -23.0842    7.7314    0.0000 H   0  0  0  0  0  0  0  0  0  0  0  0
  -22.6514    6.1559    0.0000 H   0  0  0  0  0  0  0  0  0  0  0  0
  -17.1202    7.9334    0.0000 H   0  0  0  0  0  0  0  0  0  0  0  0
  -14.7687    6.5276    0.0000 H   0  0  0  0  0  0  0  0  0  0  0  0
  -16.6861    8.7893    0.0000 H   0  0  0  0  0  0  0  0  0  0  0  0
  -17.6480    7.4686    0.0000 H   0  0  0  0  0  0  0  0  0  0  0  0
  -15.8619   10.6389    0.0000 H   0  0  0  0  0  0  0  0  0  0  0  0
  -12.6813   11.3692    0.0000 H   0  0  0  0  0  0  0  0  0  0  0  0
  -11.0039    8.5700    0.0000 H   0  0  0  0  0  0  0  0  0  0  0  0
  -12.8937    4.4152    0.0000 H   0  0  0  0  0  0  0  0  0  0  0  0
  -12.3924    1.0981    0.0000 H   0  0  0  0  0  0  0  0  0  0  0  0
  -12.7482   -0.3290    0.0000 H   0  0  0  0  0  0  0  0  0  0  0  0
  -12.8296   -0.7636    0.0000 H   0  0  0  0  0  0  0  0  0  0  0  0
  -13.4365   -1.9226    0.0000 H   0  0  0  0  0  0  0  0  0  0  0  0
  -13.7961   -2.4137    0.0000 H   0  0  0  0  0  0  0  0  0  0  0  0
  -14.8939   -3.3924    0.0000 H   0  0  0  0  0  0  0  0  0  0  0  0
  -15.7126   -4.1460    0.0000 H   0  0  0  0  0  0  0  0  0  0  0  0
  -11.0701    2.0673    0.0000 H   0  0  0  0  0  0  0  0  0  0  0  0
  -11.5645    0.3460    0.0000 H   0  0  0  0  0  0  0  0  0  0  0  0
  -12.7709    0.0758    0.0000 H   0  0  0  0  0  0  0  0  0  0  0  0
  -10.7999    1.1907    0.0000 H   0  0  0  0  0  0  0  0  0  0  0  0
  -11.2094    4.5572    0.0000 H   0  0  0  0  0  0  0  0  0  0  0  0
   -9.2160    6.3728    0.0000 H   0  0  0  0  0  0  0  0  0  0  0  0
  -10.7125    5.4008    0.0000 H   0  0  0  0  0  0  0  0  0  0  0  0
   -7.3562    3.4321    0.0000 H   0  0  0  0  0  0  0  0  0  0  0  0
   -5.5878    6.5054    0.0000 H   0  0  0  0  0  0  0  0  0  0  0  0
   -6.7731    7.6300    0.0000 H   0  0  0  0  0  0  0  0  0  0  0  0
   -8.3769    6.8477    0.0000 H   0  0  0  0  0  0  0  0  0  0  0  0
   -5.8042    2.9619    0.0000 H   0  0  0  0  0  0  0  0  0  0  0  0
   -4.9976    4.8629    0.0000 H   0  0  0  0  0  0  0  0  0  0  0  0
   -5.9515    5.7680    0.0000 H   0  0  0  0  0  0  0  0  0  0  0  0
   -7.3886    5.5074    0.0000 H   0  0  0  0  0  0  0  0  0  0  0  0
   -6.8625    2.1944    0.0000 H   0  0  0  0  0  0  0  0  0  0  0  0
   -3.6300    1.8202    0.0000 H   0  0  0  0  0  0  0  0  0  0  0  0
   -3.7866    3.4465    0.0000 H   0  0  0  0  0  0  0  0  0  0  0  0
   -4.0931    0.0638    0.0000 H   0  0  0  0  0  0  0  0  0  0  0  0
   -3.1127    2.4776    0.0000 H   0  0  0  0  0  0  0  0  0  0  0  0
   -3.5221    5.8441    0.0000 H   0  0  0  0  0  0  0  0  0  0  0  0
   -3.0253    6.6877    0.0000 H   0  0  0  0  0  0  0  0  0  0  0  0
   -2.4876    8.6115    0.0000 H   0  0  0  0  0  0  0  0  0  0  0  0
    0.6409    7.4420    0.0000 H   0  0  0  0  0  0  0  0  0  0  0  0
    1.2848    5.6243    0.0000 H   0  0  0  0  0  0  0  0  0  0  0  0
    0.3310    4.7190    0.0000 H   0  0  0  0  0  0  0  0  0  0  0  0
    0.1155    6.7976    0.0000 H   0  0  0  0  0  0  0  0  0  0  0  0
    0.6729    3.5837    0.0000 H   0  0  0  0  0  0  0  0  0  0  0  0
    4.1317    3.2745    0.0000 H   0  0  0  0  0  0  0  0  0  0  0  0
    3.7780    4.8696    0.0000 H   0  0  0  0  0  0  0  0  0  0  0  0
    0.9948    2.6748    0.0000 H   0  0  0  0  0  0  0  0  0  0  0  0
    3.5027   -0.1465    0.0000 H   0  0  0  0  0  0  0  0  0  0  0  0
    4.9992    0.8255    0.0000 H   0  0  0  0  0  0  0  0  0  0  0  0
    4.5072    2.5408    0.0000 H   0  0  0  0  0  0  0  0  0  0  0  0
    2.2663   -0.3535    0.0000 H   0  0  0  0  0  0  0  0  0  0  0  0
    0.5348    0.0781    0.0000 H   0  0  0  0  0  0  0  0  0  0  0  0
    0.5515    2.0064    0.0000 H   0  0  0  0  0  0  0  0  0  0  0  0
    4.5746    3.7646    0.0000 H   0  0  0  0  0  0  0  0  0  0  0  0
    4.1651    7.1311    0.0000 H   0  0  0  0  0  0  0  0  0  0  0  0
    6.1585    8.9467    0.0000 H   0  0  0  0  0  0  0  0  0  0  0  0
    4.6620    7.9747    0.0000 H   0  0  0  0  0  0  0  0  0  0  0  0
    8.0183    6.0060    0.0000 H   0  0  0  0  0  0  0  0  0  0  0  0
    9.7867    9.0793    0.0000 H   0  0  0  0  0  0  0  0  0  0  0  0
    8.6014   10.2039    0.0000 H   0  0  0  0  0  0  0  0  0  0  0  0
    6.9976    9.4215    0.0000 H   0  0  0  0  0  0  0  0  0  0  0  0
    9.5703    5.5357    0.0000 H   0  0  0  0  0  0  0  0  0  0  0  0
   10.3769    7.4368    0.0000 H   0  0  0  0  0  0  0  0  0  0  0  0
    9.4230    8.3418    0.0000 H   0  0  0  0  0  0  0  0  0  0  0  0
    7.9859    8.0813    0.0000 H   0  0  0  0  0  0  0  0  0  0  0  0
    8.3602    4.8706    0.0000 H   0  0  0  0  0  0  0  0  0  0  0  0
   11.7445    4.3941    0.0000 H   0  0  0  0  0  0  0  0  0  0  0  0
   11.5879    6.0204    0.0000 H   0  0  0  0  0  0  0  0  0  0  0  0
    9.3795    2.3192    0.0000 H   0  0  0  0  0  0  0  0  0  0  0  0
    8.6821    3.9618    0.0000 H   0  0  0  0  0  0  0  0  0  0  0  0
   12.2618    5.0515    0.0000 H   0  0  0  0  0  0  0  0  0  0  0  0
   11.8524    8.4180    0.0000 H   0  0  0  0  0  0  0  0  0  0  0  0
   14.9116    9.6906    0.0000 H   0  0  0  0  0  0  0  0  0  0  0  0
   15.0052    7.9086    0.0000 H   0  0  0  0  0  0  0  0  0  0  0  0
   13.0381   12.6398    0.0000 H   0  0  0  0  0  0  0  0  0  0  0  0
   15.2767   11.3214    0.0000 H   0  0  0  0  0  0  0  0  0  0  0  0
   13.4884    4.4851    0.0000 H   0  0  0  0  0  0  0  0  0  0  0  0
   16.3241    6.3889    0.0000 H   0  0  0  0  0  0  0  0  0  0  0  0
   18.7083    3.9471    0.0000 H   0  0  0  0  0  0  0  0  0  0  0  0
   18.9647    5.4019    0.0000 H   0  0  0  0  0  0  0  0  0  0  0  0
   17.3031    6.3805    0.0000 H   0  0  0  0  0  0  0  0  0  0  0  0
   18.9686    3.7154    0.0000 H   0  0  0  0  0  0  0  0  0  0  0  0
   16.4513    1.4430    0.0000 H   0  0  0  0  0  0  0  0  0  0  0  0
   16.3474    0.6477    0.0000 H   0  0  0  0  0  0  0  0  0  0  0  0
   18.7272   -2.5162    0.0000 H   0  0  0  0  0  0  0  0  0  0  0  0
   20.2237   -1.5442    0.0000 H   0  0  0  0  0  0  0  0  0  0  0  0
   20.0976   -0.2353    0.0000 H   0  0  0  0  0  0  0  0  0  0  0  0
   16.6435   -2.8123    0.0000 H   0  0  0  0  0  0  0  0  0  0  0  0
   18.1529   -2.1870    0.0000 H   0  0  0  0  0  0  0  0  0  0  0  0
   14.6556   -2.6169    0.0000 H   0  0  0  0  0  0  0  0  0  0  0  0
   14.0117   -0.7992    0.0000 H   0  0  0  0  0  0  0  0  0  0  0  0
   15.5082    0.1728    0.0000 H   0  0  0  0  0  0  0  0  0  0  0  0
   18.7118   -1.7805    0.0000 H   0  0  0  0  0  0  0  0  0  0  0  0
   21.1004    0.3974    0.0000 H   0  0  0  0  0  0  0  0  0  0  0  0
   23.9675   -1.4629    0.0000 H   0  0  0  0  0  0  0  0  0  0  0  0
   22.6007   -2.6100    0.0000 H   0  0  0  0  0  0  0  0  0  0  0  0
   23.5434    1.6546    0.0000 H   0  0  0  0  0  0  0  0  0  0  0  0
   21.9396    0.8722    0.0000 H   0  0  0  0  0  0  0  0  0  0  0  0
   27.0312    1.4462    0.0000 H   0  0  0  0  0  0  0  0  0  0  0  0
   24.7926    2.7647    0.0000 H   0  0  0  0  0  0  0  0  0  0  0  0
   23.9267   -2.2985    0.0000 H   0  0  0  0  0  0  0  0  0  0  0  0
   21.4094   -4.5709    0.0000 H   0  0  0  0  0  0  0  0  0  0  0  0
   22.8838   -7.5382    0.0000 H   0  0  0  0  0  0  0  0  0  0  0  0
   24.1233   -6.2545    0.0000 H   0  0  0  0  0  0  0  0  0  0  0  0
   25.2241   -2.6755    0.0000 H   0  0  0  0  0  0  0  0  0  0  0  0
   26.1156   -5.9726    0.0000 H   0  0  0  0  0  0  0  0  0  0  0  0
   26.8601   -6.6084    0.0000 H   0  0  0  0  0  0  0  0  0  0  0  0
   27.9950   -8.2522    0.0000 H   0  0  0  0  0  0  0  0  0  0  0  0
   30.5721   -6.1275    0.0000 H   0  0  0  0  0  0  0  0  0  0  0  0
   30.5888   -4.1992    0.0000 H   0  0  0  0  0  0  0  0  0  0  0  0
   29.3922   -3.6539    0.0000 H   0  0  0  0  0  0  0  0  0  0  0  0
   29.8654   -5.6893    0.0000 H   0  0  0  0  0  0  0  0  0  0  0  0
   29.4559   -2.3229    0.0000 H   0  0  0  0  0  0  0  0  0  0  0  0
   31.6311   -0.5296    0.0000 H   0  0  0  0  0  0  0  0  0  0  0  0
   29.9528   -1.4792    0.0000 H   0  0  0  0  0  0  0  0  0  0  0  0
   33.6190   -0.7250    0.0000 H   0  0  0  0  0  0  0  0  0  0  0  0
   34.2628   -2.5427    0.0000 H   0  0  0  0  0  0  0  0  0  0  0  0
   33.3091   -3.4479    0.0000 H   0  0  0  0  0  0  0  0  0  0  0  0
   33.0935   -1.3694    0.0000 H   0  0  0  0  0  0  0  0  0  0  0  0
   33.6510   -4.5833    0.0000 H   0  0  0  0  0  0  0  0  0  0  0  0
   37.1098   -4.8925    0.0000 H   0  0  0  0  0  0  0  0  0  0  0  0
   36.7561   -3.2974    0.0000 H   0  0  0  0  0  0  0  0  0  0  0  0
   34.6702   -7.1347    0.0000 H   0  0  0  0  0  0  0  0  0  0  0  0
   33.9729   -5.4922    0.0000 H   0  0  0  0  0  0  0  0  0  0  0  0
   37.9772   -7.3415    0.0000 H   0  0  0  0  0  0  0  0  0  0  0  0
   37.4852   -5.6262    0.0000 H   0  0  0  0  0  0  0  0  0  0  0  0
   34.8850   -8.7920    0.0000 H   0  0  0  0  0  0  0  0  0  0  0  0
   38.3070  -11.7143    0.0000 H   0  0  0  0  0  0  0  0  0  0  0  0
   35.7524  -11.2410    0.0000 H   0  0  0  0  0  0  0  0  0  0  0  0
   39.9942   -9.7386    0.0000 H   0  0  0  0  0  0  0  0  0  0  0  0
   39.1267   -7.2896    0.0000 H   0  0  0  0  0  0  0  0  0  0  0  0
   37.5526   -4.4024    0.0000 H   0  0  0  0  0  0  0  0  0  0  0  0
   37.1432   -1.0359    0.0000 H   0  0  0  0  0  0  0  0  0  0  0  0
   39.3183    0.7574    0.0000 H   0  0  0  0  0  0  0  0  0  0  0  0
   37.6400   -0.1923    0.0000 H   0  0  0  0  0  0  0  0  0  0  0  0
   41.9500   -1.2557    0.0000 H   0  0  0  0  0  0  0  0  0  0  0  0
   40.8186   -2.2054    0.0000 H   0  0  0  0  0  0  0  0  0  0  0  0
   38.7792   -4.9688    0.0000 H   0  0  0  0  0  0  0  0  0  0  0  0
   41.4330   -3.0427    0.0000 H   0  0  0  0  0  0  0  0  0  0  0  0
   44.2466   -5.0781    0.0000 H   0  0  0  0  0  0  0  0  0  0  0  0
   42.7501   -6.0501    0.0000 H   0  0  0  0  0  0  0  0  0  0  0  0
   43.8760   -1.7855    0.0000 H   0  0  0  0  0  0  0  0  0  0  0  0
   42.2722   -2.5678    0.0000 H   0  0  0  0  0  0  0  0  0  0  0  0
   47.3639   -1.9938    0.0000 H   0  0  0  0  0  0  0  0  0  0  0  0
   45.1252   -0.6754    0.0000 H   0  0  0  0  0  0  0  0  0  0  0  0
  1  2  1  0
  2  3  1  0
  3  4  1  0
  4  5  2  0
  4  6  1  0
  6  7  1  0
  7  8  1  0
  8  9  1  0
  7 10  1  0
 10 11  2  0
 10 12  1  0
 12 13  1  0
 13 14  1  0
 14 15  1  0
 15 16  1  0
 16 17  2  0
 16 18  1  0
 13 19  1  0
 19 20  2  0
 19 21  1  0
 21 22  1  0
 22 23  1  0
 23 24  1  0
 24 25  1  0
 25 26  2  0
 25 27  1  0
 22 28  1  0
 28 29  2  0
 28 30  1  0
 30 31  1  0
 31 32  1  0
 32 33  1  0
 33 34  1  0
 33 35  1  0
 31 36  1  0
 36 37  2  0
 36 38  1  0
 38 39  1  0
 39 40  1  0
 40 41  1  0
 39 42  1  0
 42 43  2  0
 42 44  1  0
 45 44  1  6
 45 46  1  0
 46 47  1  0
 47 48  1  0
 48 49  1  0
 45 50  1  0
 45 51  1  0
 51 52  2  0
 51 53  1  0
 53 54  1  0
 54 55  1  0
 55 56  1  0
 56 57  1  0
 57 58  2  0
 57 59  1  0
 54 60  1  0
 60 61  2  0
 60 62  1  0
 62 63  1  0
 63 64  1  0
 63 65  1  0
 65 66  2  0
 65 67  1  0
 67 68  1  0
 68 69  1  0
 69 70  1  0
 70 71  2  0
 71 72  1  0
 72 73  1  0
 73 74  2  0
 68 75  1  0
 75 76  2  0
 75 77  1  0
 77 78  1  0
 78 79  1  0
 79 80  1  0
 80 81  1  0
 81 82  1  0
 78 83  1  0
 78 84  1  6
 84 85  2  0
 84 86  1  0
 86 87  1  0
 87 88  1  0
 88 89  1  0
 89 90  1  0
 89 91  1  0
 87 92  1  0
 92 93  2  0
 92 94  1  0
 94 95  1  0
 95 96  1  0
 96 97  1  0
 95 98  1  0
 98 99  2  0
 98100  1  0
100101  1  0
101102  1  0
102103  1  0
102104  1  0
101105  1  0
105106  2  0
105107  1  0
107108  1  0
108109  1  0
109110  1  0
110111  1  0
110112  1  0
108113  1  0
113114  2  0
113115  1  0
115116  1  0
116117  1  0
117118  1  0
118119  1  0
118120  1  0
116121  1  0
121122  2  0
121123  1  0
123124  1  0
124125  1  0
125126  1  0
126127  1  0
127128  2  0
127129  1  0
124130  1  0
130131  2  0
130132  1  0
132133  1  0
133134  1  0
134135  1  0
135136  1  0
135137  2  0
133138  1  0
138139  2  0
138140  1  0
140141  1  0
141142  1  0
141143  1  0
143144  2  0
143145  1  0
145146  1  0
146147  1  0
147148  1  0
147149  1  0
149150  1  0
146151  1  0
151152  2  0
151153  1  0
153154  1  0
154155  1  0
155156  1  0
156157  1  0
157158  1  0
157159  2  0
154160  1  0
160161  2  0
160162  1  0
162163  1  0
163164  1  0
164165  1  0
165166  2  0
165167  1  0
163168  1  0
168169  2  0
168170  1  0
170171  1  0
171172  1  0
172173  1  0
172174  1  0
171175  1  0
175176  2  0
175177  1  0
177178  1  0
178179  1  0
179180  1  0
178181  1  0
181182  2  0
181183  1  0
183184  1  0
184185  1  0
185186  1  0
186187  1  0
187188  1  0
188189  1  0
189190  2  3
189191  1  0
184192  1  0
192193  2  0
192194  1  0
194195  1  0
195196  1  0
196197  1  0
197198  1  0
198199  2  0
198200  1  0
195201  1  0
201202  2  0
201203  1  0
203204  1  0
204205  1  0
205206  1  0
206207  1  0
207208  1  0
207209  2  0
204210  1  0
210211  2  0
210212  1  0
 74 70  1  0
 49 82  2  0
  1213  1  0
  1214  1  0
  2215  1  0
  2216  1  0
  3217  1  0
  3218  1  0
  6219  1  0
  7220  1  6
  8221  1  0
  8222  1  0
  9223  1  0
 12224  1  0
 13225  1  6
 14226  1  0
 14227  1  0
 15228  1  0
 15229  1  0
 21230  1  0
 22231  1  6
 23232  1  0
 23233  1  0
 24234  1  0
 24235  1  0
 30236  1  0
 31237  1  6
 32238  1  0
 32239  1  0
 33240  1  0
 34241  1  0
 34242  1  0
 34243  1  0
 35244  1  0
 35245  1  0
 35246  1  0
 38247  1  0
 39248  1  1
 40249  1  0
 40250  1  0
 41251  1  0
 41252  1  0
 41253  1  0
 44254  1  0
 46255  1  0
 46256  1  0
 47257  1  0
 47258  1  0
 48259  1  0
 48260  1  0
 49261  1  0
 50262  1  0
 50263  1  0
 50264  1  0
 53265  1  0
 54266  1  1
 55267  1  0
 55268  1  0
 56269  1  0
 56270  1  0
 62271  1  0
 63272  1  1
 64273  1  0
 64274  1  0
 64275  1  0
 67276  1  0
 68277  1  1
 69278  1  0
 69279  1  0
 71280  1  0
 72281  1  0
 73282  1  0
 77283  1  0
 79284  1  0
 79285  1  0
 80286  1  0
 80287  1  0
 81288  1  0
 81289  1  0
 82290  1  0
 83291  1  0
 83292  1  0
 83293  1  0
 86294  1  0
 87295  1  1
 88296  1  0
 88297  1  0
 89298  1  0
 90299  1  0
 90300  1  0
 90301  1  0
 91302  1  0
 91303  1  0
 91304  1  0
 94305  1  0
 95306  1  6
 96307  1  0
 96308  1  0
 97309  1  0
100310  1  0
101311  1  1
102312  1  1
103313  1  0
104314  1  0
104315  1  0
104316  1  0
107317  1  0
108318  1  6
109319  1  0
109320  1  0
110321  1  0
111322  1  0
111323  1  0
111324  1  0
112325  1  0
112326  1  0
112327  1  0
115328  1  0
116329  1  1
117330  1  0
117331  1  0
118332  1  0
119333  1  0
119334  1  0
119335  1  0
120336  1  0
120337  1  0
120338  1  0
123339  1  0
124340  1  6
125341  1  0
125342  1  0
126343  1  0
126344  1  0
132345  1  0
133346  1  1
134347  1  0
134348  1  0
136349  1  0
136350  1  0
140351  1  0
141352  1  1
142353  1  0
142354  1  0
142355  1  0
145356  1  0
146357  1  6
147358  1  6
148359  1  0
148360  1  0
148361  1  0
149362  1  0
149363  1  0
150364  1  0
150365  1  0
150366  1  0
153367  1  0
154368  1  1
155369  1  0
155370  1  0
156371  1  0
156372  1  0
158373  1  0
158374  1  0
162375  1  0
163376  1  6
164377  1  0
164378  1  0
170379  1  0
171380  1  6
172381  1  6
173382  1  0
174383  1  0
174384  1  0
174385  1  0
177386  1  0
178387  1  1
179388  1  0
179389  1  0
180390  1  0
180391  1  0
180392  1  0
183393  1  0
184394  1  6
185395  1  0
185396  1  0
186397  1  0
186398  1  0
187399  1  0
187400  1  0
188401  1  0
190402  1  0
190403  1  0
191404  1  0
191405  1  0
194406  1  0
195407  1  1
196408  1  0
196409  1  0
197410  1  0
197411  1  0
203412  1  0
204413  1  1
205414  1  0
205415  1  0
206416  1  0
206417  1  0
208418  1  0
208419  1  0
M  CHG  8  18  -1  27  -1  59  -1 129  -1 167  -1 190   1 200  -1 212  -1
M  END
