
     RDKit          2D

271278  0  0  0  0  0  0  0  0999 V2000
  -13.6900   -6.5716    0.0000 C   0  0  0  0  0  0  0  0  0  0  0  0
  -12.2030   -6.7692    0.0000 N   0  0  0  0  0  0  0  0  0  0  0  0
  -11.6307   -8.1557    0.0000 C   0  0  0  0  0  0  0  0  0  0  0  0
  -12.5452   -9.3446    0.0000 C   0  0  0  0  0  0  0  0  0  0  0  0
  -11.9728  -10.7311    0.0000 C   0  0  0  0  0  0  0  0  0  0  0  0
  -10.4859  -10.9287    0.0000 C   0  0  0  0  0  0  0  0  0  0  0  0
   -9.5714   -9.7398    0.0000 C   0  0  0  0  0  0  0  0  0  0  0  0
  -10.1437   -8.3532    0.0000 C   0  0  0  0  0  0  0  0  0  0  0  0
   -8.1580  -10.2422    0.0000 C   0  0  0  0  0  0  0  0  0  0  0  0
   -8.1990  -11.7416    0.0000 O   0  0  0  0  0  0  0  0  0  0  0  0
   -9.6378  -12.1659    0.0000 C   0  0  0  0  0  0  0  0  0  0  0  0
  -10.1402  -13.5793    0.0000 O   0  0  0  0  0  0  0  0  0  0  0  0
   -6.8049  -10.8895    0.0000 C   0  0  0  0  0  0  0  0  0  0  0  0
   -5.5677  -10.0414    0.0000 C   0  0  0  0  0  0  0  0  0  0  0  0
   -4.2146  -10.6888    0.0000 C   0  0  0  0  0  0  0  0  0  0  0  0
   -4.0987  -12.1843    0.0000 C   0  0  0  0  0  0  0  0  0  0  0  0
   -5.3359  -13.0324    0.0000 C   0  0  0  0  0  0  0  0  0  0  0  0
   -6.6890  -12.3851    0.0000 C   0  0  0  0  0  0  0  0  0  0  0  0
   -2.7456  -12.8317    0.0000 O   0  0  0  0  0  0  0  0  0  0  0  0
   -5.6836   -8.5459    0.0000 O   0  0  0  0  0  0  0  0  0  0  0  0
   -7.0367   -7.8985    0.0000 C   0  0  0  0  0  0  0  0  0  0  0  0
   -8.2739   -8.7466    0.0000 C   0  0  0  0  0  0  0  0  0  0  0  0
   -9.0496   -7.7035    0.0000 C   0  0  0  0  0  0  0  0  0  0  0  0
   -9.1114   -6.9058    0.0000 C   0  0  0  0  0  0  0  0  0  0  0  0
   -8.4516   -6.4535    0.0000 C   0  0  0  0  0  0  0  0  0  0  0  0
   -7.7300   -6.7988    0.0000 C   0  0  0  0  0  0  0  0  0  0  0  0
   -8.6216   -4.2601    0.0000 O   0  0  0  0  0  0  0  0  0  0  0  0
  -14.6045   -7.7606    0.0000 S   0  0  0  0  0  0  0  0  0  0  0  0
  -14.2623   -5.1851    0.0000 N   0  0  0  0  0  0  0  0  0  0  0  0
  -15.7493   -4.9875    0.0000 C   0  0  0  0  0  0  0  0  0  0  0  0
  -16.3216   -3.6010    0.0000 C   0  0  0  0  0  0  0  0  0  0  0  0
  -17.8086   -3.4035    0.0000 C   0  0  0  0  0  0  0  0  0  0  0  0
  -18.7231   -4.5924    0.0000 O   0  0  0  0  0  0  0  0  0  0  0  0
  -18.3809   -2.0170    0.0000 N   0  0  0  0  0  0  0  0  0  0  0  0
  -19.8391   -1.6651    0.0000 C   0  0  0  0  0  0  0  0  0  0  0  0
  -19.9550   -0.1695    0.0000 C   0  0  0  0  0  0  0  0  0  0  0  0
  -18.5685    0.4028    0.0000 C   0  0  0  0  0  0  0  0  0  0  0  0
  -17.5957   -0.7389    0.0000 C   0  0  0  0  0  0  0  0  0  0  0  0
  -16.5618    0.3479    0.0000 C   0  0  0  0  0  0  0  0  0  0  0  0
  -16.8076    1.8276    0.0000 O   0  0  0  0  0  0  0  0  0  0  0  0
  -15.1037   -0.0040    0.0000 N   0  0  0  0  0  0  0  0  0  0  0  0
  -14.0699    1.0828    0.0000 C   0  0  0  0  0  0  0  0  0  0  0  0
  -13.4701    2.4577    0.0000 C   0  0  0  0  0  0  0  0  0  0  0  0
  -11.9795    2.6257    0.0000 C   0  0  0  0  0  0  0  0  0  0  0  0
  -11.3798    4.0006    0.0000 C   0  0  0  0  0  0  0  0  0  0  0  0
   -9.9742    4.5243    0.0000 O   0  0  0  0  0  0  0  0  0  0  0  0
  -12.5361    4.9560    0.0000 O   0  0  0  0  0  0  0  0  0  0  0  0
  -12.6117    0.7309    0.0000 C   0  0  0  0  0  0  0  0  0  0  0  0
  -12.3660   -0.7488    0.0000 O   0  0  0  0  0  0  0  0  0  0  0  0
  -11.5779    1.8177    0.0000 N   0  0  0  0  0  0  0  0  0  0  0  0
  -10.1198    1.4658    0.0000 C   0  0  0  0  0  0  0  0  0  0  0  0
   -9.4188    0.1397    0.0000 C   0  0  0  0  0  0  0  0  0  0  0  0
   -8.3581   -0.9209    0.0000 C   0  0  0  0  0  0  0  0  0  0  0  0
   -7.0319   -1.6218    0.0000 C   0  0  0  0  0  0  0  0  0  0  0  0
   -5.5580   -1.9006    0.0000 C   0  0  0  0  0  0  0  0  0  0  0  0
  -11.1777    0.4025    0.0000 C   0  0  0  0  0  0  0  0  0  0  0  0
  -10.3987    2.9396    0.0000 C   0  0  0  0  0  0  0  0  0  0  0  0
  -11.1531    3.1973    0.0000 O   0  0  0  0  0  0  0  0  0  0  0  0
  -10.2308    4.4302    0.0000 N   0  0  0  0  0  0  0  0  0  0  0  0
   -9.6311    5.8051    0.0000 C   0  0  0  0  0  0  0  0  0  0  0  0
  -10.2651    7.1645    0.0000 C   0  0  0  0  0  0  0  0  0  0  0  0
  -11.7641    7.1121    0.0000 C   0  0  0  0  0  0  0  0  0  0  0  0
  -10.3959    8.6588    0.0000 C   0  0  0  0  0  0  0  0  0  0  0  0
  -11.7554    9.2927    0.0000 C   0  0  0  0  0  0  0  0  0  0  0  0
   -8.6527    6.9421    0.0000 C   0  0  0  0  0  0  0  0  0  0  0  0
   -9.4853    8.1898    0.0000 O   0  0  0  0  0  0  0  0  0  0  0  0
   -7.3826    7.7402    0.0000 N   0  0  0  0  0  0  0  0  0  0  0  0
   -5.9338    8.1285    0.0000 C   0  0  0  0  0  0  0  0  0  0  0  0
   -5.2662    9.4718    0.0000 C   0  0  0  0  0  0  0  0  0  0  0  0
   -6.0958   10.7215    0.0000 C   0  0  0  0  0  0  0  0  0  0  0  0
   -5.4282   12.0648    0.0000 C   0  0  0  0  0  0  0  0  0  0  0  0
   -7.3027   11.6122    0.0000 C   0  0  0  0  0  0  0  0  0  0  0  0
   -4.4348    8.0725    0.0000 C   0  0  0  0  0  0  0  0  0  0  0  0
   -4.1560    9.5464    0.0000 O   0  0  0  0  0  0  0  0  0  0  0  0
   -3.0190    7.5772    0.0000 N   0  0  0  0  0  0  0  0  0  0  0  0
   -1.8120    6.6865    0.0000 C   0  0  0  0  0  0  0  0  0  0  0  0
   -0.3456    7.0021    0.0000 C   0  0  0  0  0  0  0  0  0  0  0  0
    0.1143    8.4299    0.0000 C   0  0  0  0  0  0  0  0  0  0  0  0
    1.5807    8.7455    0.0000 O   0  0  0  0  0  0  0  0  0  0  0  0
   -0.8922    9.5420    0.0000 O   0  0  0  0  0  0  0  0  0  0  0  0
   -0.9212    5.4796    0.0000 C   0  0  0  0  0  0  0  0  0  0  0  0
    0.4049    6.1806    0.0000 O   0  0  0  0  0  0  0  0  0  0  0  0
   -0.4257    4.0638    0.0000 N   0  0  0  0  0  0  0  0  0  0  0  0
   -0.3696    2.5649    0.0000 C   0  0  0  0  0  0  0  0  0  0  0  0
   -0.7577    1.1160    0.0000 C   0  0  0  0  0  0  0  0  0  0  0  0
   -1.5557   -0.1541    0.0000 C   0  0  0  0  0  0  0  0  0  0  0  0
   -2.6926   -1.1326    0.0000 C   0  0  0  0  0  0  0  0  0  0  0  0
   -4.0674   -1.7325    0.0000 C   0  0  0  0  0  0  0  0  0  0  0  0
    0.9736    3.2326    0.0000 C   0  0  0  0  0  0  0  0  0  0  0  0
    0.7915    1.6152    0.0000 C   0  0  0  0  0  0  0  0  0  0  0  0
    0.9149    0.1203    0.0000 O   0  0  0  0  0  0  0  0  0  0  0  0
    2.1945    2.1458    0.0000 N   0  0  0  0  0  0  0  0  0  0  0  0
    3.3555    1.1961    0.0000 C   0  0  0  0  0  0  0  0  0  0  0  0
    4.1217   -0.0935    0.0000 C   0  0  0  0  0  0  0  0  0  0  0  0
    3.3880   -1.4018    0.0000 C   0  0  0  0  0  0  0  0  0  0  0  0
    4.0153   -2.7644    0.0000 C   0  0  0  0  0  0  0  0  0  0  0  0
    2.9132   -3.7819    0.0000 N   0  0  0  0  0  0  0  0  0  0  0  0
    1.6049   -3.0482    0.0000 C   0  0  0  0  0  0  0  0  0  0  0  0
    1.8983   -1.5772    0.0000 N   0  0  0  0  0  0  0  0  0  0  0  0
    4.7585    1.7267    0.0000 C   0  0  0  0  0  0  0  0  0  0  0  0
    5.0005    3.2071    0.0000 O   0  0  0  0  0  0  0  0  0  0  0  0
    5.9196    0.7770    0.0000 N   0  0  0  0  0  0  0  0  0  0  0  0
    7.3226    1.3076    0.0000 C   0  0  0  0  0  0  0  0  0  0  0  0
    8.4595    2.2861    0.0000 C   0  0  0  0  0  0  0  0  0  0  0  0
    9.9252    1.9671    0.0000 C   0  0  0  0  0  0  0  0  0  0  0  0
    8.4836    0.3579    0.0000 C   0  0  0  0  0  0  0  0  0  0  0  0
    8.2417   -1.1224    0.0000 O   0  0  0  0  0  0  0  0  0  0  0  0
    9.8866    0.8886    0.0000 N   0  0  0  0  0  0  0  0  0  0  0  0
   11.0477   -0.0612    0.0000 C   0  0  0  0  0  0  0  0  0  0  0  0
   11.8139   -1.3507    0.0000 C   0  0  0  0  0  0  0  0  0  0  0  0
   11.0802   -2.6590    0.0000 C   0  0  0  0  0  0  0  0  0  0  0  0
   11.8464   -3.9486    0.0000 C   0  0  0  0  0  0  0  0  0  0  0  0
   11.1127   -5.2569    0.0000 N   0  0  0  0  0  0  0  0  0  0  0  0
   13.3463   -3.9298    0.0000 O   0  0  0  0  0  0  0  0  0  0  0  0
   12.4507    0.4695    0.0000 C   0  0  0  0  0  0  0  0  0  0  0  0
   12.6926    1.9498    0.0000 O   0  0  0  0  0  0  0  0  0  0  0  0
   13.6117   -0.4802    0.0000 N   0  0  0  0  0  0  0  0  0  0  0  0
   15.0147    0.0504    0.0000 C   0  0  0  0  0  0  0  0  0  0  0  0
   16.1516    1.0289    0.0000 C   0  0  0  0  0  0  0  0  0  0  0  0
   17.5675    0.5335    0.0000 C   0  0  0  0  0  0  0  0  0  0  0  0
   18.7044    1.5120    0.0000 C   0  0  0  0  0  0  0  0  0  0  0  0
   20.1203    1.0167    0.0000 N   0  0  0  0  0  0  0  0  0  0  0  0
   21.2572    1.9952    0.0000 C   0  0  0  0  0  0  0  0  0  0  0  0
   22.6021    1.3309    0.0000 N   0  0  0  0  0  0  0  0  0  0  0  0
   20.9782    3.4690    0.0000 N   0  0  0  0  0  0  0  0  0  0  0  0
   16.1758   -0.8993    0.0000 C   0  0  0  0  0  0  0  0  0  0  0  0
   15.9338   -2.3797    0.0000 O   0  0  0  0  0  0  0  0  0  0  0  0
   17.5788   -0.3687    0.0000 N   0  0  0  0  0  0  0  0  0  0  0  0
   18.7398   -1.3184    0.0000 C   0  0  0  0  0  0  0  0  0  0  0  0
   19.5060   -2.6080    0.0000 C   0  0  0  0  0  0  0  0  0  0  0  0
   18.7724   -3.9163    0.0000 C   0  0  0  0  0  0  0  0  0  0  0  0
   20.1428   -0.7878    0.0000 C   0  0  0  0  0  0  0  0  0  0  0  0
   20.7358    0.5900    0.0000 O   0  0  0  0  0  0  0  0  0  0  0  0
   21.3039   -1.7375    0.0000 N   0  0  0  0  0  0  0  0  0  0  0  0
   22.7069   -1.2069    0.0000 C   0  0  0  0  0  0  0  0  0  0  0  0
   23.8438   -0.2284    0.0000 C   0  0  0  0  0  0  0  0  0  0  0  0
   25.2597   -0.7237    0.0000 C   0  0  0  0  0  0  0  0  0  0  0  0
   26.3966    0.2548    0.0000 S   0  0  0  0  0  0  0  0  0  0  0  0
   27.8124   -0.2406    0.0000 C   0  0  0  0  0  0  0  0  0  0  0  0
   23.8679   -2.1566    0.0000 C   0  0  0  0  0  0  0  0  0  0  0  0
   25.3252   -1.8009    0.0000 O   0  0  0  0  0  0  0  0  0  0  0  0
   23.6260   -3.6369    0.0000 O   0  0  0  0  0  0  0  0  0  0  0  0
  -11.4402   -5.4776    0.0000 H   0  0  0  0  0  0  0  0  0  0  0  0
  -14.0321   -9.1471    0.0000 H   0  0  0  0  0  0  0  0  0  0  0  0
  -12.8874  -11.9201    0.0000 H   0  0  0  0  0  0  0  0  0  0  0  0
   -9.5440   -6.9783    0.0000 H   0  0  0  0  0  0  0  0  0  0  0  0
   -2.9774   -9.8407    0.0000 H   0  0  0  0  0  0  0  0  0  0  0  0
   -5.2200  -14.5279    0.0000 H   0  0  0  0  0  0  0  0  0  0  0  0
   -7.9262  -13.2332    0.0000 H   0  0  0  0  0  0  0  0  0  0  0  0
   -2.6297  -14.3272    0.0000 H   0  0  0  0  0  0  0  0  0  0  0  0
  -10.8642   -8.9474    0.0000 H   0  0  0  0  0  0  0  0  0  0  0  0
  -11.0070   -5.7962    0.0000 H   0  0  0  0  0  0  0  0  0  0  0  0
   -5.9154   -5.5549    0.0000 H   0  0  0  0  0  0  0  0  0  0  0  0
   -7.2902   -3.5691    0.0000 H   0  0  0  0  0  0  0  0  0  0  0  0
  -13.3478   -3.9962    0.0000 H   0  0  0  0  0  0  0  0  0  0  0  0
  -17.2141   -5.3105    0.0000 H   0  0  0  0  0  0  0  0  0  0  0  0
  -15.6856   -6.4862    0.0000 H   0  0  0  0  0  0  0  0  0  0  0  0
  -16.2021   -2.1058    0.0000 H   0  0  0  0  0  0  0  0  0  0  0  0
  -14.8568   -3.2781    0.0000 H   0  0  0  0  0  0  0  0  0  0  0  0
  -20.0366   -3.1520    0.0000 H   0  0  0  0  0  0  0  0  0  0  0  0
  -21.3385   -1.6240    0.0000 H   0  0  0  0  0  0  0  0  0  0  0  0
  -21.4302   -0.4411    0.0000 H   0  0  0  0  0  0  0  0  0  0  0  0
  -20.3793    1.2692    0.0000 H   0  0  0  0  0  0  0  0  0  0  0  0
  -19.2826    1.7219    0.0000 H   0  0  0  0  0  0  0  0  0  0  0  0
  -17.4439    1.3954    0.0000 H   0  0  0  0  0  0  0  0  0  0  0  0
  -16.3041   -1.5018    0.0000 H   0  0  0  0  0  0  0  0  0  0  0  0
  -14.6794   -1.4428    0.0000 H   0  0  0  0  0  0  0  0  0  0  0  0
  -15.3197    1.9122    0.0000 H   0  0  0  0  0  0  0  0  0  0  0  0
  -13.3767    3.9548    0.0000 H   0  0  0  0  0  0  0  0  0  0  0  0
  -14.9282    2.8096    0.0000 H   0  0  0  0  0  0  0  0  0  0  0  0
  -10.4796    2.6371    0.0000 H   0  0  0  0  0  0  0  0  0  0  0  0
  -11.5301    1.1946    0.0000 H   0  0  0  0  0  0  0  0  0  0  0  0
  -11.8237    3.2974    0.0000 H   0  0  0  0  0  0  0  0  0  0  0  0
  -10.8933   -0.1356    0.0000 H   0  0  0  0  0  0  0  0  0  0  0  0
   -9.9493   -1.2634    0.0000 H   0  0  0  0  0  0  0  0  0  0  0  0
   -9.5910   -1.7753    0.0000 H   0  0  0  0  0  0  0  0  0  0  0  0
   -8.6332   -2.3955    0.0000 H   0  0  0  0  0  0  0  0  0  0  0  0
   -8.0951   -2.6799    0.0000 H   0  0  0  0  0  0  0  0  0  0  0  0
   -6.5047   -3.0261    0.0000 H   0  0  0  0  0  0  0  0  0  0  0  0
   -5.6140   -3.3995    0.0000 H   0  0  0  0  0  0  0  0  0  0  0  0
  -10.8611   -1.2331    0.0000 H   0  0  0  0  0  0  0  0  0  0  0  0
  -12.1898   -0.6479    0.0000 H   0  0  0  0  0  0  0  0  0  0  0  0
  -12.3443    1.0162    0.0000 H   0  0  0  0  0  0  0  0  0  0  0  0
  -11.6216    4.9921    0.0000 H   0  0  0  0  0  0  0  0  0  0  0  0
  -11.1175    5.6036    0.0000 H   0  0  0  0  0  0  0  0  0  0  0  0
   -8.9532    7.8919    0.0000 H   0  0  0  0  0  0  0  0  0  0  0  0
  -12.5767    8.5664    0.0000 H   0  0  0  0  0  0  0  0  0  0  0  0
  -13.2082    6.9069    0.0000 H   0  0  0  0  0  0  0  0  0  0  0  0
  -11.9940    5.8136    0.0000 H   0  0  0  0  0  0  0  0  0  0  0  0
  -10.0077   10.1077    0.0000 H   0  0  0  0  0  0  0  0  0  0  0  0
   -8.8968    8.7113    0.0000 H   0  0  0  0  0  0  0  0  0  0  0  0
  -11.8862   10.7869    0.0000 H   0  0  0  0  0  0  0  0  0  0  0  0
  -13.2497    9.4233    0.0000 H   0  0  0  0  0  0  0  0  0  0  0  0
  -12.4826    7.9807    0.0000 H   0  0  0  0  0  0  0  0  0  0  0  0
   -7.9826    9.1150    0.0000 H   0  0  0  0  0  0  0  0  0  0  0  0
   -7.0181    9.1650    0.0000 H   0  0  0  0  0  0  0  0  0  0  0  0
   -4.0616   10.3656    0.0000 H   0  0  0  0  0  0  0  0  0  0  0  0
   -3.8796    8.8996    0.0000 H   0  0  0  0  0  0  0  0  0  0  0  0
   -7.3004    9.8278    0.0000 H   0  0  0  0  0  0  0  0  0  0  0  0
   -6.0992   13.4064    0.0000 H   0  0  0  0  0  0  0  0  0  0  0  0
   -4.3415   13.0988    0.0000 H   0  0  0  0  0  0  0  0  0  0  0  0
   -4.1217   11.3279    0.0000 H   0  0  0  0  0  0  0  0  0  0  0  0
   -7.3178   13.1121    0.0000 H   0  0  0  0  0  0  0  0  0  0  0  0
   -8.7415   12.0364    0.0000 H   0  0  0  0  0  0  0  0  0  0  0  0
   -7.9703   10.2689    0.0000 H   0  0  0  0  0  0  0  0  0  0  0  0
   -2.3181    8.9034    0.0000 H   0  0  0  0  0  0  0  0  0  0  0  0
   -1.4966    8.1530    0.0000 H   0  0  0  0  0  0  0  0  0  0  0  0
    1.1403    6.7971    0.0000 H   0  0  0  0  0  0  0  0  0  0  0  0
    0.0716    5.5613    0.0000 H   0  0  0  0  0  0  0  0  0  0  0  0
    1.0481    4.3428    0.0000 H   0  0  0  0  0  0  0  0  0  0  0  0
    0.0718   -0.1338    0.0000 H   0  0  0  0  0  0  0  0  0  0  0  0
    0.7372    0.9927    0.0000 H   0  0  0  0  0  0  0  0  0  0  0  0
   -0.9592   -1.5304    0.0000 H   0  0  0  0  0  0  0  0  0  0  0  0
   -0.1635   -0.7126    0.0000 H   0  0  0  0  0  0  0  0  0  0  0  0
   -2.7112   -2.6325    0.0000 H   0  0  0  0  0  0  0  0  0  0  0  0
   -1.4205   -1.9275    0.0000 H   0  0  0  0  0  0  0  0  0  0  0  0
   -3.6791   -3.1814    0.0000 H   0  0  0  0  0  0  0  0  0  0  0  0
    2.3870    2.7303    0.0000 H   0  0  0  0  0  0  0  0  0  0  0  0
    1.8673    4.4373    0.0000 H   0  0  0  0  0  0  0  0  0  0  0  0
    0.4013    4.6191    0.0000 H   0  0  0  0  0  0  0  0  0  0  0  0
    2.6151    3.5856    0.0000 H   0  0  0  0  0  0  0  0  0  0  0  0
    2.2186    0.2176    0.0000 H   0  0  0  0  0  0  0  0  0  0  0  0
    5.1583   -1.1776    0.0000 H   0  0  0  0  0  0  0  0  0  0  0  0
    5.4616    0.5809    0.0000 H   0  0  0  0  0  0  0  0  0  0  0  0
    5.4863   -3.0578    0.0000 H   0  0  0  0  0  0  0  0  0  0  0  0
    3.0886   -5.2716    0.0000 H   0  0  0  0  0  0  0  0  0  0  0  0
    0.2423   -3.6755    0.0000 H   0  0  0  0  0  0  0  0  0  0  0  0
    5.8599   -0.7218    0.0000 H   0  0  0  0  0  0  0  0  0  0  0  0
    6.5564    2.5972    0.0000 H   0  0  0  0  0  0  0  0  0  0  0  0
    9.1932    3.5945    0.0000 H   0  0  0  0  0  0  0  0  0  0  0  0
    7.2984    3.2359    0.0000 H   0  0  0  0  0  0  0  0  0  0  0  0
   11.0122    2.7693    0.0000 H   0  0  0  0  0  0  0  0  0  0  0  0
   11.0364    0.8411    0.0000 H   0  0  0  0  0  0  0  0  0  0  0  0
    9.8419    0.2912    0.0000 H   0  0  0  0  0  0  0  0  0  0  0  0
   10.3072    2.3284    0.0000 H   0  0  0  0  0  0  0  0  0  0  0  0
    9.8000   -0.8938    0.0000 H   0  0  0  0  0  0  0  0  0  0  0  0
   12.8505   -2.4349    0.0000 H   0  0  0  0  0  0  0  0  0  0  0  0
   13.1538   -0.6764    0.0000 H   0  0  0  0  0  0  0  0  0  0  0  0
    9.9433   -3.6375    0.0000 H   0  0  0  0  0  0  0  0  0  0  0  0
    9.8120   -1.8579    0.0000 H   0  0  0  0  0  0  0  0  0  0  0  0
   11.8789   -6.5465    0.0000 H   0  0  0  0  0  0  0  0  0  0  0  0
    9.6128   -5.2757    0.0000 H   0  0  0  0  0  0  0  0  0  0  0  0
   13.5520   -1.9791    0.0000 H   0  0  0  0  0  0  0  0  0  0  0  0
   14.2485    1.3399    0.0000 H   0  0  0  0  0  0  0  0  0  0  0  0
   16.7204    2.4169    0.0000 H   0  0  0  0  0  0  0  0  0  0  0  0
   14.9906    1.9786    0.0000 H   0  0  0  0  0  0  0  0  0  0  0  0
   18.7285   -0.4162    0.0000 H   0  0  0  0  0  0  0  0  0  0  0  0
   17.5341   -0.9661    0.0000 H   0  0  0  0  0  0  0  0  0  0  0  0
   19.4381    2.8203    0.0000 H   0  0  0  0  0  0  0  0  0  0  0  0
   17.6678    2.5962    0.0000 H   0  0  0  0  0  0  0  0  0  0  0  0
   20.7475   -0.3459    0.0000 H   0  0  0  0  0  0  0  0  0  0  0  0
   23.8099    2.4783    0.0000 H   0  0  0  0  0  0  0  0  0  0  0  0
   22.7903   -0.0069    0.0000 H   0  0  0  0  0  0  0  0  0  0  0  0
   22.1151    4.4475    0.0000 H   0  0  0  0  0  0  0  0  0  0  0  0
   19.5624    3.9643    0.0000 H   0  0  0  0  0  0  0  0  0  0  0  0
   18.1718    1.0091    0.0000 H   0  0  0  0  0  0  0  0  0  0  0  0
   17.4921   -2.1510    0.0000 H   0  0  0  0  0  0  0  0  0  0  0  0
   20.5427   -3.6921    0.0000 H   0  0  0  0  0  0  0  0  0  0  0  0
   20.8459   -1.9337    0.0000 H   0  0  0  0  0  0  0  0  0  0  0  0
   19.5386   -5.2058    0.0000 H   0  0  0  0  0  0  0  0  0  0  0  0
   17.6355   -4.8948    0.0000 H   0  0  0  0  0  0  0  0  0  0  0  0
   17.5042   -3.1152    0.0000 H   0  0  0  0  0  0  0  0  0  0  0  0
   21.2442   -3.2363    0.0000 H   0  0  0  0  0  0  0  0  0  0  0  0
   21.9407    0.0827    0.0000 H   0  0  0  0  0  0  0  0  0  0  0  0
   24.5775    1.0799    0.0000 H   0  0  0  0  0  0  0  0  0  0  0  0
   22.4875    0.4122    0.0000 H   0  0  0  0  0  0  0  0  0  0  0  0
   26.2963   -1.8079    0.0000 H   0  0  0  0  0  0  0  0  0  0  0  0
   25.0437   -2.2081    0.0000 H   0  0  0  0  0  0  0  0  0  0  0  0
   28.9493    0.7379    0.0000 H   0  0  0  0  0  0  0  0  0  0  0  0
   28.9735   -1.1903    0.0000 H   0  0  0  0  0  0  0  0  0  0  0  0
   27.2437   -1.6286    0.0000 H   0  0  0  0  0  0  0  0  0  0  0  0
  1  2  1  0
  2  3  1  0
  3  4  2  0
  4  5  1  0
  5  6  2  0
  6  7  1  0
  7  8  2  0
  7  9  1  0
  9 10  1  0
 10 11  1  0
 11 12  2  0
  9 13  1  0
 13 14  1  0
 14 15  2  0
 15 16  1  0
 16 17  2  0
 17 18  1  0
 16 19  1  0
 14 20  1  0
 20 21  1  0
 21 22  2  0
 22 23  1  0
 23 24  2  0
 24 25  1  0
 25 26  2  0
 25 27  1  0
  1 28  2  0
  1 29  1  0
 29 30  1  0
 30 31  1  0
 31 32  1  0
 32 33  2  0
 32 34  1  0
 34 35  1  0
 35 36  1  0
 36 37  1  0
 37 38  1  0
 38 39  1  0
 39 40  2  0
 39 41  1  0
 41 42  1  0
 42 43  1  0
 43 44  1  0
 44 45  1  0
 45 46  2  0
 45 47  1  0
 42 48  1  0
 48 49  2  0
 48 50  1  0
 51 50  1  6
 51 52  1  0
 52 53  1  0
 53 54  1  0
 54 55  1  0
 51 56  1  0
 51 57  1  0
 57 58  2  0
 57 59  1  0
 59 60  1  0
 60 61  1  0
 61 62  1  0
 61 63  1  0
 63 64  1  0
 60 65  1  0
 65 66  2  0
 65 67  1  0
 67 68  1  0
 68 69  1  0
 69 70  1  0
 70 71  1  0
 70 72  1  0
 68 73  1  0
 73 74  2  0
 73 75  1  0
 75 76  1  0
 76 77  1  0
 77 78  1  0
 78 79  2  0
 78 80  1  0
 76 81  1  0
 81 82  2  0
 81 83  1  0
 83 84  1  0
 84 85  1  0
 85 86  1  0
 86 87  1  0
 87 88  1  0
 84 89  1  0
 84 90  1  6
 90 91  2  0
 90 92  1  0
 92 93  1  0
 93 94  1  0
 94 95  1  0
 95 96  2  0
 96 97  1  0
 97 98  1  0
 98 99  2  0
 93100  1  0
100101  2  0
100102  1  0
102103  1  0
103104  1  0
104105  1  0
103106  1  0
106107  2  0
106108  1  0
108109  1  0
109110  1  0
110111  1  0
111112  1  0
112113  1  0
112114  2  0
109115  1  0
115116  2  0
115117  1  0
117118  1  0
118119  1  0
119120  1  0
120121  1  0
121122  1  0
122123  1  0
123124  2  3
123125  1  0
118126  1  0
126127  2  0
126128  1  0
128129  1  0
129130  1  0
130131  1  0
129132  1  0
132133  2  0
132134  1  0
134135  1  0
135136  1  0
136137  1  0
137138  1  0
138139  1  0
135140  1  0
140141  2  0
140142  1  0
  8  3  1  0
 38 34  1  0
 99 95  1  0
 11  6  1  0
 55 88  2  0
 18 13  2  0
 22  9  1  0
 26 21  1  0
  2143  1  0
  4144  1  0
  5145  1  0
  8146  1  0
 15147  1  0
 17148  1  0
 18149  1  0
 19150  1  0
 23151  1  0
 24152  1  0
 26153  1  0
 27154  1  0
 29155  1  0
 30156  1  0
 30157  1  0
 31158  1  0
 31159  1  0
 35160  1  0
 35161  1  0
 36162  1  0
 36163  1  0
 37164  1  0
 37165  1  0
 38166  1  0
 41167  1  0
 42168  1  1
 43169  1  0
 43170  1  0
 44171  1  0
 44172  1  0
 50173  1  0
 52174  1  0
 52175  1  0
 53176  1  0
 53177  1  0
 54178  1  0
 54179  1  0
 55180  1  0
 56181  1  0
 56182  1  0
 56183  1  0
 59184  1  0
 60185  1  1
 61186  1  6
 62187  1  0
 62188  1  0
 62189  1  0
 63190  1  0
 63191  1  0
 64192  1  0
 64193  1  0
 64194  1  0
 67195  1  0
 68196  1  1
 69197  1  0
 69198  1  0
 70199  1  0
 71200  1  0
 71201  1  0
 71202  1  0
 72203  1  0
 72204  1  0
 72205  1  0
 75206  1  0
 76207  1  1
 77208  1  0
 77209  1  0
 83210  1  0
 85211  1  0
 85212  1  0
 86213  1  0
 86214  1  0
 87215  1  0
 87216  1  0
 88217  1  0
 89218  1  0
 89219  1  0
 89220  1  0
 92221  1  0
 93222  1  6
 94223  1  0
 94224  1  0
 96225  1  0
 97226  1  0
 98227  1  0
102228  1  0
103229  1  1
104230  1  0
104231  1  0
105232  1  0
105233  1  0
105234  1  0
108235  1  0
109236  1  6
110237  1  0
110238  1  0
111239  1  0
111240  1  0
113241  1  0
113242  1  0
117243  1  0
118244  1  1
119245  1  0
119246  1  0
120247  1  0
120248  1  0
121249  1  0
121250  1  0
122251  1  0
124252  1  0
124253  1  0
125254  1  0
125255  1  0
128256  1  0
129257  1  6
130258  1  0
130259  1  0
131260  1  0
131261  1  0
131262  1  0
134263  1  0
135264  1  1
136265  1  0
136266  1  0
137267  1  0
137268  1  0
139269  1  0
139270  1  0
139271  1  0
M  CHG  4  47  -1  80  -1 124   1 142  -1
M  END
