
     RDKit          2D

294301  0  0  0  0  0  0  0  0999 V2000
  -18.7715   -6.7427    0.0000 C   0  0  0  0  0  0  0  0  0  0  0  0
  -18.5328   -8.2236    0.0000 N   0  0  0  0  0  0  0  0  0  0  0  0
  -19.6960   -9.1707    0.0000 C   0  0  0  0  0  0  0  0  0  0  0  0
  -21.0978   -8.6370    0.0000 C   0  0  0  0  0  0  0  0  0  0  0  0
  -22.2610   -9.5841    0.0000 C   0  0  0  0  0  0  0  0  0  0  0  0
  -22.0223  -11.0650    0.0000 C   0  0  0  0  0  0  0  0  0  0  0  0
  -20.6205  -11.5988    0.0000 C   0  0  0  0  0  0  0  0  0  0  0  0
  -19.4573  -10.6516    0.0000 C   0  0  0  0  0  0  0  0  0  0  0  0
  -20.6949  -13.0969    0.0000 C   0  0  0  0  0  0  0  0  0  0  0  0
  -22.1428  -13.4891    0.0000 O   0  0  0  0  0  0  0  0  0  0  0  0
  -22.9631  -12.2333    0.0000 C   0  0  0  0  0  0  0  0  0  0  0  0
  -24.4613  -12.1588    0.0000 O   0  0  0  0  0  0  0  0  0  0  0  0
  -20.9256  -14.5791    0.0000 C   0  0  0  0  0  0  0  0  0  0  0  0
  -19.7573  -15.5199    0.0000 C   0  0  0  0  0  0  0  0  0  0  0  0
  -19.9879  -17.0020    0.0000 C   0  0  0  0  0  0  0  0  0  0  0  0
  -21.3869  -17.5434    0.0000 C   0  0  0  0  0  0  0  0  0  0  0  0
  -22.5551  -16.6026    0.0000 C   0  0  0  0  0  0  0  0  0  0  0  0
  -22.3245  -15.1204    0.0000 C   0  0  0  0  0  0  0  0  0  0  0  0
  -21.6175  -19.0256    0.0000 O   0  0  0  0  0  0  0  0  0  0  0  0
  -18.3584  -14.9785    0.0000 O   0  0  0  0  0  0  0  0  0  0  0  0
  -18.1278  -13.4964    0.0000 C   0  0  0  0  0  0  0  0  0  0  0  0
  -19.2960  -12.5556    0.0000 C   0  0  0  0  0  0  0  0  0  0  0  0
  -18.5202  -11.5124    0.0000 C   0  0  0  0  0  0  0  0  0  0  0  0
  -17.7741  -11.2237    0.0000 C   0  0  0  0  0  0  0  0  0  0  0  0
  -17.1510  -11.7255    0.0000 C   0  0  0  0  0  0  0  0  0  0  0  0
  -17.2740  -12.5160    0.0000 C   0  0  0  0  0  0  0  0  0  0  0  0
  -15.0993  -10.9315    0.0000 O   0  0  0  0  0  0  0  0  0  0  0  0
  -20.1733   -6.2089    0.0000 S   0  0  0  0  0  0  0  0  0  0  0  0
  -17.6083   -5.7956    0.0000 N   0  0  0  0  0  0  0  0  0  0  0  0
  -17.8470   -4.3147    0.0000 C   0  0  0  0  0  0  0  0  0  0  0  0
  -16.6839   -3.3675    0.0000 C   0  0  0  0  0  0  0  0  0  0  0  0
  -16.9225   -1.8866    0.0000 C   0  0  0  0  0  0  0  0  0  0  0  0
  -18.3243   -1.3529    0.0000 O   0  0  0  0  0  0  0  0  0  0  0  0
  -15.7594   -0.9395    0.0000 N   0  0  0  0  0  0  0  0  0  0  0  0
  -15.9980    0.5414    0.0000 C   0  0  0  0  0  0  0  0  0  0  0  0
  -16.7288    1.8513    0.0000 C   0  0  0  0  0  0  0  0  0  0  0  0
  -15.9597    3.1392    0.0000 C   0  0  0  0  0  0  0  0  0  0  0  0
  -16.6905    4.4491    0.0000 C   0  0  0  0  0  0  0  0  0  0  0  0
  -15.9214    5.7370    0.0000 C   0  0  0  0  0  0  0  0  0  0  0  0
  -16.4871    7.1262    0.0000 N   0  0  0  0  0  0  0  0  0  0  0  0
  -14.8349    1.4885    0.0000 C   0  0  0  0  0  0  0  0  0  0  0  0
  -13.4330    0.9548    0.0000 O   0  0  0  0  0  0  0  0  0  0  0  0
  -15.0735    2.9694    0.0000 N   0  0  0  0  0  0  0  0  0  0  0  0
  -16.4119    3.6468    0.0000 C   0  0  0  0  0  0  0  0  0  0  0  0
  -16.1812    5.1289    0.0000 C   0  0  0  0  0  0  0  0  0  0  0  0
  -14.7004    5.3676    0.0000 C   0  0  0  0  0  0  0  0  0  0  0  0
  -14.0158    4.0329    0.0000 C   0  0  0  0  0  0  0  0  0  0  0  0
  -12.7600    4.8533    0.0000 C   0  0  0  0  0  0  0  0  0  0  0  0
  -12.6593    6.3499    0.0000 O   0  0  0  0  0  0  0  0  0  0  0  0
  -11.4216    4.1759    0.0000 N   0  0  0  0  0  0  0  0  0  0  0  0
  -10.1658    4.9963    0.0000 C   0  0  0  0  0  0  0  0  0  0  0  0
   -9.2664    6.1967    0.0000 C   0  0  0  0  0  0  0  0  0  0  0  0
   -7.7770    6.0179    0.0000 C   0  0  0  0  0  0  0  0  0  0  0  0
   -6.8776    7.2183    0.0000 C   0  0  0  0  0  0  0  0  0  0  0  0
   -5.3893    7.4052    0.0000 O   0  0  0  0  0  0  0  0  0  0  0  0
   -7.7836    8.4138    0.0000 O   0  0  0  0  0  0  0  0  0  0  0  0
   -8.8275    4.3189    0.0000 C   0  0  0  0  0  0  0  0  0  0  0  0
   -8.9281    2.8223    0.0000 O   0  0  0  0  0  0  0  0  0  0  0  0
   -7.5717    5.1393    0.0000 N   0  0  0  0  0  0  0  0  0  0  0  0
   -6.2333    4.4619    0.0000 C   0  0  0  0  0  0  0  0  0  0  0  0
   -5.8556    3.0103    0.0000 C   0  0  0  0  0  0  0  0  0  0  0  0
   -5.0668    1.7344    0.0000 C   0  0  0  0  0  0  0  0  0  0  0  0
   -3.9370    0.7478    0.0000 C   0  0  0  0  0  0  0  0  0  0  0  0
   -2.5666    0.1379    0.0000 C   0  0  0  0  0  0  0  0  0  0  0  0
   -7.5072    3.6700    0.0000 C   0  0  0  0  0  0  0  0  0  0  0  0
   -6.1664    5.9604    0.0000 C   0  0  0  0  0  0  0  0  0  0  0  0
   -7.4366    6.7583    0.0000 O   0  0  0  0  0  0  0  0  0  0  0  0
   -5.6607    7.3726    0.0000 N   0  0  0  0  0  0  0  0  0  0  0  0
   -4.7612    8.5730    0.0000 C   0  0  0  0  0  0  0  0  0  0  0  0
   -5.0661   10.0417    0.0000 C   0  0  0  0  0  0  0  0  0  0  0  0
   -6.4904   10.5120    0.0000 C   0  0  0  0  0  0  0  0  0  0  0  0
   -4.8502   11.5261    0.0000 C   0  0  0  0  0  0  0  0  0  0  0  0
   -6.0278   12.4552    0.0000 C   0  0  0  0  0  0  0  0  0  0  0  0
   -3.5479    9.4550    0.0000 C   0  0  0  0  0  0  0  0  0  0  0  0
   -4.0717   10.8605    0.0000 O   0  0  0  0  0  0  0  0  0  0  0  0
   -2.1285    9.9401    0.0000 N   0  0  0  0  0  0  0  0  0  0  0  0
   -0.6292    9.9853    0.0000 C   0  0  0  0  0  0  0  0  0  0  0  0
    0.3290   11.1393    0.0000 C   0  0  0  0  0  0  0  0  0  0  0  0
   -0.1913   12.5462    0.0000 C   0  0  0  0  0  0  0  0  0  0  0  0
    0.7669   13.7003    0.0000 C   0  0  0  0  0  0  0  0  0  0  0  0
   -1.1615   13.6902    0.0000 C   0  0  0  0  0  0  0  0  0  0  0  0
    0.8169    9.5865    0.0000 C   0  0  0  0  0  0  0  0  0  0  0  0
    1.4267   10.9570    0.0000 O   0  0  0  0  0  0  0  0  0  0  0  0
    2.0811    8.7793    0.0000 N   0  0  0  0  0  0  0  0  0  0  0  0
    3.0513    7.6353    0.0000 C   0  0  0  0  0  0  0  0  0  0  0  0
    4.5510    7.6057    0.0000 C   0  0  0  0  0  0  0  0  0  0  0  0
    5.3265    8.8896    0.0000 C   0  0  0  0  0  0  0  0  0  0  0  0
    6.8262    8.8600    0.0000 O   0  0  0  0  0  0  0  0  0  0  0  0
    4.6022   10.2032    0.0000 O   0  0  0  0  0  0  0  0  0  0  0  0
    3.6411    6.2561    0.0000 C   0  0  0  0  0  0  0  0  0  0  0  0
    5.0928    6.6338    0.0000 O   0  0  0  0  0  0  0  0  0  0  0  0
    3.7982    4.7643    0.0000 N   0  0  0  0  0  0  0  0  0  0  0  0
    3.5087    3.2926    0.0000 C   0  0  0  0  0  0  0  0  0  0  0  0
    2.7981    1.9715    0.0000 C   0  0  0  0  0  0  0  0  0  0  0  0
    1.7298    0.9186    0.0000 C   0  0  0  0  0  0  0  0  0  0  0  0
    0.3986    0.2273    0.0000 C   0  0  0  0  0  0  0  0  0  0  0  0
   -1.0773   -0.0408    0.0000 C   0  0  0  0  0  0  0  0  0  0  0  0
    4.9693    3.6339    0.0000 C   0  0  0  0  0  0  0  0  0  0  0  0
    4.4206    2.1016    0.0000 C   0  0  0  0  0  0  0  0  0  0  0  0
    4.1974    0.6183    0.0000 O   0  0  0  0  0  0  0  0  0  0  0  0
    5.9079    2.2958    0.0000 N   0  0  0  0  0  0  0  0  0  0  0  0
    6.8199    1.1049    0.0000 C   0  0  0  0  0  0  0  0  0  0  0  0
    7.2694   -0.3262    0.0000 C   0  0  0  0  0  0  0  0  0  0  0  0
    6.2549   -1.4310    0.0000 C   0  0  0  0  0  0  0  0  0  0  0  0
    6.5524   -2.9012    0.0000 C   0  0  0  0  0  0  0  0  0  0  0  0
    5.2462   -3.6385    0.0000 N   0  0  0  0  0  0  0  0  0  0  0  0
    4.1413   -2.6240    0.0000 C   0  0  0  0  0  0  0  0  0  0  0  0
    4.7647   -1.2597    0.0000 N   0  0  0  0  0  0  0  0  0  0  0  0
    8.3072    1.2991    0.0000 C   0  0  0  0  0  0  0  0  0  0  0  0
    8.8827    2.6843    0.0000 O   0  0  0  0  0  0  0  0  0  0  0  0
    9.2191    0.1082    0.0000 N   0  0  0  0  0  0  0  0  0  0  0  0
   10.7065    0.3024    0.0000 C   0  0  0  0  0  0  0  0  0  0  0  0
   12.0377    0.9937    0.0000 C   0  0  0  0  0  0  0  0  0  0  0  0
   13.3910    0.3465    0.0000 C   0  0  0  0  0  0  0  0  0  0  0  0
   11.6184   -0.8886    0.0000 C   0  0  0  0  0  0  0  0  0  0  0  0
   11.0430   -2.2738    0.0000 O   0  0  0  0  0  0  0  0  0  0  0  0
   13.1058   -0.6943    0.0000 N   0  0  0  0  0  0  0  0  0  0  0  0
   14.0177   -1.8853    0.0000 C   0  0  0  0  0  0  0  0  0  0  0  0
   14.4673   -3.3163    0.0000 C   0  0  0  0  0  0  0  0  0  0  0  0
   13.4528   -4.4212    0.0000 C   0  0  0  0  0  0  0  0  0  0  0  0
   13.9023   -5.8522    0.0000 C   0  0  0  0  0  0  0  0  0  0  0  0
   12.8878   -6.9571    0.0000 N   0  0  0  0  0  0  0  0  0  0  0  0
   15.3665   -6.1784    0.0000 O   0  0  0  0  0  0  0  0  0  0  0  0
   15.5051   -1.6910    0.0000 C   0  0  0  0  0  0  0  0  0  0  0  0
   16.0805   -0.3058    0.0000 O   0  0  0  0  0  0  0  0  0  0  0  0
   16.4170   -2.8820    0.0000 N   0  0  0  0  0  0  0  0  0  0  0  0
   17.9044   -2.6877    0.0000 C   0  0  0  0  0  0  0  0  0  0  0  0
   19.2356   -1.9965    0.0000 C   0  0  0  0  0  0  0  0  0  0  0  0
   20.4998   -2.8037    0.0000 C   0  0  0  0  0  0  0  0  0  0  0  0
   21.8311   -2.1125    0.0000 C   0  0  0  0  0  0  0  0  0  0  0  0
   23.0953   -2.9197    0.0000 N   0  0  0  0  0  0  0  0  0  0  0  0
   24.4266   -2.2285    0.0000 C   0  0  0  0  0  0  0  0  0  0  0  0
   25.5830   -3.1838    0.0000 N   0  0  0  0  0  0  0  0  0  0  0  0
   24.4935   -0.7300    0.0000 N   0  0  0  0  0  0  0  0  0  0  0  0
   18.8163   -3.8787    0.0000 C   0  0  0  0  0  0  0  0  0  0  0  0
   18.2408   -5.2639    0.0000 O   0  0  0  0  0  0  0  0  0  0  0  0
   20.3036   -3.6845    0.0000 N   0  0  0  0  0  0  0  0  0  0  0  0
   21.2156   -4.8754    0.0000 C   0  0  0  0  0  0  0  0  0  0  0  0
   21.6651   -6.3065    0.0000 C   0  0  0  0  0  0  0  0  0  0  0  0
   20.6506   -7.4113    0.0000 C   0  0  0  0  0  0  0  0  0  0  0  0
   22.7029   -4.6812    0.0000 C   0  0  0  0  0  0  0  0  0  0  0  0
   23.5965   -3.4764    0.0000 O   0  0  0  0  0  0  0  0  0  0  0  0
   23.6148   -5.8721    0.0000 N   0  0  0  0  0  0  0  0  0  0  0  0
   25.1022   -5.6779    0.0000 C   0  0  0  0  0  0  0  0  0  0  0  0
   26.4334   -4.9866    0.0000 C   0  0  0  0  0  0  0  0  0  0  0  0
   27.6977   -5.7939    0.0000 C   0  0  0  0  0  0  0  0  0  0  0  0
   29.0289   -5.1026    0.0000 S   0  0  0  0  0  0  0  0  0  0  0  0
   30.2932   -5.9099    0.0000 C   0  0  0  0  0  0  0  0  0  0  0  0
   26.0141   -6.8689    0.0000 C   0  0  0  0  0  0  0  0  0  0  0  0
   27.5141   -6.8574    0.0000 O   0  0  0  0  0  0  0  0  0  0  0  0
   25.4387   -8.2541    0.0000 O   0  0  0  0  0  0  0  0  0  0  0  0
  -17.0764   -8.5825    0.0000 H   0  0  0  0  0  0  0  0  0  0  0  0
  -21.3365   -7.1561    0.0000 H   0  0  0  0  0  0  0  0  0  0  0  0
  -23.6628   -9.0503    0.0000 H   0  0  0  0  0  0  0  0  0  0  0  0
  -17.9680  -10.8303    0.0000 H   0  0  0  0  0  0  0  0  0  0  0  0
  -18.8197  -17.9429    0.0000 H   0  0  0  0  0  0  0  0  0  0  0  0
  -23.9540  -17.1439    0.0000 H   0  0  0  0  0  0  0  0  0  0  0  0
  -23.4928  -14.1796    0.0000 H   0  0  0  0  0  0  0  0  0  0  0  0
  -23.0164  -19.5669    0.0000 H   0  0  0  0  0  0  0  0  0  0  0  0
  -20.2337  -10.1326    0.0000 H   0  0  0  0  0  0  0  0  0  0  0  0
  -17.2569   -9.0891    0.0000 H   0  0  0  0  0  0  0  0  0  0  0  0
  -15.5606  -13.8959    0.0000 H   0  0  0  0  0  0  0  0  0  0  0  0
  -13.9310  -11.8723    0.0000 H   0  0  0  0  0  0  0  0  0  0  0  0
  -16.2065   -6.3293    0.0000 H   0  0  0  0  0  0  0  0  0  0  0  0
  -18.5778   -3.0047    0.0000 H   0  0  0  0  0  0  0  0  0  0  0  0
  -19.2640   -4.8069    0.0000 H   0  0  0  0  0  0  0  0  0  0  0  0
  -15.2669   -2.8753    0.0000 H   0  0  0  0  0  0  0  0  0  0  0  0
  -15.9531   -4.6775    0.0000 H   0  0  0  0  0  0  0  0  0  0  0  0
  -14.3575   -1.4733    0.0000 H   0  0  0  0  0  0  0  0  0  0  0  0
  -17.4150    0.0492    0.0000 H   0  0  0  0  0  0  0  0  0  0  0  0
  -17.9746    2.6867    0.0000 H   0  0  0  0  0  0  0  0  0  0  0  0
  -17.8920    0.9042    0.0000 H   0  0  0  0  0  0  0  0  0  0  0  0
  -14.9207    4.2210    0.0000 H   0  0  0  0  0  0  0  0  0  0  0  0
  -14.4972    2.8059    0.0000 H   0  0  0  0  0  0  0  0  0  0  0  0
  -17.9363    5.2845    0.0000 H   0  0  0  0  0  0  0  0  0  0  0  0
  -18.0483    3.8116    0.0000 H   0  0  0  0  0  0  0  0  0  0  0  0
  -14.8824    6.8188    0.0000 H   0  0  0  0  0  0  0  0  0  0  0  0
  -14.5105    5.2279    0.0000 H   0  0  0  0  0  0  0  0  0  0  0  0
  -15.8831    8.3348    0.0000 H   0  0  0  0  0  0  0  0  0  0  0  0
  -18.1520    7.0690    0.0000 H   0  0  0  0  0  0  0  0  0  0  0  0
  -17.2690    2.4158    0.0000 H   0  0  0  0  0  0  0  0  0  0  0  0
  -17.8979    3.8515    0.0000 H   0  0  0  0  0  0  0  0  0  0  0  0
  -17.6592    5.3854    0.0000 H   0  0  0  0  0  0  0  0  0  0  0  0
  -16.4458    6.6054    0.0000 H   0  0  0  0  0  0  0  0  0  0  0  0
  -14.9131    6.8524    0.0000 H   0  0  0  0  0  0  0  0  0  0  0  0
  -13.3779    6.0754    0.0000 H   0  0  0  0  0  0  0  0  0  0  0  0
  -13.0686    2.8698    0.0000 H   0  0  0  0  0  0  0  0  0  0  0  0
  -11.3391    2.6782    0.0000 H   0  0  0  0  0  0  0  0  0  0  0  0
  -11.1918    6.0906    0.0000 H   0  0  0  0  0  0  0  0  0  0  0  0
   -8.8317    7.6323    0.0000 H   0  0  0  0  0  0  0  0  0  0  0  0
  -10.6047    6.8741    0.0000 H   0  0  0  0  0  0  0  0  0  0  0  0
   -6.3146    5.6845    0.0000 H   0  0  0  0  0  0  0  0  0  0  0  0
   -7.6682    4.5219    0.0000 H   0  0  0  0  0  0  0  0  0  0  0  0
   -6.5479    9.7580    0.0000 H   0  0  0  0  0  0  0  0  0  0  0  0
   -7.4711    6.6359    0.0000 H   0  0  0  0  0  0  0  0  0  0  0  0
   -7.3540    3.0809    0.0000 H   0  0  0  0  0  0  0  0  0  0  0  0
   -6.6942    1.7665    0.0000 H   0  0  0  0  0  0  0  0  0  0  0  0
   -6.4630    1.1860    0.0000 H   0  0  0  0  0  0  0  0  0  0  0  0
   -5.6733    0.3625    0.0000 H   0  0  0  0  0  0  0  0  0  0  0  0
   -5.2148   -0.0379    0.0000 H   0  0  0  0  0  0  0  0  0  0  0  0
   -3.9292   -0.7522    0.0000 H   0  0  0  0  0  0  0  0  0  0  0  0
   -2.9653   -1.3081    0.0000 H   0  0  0  0  0  0  0  0  0  0  0  0
   -7.5747    2.0054    0.0000 H   0  0  0  0  0  0  0  0  0  0  0  0
   -8.7335    2.8801    0.0000 H   0  0  0  0  0  0  0  0  0  0  0  0
   -8.5017    4.5353    0.0000 H   0  0  0  0  0  0  0  0  0  0  0  0
   -6.8853    8.2389    0.0000 H   0  0  0  0  0  0  0  0  0  0  0  0
   -6.2541    8.7183    0.0000 H   0  0  0  0  0  0  0  0  0  0  0  0
   -3.6222   10.4484    0.0000 H   0  0  0  0  0  0  0  0  0  0  0  0
   -6.9720   11.9326    0.0000 H   0  0  0  0  0  0  0  0  0  0  0  0
   -7.9897   10.4668    0.0000 H   0  0  0  0  0  0  0  0  0  0  0  0
   -6.9058    9.0746    0.0000 H   0  0  0  0  0  0  0  0  0  0  0  0
   -4.1397   12.8472    0.0000 H   0  0  0  0  0  0  0  0  0  0  0  0
   -3.3792   11.2329    0.0000 H   0  0  0  0  0  0  0  0  0  0  0  0
   -5.8120   13.9396    0.0000 H   0  0  0  0  0  0  0  0  0  0  0  0
   -7.4522   12.9256    0.0000 H   0  0  0  0  0  0  0  0  0  0  0  0
   -7.0369   11.3454    0.0000 H   0  0  0  0  0  0  0  0  0  0  0  0
   -2.3966   11.4159    0.0000 H   0  0  0  0  0  0  0  0  0  0  0  0
   -1.4464   11.2431    0.0000 H   0  0  0  0  0  0  0  0  0  0  0  0
    1.7067   11.7326    0.0000 H   0  0  0  0  0  0  0  0  0  0  0  0
    1.5472   10.2641    0.0000 H   0  0  0  0  0  0  0  0  0  0  0  0
   -1.5690   11.9530    0.0000 H   0  0  0  0  0  0  0  0  0  0  0  0
    0.4219   15.1601    0.0000 H   0  0  0  0  0  0  0  0  0  0  0  0
    2.0620   14.4570    0.0000 H   0  0  0  0  0  0  0  0  0  0  0  0
    1.8692   12.6830    0.0000 H   0  0  0  0  0  0  0  0  0  0  0  0
   -0.8317   15.1535    0.0000 H   0  0  0  0  0  0  0  0  0  0  0  0
   -2.4644   14.4335    0.0000 H   0  0  0  0  0  0  0  0  0  0  0  0
   -2.1197   12.5362    0.0000 H   0  0  0  0  0  0  0  0  0  0  0  0
    3.0678    9.9091    0.0000 H   0  0  0  0  0  0  0  0  0  0  0  0
    3.6951    8.9901    0.0000 H   0  0  0  0  0  0  0  0  0  0  0  0
    5.9501    7.0649    0.0000 H   0  0  0  0  0  0  0  0  0  0  0  0
    4.6262    6.1075    0.0000 H   0  0  0  0  0  0  0  0  0  0  0  0
    5.3777   11.4872    0.0000 H   0  0  0  0  0  0  0  0  0  0  0  0
    5.2967    4.6974    0.0000 H   0  0  0  0  0  0  0  0  0  0  0  0
    3.3185    0.5647    0.0000 H   0  0  0  0  0  0  0  0  0  0  0  0
    4.2248    1.5082    0.0000 H   0  0  0  0  0  0  0  0  0  0  0  0
    1.9943   -0.5579    0.0000 H   0  0  0  0  0  0  0  0  0  0  0  0
    2.9565    0.0554    0.0000 H   0  0  0  0  0  0  0  0  0  0  0  0
    0.0360   -1.2282    0.0000 H   0  0  0  0  0  0  0  0  0  0  0  0
    1.4541   -0.8384    0.0000 H   0  0  0  0  0  0  0  0  0  0  0  0
   -1.0321   -1.5401    0.0000 H   0  0  0  0  0  0  0  0  0  0  0  0
    6.2296    2.8205    0.0000 H   0  0  0  0  0  0  0  0  0  0  0  0
    6.1157    4.6013    0.0000 H   0  0  0  0  0  0  0  0  0  0  0  0
    4.7307    5.1148    0.0000 H   0  0  0  0  0  0  0  0  0  0  0  0
    6.6480    3.6006    0.0000 H   0  0  0  0  0  0  0  0  0  0  0  0
    5.4886    0.4136    0.0000 H   0  0  0  0  0  0  0  0  0  0  0  0
    8.0294   -1.6194    0.0000 H   0  0  0  0  0  0  0  0  0  0  0  0
    8.7284    0.0224    0.0000 H   0  0  0  0  0  0  0  0  0  0  0  0
    7.9167   -3.5247    0.0000 H   0  0  0  0  0  0  0  0  0  0  0  0
    5.0748   -5.1287    0.0000 H   0  0  0  0  0  0  0  0  0  0  0  0
    2.6711   -2.9215    0.0000 H   0  0  0  0  0  0  0  0  0  0  0  0
    8.8168   -1.3369    0.0000 H   0  0  0  0  0  0  0  0  0  0  0  0
   10.2569    1.7334    0.0000 H   0  0  0  0  0  0  0  0  0  0  0  0
   13.0523    2.0985    0.0000 H   0  0  0  0  0  0  0  0  0  0  0  0
   11.1258    2.1846    0.0000 H   0  0  0  0  0  0  0  0  0  0  0  0
   14.6332    0.8777    0.0000 H   0  0  0  0  0  0  0  0  0  0  0  0
   14.2139   -1.0046    0.0000 H   0  0  0  0  0  0  0  0  0  0  0  0
   12.9251   -1.2655    0.0000 H   0  0  0  0  0  0  0  0  0  0  0  0
   13.8458    0.6104    0.0000 H   0  0  0  0  0  0  0  0  0  0  0  0
   12.6121   -2.4091    0.0000 H   0  0  0  0  0  0  0  0  0  0  0  0
   15.2272   -4.6096    0.0000 H   0  0  0  0  0  0  0  0  0  0  0  0
   15.9262   -2.9677    0.0000 H   0  0  0  0  0  0  0  0  0  0  0  0
   12.1215   -5.1124    0.0000 H   0  0  0  0  0  0  0  0  0  0  0  0
   12.4025   -3.3503    0.0000 H   0  0  0  0  0  0  0  0  0  0  0  0
   13.3374   -8.3881    0.0000 H   0  0  0  0  0  0  0  0  0  0  0  0
   11.4237   -6.6309    0.0000 H   0  0  0  0  0  0  0  0  0  0  0  0
   16.0147   -4.3270    0.0000 H   0  0  0  0  0  0  0  0  0  0  0  0
   17.4548   -1.2567    0.0000 H   0  0  0  0  0  0  0  0  0  0  0  0
   20.1079   -0.7762    0.0000 H   0  0  0  0  0  0  0  0  0  0  0  0
   18.3237   -0.8055    0.0000 H   0  0  0  0  0  0  0  0  0  0  0  0
   21.4118   -3.9947    0.0000 H   0  0  0  0  0  0  0  0  0  0  0  0
   20.1229   -4.2556    0.0000 H   0  0  0  0  0  0  0  0  0  0  0  0
   22.8456   -1.0076    0.0000 H   0  0  0  0  0  0  0  0  0  0  0  0
   21.0711   -0.8192    0.0000 H   0  0  0  0  0  0  0  0  0  0  0  0
   23.3929   -4.3899    0.0000 H   0  0  0  0  0  0  0  0  0  0  0  0
   27.0220   -2.3445    0.0000 H   0  0  0  0  0  0  0  0  0  0  0  0
   25.8248   -0.0387    0.0000 H   0  0  0  0  0  0  0  0  0  0  0  0
   23.2293    0.0773    0.0000 H   0  0  0  0  0  0  0  0  0  0  0  0
   21.1972   -2.4796    0.0000 H   0  0  0  0  0  0  0  0  0  0  0  0
   19.8100   -5.3992    0.0000 H   0  0  0  0  0  0  0  0  0  0  0  0
   22.4251   -7.5997    0.0000 H   0  0  0  0  0  0  0  0  0  0  0  0
   23.1241   -5.9579    0.0000 H   0  0  0  0  0  0  0  0  0  0  0  0
   21.1002   -8.8424    0.0000 H   0  0  0  0  0  0  0  0  0  0  0  0
   19.3194   -8.1026    0.0000 H   0  0  0  0  0  0  0  0  0  0  0  0
   19.6003   -6.3404    0.0000 H   0  0  0  0  0  0  0  0  0  0  0  0
   23.2125   -7.3172    0.0000 H   0  0  0  0  0  0  0  0  0  0  0  0
   24.6526   -4.2468    0.0000 H   0  0  0  0  0  0  0  0  0  0  0  0
   27.4480   -3.8818    0.0000 H   0  0  0  0  0  0  0  0  0  0  0  0
   25.3831   -3.9157    0.0000 H   0  0  0  0  0  0  0  0  0  0  0  0
   28.4576   -7.0871    0.0000 H   0  0  0  0  0  0  0  0  0  0  0  0
   27.1466   -7.1890    0.0000 H   0  0  0  0  0  0  0  0  0  0  0  0
   31.6244   -5.2186    0.0000 H   0  0  0  0  0  0  0  0  0  0  0  0
   31.2051   -7.1009    0.0000 H   0  0  0  0  0  0  0  0  0  0  0  0
   29.4209   -7.1302    0.0000 H   0  0  0  0  0  0  0  0  0  0  0  0
   26.3506   -9.4451    0.0000 H   0  0  0  0  0  0  0  0  0  0  0  0
  1  2  1  0
  2  3  1  0
  3  4  2  0
  4  5  1  0
  5  6  2  0
  6  7  1  0
  7  8  2  0
  7  9  1  0
  9 10  1  0
 10 11  1  0
 11 12  2  0
  9 13  1  0
 13 14  1  0
 14 15  2  0
 15 16  1  0
 16 17  2  0
 17 18  1  0
 16 19  1  0
 14 20  1  0
 20 21  1  0
 21 22  2  0
 22 23  1  0
 23 24  2  0
 24 25  1  0
 25 26  2  0
 25 27  1  0
  1 28  2  0
  1 29  1  0
 29 30  1  0
 30 31  1  0
 31 32  1  0
 32 33  2  0
 32 34  1  0
 34 35  1  0
 35 36  1  0
 36 37  1  0
 37 38  1  0
 38 39  1  0
 39 40  1  0
 35 41  1  0
 41 42  2  0
 41 43  1  0
 43 44  1  0
 44 45  1  0
 45 46  1  0
 46 47  1  0
 47 48  1  0
 48 49  2  0
 48 50  1  0
 50 51  1  0
 51 52  1  0
 52 53  1  0
 53 54  1  0
 54 55  2  0
 54 56  1  0
 51 57  1  0
 57 58  2  0
 57 59  1  0
 60 59  1  6
 60 61  1  0
 61 62  1  0
 62 63  1  0
 63 64  1  0
 60 65  1  0
 60 66  1  0
 66 67  2  0
 66 68  1  0
 68 69  1  0
 69 70  1  0
 70 71  1  0
 70 72  1  0
 72 73  1  0
 69 74  1  0
 74 75  2  0
 74 76  1  0
 76 77  1  0
 77 78  1  0
 78 79  1  0
 79 80  1  0
 79 81  1  0
 77 82  1  0
 82 83  2  0
 82 84  1  0
 84 85  1  0
 85 86  1  0
 86 87  1  0
 87 88  2  0
 87 89  1  0
 85 90  1  0
 90 91  2  0
 90 92  1  0
 92 93  1  0
 93 94  1  0
 94 95  1  0
 95 96  1  0
 96 97  1  0
 93 98  1  0
 93 99  1  6
 99100  2  0
 99101  1  0
101102  1  0
102103  1  0
103104  1  0
104105  2  0
105106  1  0
106107  1  0
107108  2  0
102109  1  0
109110  2  0
109111  1  0
111112  1  0
112113  1  0
113114  1  0
112115  1  0
115116  2  0
115117  1  0
117118  1  0
118119  1  0
119120  1  0
120121  1  0
121122  1  0
121123  2  0
118124  1  0
124125  2  0
124126  1  0
126127  1  0
127128  1  0
128129  1  0
129130  1  0
130131  1  0
131132  1  0
132133  2  3
132134  1  0
127135  1  0
135136  2  0
135137  1  0
137138  1  0
138139  1  0
139140  1  0
138141  1  0
141142  2  0
141143  1  0
143144  1  0
144145  1  0
145146  1  0
146147  1  0
147148  1  0
144149  1  0
149150  2  0
149151  1  0
  8  3  1  0
 47 43  1  0
108104  1  0
 11  6  1  0
 64 97  2  0
 18 13  2  0
 22  9  1  0
 26 21  1  0
  2152  1  0
  4153  1  0
  5154  1  0
  8155  1  0
 15156  1  0
 17157  1  0
 18158  1  0
 19159  1  0
 23160  1  0
 24161  1  0
 26162  1  0
 27163  1  0
 29164  1  0
 30165  1  0
 30166  1  0
 31167  1  0
 31168  1  0
 34169  1  0
 35170  1  1
 36171  1  0
 36172  1  0
 37173  1  0
 37174  1  0
 38175  1  0
 38176  1  0
 39177  1  0
 39178  1  0
 40179  1  0
 40180  1  0
 44181  1  0
 44182  1  0
 45183  1  0
 45184  1  0
 46185  1  0
 46186  1  0
 47187  1  0
 50188  1  0
 51189  1  1
 52190  1  0
 52191  1  0
 53192  1  0
 53193  1  0
 56194  1  0
 59195  1  0
 61196  1  0
 61197  1  0
 62198  1  0
 62199  1  0
 63200  1  0
 63201  1  0
 64202  1  0
 65203  1  0
 65204  1  0
 65205  1  0
 68206  1  0
 69207  1  1
 70208  1  6
 71209  1  0
 71210  1  0
 71211  1  0
 72212  1  0
 72213  1  0
 73214  1  0
 73215  1  0
 73216  1  0
 76217  1  0
 77218  1  1
 78219  1  0
 78220  1  0
 79221  1  0
 80222  1  0
 80223  1  0
 80224  1  0
 81225  1  0
 81226  1  0
 81227  1  0
 84228  1  0
 85229  1  1
 86230  1  0
 86231  1  0
 89232  1  0
 92233  1  0
 94234  1  0
 94235  1  0
 95236  1  0
 95237  1  0
 96238  1  0
 96239  1  0
 97240  1  0
 98241  1  0
 98242  1  0
 98243  1  0
101244  1  0
102245  1  6
103246  1  0
103247  1  0
105248  1  0
106249  1  0
107250  1  0
111251  1  0
112252  1  1
113253  1  0
113254  1  0
114255  1  0
114256  1  0
114257  1  0
117258  1  0
118259  1  6
119260  1  0
119261  1  0
120262  1  0
120263  1  0
122264  1  0
122265  1  0
126266  1  0
127267  1  1
128268  1  0
128269  1  0
129270  1  0
129271  1  0
130272  1  0
130273  1  0
131274  1  0
133275  1  0
134276  1  0
134277  1  0
137278  1  0
138279  1  6
139280  1  0
139281  1  0
140282  1  0
140283  1  0
140284  1  0
143285  1  0
144286  1  1
145287  1  0
145288  1  0
146289  1  0
146290  1  0
148291  1  0
148292  1  0
148293  1  0
151294  1  0
M  END
