
     RDKit          2D

294298  0  0  0  0  0  0  0  0999 V2000
  -25.3449    4.3911    0.0000 N   0  0  0  0  0  0  0  0  0  0  0  0
  -24.0460    3.6409    0.0000 C   0  0  0  0  0  0  0  0  0  0  0  0
  -24.0462    2.1409    0.0000 C   0  0  0  0  0  0  0  0  0  0  0  0
  -22.7473    1.3907    0.0000 C   0  0  0  0  0  0  0  0  0  0  0  0
  -21.4481    2.1405    0.0000 O   0  0  0  0  0  0  0  0  0  0  0  0
  -22.7475   -0.1093    0.0000 N   0  0  0  0  0  0  0  0  0  0  0  0
  -21.4486   -0.8595    0.0000 C   0  0  0  0  0  0  0  0  0  0  0  0
  -22.4130   -2.0084    0.0000 C   0  0  0  0  0  0  0  0  0  0  0  0
  -23.8901   -1.7477    0.0000 C   0  0  0  0  0  0  0  0  0  0  0  0
  -24.8545   -2.8966    0.0000 N   0  0  0  0  0  0  0  0  0  0  0  0
  -24.2921   -0.9584    0.0000 O   0  0  0  0  0  0  0  0  0  0  0  0
  -19.9714   -1.1202    0.0000 C   0  0  0  0  0  0  0  0  0  0  0  0
  -19.4586   -2.5298    0.0000 O   0  0  0  0  0  0  0  0  0  0  0  0
  -19.0071    0.0288    0.0000 N   0  0  0  0  0  0  0  0  0  0  0  0
  -17.5299   -0.2319    0.0000 C   0  0  0  0  0  0  0  0  0  0  0  0
  -17.5297    1.2681    0.0000 C   0  0  0  0  0  0  0  0  0  0  0  0
  -18.9104    1.8543    0.0000 C   0  0  0  0  0  0  0  0  0  0  0  0
  -17.0164    2.6775    0.0000 C   0  0  0  0  0  0  0  0  0  0  0  0
  -17.9804    3.8267    0.0000 C   0  0  0  0  0  0  0  0  0  0  0  0
  -16.2310   -0.9821    0.0000 C   0  0  0  0  0  0  0  0  0  0  0  0
  -14.9318   -0.2323    0.0000 O   0  0  0  0  0  0  0  0  0  0  0  0
  -16.2312   -2.4821    0.0000 N   0  0  0  0  0  0  0  0  0  0  0  0
  -14.9323   -3.2323    0.0000 C   0  0  0  0  0  0  0  0  0  0  0  0
  -15.8966   -4.3812    0.0000 C   0  0  0  0  0  0  0  0  0  0  0  0
  -13.4551   -3.4930    0.0000 C   0  0  0  0  0  0  0  0  0  0  0  0
  -13.1179   -4.9546    0.0000 O   0  0  0  0  0  0  0  0  0  0  0  0
  -12.4907   -2.3441    0.0000 N   0  0  0  0  0  0  0  0  0  0  0  0
  -11.0136   -2.6048    0.0000 C   0  0  0  0  0  0  0  0  0  0  0  0
  -10.2316   -3.8849    0.0000 C   0  0  0  0  0  0  0  0  0  0  0  0
   -9.1071   -4.8776    0.0000 C   0  0  0  0  0  0  0  0  0  0  0  0
   -7.7399   -5.4947    0.0000 C   0  0  0  0  0  0  0  0  0  0  0  0
   -6.2516   -5.6814    0.0000 C   0  0  0  0  0  0  0  0  0  0  0  0
  -12.0035   -3.7318    0.0000 C   0  0  0  0  0  0  0  0  0  0  0  0
  -11.3835   -1.1511    0.0000 C   0  0  0  0  0  0  0  0  0  0  0  0
  -12.8831   -1.1172    0.0000 O   0  0  0  0  0  0  0  0  0  0  0  0
  -11.3085    0.3470    0.0000 N   0  0  0  0  0  0  0  0  0  0  0  0
  -10.7953    1.7565    0.0000 C   0  0  0  0  0  0  0  0  0  0  0  0
  -12.2911    1.6446    0.0000 C   0  0  0  0  0  0  0  0  0  0  0  0
  -13.1359    2.8841    0.0000 C   0  0  0  0  0  0  0  0  0  0  0  0
  -14.6352    2.9292    0.0000 C   0  0  0  0  0  0  0  0  0  0  0  0
  -15.0556    4.3691    0.0000 N   0  0  0  0  0  0  0  0  0  0  0  0
  -13.8161    5.2138    0.0000 C   0  0  0  0  0  0  0  0  0  0  0  0
  -12.6297    4.2961    0.0000 N   0  0  0  0  0  0  0  0  0  0  0  0
   -9.8894    2.9520    0.0000 C   0  0  0  0  0  0  0  0  0  0  0  0
  -10.9366    4.0260    0.0000 O   0  0  0  0  0  0  0  0  0  0  0  0
   -8.6713    3.8275    0.0000 N   0  0  0  0  0  0  0  0  0  0  0  0
   -7.2494    4.3050    0.0000 C   0  0  0  0  0  0  0  0  0  0  0  0
   -8.2695    5.4047    0.0000 C   0  0  0  0  0  0  0  0  0  0  0  0
   -7.8271    6.8380    0.0000 C   0  0  0  0  0  0  0  0  0  0  0  0
   -8.8472    7.9377    0.0000 C   0  0  0  0  0  0  0  0  0  0  0  0
   -6.9212    8.0336    0.0000 C   0  0  0  0  0  0  0  0  0  0  0  0
   -5.7498    4.3421    0.0000 C   0  0  0  0  0  0  0  0  0  0  0  0
   -5.5631    5.8305    0.0000 O   0  0  0  0  0  0  0  0  0  0  0  0
   -4.3059    3.9357    0.0000 N   0  0  0  0  0  0  0  0  0  0  0  0
   -3.0460    3.1216    0.0000 C   0  0  0  0  0  0  0  0  0  0  0  0
   -2.8222    4.6049    0.0000 C   0  0  0  0  0  0  0  0  0  0  0  0
   -2.0820    1.9724    0.0000 C   0  0  0  0  0  0  0  0  0  0  0  0
   -1.3190    3.2639    0.0000 O   0  0  0  0  0  0  0  0  0  0  0  0
   -1.4996    0.5901    0.0000 N   0  0  0  0  0  0  0  0  0  0  0  0
   -1.3505   -0.9024    0.0000 C   0  0  0  0  0  0  0  0  0  0  0  0
   -1.6479   -2.3727    0.0000 C   0  0  0  0  0  0  0  0  0  0  0  0
   -2.3655   -3.6899    0.0000 C   0  0  0  0  0  0  0  0  0  0  0  0
   -3.4394   -4.7371    0.0000 C   0  0  0  0  0  0  0  0  0  0  0  0
   -4.7743   -5.4212    0.0000 C   0  0  0  0  0  0  0  0  0  0  0  0
   -0.4535    0.4151    0.0000 C   0  0  0  0  0  0  0  0  0  0  0  0
   -0.0033    1.7058    0.0000 C   0  0  0  0  0  0  0  0  0  0  0  0
    0.6830    2.8879    0.0000 C   0  0  0  0  0  0  0  0  0  0  0  0
    1.5806    3.9188    0.0000 C   0  0  0  0  0  0  0  0  0  0  0  0
   -0.5896   -2.3030    0.0000 C   0  0  0  0  0  0  0  0  0  0  0  0
   -2.7679   -2.6108    0.0000 O   0  0  0  0  0  0  0  0  0  0  0  0
   -0.2705   -3.6321    0.0000 N   0  0  0  0  0  0  0  0  0  0  0  0
    0.2943   -4.8769    0.0000 C   0  0  0  0  0  0  0  0  0  0  0  0
   -1.0244   -6.5459    0.0000 C   0  0  0  0  0  0  0  0  0  0  0  0
   -0.3981   -7.9089    0.0000 C   0  0  0  0  0  0  0  0  0  0  0  0
    1.0845   -5.9923    0.0000 C   0  0  0  0  0  0  0  0  0  0  0  0
   -0.0369   -7.1352    0.0000 O   0  0  0  0  0  0  0  0  0  0  0  0
    2.0715   -6.9379    0.0000 N   0  0  0  0  0  0  0  0  0  0  0  0
    3.2196   -7.6797    0.0000 C   0  0  0  0  0  0  0  0  0  0  0  0
    4.4874   -8.1908    0.0000 C   0  0  0  0  0  0  0  0  0  0  0  0
    3.8625  -10.3002    0.0000 O   0  0  0  0  0  0  0  0  0  0  0  0
    5.8290   -8.4528    0.0000 N   0  0  0  0  0  0  0  0  0  0  0  0
    7.1959   -8.4561    0.0000 C   0  0  0  0  0  0  0  0  0  0  0  0
    8.1663  -10.3489    0.0000 C   0  0  0  0  0  0  0  0  0  0  0  0
    7.5834  -11.7310    0.0000 C   0  0  0  0  0  0  0  0  0  0  0  0
    8.4890  -12.9269    0.0000 O   0  0  0  0  0  0  0  0  0  0  0  0
    6.0950  -11.9173    0.0000 O   0  0  0  0  0  0  0  0  0  0  0  0
    8.5388   -8.2006    0.0000 C   0  0  0  0  0  0  0  0  0  0  0  0
    9.3259  -10.2512    0.0000 O   0  0  0  0  0  0  0  0  0  0  0  0
    9.8090   -7.6957    0.0000 N   0  0  0  0  0  0  0  0  0  0  0  0
   10.9607   -6.9594    0.0000 C   0  0  0  0  0  0  0  0  0  0  0  0
   12.8004   -8.0272    0.0000 C   0  0  0  0  0  0  0  0  0  0  0  0
   13.0573   -9.5050    0.0000 C   0  0  0  0  0  0  0  0  0  0  0  0
   12.0127  -10.5815    0.0000 C   0  0  0  0  0  0  0  0  0  0  0  0
   12.7137  -11.9076    0.0000 N   0  0  0  0  0  0  0  0  0  0  0  0
   14.1915  -11.6507    0.0000 C   0  0  0  0  0  0  0  0  0  0  0  0
   15.3713  -12.5771    0.0000 C   0  0  0  0  0  0  0  0  0  0  0  0
   16.7634  -12.0185    0.0000 C   0  0  0  0  0  0  0  0  0  0  0  0
   16.9758  -10.5336    0.0000 C   0  0  0  0  0  0  0  0  0  0  0  0
   15.7960   -9.6073    0.0000 C   0  0  0  0  0  0  0  0  0  0  0  0
   14.4039  -10.1658    0.0000 C   0  0  0  0  0  0  0  0  0  0  0  0
   11.9523   -6.0186    0.0000 C   0  0  0  0  0  0  0  0  0  0  0  0
   13.7231   -7.3180    0.0000 O   0  0  0  0  0  0  0  0  0  0  0  0
   12.7478   -4.9070    0.0000 N   0  0  0  0  0  0  0  0  0  0  0  0
   13.3187   -3.6650    0.0000 C   0  0  0  0  0  0  0  0  0  0  0  0
   15.4436   -3.5686    0.0000 C   0  0  0  0  0  0  0  0  0  0  0  0
   16.4587   -4.6730    0.0000 C   0  0  0  0  0  0  0  0  0  0  0  0
   17.9226   -4.3460    0.0000 C   0  0  0  0  0  0  0  0  0  0  0  0
   18.9377   -5.4504    0.0000 C   0  0  0  0  0  0  0  0  0  0  0  0
   13.6442   -2.3374    0.0000 C   0  0  0  0  0  0  0  0  0  0  0  0
   15.8364   -2.4732    0.0000 O   0  0  0  0  0  0  0  0  0  0  0  0
   13.7125   -0.9722    0.0000 N   0  0  0  0  0  0  0  0  0  0  0  0
   13.5212    0.3813    0.0000 C   0  0  0  0  0  0  0  0  0  0  0  0
   15.2567    1.6112    0.0000 C   0  0  0  0  0  0  0  0  0  0  0  0
   16.7077    1.2309    0.0000 C   0  0  0  0  0  0  0  0  0  0  0  0
   17.7625    2.2974    0.0000 O   0  0  0  0  0  0  0  0  0  0  0  0
   17.1039   -0.2158    0.0000 O   0  0  0  0  0  0  0  0  0  0  0  0
   13.0773    1.6741    0.0000 C   0  0  0  0  0  0  0  0  0  0  0  0
   14.9949    2.7451    0.0000 O   0  0  0  0  0  0  0  0  0  0  0  0
   12.3967    2.8596    0.0000 N   0  0  0  0  0  0  0  0  0  0  0  0
   11.5041    3.8948    0.0000 C   0  0  0  0  0  0  0  0  0  0  0  0
   10.4316    4.7423    0.0000 C   0  0  0  0  0  0  0  0  0  0  0  0
    9.2182    5.3716    0.0000 C   0  0  0  0  0  0  0  0  0  0  0  0
    7.9076    5.7599    0.0000 C   0  0  0  0  0  0  0  0  0  0  0  0
    6.5471    5.8931    0.0000 C   0  0  0  0  0  0  0  0  0  0  0  0
    5.1861    5.7665    0.0000 C   0  0  0  0  0  0  0  0  0  0  0  0
    3.8736    5.3846    0.0000 C   0  0  0  0  0  0  0  0  0  0  0  0
    2.6571    4.7611    0.0000 C   0  0  0  0  0  0  0  0  0  0  0  0
   13.4412    4.7734    0.0000 C   0  0  0  0  0  0  0  0  0  0  0  0
   12.2991    5.8677    0.0000 C   0  0  0  0  0  0  0  0  0  0  0  0
   11.4594    7.1106    0.0000 O   0  0  0  0  0  0  0  0  0  0  0  0
   13.7253    6.3323    0.0000 N   0  0  0  0  0  0  0  0  0  0  0  0
   14.0361    7.7997    0.0000 C   0  0  0  0  0  0  0  0  0  0  0  0
   13.8262    9.2850    0.0000 C   0  0  0  0  0  0  0  0  0  0  0  0
   14.5977   10.5714    0.0000 O   0  0  0  0  0  0  0  0  0  0  0  0
   15.4623    8.2643    0.0000 C   0  0  0  0  0  0  0  0  0  0  0  0
   16.5778    7.2615    0.0000 O   0  0  0  0  0  0  0  0  0  0  0  0
   15.7731    9.7318    0.0000 N   0  0  0  0  0  0  0  0  0  0  0  0
   17.1993   10.1964    0.0000 C   0  0  0  0  0  0  0  0  0  0  0  0
   18.6984   10.1452    0.0000 C   0  0  0  0  0  0  0  0  0  0  0  0
   19.2370    8.7452    0.0000 C   0  0  0  0  0  0  0  0  0  0  0  0
   20.1247   10.6098    0.0000 C   0  0  0  0  0  0  0  0  0  0  0  0
   21.2402    9.6069    0.0000 C   0  0  0  0  0  0  0  0  0  0  0  0
   17.5101   11.6638    0.0000 C   0  0  0  0  0  0  0  0  0  0  0  0
   18.7815   12.4598    0.0000 O   0  0  0  0  0  0  0  0  0  0  0  0
   16.3946   12.6667    0.0000 O   0  0  0  0  0  0  0  0  0  0  0  0
  -25.3447    5.8911    0.0000 H   0  0  0  0  0  0  0  0  0  0  0  0
  -26.6441    3.6413    0.0000 H   0  0  0  0  0  0  0  0  0  0  0  0
  -23.5327    5.0504    0.0000 H   0  0  0  0  0  0  0  0  0  0  0  0
  -22.5688    3.3802    0.0000 H   0  0  0  0  0  0  0  0  0  0  0  0
  -25.5234    2.4016    0.0000 H   0  0  0  0  0  0  0  0  0  0  0  0
  -24.5595    0.7315    0.0000 H   0  0  0  0  0  0  0  0  0  0  0  0
  -23.4814   -0.4206    0.0000 H   0  0  0  0  0  0  0  0  0  0  0  0
  -20.9354    0.5500    0.0000 H   0  0  0  0  0  0  0  0  0  0  0  0
  -22.9262   -3.4178    0.0000 H   0  0  0  0  0  0  0  0  0  0  0  0
  -21.1140   -2.7586    0.0000 H   0  0  0  0  0  0  0  0  0  0  0  0
  -26.3317   -2.6359    0.0000 H   0  0  0  0  0  0  0  0  0  0  0  0
  -24.3417   -4.3062    0.0000 H   0  0  0  0  0  0  0  0  0  0  0  0
  -19.6879    1.3654    0.0000 H   0  0  0  0  0  0  0  0  0  0  0  0
  -18.0431   -1.6414    0.0000 H   0  0  0  0  0  0  0  0  0  0  0  0
  -16.0953    0.8293    0.0000 H   0  0  0  0  0  0  0  0  0  0  0  0
  -19.0318    3.5158    0.0000 H   0  0  0  0  0  0  0  0  0  0  0  0
  -20.3058    2.2790    0.0000 H   0  0  0  0  0  0  0  0  0  0  0  0
  -19.8129    0.8864    0.0000 H   0  0  0  0  0  0  0  0  0  0  0  0
  -16.0521    3.8264    0.0000 H   0  0  0  0  0  0  0  0  0  0  0  0
  -15.8186    1.7746    0.0000 H   0  0  0  0  0  0  0  0  0  0  0  0
  -17.4672    5.2362    0.0000 H   0  0  0  0  0  0  0  0  0  0  0  0
  -19.2794    4.5769    0.0000 H   0  0  0  0  0  0  0  0  0  0  0  0
  -19.1941    2.9453    0.0000 H   0  0  0  0  0  0  0  0  0  0  0  0
  -17.6121   -3.0680    0.0000 H   0  0  0  0  0  0  0  0  0  0  0  0
  -14.4190   -1.8229    0.0000 H   0  0  0  0  0  0  0  0  0  0  0  0
  -17.3946   -4.3026    0.0000 H   0  0  0  0  0  0  0  0  0  0  0  0
  -16.4099   -5.7907    0.0000 H   0  0  0  0  0  0  0  0  0  0  0  0
  -14.5977   -5.1314    0.0000 H   0  0  0  0  0  0  0  0  0  0  0  0
  -13.1716   -1.0075    0.0000 H   0  0  0  0  0  0  0  0  0  0  0  0
  -10.6740   -5.3181    0.0000 H   0  0  0  0  0  0  0  0  0  0  0  0
  -11.6862   -4.2512    0.0000 H   0  0  0  0  0  0  0  0  0  0  0  0
   -9.2902   -6.3663    0.0000 H   0  0  0  0  0  0  0  0  0  0  0  0
  -10.3891   -5.6564    0.0000 H   0  0  0  0  0  0  0  0  0  0  0  0
   -7.2980   -6.9281    0.0000 H   0  0  0  0  0  0  0  0  0  0  0  0
   -8.7354   -6.6168    0.0000 H   0  0  0  0  0  0  0  0  0  0  0  0
   -6.2144   -7.1810    0.0000 H   0  0  0  0  0  0  0  0  0  0  0  0
  -13.3144   -4.0586    0.0000 H   0  0  0  0  0  0  0  0  0  0  0  0
  -12.0365   -5.3134    0.0000 H   0  0  0  0  0  0  0  0  0  0  0  0
  -10.8535   -4.9546    0.0000 H   0  0  0  0  0  0  0  0  0  0  0  0
  -12.7787    0.6444    0.0000 H   0  0  0  0  0  0  0  0  0  0  0  0
  -11.5124    3.0739    0.0000 H   0  0  0  0  0  0  0  0  0  0  0  0
  -13.6584    1.0279    0.0000 H   0  0  0  0  0  0  0  0  0  0  0  0
  -12.2839    0.1446    0.0000 H   0  0  0  0  0  0  0  0  0  0  0  0
  -15.2386    1.5559    0.0000 H   0  0  0  0  0  0  0  0  0  0  0  0
  -16.4676    4.8753    0.0000 H   0  0  0  0  0  0  0  0  0  0  0  0
  -13.7710    6.7132    0.0000 H   0  0  0  0  0  0  0  0  0  0  0  0
   -9.3554    5.1624    0.0000 H   0  0  0  0  0  0  0  0  0  0  0  0
   -6.5024    5.6057    0.0000 H   0  0  0  0  0  0  0  0  0  0  0  0
   -9.6776    5.9214    0.0000 H   0  0  0  0  0  0  0  0  0  0  0  0
   -9.4377    4.4639    0.0000 H   0  0  0  0  0  0  0  0  0  0  0  0
   -6.4189    6.3213    0.0000 H   0  0  0  0  0  0  0  0  0  0  0  0
   -8.5829    9.4142    0.0000 H   0  0  0  0  0  0  0  0  0  0  0  0
  -10.1819    8.6222    0.0000 H   0  0  0  0  0  0  0  0  0  0  0  0
   -9.8921    6.8615    0.0000 H   0  0  0  0  0  0  0  0  0  0  0  0
   -7.3308    9.4765    0.0000 H   0  0  0  0  0  0  0  0  0  0  0  0
   -5.6611    8.8472    0.0000 H   0  0  0  0  0  0  0  0  0  0  0  0
   -5.9011    6.9338    0.0000 H   0  0  0  0  0  0  0  0  0  0  0  0
   -3.8601    5.3679    0.0000 H   0  0  0  0  0  0  0  0  0  0  0  0
   -1.6623    3.7007    0.0000 H   0  0  0  0  0  0  0  0  0  0  0  0
   -3.8721    5.6762    0.0000 H   0  0  0  0  0  0  0  0  0  0  0  0
   -2.1047    5.9221    0.0000 H   0  0  0  0  0  0  0  0  0  0  0  0
   -1.3528    4.3038    0.0000 H   0  0  0  0  0  0  0  0  0  0  0  0
   -0.0459    0.9600    0.0000 H   0  0  0  0  0  0  0  0  0  0  0  0
   -0.1855   -2.0391    0.0000 H   0  0  0  0  0  0  0  0  0  0  0  0
   -0.8949   -3.6700    0.0000 H   0  0  0  0  0  0  0  0  0  0  0  0
   -1.0093   -4.3309    0.0000 H   0  0  0  0  0  0  0  0  0  0  0  0
   -2.2090   -5.1817    0.0000 H   0  0  0  0  0  0  0  0  0  0  0  0
   -2.3325   -5.7493    0.0000 H   0  0  0  0  0  0  0  0  0  0  0  0
   -3.3649   -6.2352    0.0000 H   0  0  0  0  0  0  0  0  0  0  0  0
   -4.2968   -6.8431    0.0000 H   0  0  0  0  0  0  0  0  0  0  0  0
   -2.5596    0.1172    0.0000 H   0  0  0  0  0  0  0  0  0  0  0  0
   -2.0446    1.7733    0.0000 H   0  0  0  0  0  0  0  0  0  0  0  0
   -2.0956    2.3577    0.0000 H   0  0  0  0  0  0  0  0  0  0  0  0
   -1.1399    3.4121    0.0000 H   0  0  0  0  0  0  0  0  0  0  0  0
   -1.3146    3.7533    0.0000 H   0  0  0  0  0  0  0  0  0  0  0  0
   -0.4624    4.6802    0.0000 H   0  0  0  0  0  0  0  0  0  0  0  0
    0.0663    5.5146    0.0000 H   0  0  0  0  0  0  0  0  0  0  0  0
   -2.0824   -4.8228    0.0000 H   0  0  0  0  0  0  0  0  0  0  0  0
   -1.8070   -5.3573    0.0000 H   0  0  0  0  0  0  0  0  0  0  0  0
   -2.1447   -7.5433    0.0000 H   0  0  0  0  0  0  0  0  0  0  0  0
   -2.4564   -6.0994    0.0000 H   0  0  0  0  0  0  0  0  0  0  0  0
   -0.9482   -9.1429    0.0000 H   0  0  0  0  0  0  0  0  0  0  0  0
    0.6963   -9.0512    0.0000 H   0  0  0  0  0  0  0  0  0  0  0  0
    1.1079   -7.1673    0.0000 H   0  0  0  0  0  0  0  0  0  0  0  0
    0.8578   -8.7686    0.0000 H   0  0  0  0  0  0  0  0  0  0  0  0
    3.0126   -9.7967    0.0000 H   0  0  0  0  0  0  0  0  0  0  0  0
    1.7117   -9.2199    0.0000 H   0  0  0  0  0  0  0  0  0  0  0  0
    5.6146  -10.6423    0.0000 H   0  0  0  0  0  0  0  0  0  0  0  0
    6.5914  -10.4954    0.0000 H   0  0  0  0  0  0  0  0  0  0  0  0
    9.3176  -11.3104    0.0000 H   0  0  0  0  0  0  0  0  0  0  0  0
    9.4224   -9.5291    0.0000 H   0  0  0  0  0  0  0  0  0  0  0  0
   10.6445   -9.7270    0.0000 H   0  0  0  0  0  0  0  0  0  0  0  0
   11.5547   -9.0019    0.0000 H   0  0  0  0  0  0  0  0  0  0  0  0
   14.2887   -8.2136    0.0000 H   0  0  0  0  0  0  0  0  0  0  0  0
   13.4139   -6.6584    0.0000 H   0  0  0  0  0  0  0  0  0  0  0  0
   10.5130  -10.5517    0.0000 H   0  0  0  0  0  0  0  0  0  0  0  0
   12.0529  -13.2542    0.0000 H   0  0  0  0  0  0  0  0  0  0  0  0
   15.1589  -14.0619    0.0000 H   0  0  0  0  0  0  0  0  0  0  0  0
   17.9432  -12.9449    0.0000 H   0  0  0  0  0  0  0  0  0  0  0  0
   18.3679   -9.9751    0.0000 H   0  0  0  0  0  0  0  0  0  0  0  0
   16.0083   -8.1224    0.0000 H   0  0  0  0  0  0  0  0  0  0  0  0
   14.5490   -6.1641    0.0000 H   0  0  0  0  0  0  0  0  0  0  0  0
   14.7734   -5.1683    0.0000 H   0  0  0  0  0  0  0  0  0  0  0  0
   16.7074   -2.7607    0.0000 H   0  0  0  0  0  0  0  0  0  0  0  0
   15.2196   -2.0854    0.0000 H   0  0  0  0  0  0  0  0  0  0  0  0
   16.8617   -6.1178    0.0000 H   0  0  0  0  0  0  0  0  0  0  0  0
   15.4279   -5.7627    0.0000 H   0  0  0  0  0  0  0  0  0  0  0  0
   19.1864   -3.5381    0.0000 H   0  0  0  0  0  0  0  0  0  0  0  0
   17.5196   -2.9012    0.0000 H   0  0  0  0  0  0  0  0  0  0  0  0
   20.4016   -5.1235    0.0000 H   0  0  0  0  0  0  0  0  0  0  0  0
   19.5139   -6.8353    0.0000 H   0  0  0  0  0  0  0  0  0  0  0  0
   17.7818   -6.4063    0.0000 H   0  0  0  0  0  0  0  0  0  0  0  0
   15.9103   -0.8728    0.0000 H   0  0  0  0  0  0  0  0  0  0  0  0
   15.6259    0.0732    0.0000 H   0  0  0  0  0  0  0  0  0  0  0  0
   16.0446    2.8876    0.0000 H   0  0  0  0  0  0  0  0  0  0  0  0
   14.2664    2.7379    0.0000 H   0  0  0  0  0  0  0  0  0  0  0  0
   14.2884    3.9757    0.0000 H   0  0  0  0  0  0  0  0  0  0  0  0
   10.8389    6.8300    0.0000 H   0  0  0  0  0  0  0  0  0  0  0  0
   11.9719    6.2808    0.0000 H   0  0  0  0  0  0  0  0  0  0  0  0
    9.4051    7.5190    0.0000 H   0  0  0  0  0  0  0  0  0  0  0  0
   10.4395    7.1738    0.0000 H   0  0  0  0  0  0  0  0  0  0  0  0
    7.6847    7.9038    0.0000 H   0  0  0  0  0  0  0  0  0  0  0  0
    8.9205    7.6626    0.0000 H   0  0  0  0  0  0  0  0  0  0  0  0
    5.9226    7.9561    0.0000 H   0  0  0  0  0  0  0  0  0  0  0  0
    7.1817    7.9531    0.0000 H   0  0  0  0  0  0  0  0  0  0  0  0
    4.1824    7.6740    0.0000 H   0  0  0  0  0  0  0  0  0  0  0  0
    5.4193    7.9093    0.0000 H   0  0  0  0  0  0  0  0  0  0  0  0
    2.4093    6.9273    0.0000 H   0  0  0  0  0  0  0  0  0  0  0  0
    3.6971    7.5328    0.0000 H   0  0  0  0  0  0  0  0  0  0  0  0
    1.4722    6.6148    0.0000 H   0  0  0  0  0  0  0  0  0  0  0  0
   14.1820    6.0777    0.0000 H   0  0  0  0  0  0  0  0  0  0  0  0
   14.9340    4.6272    0.0000 H   0  0  0  0  0  0  0  0  0  0  0  0
   13.9149    3.3502    0.0000 H   0  0  0  0  0  0  0  0  0  0  0  0
   14.9547    5.4729    0.0000 H   0  0  0  0  0  0  0  0  0  0  0  0
   12.5370    7.8509    0.0000 H   0  0  0  0  0  0  0  0  0  0  0  0
   13.1210   10.6089    0.0000 H   0  0  0  0  0  0  0  0  0  0  0  0
   12.4000    8.8204    0.0000 H   0  0  0  0  0  0  0  0  0  0  0  0
   14.7976   11.6946    0.0000 H   0  0  0  0  0  0  0  0  0  0  0  0
   14.7882   10.8631    0.0000 H   0  0  0  0  0  0  0  0  0  0  0  0
   17.2266    8.6966    0.0000 H   0  0  0  0  0  0  0  0  0  0  0  0
   18.6712   11.6449    0.0000 H   0  0  0  0  0  0  0  0  0  0  0  0
   20.8934    8.5668    0.0000 H   0  0  0  0  0  0  0  0  0  0  0  0
   19.6135    7.3360    0.0000 H   0  0  0  0  0  0  0  0  0  0  0  0
   18.0447    8.1863    0.0000 H   0  0  0  0  0  0  0  0  0  0  0  0
   21.3060   11.5342    0.0000 H   0  0  0  0  0  0  0  0  0  0  0  0
   19.5861   12.0098    0.0000 H   0  0  0  0  0  0  0  0  0  0  0  0
   22.6664   10.0715    0.0000 H   0  0  0  0  0  0  0  0  0  0  0  0
   21.9454    8.2830    0.0000 H   0  0  0  0  0  0  0  0  0  0  0  0
   20.3176    8.4242    0.0000 H   0  0  0  0  0  0  0  0  0  0  0  0
  1  2  1  0
  2  3  1  0
  3  4  1  0
  4  5  2  0
  4  6  1  0
  6  7  1  0
  7  8  1  0
  8  9  1  0
  9 10  1  0
  9 11  2  0
  7 12  1  0
 12 13  2  0
 12 14  1  0
 14 15  1  0
 15 16  1  0
 16 17  1  0
 16 18  1  0
 18 19  1  0
 15 20  1  0
 20 21  2  0
 20 22  1  0
 22 23  1  0
 23 24  1  0
 23 25  1  0
 25 26  2  0
 25 27  1  0
 28 27  1  6
 28 29  1  0
 29 30  1  0
 30 31  1  0
 31 32  1  0
 28 33  1  0
 28 34  1  0
 34 35  2  0
 34 36  1  0
 36 37  1  0
 37 38  1  0
 38 39  1  0
 39 40  2  0
 40 41  1  0
 41 42  1  0
 42 43  2  0
 37 44  1  0
 44 45  2  0
 44 46  1  0
 46 47  1  0
 47 48  1  0
 48 49  1  0
 49 50  1  0
 49 51  1  0
 47 52  1  0
 52 53  2  0
 52 54  1  0
 54 55  1  0
 55 56  1  0
 55 57  1  0
 57 58  2  0
 57 59  1  0
 59 60  1  0
 60 61  1  0
 61 62  1  0
 62 63  1  0
 63 64  1  0
 60 65  1  0
 65 66  1  0
 66 67  1  0
 67 68  1  0
 60 69  1  0
 69 70  2  0
 69 71  1  0
 71 72  1  0
 72 73  1  0
 73 74  1  0
 72 75  1  0
 75 76  2  0
 75 77  1  0
 77 78  1  0
 78 79  1  0
 79 80  2  0
 79 81  1  0
 81 82  1  0
 82 83  1  0
 83 84  1  0
 84 85  2  0
 84 86  1  0
 82 87  1  0
 87 88  2  0
 87 89  1  0
 89 90  1  0
 90 91  1  0
 91 92  1  0
 92 93  2  0
 93 94  1  0
 94 95  1  0
 95 96  2  0
 96 97  1  0
 97 98  2  0
 98 99  1  0
 99100  2  0
 90101  1  0
101102  2  0
101103  1  0
103104  1  0
104105  1  0
105106  1  0
106107  1  0
107108  1  0
104109  1  0
109110  2  0
109111  1  0
111112  1  0
112113  1  0
113114  1  0
114115  2  0
114116  1  0
112117  1  0
117118  2  0
117119  1  0
119120  1  0
120121  1  0
121122  1  0
122123  1  0
123124  1  0
124125  1  0
125126  1  0
126127  1  0
120128  1  0
120129  1  1
129130  2  0
129131  1  0
131132  1  0
132133  1  0
133134  1  0
132135  1  0
135136  2  0
135137  1  0
137138  1  0
138139  1  0
139140  1  0
139141  1  0
141142  1  0
138143  1  0
143144  2  0
143145  1  0
 43 39  1  0
100 92  1  0
100 95  1  0
 32 64  2  0
 68127  2  0
  1146  1  0
  1147  1  0
  2148  1  0
  2149  1  0
  3150  1  0
  3151  1  0
  6152  1  0
  7153  1  6
  8154  1  0
  8155  1  0
 10156  1  0
 10157  1  0
 14158  1  0
 15159  1  1
 16160  1  6
 17161  1  0
 17162  1  0
 17163  1  0
 18164  1  0
 18165  1  0
 19166  1  0
 19167  1  0
 19168  1  0
 22169  1  0
 23170  1  6
 24171  1  0
 24172  1  0
 24173  1  0
 27174  1  0
 29175  1  0
 29176  1  0
 30177  1  0
 30178  1  0
 31179  1  0
 31180  1  0
 32181  1  0
 33182  1  0
 33183  1  0
 33184  1  0
 36185  1  0
 37186  1  1
 38187  1  0
 38188  1  0
 40189  1  0
 41190  1  0
 42191  1  0
 46192  1  0
 47193  1  1
 48194  1  0
 48195  1  0
 49196  1  0
 50197  1  0
 50198  1  0
 50199  1  0
 51200  1  0
 51201  1  0
 51202  1  0
 54203  1  0
 55204  1  1
 56205  1  0
 56206  1  0
 56207  1  0
 59208  1  0
 61209  1  0
 61210  1  0
 62211  1  0
 62212  1  0
 63213  1  0
 63214  1  0
 64215  1  0
 65216  1  0
 65217  1  0
 66218  1  0
 66219  1  0
 67220  1  0
 67221  1  0
 68222  1  0
 71223  1  0
 72224  1  6
 73225  1  0
 73226  1  0
 74227  1  0
 74228  1  0
 74229  1  0
 77230  1  0
 78231  1  0
 78232  1  0
 81233  1  0
 82234  1  6
 83235  1  0
 83236  1  0
 89237  1  0
 90238  1  6
 91239  1  0
 91240  1  0
 93241  1  0
 94242  1  0
 96243  1  0
 97244  1  0
 98245  1  0
 99246  1  0
103247  1  0
104248  1  1
105249  1  0
105250  1  0
106251  1  0
106252  1  0
107253  1  0
107254  1  0
108255  1  0
108256  1  0
108257  1  0
111258  1  0
112259  1  6
113260  1  0
113261  1  0
119262  1  0
121263  1  0
121264  1  0
122265  1  0
122266  1  0
123267  1  0
123268  1  0
124269  1  0
124270  1  0
125271  1  0
125272  1  0
126273  1  0
126274  1  0
127275  1  0
128276  1  0
128277  1  0
128278  1  0
131279  1  0
132280  1  1
133281  1  0
133282  1  0
134283  1  0
137284  1  0
138285  1  6
139286  1  1
140287  1  0
140288  1  0
140289  1  0
141290  1  0
141291  1  0
142292  1  0
142293  1  0
142294  1  0
M  CHG  3  86  -1 116  -1 145  -1
M  END
