
     RDKit          2D

387394  0  0  0  0  0  0  0  0999 V2000
   23.5532    2.7109    0.0000 C   0  0  0  0  0  0  0  0  0  0  0  0
   23.8602    4.1791    0.0000 N   0  0  0  0  0  0  0  0  0  0  0  0
   25.2853    4.6473    0.0000 C   0  0  0  0  0  0  0  0  0  0  0  0
   26.4033    3.6473    0.0000 C   0  0  0  0  0  0  0  0  0  0  0  0
   27.8284    4.1156    0.0000 C   0  0  0  0  0  0  0  0  0  0  0  0
   28.1354    5.5838    0.0000 C   0  0  0  0  0  0  0  0  0  0  0  0
   27.0173    6.5838    0.0000 C   0  0  0  0  0  0  0  0  0  0  0  0
   25.5923    6.1156    0.0000 C   0  0  0  0  0  0  0  0  0  0  0  0
   27.6229    7.9562    0.0000 C   0  0  0  0  0  0  0  0  0  0  0  0
   29.1152    7.8043    0.0000 O   0  0  0  0  0  0  0  0  0  0  0  0
   29.4319    6.3381    0.0000 C   0  0  0  0  0  0  0  0  0  0  0  0
   30.8043    5.7325    0.0000 O   0  0  0  0  0  0  0  0  0  0  0  0
   28.3686    9.2577    0.0000 C   0  0  0  0  0  0  0  0  0  0  0  0
   27.6143   10.5542    0.0000 C   0  0  0  0  0  0  0  0  0  0  0  0
   28.3600   11.8557    0.0000 C   0  0  0  0  0  0  0  0  0  0  0  0
   29.8600   11.8607    0.0000 C   0  0  0  0  0  0  0  0  0  0  0  0
   30.6143   10.5641    0.0000 C   0  0  0  0  0  0  0  0  0  0  0  0
   29.8686    9.2626    0.0000 C   0  0  0  0  0  0  0  0  0  0  0  0
   30.6057   13.1622    0.0000 O   0  0  0  0  0  0  0  0  0  0  0  0
   26.1143   10.5493    0.0000 O   0  0  0  0  0  0  0  0  0  0  0  0
   25.3686    9.2477    0.0000 C   0  0  0  0  0  0  0  0  0  0  0  0
   26.1229    7.9512    0.0000 C   0  0  0  0  0  0  0  0  0  0  0  0
   25.0252    7.2547    0.0000 C   0  0  0  0  0  0  0  0  0  0  0  0
   24.2252    7.2521    0.0000 C   0  0  0  0  0  0  0  0  0  0  0  0
   23.8229    7.9436    0.0000 C   0  0  0  0  0  0  0  0  0  0  0  0
   24.2207    8.6377    0.0000 C   0  0  0  0  0  0  0  0  0  0  0  0
   21.6230    7.9363    0.0000 O   0  0  0  0  0  0  0  0  0  0  0  0
   24.7848    1.8546    0.0000 S   0  0  0  0  0  0  0  0  0  0  0  0
   22.1282    2.2426    0.0000 N   0  0  0  0  0  0  0  0  0  0  0  0
   21.8212    0.7744    0.0000 C   0  0  0  0  0  0  0  0  0  0  0  0
   20.3961    0.3061    0.0000 C   0  0  0  0  0  0  0  0  0  0  0  0
   20.0891   -1.1621    0.0000 C   0  0  0  0  0  0  0  0  0  0  0  0
   20.7942   -1.5340    0.0000 O   0  0  0  0  0  0  0  0  0  0  0  0
   18.6641   -1.6303    0.0000 N   0  0  0  0  0  0  0  0  0  0  0  0
   18.3570   -3.0986    0.0000 C   0  0  0  0  0  0  0  0  0  0  0  0
   19.8563   -3.1460    0.0000 C   0  0  0  0  0  0  0  0  0  0  0  0
   20.6470   -1.8713    0.0000 C   0  0  0  0  0  0  0  0  0  0  0  0
   22.1462   -1.9187    0.0000 C   0  0  0  0  0  0  0  0  0  0  0  0
   22.9369   -0.6440    0.0000 N   0  0  0  0  0  0  0  0  0  0  0  0
   24.4361   -0.6914    0.0000 C   0  0  0  0  0  0  0  0  0  0  0  0
   25.2268    0.5833    0.0000 N   0  0  0  0  0  0  0  0  0  0  0  0
   25.1447   -2.0135    0.0000 N   0  0  0  0  0  0  0  0  0  0  0  0
   17.5664   -4.3733    0.0000 C   0  0  0  0  0  0  0  0  0  0  0  0
   18.5738   -5.4846    0.0000 O   0  0  0  0  0  0  0  0  0  0  0  0
   16.0671   -4.3259    0.0000 N   0  0  0  0  0  0  0  0  0  0  0  0
   15.2764   -5.6006    0.0000 C   0  0  0  0  0  0  0  0  0  0  0  0
   16.6691   -6.1579    0.0000 C   0  0  0  0  0  0  0  0  0  0  0  0
   17.8480   -5.2305    0.0000 C   0  0  0  0  0  0  0  0  0  0  0  0
   19.2407   -5.7878    0.0000 C   0  0  0  0  0  0  0  0  0  0  0  0
   20.5239   -5.0110    0.0000 N   0  0  0  0  0  0  0  0  0  0  0  0
   19.4543   -7.2725    0.0000 O   0  0  0  0  0  0  0  0  0  0  0  0
   14.0975   -6.5280    0.0000 C   0  0  0  0  0  0  0  0  0  0  0  0
   14.6641   -7.9168    0.0000 O   0  0  0  0  0  0  0  0  0  0  0  0
   12.7049   -5.9707    0.0000 N   0  0  0  0  0  0  0  0  0  0  0  0
   11.5259   -6.8980    0.0000 C   0  0  0  0  0  0  0  0  0  0  0  0
   12.6439   -7.8981    0.0000 C   0  0  0  0  0  0  0  0  0  0  0  0
   14.0690   -7.4298    0.0000 C   0  0  0  0  0  0  0  0  0  0  0  0
   13.3525   -9.2201    0.0000 C   0  0  0  0  0  0  0  0  0  0  0  0
   14.8518   -9.2675    0.0000 C   0  0  0  0  0  0  0  0  0  0  0  0
   10.1009   -7.3663    0.0000 C   0  0  0  0  0  0  0  0  0  0  0  0
   10.1582   -8.8652    0.0000 O   0  0  0  0  0  0  0  0  0  0  0  0
    8.9828   -6.3663    0.0000 N   0  0  0  0  0  0  0  0  0  0  0  0
    7.5578   -6.8345    0.0000 C   0  0  0  0  0  0  0  0  0  0  0  0
    8.2664   -8.1566    0.0000 C   0  0  0  0  0  0  0  0  0  0  0  0
    9.7656   -8.2040    0.0000 C   0  0  0  0  0  0  0  0  0  0  0  0
   10.4742   -9.5261    0.0000 C   0  0  0  0  0  0  0  0  0  0  0  0
   11.9734   -9.5735    0.0000 C   0  0  0  0  0  0  0  0  0  0  0  0
   12.5156  -10.9721    0.0000 N   0  0  0  0  0  0  0  0  0  0  0  0
    6.0585   -6.7871    0.0000 C   0  0  0  0  0  0  0  0  0  0  0  0
    5.5998   -8.2153    0.0000 O   0  0  0  0  0  0  0  0  0  0  0  0
    5.3500   -5.4650    0.0000 N   0  0  0  0  0  0  0  0  0  0  0  0
    3.8507   -5.4176    0.0000 C   0  0  0  0  0  0  0  0  0  0  0  0
    4.0644   -6.9023    0.0000 C   0  0  0  0  0  0  0  0  0  0  0  0
    5.4570   -7.4597    0.0000 C   0  0  0  0  0  0  0  0  0  0  0  0
    3.7574   -8.3706    0.0000 C   0  0  0  0  0  0  0  0  0  0  0  0
    4.9889   -9.2268    0.0000 C   0  0  0  0  0  0  0  0  0  0  0  0
    2.4581   -4.8603    0.0000 C   0  0  0  0  0  0  0  0  0  0  0  0
    1.5386   -6.0454    0.0000 O   0  0  0  0  0  0  0  0  0  0  0  0
    2.2444   -3.3756    0.0000 N   0  0  0  0  0  0  0  0  0  0  0  0
    0.8518   -2.8183    0.0000 C   0  0  0  0  0  0  0  0  0  0  0  0
    0.5448   -4.2866    0.0000 C   0  0  0  0  0  0  0  0  0  0  0  0
    1.6628   -5.2866    0.0000 C   0  0  0  0  0  0  0  0  0  0  0  0
    3.1290   -4.9698    0.0000 C   0  0  0  0  0  0  0  0  0  0  0  0
    3.8833   -6.2664    0.0000 N   0  0  0  0  0  0  0  0  0  0  0  0
    2.8833   -7.3844    0.0000 C   0  0  0  0  0  0  0  0  0  0  0  0
    3.0450   -8.8757    0.0000 C   0  0  0  0  0  0  0  0  0  0  0  0
    1.8344   -9.7614    0.0000 C   0  0  0  0  0  0  0  0  0  0  0  0
    0.4621   -9.1558    0.0000 C   0  0  0  0  0  0  0  0  0  0  0  0
    0.3003   -7.6645    0.0000 C   0  0  0  0  0  0  0  0  0  0  0  0
    1.5109   -6.7789    0.0000 C   0  0  0  0  0  0  0  0  0  0  0  0
   -0.2662   -1.8183    0.0000 C   0  0  0  0  0  0  0  0  0  0  0  0
   -1.5356   -2.6174    0.0000 O   0  0  0  0  0  0  0  0  0  0  0  0
    0.0408   -0.3501    0.0000 N   0  0  0  0  0  0  0  0  0  0  0  0
   -1.0773    0.6499    0.0000 C   0  0  0  0  0  0  0  0  0  0  0  0
   -1.4768   -0.7959    0.0000 C   0  0  0  0  0  0  0  0  0  0  0  0
   -2.1427   -2.1399    0.0000 C   0  0  0  0  0  0  0  0  0  0  0  0
   -3.0510   -3.3337    0.0000 C   0  0  0  0  0  0  0  0  0  0  0  0
   -4.1687   -4.3340    0.0000 C   0  0  0  0  0  0  0  0  0  0  0  0
    0.3152    1.2076    0.0000 C   0  0  0  0  0  0  0  0  0  0  0  0
   -0.9586    2.1452    0.0000 C   0  0  0  0  0  0  0  0  0  0  0  0
    0.5271    2.3519    0.0000 O   0  0  0  0  0  0  0  0  0  0  0  0
   -1.1250    3.6360    0.0000 N   0  0  0  0  0  0  0  0  0  0  0  0
   -1.5706    5.0683    0.0000 C   0  0  0  0  0  0  0  0  0  0  0  0
   -0.7007    6.2903    0.0000 C   0  0  0  0  0  0  0  0  0  0  0  0
    0.7926    6.1479    0.0000 C   0  0  0  0  0  0  0  0  0  0  0  0
    1.6625    7.3698    0.0000 C   0  0  0  0  0  0  0  0  0  0  0  0
    3.1557    7.2275    0.0000 N   0  0  0  0  0  0  0  0  0  0  0  0
    1.0392    8.7342    0.0000 O   0  0  0  0  0  0  0  0  0  0  0  0
   -2.2792    6.3904    0.0000 C   0  0  0  0  0  0  0  0  0  0  0  0
   -1.1410    7.3674    0.0000 O   0  0  0  0  0  0  0  0  0  0  0  0
   -3.2252    7.5545    0.0000 N   0  0  0  0  0  0  0  0  0  0  0  0
   -4.3744    8.5185    0.0000 C   0  0  0  0  0  0  0  0  0  0  0  0
   -4.3032   10.0168    0.0000 C   0  0  0  0  0  0  0  0  0  0  0  0
   -2.9700   10.7043    0.0000 C   0  0  0  0  0  0  0  0  0  0  0  0
   -2.8988   12.2026    0.0000 N   0  0  0  0  0  0  0  0  0  0  0  0
   -1.7080    9.8935    0.0000 O   0  0  0  0  0  0  0  0  0  0  0  0
   -5.6852    9.2476    0.0000 C   0  0  0  0  0  0  0  0  0  0  0  0
   -5.2560   10.6849    0.0000 O   0  0  0  0  0  0  0  0  0  0  0  0
   -7.1104    9.7155    0.0000 N   0  0  0  0  0  0  0  0  0  0  0  0
   -8.5983    9.9052    0.0000 C   0  0  0  0  0  0  0  0  0  0  0  0
   -9.3485   11.2041    0.0000 C   0  0  0  0  0  0  0  0  0  0  0  0
   -8.5987   12.5032    0.0000 C   0  0  0  0  0  0  0  0  0  0  0  0
   -9.3489   13.8022    0.0000 C   0  0  0  0  0  0  0  0  0  0  0  0
   -8.5990   15.1013    0.0000 N   0  0  0  0  0  0  0  0  0  0  0  0
   -9.3492   16.4003    0.0000 C   0  0  0  0  0  0  0  0  0  0  0  0
   -8.5994   17.6994    0.0000 N   0  0  0  0  0  0  0  0  0  0  0  0
  -10.8492   16.4001    0.0000 N   0  0  0  0  0  0  0  0  0  0  0  0
  -10.0953    9.8098    0.0000 C   0  0  0  0  0  0  0  0  0  0  0  0
  -10.5113   11.2510    0.0000 O   0  0  0  0  0  0  0  0  0  0  0  0
  -11.5472    9.4329    0.0000 N   0  0  0  0  0  0  0  0  0  0  0  0
  -12.9015    8.7881    0.0000 C   0  0  0  0  0  0  0  0  0  0  0  0
  -14.2348    9.4752    0.0000 C   0  0  0  0  0  0  0  0  0  0  0  0
  -14.3064   10.9735    0.0000 C   0  0  0  0  0  0  0  0  0  0  0  0
  -15.6397   11.6607    0.0000 C   0  0  0  0  0  0  0  0  0  0  0  0
  -15.7113   13.1590    0.0000 N   0  0  0  0  0  0  0  0  0  0  0  0
  -17.0447   13.8461    0.0000 C   0  0  0  0  0  0  0  0  0  0  0  0
  -17.1162   15.3444    0.0000 N   0  0  0  0  0  0  0  0  0  0  0  0
  -18.3064   13.0350    0.0000 N   0  0  0  0  0  0  0  0  0  0  0  0
  -14.1093    7.8985    0.0000 C   0  0  0  0  0  0  0  0  0  0  0  0
  -15.2384    8.8860    0.0000 O   0  0  0  0  0  0  0  0  0  0  0  0
  -15.1269    6.7965    0.0000 N   0  0  0  0  0  0  0  0  0  0  0  0
  -15.9176    5.5218    0.0000 C   0  0  0  0  0  0  0  0  0  0  0  0
  -17.4108    5.3790    0.0000 C   0  0  0  0  0  0  0  0  0  0  0  0
  -18.2810    6.6008    0.0000 C   0  0  0  0  0  0  0  0  0  0  0  0
  -19.7742    6.4580    0.0000 S   0  0  0  0  0  0  0  0  0  0  0  0
  -20.6444    7.6798    0.0000 C   0  0  0  0  0  0  0  0  0  0  0  0
  -16.4527    4.1205    0.0000 C   0  0  0  0  0  0  0  0  0  0  0  0
  -17.9365    4.3408    0.0000 O   0  0  0  0  0  0  0  0  0  0  0  0
  -16.7130    2.6433    0.0000 N   0  0  0  0  0  0  0  0  0  0  0  0
  -16.6890    1.1435    0.0000 C   0  0  0  0  0  0  0  0  0  0  0  0
  -17.8680    0.2161    0.0000 C   0  0  0  0  0  0  0  0  0  0  0  0
  -19.2606    0.7734    0.0000 C   0  0  0  0  0  0  0  0  0  0  0  0
  -20.4395   -0.1540    0.0000 C   0  0  0  0  0  0  0  0  0  0  0  0
  -21.8322    0.4033    0.0000 C   0  0  0  0  0  0  0  0  0  0  0  0
  -23.0111   -0.5241    0.0000 N   0  0  0  0  0  0  0  0  0  0  0  0
  -16.3816   -0.3247    0.0000 C   0  0  0  0  0  0  0  0  0  0  0  0
  -17.7489   -0.9415    0.0000 O   0  0  0  0  0  0  0  0  0  0  0  0
  -15.8019   -1.7081    0.0000 N   0  0  0  0  0  0  0  0  0  0  0  0
  -14.9709   -2.9569    0.0000 C   0  0  0  0  0  0  0  0  0  0  0  0
  -13.9185   -4.0258    0.0000 C   0  0  0  0  0  0  0  0  0  0  0  0
  -12.6829   -4.8762    0.0000 C   0  0  0  0  0  0  0  0  0  0  0  0
  -11.3086   -5.4774    0.0000 C   0  0  0  0  0  0  0  0  0  0  0  0
   -9.8454   -5.8077    0.0000 C   0  0  0  0  0  0  0  0  0  0  0  0
   -8.3462   -5.8551    0.0000 C   0  0  0  0  0  0  0  0  0  0  0  0
   -6.8651   -5.6179    0.0000 C   0  0  0  0  0  0  0  0  0  0  0  0
   -5.4556   -5.1047    0.0000 C   0  0  0  0  0  0  0  0  0  0  0  0
  -16.4588   -3.1470    0.0000 C   0  0  0  0  0  0  0  0  0  0  0  0
  -15.4613   -4.3745    0.0000 C   0  0  0  0  0  0  0  0  0  0  0  0
  -14.7823   -5.7120    0.0000 O   0  0  0  0  0  0  0  0  0  0  0  0
  -16.9341   -4.6585    0.0000 N   0  0  0  0  0  0  0  0  0  0  0  0
  -17.4245   -6.0761    0.0000 C   0  0  0  0  0  0  0  0  0  0  0  0
  -17.4005   -7.5759    0.0000 C   0  0  0  0  0  0  0  0  0  0  0  0
  -18.6874   -8.3466    0.0000 C   0  0  0  0  0  0  0  0  0  0  0  0
  -18.6634   -9.8464    0.0000 C   0  0  0  0  0  0  0  0  0  0  0  0
  -19.9503  -10.6171    0.0000 C   0  0  0  0  0  0  0  0  0  0  0  0
  -19.9263  -12.1169    0.0000 N   0  0  0  0  0  0  0  0  0  0  0  0
  -18.8974   -6.3602    0.0000 C   0  0  0  0  0  0  0  0  0  0  0  0
  -19.8798   -5.2267    0.0000 O   0  0  0  0  0  0  0  0  0  0  0  0
  -19.3878   -7.7777    0.0000 N   0  0  0  0  0  0  0  0  0  0  0  0
  -20.8607   -8.0618    0.0000 C   0  0  0  0  0  0  0  0  0  0  0  0
  -22.3419   -7.8250    0.0000 C   0  0  0  0  0  0  0  0  0  0  0  0
  -22.8774   -6.4238    0.0000 C   0  0  0  0  0  0  0  0  0  0  0  0
  -24.3586   -6.1870    0.0000 C   0  0  0  0  0  0  0  0  0  0  0  0
  -24.8941   -4.7859    0.0000 C   0  0  0  0  0  0  0  0  0  0  0  0
  -26.3753   -4.5491    0.0000 N   0  0  0  0  0  0  0  0  0  0  0  0
  -21.3511   -9.4794    0.0000 C   0  0  0  0  0  0  0  0  0  0  0  0
  -22.7783   -9.9409    0.0000 O   0  0  0  0  0  0  0  0  0  0  0  0
  -20.6721  -10.8169    0.0000 O   0  0  0  0  0  0  0  0  0  0  0  0
   22.6287    5.0354    0.0000 H   0  0  0  0  0  0  0  0  0  0  0  0
   26.0963    2.1791    0.0000 H   0  0  0  0  0  0  0  0  0  0  0  0
   28.9464    3.1156    0.0000 H   0  0  0  0  0  0  0  0  0  0  0  0
   24.2655    6.8153    0.0000 H   0  0  0  0  0  0  0  0  0  0  0  0
   27.6058   13.1523    0.0000 H   0  0  0  0  0  0  0  0  0  0  0  0
   32.1143   10.5691    0.0000 H   0  0  0  0  0  0  0  0  0  0  0  0
   30.6229    7.9661    0.0000 H   0  0  0  0  0  0  0  0  0  0  0  0
   32.1057   13.1671    0.0000 H   0  0  0  0  0  0  0  0  0  0  0  0
   26.1315    5.3531    0.0000 H   0  0  0  0  0  0  0  0  0  0  0  0
   22.9784    5.4438    0.0000 H   0  0  0  0  0  0  0  0  0  0  0  0
   23.1144   10.5393    0.0000 H   0  0  0  0  0  0  0  0  0  0  0  0
   20.8687    9.2329    0.0000 H   0  0  0  0  0  0  0  0  0  0  0  0
   21.0102    3.2426    0.0000 H   0  0  0  0  0  0  0  0  0  0  0  0
   23.3204    0.7270    0.0000 H   0  0  0  0  0  0  0  0  0  0  0  0
   22.3877   -0.6145    0.0000 H   0  0  0  0  0  0  0  0  0  0  0  0
   20.1824    1.7908    0.0000 H   0  0  0  0  0  0  0  0  0  0  0  0
   18.8969    0.3535    0.0000 H   0  0  0  0  0  0  0  0  0  0  0  0
   17.5460   -0.6303    0.0000 H   0  0  0  0  0  0  0  0  0  0  0  0
   16.9644   -2.5413    0.0000 H   0  0  0  0  0  0  0  0  0  0  0  0
   21.1706   -3.8689    0.0000 H   0  0  0  0  0  0  0  0  0  0  0  0
   19.7305   -4.6407    0.0000 H   0  0  0  0  0  0  0  0  0  0  0  0
   20.9540   -0.4030    0.0000 H   0  0  0  0  0  0  0  0  0  0  0  0
   19.4306   -0.9936    0.0000 H   0  0  0  0  0  0  0  0  0  0  0  0
   23.5388   -2.4760    0.0000 H   0  0  0  0  0  0  0  0  0  0  0  0
   22.0205   -3.4134    0.0000 H   0  0  0  0  0  0  0  0  0  0  0  0
   22.5693    0.8103    0.0000 H   0  0  0  0  0  0  0  0  0  0  0  0
   26.7261    0.5359    0.0000 H   0  0  0  0  0  0  0  0  0  0  0  0
   24.6847    1.9819    0.0000 H   0  0  0  0  0  0  0  0  0  0  0  0
   26.6440   -2.0609    0.0000 H   0  0  0  0  0  0  0  0  0  0  0  0
   24.3540   -3.2882    0.0000 H   0  0  0  0  0  0  0  0  0  0  0  0
   15.3585   -3.0038    0.0000 H   0  0  0  0  0  0  0  0  0  0  0  0
   14.1584   -4.6006    0.0000 H   0  0  0  0  0  0  0  0  0  0  0  0
   17.7871   -7.1579    0.0000 H   0  0  0  0  0  0  0  0  0  0  0  0
   15.8784   -7.4326    0.0000 H   0  0  0  0  0  0  0  0  0  0  0  0
   18.6387   -3.9558    0.0000 H   0  0  0  0  0  0  0  0  0  0  0  0
   17.0052   -3.9897    0.0000 H   0  0  0  0  0  0  0  0  0  0  0  0
   21.8122   -5.4177    0.0000 H   0  0  0  0  0  0  0  0  0  0  0  0
   20.6111   -3.3474    0.0000 H   0  0  0  0  0  0  0  0  0  0  0  0
   12.4912   -4.4859    0.0000 H   0  0  0  0  0  0  0  0  0  0  0  0
   10.8173   -5.5760    0.0000 H   0  0  0  0  0  0  0  0  0  0  0  0
   11.3607   -8.6748    0.0000 H   0  0  0  0  0  0  0  0  0  0  0  0
   15.3006   -8.2861    0.0000 H   0  0  0  0  0  0  0  0  0  0  0  0
   15.2479   -6.5024    0.0000 H   0  0  0  0  0  0  0  0  0  0  0  0
   13.7456   -5.9696    0.0000 H   0  0  0  0  0  0  0  0  0  0  0  0
   13.9191  -10.6090    0.0000 H   0  0  0  0  0  0  0  0  0  0  0  0
   12.0831  -10.0193    0.0000 H   0  0  0  0  0  0  0  0  0  0  0  0
   15.5603  -10.5896    0.0000 H   0  0  0  0  0  0  0  0  0  0  0  0
   16.2768   -8.7993    0.0000 H   0  0  0  0  0  0  0  0  0  0  0  0
   15.1845   -7.8049    0.0000 H   0  0  0  0  0  0  0  0  0  0  0  0
    9.2898   -4.8980    0.0000 H   0  0  0  0  0  0  0  0  0  0  0  0
    7.3441   -5.3498    0.0000 H   0  0  0  0  0  0  0  0  0  0  0  0
    8.2975   -9.6563    0.0000 H   0  0  0  0  0  0  0  0  0  0  0  0
    6.8413   -8.6248    0.0000 H   0  0  0  0  0  0  0  0  0  0  0  0
   11.1230   -7.5655    0.0000 H   0  0  0  0  0  0  0  0  0  0  0  0
    9.9176   -6.7117    0.0000 H   0  0  0  0  0  0  0  0  0  0  0  0
   10.5053  -11.0258    0.0000 H   0  0  0  0  0  0  0  0  0  0  0  0
    9.1169  -10.1645    0.0000 H   0  0  0  0  0  0  0  0  0  0  0  0
   13.4694   -9.4640    0.0000 H   0  0  0  0  0  0  0  0  0  0  0  0
   11.7598   -8.0888    0.0000 H   0  0  0  0  0  0  0  0  0  0  0  0
   14.1724  -11.1462    0.0000 H   0  0  0  0  0  0  0  0  0  0  0  0
   12.8957  -12.3803    0.0000 H   0  0  0  0  0  0  0  0  0  0  0  0
   11.3141  -11.5143    0.0000 H   0  0  0  0  0  0  0  0  0  0  0  0
    6.1406   -4.1903    0.0000 H   0  0  0  0  0  0  0  0  0  0  0  0
    4.3344   -3.9978    0.0000 H   0  0  0  0  0  0  0  0  0  0  0  0
    2.5982   -7.2191    0.0000 H   0  0  0  0  0  0  0  0  0  0  0  0
    5.8500   -8.9072    0.0000 H   0  0  0  0  0  0  0  0  0  0  0  0
    6.9562   -7.5070    0.0000 H   0  0  0  0  0  0  0  0  0  0  0  0
    6.3044   -6.2273    0.0000 H   0  0  0  0  0  0  0  0  0  0  0  0
    3.2986   -9.7987    0.0000 H   0  0  0  0  0  0  0  0  0  0  0  0
    2.2713   -8.1668    0.0000 H   0  0  0  0  0  0  0  0  0  0  0  0
    4.5684  -10.8388    0.0000 H   0  0  0  0  0  0  0  0  0  0  0  0
    6.2680   -9.9279    0.0000 H   0  0  0  0  0  0  0  0  0  0  0  0
    6.0704   -8.4640    0.0000 H   0  0  0  0  0  0  0  0  0  0  0  0
    3.4234   -2.4482    0.0000 H   0  0  0  0  0  0  0  0  0  0  0  0
    1.6425   -1.5436    0.0000 H   0  0  0  0  0  0  0  0  0  0  0  0
   -0.2459   -5.5612    0.0000 H   0  0  0  0  0  0  0  0  0  0  0  0
   -0.8479   -3.7292    0.0000 H   0  0  0  0  0  0  0  0  0  0  0  0
    3.5628   -3.5339    0.0000 H   0  0  0  0  0  0  0  0  0  0  0  0
    5.3459   -6.5990    0.0000 H   0  0  0  0  0  0  0  0  0  0  0  0
    4.3333   -9.6440    0.0000 H   0  0  0  0  0  0  0  0  0  0  0  0
    1.9961  -11.2526    0.0000 H   0  0  0  0  0  0  0  0  0  0  0  0
   -0.7486  -10.0415    0.0000 H   0  0  0  0  0  0  0  0  0  0  0  0
   -1.0720   -7.0590    0.0000 H   0  0  0  0  0  0  0  0  0  0  0  0
    1.5123   -0.0590    0.0000 H   0  0  0  0  0  0  0  0  0  0  0  0
    0.0210   -0.8766    0.0000 H   0  0  0  0  0  0  0  0  0  0  0  0
   -0.7205   -2.0912    0.0000 H   0  0  0  0  0  0  0  0  0  0  0  0
   -0.7423   -2.6774    0.0000 H   0  0  0  0  0  0  0  0  0  0  0  0
   -1.4764   -3.4838    0.0000 H   0  0  0  0  0  0  0  0  0  0  0  0
   -1.5780   -3.6174    0.0000 H   0  0  0  0  0  0  0  0  0  0  0  0
   -2.6511   -4.7794    0.0000 H   0  0  0  0  0  0  0  0  0  0  0  0
   -3.2792   -5.5418    0.0000 H   0  0  0  0  0  0  0  0  0  0  0  0
    1.5986    0.4312    0.0000 H   0  0  0  0  0  0  0  0  0  0  0  0
    1.5466    2.0642    0.0000 H   0  0  0  0  0  0  0  0  0  0  0  0
   -0.1439    2.6356    0.0000 H   0  0  0  0  0  0  0  0  0  0  0  0
    0.3697    3.7621    0.0000 H   0  0  0  0  0  0  0  0  0  0  0  0
   -0.1293    4.6527    0.0000 H   0  0  0  0  0  0  0  0  0  0  0  0
   -0.1279    7.6766    0.0000 H   0  0  0  0  0  0  0  0  0  0  0  0
   -1.8589    7.2434    0.0000 H   0  0  0  0  0  0  0  0  0  0  0  0
    2.1470    5.5034    0.0000 H   0  0  0  0  0  0  0  0  0  0  0  0
    0.7548    4.6483    0.0000 H   0  0  0  0  0  0  0  0  0  0  0  0
    4.0256    8.4494    0.0000 H   0  0  0  0  0  0  0  0  0  0  0  0
    3.7790    5.8631    0.0000 H   0  0  0  0  0  0  0  0  0  0  0  0
   -2.1563    8.6068    0.0000 H   0  0  0  0  0  0  0  0  0  0  0  0
   -3.0003    9.1201    0.0000 H   0  0  0  0  0  0  0  0  0  0  0  0
   -4.5708   11.4927    0.0000 H   0  0  0  0  0  0  0  0  0  0  0  0
   -5.7929   10.1924    0.0000 H   0  0  0  0  0  0  0  0  0  0  0  0
   -1.5657   12.8901    0.0000 H   0  0  0  0  0  0  0  0  0  0  0  0
   -4.1608   13.0134    0.0000 H   0  0  0  0  0  0  0  0  0  0  0  0
   -6.6042   11.1275    0.0000 H   0  0  0  0  0  0  0  0  0  0  0  0
   -7.6216   11.0436    0.0000 H   0  0  0  0  0  0  0  0  0  0  0  0
  -10.4977   12.1681    0.0000 H   0  0  0  0  0  0  0  0  0  0  0  0
  -10.6967   10.5464    0.0000 H   0  0  0  0  0  0  0  0  0  0  0  0
   -7.4497   13.4676    0.0000 H   0  0  0  0  0  0  0  0  0  0  0  0
   -7.2504   11.8459    0.0000 H   0  0  0  0  0  0  0  0  0  0  0  0
  -10.4981   14.7662    0.0000 H   0  0  0  0  0  0  0  0  0  0  0  0
  -10.6068   12.9851    0.0000 H   0  0  0  0  0  0  0  0  0  0  0  0
   -7.0990   15.1015    0.0000 H   0  0  0  0  0  0  0  0  0  0  0  0
   -9.3495   18.9983    0.0000 H   0  0  0  0  0  0  0  0  0  0  0  0
   -7.0994   17.6996    0.0000 H   0  0  0  0  0  0  0  0  0  0  0  0
  -11.5994   17.6990    0.0000 H   0  0  0  0  0  0  0  0  0  0  0  0
  -11.5990   15.1009    0.0000 H   0  0  0  0  0  0  0  0  0  0  0  0
  -11.8848   10.8944    0.0000 H   0  0  0  0  0  0  0  0  0  0  0  0
  -12.6952   10.2738    0.0000 H   0  0  0  0  0  0  0  0  0  0  0  0
  -15.7228    9.6649    0.0000 H   0  0  0  0  0  0  0  0  0  0  0  0
  -15.0134    8.1931    0.0000 H   0  0  0  0  0  0  0  0  0  0  0  0
  -13.8612   12.4059    0.0000 H   0  0  0  0  0  0  0  0  0  0  0  0
  -12.8168   11.1495    0.0000 H   0  0  0  0  0  0  0  0  0  0  0  0
  -17.1277   11.8504    0.0000 H   0  0  0  0  0  0  0  0  0  0  0  0
  -16.2562   10.2932    0.0000 H   0  0  0  0  0  0  0  0  0  0  0  0
  -14.4495   13.9701    0.0000 H   0  0  0  0  0  0  0  0  0  0  0  0
  -18.4496   16.0316    0.0000 H   0  0  0  0  0  0  0  0  0  0  0  0
  -15.8545   16.1555    0.0000 H   0  0  0  0  0  0  0  0  0  0  0  0
  -19.6398   13.7222    0.0000 H   0  0  0  0  0  0  0  0  0  0  0  0
  -18.2349   11.5367    0.0000 H   0  0  0  0  0  0  0  0  0  0  0  0
  -16.2010    7.8435    0.0000 H   0  0  0  0  0  0  0  0  0  0  0  0
  -16.5473    6.8832    0.0000 H   0  0  0  0  0  0  0  0  0  0  0  0
  -18.8336    4.9041    0.0000 H   0  0  0  0  0  0  0  0  0  0  0  0
  -17.3726    3.8795    0.0000 H   0  0  0  0  0  0  0  0  0  0  0  0
  -18.5017    8.0845    0.0000 H   0  0  0  0  0  0  0  0  0  0  0  0
  -17.1230    7.5542    0.0000 H   0  0  0  0  0  0  0  0  0  0  0  0
  -22.1376    7.5370    0.0000 H   0  0  0  0  0  0  0  0  0  0  0  0
  -21.0443    9.1255    0.0000 H   0  0  0  0  0  0  0  0  0  0  0  0
  -19.3788    8.4849    0.0000 H   0  0  0  0  0  0  0  0  0  0  0  0
  -18.1827    2.9433    0.0000 H   0  0  0  0  0  0  0  0  0  0  0  0
  -17.9548    1.9483    0.0000 H   0  0  0  0  0  0  0  0  0  0  0  0
  -18.6586   -1.0586    0.0000 H   0  0  0  0  0  0  0  0  0  0  0  0
  -17.0251   -1.0247    0.0000 H   0  0  0  0  0  0  0  0  0  0  0  0
  -20.2484    1.9022    0.0000 H   0  0  0  0  0  0  0  0  0  0  0  0
  -18.8019    2.2015    0.0000 H   0  0  0  0  0  0  0  0  0  0  0  0
  -21.0689   -1.5156    0.0000 H   0  0  0  0  0  0  0  0  0  0  0  0
  -19.4517   -1.2828    0.0000 H   0  0  0  0  0  0  0  0  0  0  0  0
  -22.9502    1.4033    0.0000 H   0  0  0  0  0  0  0  0  0  0  0  0
  -21.2028    1.7649    0.0000 H   0  0  0  0  0  0  0  0  0  0  0  0
  -24.4037    0.0332    0.0000 H   0  0  0  0  0  0  0  0  0  0  0  0
  -23.8018   -1.7988    0.0000 H   0  0  0  0  0  0  0  0  0  0  0  0
  -22.0233   -1.6529    0.0000 H   0  0  0  0  0  0  0  0  0  0  0  0
  -17.2005   -2.2503    0.0000 H   0  0  0  0  0  0  0  0  0  0  0  0
  -14.1318   -5.5106    0.0000 H   0  0  0  0  0  0  0  0  0  0  0  0
  -15.1879   -4.8249    0.0000 H   0  0  0  0  0  0  0  0  0  0  0  0
  -12.7945   -6.3721    0.0000 H   0  0  0  0  0  0  0  0  0  0  0  0
  -13.7781   -5.9012    0.0000 H   0  0  0  0  0  0  0  0  0  0  0  0
  -11.1351   -6.9674    0.0000 H   0  0  0  0  0  0  0  0  0  0  0  0
  -12.3315   -6.5746    0.0000 H   0  0  0  0  0  0  0  0  0  0  0  0
   -9.3931   -7.2379    0.0000 H   0  0  0  0  0  0  0  0  0  0  0  0
  -10.6421   -7.0786    0.0000 H   0  0  0  0  0  0  0  0  0  0  0  0
   -7.6314   -7.1738    0.0000 H   0  0  0  0  0  0  0  0  0  0  0  0
   -8.8880   -7.2538    0.0000 H   0  0  0  0  0  0  0  0  0  0  0  0
   -5.7793   -6.6529    0.0000 H   0  0  0  0  0  0  0  0  0  0  0  0
   -7.1323   -7.0939    0.0000 H   0  0  0  0  0  0  0  0  0  0  0  0
   -4.8107   -6.4590    0.0000 H   0  0  0  0  0  0  0  0  0  0  0  0
  -17.3557   -4.3493    0.0000 H   0  0  0  0  0  0  0  0  0  0  0  0
  -17.9219   -2.8167    0.0000 H   0  0  0  0  0  0  0  0  0  0  0  0
  -16.7523   -1.6760    0.0000 H   0  0  0  0  0  0  0  0  0  0  0  0
  -18.0474   -3.6532    0.0000 H   0  0  0  0  0  0  0  0  0  0  0  0
  -15.9434   -6.3129    0.0000 H   0  0  0  0  0  0  0  0  0  0  0  0
  -16.6982   -8.9013    0.0000 H   0  0  0  0  0  0  0  0  0  0  0  0
  -15.9277   -7.2918    0.0000 H   0  0  0  0  0  0  0  0  0  0  0  0
  -20.1839   -8.4490    0.0000 H   0  0  0  0  0  0  0  0  0  0  0  0
  -19.8182   -7.3610    0.0000 H   0  0  0  0  0  0  0  0  0  0  0  0
  -17.9611  -11.1718    0.0000 H   0  0  0  0  0  0  0  0  0  0  0  0
  -17.1669   -9.7440    0.0000 H   0  0  0  0  0  0  0  0  0  0  0  0
  -21.4232  -10.9011    0.0000 H   0  0  0  0  0  0  0  0  0  0  0  0
  -20.6526   -9.2917    0.0000 H   0  0  0  0  0  0  0  0  0  0  0  0
  -21.2132  -12.8876    0.0000 H   0  0  0  0  0  0  0  0  0  0  0  0
  -19.3908  -13.5180    0.0000 H   0  0  0  0  0  0  0  0  0  0  0  0
  -18.4298  -12.0145    0.0000 H   0  0  0  0  0  0  0  0  0  0  0  0
  -18.7088   -9.1153    0.0000 H   0  0  0  0  0  0  0  0  0  0  0  0
  -20.7017   -6.5702    0.0000 H   0  0  0  0  0  0  0  0  0  0  0  0
  -23.7691   -8.2865    0.0000 H   0  0  0  0  0  0  0  0  0  0  0  0
  -22.5009   -9.3165    0.0000 H   0  0  0  0  0  0  0  0  0  0  0  0
  -22.7184   -4.9323    0.0000 H   0  0  0  0  0  0  0  0  0  0  0  0
  -21.4501   -5.9624    0.0000 H   0  0  0  0  0  0  0  0  0  0  0  0
  -25.7858   -6.6485    0.0000 H   0  0  0  0  0  0  0  0  0  0  0  0
  -24.5176   -7.6786    0.0000 H   0  0  0  0  0  0  0  0  0  0  0  0
  -24.9181   -3.2861    0.0000 H   0  0  0  0  0  0  0  0  0  0  0  0
  -23.4668   -4.3244    0.0000 H   0  0  0  0  0  0  0  0  0  0  0  0
  -26.9108   -3.1479    0.0000 H   0  0  0  0  0  0  0  0  0  0  0  0
  -27.8481   -4.8331    0.0000 H   0  0  0  0  0  0  0  0  0  0  0  0
  -26.5343   -6.0406    0.0000 H   0  0  0  0  0  0  0  0  0  0  0  0
  1  2  1  0
  2  3  1  0
  3  4  2  0
  4  5  1  0
  5  6  2  0
  6  7  1  0
  7  8  2  0
  7  9  1  0
  9 10  1  0
 10 11  1  0
 11 12  2  0
  9 13  1  0
 13 14  1  0
 14 15  2  0
 15 16  1  0
 16 17  2  0
 17 18  1  0
 16 19  1  0
 14 20  1  0
 20 21  1  0
 21 22  2  0
 22 23  1  0
 23 24  2  0
 24 25  1  0
 25 26  2  0
 25 27  1  0
  1 28  2  0
  1 29  1  0
 29 30  1  0
 30 31  1  0
 31 32  1  0
 32 33  2  0
 32 34  1  0
 34 35  1  0
 35 36  1  0
 36 37  1  0
 37 38  1  0
 38 39  1  0
 39 40  1  0
 40 41  2  3
 40 42  1  0
 35 43  1  0
 43 44  2  0
 43 45  1  0
 45 46  1  0
 46 47  1  0
 47 48  1  0
 48 49  1  0
 49 50  1  0
 49 51  2  0
 46 52  1  0
 52 53  2  0
 52 54  1  0
 54 55  1  0
 55 56  1  0
 56 57  1  0
 56 58  1  0
 58 59  1  0
 55 60  1  0
 60 61  2  0
 60 62  1  0
 62 63  1  0
 63 64  1  0
 64 65  1  0
 65 66  1  0
 66 67  1  0
 67 68  1  0
 63 69  1  0
 69 70  2  0
 69 71  1  0
 71 72  1  0
 72 73  1  0
 73 74  1  0
 73 75  1  0
 75 76  1  0
 72 77  1  0
 77 78  2  0
 77 79  1  0
 79 80  1  0
 80 81  1  0
 81 82  1  0
 82 83  2  0
 83 84  1  0
 84 85  1  0
 85 86  2  0
 86 87  1  0
 87 88  2  0
 88 89  1  0
 89 90  2  0
 80 91  1  0
 91 92  2  0
 91 93  1  0
 94 93  1  6
 94 95  1  0
 95 96  1  0
 96 97  1  0
 97 98  1  0
 94 99  1  0
 94100  1  0
100101  2  0
100102  1  0
102103  1  0
103104  1  0
104105  1  0
105106  1  0
106107  1  0
106108  2  0
103109  1  0
109110  2  0
109111  1  0
111112  1  0
112113  1  0
113114  1  0
114115  1  0
114116  2  0
112117  1  0
117118  2  0
117119  1  0
119120  1  0
120121  1  0
121122  1  0
122123  1  0
123124  1  0
124125  1  0
125126  2  3
125127  1  0
120128  1  0
128129  2  0
128130  1  0
130131  1  0
131132  1  0
132133  1  0
133134  1  0
134135  1  0
135136  1  0
136137  2  3
136138  1  0
131139  1  0
139140  2  0
139141  1  0
141142  1  0
142143  1  0
143144  1  0
144145  1  0
145146  1  0
142147  1  0
147148  2  0
147149  1  0
149150  1  0
150151  1  0
151152  1  0
152153  1  0
153154  1  0
154155  1  0
150156  1  0
156157  2  0
156158  1  0
158159  1  0
159160  1  0
160161  1  0
161162  1  0
162163  1  0
163164  1  0
164165  1  0
165166  1  0
159167  1  0
159168  1  1
168169  2  0
168170  1  0
170171  1  0
171172  1  0
172173  1  0
173174  1  0
174175  1  0
175176  1  0
171177  1  0
177178  2  0
177179  1  0
179180  1  0
180181  1  0
181182  1  0
182183  1  0
183184  1  0
184185  1  0
180186  1  0
186187  2  0
186188  1  0
  8  3  1  0
 90 82  1  0
 11  6  1  0
 90 85  1  0
 98166  2  0
 18 13  2  0
 22  9  1  0
 26 21  1  0
  2189  1  0
  4190  1  0
  5191  1  0
  8192  1  0
 15193  1  0
 17194  1  0
 18195  1  0
 19196  1  0
 23197  1  0
 24198  1  0
 26199  1  0
 27200  1  0
 29201  1  0
 30202  1  0
 30203  1  0
 31204  1  0
 31205  1  0
 34206  1  0
 35207  1  1
 36208  1  0
 36209  1  0
 37210  1  0
 37211  1  0
 38212  1  0
 38213  1  0
 39214  1  0
 41215  1  0
 41216  1  0
 42217  1  0
 42218  1  0
 45219  1  0
 46220  1  1
 47221  1  0
 47222  1  0
 48223  1  0
 48224  1  0
 50225  1  0
 50226  1  0
 54227  1  0
 55228  1  1
 56229  1  6
 57230  1  0
 57231  1  0
 57232  1  0
 58233  1  0
 58234  1  0
 59235  1  0
 59236  1  0
 59237  1  0
 62238  1  0
 63239  1  1
 64240  1  0
 64241  1  0
 65242  1  0
 65243  1  0
 66244  1  0
 66245  1  0
 67246  1  0
 67247  1  0
 68248  1  0
 68249  1  0
 68250  1  0
 71251  1  0
 72252  1  1
 73253  1  6
 74254  1  0
 74255  1  0
 74256  1  0
 75257  1  0
 75258  1  0
 76259  1  0
 76260  1  0
 76261  1  0
 79262  1  0
 80263  1  1
 81264  1  0
 81265  1  0
 83266  1  0
 84267  1  0
 86268  1  0
 87269  1  0
 88270  1  0
 89271  1  0
 93272  1  0
 95273  1  0
 95274  1  0
 96275  1  0
 96276  1  0
 97277  1  0
 97278  1  0
 98279  1  0
 99280  1  0
 99281  1  0
 99282  1  0
102283  1  0
103284  1  6
104285  1  0
104286  1  0
105287  1  0
105288  1  0
107289  1  0
107290  1  0
111291  1  0
112292  1  6
113293  1  0
113294  1  0
115295  1  0
115296  1  0
119297  1  0
120298  1  6
121299  1  0
121300  1  0
122301  1  0
122302  1  0
123303  1  0
123304  1  0
124305  1  0
126306  1  0
126307  1  0
127308  1  0
127309  1  0
130310  1  0
131311  1  6
132312  1  0
132313  1  0
133314  1  0
133315  1  0
134316  1  0
134317  1  0
135318  1  0
137319  1  0
137320  1  0
138321  1  0
138322  1  0
141323  1  0
142324  1  6
143325  1  0
143326  1  0
144327  1  0
144328  1  0
146329  1  0
146330  1  0
146331  1  0
149332  1  0
150333  1  6
151334  1  0
151335  1  0
152336  1  0
152337  1  0
153338  1  0
153339  1  0
154340  1  0
154341  1  0
155342  1  0
155343  1  0
155344  1  0
158345  1  0
160346  1  0
160347  1  0
161348  1  0
161349  1  0
162350  1  0
162351  1  0
163352  1  0
163353  1  0
164354  1  0
164355  1  0
165356  1  0
165357  1  0
166358  1  0
167359  1  0
167360  1  0
167361  1  0
170362  1  0
171363  1  1
172364  1  0
172365  1  0
173366  1  0
173367  1  0
174368  1  0
174369  1  0
175370  1  0
175371  1  0
176372  1  0
176373  1  0
176374  1  0
179375  1  0
180376  1  6
181377  1  0
181378  1  0
182379  1  0
182380  1  0
183381  1  0
183382  1  0
184383  1  0
184384  1  0
185385  1  0
185386  1  0
185387  1  0
M  CHG  8  41   1  68   1 126   1 137   1 155   1 176   1 185   1 188  -1
M  END
