
     RDKit          2D

303310  0  0  0  0  0  0  0  0999 V2000
   20.5595   -2.8120    0.0000 C   0  0  0  0  0  0  0  0  0  0  0  0
   21.8831   -2.1063    0.0000 N   0  0  0  0  0  0  0  0  0  0  0  0
   23.1560   -2.8998    0.0000 C   0  0  0  0  0  0  0  0  0  0  0  0
   23.1053   -4.3989    0.0000 C   0  0  0  0  0  0  0  0  0  0  0  0
   24.3783   -5.1924    0.0000 C   0  0  0  0  0  0  0  0  0  0  0  0
   25.7019   -4.4868    0.0000 C   0  0  0  0  0  0  0  0  0  0  0  0
   25.7526   -2.9876    0.0000 C   0  0  0  0  0  0  0  0  0  0  0  0
   24.4797   -2.1941    0.0000 C   0  0  0  0  0  0  0  0  0  0  0  0
   27.1941   -2.5726    0.0000 C   0  0  0  0  0  0  0  0  0  0  0  0
   28.0342   -3.8152    0.0000 O   0  0  0  0  0  0  0  0  0  0  0  0
   27.1120   -4.9982    0.0000 C   0  0  0  0  0  0  0  0  0  0  0  0
   27.5271   -6.4397    0.0000 O   0  0  0  0  0  0  0  0  0  0  0  0
   28.6710   -2.3105    0.0000 C   0  0  0  0  0  0  0  0  0  0  0  0
   29.1825   -0.9004    0.0000 C   0  0  0  0  0  0  0  0  0  0  0  0
   30.6594   -0.6383    0.0000 C   0  0  0  0  0  0  0  0  0  0  0  0
   31.6249   -1.7863    0.0000 C   0  0  0  0  0  0  0  0  0  0  0  0
   31.1134   -3.1964    0.0000 C   0  0  0  0  0  0  0  0  0  0  0  0
   29.6364   -3.4585    0.0000 C   0  0  0  0  0  0  0  0  0  0  0  0
   33.1018   -1.5242    0.0000 O   0  0  0  0  0  0  0  0  0  0  0  0
   28.2170    0.2476    0.0000 O   0  0  0  0  0  0  0  0  0  0  0  0
   26.7401   -0.0145    0.0000 C   0  0  0  0  0  0  0  0  0  0  0  0
   26.2286   -1.4246    0.0000 C   0  0  0  0  0  0  0  0  0  0  0  0
   24.9904   -1.0286    0.0000 C   0  0  0  0  0  0  0  0  0  0  0  0
   24.4755   -0.4163    0.0000 C   0  0  0  0  0  0  0  0  0  0  0  0
   24.7483    0.3357    0.0000 C   0  0  0  0  0  0  0  0  0  0  0  0
   25.5360    0.4755    0.0000 C   0  0  0  0  0  0  0  0  0  0  0  0
   23.3323    2.0195    0.0000 O   0  0  0  0  0  0  0  0  0  0  0  0
   20.5088   -4.3111    0.0000 S   0  0  0  0  0  0  0  0  0  0  0  0
   19.2865   -2.0185    0.0000 N   0  0  0  0  0  0  0  0  0  0  0  0
   17.9629   -2.7242    0.0000 C   0  0  0  0  0  0  0  0  0  0  0  0
   16.6899   -1.9307    0.0000 C   0  0  0  0  0  0  0  0  0  0  0  0
   15.3663   -2.6363    0.0000 C   0  0  0  0  0  0  0  0  0  0  0  0
   15.5329   -3.4159    0.0000 O   0  0  0  0  0  0  0  0  0  0  0  0
   14.0933   -1.8429    0.0000 N   0  0  0  0  0  0  0  0  0  0  0  0
   12.7697   -2.5485    0.0000 C   0  0  0  0  0  0  0  0  0  0  0  0
   13.6945   -3.7295    0.0000 C   0  0  0  0  0  0  0  0  0  0  0  0
   15.1796   -3.5191    0.0000 C   0  0  0  0  0  0  0  0  0  0  0  0
   14.1596   -5.1556    0.0000 C   0  0  0  0  0  0  0  0  0  0  0  0
   15.6271   -5.4658    0.0000 C   0  0  0  0  0  0  0  0  0  0  0  0
   11.2845   -2.7589    0.0000 C   0  0  0  0  0  0  0  0  0  0  0  0
   11.0775   -4.2445    0.0000 O   0  0  0  0  0  0  0  0  0  0  0  0
   10.3597   -1.5779    0.0000 N   0  0  0  0  0  0  0  0  0  0  0  0
    8.8745   -1.7883    0.0000 C   0  0  0  0  0  0  0  0  0  0  0  0
    9.3396   -3.2144    0.0000 C   0  0  0  0  0  0  0  0  0  0  0  0
   10.8072   -3.5246    0.0000 C   0  0  0  0  0  0  0  0  0  0  0  0
   11.2723   -4.9507    0.0000 C   0  0  0  0  0  0  0  0  0  0  0  0
   12.6212   -5.6068    0.0000 N   0  0  0  0  0  0  0  0  0  0  0  0
   10.2698   -6.0665    0.0000 O   0  0  0  0  0  0  0  0  0  0  0  0
    7.4070   -1.4780    0.0000 C   0  0  0  0  0  0  0  0  0  0  0  0
    6.7043   -2.8033    0.0000 O   0  0  0  0  0  0  0  0  0  0  0  0
    6.9419   -0.0520    0.0000 N   0  0  0  0  0  0  0  0  0  0  0  0
    5.4743    0.2583    0.0000 C   0  0  0  0  0  0  0  0  0  0  0  0
    5.4236   -1.2408    0.0000 C   0  0  0  0  0  0  0  0  0  0  0  0
    6.6966   -2.0343    0.0000 C   0  0  0  0  0  0  0  0  0  0  0  0
    6.6459   -3.5335    0.0000 O   0  0  0  0  0  0  0  0  0  0  0  0
    8.1516   -1.6699    0.0000 O   0  0  0  0  0  0  0  0  0  0  0  0
    4.2014    1.0518    0.0000 C   0  0  0  0  0  0  0  0  0  0  0  0
    3.0878    0.0468    0.0000 O   0  0  0  0  0  0  0  0  0  0  0  0
    4.2521    2.5509    0.0000 N   0  0  0  0  0  0  0  0  0  0  0  0
    2.9791    3.3444    0.0000 C   0  0  0  0  0  0  0  0  0  0  0  0
    2.8335    1.8515    0.0000 C   0  0  0  0  0  0  0  0  0  0  0  0
    2.4079    0.4131    0.0000 C   0  0  0  0  0  0  0  0  0  0  0  0
    1.7178   -0.9187    0.0000 C   0  0  0  0  0  0  0  0  0  0  0  0
    0.7881   -2.0958    0.0000 C   0  0  0  0  0  0  0  0  0  0  0  0
    4.2554    4.1326    0.0000 C   0  0  0  0  0  0  0  0  0  0  0  0
    2.8397    4.8379    0.0000 C   0  0  0  0  0  0  0  0  0  0  0  0
    4.2679    5.2962    0.0000 O   0  0  0  0  0  0  0  0  0  0  0  0
    2.4200    6.2780    0.0000 N   0  0  0  0  0  0  0  0  0  0  0  0
    1.7355    7.6127    0.0000 C   0  0  0  0  0  0  0  0  0  0  0  0
    2.3830    8.9657    0.0000 C   0  0  0  0  0  0  0  0  0  0  0  0
    3.8785    9.0815    0.0000 C   0  0  0  0  0  0  0  0  0  0  0  0
    4.5260   10.4346    0.0000 C   0  0  0  0  0  0  0  0  0  0  0  0
    5.3234    8.6788    0.0000 C   0  0  0  0  0  0  0  0  0  0  0  0
    0.8107    8.7937    0.0000 C   0  0  0  0  0  0  0  0  0  0  0  0
    1.7644    9.9514    0.0000 O   0  0  0  0  0  0  0  0  0  0  0  0
   -0.3209    9.7783    0.0000 N   0  0  0  0  0  0  0  0  0  0  0  0
   -1.6184   10.5310    0.0000 C   0  0  0  0  0  0  0  0  0  0  0  0
   -1.8052   12.0193    0.0000 C   0  0  0  0  0  0  0  0  0  0  0  0
   -3.0349   11.0246    0.0000 C   0  0  0  0  0  0  0  0  0  0  0  0
   -2.8585   12.5142    0.0000 O   0  0  0  0  0  0  0  0  0  0  0  0
   -4.5191   11.2411    0.0000 N   0  0  0  0  0  0  0  0  0  0  0  0
   -6.0176   11.1729    0.0000 C   0  0  0  0  0  0  0  0  0  0  0  0
   -6.9794   12.3239    0.0000 C   0  0  0  0  0  0  0  0  0  0  0  0
   -6.4634   13.7324    0.0000 C   0  0  0  0  0  0  0  0  0  0  0  0
   -4.9857   13.9898    0.0000 C   0  0  0  0  0  0  0  0  0  0  0  0
   -4.4697   15.3983    0.0000 C   0  0  0  0  0  0  0  0  0  0  0  0
   -5.4315   16.5493    0.0000 C   0  0  0  0  0  0  0  0  0  0  0  0
   -6.9093   16.2919    0.0000 C   0  0  0  0  0  0  0  0  0  0  0  0
   -7.4252   14.8835    0.0000 C   0  0  0  0  0  0  0  0  0  0  0  0
   -7.4760   10.8222    0.0000 C   0  0  0  0  0  0  0  0  0  0  0  0
   -8.1330   12.1707    0.0000 O   0  0  0  0  0  0  0  0  0  0  0  0
   -8.8418   10.2020    0.0000 N   0  0  0  0  0  0  0  0  0  0  0  0
  -10.0654    9.3344    0.0000 C   0  0  0  0  0  0  0  0  0  0  0  0
  -11.4969    9.7828    0.0000 C   0  0  0  0  0  0  0  0  0  0  0  0
  -11.8243   11.2466    0.0000 C   0  0  0  0  0  0  0  0  0  0  0  0
  -10.7203   12.2621    0.0000 C   0  0  0  0  0  0  0  0  0  0  0  0
  -11.0477   13.7259    0.0000 C   0  0  0  0  0  0  0  0  0  0  0  0
  -12.4792   14.1742    0.0000 C   0  0  0  0  0  0  0  0  0  0  0  0
  -13.5832   13.1588    0.0000 C   0  0  0  0  0  0  0  0  0  0  0  0
  -13.2557   11.6949    0.0000 C   0  0  0  0  0  0  0  0  0  0  0  0
  -11.1028    8.2510    0.0000 C   0  0  0  0  0  0  0  0  0  0  0  0
  -12.3845    9.0302    0.0000 O   0  0  0  0  0  0  0  0  0  0  0  0
  -11.9164    6.9908    0.0000 N   0  0  0  0  0  0  0  0  0  0  0  0
  -12.4768    5.5994    0.0000 C   0  0  0  0  0  0  0  0  0  0  0  0
  -13.9234    5.2027    0.0000 C   0  0  0  0  0  0  0  0  0  0  0  0
  -14.9902    6.2571    0.0000 O   0  0  0  0  0  0  0  0  0  0  0  0
  -12.7637    4.1271    0.0000 C   0  0  0  0  0  0  0  0  0  0  0  0
  -14.2632    4.0897    0.0000 O   0  0  0  0  0  0  0  0  0  0  0  0
  -12.7668    2.6271    0.0000 N   0  0  0  0  0  0  0  0  0  0  0  0
  -12.4860    1.1536    0.0000 C   0  0  0  0  0  0  0  0  0  0  0  0
  -13.4885    0.0378    0.0000 C   0  0  0  0  0  0  0  0  0  0  0  0
  -14.9560    0.3480    0.0000 C   0  0  0  0  0  0  0  0  0  0  0  0
  -15.9585   -0.7678    0.0000 C   0  0  0  0  0  0  0  0  0  0  0  0
  -17.4261   -0.4575    0.0000 N   0  0  0  0  0  0  0  0  0  0  0  0
  -18.4285   -1.5734    0.0000 C   0  0  0  0  0  0  0  0  0  0  0  0
  -19.8961   -1.2631    0.0000 N   0  0  0  0  0  0  0  0  0  0  0  0
  -17.9634   -2.9994    0.0000 N   0  0  0  0  0  0  0  0  0  0  0  0
  -11.9314   -0.2401    0.0000 C   0  0  0  0  0  0  0  0  0  0  0  0
  -13.1727   -1.0823    0.0000 O   0  0  0  0  0  0  0  0  0  0  0  0
  -11.1231   -1.5037    0.0000 N   0  0  0  0  0  0  0  0  0  0  0  0
  -10.0902   -2.5914    0.0000 C   0  0  0  0  0  0  0  0  0  0  0  0
   -8.8701   -3.4640    0.0000 C   0  0  0  0  0  0  0  0  0  0  0  0
   -7.5070   -4.0900    0.0000 C   0  0  0  0  0  0  0  0  0  0  0  0
   -6.0500   -4.4467    0.0000 C   0  0  0  0  0  0  0  0  0  0  0  0
   -4.5518   -4.5211    0.0000 C   0  0  0  0  0  0  0  0  0  0  0  0
   -3.0667   -4.3107    0.0000 C   0  0  0  0  0  0  0  0  0  0  0  0
   -1.6482   -3.8231    0.0000 C   0  0  0  0  0  0  0  0  0  0  0  0
   -0.3476   -3.0758    0.0000 C   0  0  0  0  0  0  0  0  0  0  0  0
  -11.5235   -3.0338    0.0000 C   0  0  0  0  0  0  0  0  0  0  0  0
  -10.3303   -4.0721    0.0000 C   0  0  0  0  0  0  0  0  0  0  0  0
   -9.4320   -5.2734    0.0000 O   0  0  0  0  0  0  0  0  0  0  0  0
  -11.7326   -4.6045    0.0000 N   0  0  0  0  0  0  0  0  0  0  0  0
  -11.9727   -6.0852    0.0000 C   0  0  0  0  0  0  0  0  0  0  0  0
  -11.6918   -7.5586    0.0000 C   0  0  0  0  0  0  0  0  0  0  0  0
  -12.8275   -8.5386    0.0000 C   0  0  0  0  0  0  0  0  0  0  0  0
  -12.5467  -10.0121    0.0000 C   0  0  0  0  0  0  0  0  0  0  0  0
  -14.2298   -9.0710    0.0000 C   0  0  0  0  0  0  0  0  0  0  0  0
  -13.3750   -6.6176    0.0000 C   0  0  0  0  0  0  0  0  0  0  0  0
  -14.5373   -5.6693    0.0000 O   0  0  0  0  0  0  0  0  0  0  0  0
  -13.6151   -8.0983    0.0000 N   0  0  0  0  0  0  0  0  0  0  0  0
  -15.0174   -8.6307    0.0000 C   0  0  0  0  0  0  0  0  0  0  0  0
  -16.5173   -8.6514    0.0000 C   0  0  0  0  0  0  0  0  0  0  0  0
  -17.2851   -7.3628    0.0000 C   0  0  0  0  0  0  0  0  0  0  0  0
  -18.7850   -7.3835    0.0000 C   0  0  0  0  0  0  0  0  0  0  0  0
  -19.5528   -6.0949    0.0000 N   0  0  0  0  0  0  0  0  0  0  0  0
  -19.5170   -8.6927    0.0000 O   0  0  0  0  0  0  0  0  0  0  0  0
  -15.2575  -10.1113    0.0000 C   0  0  0  0  0  0  0  0  0  0  0  0
  -14.2195  -11.1942    0.0000 O   0  0  0  0  0  0  0  0  0  0  0  0
  -16.6598  -10.6438    0.0000 N   0  0  0  0  0  0  0  0  0  0  0  0
  -16.8999  -12.1244    0.0000 C   0  0  0  0  0  0  0  0  0  0  0  0
  -16.6191  -13.5979    0.0000 C   0  0  0  0  0  0  0  0  0  0  0  0
  -17.7547  -14.5778    0.0000 C   0  0  0  0  0  0  0  0  0  0  0  0
  -17.4739  -16.0513    0.0000 N   0  0  0  0  0  0  0  0  0  0  0  0
  -19.2208  -14.2606    0.0000 O   0  0  0  0  0  0  0  0  0  0  0  0
  -18.3022  -12.6568    0.0000 C   0  0  0  0  0  0  0  0  0  0  0  0
  -18.7210  -14.0972    0.0000 O   0  0  0  0  0  0  0  0  0  0  0  0
  -19.4645  -11.7086    0.0000 O   0  0  0  0  0  0  0  0  0  0  0  0
   21.7507   -0.6122    0.0000 H   0  0  0  0  0  0  0  0  0  0  0  0
   21.7817   -5.1046    0.0000 H   0  0  0  0  0  0  0  0  0  0  0  0
   24.3276   -6.6916    0.0000 H   0  0  0  0  0  0  0  0  0  0  0  0
   24.1661   -0.7273    0.0000 H   0  0  0  0  0  0  0  0  0  0  0  0
   31.1709    0.7718    0.0000 H   0  0  0  0  0  0  0  0  0  0  0  0
   32.0788   -4.3444    0.0000 H   0  0  0  0  0  0  0  0  0  0  0  0
   29.1250   -4.8686    0.0000 H   0  0  0  0  0  0  0  0  0  0  0  0
   34.0672   -2.6722    0.0000 H   0  0  0  0  0  0  0  0  0  0  0  0
   24.2402   -3.0968    0.0000 H   0  0  0  0  0  0  0  0  0  0  0  0
   22.2884   -0.6188    0.0000 H   0  0  0  0  0  0  0  0  0  0  0  0
   26.2862    2.5436    0.0000 H   0  0  0  0  0  0  0  0  0  0  0  0
   23.8438    3.4296    0.0000 H   0  0  0  0  0  0  0  0  0  0  0  0
   19.3372   -0.5193    0.0000 H   0  0  0  0  0  0  0  0  0  0  0  0
   18.8877   -3.9052    0.0000 H   0  0  0  0  0  0  0  0  0  0  0  0
   16.9604   -3.8400    0.0000 H   0  0  0  0  0  0  0  0  0  0  0  0
   17.6924   -0.8149    0.0000 H   0  0  0  0  0  0  0  0  0  0  0  0
   15.7651   -0.7497    0.0000 H   0  0  0  0  0  0  0  0  0  0  0  0
   14.1440   -0.3437    0.0000 H   0  0  0  0  0  0  0  0  0  0  0  0
   12.3046   -1.1224    0.0000 H   0  0  0  0  0  0  0  0  0  0  0  0
   12.4667   -4.5913    0.0000 H   0  0  0  0  0  0  0  0  0  0  0  0
   16.2415   -4.5786    0.0000 H   0  0  0  0  0  0  0  0  0  0  0  0
   16.5033   -2.8135    0.0000 H   0  0  0  0  0  0  0  0  0  0  0  0
   15.1181   -2.0248    0.0000 H   0  0  0  0  0  0  0  0  0  0  0  0
   14.2920   -6.6497    0.0000 H   0  0  0  0  0  0  0  0  0  0  0  0
   12.7111   -5.5454    0.0000 H   0  0  0  0  0  0  0  0  0  0  0  0
   16.0922   -6.8919    0.0000 H   0  0  0  0  0  0  0  0  0  0  0  0
   17.1123   -5.2555    0.0000 H   0  0  0  0  0  0  0  0  0  0  0  0
   16.2118   -4.0845    0.0000 H   0  0  0  0  0  0  0  0  0  0  0  0
   10.9201   -0.1865    0.0000 H   0  0  0  0  0  0  0  0  0  0  0  0
    8.9253   -0.2892    0.0000 H   0  0  0  0  0  0  0  0  0  0  0  0
    9.2889   -4.7135    0.0000 H   0  0  0  0  0  0  0  0  0  0  0  0
    7.8545   -3.4248    0.0000 H   0  0  0  0  0  0  0  0  0  0  0  0
   12.2924   -3.3142    0.0000 H   0  0  0  0  0  0  0  0  0  0  0  0
   11.2192   -2.0823    0.0000 H   0  0  0  0  0  0  0  0  0  0  0  0
   13.0689   -6.7501    0.0000 H   0  0  0  0  0  0  0  0  0  0  0  0
   14.0627   -4.4599    0.0000 H   0  0  0  0  0  0  0  0  0  0  0  0
    7.9444    1.0639    0.0000 H   0  0  0  0  0  0  0  0  0  0  0  0
    6.0347    1.6497    0.0000 H   0  0  0  0  0  0  0  0  0  0  0  0
    4.8632   -2.6322    0.0000 H   0  0  0  0  0  0  0  0  0  0  0  0
    3.9561   -0.9306    0.0000 H   0  0  0  0  0  0  0  0  0  0  0  0
    9.3687   -1.8325    0.0000 H   0  0  0  0  0  0  0  0  0  0  0  0
    5.6519    3.0900    0.0000 H   0  0  0  0  0  0  0  0  0  0  0  0
    4.3230    2.0288    0.0000 H   0  0  0  0  0  0  0  0  0  0  0  0
    3.8007    0.7050    0.0000 H   0  0  0  0  0  0  0  0  0  0  0  0
    3.8797    0.1237    0.0000 H   0  0  0  0  0  0  0  0  0  0  0  0
    3.2947   -0.7966    0.0000 H   0  0  0  0  0  0  0  0  0  0  0  0
    3.2175   -0.9456    0.0000 H   0  0  0  0  0  0  0  0  0  0  0  0
    2.3597   -2.2744    0.0000 H   0  0  0  0  0  0  0  0  0  0  0  0
    1.8715   -3.1332    0.0000 H   0  0  0  0  0  0  0  0  0  0  0  0
    5.6529    3.5877    0.0000 H   0  0  0  0  0  0  0  0  0  0  0  0
    5.3216    5.1876    0.0000 H   0  0  0  0  0  0  0  0  0  0  0  0
    3.5582    5.4607    0.0000 H   0  0  0  0  0  0  0  0  0  0  0  0
    3.8710    6.6586    0.0000 H   0  0  0  0  0  0  0  0  0  0  0  0
    3.2267    7.4504    0.0000 H   0  0  0  0  0  0  0  0  0  0  0  0
    2.5287   10.4586    0.0000 H   0  0  0  0  0  0  0  0  0  0  0  0
    1.0784    9.7061    0.0000 H   0  0  0  0  0  0  0  0  0  0  0  0
    4.0984    7.5977    0.0000 H   0  0  0  0  0  0  0  0  0  0  0  0
    5.9963   10.7318    0.0000 H   0  0  0  0  0  0  0  0  0  0  0  0
    4.6717   11.9275    0.0000 H   0  0  0  0  0  0  0  0  0  0  0  0
    3.1409   11.0104    0.0000 H   0  0  0  0  0  0  0  0  0  0  0  0
    6.5147    9.5904    0.0000 H   0  0  0  0  0  0  0  0  0  0  0  0
    6.5435    7.8062    0.0000 H   0  0  0  0  0  0  0  0  0  0  0  0
    4.6759    7.3258    0.0000 H   0  0  0  0  0  0  0  0  0  0  0  0
    0.5517   10.9984    0.0000 H   0  0  0  0  0  0  0  0  0  0  0  0
   -0.3678   11.3593    0.0000 H   0  0  0  0  0  0  0  0  0  0  0  0
   -0.6097   12.9253    0.0000 H   0  0  0  0  0  0  0  0  0  0  0  0
   -2.3220   13.4275    0.0000 H   0  0  0  0  0  0  0  0  0  0  0  0
   -3.3029   11.9369    0.0000 H   0  0  0  0  0  0  0  0  0  0  0  0
   -4.2626   12.7190    0.0000 H   0  0  0  0  0  0  0  0  0  0  0  0
   -5.4133   12.5458    0.0000 H   0  0  0  0  0  0  0  0  0  0  0  0
   -8.1754   13.2292    0.0000 H   0  0  0  0  0  0  0  0  0  0  0  0
   -8.1948   11.4448    0.0000 H   0  0  0  0  0  0  0  0  0  0  0  0
   -3.8907   12.9646    0.0000 H   0  0  0  0  0  0  0  0  0  0  0  0
   -2.9920   15.6557    0.0000 H   0  0  0  0  0  0  0  0  0  0  0  0
   -4.9156   17.9578    0.0000 H   0  0  0  0  0  0  0  0  0  0  0  0
   -7.8711   17.4430    0.0000 H   0  0  0  0  0  0  0  0  0  0  0  0
   -8.9030   14.6261    0.0000 H   0  0  0  0  0  0  0  0  0  0  0  0
   -9.4250   11.5839    0.0000 H   0  0  0  0  0  0  0  0  0  0  0  0
  -10.2994   10.8161    0.0000 H   0  0  0  0  0  0  0  0  0  0  0  0
  -12.9925    9.8977    0.0000 H   0  0  0  0  0  0  0  0  0  0  0  0
  -12.0441    8.3861    0.0000 H   0  0  0  0  0  0  0  0  0  0  0  0
   -9.2449   11.9915    0.0000 H   0  0  0  0  0  0  0  0  0  0  0  0
   -9.9437   14.7414    0.0000 H   0  0  0  0  0  0  0  0  0  0  0  0
  -12.8066   15.6381    0.0000 H   0  0  0  0  0  0  0  0  0  0  0  0
  -15.0146   13.6071    0.0000 H   0  0  0  0  0  0  0  0  0  0  0  0
  -14.3597   10.6795    0.0000 H   0  0  0  0  0  0  0  0  0  0  0  0
  -13.2482    7.6809    0.0000 H   0  0  0  0  0  0  0  0  0  0  0  0
  -13.4746    6.7193    0.0000 H   0  0  0  0  0  0  0  0  0  0  0  0
  -15.2437    4.4907    0.0000 H   0  0  0  0  0  0  0  0  0  0  0  0
  -13.6286    3.7319    0.0000 H   0  0  0  0  0  0  0  0  0  0  0  0
  -16.4368    5.8604    0.0000 H   0  0  0  0  0  0  0  0  0  0  0  0
  -14.2662    2.6707    0.0000 H   0  0  0  0  0  0  0  0  0  0  0  0
  -13.8711    1.7294    0.0000 H   0  0  0  0  0  0  0  0  0  0  0  0
  -14.0488   -1.3536    0.0000 H   0  0  0  0  0  0  0  0  0  0  0  0
  -12.4454   -1.0401    0.0000 H   0  0  0  0  0  0  0  0  0  0  0  0
  -16.2290    1.1415    0.0000 H   0  0  0  0  0  0  0  0  0  0  0  0
  -14.7490    1.8337    0.0000 H   0  0  0  0  0  0  0  0  0  0  0  0
  -16.5189   -2.1592    0.0000 H   0  0  0  0  0  0  0  0  0  0  0  0
  -14.7918   -1.7105    0.0000 H   0  0  0  0  0  0  0  0  0  0  0  0
  -17.8912    0.9685    0.0000 H   0  0  0  0  0  0  0  0  0  0  0  0
  -20.8986   -2.3789    0.0000 H   0  0  0  0  0  0  0  0  0  0  0  0
  -18.8224   -4.2291    0.0000 H   0  0  0  0  0  0  0  0  0  0  0  0
  -16.4959   -3.3097    0.0000 H   0  0  0  0  0  0  0  0  0  0  0  0
  -12.4080   -2.2776    0.0000 H   0  0  0  0  0  0  0  0  0  0  0  0
   -8.8257   -4.9634    0.0000 H   0  0  0  0  0  0  0  0  0  0  0  0
   -9.9837   -4.4690    0.0000 H   0  0  0  0  0  0  0  0  0  0  0  0
   -7.3604   -5.5828    0.0000 H   0  0  0  0  0  0  0  0  0  0  0  0
   -8.4102   -5.2876    0.0000 H   0  0  0  0  0  0  0  0  0  0  0  0
   -5.6236   -5.8848    0.0000 H   0  0  0  0  0  0  0  0  0  0  0  0
   -6.8695   -5.7030    0.0000 H   0  0  0  0  0  0  0  0  0  0  0  0
   -3.8610   -5.8526    0.0000 H   0  0  0  0  0  0  0  0  0  0  0  0
   -5.1188   -5.9099    0.0000 H   0  0  0  0  0  0  0  0  0  0  0  0
   -2.1363   -5.4874    0.0000 H   0  0  0  0  0  0  0  0  0  0  0  0
   -3.3606   -5.7817    0.0000 H   0  0  0  0  0  0  0  0  0  0  0  0
   -0.4010   -4.6566    0.0000 H   0  0  0  0  0  0  0  0  0  0  0  0
   -1.6584   -5.3231    0.0000 H   0  0  0  0  0  0  0  0  0  0  0  0
    0.5200   -4.2994    0.0000 H   0  0  0  0  0  0  0  0  0  0  0  0
  -12.2009   -4.3721    0.0000 H   0  0  0  0  0  0  0  0  0  0  0  0
  -13.0216   -2.9593    0.0000 H   0  0  0  0  0  0  0  0  0  0  0  0
  -12.0648   -1.6349    0.0000 H   0  0  0  0  0  0  0  0  0  0  0  0
  -13.0018   -3.8050    0.0000 H   0  0  0  0  0  0  0  0  0  0  0  0
  -10.4728   -6.0645    0.0000 H   0  0  0  0  0  0  0  0  0  0  0  0
  -10.7727   -8.7440    0.0000 H   0  0  0  0  0  0  0  0  0  0  0  0
  -10.2895   -7.0262    0.0000 H   0  0  0  0  0  0  0  0  0  0  0  0
  -14.1105   -7.7615    0.0000 H   0  0  0  0  0  0  0  0  0  0  0  0
  -13.4115  -11.2377    0.0000 H   0  0  0  0  0  0  0  0  0  0  0  0
  -11.7788  -11.3006    0.0000 H   0  0  0  0  0  0  0  0  0  0  0  0
  -11.0899   -9.6546    0.0000 H   0  0  0  0  0  0  0  0  0  0  0  0
  -15.5870   -8.4322    0.0000 H   0  0  0  0  0  0  0  0  0  0  0  0
  -14.9388  -10.3929    0.0000 H   0  0  0  0  0  0  0  0  0  0  0  0
  -13.6248  -10.4436    0.0000 H   0  0  0  0  0  0  0  0  0  0  0  0
  -12.7168   -9.2996    0.0000 H   0  0  0  0  0  0  0  0  0  0  0  0
  -15.1165   -7.1340    0.0000 H   0  0  0  0  0  0  0  0  0  0  0  0
  -17.9740   -9.0089    0.0000 H   0  0  0  0  0  0  0  0  0  0  0  0
  -16.7833  -10.1276    0.0000 H   0  0  0  0  0  0  0  0  0  0  0  0
  -17.5659   -5.8893    0.0000 H   0  0  0  0  0  0  0  0  0  0  0  0
  -15.9581   -6.6634    0.0000 H   0  0  0  0  0  0  0  0  0  0  0  0
  -21.0527   -6.1156    0.0000 H   0  0  0  0  0  0  0  0  0  0  0  0
  -18.6667   -4.8846    0.0000 H   0  0  0  0  0  0  0  0  0  0  0  0
  -17.9290   -9.8443    0.0000 H   0  0  0  0  0  0  0  0  0  0  0  0
  -15.4000  -12.1037    0.0000 H   0  0  0  0  0  0  0  0  0  0  0  0
  -15.8512  -14.8865    0.0000 H   0  0  0  0  0  0  0  0  0  0  0  0
  -15.2167  -13.0655    0.0000 H   0  0  0  0  0  0  0  0  0  0  0  0
  -18.6096  -17.0313    0.0000 H   0  0  0  0  0  0  0  0  0  0  0  0
  -16.0574  -16.5449    0.0000 H   0  0  0  0  0  0  0  0  0  0  0  0
  -20.8668  -12.2410    0.0000 H   0  0  0  0  0  0  0  0  0  0  0  0
  1  2  1  0
  2  3  1  0
  3  4  2  0
  4  5  1  0
  5  6  2  0
  6  7  1  0
  7  8  2  0
  7  9  1  0
  9 10  1  0
 10 11  1  0
 11 12  2  0
  9 13  1  0
 13 14  1  0
 14 15  2  0
 15 16  1  0
 16 17  2  0
 17 18  1  0
 16 19  1  0
 14 20  1  0
 20 21  1  0
 21 22  2  0
 22 23  1  0
 23 24  2  0
 24 25  1  0
 25 26  2  0
 25 27  1  0
  1 28  2  0
  1 29  1  0
 29 30  1  0
 30 31  1  0
 31 32  1  0
 32 33  2  0
 32 34  1  0
 34 35  1  0
 35 36  1  0
 36 37  1  0
 36 38  1  0
 38 39  1  0
 35 40  1  0
 40 41  2  0
 40 42  1  0
 42 43  1  0
 43 44  1  0
 44 45  1  0
 45 46  1  0
 46 47  1  0
 46 48  2  0
 43 49  1  0
 49 50  2  0
 49 51  1  0
 51 52  1  0
 52 53  1  0
 53 54  1  0
 54 55  2  0
 54 56  1  0
 52 57  1  0
 57 58  2  0
 57 59  1  0
 60 59  1  1
 60 61  1  0
 61 62  1  0
 62 63  1  0
 63 64  1  0
 60 65  1  0
 60 66  1  0
 66 67  2  0
 66 68  1  0
 68 69  1  0
 69 70  1  0
 70 71  1  0
 71 72  1  0
 71 73  1  0
 69 74  1  0
 74 75  2  0
 74 76  1  0
 76 77  1  0
 77 78  1  0
 77 79  1  0
 79 80  2  0
 79 81  1  0
 81 82  1  0
 82 83  1  0
 83 84  1  0
 84 85  2  0
 85 86  1  0
 86 87  2  0
 87 88  1  0
 88 89  2  0
 82 90  1  0
 90 91  2  0
 90 92  1  0
 92 93  1  0
 93 94  1  0
 94 95  1  0
 95 96  2  0
 96 97  1  0
 97 98  2  0
 98 99  1  0
 99100  2  0
 93101  1  0
101102  2  0
101103  1  0
103104  1  0
104105  1  0
105106  1  0
104107  1  0
107108  2  0
107109  1  0
109110  1  0
110111  1  0
111112  1  0
112113  1  0
113114  1  0
114115  1  0
115116  2  3
115117  1  0
110118  1  0
118119  2  0
118120  1  0
120121  1  0
121122  1  0
122123  1  0
123124  1  0
124125  1  0
125126  1  0
126127  1  0
127128  1  0
121129  1  0
121130  1  6
130131  2  0
130132  1  0
132133  1  0
133134  1  0
134135  1  0
135136  1  0
135137  1  0
133138  1  0
138139  2  0
138140  1  0
140141  1  0
141142  1  0
142143  1  0
143144  1  0
144145  1  0
144146  2  0
141147  1  0
147148  2  0
147149  1  0
149150  1  0
150151  1  0
151152  1  0
152153  1  0
152154  2  0
150155  1  0
155156  2  0
155157  1  0
  8  3  1  0
 89 84  1  0
100 95  1  0
 11  6  1  0
 64128  2  0
 18 13  2  0
 22  9  1  0
 26 21  1  0
  2158  1  0
  4159  1  0
  5160  1  0
  8161  1  0
 15162  1  0
 17163  1  0
 18164  1  0
 19165  1  0
 23166  1  0
 24167  1  0
 26168  1  0
 27169  1  0
 29170  1  0
 30171  1  0
 30172  1  0
 31173  1  0
 31174  1  0
 34175  1  0
 35176  1  1
 36177  1  6
 37178  1  0
 37179  1  0
 37180  1  0
 38181  1  0
 38182  1  0
 39183  1  0
 39184  1  0
 39185  1  0
 42186  1  0
 43187  1  1
 44188  1  0
 44189  1  0
 45190  1  0
 45191  1  0
 47192  1  0
 47193  1  0
 51194  1  0
 52195  1  1
 53196  1  0
 53197  1  0
 56198  1  0
 59199  1  0
 61200  1  0
 61201  1  0
 62202  1  0
 62203  1  0
 63204  1  0
 63205  1  0
 64206  1  0
 65207  1  0
 65208  1  0
 65209  1  0
 68210  1  0
 69211  1  6
 70212  1  0
 70213  1  0
 71214  1  0
 72215  1  0
 72216  1  0
 72217  1  0
 73218  1  0
 73219  1  0
 73220  1  0
 76221  1  0
 77222  1  6
 78223  1  0
 78224  1  0
 78225  1  0
 81226  1  0
 82227  1  6
 83228  1  0
 83229  1  0
 85230  1  0
 86231  1  0
 87232  1  0
 88233  1  0
 89234  1  0
 92235  1  0
 93236  1  6
 94237  1  0
 94238  1  0
 96239  1  0
 97240  1  0
 98241  1  0
 99242  1  0
100243  1  0
103244  1  0
104245  1  6
105246  1  0
105247  1  0
106248  1  0
109249  1  0
110250  1  6
111251  1  0
111252  1  0
112253  1  0
112254  1  0
113255  1  0
113256  1  0
114257  1  0
116258  1  0
117259  1  0
117260  1  0
120261  1  0
122262  1  0
122263  1  0
123264  1  0
123265  1  0
124266  1  0
124267  1  0
125268  1  0
125269  1  0
126270  1  0
126271  1  0
127272  1  0
127273  1  0
128274  1  0
129275  1  0
129276  1  0
129277  1  0
132278  1  0
133279  1  1
134280  1  0
134281  1  0
135282  1  0
136283  1  0
136284  1  0
136285  1  0
137286  1  0
137287  1  0
137288  1  0
140289  1  0
141290  1  6
142291  1  0
142292  1  0
143293  1  0
143294  1  0
145295  1  0
145296  1  0
149297  1  0
150298  1  1
151299  1  0
151300  1  0
153301  1  0
153302  1  0
157303  1  0
M  END
