
     RDKit          2D

232234  0  0  0  0  0  0  0  0999 V2000
   10.5583  -10.0656    0.0000 N   0  0  0  0  0  0  0  0  0  0  0  0
   11.3393   -8.7850    0.0000 C   0  0  0  0  0  0  0  0  0  0  0  0
   12.8389   -8.8210    0.0000 C   0  0  0  0  0  0  0  0  0  0  0  0
   13.6198   -7.5403    0.0000 C   0  0  0  0  0  0  0  0  0  0  0  0
   12.9829   -6.6515    0.0000 O   0  0  0  0  0  0  0  0  0  0  0  0
   15.1194   -7.5763    0.0000 N   0  0  0  0  0  0  0  0  0  0  0  0
   15.9717   -8.8106    0.0000 C   0  0  0  0  0  0  0  0  0  0  0  0
   17.4090   -8.3815    0.0000 C   0  0  0  0  0  0  0  0  0  0  0  0
   17.4450   -6.8819    0.0000 C   0  0  0  0  0  0  0  0  0  0  0  0
   16.0300   -6.3843    0.0000 C   0  0  0  0  0  0  0  0  0  0  0  0
   14.7493   -5.6033    0.0000 C   0  0  0  0  0  0  0  0  0  0  0  0
   14.1013   -6.0677    0.0000 O   0  0  0  0  0  0  0  0  0  0  0  0
   14.7853   -4.1038    0.0000 N   0  0  0  0  0  0  0  0  0  0  0  0
   13.5046   -3.3228    0.0000 C   0  0  0  0  0  0  0  0  0  0  0  0
   12.9579   -4.7196    0.0000 C   0  0  0  0  0  0  0  0  0  0  0  0
   13.8942   -5.8915    0.0000 C   0  0  0  0  0  0  0  0  0  0  0  0
   13.3475   -7.2883    0.0000 C   0  0  0  0  0  0  0  0  0  0  0  0
   14.4197   -8.3373    0.0000 O   0  0  0  0  0  0  0  0  0  0  0  0
   11.8481   -7.3308    0.0000 O   0  0  0  0  0  0  0  0  0  0  0  0
   12.5683   -2.1509    0.0000 C   0  0  0  0  0  0  0  0  0  0  0  0
   11.2645   -2.8925    0.0000 O   0  0  0  0  0  0  0  0  0  0  0  0
   13.1150   -0.7541    0.0000 N   0  0  0  0  0  0  0  0  0  0  0  0
   12.1787    0.4178    0.0000 C   0  0  0  0  0  0  0  0  0  0  0  0
   11.4956   -0.9177    0.0000 C   0  0  0  0  0  0  0  0  0  0  0  0
   10.4493   -1.9924    0.0000 C   0  0  0  0  0  0  0  0  0  0  0  0
    9.1326   -2.7110    0.0000 C   0  0  0  0  0  0  0  0  0  0  0  0
    7.6626   -3.0096    0.0000 C   0  0  0  0  0  0  0  0  0  0  0  0
   13.6320    0.7893    0.0000 C   0  0  0  0  0  0  0  0  0  0  0  0
   12.4378    1.8952    0.0000 C   0  0  0  0  0  0  0  0  0  0  0  0
   13.9374    1.8592    0.0000 O   0  0  0  0  0  0  0  0  0  0  0  0
   12.2499    3.3834    0.0000 N   0  0  0  0  0  0  0  0  0  0  0  0
   11.6317    4.7501    0.0000 C   0  0  0  0  0  0  0  0  0  0  0  0
   12.2474    6.1179    0.0000 C   0  0  0  0  0  0  0  0  0  0  0  0
   13.7470    6.0856    0.0000 C   0  0  0  0  0  0  0  0  0  0  0  0
   12.3581    7.6138    0.0000 C   0  0  0  0  0  0  0  0  0  0  0  0
   13.7089    8.2659    0.0000 C   0  0  0  0  0  0  0  0  0  0  0  0
   10.6381    5.8739    0.0000 C   0  0  0  0  0  0  0  0  0  0  0  0
   11.4539    7.1326    0.0000 O   0  0  0  0  0  0  0  0  0  0  0  0
    9.3575    6.6548    0.0000 N   0  0  0  0  0  0  0  0  0  0  0  0
    7.9035    7.0236    0.0000 C   0  0  0  0  0  0  0  0  0  0  0  0
    7.2180    8.3578    0.0000 C   0  0  0  0  0  0  0  0  0  0  0  0
    8.0306    9.6186    0.0000 C   0  0  0  0  0  0  0  0  0  0  0  0
    7.3451   10.9527    0.0000 C   0  0  0  0  0  0  0  0  0  0  0  0
    9.2255   10.5254    0.0000 C   0  0  0  0  0  0  0  0  0  0  0  0
    6.4055    6.9475    0.0000 C   0  0  0  0  0  0  0  0  0  0  0  0
    6.1069    8.4174    0.0000 O   0  0  0  0  0  0  0  0  0  0  0  0
    4.9964    6.4331    0.0000 N   0  0  0  0  0  0  0  0  0  0  0  0
    3.8015    5.5263    0.0000 C   0  0  0  0  0  0  0  0  0  0  0  0
    2.3310    5.8222    0.0000 C   0  0  0  0  0  0  0  0  0  0  0  0
    1.8520    7.2436    0.0000 C   0  0  0  0  0  0  0  0  0  0  0  0
    0.3814    7.5395    0.0000 O   0  0  0  0  0  0  0  0  0  0  0  0
    2.8434    8.3692    0.0000 O   0  0  0  0  0  0  0  0  0  0  0  0
    2.9271    4.3076    0.0000 C   0  0  0  0  0  0  0  0  0  0  0  0
    1.5916    4.9907    0.0000 O   0  0  0  0  0  0  0  0  0  0  0  0
    2.4506    2.8852    0.0000 N   0  0  0  0  0  0  0  0  0  0  0  0
    2.4146    1.3857    0.0000 C   0  0  0  0  0  0  0  0  0  0  0  0
    2.8222   -0.0579    0.0000 C   0  0  0  0  0  0  0  0  0  0  0  0
    3.6372   -1.3172    0.0000 C   0  0  0  0  0  0  0  0  0  0  0  0
    4.7872   -2.2803    0.0000 C   0  0  0  0  0  0  0  0  0  0  0  0
    6.1699   -2.8616    0.0000 C   0  0  0  0  0  0  0  0  0  0  0  0
    1.0626    2.0353    0.0000 C   0  0  0  0  0  0  0  0  0  0  0  0
    1.2665    0.4204    0.0000 C   0  0  0  0  0  0  0  0  0  0  0  0
    1.1631   -1.0760    0.0000 O   0  0  0  0  0  0  0  0  0  0  0  0
   -0.1435    0.9322    0.0000 N   0  0  0  0  0  0  0  0  0  0  0  0
   -1.2917   -0.0331    0.0000 C   0  0  0  0  0  0  0  0  0  0  0  0
   -2.0405   -1.3328    0.0000 C   0  0  0  0  0  0  0  0  0  0  0  0
   -3.5405   -1.3342    0.0000 C   0  0  0  0  0  0  0  0  0  0  0  0
   -4.4211   -2.5486    0.0000 C   0  0  0  0  0  0  0  0  0  0  0  0
   -5.8481   -2.0864    0.0000 N   0  0  0  0  0  0  0  0  0  0  0  0
   -5.8495   -0.5864    0.0000 C   0  0  0  0  0  0  0  0  0  0  0  0
   -4.4233   -0.1215    0.0000 N   0  0  0  0  0  0  0  0  0  0  0  0
   -2.7017    0.4786    0.0000 C   0  0  0  0  0  0  0  0  0  0  0  0
   -2.9636    1.9556    0.0000 O   0  0  0  0  0  0  0  0  0  0  0  0
   -3.8499   -0.4866    0.0000 N   0  0  0  0  0  0  0  0  0  0  0  0
   -5.2599    0.0251    0.0000 C   0  0  0  0  0  0  0  0  0  0  0  0
   -6.4099    0.9882    0.0000 C   0  0  0  0  0  0  0  0  0  0  0  0
   -6.1508    2.4657    0.0000 C   0  0  0  0  0  0  0  0  0  0  0  0
   -6.4081   -0.9401    0.0000 C   0  0  0  0  0  0  0  0  0  0  0  0
   -6.5114   -2.4366    0.0000 O   0  0  0  0  0  0  0  0  0  0  0  0
   -7.8181   -0.4284    0.0000 N   0  0  0  0  0  0  0  0  0  0  0  0
   -8.9663   -1.3937    0.0000 C   0  0  0  0  0  0  0  0  0  0  0  0
   -9.7151   -2.6934    0.0000 C   0  0  0  0  0  0  0  0  0  0  0  0
  -11.2151   -2.6948    0.0000 C   0  0  0  0  0  0  0  0  0  0  0  0
  -11.9639   -3.9945    0.0000 C   0  0  0  0  0  0  0  0  0  0  0  0
  -13.4525   -4.1788    0.0000 N   0  0  0  0  0  0  0  0  0  0  0  0
  -11.2127   -5.2929    0.0000 O   0  0  0  0  0  0  0  0  0  0  0  0
  -10.3763   -0.8819    0.0000 C   0  0  0  0  0  0  0  0  0  0  0  0
  -10.6381    0.5950    0.0000 O   0  0  0  0  0  0  0  0  0  0  0  0
  -11.5245   -1.8472    0.0000 N   0  0  0  0  0  0  0  0  0  0  0  0
  -12.9345   -1.3355    0.0000 C   0  0  0  0  0  0  0  0  0  0  0  0
  -14.0844   -0.3724    0.0000 C   0  0  0  0  0  0  0  0  0  0  0  0
  -13.8253    1.1051    0.0000 C   0  0  0  0  0  0  0  0  0  0  0  0
  -14.9753    2.0682    0.0000 C   0  0  0  0  0  0  0  0  0  0  0  0
  -14.7162    3.5457    0.0000 N   0  0  0  0  0  0  0  0  0  0  0  0
  -15.8662    4.5088    0.0000 C   0  0  0  0  0  0  0  0  0  0  0  0
  -15.6071    5.9862    0.0000 N   0  0  0  0  0  0  0  0  0  0  0  0
  -17.2752    3.9944    0.0000 N   0  0  0  0  0  0  0  0  0  0  0  0
  -14.0826   -2.3007    0.0000 C   0  0  0  0  0  0  0  0  0  0  0  0
  -14.0028   -3.7986    0.0000 O   0  0  0  0  0  0  0  0  0  0  0  0
  -15.4927   -1.7890    0.0000 N   0  0  0  0  0  0  0  0  0  0  0  0
  -16.6408   -2.7542    0.0000 C   0  0  0  0  0  0  0  0  0  0  0  0
  -17.3896   -4.0540    0.0000 C   0  0  0  0  0  0  0  0  0  0  0  0
  -18.8783   -4.2382    0.0000 C   0  0  0  0  0  0  0  0  0  0  0  0
  -18.0508   -2.2425    0.0000 C   0  0  0  0  0  0  0  0  0  0  0  0
  -18.3127   -0.7656    0.0000 O   0  0  0  0  0  0  0  0  0  0  0  0
  -19.1990   -3.2078    0.0000 N   0  0  0  0  0  0  0  0  0  0  0  0
  -20.6090   -2.6960    0.0000 C   0  0  0  0  0  0  0  0  0  0  0  0
  -21.7590   -1.7329    0.0000 C   0  0  0  0  0  0  0  0  0  0  0  0
  -21.4999   -0.2555    0.0000 C   0  0  0  0  0  0  0  0  0  0  0  0
  -22.6499    0.7076    0.0000 S   0  0  0  0  0  0  0  0  0  0  0  0
  -22.3908    2.1851    0.0000 C   0  0  0  0  0  0  0  0  0  0  0  0
  -21.7572   -3.6613    0.0000 C   0  0  0  0  0  0  0  0  0  0  0  0
  -23.2191   -3.3253    0.0000 O   0  0  0  0  0  0  0  0  0  0  0  0
  -21.4954   -5.1383    0.0000 O   0  0  0  0  0  0  0  0  0  0  0  0
    9.0588  -10.0296    0.0000 H   0  0  0  0  0  0  0  0  0  0  0  0
   11.2769  -11.3823    0.0000 H   0  0  0  0  0  0  0  0  0  0  0  0
    9.9425   -8.2382    0.0000 H   0  0  0  0  0  0  0  0  0  0  0  0
   11.4537   -7.2893    0.0000 H   0  0  0  0  0  0  0  0  0  0  0  0
   12.5430  -10.2915    0.0000 H   0  0  0  0  0  0  0  0  0  0  0  0
   14.0619   -9.6894    0.0000 H   0  0  0  0  0  0  0  0  0  0  0  0
   16.5487  -10.1952    0.0000 H   0  0  0  0  0  0  0  0  0  0  0  0
   14.7524   -9.6844    0.0000 H   0  0  0  0  0  0  0  0  0  0  0  0
   18.9041   -8.2605    0.0000 H   0  0  0  0  0  0  0  0  0  0  0  0
   17.6856   -9.8558    0.0000 H   0  0  0  0  0  0  0  0  0  0  0  0
   17.7920   -5.4226    0.0000 H   0  0  0  0  0  0  0  0  0  0  0  0
   18.9326   -7.0745    0.0000 H   0  0  0  0  0  0  0  0  0  0  0  0
   16.6728   -5.0290    0.0000 H   0  0  0  0  0  0  0  0  0  0  0  0
   16.1020   -3.3852    0.0000 H   0  0  0  0  0  0  0  0  0  0  0  0
   14.4961   -2.1972    0.0000 H   0  0  0  0  0  0  0  0  0  0  0  0
   11.9664   -5.8452    0.0000 H   0  0  0  0  0  0  0  0  0  0  0  0
   11.6773   -3.9386    0.0000 H   0  0  0  0  0  0  0  0  0  0  0  0
   14.9479   -6.9591    0.0000 H   0  0  0  0  0  0  0  0  0  0  0  0
   15.1286   -5.0393    0.0000 H   0  0  0  0  0  0  0  0  0  0  0  0
   14.6144   -0.7116    0.0000 H   0  0  0  0  0  0  0  0  0  0  0  0
   12.9316   -1.3514    0.0000 H   0  0  0  0  0  0  0  0  0  0  0  0
   11.8707   -2.3700    0.0000 H   0  0  0  0  0  0  0  0  0  0  0  0
   11.4539   -3.1063    0.0000 H   0  0  0  0  0  0  0  0  0  0  0  0
   10.7442   -3.4631    0.0000 H   0  0  0  0  0  0  0  0  0  0  0  0
   10.2100   -3.7547    0.0000 H   0  0  0  0  0  0  0  0  0  0  0  0
    8.8002   -4.1737    0.0000 H   0  0  0  0  0  0  0  0  0  0  0  0
    7.7388   -4.5077    0.0000 H   0  0  0  0  0  0  0  0  0  0  0  0
   14.8033   -0.1478    0.0000 H   0  0  0  0  0  0  0  0  0  0  0  0
   14.8706    1.6354    0.0000 H   0  0  0  0  0  0  0  0  0  0  0  0
   13.3629    2.2649    0.0000 H   0  0  0  0  0  0  0  0  0  0  0  0
   13.6935    3.7910    0.0000 H   0  0  0  0  0  0  0  0  0  0  0  0
   13.1207    4.5686    0.0000 H   0  0  0  0  0  0  0  0  0  0  0  0
   10.9259    6.8276    0.0000 H   0  0  0  0  0  0  0  0  0  0  0  0
   14.5400    7.5508    0.0000 H   0  0  0  0  0  0  0  0  0  0  0  0
   15.1937    5.8999    0.0000 H   0  0  0  0  0  0  0  0  0  0  0  0
   13.8122    4.7704    0.0000 H   0  0  0  0  0  0  0  0  0  0  0  0
   11.9505    9.0574    0.0000 H   0  0  0  0  0  0  0  0  0  0  0  0
   10.8584    7.6462    0.0000 H   0  0  0  0  0  0  0  0  0  0  0  0
   13.8196    9.7618    0.0000 H   0  0  0  0  0  0  0  0  0  0  0  0
   15.2013    8.4167    0.0000 H   0  0  0  0  0  0  0  0  0  0  0  0
   14.4537    6.9639    0.0000 H   0  0  0  0  0  0  0  0  0  0  0  0
    9.9389    8.0376    0.0000 H   0  0  0  0  0  0  0  0  0  0  0  0
    8.9738    8.0746    0.0000 H   0  0  0  0  0  0  0  0  0  0  0  0
    6.0014    9.2353    0.0000 H   0  0  0  0  0  0  0  0  0  0  0  0
    5.8392    7.7670    0.0000 H   0  0  0  0  0  0  0  0  0  0  0  0
    9.2472    8.7411    0.0000 H   0  0  0  0  0  0  0  0  0  0  0  0
    7.9980   12.3032    0.0000 H   0  0  0  0  0  0  0  0  0  0  0  0
    6.2445   11.9720    0.0000 H   0  0  0  0  0  0  0  0  0  0  0  0
    6.0486   10.1983    0.0000 H   0  0  0  0  0  0  0  0  0  0  0  0
    9.2204   12.0254    0.0000 H   0  0  0  0  0  0  0  0  0  0  0  0
   10.6584   10.9689    0.0000 H   0  0  0  0  0  0  0  0  0  0  0  0
    9.9110    9.1912    0.0000 H   0  0  0  0  0  0  0  0  0  0  0  0
    4.2778    7.7498    0.0000 H   0  0  0  0  0  0  0  0  0  0  0  0
    3.4664    6.9884    0.0000 H   0  0  0  0  0  0  0  0  0  0  0  0
    0.8480    5.5972    0.0000 H   0  0  0  0  0  0  0  0  0  0  0  0
    1.9332    4.3759    0.0000 H   0  0  0  0  0  0  0  0  0  0  0  0
    0.9732    3.1443    0.0000 H   0  0  0  0  0  0  0  0  0  0  0  0
    2.0096   -1.3187    0.0000 H   0  0  0  0  0  0  0  0  0  0  0  0
    1.3291   -0.2013    0.0000 H   0  0  0  0  0  0  0  0  0  0  0  0
    3.0593   -2.7013    0.0000 H   0  0  0  0  0  0  0  0  0  0  0  0
    2.2527   -1.8943    0.0000 H   0  0  0  0  0  0  0  0  0  0  0  0
    4.8260   -3.7798    0.0000 H   0  0  0  0  0  0  0  0  0  0  0  0
    3.5259   -3.0922    0.0000 H   0  0  0  0  0  0  0  0  0  0  0  0
    5.8012   -4.3156    0.0000 H   0  0  0  0  0  0  0  0  0  0  0  0
   -0.3439    1.5140    0.0000 H   0  0  0  0  0  0  0  0  0  0  0  0
    0.1528    3.2279    0.0000 H   0  0  0  0  0  0  0  0  0  0  0  0
    1.6162    3.4294    0.0000 H   0  0  0  0  0  0  0  0  0  0  0  0
   -0.5835    2.3662    0.0000 H   0  0  0  0  0  0  0  0  0  0  0  0
   -0.1418   -0.9962    0.0000 H   0  0  0  0  0  0  0  0  0  0  0  0
   -2.2996   -2.8103    0.0000 H   0  0  0  0  0  0  0  0  0  0  0  0
   -0.6305   -1.8445    0.0000 H   0  0  0  0  0  0  0  0  0  0  0  0
   -3.9562   -3.9747    0.0000 H   0  0  0  0  0  0  0  0  0  0  0  0
   -7.0608   -2.9692    0.0000 H   0  0  0  0  0  0  0  0  0  0  0  0
   -7.1621    0.1396    0.0000 H   0  0  0  0  0  0  0  0  0  0  0  0
   -3.9532   -1.9831    0.0000 H   0  0  0  0  0  0  0  0  0  0  0  0
   -4.3583    1.2239    0.0000 H   0  0  0  0  0  0  0  0  0  0  0  0
   -7.7470    1.6680    0.0000 H   0  0  0  0  0  0  0  0  0  0  0  0
   -7.5748    0.0433    0.0000 H   0  0  0  0  0  0  0  0  0  0  0  0
   -7.3007    3.4288    0.0000 H   0  0  0  0  0  0  0  0  0  0  0  0
   -5.4020    3.7654    0.0000 H   0  0  0  0  0  0  0  0  0  0  0  0
   -4.6889    2.1296    0.0000 H   0  0  0  0  0  0  0  0  0  0  0  0
   -8.2580    1.0056    0.0000 H   0  0  0  0  0  0  0  0  0  0  0  0
   -7.8163   -2.3568    0.0000 H   0  0  0  0  0  0  0  0  0  0  0  0
   -9.9742   -4.1709    0.0000 H   0  0  0  0  0  0  0  0  0  0  0  0
   -8.3051   -3.2051    0.0000 H   0  0  0  0  0  0  0  0  0  0  0  0
  -12.6251   -2.1831    0.0000 H   0  0  0  0  0  0  0  0  0  0  0  0
  -11.6801   -1.2687    0.0000 H   0  0  0  0  0  0  0  0  0  0  0  0
  -14.2127   -5.2957    0.0000 H   0  0  0  0  0  0  0  0  0  0  0  0
  -14.5508   -2.9261    0.0000 H   0  0  0  0  0  0  0  0  0  0  0  0
  -11.6278   -3.3436    0.0000 H   0  0  0  0  0  0  0  0  0  0  0  0
  -12.0328   -0.1367    0.0000 H   0  0  0  0  0  0  0  0  0  0  0  0
  -15.4945    0.1394    0.0000 H   0  0  0  0  0  0  0  0  0  0  0  0
  -15.1255   -1.4523    0.0000 H   0  0  0  0  0  0  0  0  0  0  0  0
  -13.0765    2.4048    0.0000 H   0  0  0  0  0  0  0  0  0  0  0  0
  -12.3635    0.7691    0.0000 H   0  0  0  0  0  0  0  0  0  0  0  0
  -16.3853    2.5799    0.0000 H   0  0  0  0  0  0  0  0  0  0  0  0
  -15.8769    0.8694    0.0000 H   0  0  0  0  0  0  0  0  0  0  0  0
  -13.3071    4.0600    0.0000 H   0  0  0  0  0  0  0  0  0  0  0  0
  -16.7570    6.9493    0.0000 H   0  0  0  0  0  0  0  0  0  0  0  0
  -14.1980    6.5006    0.0000 H   0  0  0  0  0  0  0  0  0  0  0  0
  -18.4252    4.9576    0.0000 H   0  0  0  0  0  0  0  0  0  0  0  0
  -17.5343    2.5170    0.0000 H   0  0  0  0  0  0  0  0  0  0  0  0
  -15.9326   -0.3550    0.0000 H   0  0  0  0  0  0  0  0  0  0  0  0
  -15.4909   -3.7174    0.0000 H   0  0  0  0  0  0  0  0  0  0  0  0
  -17.6487   -5.5314    0.0000 H   0  0  0  0  0  0  0  0  0  0  0  0
  -15.9796   -4.5657    0.0000 H   0  0  0  0  0  0  0  0  0  0  0  0
  -19.6384   -5.3551    0.0000 H   0  0  0  0  0  0  0  0  0  0  0  0
  -20.2996   -3.5436    0.0000 H   0  0  0  0  0  0  0  0  0  0  0  0
  -19.3546   -2.6293    0.0000 H   0  0  0  0  0  0  0  0  0  0  0  0
  -19.1192   -4.7056    0.0000 H   0  0  0  0  0  0  0  0  0  0  0  0
  -19.7074   -1.4973    0.0000 H   0  0  0  0  0  0  0  0  0  0  0  0
  -23.1690   -1.2212    0.0000 H   0  0  0  0  0  0  0  0  0  0  0  0
  -22.6606   -2.9317    0.0000 H   0  0  0  0  0  0  0  0  0  0  0  0
  -20.5983    0.9433    0.0000 H   0  0  0  0  0  0  0  0  0  0  0  0
  -20.0380   -0.5915    0.0000 H   0  0  0  0  0  0  0  0  0  0  0  0
  -23.5407    3.1482    0.0000 H   0  0  0  0  0  0  0  0  0  0  0  0
  -21.6420    3.4848    0.0000 H   0  0  0  0  0  0  0  0  0  0  0  0
  -20.9289    1.8491    0.0000 H   0  0  0  0  0  0  0  0  0  0  0  0
  1  2  1  0
  2  3  1  0
  3  4  1  0
  4  5  2  0
  4  6  1  0
  6  7  1  0
  7  8  1  0
  8  9  1  0
  9 10  1  0
 10 11  1  0
 11 12  2  0
 11 13  1  0
 13 14  1  0
 14 15  1  0
 15 16  1  0
 16 17  1  0
 17 18  2  0
 17 19  1  0
 14 20  1  0
 20 21  2  0
 20 22  1  0
 23 22  1  1
 23 24  1  0
 24 25  1  0
 25 26  1  0
 26 27  1  0
 23 28  1  0
 23 29  1  0
 29 30  2  0
 29 31  1  0
 31 32  1  0
 32 33  1  0
 33 34  1  0
 33 35  1  0
 35 36  1  0
 32 37  1  0
 37 38  2  0
 37 39  1  0
 39 40  1  0
 40 41  1  0
 41 42  1  0
 42 43  1  0
 42 44  1  0
 40 45  1  0
 45 46  2  0
 45 47  1  0
 47 48  1  0
 48 49  1  0
 49 50  1  0
 50 51  2  0
 50 52  1  0
 48 53  1  0
 53 54  2  0
 53 55  1  0
 55 56  1  0
 56 57  1  0
 57 58  1  0
 58 59  1  0
 59 60  1  0
 56 61  1  0
 56 62  1  1
 62 63  2  0
 62 64  1  0
 64 65  1  0
 65 66  1  0
 66 67  1  0
 67 68  2  0
 68 69  1  0
 69 70  1  0
 70 71  2  0
 65 72  1  0
 72 73  2  0
 72 74  1  0
 74 75  1  0
 75 76  1  0
 76 77  1  0
 75 78  1  0
 78 79  2  0
 78 80  1  0
 80 81  1  0
 81 82  1  0
 82 83  1  0
 83 84  1  0
 84 85  1  0
 84 86  2  0
 81 87  1  0
 87 88  2  0
 87 89  1  0
 89 90  1  0
 90 91  1  0
 91 92  1  0
 92 93  1  0
 93 94  1  0
 94 95  1  0
 95 96  2  3
 95 97  1  0
 90 98  1  0
 98 99  2  0
 98100  1  0
100101  1  0
101102  1  0
102103  1  0
101104  1  0
104105  2  0
104106  1  0
106107  1  0
107108  1  0
108109  1  0
109110  1  0
110111  1  0
107112  1  0
112113  2  0
112114  1  0
 10  6  1  0
 71 67  1  0
 27 60  2  0
  1115  1  0
  1116  1  0
  2117  1  0
  2118  1  0
  3119  1  0
  3120  1  0
  7121  1  0
  7122  1  0
  8123  1  0
  8124  1  0
  9125  1  0
  9126  1  0
 10127  1  0
 13128  1  0
 14129  1  1
 15130  1  0
 15131  1  0
 16132  1  0
 16133  1  0
 22134  1  0
 24135  1  0
 24136  1  0
 25137  1  0
 25138  1  0
 26139  1  0
 26140  1  0
 27141  1  0
 28142  1  0
 28143  1  0
 28144  1  0
 31145  1  0
 32146  1  6
 33147  1  1
 34148  1  0
 34149  1  0
 34150  1  0
 35151  1  0
 35152  1  0
 36153  1  0
 36154  1  0
 36155  1  0
 39156  1  0
 40157  1  6
 41158  1  0
 41159  1  0
 42160  1  0
 43161  1  0
 43162  1  0
 43163  1  0
 44164  1  0
 44165  1  0
 44166  1  0
 47167  1  0
 48168  1  6
 49169  1  0
 49170  1  0
 55171  1  0
 57172  1  0
 57173  1  0
 58174  1  0
 58175  1  0
 59176  1  0
 59177  1  0
 60178  1  0
 61179  1  0
 61180  1  0
 61181  1  0
 64182  1  0
 65183  1  1
 66184  1  0
 66185  1  0
 68186  1  0
 69187  1  0
 70188  1  0
 74189  1  0
 75190  1  6
 76191  1  0
 76192  1  0
 77193  1  0
 77194  1  0
 77195  1  0
 80196  1  0
 81197  1  1
 82198  1  0
 82199  1  0
 83200  1  0
 83201  1  0
 85202  1  0
 85203  1  0
 89204  1  0
 90205  1  6
 91206  1  0
 91207  1  0
 92208  1  0
 92209  1  0
 93210  1  0
 93211  1  0
 94212  1  0
 96213  1  0
 96214  1  0
 97215  1  0
 97216  1  0
100217  1  0
101218  1  1
102219  1  0
102220  1  0
103221  1  0
103222  1  0
103223  1  0
106224  1  0
107225  1  6
108226  1  0
108227  1  0
109228  1  0
109229  1  0
111230  1  0
111231  1  0
111232  1  0
M  CHG  4  19  -1  52  -1  96   1 114  -1
M  END
