
     RDKit          2D

449455  0  0  0  0  0  0  0  0999 V2000
  -48.0652   -4.4184    0.0000 C   0  0  0  0  0  0  0  0  0  0  0  0
  -49.1660   -5.4373    0.0000 N   0  0  0  0  0  0  0  0  0  0  0  0
  -50.5988   -4.9935    0.0000 C   0  0  0  0  0  0  0  0  0  0  0  0
  -50.9308   -3.5307    0.0000 C   0  0  0  0  0  0  0  0  0  0  0  0
  -52.3637   -3.0868    0.0000 C   0  0  0  0  0  0  0  0  0  0  0  0
  -53.4645   -4.1058    0.0000 C   0  0  0  0  0  0  0  0  0  0  0  0
  -53.1324   -5.5686    0.0000 C   0  0  0  0  0  0  0  0  0  0  0  0
  -51.6996   -6.0124    0.0000 C   0  0  0  0  0  0  0  0  0  0  0  0
  -54.4210   -6.3364    0.0000 C   0  0  0  0  0  0  0  0  0  0  0  0
  -55.5495   -5.3481    0.0000 O   0  0  0  0  0  0  0  0  0  0  0  0
  -54.9583   -3.9695    0.0000 C   0  0  0  0  0  0  0  0  0  0  0  0
  -55.7261   -2.6809    0.0000 O   0  0  0  0  0  0  0  0  0  0  0  0
  -55.7828   -6.9653    0.0000 C   0  0  0  0  0  0  0  0  0  0  0  0
  -55.9191   -8.4591    0.0000 C   0  0  0  0  0  0  0  0  0  0  0  0
  -57.2809   -9.0880    0.0000 C   0  0  0  0  0  0  0  0  0  0  0  0
  -58.5064   -8.2231    0.0000 C   0  0  0  0  0  0  0  0  0  0  0  0
  -58.3702   -6.7293    0.0000 C   0  0  0  0  0  0  0  0  0  0  0  0
  -57.0084   -6.1004    0.0000 C   0  0  0  0  0  0  0  0  0  0  0  0
  -59.8682   -8.8520    0.0000 O   0  0  0  0  0  0  0  0  0  0  0  0
  -54.6935   -9.3240    0.0000 O   0  0  0  0  0  0  0  0  0  0  0  0
  -53.3318   -8.6951    0.0000 C   0  0  0  0  0  0  0  0  0  0  0  0
  -53.1955   -7.2013    0.0000 C   0  0  0  0  0  0  0  0  0  0  0  0
  -51.8973   -7.2695    0.0000 C   0  0  0  0  0  0  0  0  0  0  0  0
  -51.2437   -7.7307    0.0000 C   0  0  0  0  0  0  0  0  0  0  0  0
  -51.3163   -8.5274    0.0000 C   0  0  0  0  0  0  0  0  0  0  0  0
  -52.0426   -8.8629    0.0000 C   0  0  0  0  0  0  0  0  0  0  0  0
  -49.5189   -9.7959    0.0000 O   0  0  0  0  0  0  0  0  0  0  0  0
  -48.3972   -2.9556    0.0000 S   0  0  0  0  0  0  0  0  0  0  0  0
  -46.6324   -4.8622    0.0000 N   0  0  0  0  0  0  0  0  0  0  0  0
  -45.5316   -3.8433    0.0000 C   0  0  0  0  0  0  0  0  0  0  0  0
  -44.0987   -4.2871    0.0000 C   0  0  0  0  0  0  0  0  0  0  0  0
  -42.9979   -3.2682    0.0000 C   0  0  0  0  0  0  0  0  0  0  0  0
  -43.3300   -1.8054    0.0000 O   0  0  0  0  0  0  0  0  0  0  0  0
  -41.5651   -3.7121    0.0000 N   0  0  0  0  0  0  0  0  0  0  0  0
  -40.4643   -2.6931    0.0000 C   0  0  0  0  0  0  0  0  0  0  0  0
  -39.7784   -1.3591    0.0000 C   0  0  0  0  0  0  0  0  0  0  0  0
  -38.4059   -0.7540    0.0000 O   0  0  0  0  0  0  0  0  0  0  0  0
  -39.0315   -3.1370    0.0000 C   0  0  0  0  0  0  0  0  0  0  0  0
  -38.6995   -4.5998    0.0000 O   0  0  0  0  0  0  0  0  0  0  0  0
  -37.9307   -2.1180    0.0000 N   0  0  0  0  0  0  0  0  0  0  0  0
  -36.4979   -2.5619    0.0000 C   0  0  0  0  0  0  0  0  0  0  0  0
  -35.3032   -3.4690    0.0000 C   0  0  0  0  0  0  0  0  0  0  0  0
  -35.4915   -4.9572    0.0000 C   0  0  0  0  0  0  0  0  0  0  0  0
  -34.2969   -5.8643    0.0000 C   0  0  0  0  0  0  0  0  0  0  0  0
  -34.4852   -7.3524    0.0000 O   0  0  0  0  0  0  0  0  0  0  0  0
  -32.9140   -5.2833    0.0000 O   0  0  0  0  0  0  0  0  0  0  0  0
  -35.3971   -1.5429    0.0000 C   0  0  0  0  0  0  0  0  0  0  0  0
  -35.7291   -0.0801    0.0000 O   0  0  0  0  0  0  0  0  0  0  0  0
  -33.9642   -1.9868    0.0000 N   0  0  0  0  0  0  0  0  0  0  0  0
  -32.8634   -0.9678    0.0000 C   0  0  0  0  0  0  0  0  0  0  0  0
  -32.1775    0.3661    0.0000 C   0  0  0  0  0  0  0  0  0  0  0  0
  -30.6793    0.4391    0.0000 C   0  0  0  0  0  0  0  0  0  0  0  0
  -29.9934    1.7731    0.0000 C   0  0  0  0  0  0  0  0  0  0  0  0
  -28.7961    1.9797    0.0000 O   0  0  0  0  0  0  0  0  0  0  0  0
  -30.8057    3.0341    0.0000 O   0  0  0  0  0  0  0  0  0  0  0  0
  -31.4306   -1.4117    0.0000 C   0  0  0  0  0  0  0  0  0  0  0  0
  -31.0986   -2.8745    0.0000 O   0  0  0  0  0  0  0  0  0  0  0  0
  -30.3298   -0.3928    0.0000 N   0  0  0  0  0  0  0  0  0  0  0  0
  -28.8970   -0.8366    0.0000 C   0  0  0  0  0  0  0  0  0  0  0  0
  -27.7024   -1.7438    0.0000 C   0  0  0  0  0  0  0  0  0  0  0  0
  -27.8907   -3.2319    0.0000 C   0  0  0  0  0  0  0  0  0  0  0  0
  -26.6960   -4.1390    0.0000 C   0  0  0  0  0  0  0  0  0  0  0  0
  -28.5766   -4.5659    0.0000 C   0  0  0  0  0  0  0  0  0  0  0  0
  -27.7962    0.1823    0.0000 C   0  0  0  0  0  0  0  0  0  0  0  0
  -27.9187    1.3911    0.0000 O   0  0  0  0  0  0  0  0  0  0  0  0
  -26.3633   -0.2615    0.0000 N   0  0  0  0  0  0  0  0  0  0  0  0
  -25.2625    0.7574    0.0000 C   0  0  0  0  0  0  0  0  0  0  0  0
  -24.5766    2.0914    0.0000 C   0  0  0  0  0  0  0  0  0  0  0  0
  -23.0985    2.3465    0.0000 C   0  0  0  0  0  0  0  0  0  0  0  0
  -23.8297    0.3136    0.0000 C   0  0  0  0  0  0  0  0  0  0  0  0
  -23.4977   -1.1492    0.0000 O   0  0  0  0  0  0  0  0  0  0  0  0
  -22.7289    1.3325    0.0000 N   0  0  0  0  0  0  0  0  0  0  0  0
  -21.2961    0.8887    0.0000 C   0  0  0  0  0  0  0  0  0  0  0  0
  -20.1015   -0.0185    0.0000 C   0  0  0  0  0  0  0  0  0  0  0  0
  -20.1953    1.9076    0.0000 C   0  0  0  0  0  0  0  0  0  0  0  0
  -20.5273    3.3704    0.0000 O   0  0  0  0  0  0  0  0  0  0  0  0
  -18.7625    1.4637    0.0000 N   0  0  0  0  0  0  0  0  0  0  0  0
  -17.6617    2.4827    0.0000 C   0  0  0  0  0  0  0  0  0  0  0  0
  -16.9757    3.8167    0.0000 C   0  0  0  0  0  0  0  0  0  0  0  0
  -15.4775    3.8896    0.0000 C   0  0  0  0  0  0  0  0  0  0  0  0
  -14.7916    5.2236    0.0000 C   0  0  0  0  0  0  0  0  0  0  0  0
  -13.5943    5.4302    0.0000 O   0  0  0  0  0  0  0  0  0  0  0  0
  -15.6039    6.4846    0.0000 O   0  0  0  0  0  0  0  0  0  0  0  0
  -16.2288    2.0388    0.0000 C   0  0  0  0  0  0  0  0  0  0  0  0
  -15.8968    0.5760    0.0000 O   0  0  0  0  0  0  0  0  0  0  0  0
  -15.1280    3.0578    0.0000 N   0  0  0  0  0  0  0  0  0  0  0  0
  -13.6952    2.6139    0.0000 C   0  0  0  0  0  0  0  0  0  0  0  0
  -12.5006    1.7068    0.0000 C   0  0  0  0  0  0  0  0  0  0  0  0
  -12.5944    3.6329    0.0000 C   0  0  0  0  0  0  0  0  0  0  0  0
  -12.7169    4.8417    0.0000 O   0  0  0  0  0  0  0  0  0  0  0  0
  -11.1616    3.1890    0.0000 N   0  0  0  0  0  0  0  0  0  0  0  0
  -10.0608    4.2080    0.0000 C   0  0  0  0  0  0  0  0  0  0  0  0
   -9.3749    5.5419    0.0000 C   0  0  0  0  0  0  0  0  0  0  0  0
   -7.8766    5.6149    0.0000 C   0  0  0  0  0  0  0  0  0  0  0  0
   -7.0550    6.8699    0.0000 C   0  0  0  0  0  0  0  0  0  0  0  0
   -5.6076    6.4763    0.0000 N   0  0  0  0  0  0  0  0  0  0  0  0
   -5.5346    4.9781    0.0000 C   0  0  0  0  0  0  0  0  0  0  0  0
   -6.9370    4.4457    0.0000 N   0  0  0  0  0  0  0  0  0  0  0  0
   -8.6279    3.7641    0.0000 C   0  0  0  0  0  0  0  0  0  0  0  0
   -8.4767    2.2717    0.0000 O   0  0  0  0  0  0  0  0  0  0  0  0
   -7.5271    4.7830    0.0000 N   0  0  0  0  0  0  0  0  0  0  0  0
   -6.0943    4.3392    0.0000 C   0  0  0  0  0  0  0  0  0  0  0  0
   -5.4790    2.9712    0.0000 C   0  0  0  0  0  0  0  0  0  0  0  0
   -4.4878    1.8453    0.0000 C   0  0  0  0  0  0  0  0  0  0  0  0
   -3.2088    1.0616    0.0000 C   0  0  0  0  0  0  0  0  0  0  0  0
   -1.7557    0.6898    0.0000 C   0  0  0  0  0  0  0  0  0  0  0  0
   -7.2177    3.3452    0.0000 C   0  0  0  0  0  0  0  0  0  0  0  0
   -6.2790    5.8278    0.0000 C   0  0  0  0  0  0  0  0  0  0  0  0
   -7.6648    6.4018    0.0000 O   0  0  0  0  0  0  0  0  0  0  0  0
   -6.0168    7.3047    0.0000 N   0  0  0  0  0  0  0  0  0  0  0  0
   -5.3309    8.6387    0.0000 C   0  0  0  0  0  0  0  0  0  0  0  0
   -5.8772   10.0356    0.0000 C   0  0  0  0  0  0  0  0  0  0  0  0
   -4.9406   11.2072    0.0000 C   0  0  0  0  0  0  0  0  0  0  0  0
   -5.4869   12.6042    0.0000 C   0  0  0  0  0  0  0  0  0  0  0  0
   -3.7644   12.1382    0.0000 C   0  0  0  0  0  0  0  0  0  0  0  0
   -4.2822    9.7112    0.0000 C   0  0  0  0  0  0  0  0  0  0  0  0
   -4.8701   11.0912    0.0000 O   0  0  0  0  0  0  0  0  0  0  0  0
   -2.9641   10.4270    0.0000 N   0  0  0  0  0  0  0  0  0  0  0  0
   -1.4934   10.7225    0.0000 C   0  0  0  0  0  0  0  0  0  0  0  0
   -0.7419   12.0206    0.0000 C   0  0  0  0  0  0  0  0  0  0  0  0
   -1.4903   13.3205    0.0000 S   0  0  0  0  0  0  0  0  0  0  0  0
   -0.0011   10.5713    0.0000 C   0  0  0  0  0  0  0  0  0  0  0  0
    0.3708   12.0245    0.0000 O   0  0  0  0  0  0  0  0  0  0  0  0
    1.3804    9.9870    0.0000 N   0  0  0  0  0  0  0  0  0  0  0  0
    2.5284    9.0214    0.0000 C   0  0  0  0  0  0  0  0  0  0  0  0
    4.0119    9.2432    0.0000 C   0  0  0  0  0  0  0  0  0  0  0  0
    5.4818    8.9443    0.0000 O   0  0  0  0  0  0  0  0  0  0  0  0
    4.5616   10.6389    0.0000 C   0  0  0  0  0  0  0  0  0  0  0  0
    3.3407    7.7604    0.0000 C   0  0  0  0  0  0  0  0  0  0  0  0
    4.7087    8.3757    0.0000 O   0  0  0  0  0  0  0  0  0  0  0  0
    3.7452    6.3160    0.0000 N   0  0  0  0  0  0  0  0  0  0  0  0
    3.7060    4.8165    0.0000 C   0  0  0  0  0  0  0  0  0  0  0  0
    3.2266    3.3952    0.0000 C   0  0  0  0  0  0  0  0  0  0  0  0
    2.3495    2.1784    0.0000 C   0  0  0  0  0  0  0  0  0  0  0  0
    1.1527    1.2741    0.0000 C   0  0  0  0  0  0  0  0  0  0  0  0
   -0.2574    0.7627    0.0000 C   0  0  0  0  0  0  0  0  0  0  0  0
    5.0889    5.3975    0.0000 C   0  0  0  0  0  0  0  0  0  0  0  0
    4.8044    3.7949    0.0000 C   0  0  0  0  0  0  0  0  0  0  0  0
    4.8326    2.2952    0.0000 O   0  0  0  0  0  0  0  0  0  0  0  0
    6.2382    4.2354    0.0000 N   0  0  0  0  0  0  0  0  0  0  0  0
    7.3366    3.2138    0.0000 C   0  0  0  0  0  0  0  0  0  0  0  0
    8.0193    1.8782    0.0000 C   0  0  0  0  0  0  0  0  0  0  0  0
    7.2040    0.6191    0.0000 C   0  0  0  0  0  0  0  0  0  0  0  0
    7.8867   -0.7165    0.0000 C   0  0  0  0  0  0  0  0  0  0  0  0
    6.0072   -0.2852    0.0000 C   0  0  0  0  0  0  0  0  0  0  0  0
    8.7705    3.6542    0.0000 C   0  0  0  0  0  0  0  0  0  0  0  0
    9.1060    5.1162    0.0000 O   0  0  0  0  0  0  0  0  0  0  0  0
    9.8688    2.6326    0.0000 N   0  0  0  0  0  0  0  0  0  0  0  0
   11.3027    3.0730    0.0000 C   0  0  0  0  0  0  0  0  0  0  0  0
   12.4995    3.9773    0.0000 C   0  0  0  0  0  0  0  0  0  0  0  0
   13.8810    3.3930    0.0000 C   0  0  0  0  0  0  0  0  0  0  0  0
   15.0778    4.2973    0.0000 C   0  0  0  0  0  0  0  0  0  0  0  0
   16.5202    3.8857    0.0000 O   0  0  0  0  0  0  0  0  0  0  0  0
   14.8931    5.7859    0.0000 O   0  0  0  0  0  0  0  0  0  0  0  0
   12.4011    2.0515    0.0000 C   0  0  0  0  0  0  0  0  0  0  0  0
   12.0655    0.5895    0.0000 O   0  0  0  0  0  0  0  0  0  0  0  0
   13.8350    2.4919    0.0000 N   0  0  0  0  0  0  0  0  0  0  0  0
   14.9333    1.4703    0.0000 C   0  0  0  0  0  0  0  0  0  0  0  0
   15.6160    0.1347    0.0000 C   0  0  0  0  0  0  0  0  0  0  0  0
   14.8007   -1.1244    0.0000 C   0  0  0  0  0  0  0  0  0  0  0  0
   15.4834   -2.4600    0.0000 N   0  0  0  0  0  0  0  0  0  0  0  0
   13.3027   -1.0478    0.0000 O   0  0  0  0  0  0  0  0  0  0  0  0
   16.3672    1.9107    0.0000 C   0  0  0  0  0  0  0  0  0  0  0  0
   16.8785    3.3209    0.0000 O   0  0  0  0  0  0  0  0  0  0  0  0
   17.4656    0.8891    0.0000 N   0  0  0  0  0  0  0  0  0  0  0  0
   18.8995    1.3295    0.0000 C   0  0  0  0  0  0  0  0  0  0  0  0
   20.0962    2.2338    0.0000 C   0  0  0  0  0  0  0  0  0  0  0  0
   19.9978    0.3080    0.0000 C   0  0  0  0  0  0  0  0  0  0  0  0
   19.6623   -1.1540    0.0000 O   0  0  0  0  0  0  0  0  0  0  0  0
   21.4317    0.7484    0.0000 N   0  0  0  0  0  0  0  0  0  0  0  0
   22.5300   -0.2732    0.0000 C   0  0  0  0  0  0  0  0  0  0  0  0
   23.2128   -1.6088    0.0000 C   0  0  0  0  0  0  0  0  0  0  0  0
   22.2500   -2.7591    0.0000 C   0  0  0  0  0  0  0  0  0  0  0  0
   24.3111   -2.6304    0.0000 C   0  0  0  0  0  0  0  0  0  0  0  0
   23.9756   -4.0924    0.0000 C   0  0  0  0  0  0  0  0  0  0  0  0
   23.9639    0.1672    0.0000 C   0  0  0  0  0  0  0  0  0  0  0  0
   24.2995    1.6292    0.0000 O   0  0  0  0  0  0  0  0  0  0  0  0
   25.0623   -0.8544    0.0000 N   0  0  0  0  0  0  0  0  0  0  0  0
   26.4962   -0.4139    0.0000 C   0  0  0  0  0  0  0  0  0  0  0  0
   27.6930    0.4903    0.0000 C   0  0  0  0  0  0  0  0  0  0  0  0
   29.0745   -0.0940    0.0000 C   0  0  0  0  0  0  0  0  0  0  0  0
   30.2713    0.8103    0.0000 C   0  0  0  0  0  0  0  0  0  0  0  0
   31.7137    0.3987    0.0000 N   0  0  0  0  0  0  0  0  0  0  0  0
   30.0865    2.2989    0.0000 O   0  0  0  0  0  0  0  0  0  0  0  0
   27.5945   -1.4355    0.0000 C   0  0  0  0  0  0  0  0  0  0  0  0
   27.2590   -2.8975    0.0000 O   0  0  0  0  0  0  0  0  0  0  0  0
   29.0284   -0.9951    0.0000 N   0  0  0  0  0  0  0  0  0  0  0  0
   30.1268   -2.0167    0.0000 C   0  0  0  0  0  0  0  0  0  0  0  0
   30.8095   -3.3523    0.0000 C   0  0  0  0  0  0  0  0  0  0  0  0
   29.9942   -4.6114    0.0000 C   0  0  0  0  0  0  0  0  0  0  0  0
   30.6769   -5.9470    0.0000 O   0  0  0  0  0  0  0  0  0  0  0  0
   28.4961   -4.5348    0.0000 O   0  0  0  0  0  0  0  0  0  0  0  0
   31.5607   -1.5763    0.0000 C   0  0  0  0  0  0  0  0  0  0  0  0
   32.0719   -0.1661    0.0000 O   0  0  0  0  0  0  0  0  0  0  0  0
   32.6590   -2.5978    0.0000 N   0  0  0  0  0  0  0  0  0  0  0  0
   34.0929   -2.1574    0.0000 C   0  0  0  0  0  0  0  0  0  0  0  0
   35.2897   -1.2532    0.0000 C   0  0  0  0  0  0  0  0  0  0  0  0
   36.1050    0.0059    0.0000 O   0  0  0  0  0  0  0  0  0  0  0  0
   36.7321   -1.6647    0.0000 C   0  0  0  0  0  0  0  0  0  0  0  0
   35.1913   -3.1790    0.0000 C   0  0  0  0  0  0  0  0  0  0  0  0
   34.8557   -4.6410    0.0000 O   0  0  0  0  0  0  0  0  0  0  0  0
   36.6251   -2.7386    0.0000 N   0  0  0  0  0  0  0  0  0  0  0  0
   37.7235   -3.7602    0.0000 C   0  0  0  0  0  0  0  0  0  0  0  0
   38.4062   -5.0958    0.0000 C   0  0  0  0  0  0  0  0  0  0  0  0
   37.5909   -6.3549    0.0000 C   0  0  0  0  0  0  0  0  0  0  0  0
   39.1574   -3.3198    0.0000 C   0  0  0  0  0  0  0  0  0  0  0  0
   39.4929   -1.8578    0.0000 O   0  0  0  0  0  0  0  0  0  0  0  0
   40.2557   -4.3413    0.0000 N   0  0  0  0  0  0  0  0  0  0  0  0
   41.6896   -3.9009    0.0000 C   0  0  0  0  0  0  0  0  0  0  0  0
   42.8864   -2.9966    0.0000 C   0  0  0  0  0  0  0  0  0  0  0  0
   44.2679   -3.5810    0.0000 C   0  0  0  0  0  0  0  0  0  0  0  0
   45.4647   -2.6767    0.0000 C   0  0  0  0  0  0  0  0  0  0  0  0
   46.8462   -3.2610    0.0000 N   0  0  0  0  0  0  0  0  0  0  0  0
   48.0430   -2.3567    0.0000 C   0  0  0  0  0  0  0  0  0  0  0  0
   49.3430   -3.1051    0.0000 N   0  0  0  0  0  0  0  0  0  0  0  0
   47.8583   -0.8681    0.0000 N   0  0  0  0  0  0  0  0  0  0  0  0
   42.7880   -4.9225    0.0000 C   0  0  0  0  0  0  0  0  0  0  0  0
   42.4524   -6.3845    0.0000 O   0  0  0  0  0  0  0  0  0  0  0  0
   44.2219   -4.4821    0.0000 N   0  0  0  0  0  0  0  0  0  0  0  0
   45.3202   -5.5037    0.0000 C   0  0  0  0  0  0  0  0  0  0  0  0
   46.0029   -6.8393    0.0000 C   0  0  0  0  0  0  0  0  0  0  0  0
   45.1876   -8.0983    0.0000 C   0  0  0  0  0  0  0  0  0  0  0  0
   45.8703   -9.4340    0.0000 C   0  0  0  0  0  0  0  0  0  0  0  0
   45.0550  -10.6930    0.0000 O   0  0  0  0  0  0  0  0  0  0  0  0
   47.3684   -9.5105    0.0000 O   0  0  0  0  0  0  0  0  0  0  0  0
   46.7541   -5.0632    0.0000 C   0  0  0  0  0  0  0  0  0  0  0  0
   47.4334   -3.7259    0.0000 O   0  0  0  0  0  0  0  0  0  0  0  0
   47.8525   -6.0848    0.0000 N   0  0  0  0  0  0  0  0  0  0  0  0
   49.2864   -5.6444    0.0000 C   0  0  0  0  0  0  0  0  0  0  0  0
   50.4831   -4.7401    0.0000 C   0  0  0  0  0  0  0  0  0  0  0  0
   51.8647   -5.3244    0.0000 C   0  0  0  0  0  0  0  0  0  0  0  0
   53.0614   -4.4202    0.0000 C   0  0  0  0  0  0  0  0  0  0  0  0
   54.4430   -5.0045    0.0000 N   0  0  0  0  0  0  0  0  0  0  0  0
   52.8767   -2.9316    0.0000 O   0  0  0  0  0  0  0  0  0  0  0  0
   50.3847   -6.6660    0.0000 C   0  0  0  0  0  0  0  0  0  0  0  0
   51.8616   -6.4036    0.0000 O   0  0  0  0  0  0  0  0  0  0  0  0
   50.0492   -8.1280    0.0000 O   0  0  0  0  0  0  0  0  0  0  0  0
  -48.6581   -6.8487    0.0000 H   0  0  0  0  0  0  0  0  0  0  0  0
  -49.8300   -2.5117    0.0000 H   0  0  0  0  0  0  0  0  0  0  0  0
  -52.6957   -1.6240    0.0000 H   0  0  0  0  0  0  0  0  0  0  0  0
  -51.0235   -7.3514    0.0000 H   0  0  0  0  0  0  0  0  0  0  0  0
  -57.4171  -10.5818    0.0000 H   0  0  0  0  0  0  0  0  0  0  0  0
  -59.5957   -5.8644    0.0000 H   0  0  0  0  0  0  0  0  0  0  0  0
  -56.8721   -4.6066    0.0000 H   0  0  0  0  0  0  0  0  0  0  0  0
  -61.0938   -7.9871    0.0000 H   0  0  0  0  0  0  0  0  0  0  0  0
  -51.6975   -5.0786    0.0000 H   0  0  0  0  0  0  0  0  0  0  0  0
  -49.1799   -6.9790    0.0000 H   0  0  0  0  0  0  0  0  0  0  0  0
  -52.2425  -11.0538    0.0000 H   0  0  0  0  0  0  0  0  0  0  0  0
  -49.6551  -11.2897    0.0000 H   0  0  0  0  0  0  0  0  0  0  0  0
  -46.3003   -6.3250    0.0000 H   0  0  0  0  0  0  0  0  0  0  0  0
  -44.8456   -2.5093    0.0000 H   0  0  0  0  0  0  0  0  0  0  0  0
  -46.7262   -2.9362    0.0000 H   0  0  0  0  0  0  0  0  0  0  0  0
  -42.9041   -5.1943    0.0000 H   0  0  0  0  0  0  0  0  0  0  0  0
  -44.7847   -5.6211    0.0000 H   0  0  0  0  0  0  0  0  0  0  0  0
  -41.2331   -5.1748    0.0000 H   0  0  0  0  0  0  0  0  0  0  0  0
  -41.6589   -1.7860    0.0000 H   0  0  0  0  0  0  0  0  0  0  0  0
  -39.5901    0.1290    0.0000 H   0  0  0  0  0  0  0  0  0  0  0  0
  -41.2112   -0.9153    0.0000 H   0  0  0  0  0  0  0  0  0  0  0  0
  -37.5943    0.0478    0.0000 H   0  0  0  0  0  0  0  0  0  0  0  0
  -38.0819   -0.6257    0.0000 H   0  0  0  0  0  0  0  0  0  0  0  0
  -37.3413   -3.8023    0.0000 H   0  0  0  0  0  0  0  0  0  0  0  0
  -33.9352   -4.0842    0.0000 H   0  0  0  0  0  0  0  0  0  0  0  0
  -34.3149   -2.3406    0.0000 H   0  0  0  0  0  0  0  0  0  0  0  0
  -36.1775   -6.2911    0.0000 H   0  0  0  0  0  0  0  0  0  0  0  0
  -36.9678   -4.6913    0.0000 H   0  0  0  0  0  0  0  0  0  0  0  0
  -33.4564   -3.3982    0.0000 H   0  0  0  0  0  0  0  0  0  0  0  0
  -34.0580   -0.0607    0.0000 H   0  0  0  0  0  0  0  0  0  0  0  0
  -31.9892    1.8543    0.0000 H   0  0  0  0  0  0  0  0  0  0  0  0
  -33.6103    0.8100    0.0000 H   0  0  0  0  0  0  0  0  0  0  0  0
  -29.2465   -0.0047    0.0000 H   0  0  0  0  0  0  0  0  0  0  0  0
  -30.1468   -0.9632    0.0000 H   0  0  0  0  0  0  0  0  0  0  0  0
  -30.2980    1.1069    0.0000 H   0  0  0  0  0  0  0  0  0  0  0  0
  -29.7404   -2.0770    0.0000 H   0  0  0  0  0  0  0  0  0  0  0  0
  -26.2695   -2.1876    0.0000 H   0  0  0  0  0  0  0  0  0  0  0  0
  -26.7140   -0.6154    0.0000 H   0  0  0  0  0  0  0  0  0  0  0  0
  -29.3669   -2.9660    0.0000 H   0  0  0  0  0  0  0  0  0  0  0  0
  -26.7015   -5.6390    0.0000 H   0  0  0  0  0  0  0  0  0  0  0  0
  -25.2632   -4.5829    0.0000 H   0  0  0  0  0  0  0  0  0  0  0  0
  -25.8526   -2.8986    0.0000 H   0  0  0  0  0  0  0  0  0  0  0  0
  -27.9240   -5.9165    0.0000 H   0  0  0  0  0  0  0  0  0  0  0  0
  -29.6774   -5.5848    0.0000 H   0  0  0  0  0  0  0  0  0  0  0  0
  -29.7712   -3.6587    0.0000 H   0  0  0  0  0  0  0  0  0  0  0  0
  -25.8555   -1.6729    0.0000 H   0  0  0  0  0  0  0  0  0  0  0  0
  -26.4572    1.6646    0.0000 H   0  0  0  0  0  0  0  0  0  0  0  0
  -24.3883    3.5795    0.0000 H   0  0  0  0  0  0  0  0  0  0  0  0
  -26.0095    2.5353    0.0000 H   0  0  0  0  0  0  0  0  0  0  0  0
  -22.3925    3.4984    0.0000 H   0  0  0  0  0  0  0  0  0  0  0  0
  -21.6456    1.7205    0.0000 H   0  0  0  0  0  0  0  0  0  0  0  0
  -22.5459    0.7621    0.0000 H   0  0  0  0  0  0  0  0  0  0  0  0
  -22.8802    2.8249    0.0000 H   0  0  0  0  0  0  0  0  0  0  0  0
  -21.9820   -0.4453    0.0000 H   0  0  0  0  0  0  0  0  0  0  0  0
  -20.2898   -1.5066    0.0000 H   0  0  0  0  0  0  0  0  0  0  0  0
  -18.7334   -0.6337    0.0000 H   0  0  0  0  0  0  0  0  0  0  0  0
  -19.1131    1.1099    0.0000 H   0  0  0  0  0  0  0  0  0  0  0  0
  -18.2546    0.0523    0.0000 H   0  0  0  0  0  0  0  0  0  0  0  0
  -18.8563    3.3898    0.0000 H   0  0  0  0  0  0  0  0  0  0  0  0
  -16.7874    5.3048    0.0000 H   0  0  0  0  0  0  0  0  0  0  0  0
  -18.4086    4.2605    0.0000 H   0  0  0  0  0  0  0  0  0  0  0  0
  -14.0447    3.4458    0.0000 H   0  0  0  0  0  0  0  0  0  0  0  0
  -14.9450    2.4874    0.0000 H   0  0  0  0  0  0  0  0  0  0  0  0
  -15.0962    4.5574    0.0000 H   0  0  0  0  0  0  0  0  0  0  0  0
  -14.3811    1.2799    0.0000 H   0  0  0  0  0  0  0  0  0  0  0  0
  -12.6889    0.2186    0.0000 H   0  0  0  0  0  0  0  0  0  0  0  0
  -11.1325    1.0916    0.0000 H   0  0  0  0  0  0  0  0  0  0  0  0
  -11.5123    2.8352    0.0000 H   0  0  0  0  0  0  0  0  0  0  0  0
  -10.6537    1.7776    0.0000 H   0  0  0  0  0  0  0  0  0  0  0  0
  -11.2554    5.1151    0.0000 H   0  0  0  0  0  0  0  0  0  0  0  0
   -9.1866    7.0301    0.0000 H   0  0  0  0  0  0  0  0  0  0  0  0
  -10.8077    5.9858    0.0000 H   0  0  0  0  0  0  0  0  0  0  0  0
   -7.9109    8.1017    0.0000 H   0  0  0  0  0  0  0  0  0  0  0  0
   -4.4384    7.4160    0.0000 H   0  0  0  0  0  0  0  0  0  0  0  0
   -4.2796    4.1565    0.0000 H   0  0  0  0  0  0  0  0  0  0  0  0
   -7.6784    6.2754    0.0000 H   0  0  0  0  0  0  0  0  0  0  0  0
   -6.9681    2.7901    0.0000 H   0  0  0  0  0  0  0  0  0  0  0  0
   -6.0976    1.6047    0.0000 H   0  0  0  0  0  0  0  0  0  0  0  0
   -5.7725    1.0710    0.0000 H   0  0  0  0  0  0  0  0  0  0  0  0
   -4.8561    0.3912    0.0000 H   0  0  0  0  0  0  0  0  0  0  0  0
   -4.3371    0.0732    0.0000 H   0  0  0  0  0  0  0  0  0  0  0  0
   -2.9501   -0.4159    0.0000 H   0  0  0  0  0  0  0  0  0  0  0  0
   -1.9068   -0.8026    0.0000 H   0  0  0  0  0  0  0  0  0  0  0  0
   -7.0057    1.6928    0.0000 H   0  0  0  0  0  0  0  0  0  0  0  0
   -8.2945    2.3613    0.0000 H   0  0  0  0  0  0  0  0  0  0  0  0
   -8.2508    4.1639    0.0000 H   0  0  0  0  0  0  0  0  0  0  0  0
   -7.3691    7.9538    0.0000 H   0  0  0  0  0  0  0  0  0  0  0  0
   -6.8289    8.7152    0.0000 H   0  0  0  0  0  0  0  0  0  0  0  0
   -6.9982   11.0323    0.0000 H   0  0  0  0  0  0  0  0  0  0  0  0
   -7.2437    9.4170    0.0000 H   0  0  0  0  0  0  0  0  0  0  0  0
   -3.7064   10.3547    0.0000 H   0  0  0  0  0  0  0  0  0  0  0  0
   -4.7001   13.8813    0.0000 H   0  0  0  0  0  0  0  0  0  0  0  0
   -6.4781   13.7301    0.0000 H   0  0  0  0  0  0  0  0  0  0  0  0
   -6.8534   11.9856    0.0000 H   0  0  0  0  0  0  0  0  0  0  0  0
   -3.5122   13.4806    0.0000 H   0  0  0  0  0  0  0  0  0  0  0  0
   -2.2185   12.4743    0.0000 H   0  0  0  0  0  0  0  0  0  0  0  0
   -2.7916   10.7646    0.0000 H   0  0  0  0  0  0  0  0  0  0  0  0
   -3.2997   11.8890    0.0000 H   0  0  0  0  0  0  0  0  0  0  0  0
   -2.2125   12.0389    0.0000 H   0  0  0  0  0  0  0  0  0  0  0  0
    0.4083   12.9834    0.0000 H   0  0  0  0  0  0  0  0  0  0  0  0
    0.6056   11.3615    0.0000 H   0  0  0  0  0  0  0  0  0  0  0  0
   -0.7388   14.6187    0.0000 H   0  0  0  0  0  0  0  0  0  0  0  0
    2.1641   11.2660    0.0000 H   0  0  0  0  0  0  0  0  0  0  0  0
    2.7574   10.5039    0.0000 H   0  0  0  0  0  0  0  0  0  0  0  0
    4.3367    7.7788    0.0000 H   0  0  0  0  0  0  0  0  0  0  0  0
    6.6052    9.9382    0.0000 H   0  0  0  0  0  0  0  0  0  0  0  0
    6.0070   11.0399    0.0000 H   0  0  0  0  0  0  0  0  0  0  0  0
    4.6007   12.1384    0.0000 H   0  0  0  0  0  0  0  0  0  0  0  0
    3.1391   11.1148    0.0000 H   0  0  0  0  0  0  0  0  0  0  0  0
    5.2338    6.5007    0.0000 H   0  0  0  0  0  0  0  0  0  0  0  0
    3.9750    2.0953    0.0000 H   0  0  0  0  0  0  0  0  0  0  0  0
    4.7106    3.1772    0.0000 H   0  0  0  0  0  0  0  0  0  0  0  0
    2.8573    0.7669    0.0000 H   0  0  0  0  0  0  0  0  0  0  0  0
    3.7034    1.5326    0.0000 H   0  0  0  0  0  0  0  0  0  0  0  0
    1.0388   -0.2216    0.0000 H   0  0  0  0  0  0  0  0  0  0  0  0
    2.3717    0.4000    0.0000 H   0  0  0  0  0  0  0  0  0  0  0  0
    0.0380   -0.7079    0.0000 H   0  0  0  0  0  0  0  0  0  0  0  0
    6.4675    4.8064    0.0000 H   0  0  0  0  0  0  0  0  0  0  0  0
    6.0573    6.5430    0.0000 H   0  0  0  0  0  0  0  0  0  0  0  0
    4.6059    6.8176    0.0000 H   0  0  0  0  0  0  0  0  0  0  0  0
    6.7495    5.6456    0.0000 H   0  0  0  0  0  0  0  0  0  0  0  0
    6.0385    2.4621    0.0000 H   0  0  0  0  0  0  0  0  0  0  0  0
    9.1177    0.8566    0.0000 H   0  0  0  0  0  0  0  0  0  0  0  0
    9.3993    2.4660    0.0000 H   0  0  0  0  0  0  0  0  0  0  0  0
    5.9893    1.4992    0.0000 H   0  0  0  0  0  0  0  0  0  0  0  0
    7.2309   -2.0656    0.0000 H   0  0  0  0  0  0  0  0  0  0  0  0
    8.9850   -1.7381    0.0000 H   0  0  0  0  0  0  0  0  0  0  0  0
    9.1848    0.0351    0.0000 H   0  0  0  0  0  0  0  0  0  0  0  0
    6.0091   -1.7852    0.0000 H   0  0  0  0  0  0  0  0  0  0  0  0
    4.5733   -0.7256    0.0000 H   0  0  0  0  0  0  0  0  0  0  0  0
    5.3245    1.0505    0.0000 H   0  0  0  0  0  0  0  0  0  0  0  0
    9.7140    1.1406    0.0000 H   0  0  0  0  0  0  0  0  0  0  0  0
   10.6200    4.4087    0.0000 H   0  0  0  0  0  0  0  0  0  0  0  0
   13.3148    5.2364    0.0000 H   0  0  0  0  0  0  0  0  0  0  0  0
   11.4012    4.9989    0.0000 H   0  0  0  0  0  0  0  0  0  0  0  0
   14.9794    2.3714    0.0000 H   0  0  0  0  0  0  0  0  0  0  0  0
   13.7524    1.8985    0.0000 H   0  0  0  0  0  0  0  0  0  0  0  0
   14.5143    3.8292    0.0000 H   0  0  0  0  0  0  0  0  0  0  0  0
   13.7365    0.5660    0.0000 H   0  0  0  0  0  0  0  0  0  0  0  0
   16.5817   -1.0132    0.0000 H   0  0  0  0  0  0  0  0  0  0  0  0
   16.9961    0.7225    0.0000 H   0  0  0  0  0  0  0  0  0  0  0  0
   14.6681   -3.7191    0.0000 H   0  0  0  0  0  0  0  0  0  0  0  0
   16.9815   -2.5366    0.0000 H   0  0  0  0  0  0  0  0  0  0  0  0
   17.3107   -0.6029    0.0000 H   0  0  0  0  0  0  0  0  0  0  0  0
   18.2167    2.6652    0.0000 H   0  0  0  0  0  0  0  0  0  0  0  0
   21.5954    2.1835    0.0000 H   0  0  0  0  0  0  0  0  0  0  0  0
   20.9116    3.4929    0.0000 H   0  0  0  0  0  0  0  0  0  0  0  0
   18.9979    3.2554    0.0000 H   0  0  0  0  0  0  0  0  0  0  0  0
   21.9429    2.1586    0.0000 H   0  0  0  0  0  0  0  0  0  0  0  0
   21.2320   -1.0248    0.0000 H   0  0  0  0  0  0  0  0  0  0  0  0
   24.5928   -1.0210    0.0000 H   0  0  0  0  0  0  0  0  0  0  0  0
   22.8979   -4.2939    0.0000 H   0  0  0  0  0  0  0  0  0  0  0  0
   21.2006   -3.7722    0.0000 H   0  0  0  0  0  0  0  0  0  0  0  0
   21.1827   -1.9878    0.0000 H   0  0  0  0  0  0  0  0  0  0  0  0
   25.6926   -3.2147    0.0000 H   0  0  0  0  0  0  0  0  0  0  0  0
   25.4069   -1.6060    0.0000 H   0  0  0  0  0  0  0  0  0  0  0  0
   25.0739   -5.1140    0.0000 H   0  0  0  0  0  0  0  0  0  0  0  0
   23.1603   -5.3514    0.0000 H   0  0  0  0  0  0  0  0  0  0  0  0
   22.4937   -3.8597    0.0000 H   0  0  0  0  0  0  0  0  0  0  0  0
   25.0905   -2.3541    0.0000 H   0  0  0  0  0  0  0  0  0  0  0  0
   25.8135    0.9217    0.0000 H   0  0  0  0  0  0  0  0  0  0  0  0
   28.5083    1.7494    0.0000 H   0  0  0  0  0  0  0  0  0  0  0  0
   26.5946    1.5119    0.0000 H   0  0  0  0  0  0  0  0  0  0  0  0
   30.1728   -1.1156    0.0000 H   0  0  0  0  0  0  0  0  0  0  0  0
   28.9458   -1.5885    0.0000 H   0  0  0  0  0  0  0  0  0  0  0  0
   32.8496    1.1303    0.0000 H   0  0  0  0  0  0  0  0  0  0  0  0
   32.2358   -1.1833    0.0000 H   0  0  0  0  0  0  0  0  0  0  0  0
   29.7077    0.3423    0.0000 H   0  0  0  0  0  0  0  0  0  0  0  0
   28.9300   -2.9210    0.0000 H   0  0  0  0  0  0  0  0  0  0  0  0
   31.7751   -4.5002    0.0000 H   0  0  0  0  0  0  0  0  0  0  0  0
   32.1895   -2.7645    0.0000 H   0  0  0  0  0  0  0  0  0  0  0  0
   32.5042   -4.0898    0.0000 H   0  0  0  0  0  0  0  0  0  0  0  0
   33.4102   -0.8218    0.0000 H   0  0  0  0  0  0  0  0  0  0  0  0
   34.1913   -0.2316    0.0000 H   0  0  0  0  0  0  0  0  0  0  0  0
   37.6012    0.1125    0.0000 H   0  0  0  0  0  0  0  0  0  0  0  0
   37.9693   -1.0858    0.0000 H   0  0  0  0  0  0  0  0  0  0  0  0
   37.7696   -2.8590    0.0000 H   0  0  0  0  0  0  0  0  0  0  0  0
   36.5426   -3.3319    0.0000 H   0  0  0  0  0  0  0  0  0  0  0  0
   37.1364   -1.3284    0.0000 H   0  0  0  0  0  0  0  0  0  0  0  0
   36.4254   -4.5118    0.0000 H   0  0  0  0  0  0  0  0  0  0  0  0
   39.3719   -6.2436    0.0000 H   0  0  0  0  0  0  0  0  0  0  0  0
   39.7862   -4.5080    0.0000 H   0  0  0  0  0  0  0  0  0  0  0  0
   38.2736   -7.6905    0.0000 H   0  0  0  0  0  0  0  0  0  0  0  0
   36.3941   -7.2591    0.0000 H   0  0  0  0  0  0  0  0  0  0  0  0
   36.3762   -5.4748    0.0000 H   0  0  0  0  0  0  0  0  0  0  0  0
   40.1009   -5.8333    0.0000 H   0  0  0  0  0  0  0  0  0  0  0  0
   41.0069   -2.5653    0.0000 H   0  0  0  0  0  0  0  0  0  0  0  0
   43.5422   -1.6476    0.0000 H   0  0  0  0  0  0  0  0  0  0  0  0
   41.7881   -1.9751    0.0000 H   0  0  0  0  0  0  0  0  0  0  0  0
   45.3663   -4.6025    0.0000 H   0  0  0  0  0  0  0  0  0  0  0  0
   44.1393   -5.0754    0.0000 H   0  0  0  0  0  0  0  0  0  0  0  0
   46.2800   -1.4176    0.0000 H   0  0  0  0  0  0  0  0  0  0  0  0
   44.4991   -1.5288    0.0000 H   0  0  0  0  0  0  0  0  0  0  0  0
   47.3857   -4.6606    0.0000 H   0  0  0  0  0  0  0  0  0  0  0  0
   50.6213   -2.0368    0.0000 H   0  0  0  0  0  0  0  0  0  0  0  0
   49.4458   -4.4522    0.0000 H   0  0  0  0  0  0  0  0  0  0  0  0
   49.0551    0.0361    0.0000 H   0  0  0  0  0  0  0  0  0  0  0  0
   46.4768   -0.2838    0.0000 H   0  0  0  0  0  0  0  0  0  0  0  0
   44.9012   -3.1447    0.0000 H   0  0  0  0  0  0  0  0  0  0  0  0
   44.0221   -6.2553    0.0000 H   0  0  0  0  0  0  0  0  0  0  0  0
   46.9686   -7.9871    0.0000 H   0  0  0  0  0  0  0  0  0  0  0  0
   47.3830   -6.2515    0.0000 H   0  0  0  0  0  0  0  0  0  0  0  0
   43.9908   -9.0026    0.0000 H   0  0  0  0  0  0  0  0  0  0  0  0
   43.9729   -7.2183    0.0000 H   0  0  0  0  0  0  0  0  0  0  0  0
   47.6976   -7.5768    0.0000 H   0  0  0  0  0  0  0  0  0  0  0  0
   48.6036   -4.3088    0.0000 H   0  0  0  0  0  0  0  0  0  0  0  0
   51.2985   -3.4811    0.0000 H   0  0  0  0  0  0  0  0  0  0  0  0
   49.1702   -4.0147    0.0000 H   0  0  0  0  0  0  0  0  0  0  0  0
   52.9630   -6.3460    0.0000 H   0  0  0  0  0  0  0  0  0  0  0  0
   51.5548   -6.7921    0.0000 H   0  0  0  0  0  0  0  0  0  0  0  0
   55.6397   -4.1002    0.0000 H   0  0  0  0  0  0  0  0  0  0  0  0
   54.6277   -6.4931    0.0000 H   0  0  0  0  0  0  0  0  0  0  0  0
  1  2  1  0
  2  3  1  0
  3  4  2  0
  4  5  1  0
  5  6  2  0
  6  7  1  0
  7  8  2  0
  7  9  1  0
  9 10  1  0
 10 11  1  0
 11 12  2  0
  9 13  1  0
 13 14  1  0
 14 15  2  0
 15 16  1  0
 16 17  2  0
 17 18  1  0
 16 19  1  0
 14 20  1  0
 20 21  1  0
 21 22  2  0
 22 23  1  0
 23 24  2  0
 24 25  1  0
 25 26  2  0
 25 27  1  0
  1 28  2  0
  1 29  1  0
 29 30  1  0
 30 31  1  0
 31 32  1  0
 32 33  2  0
 32 34  1  0
 34 35  1  0
 35 36  1  0
 36 37  1  0
 35 38  1  0
 38 39  2  0
 38 40  1  0
 40 41  1  0
 41 42  1  0
 42 43  1  0
 43 44  1  0
 44 45  2  0
 44 46  1  0
 41 47  1  0
 47 48  2  0
 47 49  1  0
 49 50  1  0
 50 51  1  0
 51 52  1  0
 52 53  1  0
 53 54  2  0
 53 55  1  0
 50 56  1  0
 56 57  2  0
 56 58  1  0
 58 59  1  0
 59 60  1  0
 60 61  1  0
 61 62  1  0
 61 63  1  0
 59 64  1  0
 64 65  2  0
 64 66  1  0
 66 67  1  0
 67 68  1  0
 68 69  1  0
 67 70  1  0
 70 71  2  0
 70 72  1  0
 72 73  1  0
 73 74  1  0
 73 75  1  0
 75 76  2  0
 75 77  1  0
 77 78  1  0
 78 79  1  0
 79 80  1  0
 80 81  1  0
 81 82  2  0
 81 83  1  0
 78 84  1  0
 84 85  2  0
 84 86  1  0
 86 87  1  0
 87 88  1  0
 87 89  1  0
 89 90  2  0
 89 91  1  0
 91 92  1  0
 92 93  1  0
 93 94  1  0
 94 95  2  0
 95 96  1  0
 96 97  1  0
 97 98  2  0
 92 99  1  0
 99100  2  0
 99101  1  0
102101  1  6
102103  1  0
103104  1  0
104105  1  0
105106  1  0
102107  1  0
102108  1  0
108109  2  0
108110  1  0
110111  1  0
111112  1  0
112113  1  0
113114  1  0
113115  1  0
111116  1  0
116117  2  0
116118  1  0
118119  1  0
119120  1  0
120121  1  0
119122  1  0
122123  2  0
122124  1  0
124125  1  0
125126  1  0
126127  1  0
126128  1  0
125129  1  0
129130  2  0
129131  1  0
131132  1  0
132133  1  0
133134  1  0
134135  1  0
135136  1  0
132137  1  0
132138  1  6
138139  2  0
138140  1  0
140141  1  0
141142  1  0
142143  1  0
143144  1  0
143145  1  0
141146  1  0
146147  2  0
146148  1  0
148149  1  0
149150  1  0
150151  1  0
151152  1  0
152153  2  0
152154  1  0
149155  1  0
155156  2  0
155157  1  0
157158  1  0
158159  1  0
159160  1  0
160161  1  0
160162  2  0
158163  1  0
163164  2  0
163165  1  0
165166  1  0
166167  1  0
166168  1  0
168169  2  0
168170  1  0
170171  1  0
171172  1  0
172173  1  0
172174  1  0
174175  1  0
171176  1  0
176177  2  0
176178  1  0
178179  1  0
179180  1  0
180181  1  0
181182  1  0
182183  1  0
182184  2  0
179185  1  0
185186  2  0
185187  1  0
187188  1  0
188189  1  0
189190  1  0
190191  2  0
190192  1  0
188193  1  0
193194  2  0
193195  1  0
195196  1  0
196197  1  0
197198  1  0
197199  1  0
196200  1  0
200201  2  0
200202  1  0
202203  1  0
203204  1  0
204205  1  0
203206  1  0
206207  2  0
206208  1  0
208209  1  0
209210  1  0
210211  1  0
211212  1  0
212213  1  0
213214  1  0
214215  2  3
214216  1  0
209217  1  0
217218  2  0
217219  1  0
219220  1  0
220221  1  0
221222  1  0
222223  1  0
223224  2  0
223225  1  0
220226  1  0
226227  2  0
226228  1  0
228229  1  0
229230  1  0
230231  1  0
231232  1  0
232233  1  0
232234  2  0
229235  1  0
235236  2  0
235237  1  0
  8  3  1  0
 98 94  1  0
 11  6  1  0
 18 13  2  0
106136  2  0
 22  9  1  0
 26 21  1  0
  2238  1  0
  4239  1  0
  5240  1  0
  8241  1  0
 15242  1  0
 17243  1  0
 18244  1  0
 19245  1  0
 23246  1  0
 24247  1  0
 26248  1  0
 27249  1  0
 29250  1  0
 30251  1  0
 30252  1  0
 31253  1  0
 31254  1  0
 34255  1  0
 35256  1  1
 36257  1  0
 36258  1  0
 37259  1  0
 40260  1  0
 41261  1  6
 42262  1  0
 42263  1  0
 43264  1  0
 43265  1  0
 49266  1  0
 50267  1  1
 51268  1  0
 51269  1  0
 52270  1  0
 52271  1  0
 58272  1  0
 59273  1  6
 60274  1  0
 60275  1  0
 61276  1  0
 62277  1  0
 62278  1  0
 62279  1  0
 63280  1  0
 63281  1  0
 63282  1  0
 66283  1  0
 67284  1  1
 68285  1  0
 68286  1  0
 69287  1  0
 69288  1  0
 69289  1  0
 72290  1  0
 73291  1  6
 74292  1  0
 74293  1  0
 74294  1  0
 77295  1  0
 78296  1  1
 79297  1  0
 79298  1  0
 80299  1  0
 80300  1  0
 86301  1  0
 87302  1  6
 88303  1  0
 88304  1  0
 88305  1  0
 91306  1  0
 92307  1  1
 93308  1  0
 93309  1  0
 95310  1  0
 96311  1  0
 97312  1  0
101313  1  0
103314  1  0
103315  1  0
104316  1  0
104317  1  0
105318  1  0
105319  1  0
106320  1  0
107321  1  0
107322  1  0
107323  1  0
110324  1  0
111325  1  1
112326  1  0
112327  1  0
113328  1  0
114329  1  0
114330  1  0
114331  1  0
115332  1  0
115333  1  0
115334  1  0
118335  1  0
119336  1  1
120337  1  0
120338  1  0
121339  1  0
124340  1  0
125341  1  1
126342  1  6
127343  1  0
128344  1  0
128345  1  0
128346  1  0
131347  1  0
133348  1  0
133349  1  0
134350  1  0
134351  1  0
135352  1  0
135353  1  0
136354  1  0
137355  1  0
137356  1  0
137357  1  0
140358  1  0
141359  1  6
142360  1  0
142361  1  0
143362  1  0
144363  1  0
144364  1  0
144365  1  0
145366  1  0
145367  1  0
145368  1  0
148369  1  0
149370  1  1
150371  1  0
150372  1  0
151373  1  0
151374  1  0
157375  1  0
158376  1  6
159377  1  0
159378  1  0
161379  1  0
161380  1  0
165381  1  0
166382  1  1
167383  1  0
167384  1  0
167385  1  0
170386  1  0
171387  1  6
172388  1  1
173389  1  0
173390  1  0
173391  1  0
174392  1  0
174393  1  0
175394  1  0
175395  1  0
175396  1  0
178397  1  0
179398  1  1
180399  1  0
180400  1  0
181401  1  0
181402  1  0
183403  1  0
183404  1  0
187405  1  0
188406  1  6
189407  1  0
189408  1  0
195409  1  0
196410  1  1
197411  1  1
198412  1  0
199413  1  0
199414  1  0
199415  1  0
202416  1  0
203417  1  6
204418  1  0
204419  1  0
205420  1  0
205421  1  0
205422  1  0
208423  1  0
209424  1  1
210425  1  0
210426  1  0
211427  1  0
211428  1  0
212429  1  0
212430  1  0
213431  1  0
215432  1  0
215433  1  0
216434  1  0
216435  1  0
219436  1  0
220437  1  6
221438  1  0
221439  1  0
222440  1  0
222441  1  0
228442  1  0
229443  1  1
230444  1  0
230445  1  0
231446  1  0
231447  1  0
233448  1  0
233449  1  0
M  CHG  8  46  -1  55  -1  83  -1 154  -1 192  -1 215   1 225  -1 237  -1
M  END
