
     RDKit          2D

283290  0  0  0  0  0  0  0  0999 V2000
  -26.2472    0.2468    0.0000 C   0  0  0  0  0  0  0  0  0  0  0  0
  -27.5415   -0.5113    0.0000 N   0  0  0  0  0  0  0  0  0  0  0  0
  -28.8452    0.2306    0.0000 C   0  0  0  0  0  0  0  0  0  0  0  0
  -28.8546    1.7306    0.0000 C   0  0  0  0  0  0  0  0  0  0  0  0
  -30.1582    2.4725    0.0000 C   0  0  0  0  0  0  0  0  0  0  0  0
  -31.4526    1.7145    0.0000 C   0  0  0  0  0  0  0  0  0  0  0  0
  -31.4432    0.2145    0.0000 C   0  0  0  0  0  0  0  0  0  0  0  0
  -30.1396   -0.5274    0.0000 C   0  0  0  0  0  0  0  0  0  0  0  0
  -32.8669   -0.2579    0.0000 C   0  0  0  0  0  0  0  0  0  0  0  0
  -33.7561    0.9501    0.0000 O   0  0  0  0  0  0  0  0  0  0  0  0
  -32.8820    2.1691    0.0000 C   0  0  0  0  0  0  0  0  0  0  0  0
  -33.3544    3.5928    0.0000 O   0  0  0  0  0  0  0  0  0  0  0  0
  -34.3322   -0.5789    0.0000 C   0  0  0  0  0  0  0  0  0  0  0  0
  -34.7868   -2.0083    0.0000 C   0  0  0  0  0  0  0  0  0  0  0  0
  -36.2521   -2.3293    0.0000 C   0  0  0  0  0  0  0  0  0  0  0  0
  -37.2627   -1.2209    0.0000 C   0  0  0  0  0  0  0  0  0  0  0  0
  -36.8080    0.2086    0.0000 C   0  0  0  0  0  0  0  0  0  0  0  0
  -35.3428    0.5296    0.0000 C   0  0  0  0  0  0  0  0  0  0  0  0
  -38.7279   -1.5418    0.0000 O   0  0  0  0  0  0  0  0  0  0  0  0
  -33.7762   -3.1168    0.0000 O   0  0  0  0  0  0  0  0  0  0  0  0
  -32.3110   -2.7958    0.0000 C   0  0  0  0  0  0  0  0  0  0  0  0
  -31.8563   -1.3664    0.0000 C   0  0  0  0  0  0  0  0  0  0  0  0
  -30.6032   -1.7124    0.0000 C   0  0  0  0  0  0  0  0  0  0  0  0
  -30.0642   -2.3036    0.0000 C   0  0  0  0  0  0  0  0  0  0  0  0
  -30.3067   -3.0660    0.0000 C   0  0  0  0  0  0  0  0  0  0  0  0
  -31.0882   -3.2372    0.0000 C   0  0  0  0  0  0  0  0  0  0  0  0
  -28.8245   -4.6917    0.0000 O   0  0  0  0  0  0  0  0  0  0  0  0
  -26.2565    1.7468    0.0000 S   0  0  0  0  0  0  0  0  0  0  0  0
  -24.9435   -0.4951    0.0000 N   0  0  0  0  0  0  0  0  0  0  0  0
  -23.6492    0.2630    0.0000 C   0  0  0  0  0  0  0  0  0  0  0  0
  -22.3455   -0.4789    0.0000 C   0  0  0  0  0  0  0  0  0  0  0  0
  -21.0511    0.2791    0.0000 C   0  0  0  0  0  0  0  0  0  0  0  0
  -21.0605    1.7791    0.0000 O   0  0  0  0  0  0  0  0  0  0  0  0
  -19.7475   -0.4628    0.0000 N   0  0  0  0  0  0  0  0  0  0  0  0
  -18.4531    0.2953    0.0000 C   0  0  0  0  0  0  0  0  0  0  0  0
  -17.4961    1.4503    0.0000 C   0  0  0  0  0  0  0  0  0  0  0  0
  -16.0173    1.1990    0.0000 C   0  0  0  0  0  0  0  0  0  0  0  0
  -15.0603    2.3541    0.0000 O   0  0  0  0  0  0  0  0  0  0  0  0
  -15.1707   -0.0392    0.0000 O   0  0  0  0  0  0  0  0  0  0  0  0
  -17.1494   -0.4466    0.0000 C   0  0  0  0  0  0  0  0  0  0  0  0
  -17.1401   -1.9466    0.0000 O   0  0  0  0  0  0  0  0  0  0  0  0
  -15.8551    0.3114    0.0000 N   0  0  0  0  0  0  0  0  0  0  0  0
  -14.5514   -0.4305    0.0000 C   0  0  0  0  0  0  0  0  0  0  0  0
  -13.5801   -1.5735    0.0000 C   0  0  0  0  0  0  0  0  0  0  0  0
  -12.1045   -1.3039    0.0000 C   0  0  0  0  0  0  0  0  0  0  0  0
  -11.4554    0.0484    0.0000 C   0  0  0  0  0  0  0  0  0  0  0  0
   -9.9687   -0.1511    0.0000 N   0  0  0  0  0  0  0  0  0  0  0  0
   -9.6991   -1.6267    0.0000 C   0  0  0  0  0  0  0  0  0  0  0  0
  -11.0191   -2.3391    0.0000 N   0  0  0  0  0  0  0  0  0  0  0  0
  -13.2571    0.3276    0.0000 C   0  0  0  0  0  0  0  0  0  0  0  0
  -13.2664    1.8276    0.0000 O   0  0  0  0  0  0  0  0  0  0  0  0
  -11.9534   -0.4143    0.0000 N   0  0  0  0  0  0  0  0  0  0  0  0
  -10.6590    0.3438    0.0000 C   0  0  0  0  0  0  0  0  0  0  0  0
   -9.7020    1.4988    0.0000 C   0  0  0  0  0  0  0  0  0  0  0  0
   -8.2064    1.6128    0.0000 C   0  0  0  0  0  0  0  0  0  0  0  0
   -9.1978    2.9115    0.0000 C   0  0  0  0  0  0  0  0  0  0  0  0
  -10.1691    4.0546    0.0000 C   0  0  0  0  0  0  0  0  0  0  0  0
   -9.3554   -0.3981    0.0000 C   0  0  0  0  0  0  0  0  0  0  0  0
   -8.9834   -1.8513    0.0000 O   0  0  0  0  0  0  0  0  0  0  0  0
   -8.0610    0.3599    0.0000 N   0  0  0  0  0  0  0  0  0  0  0  0
   -6.7573   -0.3820    0.0000 C   0  0  0  0  0  0  0  0  0  0  0  0
   -5.7860   -1.5250    0.0000 C   0  0  0  0  0  0  0  0  0  0  0  0
   -4.3105   -1.2554    0.0000 C   0  0  0  0  0  0  0  0  0  0  0  0
   -3.3392   -2.3984    0.0000 C   0  0  0  0  0  0  0  0  0  0  0  0
   -1.8636   -2.1288    0.0000 C   0  0  0  0  0  0  0  0  0  0  0  0
   -0.8923   -3.2718    0.0000 N   0  0  0  0  0  0  0  0  0  0  0  0
   -5.4630    0.3761    0.0000 C   0  0  0  0  0  0  0  0  0  0  0  0
   -5.4723    1.8760    0.0000 O   0  0  0  0  0  0  0  0  0  0  0  0
   -4.1593   -0.3658    0.0000 N   0  0  0  0  0  0  0  0  0  0  0  0
   -2.8650    0.3922    0.0000 C   0  0  0  0  0  0  0  0  0  0  0  0
   -1.9079    1.5473    0.0000 C   0  0  0  0  0  0  0  0  0  0  0  0
   -0.4291    1.2960    0.0000 C   0  0  0  0  0  0  0  0  0  0  0  0
    0.5279    2.4510    0.0000 O   0  0  0  0  0  0  0  0  0  0  0  0
    0.4174    0.0577    0.0000 O   0  0  0  0  0  0  0  0  0  0  0  0
   -1.5613   -0.3497    0.0000 C   0  0  0  0  0  0  0  0  0  0  0  0
   -1.1893   -1.8028    0.0000 O   0  0  0  0  0  0  0  0  0  0  0  0
   -0.2669    0.4084    0.0000 N   0  0  0  0  0  0  0  0  0  0  0  0
    1.0367   -0.3335    0.0000 C   0  0  0  0  0  0  0  0  0  0  0  0
    2.0081   -1.4766    0.0000 C   0  0  0  0  0  0  0  0  0  0  0  0
    3.4822   -1.7537    0.0000 O   0  0  0  0  0  0  0  0  0  0  0  0
    2.3311    0.4246    0.0000 C   0  0  0  0  0  0  0  0  0  0  0  0
    2.3218    1.9245    0.0000 O   0  0  0  0  0  0  0  0  0  0  0  0
    3.6348   -0.3174    0.0000 N   0  0  0  0  0  0  0  0  0  0  0  0
    4.9291    0.4407    0.0000 C   0  0  0  0  0  0  0  0  0  0  0  0
    5.8861    1.5958    0.0000 C   0  0  0  0  0  0  0  0  0  0  0  0
    7.3649    1.3445    0.0000 C   0  0  0  0  0  0  0  0  0  0  0  0
    7.8867   -0.0618    0.0000 C   0  0  0  0  0  0  0  0  0  0  0  0
    9.3655   -0.3131    0.0000 C   0  0  0  0  0  0  0  0  0  0  0  0
   10.3225    0.8419    0.0000 C   0  0  0  0  0  0  0  0  0  0  0  0
    9.8008    2.2482    0.0000 C   0  0  0  0  0  0  0  0  0  0  0  0
    8.3220    2.4995    0.0000 C   0  0  0  0  0  0  0  0  0  0  0  0
    6.2328   -0.3012    0.0000 C   0  0  0  0  0  0  0  0  0  0  0  0
    5.8789   -1.7588    0.0000 O   0  0  0  0  0  0  0  0  0  0  0  0
    7.5271    0.4569    0.0000 N   0  0  0  0  0  0  0  0  0  0  0  0
    8.8308   -0.2850    0.0000 C   0  0  0  0  0  0  0  0  0  0  0  0
    9.1372   -1.7534    0.0000 C   0  0  0  0  0  0  0  0  0  0  0  0
    9.8627   -3.0663    0.0000 C   0  0  0  0  0  0  0  0  0  0  0  0
   10.9430   -4.1069    0.0000 C   0  0  0  0  0  0  0  0  0  0  0  0
   12.2821   -4.7829    0.0000 C   0  0  0  0  0  0  0  0  0  0  0  0
    7.6184   -1.1682    0.0000 C   0  0  0  0  0  0  0  0  0  0  0  0
    8.9709    1.2084    0.0000 C   0  0  0  0  0  0  0  0  0  0  0  0
    7.7412    2.0674    0.0000 O   0  0  0  0  0  0  0  0  0  0  0  0
    9.5449    2.5942    0.0000 N   0  0  0  0  0  0  0  0  0  0  0  0
   10.5019    3.7493    0.0000 C   0  0  0  0  0  0  0  0  0  0  0  0
   10.2692    5.2311    0.0000 C   0  0  0  0  0  0  0  0  0  0  0  0
    8.8695    5.7704    0.0000 O   0  0  0  0  0  0  0  0  0  0  0  0
   11.7569    4.5709    0.0000 C   0  0  0  0  0  0  0  0  0  0  0  0
   11.1315    5.9343    0.0000 O   0  0  0  0  0  0  0  0  0  0  0  0
   13.1983    4.9861    0.0000 N   0  0  0  0  0  0  0  0  0  0  0  0
   14.6980    4.9581    0.0000 C   0  0  0  0  0  0  0  0  0  0  0  0
   15.7114    6.0640    0.0000 C   0  0  0  0  0  0  0  0  0  0  0  0
   15.2604    7.4946    0.0000 C   0  0  0  0  0  0  0  0  0  0  0  0
   16.2738    8.6005    0.0000 C   0  0  0  0  0  0  0  0  0  0  0  0
   14.3473    8.6846    0.0000 C   0  0  0  0  0  0  0  0  0  0  0  0
   16.1229    4.4892    0.0000 C   0  0  0  0  0  0  0  0  0  0  0  0
   16.7989    5.8282    0.0000 O   0  0  0  0  0  0  0  0  0  0  0  0
   17.3462    3.6212    0.0000 N   0  0  0  0  0  0  0  0  0  0  0  0
   18.2593    2.4311    0.0000 C   0  0  0  0  0  0  0  0  0  0  0  0
   19.7558    2.3283    0.0000 C   0  0  0  0  0  0  0  0  0  0  0  0
   20.5930    3.5729    0.0000 C   0  0  0  0  0  0  0  0  0  0  0  0
   22.0895    3.4701    0.0000 C   0  0  0  0  0  0  0  0  0  0  0  0
   22.9268    4.7147    0.0000 N   0  0  0  0  0  0  0  0  0  0  0  0
   24.4232    4.6119    0.0000 C   0  0  0  0  0  0  0  0  0  0  0  0
   25.2605    5.8565    0.0000 N   0  0  0  0  0  0  0  0  0  0  0  0
   25.0825    3.2646    0.0000 N   0  0  0  0  0  0  0  0  0  0  0  0
   18.7811    1.0248    0.0000 C   0  0  0  0  0  0  0  0  0  0  0  0
   20.2495    1.3312    0.0000 O   0  0  0  0  0  0  0  0  0  0  0  0
   18.8652   -0.4728    0.0000 N   0  0  0  0  0  0  0  0  0  0  0  0
   18.5041   -1.9287    0.0000 C   0  0  0  0  0  0  0  0  0  0  0  0
   17.7299   -3.2135    0.0000 C   0  0  0  0  0  0  0  0  0  0  0  0
   16.6114   -4.2130    0.0000 C   0  0  0  0  0  0  0  0  0  0  0  0
   15.2480   -4.8384    0.0000 C   0  0  0  0  0  0  0  0  0  0  0  0
   13.7609   -5.0342    0.0000 C   0  0  0  0  0  0  0  0  0  0  0  0
   19.9797   -1.6591    0.0000 C   0  0  0  0  0  0  0  0  0  0  0  0
   19.3568   -3.1628    0.0000 C   0  0  0  0  0  0  0  0  0  0  0  0
   19.0614   -4.6334    0.0000 O   0  0  0  0  0  0  0  0  0  0  0  0
   20.8518   -3.0414    0.0000 N   0  0  0  0  0  0  0  0  0  0  0  0
   21.7045   -4.2755    0.0000 C   0  0  0  0  0  0  0  0  0  0  0  0
   22.0837   -5.7268    0.0000 C   0  0  0  0  0  0  0  0  0  0  0  0
   21.0164   -6.7808    0.0000 O   0  0  0  0  0  0  0  0  0  0  0  0
   23.1996   -4.1541    0.0000 C   0  0  0  0  0  0  0  0  0  0  0  0
   23.8420   -2.7986    0.0000 O   0  0  0  0  0  0  0  0  0  0  0  0
   24.0523   -5.3882    0.0000 N   0  0  0  0  0  0  0  0  0  0  0  0
   25.5473   -5.2668    0.0000 C   0  0  0  0  0  0  0  0  0  0  0  0
   26.9107   -4.6414    0.0000 C   0  0  0  0  0  0  0  0  0  0  0  0
   28.1341   -5.5094    0.0000 C   0  0  0  0  0  0  0  0  0  0  0  0
   26.4000   -6.5009    0.0000 C   0  0  0  0  0  0  0  0  0  0  0  0
   27.8987   -6.5626    0.0000 O   0  0  0  0  0  0  0  0  0  0  0  0
   25.7576   -7.8563    0.0000 O   0  0  0  0  0  0  0  0  0  0  0  0
  -27.3494   -1.9989    0.0000 H   0  0  0  0  0  0  0  0  0  0  0  0
  -27.5602    2.4887    0.0000 H   0  0  0  0  0  0  0  0  0  0  0  0
  -30.1676    3.9725    0.0000 H   0  0  0  0  0  0  0  0  0  0  0  0
  -29.7676   -1.9806    0.0000 H   0  0  0  0  0  0  0  0  0  0  0  0
  -36.7067   -3.7588    0.0000 H   0  0  0  0  0  0  0  0  0  0  0  0
  -37.8186    1.3170    0.0000 H   0  0  0  0  0  0  0  0  0  0  0  0
  -34.8881    1.9590    0.0000 H   0  0  0  0  0  0  0  0  0  0  0  0
  -39.7385   -0.4334    0.0000 H   0  0  0  0  0  0  0  0  0  0  0  0
  -29.9364    0.3841    0.0000 H   0  0  0  0  0  0  0  0  0  0  0  0
  -27.8870   -2.0138    0.0000 H   0  0  0  0  0  0  0  0  0  0  0  0
  -31.7550   -5.3337    0.0000 H   0  0  0  0  0  0  0  0  0  0  0  0
  -29.2791   -6.1212    0.0000 H   0  0  0  0  0  0  0  0  0  0  0  0
  -24.9342   -1.9951    0.0000 H   0  0  0  0  0  0  0  0  0  0  0  0
  -22.6922    1.4180    0.0000 H   0  0  0  0  0  0  0  0  0  0  0  0
  -24.6205    1.4060    0.0000 H   0  0  0  0  0  0  0  0  0  0  0  0
  -21.3742   -1.6220    0.0000 H   0  0  0  0  0  0  0  0  0  0  0  0
  -23.3025   -1.6340    0.0000 H   0  0  0  0  0  0  0  0  0  0  0  0
  -19.7381   -1.9628    0.0000 H   0  0  0  0  0  0  0  0  0  0  0  0
  -19.4244    1.4383    0.0000 H   0  0  0  0  0  0  0  0  0  0  0  0
  -16.9918    2.8630    0.0000 H   0  0  0  0  0  0  0  0  0  0  0  0
  -18.7998    2.1922    0.0000 H   0  0  0  0  0  0  0  0  0  0  0  0
  -14.1525   -0.7253    0.0000 H   0  0  0  0  0  0  0  0  0  0  0  0
  -15.5012    1.7691    0.0000 H   0  0  0  0  0  0  0  0  0  0  0  0
  -15.5084   -1.5855    0.0000 H   0  0  0  0  0  0  0  0  0  0  0  0
  -13.0583   -2.9798    0.0000 H   0  0  0  0  0  0  0  0  0  0  0  0
  -14.8745   -2.3316    0.0000 H   0  0  0  0  0  0  0  0  0  0  0  0
  -12.3234    1.2717    0.0000 H   0  0  0  0  0  0  0  0  0  0  0  0
   -8.8089    0.8001    0.0000 H   0  0  0  0  0  0  0  0  0  0  0  0
   -8.3468   -2.2758    0.0000 H   0  0  0  0  0  0  0  0  0  0  0  0
  -11.5814   -1.8674    0.0000 H   0  0  0  0  0  0  0  0  0  0  0  0
  -11.4838    1.5967    0.0000 H   0  0  0  0  0  0  0  0  0  0  0  0
  -11.0864    2.0763    0.0000 H   0  0  0  0  0  0  0  0  0  0  0  0
   -7.1546    2.2810    0.0000 H   0  0  0  0  0  0  0  0  0  0  0  0
   -6.9195    0.5056    0.0000 H   0  0  0  0  0  0  0  0  0  0  0  0
   -7.9172   -0.2244    0.0000 H   0  0  0  0  0  0  0  0  0  0  0  0
   -8.2408    4.0665    0.0000 H   0  0  0  0  0  0  0  0  0  0  0  0
   -7.7533    2.5071    0.0000 H   0  0  0  0  0  0  0  0  0  0  0  0
   -9.6648    5.4673    0.0000 H   0  0  0  0  0  0  0  0  0  0  0  0
  -11.4728    4.7965    0.0000 H   0  0  0  0  0  0  0  0  0  0  0  0
  -11.2598    3.0248    0.0000 H   0  0  0  0  0  0  0  0  0  0  0  0
   -7.7071    1.8176    0.0000 H   0  0  0  0  0  0  0  0  0  0  0  0
   -7.7144   -1.5370    0.0000 H   0  0  0  0  0  0  0  0  0  0  0  0
   -5.4396   -2.9845    0.0000 H   0  0  0  0  0  0  0  0  0  0  0  0
   -7.0804   -2.2831    0.0000 H   0  0  0  0  0  0  0  0  0  0  0  0
   -3.1182   -0.3452    0.0000 H   0  0  0  0  0  0  0  0  0  0  0  0
   -4.1108    0.2313    0.0000 H   0  0  0  0  0  0  0  0  0  0  0  0
   -2.8174   -3.8047    0.0000 H   0  0  0  0  0  0  0  0  0  0  0  0
   -4.5314   -3.3086    0.0000 H   0  0  0  0  0  0  0  0  0  0  0  0
   -0.4865   -1.5341    0.0000 H   0  0  0  0  0  0  0  0  0  0  0  0
   -2.2101   -0.6693    0.0000 H   0  0  0  0  0  0  0  0  0  0  0  0
    0.5394   -2.8243    0.0000 H   0  0  0  0  0  0  0  0  0  0  0  0
   -1.3965   -4.6845    0.0000 H   0  0  0  0  0  0  0  0  0  0  0  0
   -3.7873   -1.8190    0.0000 H   0  0  0  0  0  0  0  0  0  0  0  0
   -3.8363    1.5353    0.0000 H   0  0  0  0  0  0  0  0  0  0  0  0
   -1.4037    2.9600    0.0000 H   0  0  0  0  0  0  0  0  0  0  0  0
   -3.2116    2.2892    0.0000 H   0  0  0  0  0  0  0  0  0  0  0  0
    1.4357   -0.6284    0.0000 H   0  0  0  0  0  0  0  0  0  0  0  0
    0.0870    1.8660    0.0000 H   0  0  0  0  0  0  0  0  0  0  0  0
    0.2277   -1.5966    0.0000 H   0  0  0  0  0  0  0  0  0  0  0  0
    2.5298   -2.8829    0.0000 H   0  0  0  0  0  0  0  0  0  0  0  0
    0.6309   -2.0712    0.0000 H   0  0  0  0  0  0  0  0  0  0  0  0
    4.4549   -2.3500    0.0000 H   0  0  0  0  0  0  0  0  0  0  0  0
    3.8269   -1.8050    0.0000 H   0  0  0  0  0  0  0  0  0  0  0  0
    3.9578    1.5838    0.0000 H   0  0  0  0  0  0  0  0  0  0  0  0
    6.3904    3.0085    0.0000 H   0  0  0  0  0  0  0  0  0  0  0  0
    4.5825    2.3377    0.0000 H   0  0  0  0  0  0  0  0  0  0  0  0
    6.6787   -0.9510    0.0000 H   0  0  0  0  0  0  0  0  0  0  0  0
   10.2121   -1.5514    0.0000 H   0  0  0  0  0  0  0  0  0  0  0  0
   11.8013    0.5906    0.0000 H   0  0  0  0  0  0  0  0  0  0  0  0
   11.0088    3.1374    0.0000 H   0  0  0  0  0  0  0  0  0  0  0  0
    7.6326    3.8317    0.0000 H   0  0  0  0  0  0  0  0  0  0  0  0
    7.7007    1.9468    0.0000 H   0  0  0  0  0  0  0  0  0  0  0  0
    7.6377   -1.7927    0.0000 H   0  0  0  0  0  0  0  0  0  0  0  0
    8.2389   -2.9547    0.0000 H   0  0  0  0  0  0  0  0  0  0  0  0
    8.4415   -3.5458    0.0000 H   0  0  0  0  0  0  0  0  0  0  0  0
    9.1900   -4.4070    0.0000 H   0  0  0  0  0  0  0  0  0  0  0  0
    9.6284   -4.8292    0.0000 H   0  0  0  0  0  0  0  0  0  0  0  0
   10.8776   -5.6055    0.0000 H   0  0  0  0  0  0  0  0  0  0  0  0
   11.8132   -6.2078    0.0000 H   0  0  0  0  0  0  0  0  0  0  0  0
    7.4114   -2.6539    0.0000 H   0  0  0  0  0  0  0  0  0  0  0  0
    6.3203   -1.9199    0.0000 H   0  0  0  0  0  0  0  0  0  0  0  0
    6.6527   -0.0204    0.0000 H   0  0  0  0  0  0  0  0  0  0  0  0
    8.3641    3.5192    0.0000 H   0  0  0  0  0  0  0  0  0  0  0  0
    9.0555    4.1465    0.0000 H   0  0  0  0  0  0  0  0  0  0  0  0
   10.5572    6.7032    0.0000 H   0  0  0  0  0  0  0  0  0  0  0  0
   11.7311    5.5668    0.0000 H   0  0  0  0  0  0  0  0  0  0  0  0
    8.6367    7.2522    0.0000 H   0  0  0  0  0  0  0  0  0  0  0  0
   13.0025    6.4733    0.0000 H   0  0  0  0  0  0  0  0  0  0  0  0
   13.9431    6.2543    0.0000 H   0  0  0  0  0  0  0  0  0  0  0  0
   17.1164    6.5892    0.0000 H   0  0  0  0  0  0  0  0  0  0  0  0
   16.8854    5.1302    0.0000 H   0  0  0  0  0  0  0  0  0  0  0  0
   13.8553    6.9693    0.0000 H   0  0  0  0  0  0  0  0  0  0  0  0
   16.0005   10.0753    0.0000 H   0  0  0  0  0  0  0  0  0  0  0  0
   17.6043    9.2931    0.0000 H   0  0  0  0  0  0  0  0  0  0  0  0
   17.3252    7.5306    0.0000 H   0  0  0  0  0  0  0  0  0  0  0  0
   14.7481   10.1300    0.0000 H   0  0  0  0  0  0  0  0  0  0  0  0
   13.0822    9.4906    0.0000 H   0  0  0  0  0  0  0  0  0  0  0  0
   13.3339    7.5787    0.0000 H   0  0  0  0  0  0  0  0  0  0  0  0
   18.3868    4.7015    0.0000 H   0  0  0  0  0  0  0  0  0  0  0  0
   18.8021    3.8295    0.0000 H   0  0  0  0  0  0  0  0  0  0  0  0
   21.0425    1.5573    0.0000 H   0  0  0  0  0  0  0  0  0  0  0  0
   19.7577    0.8283    0.0000 H   0  0  0  0  0  0  0  0  0  0  0  0
   20.9541    5.0288    0.0000 H   0  0  0  0  0  0  0  0  0  0  0  0
   19.3064    4.3439    0.0000 H   0  0  0  0  0  0  0  0  0  0  0  0
   23.4606    2.8617    0.0000 H   0  0  0  0  0  0  0  0  0  0  0  0
   21.9086    1.9811    0.0000 H   0  0  0  0  0  0  0  0  0  0  0  0
   22.2675    6.0621    0.0000 H   0  0  0  0  0  0  0  0  0  0  0  0
   26.7570    5.7537    0.0000 H   0  0  0  0  0  0  0  0  0  0  0  0
   26.5789    3.1618    0.0000 H   0  0  0  0  0  0  0  0  0  0  0  0
   24.2452    2.0200    0.0000 H   0  0  0  0  0  0  0  0  0  0  0  0
   20.3586   -0.6129    0.0000 H   0  0  0  0  0  0  0  0  0  0  0  0
   18.1810   -4.6441    0.0000 H   0  0  0  0  0  0  0  0  0  0  0  0
   19.1322   -3.7459    0.0000 H   0  0  0  0  0  0  0  0  0  0  0  0
   16.8035   -5.7007    0.0000 H   0  0  0  0  0  0  0  0  0  0  0  0
   17.7945   -5.1351    0.0000 H   0  0  0  0  0  0  0  0  0  0  0  0
   14.8148   -6.2745    0.0000 H   0  0  0  0  0  0  0  0  0  0  0  0
   16.2503   -5.9544    0.0000 H   0  0  0  0  0  0  0  0  0  0  0  0
   13.7328   -6.5339    0.0000 H   0  0  0  0  0  0  0  0  0  0  0  0
   21.1987   -2.5331    0.0000 H   0  0  0  0  0  0  0  0  0  0  0  0
   21.1719   -0.7489    0.0000 H   0  0  0  0  0  0  0  0  0  0  0  0
   19.8137   -0.1683    0.0000 H   0  0  0  0  0  0  0  0  0  0  0  0
   21.6547   -1.7743    0.0000 H   0  0  0  0  0  0  0  0  0  0  0  0
   20.3411   -4.9009    0.0000 H   0  0  0  0  0  0  0  0  0  0  0  0
   22.7796   -7.0556    0.0000 H   0  0  0  0  0  0  0  0  0  0  0  0
   23.5579   -5.4498    0.0000 H   0  0  0  0  0  0  0  0  0  0  0  0
   21.3956   -8.2321    0.0000 H   0  0  0  0  0  0  0  0  0  0  0  0
   23.5799   -6.8118    0.0000 H   0  0  0  0  0  0  0  0  0  0  0  0
   25.1682   -3.8155    0.0000 H   0  0  0  0  0  0  0  0  0  0  0  0
   27.9780   -3.5873    0.0000 H   0  0  0  0  0  0  0  0  0  0  0  0
   26.0581   -3.4073    0.0000 H   0  0  0  0  0  0  0  0  0  0  0  0
   29.4975   -4.8840    0.0000 H   0  0  0  0  0  0  0  0  0  0  0  0
   28.9867   -6.7435    0.0000 H   0  0  0  0  0  0  0  0  0  0  0  0
   27.5155   -6.8759    0.0000 H   0  0  0  0  0  0  0  0  0  0  0  0
   26.6103   -9.0904    0.0000 H   0  0  0  0  0  0  0  0  0  0  0  0
  1  2  1  0
  2  3  1  0
  3  4  2  0
  4  5  1  0
  5  6  2  0
  6  7  1  0
  7  8  2  0
  7  9  1  0
  9 10  1  0
 10 11  1  0
 11 12  2  0
  9 13  1  0
 13 14  1  0
 14 15  2  0
 15 16  1  0
 16 17  2  0
 17 18  1  0
 16 19  1  0
 14 20  1  0
 20 21  1  0
 21 22  2  0
 22 23  1  0
 23 24  2  0
 24 25  1  0
 25 26  2  0
 25 27  1  0
  1 28  2  0
  1 29  1  0
 29 30  1  0
 30 31  1  0
 31 32  1  0
 32 33  2  0
 32 34  1  0
 34 35  1  0
 35 36  1  0
 36 37  1  0
 37 38  2  0
 37 39  1  0
 35 40  1  0
 40 41  2  0
 40 42  1  0
 42 43  1  0
 43 44  1  0
 44 45  1  0
 45 46  2  0
 46 47  1  0
 47 48  1  0
 48 49  2  0
 43 50  1  0
 50 51  2  0
 50 52  1  0
 52 53  1  0
 53 54  1  0
 54 55  1  0
 54 56  1  0
 56 57  1  0
 53 58  1  0
 58 59  2  0
 58 60  1  0
 60 61  1  0
 61 62  1  0
 62 63  1  0
 63 64  1  0
 64 65  1  0
 65 66  1  0
 61 67  1  0
 67 68  2  0
 67 69  1  0
 69 70  1  0
 70 71  1  0
 71 72  1  0
 72 73  2  0
 72 74  1  0
 70 75  1  0
 75 76  2  0
 75 77  1  0
 77 78  1  0
 78 79  1  0
 79 80  1  0
 78 81  1  0
 81 82  2  0
 81 83  1  0
 83 84  1  0
 84 85  1  0
 85 86  1  0
 86 87  2  0
 87 88  1  0
 88 89  2  0
 89 90  1  0
 90 91  2  0
 84 92  1  0
 92 93  2  0
 92 94  1  0
 95 94  1  6
 95 96  1  0
 96 97  1  0
 97 98  1  0
 98 99  1  0
 95100  1  0
 95101  1  0
101102  2  0
101103  1  0
103104  1  0
104105  1  0
105106  1  0
104107  1  0
107108  2  0
107109  1  0
109110  1  0
110111  1  0
111112  1  0
112113  1  0
112114  1  0
110115  1  0
115116  2  0
115117  1  0
117118  1  0
118119  1  0
119120  1  0
120121  1  0
121122  1  0
122123  1  0
123124  2  3
123125  1  0
118126  1  0
126127  2  0
126128  1  0
128129  1  0
129130  1  0
130131  1  0
131132  1  0
132133  1  0
129134  1  0
129135  1  6
135136  2  0
135137  1  0
137138  1  0
138139  1  0
139140  1  0
138141  1  0
141142  2  0
141143  1  0
143144  1  0
144145  1  0
145146  1  0
144147  1  0
147148  2  0
147149  1  0
  8  3  1  0
 49 45  1  0
 91 86  1  0
 11  6  1  0
 99133  2  0
 18 13  2  0
 22  9  1  0
 26 21  1  0
  2150  1  0
  4151  1  0
  5152  1  0
  8153  1  0
 15154  1  0
 17155  1  0
 18156  1  0
 19157  1  0
 23158  1  0
 24159  1  0
 26160  1  0
 27161  1  0
 29162  1  0
 30163  1  0
 30164  1  0
 31165  1  0
 31166  1  0
 34167  1  0
 35168  1  1
 36169  1  0
 36170  1  0
 39171  1  0
 42172  1  0
 43173  1  6
 44174  1  0
 44175  1  0
 46176  1  0
 47177  1  0
 48178  1  0
 52179  1  0
 53180  1  1
 54181  1  1
 55182  1  0
 55183  1  0
 55184  1  0
 56185  1  0
 56186  1  0
 57187  1  0
 57188  1  0
 57189  1  0
 60190  1  0
 61191  1  6
 62192  1  0
 62193  1  0
 63194  1  0
 63195  1  0
 64196  1  0
 64197  1  0
 65198  1  0
 65199  1  0
 66200  1  0
 66201  1  0
 69202  1  0
 70203  1  1
 71204  1  0
 71205  1  0
 74206  1  0
 77207  1  0
 78208  1  6
 79209  1  0
 79210  1  0
 80211  1  0
 83212  1  0
 84213  1  1
 85214  1  0
 85215  1  0
 87216  1  0
 88217  1  0
 89218  1  0
 90219  1  0
 91220  1  0
 94221  1  0
 96222  1  0
 96223  1  0
 97224  1  0
 97225  1  0
 98226  1  0
 98227  1  0
 99228  1  0
100229  1  0
100230  1  0
100231  1  0
103232  1  0
104233  1  1
105234  1  0
105235  1  0
106236  1  0
109237  1  0
110238  1  1
111239  1  0
111240  1  0
112241  1  0
113242  1  0
113243  1  0
113244  1  0
114245  1  0
114246  1  0
114247  1  0
117248  1  0
118249  1  1
119250  1  0
119251  1  0
120252  1  0
120253  1  0
121254  1  0
121255  1  0
122256  1  0
124257  1  0
125258  1  0
125259  1  0
128260  1  0
130261  1  0
130262  1  0
131263  1  0
131264  1  0
132265  1  0
132266  1  0
133267  1  0
134268  1  0
134269  1  0
134270  1  0
137271  1  0
138272  1  6
139273  1  0
139274  1  0
140275  1  0
143276  1  0
144277  1  1
145278  1  0
145279  1  0
146280  1  0
146281  1  0
146282  1  0
149283  1  0
M  END
