
     RDKit          2D

402408  0  0  0  0  0  0  0  0999 V2000
   36.9035   -1.3336    0.0000 C   0  0  0  0  0  0  0  0  0  0  0  0
   38.2187   -0.6123    0.0000 N   0  0  0  0  0  0  0  0  0  0  0  0
   39.5010   -1.3906    0.0000 C   0  0  0  0  0  0  0  0  0  0  0  0
   39.4680   -2.8903    0.0000 C   0  0  0  0  0  0  0  0  0  0  0  0
   40.7503   -3.6686    0.0000 C   0  0  0  0  0  0  0  0  0  0  0  0
   42.0655   -2.9473    0.0000 C   0  0  0  0  0  0  0  0  0  0  0  0
   42.0984   -1.4477    0.0000 C   0  0  0  0  0  0  0  0  0  0  0  0
   40.8162   -0.6693    0.0000 C   0  0  0  0  0  0  0  0  0  0  0  0
   43.5348   -1.0156    0.0000 C   0  0  0  0  0  0  0  0  0  0  0  0
   44.3896   -2.2482    0.0000 O   0  0  0  0  0  0  0  0  0  0  0  0
   43.4815   -3.4421    0.0000 C   0  0  0  0  0  0  0  0  0  0  0  0
   43.9136   -4.8785    0.0000 O   0  0  0  0  0  0  0  0  0  0  0  0
   45.0086   -0.7360    0.0000 C   0  0  0  0  0  0  0  0  0  0  0  0
   45.5033    0.6800    0.0000 C   0  0  0  0  0  0  0  0  0  0  0  0
   46.9770    0.9596    0.0000 C   0  0  0  0  0  0  0  0  0  0  0  0
   47.9560   -0.1769    0.0000 C   0  0  0  0  0  0  0  0  0  0  0  0
   47.4612   -1.5930    0.0000 C   0  0  0  0  0  0  0  0  0  0  0  0
   45.9875   -1.8725    0.0000 C   0  0  0  0  0  0  0  0  0  0  0  0
   49.4297    0.1027    0.0000 O   0  0  0  0  0  0  0  0  0  0  0  0
   44.5243    1.8165    0.0000 O   0  0  0  0  0  0  0  0  0  0  0  0
   43.0506    1.5369    0.0000 C   0  0  0  0  0  0  0  0  0  0  0  0
   42.5559    0.1209    0.0000 C   0  0  0  0  0  0  0  0  0  0  0  0
   41.3130    0.5021    0.0000 C   0  0  0  0  0  0  0  0  0  0  0  0
   40.7909    1.1083    0.0000 C   0  0  0  0  0  0  0  0  0  0  0  0
   41.0548    1.8635    0.0000 C   0  0  0  0  0  0  0  0  0  0  0  0
   41.8407    2.0126    0.0000 C   0  0  0  0  0  0  0  0  0  0  0  0
   39.6189    3.5304    0.0000 O   0  0  0  0  0  0  0  0  0  0  0  0
   36.8706   -2.8332    0.0000 S   0  0  0  0  0  0  0  0  0  0  0  0
   35.6213   -0.5552    0.0000 N   0  0  0  0  0  0  0  0  0  0  0  0
   34.3061   -1.2765    0.0000 C   0  0  0  0  0  0  0  0  0  0  0  0
   33.0238   -0.4982    0.0000 C   0  0  0  0  0  0  0  0  0  0  0  0
   31.7086   -1.2195    0.0000 C   0  0  0  0  0  0  0  0  0  0  0  0
   31.6757   -2.7191    0.0000 O   0  0  0  0  0  0  0  0  0  0  0  0
   30.4264   -0.4411    0.0000 N   0  0  0  0  0  0  0  0  0  0  0  0
   29.1112   -1.1624    0.0000 C   0  0  0  0  0  0  0  0  0  0  0  0
   28.1220   -2.2900    0.0000 C   0  0  0  0  0  0  0  0  0  0  0  0
   27.5781   -3.6880    0.0000 O   0  0  0  0  0  0  0  0  0  0  0  0
   26.6261   -2.1787    0.0000 C   0  0  0  0  0  0  0  0  0  0  0  0
   27.8289   -0.3841    0.0000 C   0  0  0  0  0  0  0  0  0  0  0  0
   27.8619    1.1156    0.0000 O   0  0  0  0  0  0  0  0  0  0  0  0
   26.5137   -1.1054    0.0000 N   0  0  0  0  0  0  0  0  0  0  0  0
   25.2315   -0.3270    0.0000 C   0  0  0  0  0  0  0  0  0  0  0  0
   24.2927    0.8430    0.0000 C   0  0  0  0  0  0  0  0  0  0  0  0
   24.8366    2.2409    0.0000 C   0  0  0  0  0  0  0  0  0  0  0  0
   23.8979    3.4109    0.0000 C   0  0  0  0  0  0  0  0  0  0  0  0
   24.4418    4.8088    0.0000 N   0  0  0  0  0  0  0  0  0  0  0  0
   23.5030    5.9787    0.0000 C   0  0  0  0  0  0  0  0  0  0  0  0
   24.0469    7.3767    0.0000 N   0  0  0  0  0  0  0  0  0  0  0  0
   22.0205    5.7508    0.0000 N   0  0  0  0  0  0  0  0  0  0  0  0
   23.9163   -1.0483    0.0000 C   0  0  0  0  0  0  0  0  0  0  0  0
   23.8833   -2.5479    0.0000 O   0  0  0  0  0  0  0  0  0  0  0  0
   22.6340   -0.2700    0.0000 N   0  0  0  0  0  0  0  0  0  0  0  0
   21.3188   -0.9912    0.0000 C   0  0  0  0  0  0  0  0  0  0  0  0
   20.3296   -2.1189    0.0000 C   0  0  0  0  0  0  0  0  0  0  0  0
   18.8585   -1.8260    0.0000 C   0  0  0  0  0  0  0  0  0  0  0  0
   17.8693   -2.9536    0.0000 C   0  0  0  0  0  0  0  0  0  0  0  0
   16.3735   -2.8423    0.0000 N   0  0  0  0  0  0  0  0  0  0  0  0
   18.3513   -4.3741    0.0000 O   0  0  0  0  0  0  0  0  0  0  0  0
   20.0366   -0.2129    0.0000 C   0  0  0  0  0  0  0  0  0  0  0  0
   20.0695    1.2867    0.0000 O   0  0  0  0  0  0  0  0  0  0  0  0
   18.7214   -0.9342    0.0000 N   0  0  0  0  0  0  0  0  0  0  0  0
   17.4391   -0.1558    0.0000 C   0  0  0  0  0  0  0  0  0  0  0  0
   16.5004    1.0141    0.0000 C   0  0  0  0  0  0  0  0  0  0  0  0
   16.1239   -0.8771    0.0000 C   0  0  0  0  0  0  0  0  0  0  0  0
   15.9668   -1.9593    0.0000 O   0  0  0  0  0  0  0  0  0  0  0  0
   14.8417   -0.0988    0.0000 N   0  0  0  0  0  0  0  0  0  0  0  0
   13.5265   -0.8201    0.0000 C   0  0  0  0  0  0  0  0  0  0  0  0
   12.5373   -1.9477    0.0000 C   0  0  0  0  0  0  0  0  0  0  0  0
   11.0661   -1.6548    0.0000 C   0  0  0  0  0  0  0  0  0  0  0  0
   10.0770   -2.7825    0.0000 C   0  0  0  0  0  0  0  0  0  0  0  0
    8.6058   -2.4896    0.0000 N   0  0  0  0  0  0  0  0  0  0  0  0
    7.6166   -3.6172    0.0000 C   0  0  0  0  0  0  0  0  0  0  0  0
    6.1922   -3.1472    0.0000 N   0  0  0  0  0  0  0  0  0  0  0  0
    8.0986   -5.0377    0.0000 N   0  0  0  0  0  0  0  0  0  0  0  0
   12.2442   -0.0417    0.0000 C   0  0  0  0  0  0  0  0  0  0  0  0
   12.2772    1.4579    0.0000 O   0  0  0  0  0  0  0  0  0  0  0  0
   10.9290   -0.7630    0.0000 N   0  0  0  0  0  0  0  0  0  0  0  0
    9.6468    0.0153    0.0000 C   0  0  0  0  0  0  0  0  0  0  0  0
    8.7080    1.1853    0.0000 C   0  0  0  0  0  0  0  0  0  0  0  0
    9.2519    2.5832    0.0000 C   0  0  0  0  0  0  0  0  0  0  0  0
    8.3132    3.7532    0.0000 C   0  0  0  0  0  0  0  0  0  0  0  0
    8.8571    5.1511    0.0000 N   0  0  0  0  0  0  0  0  0  0  0  0
    7.9183    6.3211    0.0000 C   0  0  0  0  0  0  0  0  0  0  0  0
    8.4622    7.7190    0.0000 N   0  0  0  0  0  0  0  0  0  0  0  0
    6.4358    6.0931    0.0000 N   0  0  0  0  0  0  0  0  0  0  0  0
    8.3316   -0.7060    0.0000 C   0  0  0  0  0  0  0  0  0  0  0  0
    8.0437   -1.7609    0.0000 O   0  0  0  0  0  0  0  0  0  0  0  0
    7.0493    0.0724    0.0000 N   0  0  0  0  0  0  0  0  0  0  0  0
    5.7341   -0.6489    0.0000 C   0  0  0  0  0  0  0  0  0  0  0  0
    4.7449   -1.7765    0.0000 C   0  0  0  0  0  0  0  0  0  0  0  0
    3.2738   -1.4837    0.0000 C   0  0  0  0  0  0  0  0  0  0  0  0
    2.2846   -2.6113    0.0000 N   0  0  0  0  0  0  0  0  0  0  0  0
    2.8426   -0.8132    0.0000 O   0  0  0  0  0  0  0  0  0  0  0  0
    4.4519    0.1294    0.0000 C   0  0  0  0  0  0  0  0  0  0  0  0
    4.4848    1.6291    0.0000 O   0  0  0  0  0  0  0  0  0  0  0  0
    3.1367   -0.5919    0.0000 N   0  0  0  0  0  0  0  0  0  0  0  0
    1.8544    0.1865    0.0000 C   0  0  0  0  0  0  0  0  0  0  0  0
    0.9157    1.3565    0.0000 C   0  0  0  0  0  0  0  0  0  0  0  0
   -0.5669    1.1285    0.0000 C   0  0  0  0  0  0  0  0  0  0  0  0
   -1.5056    2.2985    0.0000 C   0  0  0  0  0  0  0  0  0  0  0  0
   -2.9882    2.0705    0.0000 N   0  0  0  0  0  0  0  0  0  0  0  0
   -3.9269    3.2404    0.0000 C   0  0  0  0  0  0  0  0  0  0  0  0
   -5.3706    2.8335    0.0000 N   0  0  0  0  0  0  0  0  0  0  0  0
   -3.3830    4.6384    0.0000 N   0  0  0  0  0  0  0  0  0  0  0  0
    0.5392   -0.5348    0.0000 C   0  0  0  0  0  0  0  0  0  0  0  0
    0.3237   -2.0192    0.0000 O   0  0  0  0  0  0  0  0  0  0  0  0
   -0.7430    0.2435    0.0000 N   0  0  0  0  0  0  0  0  0  0  0  0
   -2.0582   -0.4777    0.0000 C   0  0  0  0  0  0  0  0  0  0  0  0
   -3.0474   -1.6054    0.0000 C   0  0  0  0  0  0  0  0  0  0  0  0
   -4.5185   -1.3125    0.0000 C   0  0  0  0  0  0  0  0  0  0  0  0
   -5.5077   -2.4401    0.0000 C   0  0  0  0  0  0  0  0  0  0  0  0
   -6.9789   -2.1473    0.0000 N   0  0  0  0  0  0  0  0  0  0  0  0
   -7.9681   -3.2749    0.0000 C   0  0  0  0  0  0  0  0  0  0  0  0
   -9.3925   -2.8049    0.0000 N   0  0  0  0  0  0  0  0  0  0  0  0
   -7.4861   -4.6954    0.0000 N   0  0  0  0  0  0  0  0  0  0  0  0
   -3.3405    0.3006    0.0000 C   0  0  0  0  0  0  0  0  0  0  0  0
   -3.6714    1.7636    0.0000 O   0  0  0  0  0  0  0  0  0  0  0  0
   -4.6557   -0.4207    0.0000 N   0  0  0  0  0  0  0  0  0  0  0  0
   -5.9379    0.3577    0.0000 C   0  0  0  0  0  0  0  0  0  0  0  0
   -6.8766    1.5276    0.0000 C   0  0  0  0  0  0  0  0  0  0  0  0
   -8.3592    1.2997    0.0000 C   0  0  0  0  0  0  0  0  0  0  0  0
   -9.2979    2.4696    0.0000 C   0  0  0  0  0  0  0  0  0  0  0  0
  -10.7805    2.2416    0.0000 N   0  0  0  0  0  0  0  0  0  0  0  0
  -11.7192    3.4116    0.0000 C   0  0  0  0  0  0  0  0  0  0  0  0
  -13.1630    3.0046    0.0000 N   0  0  0  0  0  0  0  0  0  0  0  0
  -11.1754    4.8095    0.0000 N   0  0  0  0  0  0  0  0  0  0  0  0
   -7.2531   -0.3636    0.0000 C   0  0  0  0  0  0  0  0  0  0  0  0
   -7.6480   -1.8107    0.0000 O   0  0  0  0  0  0  0  0  0  0  0  0
   -8.5354    0.4147    0.0000 N   0  0  0  0  0  0  0  0  0  0  0  0
   -9.8506   -0.3066    0.0000 C   0  0  0  0  0  0  0  0  0  0  0  0
  -10.8398   -1.4342    0.0000 C   0  0  0  0  0  0  0  0  0  0  0  0
  -12.3109   -1.1413    0.0000 C   0  0  0  0  0  0  0  0  0  0  0  0
  -13.3001   -2.2690    0.0000 C   0  0  0  0  0  0  0  0  0  0  0  0
  -14.7712   -1.9761    0.0000 N   0  0  0  0  0  0  0  0  0  0  0  0
  -15.7604   -3.1037    0.0000 C   0  0  0  0  0  0  0  0  0  0  0  0
  -17.1849   -2.6337    0.0000 N   0  0  0  0  0  0  0  0  0  0  0  0
  -15.2784   -4.5242    0.0000 N   0  0  0  0  0  0  0  0  0  0  0  0
  -11.1328    0.4718    0.0000 C   0  0  0  0  0  0  0  0  0  0  0  0
  -11.4637    1.9348    0.0000 O   0  0  0  0  0  0  0  0  0  0  0  0
  -12.4480   -0.2495    0.0000 N   0  0  0  0  0  0  0  0  0  0  0  0
  -13.7303    0.5288    0.0000 C   0  0  0  0  0  0  0  0  0  0  0  0
  -14.6690    1.6988    0.0000 C   0  0  0  0  0  0  0  0  0  0  0  0
  -16.1516    1.4708    0.0000 C   0  0  0  0  0  0  0  0  0  0  0  0
  -16.8386    0.1374    0.0000 C   0  0  0  0  0  0  0  0  0  0  0  0
  -18.3190    0.3787    0.0000 N   0  0  0  0  0  0  0  0  0  0  0  0
  -18.5470    1.8613    0.0000 C   0  0  0  0  0  0  0  0  0  0  0  0
  -19.8013    2.6839    0.0000 C   0  0  0  0  0  0  0  0  0  0  0  0
  -19.7161    4.1815    0.0000 C   0  0  0  0  0  0  0  0  0  0  0  0
  -18.3765    4.8565    0.0000 C   0  0  0  0  0  0  0  0  0  0  0  0
  -17.1222    4.0338    0.0000 C   0  0  0  0  0  0  0  0  0  0  0  0
  -17.2074    2.5363    0.0000 C   0  0  0  0  0  0  0  0  0  0  0  0
  -15.0455   -0.1925    0.0000 C   0  0  0  0  0  0  0  0  0  0  0  0
  -15.4403   -1.6396    0.0000 O   0  0  0  0  0  0  0  0  0  0  0  0
  -16.3277    0.5859    0.0000 N   0  0  0  0  0  0  0  0  0  0  0  0
  -17.6429   -0.1354    0.0000 C   0  0  0  0  0  0  0  0  0  0  0  0
  -18.6321   -1.2630    0.0000 C   0  0  0  0  0  0  0  0  0  0  0  0
  -20.1032   -0.9702    0.0000 C   0  0  0  0  0  0  0  0  0  0  0  0
  -21.0924   -2.0978    0.0000 C   0  0  0  0  0  0  0  0  0  0  0  0
  -22.5636   -1.8049    0.0000 N   0  0  0  0  0  0  0  0  0  0  0  0
  -23.5527   -2.9326    0.0000 C   0  0  0  0  0  0  0  0  0  0  0  0
  -24.9772   -2.4626    0.0000 N   0  0  0  0  0  0  0  0  0  0  0  0
  -23.0708   -4.3530    0.0000 N   0  0  0  0  0  0  0  0  0  0  0  0
  -18.9252    0.6429    0.0000 C   0  0  0  0  0  0  0  0  0  0  0  0
  -19.2561    2.1060    0.0000 O   0  0  0  0  0  0  0  0  0  0  0  0
  -20.2404   -0.0784    0.0000 N   0  0  0  0  0  0  0  0  0  0  0  0
  -21.5226    0.7000    0.0000 C   0  0  0  0  0  0  0  0  0  0  0  0
  -22.4613    1.8700    0.0000 C   0  0  0  0  0  0  0  0  0  0  0  0
  -23.9439    1.6420    0.0000 C   0  0  0  0  0  0  0  0  0  0  0  0
  -24.8826    2.8120    0.0000 C   0  0  0  0  0  0  0  0  0  0  0  0
  -26.3819    2.7664    0.0000 O   0  0  0  0  0  0  0  0  0  0  0  0
  -24.3388    4.2099    0.0000 O   0  0  0  0  0  0  0  0  0  0  0  0
  -22.8378   -0.0213    0.0000 C   0  0  0  0  0  0  0  0  0  0  0  0
  -23.2327   -1.4684    0.0000 O   0  0  0  0  0  0  0  0  0  0  0  0
  -24.1201    0.7570    0.0000 N   0  0  0  0  0  0  0  0  0  0  0  0
  -25.4353    0.0358    0.0000 C   0  0  0  0  0  0  0  0  0  0  0  0
  -26.4245   -1.0919    0.0000 C   0  0  0  0  0  0  0  0  0  0  0  0
  -27.8956   -0.7990    0.0000 C   0  0  0  0  0  0  0  0  0  0  0  0
  -28.8848   -1.9266    0.0000 C   0  0  0  0  0  0  0  0  0  0  0  0
  -30.3559   -1.6338    0.0000 N   0  0  0  0  0  0  0  0  0  0  0  0
  -31.3451   -2.7614    0.0000 C   0  0  0  0  0  0  0  0  0  0  0  0
  -32.7696   -2.2914    0.0000 N   0  0  0  0  0  0  0  0  0  0  0  0
  -30.8631   -4.1819    0.0000 N   0  0  0  0  0  0  0  0  0  0  0  0
  -26.7175    0.8141    0.0000 C   0  0  0  0  0  0  0  0  0  0  0  0
  -26.8676    2.3066    0.0000 O   0  0  0  0  0  0  0  0  0  0  0  0
  -28.0327    0.0928    0.0000 N   0  0  0  0  0  0  0  0  0  0  0  0
  -29.3150    0.8712    0.0000 C   0  0  0  0  0  0  0  0  0  0  0  0
  -30.2537    2.0411    0.0000 C   0  0  0  0  0  0  0  0  0  0  0  0
  -29.7098    3.4391    0.0000 C   0  0  0  0  0  0  0  0  0  0  0  0
  -30.6485    4.6090    0.0000 C   0  0  0  0  0  0  0  0  0  0  0  0
  -30.1047    6.0070    0.0000 N   0  0  0  0  0  0  0  0  0  0  0  0
  -32.1311    4.3811    0.0000 O   0  0  0  0  0  0  0  0  0  0  0  0
  -30.6302    0.1499    0.0000 C   0  0  0  0  0  0  0  0  0  0  0  0
  -31.0250   -1.2972    0.0000 O   0  0  0  0  0  0  0  0  0  0  0  0
  -31.9124    0.9282    0.0000 N   0  0  0  0  0  0  0  0  0  0  0  0
  -33.2276    0.2069    0.0000 C   0  0  0  0  0  0  0  0  0  0  0  0
  -34.2168   -0.9207    0.0000 C   0  0  0  0  0  0  0  0  0  0  0  0
  -35.6879   -0.6278    0.0000 C   0  0  0  0  0  0  0  0  0  0  0  0
  -36.6771   -1.7555    0.0000 C   0  0  0  0  0  0  0  0  0  0  0  0
  -38.1483   -1.4626    0.0000 N   0  0  0  0  0  0  0  0  0  0  0  0
  -39.1374   -2.5902    0.0000 C   0  0  0  0  0  0  0  0  0  0  0  0
  -40.6086   -2.2974    0.0000 N   0  0  0  0  0  0  0  0  0  0  0  0
  -38.6555   -4.0107    0.0000 N   0  0  0  0  0  0  0  0  0  0  0  0
  -34.5099    0.9853    0.0000 C   0  0  0  0  0  0  0  0  0  0  0  0
  -35.9032    0.4297    0.0000 O   0  0  0  0  0  0  0  0  0  0  0  0
  -34.4769    2.4849    0.0000 O   0  0  0  0  0  0  0  0  0  0  0  0
   38.0686    0.8802    0.0000 H   0  0  0  0  0  0  0  0  0  0  0  0
   38.1528   -3.6116    0.0000 H   0  0  0  0  0  0  0  0  0  0  0  0
   40.7173   -5.1683    0.0000 H   0  0  0  0  0  0  0  0  0  0  0  0
   40.4852    0.7937    0.0000 H   0  0  0  0  0  0  0  0  0  0  0  0
   47.4718    2.3757    0.0000 H   0  0  0  0  0  0  0  0  0  0  0  0
   48.4402   -2.7294    0.0000 H   0  0  0  0  0  0  0  0  0  0  0  0
   45.4928   -3.2886    0.0000 H   0  0  0  0  0  0  0  0  0  0  0  0
   50.4087   -1.0338    0.0000 H   0  0  0  0  0  0  0  0  0  0  0  0
   40.5874   -1.5747    0.0000 H   0  0  0  0  0  0  0  0  0  0  0  0
   38.6064    0.8800    0.0000 H   0  0  0  0  0  0  0  0  0  0  0  0
   42.5664    4.0895    0.0000 H   0  0  0  0  0  0  0  0  0  0  0  0
   40.1137    4.9464    0.0000 H   0  0  0  0  0  0  0  0  0  0  0  0
   35.6542    0.9444    0.0000 H   0  0  0  0  0  0  0  0  0  0  0  0
   33.3169   -2.4041    0.0000 H   0  0  0  0  0  0  0  0  0  0  0  0
   35.2448   -2.4465    0.0000 H   0  0  0  0  0  0  0  0  0  0  0  0
   32.0851    0.6718    0.0000 H   0  0  0  0  0  0  0  0  0  0  0  0
   34.0130    0.6294    0.0000 H   0  0  0  0  0  0  0  0  0  0  0  0
   30.4593    1.0585    0.0000 H   0  0  0  0  0  0  0  0  0  0  0  0
   30.0499   -2.3324    0.0000 H   0  0  0  0  0  0  0  0  0  0  0  0
   29.4042   -3.0684    0.0000 H   0  0  0  0  0  0  0  0  0  0  0  0
   28.5168   -4.8579    0.0000 H   0  0  0  0  0  0  0  0  0  0  0  0
   25.6617   -3.1248    0.0000 H   0  0  0  0  0  0  0  0  0  0  0  0
   25.3686   -1.2188    0.0000 H   0  0  0  0  0  0  0  0  0  0  0  0
   26.4746   -0.5076    0.0000 H   0  0  0  0  0  0  0  0  0  0  0  0
   26.2982   -2.5898    0.0000 H   0  0  0  0  0  0  0  0  0  0  0  0
   26.3507    0.6716    0.0000 H   0  0  0  0  0  0  0  0  0  0  0  0
   23.0105    1.6213    0.0000 H   0  0  0  0  0  0  0  0  0  0  0  0
   23.0601   -0.0118    0.0000 H   0  0  0  0  0  0  0  0  0  0  0  0
   25.8258    3.3685    0.0000 H   0  0  0  0  0  0  0  0  0  0  0  0
   26.2042    1.6246    0.0000 H   0  0  0  0  0  0  0  0  0  0  0  0
   22.6156    4.1892    0.0000 H   0  0  0  0  0  0  0  0  0  0  0  0
   22.7786    2.4122    0.0000 H   0  0  0  0  0  0  0  0  0  0  0  0
   25.9243    5.0368    0.0000 H   0  0  0  0  0  0  0  0  0  0  0  0
   23.1082    8.5466    0.0000 H   0  0  0  0  0  0  0  0  0  0  0  0
   25.5295    7.6046    0.0000 H   0  0  0  0  0  0  0  0  0  0  0  0
   21.0818    6.9207    0.0000 H   0  0  0  0  0  0  0  0  0  0  0  0
   21.4766    4.3528    0.0000 H   0  0  0  0  0  0  0  0  0  0  0  0
   22.4839    1.2225    0.0000 H   0  0  0  0  0  0  0  0  0  0  0  0
   22.2575   -2.1612    0.0000 H   0  0  0  0  0  0  0  0  0  0  0  0
   19.7858   -3.5168    0.0000 H   0  0  0  0  0  0  0  0  0  0  0  0
   21.6119   -2.8972    0.0000 H   0  0  0  0  0  0  0  0  0  0  0  0
   17.5762   -1.0477    0.0000 H   0  0  0  0  0  0  0  0  0  0  0  0
   18.6822   -0.3364    0.0000 H   0  0  0  0  0  0  0  0  0  0  0  0
   15.4090   -3.7884    0.0000 H   0  0  0  0  0  0  0  0  0  0  0  0
   15.5422   -1.3986    0.0000 H   0  0  0  0  0  0  0  0  0  0  0  0
   18.3265   -2.3813    0.0000 H   0  0  0  0  0  0  0  0  0  0  0  0
   18.4283    0.9718    0.0000 H   0  0  0  0  0  0  0  0  0  0  0  0
   17.0443    2.4121    0.0000 H   0  0  0  0  0  0  0  0  0  0  0  0
   15.3226    1.9430    0.0000 H   0  0  0  0  0  0  0  0  0  0  0  0
   15.2678    0.1594    0.0000 H   0  0  0  0  0  0  0  0  0  0  0  0
   14.6916    1.3937    0.0000 H   0  0  0  0  0  0  0  0  0  0  0  0
   14.4652   -1.9900    0.0000 H   0  0  0  0  0  0  0  0  0  0  0  0
   12.1679   -3.4015    0.0000 H   0  0  0  0  0  0  0  0  0  0  0  0
   13.8195   -2.7260    0.0000 H   0  0  0  0  0  0  0  0  0  0  0  0
    9.7839   -0.8765    0.0000 H   0  0  0  0  0  0  0  0  0  0  0  0
   10.8899   -0.1652    0.0000 H   0  0  0  0  0  0  0  0  0  0  0  0
    9.5331   -4.1804    0.0000 H   0  0  0  0  0  0  0  0  0  0  0  0
   11.2548   -3.7113    0.0000 H   0  0  0  0  0  0  0  0  0  0  0  0
    7.7945   -1.2280    0.0000 H   0  0  0  0  0  0  0  0  0  0  0  0
    5.1563   -4.4520    0.0000 H   0  0  0  0  0  0  0  0  0  0  0  0
    5.8191   -1.8487    0.0000 H   0  0  0  0  0  0  0  0  0  0  0  0
    7.1094   -6.1653    0.0000 H   0  0  0  0  0  0  0  0  0  0  0  0
    9.5697   -5.3305    0.0000 H   0  0  0  0  0  0  0  0  0  0  0  0
   10.5342   -2.2101    0.0000 H   0  0  0  0  0  0  0  0  0  0  0  0
   10.7660    1.0140    0.0000 H   0  0  0  0  0  0  0  0  0  0  0  0
    7.4258    1.9636    0.0000 H   0  0  0  0  0  0  0  0  0  0  0  0
    7.4754    0.3305    0.0000 H   0  0  0  0  0  0  0  0  0  0  0  0
   10.2411    3.7108    0.0000 H   0  0  0  0  0  0  0  0  0  0  0  0
   10.6195    1.9670    0.0000 H   0  0  0  0  0  0  0  0  0  0  0  0
    7.0309    4.5315    0.0000 H   0  0  0  0  0  0  0  0  0  0  0  0
    7.1939    2.7546    0.0000 H   0  0  0  0  0  0  0  0  0  0  0  0
   10.3396    5.3791    0.0000 H   0  0  0  0  0  0  0  0  0  0  0  0
    7.5235    8.8890    0.0000 H   0  0  0  0  0  0  0  0  0  0  0  0
    9.9448    7.9470    0.0000 H   0  0  0  0  0  0  0  0  0  0  0  0
    5.4971    7.2631    0.0000 H   0  0  0  0  0  0  0  0  0  0  0  0
    5.8919    4.6952    0.0000 H   0  0  0  0  0  0  0  0  0  0  0  0
    6.8992    1.5649    0.0000 H   0  0  0  0  0  0  0  0  0  0  0  0
    6.6728   -1.8189    0.0000 H   0  0  0  0  0  0  0  0  0  0  0  0
    4.2011   -3.1745    0.0000 H   0  0  0  0  0  0  0  0  0  0  0  0
    6.1774   -2.2215    0.0000 H   0  0  0  0  0  0  0  0  0  0  0  0
    0.7888   -2.5000    0.0000 H   0  0  0  0  0  0  0  0  0  0  0  0
    2.7666   -4.0318    0.0000 H   0  0  0  0  0  0  0  0  0  0  0  0
    2.7418   -2.0390    0.0000 H   0  0  0  0  0  0  0  0  0  0  0  0
    2.8436    1.3141    0.0000 H   0  0  0  0  0  0  0  0  0  0  0  0
    0.6105    2.8251    0.0000 H   0  0  0  0  0  0  0  0  0  0  0  0
    2.2309    2.0777    0.0000 H   0  0  0  0  0  0  0  0  0  0  0  0
   -1.8821    0.4072    0.0000 H   0  0  0  0  0  0  0  0  0  0  0  0
   -0.8084   -0.3519    0.0000 H   0  0  0  0  0  0  0  0  0  0  0  0
   -1.9875    3.7189    0.0000 H   0  0  0  0  0  0  0  0  0  0  0  0
   -0.2881    3.1747    0.0000 H   0  0  0  0  0  0  0  0  0  0  0  0
   -3.9970    0.9604    0.0000 H   0  0  0  0  0  0  0  0  0  0  0  0
   -6.3482    4.1824    0.0000 H   0  0  0  0  0  0  0  0  0  0  0  0
   -5.8004    1.5526    0.0000 H   0  0  0  0  0  0  0  0  0  0  0  0
   -4.3217    5.8083    0.0000 H   0  0  0  0  0  0  0  0  0  0  0  0
   -1.9004    4.8663    0.0000 H   0  0  0  0  0  0  0  0  0  0  0  0
   -1.0739    1.7066    0.0000 H   0  0  0  0  0  0  0  0  0  0  0  0
   -1.1195   -1.6477    0.0000 H   0  0  0  0  0  0  0  0  0  0  0  0
   -3.4168   -3.0592    0.0000 H   0  0  0  0  0  0  0  0  0  0  0  0
   -1.7652   -2.3837    0.0000 H   0  0  0  0  0  0  0  0  0  0  0  0
   -5.8008   -0.5342    0.0000 H   0  0  0  0  0  0  0  0  0  0  0  0
   -4.8751    0.1445    0.0000 H   0  0  0  0  0  0  0  0  0  0  0  0
   -6.0516   -3.8381    0.0000 H   0  0  0  0  0  0  0  0  0  0  0  0
   -4.3299   -3.3690    0.0000 H   0  0  0  0  0  0  0  0  0  0  0  0
   -7.9380   -0.9939    0.0000 H   0  0  0  0  0  0  0  0  0  0  0  0
  -10.4284   -4.1097    0.0000 H   0  0  0  0  0  0  0  0  0  0  0  0
   -9.7656   -1.5064    0.0000 H   0  0  0  0  0  0  0  0  0  0  0  0
   -8.4753   -5.8230    0.0000 H   0  0  0  0  0  0  0  0  0  0  0  0
   -6.0150   -4.9882    0.0000 H   0  0  0  0  0  0  0  0  0  0  0  0
   -5.0505   -1.8678    0.0000 H   0  0  0  0  0  0  0  0  0  0  0  0
   -4.9488    1.4853    0.0000 H   0  0  0  0  0  0  0  0  0  0  0  0
   -7.1819    2.9962    0.0000 H   0  0  0  0  0  0  0  0  0  0  0  0
   -5.4260    1.9092    0.0000 H   0  0  0  0  0  0  0  0  0  0  0  0
   -9.6744    0.5784    0.0000 H   0  0  0  0  0  0  0  0  0  0  0  0
   -8.7794   -0.1403    0.0000 H   0  0  0  0  0  0  0  0  0  0  0  0
   -9.7799    3.8901    0.0000 H   0  0  0  0  0  0  0  0  0  0  0  0
   -8.0805    3.3458    0.0000 H   0  0  0  0  0  0  0  0  0  0  0  0
  -11.7893    1.1316    0.0000 H   0  0  0  0  0  0  0  0  0  0  0  0
  -14.1405    4.3536    0.0000 H   0  0  0  0  0  0  0  0  0  0  0  0
  -13.5927    1.7238    0.0000 H   0  0  0  0  0  0  0  0  0  0  0  0
  -12.1141    5.9795    0.0000 H   0  0  0  0  0  0  0  0  0  0  0  0
   -9.6928    5.0375    0.0000 H   0  0  0  0  0  0  0  0  0  0  0  0
   -8.8663    1.8778    0.0000 H   0  0  0  0  0  0  0  0  0  0  0  0
   -8.9119   -1.4765    0.0000 H   0  0  0  0  0  0  0  0  0  0  0  0
  -11.2092   -2.8880    0.0000 H   0  0  0  0  0  0  0  0  0  0  0  0
   -9.4073   -1.8791    0.0000 H   0  0  0  0  0  0  0  0  0  0  0  0
  -13.5932   -0.3630    0.0000 H   0  0  0  0  0  0  0  0  0  0  0  0
  -12.6674    0.3157    0.0000 H   0  0  0  0  0  0  0  0  0  0  0  0
  -13.8439   -3.6669    0.0000 H   0  0  0  0  0  0  0  0  0  0  0  0
  -12.1223   -3.1978    0.0000 H   0  0  0  0  0  0  0  0  0  0  0  0
  -15.5826   -0.7145    0.0000 H   0  0  0  0  0  0  0  0  0  0  0  0
  -18.2207   -3.9385    0.0000 H   0  0  0  0  0  0  0  0  0  0  0  0
  -17.5580   -1.3352    0.0000 H   0  0  0  0  0  0  0  0  0  0  0  0
  -16.2676   -5.6518    0.0000 H   0  0  0  0  0  0  0  0  0  0  0  0
  -13.8073   -4.8170    0.0000 H   0  0  0  0  0  0  0  0  0  0  0  0
  -12.8429   -1.6966    0.0000 H   0  0  0  0  0  0  0  0  0  0  0  0
  -12.7411    1.6564    0.0000 H   0  0  0  0  0  0  0  0  0  0  0  0
  -15.1509    3.1193    0.0000 H   0  0  0  0  0  0  0  0  0  0  0  0
  -13.2184    2.0804    0.0000 H   0  0  0  0  0  0  0  0  0  0  0  0
  -16.0054   -1.1099    0.0000 H   0  0  0  0  0  0  0  0  0  0  0  0
  -19.6083   -0.3880    0.0000 H   0  0  0  0  0  0  0  0  0  0  0  0
  -21.1409    2.0090    0.0000 H   0  0  0  0  0  0  0  0  0  0  0  0
  -20.9704    5.0041    0.0000 H   0  0  0  0  0  0  0  0  0  0  0  0
  -18.2912    6.3540    0.0000 H   0  0  0  0  0  0  0  0  0  0  0  0
  -15.7826    4.7088    0.0000 H   0  0  0  0  0  0  0  0  0  0  0  0
  -16.6586    2.0489    0.0000 H   0  0  0  0  0  0  0  0  0  0  0  0
  -16.8538   -1.4111    0.0000 H   0  0  0  0  0  0  0  0  0  0  0  0
  -19.0015   -2.7168    0.0000 H   0  0  0  0  0  0  0  0  0  0  0  0
  -17.1996   -1.7080    0.0000 H   0  0  0  0  0  0  0  0  0  0  0  0
  -21.3855   -0.1918    0.0000 H   0  0  0  0  0  0  0  0  0  0  0  0
  -20.2795    0.5194    0.0000 H   0  0  0  0  0  0  0  0  0  0  0  0
  -21.6363   -3.4957    0.0000 H   0  0  0  0  0  0  0  0  0  0  0  0
  -19.9146   -3.0266    0.0000 H   0  0  0  0  0  0  0  0  0  0  0  0
  -23.5226   -0.6516    0.0000 H   0  0  0  0  0  0  0  0  0  0  0  0
  -26.0131   -3.7673    0.0000 H   0  0  0  0  0  0  0  0  0  0  0  0
  -25.3503   -1.1641    0.0000 H   0  0  0  0  0  0  0  0  0  0  0  0
  -24.0600   -5.4806    0.0000 H   0  0  0  0  0  0  0  0  0  0  0  0
  -21.5997   -4.6459    0.0000 H   0  0  0  0  0  0  0  0  0  0  0  0
  -20.6352   -1.5255    0.0000 H   0  0  0  0  0  0  0  0  0  0  0  0
  -20.4034    1.6986    0.0000 H   0  0  0  0  0  0  0  0  0  0  0  0
  -22.9433    3.2904    0.0000 H   0  0  0  0  0  0  0  0  0  0  0  0
  -21.2439    2.7462    0.0000 H   0  0  0  0  0  0  0  0  0  0  0  0
  -25.2591    0.9207    0.0000 H   0  0  0  0  0  0  0  0  0  0  0  0
  -24.3641    0.2020    0.0000 H   0  0  0  0  0  0  0  0  0  0  0  0
  -24.4510    2.2201    0.0000 H   0  0  0  0  0  0  0  0  0  0  0  0
  -24.4966   -1.1342    0.0000 H   0  0  0  0  0  0  0  0  0  0  0  0
  -26.7939   -2.5457    0.0000 H   0  0  0  0  0  0  0  0  0  0  0  0
  -24.9920   -1.5368    0.0000 H   0  0  0  0  0  0  0  0  0  0  0  0
  -29.1778   -0.0207    0.0000 H   0  0  0  0  0  0  0  0  0  0  0  0
  -28.0718    0.6906    0.0000 H   0  0  0  0  0  0  0  0  0  0  0  0
  -29.4286   -3.3246    0.0000 H   0  0  0  0  0  0  0  0  0  0  0  0
  -27.7070   -2.8555    0.0000 H   0  0  0  0  0  0  0  0  0  0  0  0
  -31.1673   -0.3721    0.0000 H   0  0  0  0  0  0  0  0  0  0  0  0
  -33.8054   -3.5962    0.0000 H   0  0  0  0  0  0  0  0  0  0  0  0
  -33.1427   -0.9929    0.0000 H   0  0  0  0  0  0  0  0  0  0  0  0
  -31.8523   -5.3095    0.0000 H   0  0  0  0  0  0  0  0  0  0  0  0
  -29.3920   -4.4747    0.0000 H   0  0  0  0  0  0  0  0  0  0  0  0
  -28.4276   -1.3543    0.0000 H   0  0  0  0  0  0  0  0  0  0  0  0
  -28.1957    1.8698    0.0000 H   0  0  0  0  0  0  0  0  0  0  0  0
  -31.4315    2.9700    0.0000 H   0  0  0  0  0  0  0  0  0  0  0  0
  -31.4863    1.1864    0.0000 H   0  0  0  0  0  0  0  0  0  0  0  0
  -28.7207    4.5667    0.0000 H   0  0  0  0  0  0  0  0  0  0  0  0
  -28.3423    2.8228    0.0000 H   0  0  0  0  0  0  0  0  0  0  0  0
  -31.0434    7.1769    0.0000 H   0  0  0  0  0  0  0  0  0  0  0  0
  -28.6221    6.2349    0.0000 H   0  0  0  0  0  0  0  0  0  0  0  0
  -32.0625    2.4207    0.0000 H   0  0  0  0  0  0  0  0  0  0  0  0
  -32.2889   -0.9630    0.0000 H   0  0  0  0  0  0  0  0  0  0  0  0
  -34.5862   -2.3745    0.0000 H   0  0  0  0  0  0  0  0  0  0  0  0
  -32.7843   -1.3656    0.0000 H   0  0  0  0  0  0  0  0  0  0  0  0
  -36.9702    0.1505    0.0000 H   0  0  0  0  0  0  0  0  0  0  0  0
  -35.6813    0.8721    0.0000 H   0  0  0  0  0  0  0  0  0  0  0  0
  -37.2210   -3.1534    0.0000 H   0  0  0  0  0  0  0  0  0  0  0  0
  -35.4993   -2.6843    0.0000 H   0  0  0  0  0  0  0  0  0  0  0  0
  -38.6302   -0.0421    0.0000 H   0  0  0  0  0  0  0  0  0  0  0  0
  -41.5978   -3.4250    0.0000 H   0  0  0  0  0  0  0  0  0  0  0  0
  -41.0905   -0.8769    0.0000 H   0  0  0  0  0  0  0  0  0  0  0  0
  -39.6447   -5.1383    0.0000 H   0  0  0  0  0  0  0  0  0  0  0  0
  -37.1844   -4.3035    0.0000 H   0  0  0  0  0  0  0  0  0  0  0  0
  1  2  1  0
  2  3  1  0
  3  4  2  0
  4  5  1  0
  5  6  2  0
  6  7  1  0
  7  8  2  0
  7  9  1  0
  9 10  1  0
 10 11  1  0
 11 12  2  0
  9 13  1  0
 13 14  1  0
 14 15  2  0
 15 16  1  0
 16 17  2  0
 17 18  1  0
 16 19  1  0
 14 20  1  0
 20 21  1  0
 21 22  2  0
 22 23  1  0
 23 24  2  0
 24 25  1  0
 25 26  2  0
 25 27  1  0
  1 28  2  0
  1 29  1  0
 29 30  1  0
 30 31  1  0
 31 32  1  0
 32 33  2  0
 32 34  1  0
 34 35  1  0
 35 36  1  0
 36 37  1  0
 36 38  1  0
 35 39  1  0
 39 40  2  0
 39 41  1  0
 41 42  1  0
 42 43  1  0
 43 44  1  0
 44 45  1  0
 45 46  1  0
 46 47  1  0
 47 48  2  3
 47 49  1  0
 42 50  1  0
 50 51  2  0
 50 52  1  0
 52 53  1  0
 53 54  1  0
 54 55  1  0
 55 56  1  0
 56 57  1  0
 56 58  2  0
 53 59  1  0
 59 60  2  0
 59 61  1  0
 61 62  1  0
 62 63  1  0
 62 64  1  0
 64 65  2  0
 64 66  1  0
 66 67  1  0
 67 68  1  0
 68 69  1  0
 69 70  1  0
 70 71  1  0
 71 72  1  0
 72 73  2  3
 72 74  1  0
 67 75  1  0
 75 76  2  0
 75 77  1  0
 77 78  1  0
 78 79  1  0
 79 80  1  0
 80 81  1  0
 81 82  1  0
 82 83  1  0
 83 84  2  3
 83 85  1  0
 78 86  1  0
 86 87  2  0
 86 88  1  0
 88 89  1  0
 89 90  1  0
 90 91  1  0
 91 92  1  0
 91 93  2  0
 89 94  1  0
 94 95  2  0
 94 96  1  0
 96 97  1  0
 97 98  1  0
 98 99  1  0
 99100  1  0
100101  1  0
101102  1  0
102103  2  3
102104  1  0
 97105  1  0
105106  2  0
105107  1  0
107108  1  0
108109  1  0
109110  1  0
110111  1  0
111112  1  0
112113  1  0
113114  2  3
113115  1  0
108116  1  0
116117  2  0
116118  1  0
118119  1  0
119120  1  0
120121  1  0
121122  1  0
122123  1  0
123124  1  0
124125  2  3
124126  1  0
119127  1  0
127128  2  0
127129  1  0
129130  1  0
130131  1  0
131132  1  0
132133  1  0
133134  1  0
134135  1  0
135136  2  3
135137  1  0
130138  1  0
138139  2  0
138140  1  0
140141  1  0
141142  1  0
142143  1  0
143144  2  0
144145  1  0
145146  1  0
146147  2  0
147148  1  0
148149  2  0
149150  1  0
150151  2  0
141152  1  0
152153  2  0
152154  1  0
154155  1  0
155156  1  0
156157  1  0
157158  1  0
158159  1  0
159160  1  0
160161  2  3
160162  1  0
155163  1  0
163164  2  0
163165  1  0
165166  1  0
166167  1  0
167168  1  0
168169  1  0
169170  2  0
169171  1  0
166172  1  0
172173  2  0
172174  1  0
174175  1  0
175176  1  0
176177  1  0
177178  1  0
178179  1  0
179180  1  0
180181  2  3
180182  1  0
175183  1  0
183184  2  0
183185  1  0
185186  1  0
186187  1  0
187188  1  0
188189  1  0
189190  1  0
189191  2  0
186192  1  0
192193  2  0
192194  1  0
194195  1  0
195196  1  0
196197  1  0
197198  1  0
198199  1  0
199200  1  0
200201  2  3
200202  1  0
195203  1  0
203204  2  0
203205  1  0
  8  3  1  0
151143  1  0
 11  6  1  0
151146  1  0
 18 13  2  0
 22  9  1  0
 26 21  1  0
  2206  1  0
  4207  1  0
  5208  1  0
  8209  1  0
 15210  1  0
 17211  1  0
 18212  1  0
 19213  1  0
 23214  1  0
 24215  1  0
 26216  1  0
 27217  1  0
 29218  1  0
 30219  1  0
 30220  1  0
 31221  1  0
 31222  1  0
 34223  1  0
 35224  1  1
 36225  1  1
 37226  1  0
 38227  1  0
 38228  1  0
 38229  1  0
 41230  1  0
 42231  1  6
 43232  1  0
 43233  1  0
 44234  1  0
 44235  1  0
 45236  1  0
 45237  1  0
 46238  1  0
 48239  1  0
 48240  1  0
 49241  1  0
 49242  1  0
 52243  1  0
 53244  1  1
 54245  1  0
 54246  1  0
 55247  1  0
 55248  1  0
 57249  1  0
 57250  1  0
 61251  1  0
 62252  1  6
 63253  1  0
 63254  1  0
 63255  1  0
 66256  1  0
 67257  1  1
 68258  1  0
 68259  1  0
 69260  1  0
 69261  1  0
 70262  1  0
 70263  1  0
 71264  1  0
 73265  1  0
 73266  1  0
 74267  1  0
 74268  1  0
 77269  1  0
 78270  1  6
 79271  1  0
 79272  1  0
 80273  1  0
 80274  1  0
 81275  1  0
 81276  1  0
 82277  1  0
 84278  1  0
 84279  1  0
 85280  1  0
 85281  1  0
 88282  1  0
 89283  1  1
 90284  1  0
 90285  1  0
 92286  1  0
 92287  1  0
 96288  1  0
 97289  1  6
 98290  1  0
 98291  1  0
 99292  1  0
 99293  1  0
100294  1  0
100295  1  0
101296  1  0
103297  1  0
103298  1  0
104299  1  0
104300  1  0
107301  1  0
108302  1  1
109303  1  0
109304  1  0
110305  1  0
110306  1  0
111307  1  0
111308  1  0
112309  1  0
114310  1  0
114311  1  0
115312  1  0
115313  1  0
118314  1  0
119315  1  6
120316  1  0
120317  1  0
121318  1  0
121319  1  0
122320  1  0
122321  1  0
123322  1  0
125323  1  0
125324  1  0
126325  1  0
126326  1  0
129327  1  0
130328  1  1
131329  1  0
131330  1  0
132331  1  0
132332  1  0
133333  1  0
133334  1  0
134335  1  0
136336  1  0
136337  1  0
137338  1  0
137339  1  0
140340  1  0
141341  1  6
142342  1  0
142343  1  0
144344  1  0
145345  1  0
147346  1  0
148347  1  0
149348  1  0
150349  1  0
154350  1  0
155351  1  1
156352  1  0
156353  1  0
157354  1  0
157355  1  0
158356  1  0
158357  1  0
159358  1  0
161359  1  0
161360  1  0
162361  1  0
162362  1  0
165363  1  0
166364  1  6
167365  1  0
167366  1  0
168367  1  0
168368  1  0
174369  1  0
175370  1  1
176371  1  0
176372  1  0
177373  1  0
177374  1  0
178375  1  0
178376  1  0
179377  1  0
181378  1  0
181379  1  0
182380  1  0
182381  1  0
185382  1  0
186383  1  6
187384  1  0
187385  1  0
188386  1  0
188387  1  0
190388  1  0
190389  1  0
194390  1  0
195391  1  1
196392  1  0
196393  1  0
197394  1  0
197395  1  0
198396  1  0
198397  1  0
199398  1  0
201399  1  0
201400  1  0
202401  1  0
202402  1  0
M  CHG  8  48   1  73   1  84   1 103   1 114   1 125   1 136   1 161   1
M  CHG  4 171  -1 181   1 201   1 205  -1
M  END
