
     RDKit          2D

243245  0  0  0  0  0  0  0  0999 V2000
   19.8954    9.2952    0.0000 N   0  0  0  0  0  0  0  0  0  0  0  0
   19.3420    7.9011    0.0000 C   0  0  0  0  0  0  0  0  0  0  0  0
   17.8579    7.6833    0.0000 C   0  0  0  0  0  0  0  0  0  0  0  0
   17.3044    6.2891    0.0000 C   0  0  0  0  0  0  0  0  0  0  0  0
   18.1702    5.6212    0.0000 O   0  0  0  0  0  0  0  0  0  0  0  0
   15.8203    6.0713    0.0000 N   0  0  0  0  0  0  0  0  0  0  0  0
   15.2669    4.6771    0.0000 C   0  0  0  0  0  0  0  0  0  0  0  0
   13.9900    5.4643    0.0000 C   0  0  0  0  0  0  0  0  0  0  0  0
   14.0332    6.9636    0.0000 C   0  0  0  0  0  0  0  0  0  0  0  0
   12.7563    7.7508    0.0000 O   0  0  0  0  0  0  0  0  0  0  0  0
   15.2567    7.8315    0.0000 O   0  0  0  0  0  0  0  0  0  0  0  0
   15.2236    3.1778    0.0000 C   0  0  0  0  0  0  0  0  0  0  0  0
   13.9035    2.4655    0.0000 O   0  0  0  0  0  0  0  0  0  0  0  0
   16.5005    2.3906    0.0000 N   0  0  0  0  0  0  0  0  0  0  0  0
   16.4573    0.8913    0.0000 C   0  0  0  0  0  0  0  0  0  0  0  0
   17.9414    1.1091    0.0000 C   0  0  0  0  0  0  0  0  0  0  0  0
   18.4948    2.5032    0.0000 C   0  0  0  0  0  0  0  0  0  0  0  0
   19.9480    2.8750    0.0000 C   0  0  0  0  0  0  0  0  0  0  0  0
   20.0436    4.3719    0.0000 N   0  0  0  0  0  0  0  0  0  0  0  0
   18.6494    4.9253    0.0000 C   0  0  0  0  0  0  0  0  0  0  0  0
   17.6922    3.7704    0.0000 N   0  0  0  0  0  0  0  0  0  0  0  0
   15.9039   -0.5029    0.0000 C   0  0  0  0  0  0  0  0  0  0  0  0
   16.5350   -0.9898    0.0000 O   0  0  0  0  0  0  0  0  0  0  0  0
   14.4198   -0.7207    0.0000 N   0  0  0  0  0  0  0  0  0  0  0  0
   13.8663   -2.1149    0.0000 C   0  0  0  0  0  0  0  0  0  0  0  0
   15.3354   -2.4178    0.0000 C   0  0  0  0  0  0  0  0  0  0  0  0
   16.3323   -1.2970    0.0000 C   0  0  0  0  0  0  0  0  0  0  0  0
   16.6123   -3.2049    0.0000 C   0  0  0  0  0  0  0  0  0  0  0  0
   17.9324   -2.4927    0.0000 C   0  0  0  0  0  0  0  0  0  0  0  0
   12.8694   -3.2357    0.0000 C   0  0  0  0  0  0  0  0  0  0  0  0
   13.6721   -4.5028    0.0000 O   0  0  0  0  0  0  0  0  0  0  0  0
   11.4003   -2.9327    0.0000 N   0  0  0  0  0  0  0  0  0  0  0  0
   10.4034   -4.0535    0.0000 C   0  0  0  0  0  0  0  0  0  0  0  0
   11.6803   -4.8407    0.0000 C   0  0  0  0  0  0  0  0  0  0  0  0
   13.0004   -4.1284    0.0000 C   0  0  0  0  0  0  0  0  0  0  0  0
   14.2773   -4.9155    0.0000 C   0  0  0  0  0  0  0  0  0  0  0  0
   15.5974   -4.2033    0.0000 C   0  0  0  0  0  0  0  0  0  0  0  0
   16.7688   -5.1402    0.0000 N   0  0  0  0  0  0  0  0  0  0  0  0
    9.0833   -4.7658    0.0000 C   0  0  0  0  0  0  0  0  0  0  0  0
    9.4042   -6.2311    0.0000 O   0  0  0  0  0  0  0  0  0  0  0  0
    7.8064   -3.9787    0.0000 N   0  0  0  0  0  0  0  0  0  0  0  0
    6.4863   -4.6909    0.0000 C   0  0  0  0  0  0  0  0  0  0  0  0
    7.4170   -5.8673    0.0000 C   0  0  0  0  0  0  0  0  0  0  0  0
    8.9011   -5.6495    0.0000 C   0  0  0  0  0  0  0  0  0  0  0  0
    9.8318   -6.8259    0.0000 O   0  0  0  0  0  0  0  0  0  0  0  0
    9.7754   -4.4307    0.0000 O   0  0  0  0  0  0  0  0  0  0  0  0
    5.0022   -4.9087    0.0000 C   0  0  0  0  0  0  0  0  0  0  0  0
    4.8026   -6.3953    0.0000 O   0  0  0  0  0  0  0  0  0  0  0  0
    4.0715   -3.7323    0.0000 N   0  0  0  0  0  0  0  0  0  0  0  0
    2.5874   -3.9501    0.0000 C   0  0  0  0  0  0  0  0  0  0  0  0
    3.0596   -5.3738    0.0000 C   0  0  0  0  0  0  0  0  0  0  0  0
    4.4808   -5.8536    0.0000 O   0  0  0  0  0  0  0  0  0  0  0  0
    1.1183   -3.6472    0.0000 C   0  0  0  0  0  0  0  0  0  0  0  0
    0.4223   -4.9759    0.0000 O   0  0  0  0  0  0  0  0  0  0  0  0
    0.6462   -2.2234    0.0000 N   0  0  0  0  0  0  0  0  0  0  0  0
   -0.8229   -1.9205    0.0000 C   0  0  0  0  0  0  0  0  0  0  0  0
   -0.8662   -3.4199    0.0000 C   0  0  0  0  0  0  0  0  0  0  0  0
    0.4107   -4.2070    0.0000 C   0  0  0  0  0  0  0  0  0  0  0  0
    0.3675   -5.7064    0.0000 C   0  0  0  0  0  0  0  0  0  0  0  0
    1.6444   -6.4935    0.0000 C   0  0  0  0  0  0  0  0  0  0  0  0
    2.9645   -5.7813    0.0000 C   0  0  0  0  0  0  0  0  0  0  0  0
    3.0077   -4.2819    0.0000 C   0  0  0  0  0  0  0  0  0  0  0  0
    1.7308   -3.4947    0.0000 C   0  0  0  0  0  0  0  0  0  0  0  0
   -2.0998   -1.1334    0.0000 C   0  0  0  0  0  0  0  0  0  0  0  0
   -3.0769   -2.2715    0.0000 O   0  0  0  0  0  0  0  0  0  0  0  0
   -2.0566    0.3660    0.0000 N   0  0  0  0  0  0  0  0  0  0  0  0
   -3.3335    1.1531    0.0000 C   0  0  0  0  0  0  0  0  0  0  0  0
   -3.5258   -0.3345    0.0000 C   0  0  0  0  0  0  0  0  0  0  0  0
   -4.1480   -1.6993    0.0000 C   0  0  0  0  0  0  0  0  0  0  0  0
   -5.1449   -2.8201    0.0000 C   0  0  0  0  0  0  0  0  0  0  0  0
   -6.4279   -3.5973    0.0000 C   0  0  0  0  0  0  0  0  0  0  0  0
   -2.0908    1.9933    0.0000 C   0  0  0  0  0  0  0  0  0  0  0  0
   -3.5882    2.6314    0.0000 C   0  0  0  0  0  0  0  0  0  0  0  0
   -2.1645    3.1035    0.0000 O   0  0  0  0  0  0  0  0  0  0  0  0
   -4.2673    3.9688    0.0000 N   0  0  0  0  0  0  0  0  0  0  0  0
   -5.3105    5.0467    0.0000 C   0  0  0  0  0  0  0  0  0  0  0  0
   -5.1926    6.5420    0.0000 C   0  0  0  0  0  0  0  0  0  0  0  0
   -3.8386    7.1876    0.0000 O   0  0  0  0  0  0  0  0  0  0  0  0
   -6.6250    5.7692    0.0000 C   0  0  0  0  0  0  0  0  0  0  0  0
   -6.1065    7.1767    0.0000 O   0  0  0  0  0  0  0  0  0  0  0  0
   -8.0941    6.0721    0.0000 N   0  0  0  0  0  0  0  0  0  0  0  0
   -9.5872    5.9286    0.0000 C   0  0  0  0  0  0  0  0  0  0  0  0
  -10.6828    6.9531    0.0000 C   0  0  0  0  0  0  0  0  0  0  0  0
  -10.3434    8.4142    0.0000 C   0  0  0  0  0  0  0  0  0  0  0  0
  -11.4390    9.4387    0.0000 C   0  0  0  0  0  0  0  0  0  0  0  0
   -9.5246    9.6710    0.0000 C   0  0  0  0  0  0  0  0  0  0  0  0
  -10.9717    5.3513    0.0000 C   0  0  0  0  0  0  0  0  0  0  0  0
  -11.7489    6.6343    0.0000 O   0  0  0  0  0  0  0  0  0  0  0  0
  -12.1245    4.3916    0.0000 N   0  0  0  0  0  0  0  0  0  0  0  0
  -12.9432    3.1347    0.0000 C   0  0  0  0  0  0  0  0  0  0  0  0
  -14.4273    2.9169    0.0000 C   0  0  0  0  0  0  0  0  0  0  0  0
  -15.3580    4.0933    0.0000 C   0  0  0  0  0  0  0  0  0  0  0  0
  -16.8421    3.8755    0.0000 C   0  0  0  0  0  0  0  0  0  0  0  0
  -17.7728    5.0519    0.0000 N   0  0  0  0  0  0  0  0  0  0  0  0
  -19.2569    4.8341    0.0000 C   0  0  0  0  0  0  0  0  0  0  0  0
  -20.1875    6.0105    0.0000 N   0  0  0  0  0  0  0  0  0  0  0  0
  -19.8103    3.4399    0.0000 N   0  0  0  0  0  0  0  0  0  0  0  0
  -13.3551    1.6924    0.0000 C   0  0  0  0  0  0  0  0  0  0  0  0
  -14.8427    1.8847    0.0000 O   0  0  0  0  0  0  0  0  0  0  0  0
  -13.3235    0.1927    0.0000 N   0  0  0  0  0  0  0  0  0  0  0  0
  -12.8513   -1.2310    0.0000 C   0  0  0  0  0  0  0  0  0  0  0  0
  -11.9805   -2.4523    0.0000 C   0  0  0  0  0  0  0  0  0  0  0  0
  -10.7883   -3.3627    0.0000 C   0  0  0  0  0  0  0  0  0  0  0  0
   -9.3808   -3.8812    0.0000 C   0  0  0  0  0  0  0  0  0  0  0  0
   -7.8829   -3.9618    0.0000 C   0  0  0  0  0  0  0  0  0  0  0  0
  -14.3433   -1.0759    0.0000 C   0  0  0  0  0  0  0  0  0  0  0  0
  -13.6064   -2.5271    0.0000 C   0  0  0  0  0  0  0  0  0  0  0  0
  -13.1986   -3.9706    0.0000 O   0  0  0  0  0  0  0  0  0  0  0  0
  -15.1064   -2.5213    0.0000 N   0  0  0  0  0  0  0  0  0  0  0  0
  -15.8614   -3.8174    0.0000 C   0  0  0  0  0  0  0  0  0  0  0  0
  -16.1276   -5.2936    0.0000 C   0  0  0  0  0  0  0  0  0  0  0  0
  -17.2634   -6.2734    0.0000 O   0  0  0  0  0  0  0  0  0  0  0  0
  -17.3614   -3.8116    0.0000 C   0  0  0  0  0  0  0  0  0  0  0  0
  -18.1064   -2.5096    0.0000 O   0  0  0  0  0  0  0  0  0  0  0  0
  -18.1165   -5.1077    0.0000 N   0  0  0  0  0  0  0  0  0  0  0  0
  -19.6164   -5.1018    0.0000 C   0  0  0  0  0  0  0  0  0  0  0  0
  -21.0240   -4.5833    0.0000 C   0  0  0  0  0  0  0  0  0  0  0  0
  -21.2787   -3.1051    0.0000 C   0  0  0  0  0  0  0  0  0  0  0  0
  -20.3715   -6.3980    0.0000 C   0  0  0  0  0  0  0  0  0  0  0  0
  -21.8610   -6.5750    0.0000 O   0  0  0  0  0  0  0  0  0  0  0  0
  -19.6266   -7.6999    0.0000 O   0  0  0  0  0  0  0  0  0  0  0  0
   21.3795    9.5130    0.0000 H   0  0  0  0  0  0  0  0  0  0  0  0
   18.9647   10.4716    0.0000 H   0  0  0  0  0  0  0  0  0  0  0  0
   20.8111    7.5981    0.0000 H   0  0  0  0  0  0  0  0  0  0  0  0
   19.2987    6.4017    0.0000 H   0  0  0  0  0  0  0  0  0  0  0  0
   17.9011    9.1826    0.0000 H   0  0  0  0  0  0  0  0  0  0  0  0
   16.3888    7.9862    0.0000 H   0  0  0  0  0  0  0  0  0  0  0  0
   15.0400    7.3524    0.0000 H   0  0  0  0  0  0  0  0  0  0  0  0
   16.7360    4.3742    0.0000 H   0  0  0  0  0  0  0  0  0  0  0  0
   12.5209    5.7672    0.0000 H   0  0  0  0  0  0  0  0  0  0  0  0
   13.4365    4.0701    0.0000 H   0  0  0  0  0  0  0  0  0  0  0  0
   17.6091    3.4012    0.0000 H   0  0  0  0  0  0  0  0  0  0  0  0
   14.9882    1.1942    0.0000 H   0  0  0  0  0  0  0  0  0  0  0  0
   19.4105    0.8061    0.0000 H   0  0  0  0  0  0  0  0  0  0  0  0
   17.8982   -0.3903    0.0000 H   0  0  0  0  0  0  0  0  0  0  0  0
   21.1030    1.9178    0.0000 H   0  0  0  0  0  0  0  0  0  0  0  0
   21.3108    5.1745    0.0000 H   0  0  0  0  0  0  0  0  0  0  0  0
   18.2777    6.3786    0.0000 H   0  0  0  0  0  0  0  0  0  0  0  0
   13.4891    0.4557    0.0000 H   0  0  0  0  0  0  0  0  0  0  0  0
   12.5894   -1.3277    0.0000 H   0  0  0  0  0  0  0  0  0  0  0  0
   14.6161   -3.7341    0.0000 H   0  0  0  0  0  0  0  0  0  0  0  0
   17.8274   -1.4186    0.0000 H   0  0  0  0  0  0  0  0  0  0  0  0
   16.8857    0.0972    0.0000 H   0  0  0  0  0  0  0  0  0  0  0  0
   15.3191   -0.1969    0.0000 H   0  0  0  0  0  0  0  0  0  0  0  0
   17.7999   -4.1211    0.0000 H   0  0  0  0  0  0  0  0  0  0  0  0
   15.9162   -4.5336    0.0000 H   0  0  0  0  0  0  0  0  0  0  0  0
   19.2093   -3.2798    0.0000 H   0  0  0  0  0  0  0  0  0  0  0  0
   18.9293   -1.3719    0.0000 H   0  0  0  0  0  0  0  0  0  0  0  0
   17.4852   -1.0609    0.0000 H   0  0  0  0  0  0  0  0  0  0  0  0
   10.9281   -1.5090    0.0000 H   0  0  0  0  0  0  0  0  0  0  0  0
    9.4728   -2.8772    0.0000 H   0  0  0  0  0  0  0  0  0  0  0  0
   12.4606   -6.1217    0.0000 H   0  0  0  0  0  0  0  0  0  0  0  0
   10.6834   -5.9615    0.0000 H   0  0  0  0  0  0  0  0  0  0  0  0
   13.8533   -2.8944    0.0000 H   0  0  0  0  0  0  0  0  0  0  0  0
   12.3821   -2.7618    0.0000 H   0  0  0  0  0  0  0  0  0  0  0  0
   15.0576   -6.1966    0.0000 H   0  0  0  0  0  0  0  0  0  0  0  0
   13.4245   -6.1495    0.0000 H   0  0  0  0  0  0  0  0  0  0  0  0
   16.8359   -3.3570    0.0000 H   0  0  0  0  0  0  0  0  0  0  0  0
   14.6668   -3.0269    0.0000 H   0  0  0  0  0  0  0  0  0  0  0  0
   18.2889   -4.4584    0.0000 H   0  0  0  0  0  0  0  0  0  0  0  0
   17.8050   -6.1668    0.0000 H   0  0  0  0  0  0  0  0  0  0  0  0
   16.0024   -6.2126    0.0000 H   0  0  0  0  0  0  0  0  0  0  0  0
    7.8497   -2.4793    0.0000 H   0  0  0  0  0  0  0  0  0  0  0  0
    6.0141   -3.2672    0.0000 H   0  0  0  0  0  0  0  0  0  0  0  0
    7.8892   -7.2910    0.0000 H   0  0  0  0  0  0  0  0  0  0  0  0
    6.0969   -6.5795    0.0000 H   0  0  0  0  0  0  0  0  0  0  0  0
    4.6250   -2.3381    0.0000 H   0  0  0  0  0  0  0  0  0  0  0  0
    2.6307   -2.4507    0.0000 H   0  0  0  0  0  0  0  0  0  0  0  0
    3.0164   -6.8732    0.0000 H   0  0  0  0  0  0  0  0  0  0  0  0
    1.5755   -5.5916    0.0000 H   0  0  0  0  0  0  0  0  0  0  0  0
    5.0009   -7.1005    0.0000 H   0  0  0  0  0  0  0  0  0  0  0  0
    1.4990   -0.9895    0.0000 H   0  0  0  0  0  0  0  0  0  0  0  0
   -0.2695   -0.5263    0.0000 H   0  0  0  0  0  0  0  0  0  0  0  0
   -1.4196   -4.8140    0.0000 H   0  0  0  0  0  0  0  0  0  0  0  0
   -2.3353   -3.1169    0.0000 H   0  0  0  0  0  0  0  0  0  0  0  0
   -0.9526   -6.4186    0.0000 H   0  0  0  0  0  0  0  0  0  0  0  0
    1.6011   -7.9929    0.0000 H   0  0  0  0  0  0  0  0  0  0  0  0
    4.1359   -6.7182    0.0000 H   0  0  0  0  0  0  0  0  0  0  0  0
    4.4609   -3.9102    0.0000 H   0  0  0  0  0  0  0  0  0  0  0  0
    1.9565   -2.0118    0.0000 H   0  0  0  0  0  0  0  0  0  0  0  0
   -0.6595    0.9120    0.0000 H   0  0  0  0  0  0  0  0  0  0  0  0
   -2.0277   -0.2582    0.0000 H   0  0  0  0  0  0  0  0  0  0  0  0
   -2.6826   -1.5750    0.0000 H   0  0  0  0  0  0  0  0  0  0  0  0
   -2.8264   -2.4088    0.0000 H   0  0  0  0  0  0  0  0  0  0  0  0
   -3.3740   -2.9842    0.0000 H   0  0  0  0  0  0  0  0  0  0  0  0
   -3.7785   -3.4390    0.0000 H   0  0  0  0  0  0  0  0  0  0  0  0
   -4.9642   -4.3092    0.0000 H   0  0  0  0  0  0  0  0  0  0  0  0
   -5.8506   -4.9818    0.0000 H   0  0  0  0  0  0  0  0  0  0  0  0
   -0.6720    1.5065    0.0000 H   0  0  0  0  0  0  0  0  0  0  0  0
   -1.2105    3.2078    0.0000 H   0  0  0  0  0  0  0  0  0  0  0  0
   -2.8422    3.2915    0.0000 H   0  0  0  0  0  0  0  0  0  0  0  0
   -3.0460    4.8397    0.0000 H   0  0  0  0  0  0  0  0  0  0  0  0
   -3.8990    5.5542    0.0000 H   0  0  0  0  0  0  0  0  0  0  0  0
   -5.5932    7.9875    0.0000 H   0  0  0  0  0  0  0  0  0  0  0  0
   -6.6760    6.7641    0.0000 H   0  0  0  0  0  0  0  0  0  0  0  0
   -3.7207    8.6830    0.0000 H   0  0  0  0  0  0  0  0  0  0  0  0
   -8.0135    7.5699    0.0000 H   0  0  0  0  0  0  0  0  0  0  0  0
   -8.9345    7.2791    0.0000 H   0  0  0  0  0  0  0  0  0  0  0  0
  -12.1241    7.3685    0.0000 H   0  0  0  0  0  0  0  0  0  0  0  0
  -11.7813    5.9317    0.0000 H   0  0  0  0  0  0  0  0  0  0  0  0
   -8.9020    7.9988    0.0000 H   0  0  0  0  0  0  0  0  0  0  0  0
  -11.2801   10.9303    0.0000 H   0  0  0  0  0  0  0  0  0  0  0  0
  -12.8189   10.0267    0.0000 H   0  0  0  0  0  0  0  0  0  0  0  0
  -12.4048    8.2910    0.0000 H   0  0  0  0  0  0  0  0  0  0  0  0
  -10.0357   11.0813    0.0000 H   0  0  0  0  0  0  0  0  0  0  0  0
   -8.3254   10.5721    0.0000 H   0  0  0  0  0  0  0  0  0  0  0  0
   -8.4290    8.6465    0.0000 H   0  0  0  0  0  0  0  0  0  0  0  0
  -13.2453    5.3885    0.0000 H   0  0  0  0  0  0  0  0  0  0  0  0
  -13.5921    4.4871    0.0000 H   0  0  0  0  0  0  0  0  0  0  0  0
  -15.6508    2.0491    0.0000 H   0  0  0  0  0  0  0  0  0  0  0  0
  -14.3137    1.4213    0.0000 H   0  0  0  0  0  0  0  0  0  0  0  0
  -15.8302    5.5171    0.0000 H   0  0  0  0  0  0  0  0  0  0  0  0
  -14.1345    4.9612    0.0000 H   0  0  0  0  0  0  0  0  0  0  0  0
  -18.1622    3.1633    0.0000 H   0  0  0  0  0  0  0  0  0  0  0  0
  -16.5470    2.4048    0.0000 H   0  0  0  0  0  0  0  0  0  0  0  0
  -17.2193    6.4461    0.0000 H   0  0  0  0  0  0  0  0  0  0  0  0
  -21.6716    5.7927    0.0000 H   0  0  0  0  0  0  0  0  0  0  0  0
  -19.6341    7.4047    0.0000 H   0  0  0  0  0  0  0  0  0  0  0  0
  -21.2944    3.2222    0.0000 H   0  0  0  0  0  0  0  0  0  0  0  0
  -18.8796    2.2636    0.0000 H   0  0  0  0  0  0  0  0  0  0  0  0
  -14.8017   -0.0620    0.0000 H   0  0  0  0  0  0  0  0  0  0  0  0
  -12.3199   -3.9134    0.0000 H   0  0  0  0  0  0  0  0  0  0  0  0
  -13.3376   -3.0912    0.0000 H   0  0  0  0  0  0  0  0  0  0  0  0
  -10.8652   -4.8607    0.0000 H   0  0  0  0  0  0  0  0  0  0  0  0
  -11.8968   -4.3732    0.0000 H   0  0  0  0  0  0  0  0  0  0  0  0
   -8.8382   -5.2796    0.0000 H   0  0  0  0  0  0  0  0  0  0  0  0
  -10.2941   -5.0711    0.0000 H   0  0  0  0  0  0  0  0  0  0  0  0
   -7.7394   -5.4549    0.0000 H   0  0  0  0  0  0  0  0  0  0  0  0
  -15.4914   -2.0412    0.0000 H   0  0  0  0  0  0  0  0  0  0  0  0
  -15.6022   -0.2602    0.0000 H   0  0  0  0  0  0  0  0  0  0  0  0
  -14.2927    0.4233    0.0000 H   0  0  0  0  0  0  0  0  0  0  0  0
  -16.0045   -1.3199    0.0000 H   0  0  0  0  0  0  0  0  0  0  0  0
  -14.4539   -4.3359    0.0000 H   0  0  0  0  0  0  0  0  0  0  0  0
  -15.8729   -6.7718    0.0000 H   0  0  0  0  0  0  0  0  0  0  0  0
  -14.6277   -5.2994    0.0000 H   0  0  0  0  0  0  0  0  0  0  0  0
  -17.8054   -7.2773    0.0000 H   0  0  0  0  0  0  0  0  0  0  0  0
  -17.5358   -6.4907    0.0000 H   0  0  0  0  0  0  0  0  0  0  0  0
  -19.1723   -3.6691    0.0000 H   0  0  0  0  0  0  0  0  0  0  0  0
  -22.5240   -4.5775    0.0000 H   0  0  0  0  0  0  0  0  0  0  0  0
  -21.4682   -6.0161    0.0000 H   0  0  0  0  0  0  0  0  0  0  0  0
  -22.6862   -2.5866    0.0000 H   0  0  0  0  0  0  0  0  0  0  0  0
  -21.0125   -1.6289    0.0000 H   0  0  0  0  0  0  0  0  0  0  0  0
  -19.7892   -2.9281    0.0000 H   0  0  0  0  0  0  0  0  0  0  0  0
  1  2  1  0
  2  3  1  0
  3  4  1  0
  4  5  2  0
  4  6  1  0
  6  7  1  0
  7  8  1  0
  8  9  1  0
  9 10  2  0
  9 11  1  0
  7 12  1  0
 12 13  2  0
 12 14  1  0
 14 15  1  0
 15 16  1  0
 16 17  1  0
 17 18  2  0
 18 19  1  0
 19 20  1  0
 20 21  2  0
 15 22  1  0
 22 23  2  0
 22 24  1  0
 24 25  1  0
 25 26  1  0
 26 27  1  0
 26 28  1  0
 28 29  1  0
 25 30  1  0
 30 31  2  0
 30 32  1  0
 32 33  1  0
 33 34  1  0
 34 35  1  0
 35 36  1  0
 36 37  1  0
 37 38  1  0
 33 39  1  0
 39 40  2  0
 39 41  1  0
 41 42  1  0
 42 43  1  0
 43 44  1  0
 44 45  2  0
 44 46  1  0
 42 47  1  0
 47 48  2  0
 47 49  1  0
 49 50  1  0
 50 51  1  0
 51 52  1  0
 50 53  1  0
 53 54  2  0
 53 55  1  0
 55 56  1  0
 56 57  1  0
 57 58  1  0
 58 59  2  0
 59 60  1  0
 60 61  2  0
 61 62  1  0
 62 63  2  0
 56 64  1  0
 64 65  2  0
 64 66  1  0
 67 66  1  1
 67 68  1  0
 68 69  1  0
 69 70  1  0
 70 71  1  0
 67 72  1  0
 67 73  1  0
 73 74  2  0
 73 75  1  0
 75 76  1  0
 76 77  1  0
 77 78  1  0
 76 79  1  0
 79 80  2  0
 79 81  1  0
 81 82  1  0
 82 83  1  0
 83 84  1  0
 84 85  1  0
 84 86  1  0
 82 87  1  0
 87 88  2  0
 87 89  1  0
 89 90  1  0
 90 91  1  0
 91 92  1  0
 92 93  1  0
 93 94  1  0
 94 95  1  0
 95 96  2  3
 95 97  1  0
 90 98  1  0
 98 99  2  0
 98100  1  0
100101  1  0
101102  1  0
102103  1  0
103104  1  0
104105  1  0
101106  1  0
101107  1  1
107108  2  0
107109  1  0
109110  1  0
110111  1  0
111112  1  0
110113  1  0
113114  2  0
113115  1  0
115116  1  0
116117  1  0
117118  1  0
116119  1  0
119120  2  0
119121  1  0
 21 17  1  0
 63 58  1  0
 71105  2  0
  1122  1  0
  1123  1  0
  2124  1  0
  2125  1  0
  3126  1  0
  3127  1  0
  6128  1  0
  7129  1  6
  8130  1  0
  8131  1  0
 14132  1  0
 15133  1  1
 16134  1  0
 16135  1  0
 18136  1  0
 19137  1  0
 20138  1  0
 24139  1  0
 25140  1  1
 26141  1  6
 27142  1  0
 27143  1  0
 27144  1  0
 28145  1  0
 28146  1  0
 29147  1  0
 29148  1  0
 29149  1  0
 32150  1  0
 33151  1  1
 34152  1  0
 34153  1  0
 35154  1  0
 35155  1  0
 36156  1  0
 36157  1  0
 37158  1  0
 37159  1  0
 38160  1  0
 38161  1  0
 38162  1  0
 41163  1  0
 42164  1  1
 43165  1  0
 43166  1  0
 49167  1  0
 50168  1  1
 51169  1  0
 51170  1  0
 52171  1  0
 55172  1  0
 56173  1  1
 57174  1  0
 57175  1  0
 59176  1  0
 60177  1  0
 61178  1  0
 62179  1  0
 63180  1  0
 66181  1  0
 68182  1  0
 68183  1  0
 69184  1  0
 69185  1  0
 70186  1  0
 70187  1  0
 71188  1  0
 72189  1  0
 72190  1  0
 72191  1  0
 75192  1  0
 76193  1  6
 77194  1  0
 77195  1  0
 78196  1  0
 81197  1  0
 82198  1  6
 83199  1  0
 83200  1  0
 84201  1  0
 85202  1  0
 85203  1  0
 85204  1  0
 86205  1  0
 86206  1  0
 86207  1  0
 89208  1  0
 90209  1  6
 91210  1  0
 91211  1  0
 92212  1  0
 92213  1  0
 93214  1  0
 93215  1  0
 94216  1  0
 96217  1  0
 96218  1  0
 97219  1  0
 97220  1  0
100221  1  0
102222  1  0
102223  1  0
103224  1  0
103225  1  0
104226  1  0
104227  1  0
105228  1  0
106229  1  0
106230  1  0
106231  1  0
109232  1  0
110233  1  1
111234  1  0
111235  1  0
112236  1  0
115237  1  0
116238  1  6
117239  1  0
117240  1  0
118241  1  0
118242  1  0
118243  1  0
M  CHG  5  11  -1  38   1  46  -1  96   1 121  -1
M  END
