
     RDKit          2D

313320  0  0  0  0  0  0  0  0999 V2000
  -22.1652   -8.3800    0.0000 C   0  0  0  0  0  0  0  0  0  0  0  0
  -21.8719   -9.8510    0.0000 N   0  0  0  0  0  0  0  0  0  0  0  0
  -22.9992  -10.8406    0.0000 C   0  0  0  0  0  0  0  0  0  0  0  0
  -24.4198  -10.3591    0.0000 C   0  0  0  0  0  0  0  0  0  0  0  0
  -25.5471  -11.3486    0.0000 C   0  0  0  0  0  0  0  0  0  0  0  0
  -25.2538  -12.8197    0.0000 C   0  0  0  0  0  0  0  0  0  0  0  0
  -23.8332  -13.3012    0.0000 C   0  0  0  0  0  0  0  0  0  0  0  0
  -22.7059  -12.3116    0.0000 C   0  0  0  0  0  0  0  0  0  0  0  0
  -23.8521  -14.8011    0.0000 C   0  0  0  0  0  0  0  0  0  0  0  0
  -25.2844  -15.2465    0.0000 O   0  0  0  0  0  0  0  0  0  0  0  0
  -26.1507  -14.0220    0.0000 C   0  0  0  0  0  0  0  0  0  0  0  0
  -27.6506  -14.0030    0.0000 O   0  0  0  0  0  0  0  0  0  0  0  0
  -24.0277  -16.2907    0.0000 C   0  0  0  0  0  0  0  0  0  0  0  0
  -22.8254  -17.1877    0.0000 C   0  0  0  0  0  0  0  0  0  0  0  0
  -23.0011  -18.6774    0.0000 C   0  0  0  0  0  0  0  0  0  0  0  0
  -24.3790  -19.2701    0.0000 C   0  0  0  0  0  0  0  0  0  0  0  0
  -25.5813  -18.3732    0.0000 C   0  0  0  0  0  0  0  0  0  0  0  0
  -25.4056  -16.8835    0.0000 C   0  0  0  0  0  0  0  0  0  0  0  0
  -24.5546  -20.7598    0.0000 O   0  0  0  0  0  0  0  0  0  0  0  0
  -21.4475  -16.5949    0.0000 O   0  0  0  0  0  0  0  0  0  0  0  0
  -21.2719  -15.1052    0.0000 C   0  0  0  0  0  0  0  0  0  0  0  0
  -22.4742  -14.2083    0.0000 C   0  0  0  0  0  0  0  0  0  0  0  0
  -21.7375  -13.1372    0.0000 C   0  0  0  0  0  0  0  0  0  0  0  0
  -21.0026  -12.8210    0.0000 C   0  0  0  0  0  0  0  0  0  0  0  0
  -20.3614  -13.2994    0.0000 C   0  0  0  0  0  0  0  0  0  0  0  0
  -20.4551  -14.0939    0.0000 C   0  0  0  0  0  0  0  0  0  0  0  0
  -18.3405  -12.4300    0.0000 O   0  0  0  0  0  0  0  0  0  0  0  0
  -23.5858   -7.8985    0.0000 S   0  0  0  0  0  0  0  0  0  0  0  0
  -21.0379   -7.3905    0.0000 N   0  0  0  0  0  0  0  0  0  0  0  0
  -21.3312   -5.9194    0.0000 C   0  0  0  0  0  0  0  0  0  0  0  0
  -20.2039   -4.9299    0.0000 C   0  0  0  0  0  0  0  0  0  0  0  0
  -20.4972   -3.4588    0.0000 O   0  0  0  0  0  0  0  0  0  0  0  0
  -19.3699   -2.4693    0.0000 C   0  0  0  0  0  0  0  0  0  0  0  0
  -19.6633   -0.9983    0.0000 C   0  0  0  0  0  0  0  0  0  0  0  0
  -18.5360   -0.0087    0.0000 O   0  0  0  0  0  0  0  0  0  0  0  0
  -18.8293    1.4623    0.0000 C   0  0  0  0  0  0  0  0  0  0  0  0
  -17.7020    2.4519    0.0000 C   0  0  0  0  0  0  0  0  0  0  0  0
  -16.2813    1.9704    0.0000 O   0  0  0  0  0  0  0  0  0  0  0  0
  -17.9953    3.9229    0.0000 N   0  0  0  0  0  0  0  0  0  0  0  0
  -19.3578    4.5503    0.0000 C   0  0  0  0  0  0  0  0  0  0  0  0
  -19.1822    6.0400    0.0000 C   0  0  0  0  0  0  0  0  0  0  0  0
  -17.7111    6.3333    0.0000 C   0  0  0  0  0  0  0  0  0  0  0  0
  -16.9776    5.0249    0.0000 C   0  0  0  0  0  0  0  0  0  0  0  0
  -15.7530    5.8911    0.0000 C   0  0  0  0  0  0  0  0  0  0  0  0
  -15.7079    7.3905    0.0000 O   0  0  0  0  0  0  0  0  0  0  0  0
  -14.3905    5.2638    0.0000 N   0  0  0  0  0  0  0  0  0  0  0  0
  -13.1660    6.1301    0.0000 C   0  0  0  0  0  0  0  0  0  0  0  0
  -12.3115    7.3629    0.0000 C   0  0  0  0  0  0  0  0  0  0  0  0
  -10.8166    7.2394    0.0000 C   0  0  0  0  0  0  0  0  0  0  0  0
   -9.9622    8.4723    0.0000 C   0  0  0  0  0  0  0  0  0  0  0  0
   -8.4818    8.7142    0.0000 O   0  0  0  0  0  0  0  0  0  0  0  0
  -10.9119    9.6334    0.0000 O   0  0  0  0  0  0  0  0  0  0  0  0
  -11.8035    5.5027    0.0000 C   0  0  0  0  0  0  0  0  0  0  0  0
  -11.8486    4.0034    0.0000 O   0  0  0  0  0  0  0  0  0  0  0  0
  -10.5789    6.3690    0.0000 N   0  0  0  0  0  0  0  0  0  0  0  0
   -9.2164    5.7416    0.0000 C   0  0  0  0  0  0  0  0  0  0  0  0
   -8.7852    4.3049    0.0000 C   0  0  0  0  0  0  0  0  0  0  0  0
   -7.9497    3.0592    0.0000 C   0  0  0  0  0  0  0  0  0  0  0  0
   -6.7842    2.1150    0.0000 C   0  0  0  0  0  0  0  0  0  0  0  0
   -5.3921    1.5563    0.0000 C   0  0  0  0  0  0  0  0  0  0  0  0
  -10.4601    4.9031    0.0000 C   0  0  0  0  0  0  0  0  0  0  0  0
   -9.2049    7.2416    0.0000 C   0  0  0  0  0  0  0  0  0  0  0  0
   -9.8952    7.6403    0.0000 O   0  0  0  0  0  0  0  0  0  0  0  0
   -8.7519    8.6715    0.0000 N   0  0  0  0  0  0  0  0  0  0  0  0
   -7.8974    9.9044    0.0000 C   0  0  0  0  0  0  0  0  0  0  0  0
   -8.2565   11.3608    0.0000 C   0  0  0  0  0  0  0  0  0  0  0  0
   -9.6972   11.7781    0.0000 C   0  0  0  0  0  0  0  0  0  0  0  0
   -8.0957   12.8522    0.0000 C   0  0  0  0  0  0  0  0  0  0  0  0
   -9.3069   13.7371    0.0000 C   0  0  0  0  0  0  0  0  0  0  0  0
   -6.7176   10.8307    0.0000 C   0  0  0  0  0  0  0  0  0  0  0  0
   -7.2931   12.2159    0.0000 O   0  0  0  0  0  0  0  0  0  0  0  0
   -5.3171   11.3680    0.0000 N   0  0  0  0  0  0  0  0  0  0  0  0
   -3.8205   11.4686    0.0000 C   0  0  0  0  0  0  0  0  0  0  0  0
   -2.9057   12.6574    0.0000 C   0  0  0  0  0  0  0  0  0  0  0  0
   -3.4778   14.0440    0.0000 C   0  0  0  0  0  0  0  0  0  0  0  0
   -2.5629   15.2328    0.0000 C   0  0  0  0  0  0  0  0  0  0  0  0
   -4.4896   15.1514    0.0000 C   0  0  0  0  0  0  0  0  0  0  0  0
   -2.3607   11.1237    0.0000 C   0  0  0  0  0  0  0  0  0  0  0  0
   -1.8020   12.5158    0.0000 O   0  0  0  0  0  0  0  0  0  0  0  0
   -1.0674   10.3638    0.0000 N   0  0  0  0  0  0  0  0  0  0  0  0
   -0.0556    9.2565    0.0000 C   0  0  0  0  0  0  0  0  0  0  0  0
    1.4442    9.2824    0.0000 C   0  0  0  0  0  0  0  0  0  0  0  0
    2.1716   10.5942    0.0000 C   0  0  0  0  0  0  0  0  0  0  0  0
    3.6714   10.6201    0.0000 O   0  0  0  0  0  0  0  0  0  0  0  0
    1.3992   11.8801    0.0000 O   0  0  0  0  0  0  0  0  0  0  0  0
    0.5849    7.9001    0.0000 C   0  0  0  0  0  0  0  0  0  0  0  0
    2.0216    8.3312    0.0000 O   0  0  0  0  0  0  0  0  0  0  0  0
    0.7971    6.4152    0.0000 N   0  0  0  0  0  0  0  0  0  0  0  0
    0.5622    4.9337    0.0000 C   0  0  0  0  0  0  0  0  0  0  0  0
   -0.0989    3.5872    0.0000 C   0  0  0  0  0  0  0  0  0  0  0  0
   -1.1276    2.4955    0.0000 C   0  0  0  0  0  0  0  0  0  0  0  0
   -2.4323    1.7554    0.0000 C   0  0  0  0  0  0  0  0  0  0  0  0
   -3.8972    1.4328    0.0000 C   0  0  0  0  0  0  0  0  0  0  0  0
    2.0092    5.3289    0.0000 C   0  0  0  0  0  0  0  0  0  0  0  0
    1.5176    3.7773    0.0000 C   0  0  0  0  0  0  0  0  0  0  0  0
    1.3495    2.2867    0.0000 O   0  0  0  0  0  0  0  0  0  0  0  0
    2.9967    4.0264    0.0000 N   0  0  0  0  0  0  0  0  0  0  0  0
    3.9521    2.8700    0.0000 C   0  0  0  0  0  0  0  0  0  0  0  0
    4.4544    1.4566    0.0000 C   0  0  0  0  0  0  0  0  0  0  0  0
    3.4814    0.3150    0.0000 C   0  0  0  0  0  0  0  0  0  0  0  0
    3.8332   -1.1432    0.0000 C   0  0  0  0  0  0  0  0  0  0  0  0
    2.5551   -1.9284    0.0000 N   0  0  0  0  0  0  0  0  0  0  0  0
    1.4134   -0.9554    0.0000 C   0  0  0  0  0  0  0  0  0  0  0  0
    1.9859    0.4310    0.0000 N   0  0  0  0  0  0  0  0  0  0  0  0
    5.4313    3.1192    0.0000 C   0  0  0  0  0  0  0  0  0  0  0  0
    5.9551    4.5248    0.0000 O   0  0  0  0  0  0  0  0  0  0  0  0
    6.3867    1.9628    0.0000 N   0  0  0  0  0  0  0  0  0  0  0  0
    7.8658    2.2120    0.0000 C   0  0  0  0  0  0  0  0  0  0  0  0
    9.1705    2.9521    0.0000 C   0  0  0  0  0  0  0  0  0  0  0  0
   10.5468    2.3555    0.0000 C   0  0  0  0  0  0  0  0  0  0  0  0
    8.8212    1.0556    0.0000 C   0  0  0  0  0  0  0  0  0  0  0  0
    8.2974   -0.3500    0.0000 O   0  0  0  0  0  0  0  0  0  0  0  0
   10.3003    1.3048    0.0000 N   0  0  0  0  0  0  0  0  0  0  0  0
   11.2557    0.1484    0.0000 C   0  0  0  0  0  0  0  0  0  0  0  0
   11.7580   -1.2650    0.0000 C   0  0  0  0  0  0  0  0  0  0  0  0
   10.7850   -2.4067    0.0000 C   0  0  0  0  0  0  0  0  0  0  0  0
   11.2873   -3.8201    0.0000 C   0  0  0  0  0  0  0  0  0  0  0  0
   10.3143   -4.9618    0.0000 N   0  0  0  0  0  0  0  0  0  0  0  0
   10.8166   -6.3752    0.0000 C   0  0  0  0  0  0  0  0  0  0  0  0
    9.8437   -7.5169    0.0000 N   0  0  0  0  0  0  0  0  0  0  0  0
   12.2918   -6.6470    0.0000 N   0  0  0  0  0  0  0  0  0  0  0  0
   12.7349    0.3976    0.0000 C   0  0  0  0  0  0  0  0  0  0  0  0
   13.2587    1.8031    0.0000 O   0  0  0  0  0  0  0  0  0  0  0  0
   13.6902   -0.7588    0.0000 N   0  0  0  0  0  0  0  0  0  0  0  0
   15.1694   -0.5097    0.0000 C   0  0  0  0  0  0  0  0  0  0  0  0
   16.4741    0.2304    0.0000 C   0  0  0  0  0  0  0  0  0  0  0  0
   17.7674   -0.5295    0.0000 C   0  0  0  0  0  0  0  0  0  0  0  0
   19.0721    0.2105    0.0000 C   0  0  0  0  0  0  0  0  0  0  0  0
   20.3654   -0.5494    0.0000 N   0  0  0  0  0  0  0  0  0  0  0  0
   21.6701    0.1907    0.0000 C   0  0  0  0  0  0  0  0  0  0  0  0
   22.8611   -0.7212    0.0000 N   0  0  0  0  0  0  0  0  0  0  0  0
   21.6816    1.6906    0.0000 N   0  0  0  0  0  0  0  0  0  0  0  0
   16.1248   -1.6661    0.0000 C   0  0  0  0  0  0  0  0  0  0  0  0
   15.6010   -3.0716    0.0000 O   0  0  0  0  0  0  0  0  0  0  0  0
   17.6039   -1.4169    0.0000 N   0  0  0  0  0  0  0  0  0  0  0  0
   18.5593   -2.5733    0.0000 C   0  0  0  0  0  0  0  0  0  0  0  0
   19.0616   -3.9867    0.0000 C   0  0  0  0  0  0  0  0  0  0  0  0
   18.0886   -5.1284    0.0000 C   0  0  0  0  0  0  0  0  0  0  0  0
   20.0385   -2.3241    0.0000 C   0  0  0  0  0  0  0  0  0  0  0  0
   20.8868   -1.0870    0.0000 O   0  0  0  0  0  0  0  0  0  0  0  0
   20.9938   -3.4805    0.0000 N   0  0  0  0  0  0  0  0  0  0  0  0
   22.4730   -3.2313    0.0000 C   0  0  0  0  0  0  0  0  0  0  0  0
   23.7777   -2.4913    0.0000 C   0  0  0  0  0  0  0  0  0  0  0  0
   25.0710   -3.2512    0.0000 C   0  0  0  0  0  0  0  0  0  0  0  0
   26.3757   -2.5111    0.0000 S   0  0  0  0  0  0  0  0  0  0  0  0
   27.7520   -3.1077    0.0000 C   0  0  0  0  0  0  0  0  0  0  0  0
   23.4284   -4.3877    0.0000 C   0  0  0  0  0  0  0  0  0  0  0  0
   22.9046   -5.7933    0.0000 O   0  0  0  0  0  0  0  0  0  0  0  0
   24.9075   -4.1386    0.0000 N   0  0  0  0  0  0  0  0  0  0  0  0
   25.8629   -5.2950    0.0000 C   0  0  0  0  0  0  0  0  0  0  0  0
   26.3652   -6.7084    0.0000 C   0  0  0  0  0  0  0  0  0  0  0  0
   25.3922   -7.8500    0.0000 C   0  0  0  0  0  0  0  0  0  0  0  0
   25.8945   -9.2635    0.0000 C   0  0  0  0  0  0  0  0  0  0  0  0
   24.9215  -10.4051    0.0000 N   0  0  0  0  0  0  0  0  0  0  0  0
   25.4238  -11.8185    0.0000 C   0  0  0  0  0  0  0  0  0  0  0  0
   24.4509  -12.9602    0.0000 N   0  0  0  0  0  0  0  0  0  0  0  0
   26.8990  -12.0903    0.0000 N   0  0  0  0  0  0  0  0  0  0  0  0
   27.3421   -5.0458    0.0000 C   0  0  0  0  0  0  0  0  0  0  0  0
   28.4313   -6.0771    0.0000 O   0  0  0  0  0  0  0  0  0  0  0  0
   28.0333   -3.7145    0.0000 O   0  0  0  0  0  0  0  0  0  0  0  0
  -20.4032  -10.1558    0.0000 H   0  0  0  0  0  0  0  0  0  0  0  0
  -24.7131   -8.8880    0.0000 H   0  0  0  0  0  0  0  0  0  0  0  0
  -26.9677  -10.8671    0.0000 H   0  0  0  0  0  0  0  0  0  0  0  0
  -21.2110  -12.4351    0.0000 H   0  0  0  0  0  0  0  0  0  0  0  0
  -21.7988  -19.5743    0.0000 H   0  0  0  0  0  0  0  0  0  0  0  0
  -26.9592  -18.9659    0.0000 H   0  0  0  0  0  0  0  0  0  0  0  0
  -26.6079  -15.9866    0.0000 H   0  0  0  0  0  0  0  0  0  0  0  0
  -25.9325  -21.3525    0.0000 H   0  0  0  0  0  0  0  0  0  0  0  0
  -23.5009  -11.8217    0.0000 H   0  0  0  0  0  0  0  0  0  0  0  0
  -20.5648  -10.6687    0.0000 H   0  0  0  0  0  0  0  0  0  0  0  0
  -18.6917  -15.4094    0.0000 H   0  0  0  0  0  0  0  0  0  0  0  0
  -17.1382  -13.3270    0.0000 H   0  0  0  0  0  0  0  0  0  0  0  0
  -19.6173   -7.8720    0.0000 H   0  0  0  0  0  0  0  0  0  0  0  0
  -22.1100   -4.6374    0.0000 H   0  0  0  0  0  0  0  0  0  0  0  0
  -22.7290   -6.4637    0.0000 H   0  0  0  0  0  0  0  0  0  0  0  0
  -18.7502   -4.5600    0.0000 H   0  0  0  0  0  0  0  0  0  0  0  0
  -19.4252   -6.2119    0.0000 H   0  0  0  0  0  0  0  0  0  0  0  0
  -17.9722   -1.9250    0.0000 H   0  0  0  0  0  0  0  0  0  0  0  0
  -18.4407   -3.6468    0.0000 H   0  0  0  0  0  0  0  0  0  0  0  0
  -20.5925    0.1793    0.0000 H   0  0  0  0  0  0  0  0  0  0  0  0
  -21.0610   -1.5426    0.0000 H   0  0  0  0  0  0  0  0  0  0  0  0
  -19.7585    2.6398    0.0000 H   0  0  0  0  0  0  0  0  0  0  0  0
  -20.2830    1.0925    0.0000 H   0  0  0  0  0  0  0  0  0  0  0  0
  -20.0089    3.1989    0.0000 H   0  0  0  0  0  0  0  0  0  0  0  0
  -20.8210    4.8806    0.0000 H   0  0  0  0  0  0  0  0  0  0  0  0
  -20.6821    6.0589    0.0000 H   0  0  0  0  0  0  0  0  0  0  0  0
  -19.3201    7.5336    0.0000 H   0  0  0  0  0  0  0  0  0  0  0  0
  -18.1566    7.7656    0.0000 H   0  0  0  0  0  0  0  0  0  0  0  0
  -16.4157    7.0896    0.0000 H   0  0  0  0  0  0  0  0  0  0  0  0
  -15.9881    3.8976    0.0000 H   0  0  0  0  0  0  0  0  0  0  0  0
  -14.2526    3.7701    0.0000 H   0  0  0  0  0  0  0  0  0  0  0  0
  -14.2317    7.1856    0.0000 H   0  0  0  0  0  0  0  0  0  0  0  0
  -11.9303    8.8137    0.0000 H   0  0  0  0  0  0  0  0  0  0  0  0
  -13.6740    7.9903    0.0000 H   0  0  0  0  0  0  0  0  0  0  0  0
   -9.3428    6.9604    0.0000 H   0  0  0  0  0  0  0  0  0  0  0  0
  -10.6525    5.7484    0.0000 H   0  0  0  0  0  0  0  0  0  0  0  0
   -9.7268   11.0224    0.0000 H   0  0  0  0  0  0  0  0  0  0  0  0
  -10.5337    7.8683    0.0000 H   0  0  0  0  0  0  0  0  0  0  0  0
  -10.2851    4.3201    0.0000 H   0  0  0  0  0  0  0  0  0  0  0  0
   -9.5771    3.0310    0.0000 H   0  0  0  0  0  0  0  0  0  0  0  0
   -9.3246    2.4595    0.0000 H   0  0  0  0  0  0  0  0  0  0  0  0
   -8.5050    1.6657    0.0000 H   0  0  0  0  0  0  0  0  0  0  0  0
   -8.0320    1.2826    0.0000 H   0  0  0  0  0  0  0  0  0  0  0  0
   -6.7208    0.6163    0.0000 H   0  0  0  0  0  0  0  0  0  0  0  0
   -5.7370    0.0965    0.0000 H   0  0  0  0  0  0  0  0  0  0  0  0
  -10.4659    3.2371    0.0000 H   0  0  0  0  0  0  0  0  0  0  0  0
  -11.6562    4.0684    0.0000 H   0  0  0  0  0  0  0  0  0  0  0  0
  -11.4859    5.7309    0.0000 H   0  0  0  0  0  0  0  0  0  0  0  0
  -10.0077    9.4919    0.0000 H   0  0  0  0  0  0  0  0  0  0  0  0
   -9.3947    9.9943    0.0000 H   0  0  0  0  0  0  0  0  0  0  0  0
   -6.8287   11.8206    0.0000 H   0  0  0  0  0  0  0  0  0  0  0  0
  -10.2311   13.1799    0.0000 H   0  0  0  0  0  0  0  0  0  0  0  0
  -11.1939   11.6774    0.0000 H   0  0  0  0  0  0  0  0  0  0  0  0
  -10.0592   10.3262    0.0000 H   0  0  0  0  0  0  0  0  0  0  0  0
   -7.4346   14.1986    0.0000 H   0  0  0  0  0  0  0  0  0  0  0  0
   -6.6148   12.6136    0.0000 H   0  0  0  0  0  0  0  0  0  0  0  0
   -9.1461   15.2284    0.0000 H   0  0  0  0  0  0  0  0  0  0  0  0
  -10.7477   14.1543    0.0000 H   0  0  0  0  0  0  0  0  0  0  0  0
  -10.2742   12.5906    0.0000 H   0  0  0  0  0  0  0  0  0  0  0  0
   -5.6397   12.8329    0.0000 H   0  0  0  0  0  0  0  0  0  0  0  0
   -4.6838   12.6953    0.0000 H   0  0  0  0  0  0  0  0  0  0  0  0
   -1.5509   13.3012    0.0000 H   0  0  0  0  0  0  0  0  0  0  0  0
   -1.6560   11.8278    0.0000 H   0  0  0  0  0  0  0  0  0  0  0  0
   -4.8326   13.4002    0.0000 H   0  0  0  0  0  0  0  0  0  0  0  0
   -2.9617   16.6788    0.0000 H   0  0  0  0  0  0  0  0  0  0  0  0
   -1.2967   16.0369    0.0000 H   0  0  0  0  0  0  0  0  0  0  0  0
   -1.4237   14.2570    0.0000 H   0  0  0  0  0  0  0  0  0  0  0  0
   -4.2142   16.6259    0.0000 H   0  0  0  0  0  0  0  0  0  0  0  0
   -5.8191   15.8458    0.0000 H   0  0  0  0  0  0  0  0  0  0  0  0
   -5.4044   13.9626    0.0000 H   0  0  0  0  0  0  0  0  0  0  0  0
   -0.1233   11.5294    0.0000 H   0  0  0  0  0  0  0  0  0  0  0  0
    0.5376   10.6342    0.0000 H   0  0  0  0  0  0  0  0  0  0  0  0
    2.8624    8.7938    0.0000 H   0  0  0  0  0  0  0  0  0  0  0  0
    1.5747    7.7881    0.0000 H   0  0  0  0  0  0  0  0  0  0  0  0
    2.1267   13.1919    0.0000 H   0  0  0  0  0  0  0  0  0  0  0  0
    2.2971    6.4037    0.0000 H   0  0  0  0  0  0  0  0  0  0  0  0
    0.4732    2.2006    0.0000 H   0  0  0  0  0  0  0  0  0  0  0  0
    1.3439    3.1771    0.0000 H   0  0  0  0  0  0  0  0  0  0  0  0
   -0.8086    1.0298    0.0000 H   0  0  0  0  0  0  0  0  0  0  0  0
    0.1303    1.6782    0.0000 H   0  0  0  0  0  0  0  0  0  0  0  0
   -2.7407    0.2875    0.0000 H   0  0  0  0  0  0  0  0  0  0  0  0
   -1.3380    0.7295    0.0000 H   0  0  0  0  0  0  0  0  0  0  0  0
   -3.7965   -0.0638    0.0000 H   0  0  0  0  0  0  0  0  0  0  0  0
    3.2987    4.5626    0.0000 H   0  0  0  0  0  0  0  0  0  0  0  0
    3.1190    6.3380    0.0000 H   0  0  0  0  0  0  0  0  0  0  0  0
    1.7160    6.7999    0.0000 H   0  0  0  0  0  0  0  0  0  0  0  0
    3.6880    5.3577    0.0000 H   0  0  0  0  0  0  0  0  0  0  0  0
    2.6474    2.1300    0.0000 H   0  0  0  0  0  0  0  0  0  0  0  0
    5.2617    0.1924    0.0000 H   0  0  0  0  0  0  0  0  0  0  0  0
    5.8994    1.8590    0.0000 H   0  0  0  0  0  0  0  0  0  0  0  0
    5.2196   -1.7157    0.0000 H   0  0  0  0  0  0  0  0  0  0  0  0
    2.4390   -3.4239    0.0000 H   0  0  0  0  0  0  0  0  0  0  0  0
   -0.0448   -1.3072    0.0000 H   0  0  0  0  0  0  0  0  0  0  0  0
    6.0381    0.5039    0.0000 H   0  0  0  0  0  0  0  0  0  0  0  0
    7.3636    3.6254    0.0000 H   0  0  0  0  0  0  0  0  0  0  0  0
   10.1435    4.0937    0.0000 H   0  0  0  0  0  0  0  0  0  0  0  0
    8.2152    4.1085    0.0000 H   0  0  0  0  0  0  0  0  0  0  0  0
   11.7685    2.9322    0.0000 H   0  0  0  0  0  0  0  0  0  0  0  0
   11.4192    1.0357    0.0000 H   0  0  0  0  0  0  0  0  0  0  0  0
   10.1409    0.7273    0.0000 H   0  0  0  0  0  0  0  0  0  0  0  0
   10.9916    2.6360    0.0000 H   0  0  0  0  0  0  0  0  0  0  0  0
    9.8705   -0.4271    0.0000 H   0  0  0  0  0  0  0  0  0  0  0  0
   12.7133   -2.4214    0.0000 H   0  0  0  0  0  0  0  0  0  0  0  0
   13.2030   -0.8627    0.0000 H   0  0  0  0  0  0  0  0  0  0  0  0
    9.4803   -3.1468    0.0000 H   0  0  0  0  0  0  0  0  0  0  0  0
    9.6958   -1.3754    0.0000 H   0  0  0  0  0  0  0  0  0  0  0  0
   12.2427   -4.9765    0.0000 H   0  0  0  0  0  0  0  0  0  0  0  0
   12.6725   -3.2446    0.0000 H   0  0  0  0  0  0  0  0  0  0  0  0
    8.8392   -4.6900    0.0000 H   0  0  0  0  0  0  0  0  0  0  0  0
   10.3459   -8.9303    0.0000 H   0  0  0  0  0  0  0  0  0  0  0  0
   12.7940   -8.0604    0.0000 H   0  0  0  0  0  0  0  0  0  0  0  0
   13.2647   -5.5053    0.0000 H   0  0  0  0  0  0  0  0  0  0  0  0
   13.3417   -2.2178    0.0000 H   0  0  0  0  0  0  0  0  0  0  0  0
   14.6672    0.9038    0.0000 H   0  0  0  0  0  0  0  0  0  0  0  0
   17.3007    1.4821    0.0000 H   0  0  0  0  0  0  0  0  0  0  0  0
   15.5188    1.3868    0.0000 H   0  0  0  0  0  0  0  0  0  0  0  0
   18.7228   -1.6859    0.0000 H   0  0  0  0  0  0  0  0  0  0  0  0
   17.4445   -1.9943    0.0000 H   0  0  0  0  0  0  0  0  0  0  0  0
   20.0451    1.3522    0.0000 H   0  0  0  0  0  0  0  0  0  0  0  0
   18.2648    1.4748    0.0000 H   0  0  0  0  0  0  0  0  0  0  0  0
   20.7172   -2.0075    0.0000 H   0  0  0  0  0  0  0  0  0  0  0  0
   24.2681    0.1708    0.0000 H   0  0  0  0  0  0  0  0  0  0  0  0
   22.9863    2.4307    0.0000 H   0  0  0  0  0  0  0  0  0  0  0  0
   20.3883    2.4505    0.0000 H   0  0  0  0  0  0  0  0  0  0  0  0
   18.4523   -0.1798    0.0000 H   0  0  0  0  0  0  0  0  0  0  0  0
   17.1741   -3.1488    0.0000 H   0  0  0  0  0  0  0  0  0  0  0  0
   19.8689   -5.2509    0.0000 H   0  0  0  0  0  0  0  0  0  0  0  0
   20.5066   -3.5844    0.0000 H   0  0  0  0  0  0  0  0  0  0  0  0
   18.5909   -6.5418    0.0000 H   0  0  0  0  0  0  0  0  0  0  0  0
   16.7839   -5.8684    0.0000 H   0  0  0  0  0  0  0  0  0  0  0  0
   16.9994   -4.0971    0.0000 H   0  0  0  0  0  0  0  0  0  0  0  0
   20.6453   -4.9395    0.0000 H   0  0  0  0  0  0  0  0  0  0  0  0
   21.9708   -1.8179    0.0000 H   0  0  0  0  0  0  0  0  0  0  0  0
   24.7507   -1.3496    0.0000 H   0  0  0  0  0  0  0  0  0  0  0  0
   22.6885   -1.4600    0.0000 H   0  0  0  0  0  0  0  0  0  0  0  0
   25.8783   -4.5154    0.0000 H   0  0  0  0  0  0  0  0  0  0  0  0
   24.7481   -4.7160    0.0000 H   0  0  0  0  0  0  0  0  0  0  0  0
   28.9737   -2.5310    0.0000 H   0  0  0  0  0  0  0  0  0  0  0  0
   28.6244   -4.4274    0.0000 H   0  0  0  0  0  0  0  0  0  0  0  0
   26.8630   -4.5317    0.0000 H   0  0  0  0  0  0  0  0  0  0  0  0
   25.7559   -2.9015    0.0000 H   0  0  0  0  0  0  0  0  0  0  0  0
   24.4777   -5.8704    0.0000 H   0  0  0  0  0  0  0  0  0  0  0  0
   27.4544   -7.7397    0.0000 H   0  0  0  0  0  0  0  0  0  0  0  0
   27.7504   -6.1329    0.0000 H   0  0  0  0  0  0  0  0  0  0  0  0
   24.0875   -8.5901    0.0000 H   0  0  0  0  0  0  0  0  0  0  0  0
   24.3030   -6.8187    0.0000 H   0  0  0  0  0  0  0  0  0  0  0  0
   26.8498  -10.4199    0.0000 H   0  0  0  0  0  0  0  0  0  0  0  0
   27.2797   -8.6880    0.0000 H   0  0  0  0  0  0  0  0  0  0  0  0
   23.4464  -10.1334    0.0000 H   0  0  0  0  0  0  0  0  0  0  0  0
   24.9531  -14.3736    0.0000 H   0  0  0  0  0  0  0  0  0  0  0  0
   27.4012  -13.5037    0.0000 H   0  0  0  0  0  0  0  0  0  0  0  0
   27.8719  -10.9486    0.0000 H   0  0  0  0  0  0  0  0  0  0  0  0
   29.3450   -3.3910    0.0000 H   0  0  0  0  0  0  0  0  0  0  0  0
  1  2  1  0
  2  3  1  0
  3  4  2  0
  4  5  1  0
  5  6  2  0
  6  7  1  0
  7  8  2  0
  7  9  1  0
  9 10  1  0
 10 11  1  0
 11 12  2  0
  9 13  1  0
 13 14  1  0
 14 15  2  0
 15 16  1  0
 16 17  2  0
 17 18  1  0
 16 19  1  0
 14 20  1  0
 20 21  1  0
 21 22  2  0
 22 23  1  0
 23 24  2  0
 24 25  1  0
 25 26  2  0
 25 27  1  0
  1 28  2  0
  1 29  1  0
 29 30  1  0
 30 31  1  0
 31 32  1  0
 32 33  1  0
 33 34  1  0
 34 35  1  0
 35 36  1  0
 36 37  1  0
 37 38  2  0
 37 39  1  0
 39 40  1  0
 40 41  1  0
 41 42  1  0
 42 43  1  0
 43 44  1  0
 44 45  2  0
 44 46  1  0
 46 47  1  0
 47 48  1  0
 48 49  1  0
 49 50  1  0
 50 51  2  0
 50 52  1  0
 47 53  1  0
 53 54  2  0
 53 55  1  0
 56 55  1  6
 56 57  1  0
 57 58  1  0
 58 59  1  0
 59 60  1  0
 56 61  1  0
 56 62  1  0
 62 63  2  0
 62 64  1  0
 64 65  1  0
 65 66  1  0
 66 67  1  0
 66 68  1  0
 68 69  1  0
 65 70  1  0
 70 71  2  0
 70 72  1  0
 72 73  1  0
 73 74  1  0
 74 75  1  0
 75 76  1  0
 75 77  1  0
 73 78  1  0
 78 79  2  0
 78 80  1  0
 80 81  1  0
 81 82  1  0
 82 83  1  0
 83 84  2  0
 83 85  1  0
 81 86  1  0
 86 87  2  0
 86 88  1  0
 88 89  1  0
 89 90  1  0
 90 91  1  0
 91 92  1  0
 92 93  1  0
 89 94  1  0
 89 95  1  6
 95 96  2  0
 95 97  1  0
 97 98  1  0
 98 99  1  0
 99100  1  0
100101  2  0
101102  1  0
102103  1  0
103104  2  0
 98105  1  0
105106  2  0
105107  1  0
107108  1  0
108109  1  0
109110  1  0
108111  1  0
111112  2  0
111113  1  0
113114  1  0
114115  1  0
115116  1  0
116117  1  0
117118  1  0
118119  1  0
119120  2  3
119121  1  0
114122  1  0
122123  2  0
122124  1  0
124125  1  0
125126  1  0
126127  1  0
127128  1  0
128129  1  0
129130  1  0
130131  2  3
130132  1  0
125133  1  0
133134  2  0
133135  1  0
135136  1  0
136137  1  0
137138  1  0
136139  1  0
139140  2  0
139141  1  0
141142  1  0
142143  1  0
143144  1  0
144145  1  0
145146  1  0
142147  1  0
147148  2  0
147149  1  0
149150  1  0
150151  1  0
151152  1  0
152153  1  0
153154  1  0
154155  1  0
155156  2  3
155157  1  0
150158  1  0
158159  2  0
158160  1  0
  8  3  1  0
 43 39  1  0
104100  1  0
 11  6  1  0
 60 93  2  0
 18 13  2  0
 22  9  1  0
 26 21  1  0
  2161  1  0
  4162  1  0
  5163  1  0
  8164  1  0
 15165  1  0
 17166  1  0
 18167  1  0
 19168  1  0
 23169  1  0
 24170  1  0
 26171  1  0
 27172  1  0
 29173  1  0
 30174  1  0
 30175  1  0
 31176  1  0
 31177  1  0
 33178  1  0
 33179  1  0
 34180  1  0
 34181  1  0
 36182  1  0
 36183  1  0
 40184  1  0
 40185  1  0
 41186  1  0
 41187  1  0
 42188  1  0
 42189  1  0
 43190  1  0
 46191  1  0
 47192  1  1
 48193  1  0
 48194  1  0
 49195  1  0
 49196  1  0
 52197  1  0
 55198  1  0
 57199  1  0
 57200  1  0
 58201  1  0
 58202  1  0
 59203  1  0
 59204  1  0
 60205  1  0
 61206  1  0
 61207  1  0
 61208  1  0
 64209  1  0
 65210  1  1
 66211  1  6
 67212  1  0
 67213  1  0
 67214  1  0
 68215  1  0
 68216  1  0
 69217  1  0
 69218  1  0
 69219  1  0
 72220  1  0
 73221  1  1
 74222  1  0
 74223  1  0
 75224  1  0
 76225  1  0
 76226  1  0
 76227  1  0
 77228  1  0
 77229  1  0
 77230  1  0
 80231  1  0
 81232  1  1
 82233  1  0
 82234  1  0
 85235  1  0
 88236  1  0
 90237  1  0
 90238  1  0
 91239  1  0
 91240  1  0
 92241  1  0
 92242  1  0
 93243  1  0
 94244  1  0
 94245  1  0
 94246  1  0
 97247  1  0
 98248  1  6
 99249  1  0
 99250  1  0
101251  1  0
102252  1  0
103253  1  0
107254  1  0
108255  1  1
109256  1  0
109257  1  0
110258  1  0
110259  1  0
110260  1  0
113261  1  0
114262  1  6
115263  1  0
115264  1  0
116265  1  0
116266  1  0
117267  1  0
117268  1  0
118269  1  0
120270  1  0
121271  1  0
121272  1  0
124273  1  0
125274  1  1
126275  1  0
126276  1  0
127277  1  0
127278  1  0
128279  1  0
128280  1  0
129281  1  0
131282  1  0
132283  1  0
132284  1  0
135285  1  0
136286  1  6
137287  1  0
137288  1  0
138289  1  0
138290  1  0
138291  1  0
141292  1  0
142293  1  1
143294  1  0
143295  1  0
144296  1  0
144297  1  0
146298  1  0
146299  1  0
146300  1  0
149301  1  0
150302  1  6
151303  1  0
151304  1  0
152305  1  0
152306  1  0
153307  1  0
153308  1  0
154309  1  0
156310  1  0
157311  1  0
157312  1  0
160313  1  0
M  END
