
     RDKit          2D

334342  0  0  0  0  0  0  0  0999 V2000
   30.1572   -1.7625    0.0000 C   0  0  0  0  0  0  0  0  0  0  0  0
   31.4889   -1.0721    0.0000 N   0  0  0  0  0  0  0  0  0  0  0  0
   32.7526   -1.8802    0.0000 C   0  0  0  0  0  0  0  0  0  0  0  0
   32.6847   -3.3786    0.0000 C   0  0  0  0  0  0  0  0  0  0  0  0
   33.9485   -4.1867    0.0000 C   0  0  0  0  0  0  0  0  0  0  0  0
   35.2801   -3.4963    0.0000 C   0  0  0  0  0  0  0  0  0  0  0  0
   35.3480   -1.9978    0.0000 C   0  0  0  0  0  0  0  0  0  0  0  0
   34.0843   -1.1898    0.0000 C   0  0  0  0  0  0  0  0  0  0  0  0
   36.7942   -1.5993    0.0000 C   0  0  0  0  0  0  0  0  0  0  0  0
   37.6200   -2.8515    0.0000 O   0  0  0  0  0  0  0  0  0  0  0  0
   36.6843   -4.0239    0.0000 C   0  0  0  0  0  0  0  0  0  0  0  0
   37.0827   -5.4700    0.0000 O   0  0  0  0  0  0  0  0  0  0  0  0
   38.2740   -1.3542    0.0000 C   0  0  0  0  0  0  0  0  0  0  0  0
   38.8016    0.0499    0.0000 C   0  0  0  0  0  0  0  0  0  0  0  0
   40.2815    0.2950    0.0000 C   0  0  0  0  0  0  0  0  0  0  0  0
   41.2337   -0.8640    0.0000 C   0  0  0  0  0  0  0  0  0  0  0  0
   40.7060   -2.2681    0.0000 C   0  0  0  0  0  0  0  0  0  0  0  0
   39.2262   -2.5132    0.0000 C   0  0  0  0  0  0  0  0  0  0  0  0
   42.7135   -0.6189    0.0000 O   0  0  0  0  0  0  0  0  0  0  0  0
   37.8494    1.2089    0.0000 O   0  0  0  0  0  0  0  0  0  0  0  0
   36.3696    0.9638    0.0000 C   0  0  0  0  0  0  0  0  0  0  0  0
   35.8420   -0.4403    0.0000 C   0  0  0  0  0  0  0  0  0  0  0  0
   34.6083   -0.0302    0.0000 C   0  0  0  0  0  0  0  0  0  0  0  0
   34.1005    0.5880    0.0000 C   0  0  0  0  0  0  0  0  0  0  0  0
   34.3819    1.3368    0.0000 C   0  0  0  0  0  0  0  0  0  0  0  0
   35.1712    1.4676    0.0000 C   0  0  0  0  0  0  0  0  0  0  0  0
   32.9854    3.0367    0.0000 O   0  0  0  0  0  0  0  0  0  0  0  0
   30.0893   -3.2610    0.0000 S   0  0  0  0  0  0  0  0  0  0  0  0
   28.8935   -0.9545    0.0000 N   0  0  0  0  0  0  0  0  0  0  0  0
   27.5618   -1.6449    0.0000 C   0  0  0  0  0  0  0  0  0  0  0  0
   26.2981   -0.8369    0.0000 C   0  0  0  0  0  0  0  0  0  0  0  0
   24.9664   -1.5273    0.0000 C   0  0  0  0  0  0  0  0  0  0  0  0
   24.8985   -3.0257    0.0000 O   0  0  0  0  0  0  0  0  0  0  0  0
   23.7026   -0.7192    0.0000 N   0  0  0  0  0  0  0  0  0  0  0  0
   22.3710   -1.4096    0.0000 C   0  0  0  0  0  0  0  0  0  0  0  0
   21.3558   -2.5139    0.0000 C   0  0  0  0  0  0  0  0  0  0  0  0
   19.8919   -2.1868    0.0000 C   0  0  0  0  0  0  0  0  0  0  0  0
   18.8766   -3.2910    0.0000 C   0  0  0  0  0  0  0  0  0  0  0  0
   17.4127   -2.9639    0.0000 C   0  0  0  0  0  0  0  0  0  0  0  0
   16.3975   -4.0682    0.0000 N   0  0  0  0  0  0  0  0  0  0  0  0
   21.1072   -0.6016    0.0000 C   0  0  0  0  0  0  0  0  0  0  0  0
   21.1751    0.8969    0.0000 O   0  0  0  0  0  0  0  0  0  0  0  0
   19.7756   -1.2920    0.0000 N   0  0  0  0  0  0  0  0  0  0  0  0
   18.5118   -0.4840    0.0000 C   0  0  0  0  0  0  0  0  0  0  0  0
   17.6007    0.7076    0.0000 C   0  0  0  0  0  0  0  0  0  0  0  0
   16.4448    1.6636    0.0000 O   0  0  0  0  0  0  0  0  0  0  0  0
   18.1770    2.0924    0.0000 C   0  0  0  0  0  0  0  0  0  0  0  0
   17.1802   -1.1744    0.0000 C   0  0  0  0  0  0  0  0  0  0  0  0
   16.8331   -2.3388    0.0000 O   0  0  0  0  0  0  0  0  0  0  0  0
   15.9164   -0.3663    0.0000 N   0  0  0  0  0  0  0  0  0  0  0  0
   14.5847   -1.0567    0.0000 C   0  0  0  0  0  0  0  0  0  0  0  0
   13.5695   -2.1610    0.0000 C   0  0  0  0  0  0  0  0  0  0  0  0
   12.1056   -1.8339    0.0000 C   0  0  0  0  0  0  0  0  0  0  0  0
   11.6569   -0.4026    0.0000 C   0  0  0  0  0  0  0  0  0  0  0  0
   10.1930   -0.0755    0.0000 C   0  0  0  0  0  0  0  0  0  0  0  0
    9.1778   -1.1797    0.0000 C   0  0  0  0  0  0  0  0  0  0  0  0
    7.7139   -0.8526    0.0000 O   0  0  0  0  0  0  0  0  0  0  0  0
    9.6265   -2.6110    0.0000 C   0  0  0  0  0  0  0  0  0  0  0  0
   11.0904   -2.9381    0.0000 C   0  0  0  0  0  0  0  0  0  0  0  0
   13.3210   -0.2487    0.0000 C   0  0  0  0  0  0  0  0  0  0  0  0
   13.5711    1.2303    0.0000 O   0  0  0  0  0  0  0  0  0  0  0  0
   11.9893   -0.9391    0.0000 N   0  0  0  0  0  0  0  0  0  0  0  0
   10.7256   -0.1311    0.0000 C   0  0  0  0  0  0  0  0  0  0  0  0
    9.8144    1.0605    0.0000 C   0  0  0  0  0  0  0  0  0  0  0  0
   10.3907    2.4453    0.0000 C   0  0  0  0  0  0  0  0  0  0  0  0
    9.4796    3.6369    0.0000 C   0  0  0  0  0  0  0  0  0  0  0  0
   10.0559    5.0217    0.0000 N   0  0  0  0  0  0  0  0  0  0  0  0
    9.1447    6.2133    0.0000 C   0  0  0  0  0  0  0  0  0  0  0  0
    9.7211    7.5982    0.0000 N   0  0  0  0  0  0  0  0  0  0  0  0
    7.6572    6.0200    0.0000 N   0  0  0  0  0  0  0  0  0  0  0  0
    9.3939   -0.8215    0.0000 C   0  0  0  0  0  0  0  0  0  0  0  0
    8.9654   -2.2590    0.0000 O   0  0  0  0  0  0  0  0  0  0  0  0
    8.1302   -0.0134    0.0000 N   0  0  0  0  0  0  0  0  0  0  0  0
    6.7985   -0.7039    0.0000 C   0  0  0  0  0  0  0  0  0  0  0  0
    5.5348    0.1042    0.0000 C   0  0  0  0  0  0  0  0  0  0  0  0
    5.6027    1.6027    0.0000 O   0  0  0  0  0  0  0  0  0  0  0  0
    4.2031   -0.5862    0.0000 N   0  0  0  0  0  0  0  0  0  0  0  0
    2.9394    0.2218    0.0000 C   0  0  0  0  0  0  0  0  0  0  0  0
    2.0282    1.4134    0.0000 C   0  0  0  0  0  0  0  0  0  0  0  0
    1.6077   -0.4686    0.0000 C   0  0  0  0  0  0  0  0  0  0  0  0
    1.5398   -1.9671    0.0000 O   0  0  0  0  0  0  0  0  0  0  0  0
    0.3439    0.3395    0.0000 N   0  0  0  0  0  0  0  0  0  0  0  0
   -0.9877   -0.3510    0.0000 C   0  0  0  0  0  0  0  0  0  0  0  0
   -2.0029   -1.4552    0.0000 C   0  0  0  0  0  0  0  0  0  0  0  0
   -3.4668   -1.1281    0.0000 C   0  0  0  0  0  0  0  0  0  0  0  0
   -3.9155    0.3032    0.0000 C   0  0  0  0  0  0  0  0  0  0  0  0
   -5.3794    0.6303    0.0000 C   0  0  0  0  0  0  0  0  0  0  0  0
   -6.3947   -0.4739    0.0000 C   0  0  0  0  0  0  0  0  0  0  0  0
   -5.9460   -1.9053    0.0000 C   0  0  0  0  0  0  0  0  0  0  0  0
   -4.4821   -2.2323    0.0000 C   0  0  0  0  0  0  0  0  0  0  0  0
   -2.2515    0.4571    0.0000 C   0  0  0  0  0  0  0  0  0  0  0  0
   -2.0014    1.9361    0.0000 O   0  0  0  0  0  0  0  0  0  0  0  0
   -3.5831   -0.2333    0.0000 N   0  0  0  0  0  0  0  0  0  0  0  0
   -4.8469    0.5747    0.0000 C   0  0  0  0  0  0  0  0  0  0  0  0
   -5.7581    1.7663    0.0000 C   0  0  0  0  0  0  0  0  0  0  0  0
   -5.1817    3.1511    0.0000 C   0  0  0  0  0  0  0  0  0  0  0  0
   -6.0929    4.3427    0.0000 C   0  0  0  0  0  0  0  0  0  0  0  0
   -5.3521    5.6470    0.0000 N   0  0  0  0  0  0  0  0  0  0  0  0
   -7.5457    3.9695    0.0000 O   0  0  0  0  0  0  0  0  0  0  0  0
   -6.1785   -0.1157    0.0000 C   0  0  0  0  0  0  0  0  0  0  0  0
   -6.4286   -1.5947    0.0000 O   0  0  0  0  0  0  0  0  0  0  0  0
   -7.4423    0.6923    0.0000 N   0  0  0  0  0  0  0  0  0  0  0  0
   -8.7740    0.0019    0.0000 C   0  0  0  0  0  0  0  0  0  0  0  0
   -9.1374   -1.4534    0.0000 C   0  0  0  0  0  0  0  0  0  0  0  0
   -9.9137   -2.7369    0.0000 C   0  0  0  0  0  0  0  0  0  0  0  0
  -11.0339   -3.7345    0.0000 C   0  0  0  0  0  0  0  0  0  0  0  0
  -12.3983   -4.3577    0.0000 C   0  0  0  0  0  0  0  0  0  0  0  0
   -7.4924   -0.7775    0.0000 C   0  0  0  0  0  0  0  0  0  0  0  0
   -8.8556    1.4997    0.0000 C   0  0  0  0  0  0  0  0  0  0  0  0
   -7.5039    2.1500    0.0000 O   0  0  0  0  0  0  0  0  0  0  0  0
   -9.3751    2.9069    0.0000 N   0  0  0  0  0  0  0  0  0  0  0  0
  -10.2862    4.0984    0.0000 C   0  0  0  0  0  0  0  0  0  0  0  0
   -9.9957    5.5700    0.0000 C   0  0  0  0  0  0  0  0  0  0  0  0
   -8.5760    6.0543    0.0000 C   0  0  0  0  0  0  0  0  0  0  0  0
   -8.2856    7.5259    0.0000 C   0  0  0  0  0  0  0  0  0  0  0  0
   -7.0764    6.0237    0.0000 C   0  0  0  0  0  0  0  0  0  0  0  0
  -11.5081    4.9685    0.0000 C   0  0  0  0  0  0  0  0  0  0  0  0
  -10.8299    6.3064    0.0000 O   0  0  0  0  0  0  0  0  0  0  0  0
  -12.9322    5.4397    0.0000 N   0  0  0  0  0  0  0  0  0  0  0  0
  -14.4319    5.4702    0.0000 C   0  0  0  0  0  0  0  0  0  0  0  0
  -15.4013    6.6149    0.0000 C   0  0  0  0  0  0  0  0  0  0  0  0
  -14.8947    8.0267    0.0000 C   0  0  0  0  0  0  0  0  0  0  0  0
  -13.4187    8.2940    0.0000 C   0  0  0  0  0  0  0  0  0  0  0  0
  -12.9121    9.7058    0.0000 C   0  0  0  0  0  0  0  0  0  0  0  0
  -13.8816   10.8505    0.0000 C   0  0  0  0  0  0  0  0  0  0  0  0
  -15.3576   10.5832    0.0000 C   0  0  0  0  0  0  0  0  0  0  0  0
  -15.8642    9.1714    0.0000 C   0  0  0  0  0  0  0  0  0  0  0  0
  -15.8739    5.0574    0.0000 C   0  0  0  0  0  0  0  0  0  0  0  0
  -16.4971    6.4218    0.0000 O   0  0  0  0  0  0  0  0  0  0  0  0
  -17.1302    4.2378    0.0000 N   0  0  0  0  0  0  0  0  0  0  0  0
  -18.0892    3.0843    0.0000 C   0  0  0  0  0  0  0  0  0  0  0  0
  -19.5885    3.0401    0.0000 C   0  0  0  0  0  0  0  0  0  0  0  0
  -20.3765    4.3164    0.0000 C   0  0  0  0  0  0  0  0  0  0  0  0
  -21.8758    4.2721    0.0000 C   0  0  0  0  0  0  0  0  0  0  0  0
  -22.6638    5.5485    0.0000 N   0  0  0  0  0  0  0  0  0  0  0  0
  -22.5872    2.9515    0.0000 O   0  0  0  0  0  0  0  0  0  0  0  0
  -18.6655    1.6994    0.0000 C   0  0  0  0  0  0  0  0  0  0  0  0
  -20.1208    2.0629    0.0000 O   0  0  0  0  0  0  0  0  0  0  0  0
  -18.8080    0.2062    0.0000 N   0  0  0  0  0  0  0  0  0  0  0  0
  -18.5041   -1.2626    0.0000 C   0  0  0  0  0  0  0  0  0  0  0  0
  -17.7807   -2.5767    0.0000 C   0  0  0  0  0  0  0  0  0  0  0  0
  -16.7021   -3.6191    0.0000 C   0  0  0  0  0  0  0  0  0  0  0  0
  -15.3642   -4.2973    0.0000 C   0  0  0  0  0  0  0  0  0  0  0  0
  -13.8858   -4.5510    0.0000 C   0  0  0  0  0  0  0  0  0  0  0  0
  -19.9680   -0.9356    0.0000 C   0  0  0  0  0  0  0  0  0  0  0  0
  -19.4043   -2.4625    0.0000 C   0  0  0  0  0  0  0  0  0  0  0  0
  -19.1666   -3.9435    0.0000 O   0  0  0  0  0  0  0  0  0  0  0  0
  -20.8935   -2.2828    0.0000 N   0  0  0  0  0  0  0  0  0  0  0  0
  -21.7937   -3.4826    0.0000 C   0  0  0  0  0  0  0  0  0  0  0  0
  -22.2293   -4.9180    0.0000 C   0  0  0  0  0  0  0  0  0  0  0  0
  -23.6377   -5.4340    0.0000 C   0  0  0  0  0  0  0  0  0  0  0  0
  -23.2829   -3.3029    0.0000 C   0  0  0  0  0  0  0  0  0  0  0  0
  -23.8719   -1.9234    0.0000 O   0  0  0  0  0  0  0  0  0  0  0  0
  -24.1831   -4.5027    0.0000 N   0  0  0  0  0  0  0  0  0  0  0  0
  -25.6723   -4.3230    0.0000 C   0  0  0  0  0  0  0  0  0  0  0  0
  -27.0103   -3.6448    0.0000 C   0  0  0  0  0  0  0  0  0  0  0  0
  -27.0919   -2.1470    0.0000 C   0  0  0  0  0  0  0  0  0  0  0  0
  -28.4298   -1.4688    0.0000 C   0  0  0  0  0  0  0  0  0  0  0  0
  -28.5114    0.0289    0.0000 N   0  0  0  0  0  0  0  0  0  0  0  0
  -29.8493    0.7071    0.0000 C   0  0  0  0  0  0  0  0  0  0  0  0
  -29.9310    2.2049    0.0000 N   0  0  0  0  0  0  0  0  0  0  0  0
  -31.1056   -0.1124    0.0000 N   0  0  0  0  0  0  0  0  0  0  0  0
  -26.5726   -5.5229    0.0000 C   0  0  0  0  0  0  0  0  0  0  0  0
  -25.9836   -6.9024    0.0000 O   0  0  0  0  0  0  0  0  0  0  0  0
  -28.0617   -5.3431    0.0000 N   0  0  0  0  0  0  0  0  0  0  0  0
  -28.9620   -6.5430    0.0000 C   0  0  0  0  0  0  0  0  0  0  0  0
  -29.3975   -7.9783    0.0000 C   0  0  0  0  0  0  0  0  0  0  0  0
  -30.8584   -8.3188    0.0000 C   0  0  0  0  0  0  0  0  0  0  0  0
  -31.2940   -9.7542    0.0000 C   0  0  0  0  0  0  0  0  0  0  0  0
  -32.7548  -10.0946    0.0000 O   0  0  0  0  0  0  0  0  0  0  0  0
  -30.2687  -10.8491    0.0000 O   0  0  0  0  0  0  0  0  0  0  0  0
  -30.4512   -6.3633    0.0000 C   0  0  0  0  0  0  0  0  0  0  0  0
  -31.4909   -7.4444    0.0000 O   0  0  0  0  0  0  0  0  0  0  0  0
  -31.0401   -4.9837    0.0000 O   0  0  0  0  0  0  0  0  0  0  0  0
   31.3736    0.4234    0.0000 H   0  0  0  0  0  0  0  0  0  0  0  0
   31.3531   -4.0690    0.0000 H   0  0  0  0  0  0  0  0  0  0  0  0
   33.8806   -5.6851    0.0000 H   0  0  0  0  0  0  0  0  0  0  0  0
   33.7876    0.2806    0.0000 H   0  0  0  0  0  0  0  0  0  0  0  0
   40.8091    1.6992    0.0000 H   0  0  0  0  0  0  0  0  0  0  0  0
   41.6582   -3.4271    0.0000 H   0  0  0  0  0  0  0  0  0  0  0  0
   38.6985   -3.9174    0.0000 H   0  0  0  0  0  0  0  0  0  0  0  0
   43.6657   -1.7779    0.0000 H   0  0  0  0  0  0  0  0  0  0  0  0
   33.8345   -2.0896    0.0000 H   0  0  0  0  0  0  0  0  0  0  0  0
   31.9112    0.4107    0.0000 H   0  0  0  0  0  0  0  0  0  0  0  0
   35.9450    3.5270    0.0000 H   0  0  0  0  0  0  0  0  0  0  0  0
   33.5130    4.4409    0.0000 H   0  0  0  0  0  0  0  0  0  0  0  0
   28.9614    0.5440    0.0000 H   0  0  0  0  0  0  0  0  0  0  0  0
   26.5466   -2.7491    0.0000 H   0  0  0  0  0  0  0  0  0  0  0  0
   28.4730   -2.8364    0.0000 H   0  0  0  0  0  0  0  0  0  0  0  0
   25.3869    0.3547    0.0000 H   0  0  0  0  0  0  0  0  0  0  0  0
   27.3133    0.2674    0.0000 H   0  0  0  0  0  0  0  0  0  0  0  0
   23.7706    0.7792    0.0000 H   0  0  0  0  0  0  0  0  0  0  0  0
   23.2822   -2.6012    0.0000 H   0  0  0  0  0  0  0  0  0  0  0  0
   20.9525   -3.9587    0.0000 H   0  0  0  0  0  0  0  0  0  0  0  0
   22.6195   -3.3219    0.0000 H   0  0  0  0  0  0  0  0  0  0  0  0
   18.7360   -1.2307    0.0000 H   0  0  0  0  0  0  0  0  0  0  0  0
   19.7504   -0.6935    0.0000 H   0  0  0  0  0  0  0  0  0  0  0  0
   18.4734   -4.7358    0.0000 H   0  0  0  0  0  0  0  0  0  0  0  0
   20.0325   -4.2471    0.0000 H   0  0  0  0  0  0  0  0  0  0  0  0
   16.0599   -2.3160    0.0000 H   0  0  0  0  0  0  0  0  0  0  0  0
   17.8160   -1.5191    0.0000 H   0  0  0  0  0  0  0  0  0  0  0  0
   14.9844   -3.5651    0.0000 H   0  0  0  0  0  0  0  0  0  0  0  0
   15.8212   -5.4530    0.0000 H   0  0  0  0  0  0  0  0  0  0  0  0
   17.5533   -5.0242    0.0000 H   0  0  0  0  0  0  0  0  0  0  0  0
   19.3471   -2.7295    0.0000 H   0  0  0  0  0  0  0  0  0  0  0  0
   19.6541    0.4883    0.0000 H   0  0  0  0  0  0  0  0  0  0  0  0
   16.3484   -0.1182    0.0000 H   0  0  0  0  0  0  0  0  0  0  0  0
   16.2217    3.0112    0.0000 H   0  0  0  0  0  0  0  0  0  0  0  0
   17.4178    3.3862    0.0000 H   0  0  0  0  0  0  0  0  0  0  0  0
   19.1922    3.1967    0.0000 H   0  0  0  0  0  0  0  0  0  0  0  0
   19.5298    1.4445    0.0000 H   0  0  0  0  0  0  0  0  0  0  0  0
   15.8012    1.1292    0.0000 H   0  0  0  0  0  0  0  0  0  0  0  0
   15.3439   -2.3505    0.0000 H   0  0  0  0  0  0  0  0  0  0  0  0
   12.9932   -3.5458    0.0000 H   0  0  0  0  0  0  0  0  0  0  0  0
   14.9224   -2.8090    0.0000 H   0  0  0  0  0  0  0  0  0  0  0  0
   12.5300    0.8172    0.0000 H   0  0  0  0  0  0  0  0  0  0  0  0
    9.4113    1.2047    0.0000 H   0  0  0  0  0  0  0  0  0  0  0  0
    6.6987   -1.9569    0.0000 H   0  0  0  0  0  0  0  0  0  0  0  0
    8.6113   -3.7153    0.0000 H   0  0  0  0  0  0  0  0  0  0  0  0
   11.5391   -4.3695    0.0000 H   0  0  0  0  0  0  0  0  0  0  0  0
   11.5609   -2.3766    0.0000 H   0  0  0  0  0  0  0  0  0  0  0  0
   11.8678    0.8412    0.0000 H   0  0  0  0  0  0  0  0  0  0  0  0
    8.5507    1.8685    0.0000 H   0  0  0  0  0  0  0  0  0  0  0  0
    8.5622    0.2347    0.0000 H   0  0  0  0  0  0  0  0  0  0  0  0
   11.4060    3.5496    0.0000 H   0  0  0  0  0  0  0  0  0  0  0  0
   11.7436    1.7974    0.0000 H   0  0  0  0  0  0  0  0  0  0  0  0
    8.2158    4.4449    0.0000 H   0  0  0  0  0  0  0  0  0  0  0  0
    8.3373    2.6646    0.0000 H   0  0  0  0  0  0  0  0  0  0  0  0
   11.5434    5.2151    0.0000 H   0  0  0  0  0  0  0  0  0  0  0  0
    8.8099    8.7897    0.0000 H   0  0  0  0  0  0  0  0  0  0  0  0
   11.2085    7.7915    0.0000 H   0  0  0  0  0  0  0  0  0  0  0  0
    6.7461    7.2115    0.0000 H   0  0  0  0  0  0  0  0  0  0  0  0
    7.0809    4.6351    0.0000 H   0  0  0  0  0  0  0  0  0  0  0  0
    8.0149    1.4821    0.0000 H   0  0  0  0  0  0  0  0  0  0  0  0
    5.7833   -1.8081    0.0000 H   0  0  0  0  0  0  0  0  0  0  0  0
    7.7097   -1.8954    0.0000 H   0  0  0  0  0  0  0  0  0  0  0  0
    4.1352   -2.0847    0.0000 H   0  0  0  0  0  0  0  0  0  0  0  0
    3.9546    1.3261    0.0000 H   0  0  0  0  0  0  0  0  0  0  0  0
    2.6045    2.7982    0.0000 H   0  0  0  0  0  0  0  0  0  0  0  0
    0.8724    2.3694    0.0000 H   0  0  0  0  0  0  0  0  0  0  0  0
    0.7759    0.5876    0.0000 H   0  0  0  0  0  0  0  0  0  0  0  0
    0.2287    1.8350    0.0000 H   0  0  0  0  0  0  0  0  0  0  0  0
   -0.0766   -1.5425    0.0000 H   0  0  0  0  0  0  0  0  0  0  0  0
   -2.5793   -2.8401    0.0000 H   0  0  0  0  0  0  0  0  0  0  0  0
   -0.7392   -2.2632    0.0000 H   0  0  0  0  0  0  0  0  0  0  0  0
   -3.0425    1.5230    0.0000 H   0  0  0  0  0  0  0  0  0  0  0  0
   -6.1611    1.9105    0.0000 H   0  0  0  0  0  0  0  0  0  0  0  0
   -7.8586   -0.1468    0.0000 H   0  0  0  0  0  0  0  0  0  0  0  0
   -6.9612   -3.0095    0.0000 H   0  0  0  0  0  0  0  0  0  0  0  0
   -4.0334   -3.6637    0.0000 H   0  0  0  0  0  0  0  0  0  0  0  0
   -4.0116   -1.6708    0.0000 H   0  0  0  0  0  0  0  0  0  0  0  0
   -3.7046    1.5470    0.0000 H   0  0  0  0  0  0  0  0  0  0  0  0
   -6.7887    2.8561    0.0000 H   0  0  0  0  0  0  0  0  0  0  0  0
   -6.9003    0.7940    0.0000 H   0  0  0  0  0  0  0  0  0  0  0  0
   -4.1665    4.2554    0.0000 H   0  0  0  0  0  0  0  0  0  0  0  0
   -3.8289    2.5031    0.0000 H   0  0  0  0  0  0  0  0  0  0  0  0
   -6.2757    7.0213    0.0000 H   0  0  0  0  0  0  0  0  0  0  0  0
   -4.0291    5.9209    0.0000 H   0  0  0  0  0  0  0  0  0  0  0  0
   -7.3744    2.1908    0.0000 H   0  0  0  0  0  0  0  0  0  0  0  0
   -7.6399   -1.3680    0.0000 H   0  0  0  0  0  0  0  0  0  0  0  0
   -8.2868   -2.6888    0.0000 H   0  0  0  0  0  0  0  0  0  0  0  0
   -8.5123   -3.2716    0.0000 H   0  0  0  0  0  0  0  0  0  0  0  0
   -9.2939   -4.1028    0.0000 H   0  0  0  0  0  0  0  0  0  0  0  0
   -9.7484   -4.5076    0.0000 H   0  0  0  0  0  0  0  0  0  0  0  0
  -11.0270   -5.2345    0.0000 H   0  0  0  0  0  0  0  0  0  0  0  0
  -11.9854   -5.7998    0.0000 H   0  0  0  0  0  0  0  0  0  0  0  0
   -7.4086   -2.4414    0.0000 H   0  0  0  0  0  0  0  0  0  0  0  0
   -6.1070   -1.2337    0.0000 H   0  0  0  0  0  0  0  0  0  0  0  0
   -6.5065    0.0974    0.0000 H   0  0  0  0  0  0  0  0  0  0  0  0
   -8.1590    3.7851    0.0000 H   0  0  0  0  0  0  0  0  0  0  0  0
   -8.7948    4.2583    0.0000 H   0  0  0  0  0  0  0  0  0  0  0  0
  -10.4050    7.0131    0.0000 H   0  0  0  0  0  0  0  0  0  0  0  0
  -11.4435    5.9625    0.0000 H   0  0  0  0  0  0  0  0  0  0  0  0
   -8.3457    4.5721    0.0000 H   0  0  0  0  0  0  0  0  0  0  0  0
   -6.9355    8.1795    0.0000 H   0  0  0  0  0  0  0  0  0  0  0  0
   -8.5159    9.0081    0.0000 H   0  0  0  0  0  0  0  0  0  0  0  0
   -9.7703    7.7390    0.0000 H   0  0  0  0  0  0  0  0  0  0  0  0
   -6.3001    7.3072    0.0000 H   0  0  0  0  0  0  0  0  0  0  0  0
   -5.6220    5.6567    0.0000 H   0  0  0  0  0  0  0  0  0  0  0  0
   -7.5441    4.5985    0.0000 H   0  0  0  0  0  0  0  0  0  0  0  0
  -12.5002    6.8761    0.0000 H   0  0  0  0  0  0  0  0  0  0  0  0
  -13.7872    6.8246    0.0000 H   0  0  0  0  0  0  0  0  0  0  0  0
  -16.7038    7.3589    0.0000 H   0  0  0  0  0  0  0  0  0  0  0  0
  -16.6108    5.7277    0.0000 H   0  0  0  0  0  0  0  0  0  0  0  0
  -12.3170    7.2760    0.0000 H   0  0  0  0  0  0  0  0  0  0  0  0
  -11.4361    9.9731    0.0000 H   0  0  0  0  0  0  0  0  0  0  0  0
  -13.3750   12.2623    0.0000 H   0  0  0  0  0  0  0  0  0  0  0  0
  -16.3270   11.7279    0.0000 H   0  0  0  0  0  0  0  0  0  0  0  0
  -17.3402    8.9041    0.0000 H   0  0  0  0  0  0  0  0  0  0  0  0
  -18.1279    5.3579    0.0000 H   0  0  0  0  0  0  0  0  0  0  0  0
  -18.5769    4.5028    0.0000 H   0  0  0  0  0  0  0  0  0  0  0  0
  -20.9823    2.4857    0.0000 H   0  0  0  0  0  0  0  0  0  0  0  0
  -19.6490    1.5413    0.0000 H   0  0  0  0  0  0  0  0  0  0  0  0
  -20.6804    5.7853    0.0000 H   0  0  0  0  0  0  0  0  0  0  0  0
  -19.0607    5.0366    0.0000 H   0  0  0  0  0  0  0  0  0  0  0  0
  -24.1632    5.5042    0.0000 H   0  0  0  0  0  0  0  0  0  0  0  0
  -21.9525    6.8691    0.0000 H   0  0  0  0  0  0  0  0  0  0  0  0
  -20.3058    0.1246    0.0000 H   0  0  0  0  0  0  0  0  0  0  0  0
  -18.2872   -3.9886    0.0000 H   0  0  0  0  0  0  0  0  0  0  0  0
  -19.2027   -3.0539    0.0000 H   0  0  0  0  0  0  0  0  0  0  0  0
  -16.9521   -5.0981    0.0000 H   0  0  0  0  0  0  0  0  0  0  0  0
  -17.9203   -4.4943    0.0000 H   0  0  0  0  0  0  0  0  0  0  0  0
  -14.9874   -5.7492    0.0000 H   0  0  0  0  0  0  0  0  0  0  0  0
  -16.4092   -5.3733    0.0000 H   0  0  0  0  0  0  0  0  0  0  0  0
  -13.9163   -6.0507    0.0000 H   0  0  0  0  0  0  0  0  0  0  0  0
  -21.2202   -1.7613    0.0000 H   0  0  0  0  0  0  0  0  0  0  0  0
  -21.1238    0.0205    0.0000 H   0  0  0  0  0  0  0  0  0  0  0  0
  -19.7439    0.5476    0.0000 H   0  0  0  0  0  0  0  0  0  0  0  0
  -21.6462   -0.9853    0.0000 H   0  0  0  0  0  0  0  0  0  0  0  0
  -20.4558   -4.1608    0.0000 H   0  0  0  0  0  0  0  0  0  0  0  0
  -22.1477   -6.4157    0.0000 H   0  0  0  0  0  0  0  0  0  0  0  0
  -20.7401   -5.0977    0.0000 H   0  0  0  0  0  0  0  0  0  0  0  0
  -24.1257   -6.6938    0.0000 H   0  0  0  0  0  0  0  0  0  0  0  0
  -25.1793   -5.0787    0.0000 H   0  0  0  0  0  0  0  0  0  0  0  0
  -24.4655   -3.9744    0.0000 H   0  0  0  0  0  0  0  0  0  0  0  0
  -23.7667   -5.9438    0.0000 H   0  0  0  0  0  0  0  0  0  0  0  0
  -25.0650   -2.9515    0.0000 H   0  0  0  0  0  0  0  0  0  0  0  0
  -28.4994   -3.4651    0.0000 H   0  0  0  0  0  0  0  0  0  0  0  0
  -27.7802   -4.9321    0.0000 H   0  0  0  0  0  0  0  0  0  0  0  0
  -26.6563   -0.7117    0.0000 H   0  0  0  0  0  0  0  0  0  0  0  0
  -25.5919   -2.1439    0.0000 H   0  0  0  0  0  0  0  0  0  0  0  0
  -29.9190   -1.2891    0.0000 H   0  0  0  0  0  0  0  0  0  0  0  0
  -29.0371   -2.8404    0.0000 H   0  0  0  0  0  0  0  0  0  0  0  0
  -27.2551    0.8485    0.0000 H   0  0  0  0  0  0  0  0  0  0  0  0
  -31.2689    2.8831    0.0000 H   0  0  0  0  0  0  0  0  0  0  0  0
  -28.6747    3.0245    0.0000 H   0  0  0  0  0  0  0  0  0  0  0  0
  -32.4436    0.5658    0.0000 H   0  0  0  0  0  0  0  0  0  0  0  0
  -31.0240   -1.6102    0.0000 H   0  0  0  0  0  0  0  0  0  0  0  0
  -28.8145   -4.0457    0.0000 H   0  0  0  0  0  0  0  0  0  0  0  0
  -27.6241   -7.2212    0.0000 H   0  0  0  0  0  0  0  0  0  0  0  0
  -29.3159   -9.4761    0.0000 H   0  0  0  0  0  0  0  0  0  0  0  0
  -27.9084   -8.1581    0.0000 H   0  0  0  0  0  0  0  0  0  0  0  0
  -32.3476   -8.1391    0.0000 H   0  0  0  0  0  0  0  0  0  0  0  0
  -31.4715   -6.9498    0.0000 H   0  0  0  0  0  0  0  0  0  0  0  0
  1  2  1  0
  2  3  1  0
  3  4  2  0
  4  5  1  0
  5  6  2  0
  6  7  1  0
  7  8  2  0
  7  9  1  0
  9 10  1  0
 10 11  1  0
 11 12  2  0
  9 13  1  0
 13 14  1  0
 14 15  2  0
 15 16  1  0
 16 17  2  0
 17 18  1  0
 16 19  1  0
 14 20  1  0
 20 21  1  0
 21 22  2  0
 22 23  1  0
 23 24  2  0
 24 25  1  0
 25 26  2  0
 25 27  1  0
  1 28  2  0
  1 29  1  0
 29 30  1  0
 30 31  1  0
 31 32  1  0
 32 33  2  0
 32 34  1  0
 34 35  1  0
 35 36  1  0
 36 37  1  0
 37 38  1  0
 38 39  1  0
 39 40  1  0
 35 41  1  0
 41 42  2  0
 41 43  1  0
 43 44  1  0
 44 45  1  0
 45 46  1  0
 45 47  1  0
 44 48  1  0
 48 49  2  0
 48 50  1  0
 50 51  1  0
 51 52  1  0
 52 53  1  0
 53 54  2  0
 54 55  1  0
 55 56  2  0
 56 57  1  0
 56 58  1  0
 58 59  2  0
 51 60  1  0
 60 61  2  0
 60 62  1  0
 62 63  1  0
 63 64  1  0
 64 65  1  0
 65 66  1  0
 66 67  1  0
 67 68  1  0
 68 69  2  3
 68 70  1  0
 63 71  1  0
 71 72  2  0
 71 73  1  0
 73 74  1  0
 74 75  1  0
 75 76  2  0
 75 77  1  0
 77 78  1  0
 78 79  1  0
 78 80  1  0
 80 81  2  0
 80 82  1  0
 82 83  1  0
 83 84  1  0
 84 85  1  0
 85 86  2  0
 86 87  1  0
 87 88  2  0
 88 89  1  0
 89 90  2  0
 83 91  1  0
 91 92  2  0
 91 93  1  0
 93 94  1  0
 94 95  1  0
 95 96  1  0
 96 97  1  0
 97 98  1  0
 97 99  2  0
 94100  1  0
100101  2  0
100102  1  0
103102  1  1
103104  1  0
104105  1  0
105106  1  0
106107  1  0
103108  1  0
103109  1  0
109110  2  0
109111  1  0
111112  1  0
112113  1  0
113114  1  0
114115  1  0
114116  1  0
112117  1  0
117118  2  0
117119  1  0
119120  1  0
120121  1  0
121122  1  0
122123  2  0
123124  1  0
124125  2  0
125126  1  0
126127  2  0
120128  1  0
128129  2  0
128130  1  0
130131  1  0
131132  1  0
132133  1  0
133134  1  0
134135  1  0
134136  2  0
131137  1  0
137138  2  0
137139  1  0
139140  1  0
140141  1  0
141142  1  0
142143  1  0
143144  1  0
140145  1  0
140146  1  1
146147  2  0
146148  1  0
148149  1  0
149150  1  0
150151  1  0
149152  1  0
152153  2  0
152154  1  0
154155  1  0
155156  1  0
156157  1  0
157158  1  0
158159  1  0
159160  1  0
160161  2  3
160162  1  0
155163  1  0
163164  2  0
163165  1  0
165166  1  0
166167  1  0
167168  1  0
168169  1  0
169170  2  0
169171  1  0
166172  1  0
172173  2  0
172174  1  0
  8  3  1  0
 59 53  1  0
 90 85  1  0
127122  1  0
 11  6  1  0
107144  2  0
 18 13  2  0
 22  9  1  0
 26 21  1  0
  2175  1  0
  4176  1  0
  5177  1  0
  8178  1  0
 15179  1  0
 17180  1  0
 18181  1  0
 19182  1  0
 23183  1  0
 24184  1  0
 26185  1  0
 27186  1  0
 29187  1  0
 30188  1  0
 30189  1  0
 31190  1  0
 31191  1  0
 34192  1  0
 35193  1  1
 36194  1  0
 36195  1  0
 37196  1  0
 37197  1  0
 38198  1  0
 38199  1  0
 39200  1  0
 39201  1  0
 40202  1  0
 40203  1  0
 40204  1  0
 43205  1  0
 44206  1  6
 45207  1  1
 46208  1  0
 47209  1  0
 47210  1  0
 47211  1  0
 50212  1  0
 51213  1  1
 52214  1  0
 52215  1  0
 54216  1  0
 55217  1  0
 57218  1  0
 58219  1  0
 59220  1  0
 62221  1  0
 63222  1  6
 64223  1  0
 64224  1  0
 65225  1  0
 65226  1  0
 66227  1  0
 66228  1  0
 67229  1  0
 69230  1  0
 69231  1  0
 70232  1  0
 70233  1  0
 73234  1  0
 74235  1  0
 74236  1  0
 77237  1  0
 78238  1  6
 79239  1  0
 79240  1  0
 79241  1  0
 82242  1  0
 83243  1  1
 84244  1  0
 84245  1  0
 86246  1  0
 87247  1  0
 88248  1  0
 89249  1  0
 90250  1  0
 93251  1  0
 94252  1  6
 95253  1  0
 95254  1  0
 96255  1  0
 96256  1  0
 98257  1  0
 98258  1  0
102259  1  0
104260  1  0
104261  1  0
105262  1  0
105263  1  0
106264  1  0
106265  1  0
107266  1  0
108267  1  0
108268  1  0
108269  1  0
111270  1  0
112271  1  6
113272  1  0
113273  1  0
114274  1  0
115275  1  0
115276  1  0
115277  1  0
116278  1  0
116279  1  0
116280  1  0
119281  1  0
120282  1  6
121283  1  0
121284  1  0
123285  1  0
124286  1  0
125287  1  0
126288  1  0
127289  1  0
130290  1  0
131291  1  6
132292  1  0
132293  1  0
133294  1  0
133295  1  0
135296  1  0
135297  1  0
139298  1  0
141299  1  0
141300  1  0
142301  1  0
142302  1  0
143303  1  0
143304  1  0
144305  1  0
145306  1  0
145307  1  0
145308  1  0
148309  1  0
149310  1  1
150311  1  0
150312  1  0
151313  1  0
151314  1  0
151315  1  0
154316  1  0
155317  1  6
156318  1  0
156319  1  0
157320  1  0
157321  1  0
158322  1  0
158323  1  0
159324  1  0
161325  1  0
161326  1  0
162327  1  0
162328  1  0
165329  1  0
166330  1  1
167331  1  0
167332  1  0
168333  1  0
168334  1  0
M  CHG  5  40   1  69   1 161   1 171  -1 174  -1
M  END
