
     RDKit          2D

165168  0  0  0  0  0  0  0  0999 V2000
  -14.5623    3.3898    0.0000 N   0  0  0  0  0  0  0  0  0  0  0  0
  -13.1127    3.0040    0.0000 C   0  0  0  0  0  0  0  0  0  0  0  0
  -12.7220    1.5558    0.0000 C   0  0  0  0  0  0  0  0  0  0  0  0
  -11.2725    1.1700    0.0000 C   0  0  0  0  0  0  0  0  0  0  0  0
  -10.7828    1.7990    0.0000 O   0  0  0  0  0  0  0  0  0  0  0  0
  -10.8818   -0.2782    0.0000 N   0  0  0  0  0  0  0  0  0  0  0  0
   -9.4323   -0.6640    0.0000 C   0  0  0  0  0  0  0  0  0  0  0  0
   -9.3041    0.8305    0.0000 C   0  0  0  0  0  0  0  0  0  0  0  0
   -8.2021   -1.5223    0.0000 C   0  0  0  0  0  0  0  0  0  0  0  0
   -6.8437   -0.8861    0.0000 O   0  0  0  0  0  0  0  0  0  0  0  0
   -8.3303   -3.0168    0.0000 N   0  0  0  0  0  0  0  0  0  0  0  0
   -7.1002   -3.8751    0.0000 C   0  0  0  0  0  0  0  0  0  0  0  0
   -8.1590   -4.9375    0.0000 C   0  0  0  0  0  0  0  0  0  0  0  0
   -9.6086   -4.5517    0.0000 C   0  0  0  0  0  0  0  0  0  0  0  0
  -10.6675   -5.6142    0.0000 S   0  0  0  0  0  0  0  0  0  0  0  0
  -12.1170   -5.2284    0.0000 C   0  0  0  0  0  0  0  0  0  0  0  0
   -5.6506   -4.2609    0.0000 C   0  0  0  0  0  0  0  0  0  0  0  0
   -5.4394   -5.7459    0.0000 O   0  0  0  0  0  0  0  0  0  0  0  0
   -4.5918   -3.1984    0.0000 N   0  0  0  0  0  0  0  0  0  0  0  0
   -3.1422   -3.5842    0.0000 C   0  0  0  0  0  0  0  0  0  0  0  0
   -2.4723   -4.9263    0.0000 C   0  0  0  0  0  0  0  0  0  0  0  0
   -1.4366   -6.0114    0.0000 C   0  0  0  0  0  0  0  0  0  0  0  0
   -0.1271   -6.7429    0.0000 C   0  0  0  0  0  0  0  0  0  0  0  0
    1.3399   -7.0560    0.0000 C   0  0  0  0  0  0  0  0  0  0  0  0
   -4.2247   -4.6226    0.0000 C   0  0  0  0  0  0  0  0  0  0  0  0
   -3.3867   -2.1043    0.0000 C   0  0  0  0  0  0  0  0  0  0  0  0
   -4.8780   -1.9425    0.0000 O   0  0  0  0  0  0  0  0  0  0  0  0
   -3.1842   -0.6180    0.0000 N   0  0  0  0  0  0  0  0  0  0  0  0
   -2.5526    0.7425    0.0000 C   0  0  0  0  0  0  0  0  0  0  0  0
   -4.0525    0.7587    0.0000 C   0  0  0  0  0  0  0  0  0  0  0  0
   -4.7884    2.0657    0.0000 C   0  0  0  0  0  0  0  0  0  0  0  0
   -4.0245    3.3566    0.0000 C   0  0  0  0  0  0  0  0  0  0  0  0
   -4.7604    4.6636    0.0000 C   0  0  0  0  0  0  0  0  0  0  0  0
   -6.2603    4.6798    0.0000 C   0  0  0  0  0  0  0  0  0  0  0  0
   -6.9963    5.9869    0.0000 O   0  0  0  0  0  0  0  0  0  0  0  0
   -7.0243    3.3889    0.0000 C   0  0  0  0  0  0  0  0  0  0  0  0
   -6.2883    2.0819    0.0000 C   0  0  0  0  0  0  0  0  0  0  0  0
   -1.5480    1.8564    0.0000 C   0  0  0  0  0  0  0  0  0  0  0  0
   -2.3513    3.1232    0.0000 O   0  0  0  0  0  0  0  0  0  0  0  0
   -0.2597    2.6247    0.0000 N   0  0  0  0  0  0  0  0  0  0  0  0
    1.1979    2.9791    0.0000 C   0  0  0  0  0  0  0  0  0  0  0  0
    0.2753    4.1619    0.0000 C   0  0  0  0  0  0  0  0  0  0  0  0
    0.8384    5.5522    0.0000 C   0  0  0  0  0  0  0  0  0  0  0  0
    2.2941    5.9139    0.0000 C   0  0  0  0  0  0  0  0  0  0  0  0
    2.3999    7.4102    0.0000 N   0  0  0  0  0  0  0  0  0  0  0  0
    1.0096    7.9732    0.0000 C   0  0  0  0  0  0  0  0  0  0  0  0
    0.4977    9.3832    0.0000 C   0  0  0  0  0  0  0  0  0  0  0  0
   -0.9793    9.6449    0.0000 C   0  0  0  0  0  0  0  0  0  0  0  0
   -1.9444    8.4966    0.0000 C   0  0  0  0  0  0  0  0  0  0  0  0
   -1.4325    7.0866    0.0000 C   0  0  0  0  0  0  0  0  0  0  0  0
    0.0445    6.8249    0.0000 C   0  0  0  0  0  0  0  0  0  0  0  0
    2.6951    2.8882    0.0000 C   0  0  0  0  0  0  0  0  0  0  0  0
    3.1846    4.3061    0.0000 O   0  0  0  0  0  0  0  0  0  0  0  0
    4.0990    2.3600    0.0000 N   0  0  0  0  0  0  0  0  0  0  0  0
    5.2849    1.4415    0.0000 C   0  0  0  0  0  0  0  0  0  0  0  0
    5.6344    2.9002    0.0000 C   0  0  0  0  0  0  0  0  0  0  0  0
    7.0725    3.3268    0.0000 C   0  0  0  0  0  0  0  0  0  0  0  0
    7.4220    4.7855    0.0000 C   0  0  0  0  0  0  0  0  0  0  0  0
    8.8600    5.2122    0.0000 C   0  0  0  0  0  0  0  0  0  0  0  0
    9.2096    6.6709    0.0000 N   0  0  0  0  0  0  0  0  0  0  0  0
    6.1473    0.2142    0.0000 C   0  0  0  0  0  0  0  0  0  0  0  0
    7.4894    0.8841    0.0000 O   0  0  0  0  0  0  0  0  0  0  0  0
    6.6097   -1.2128    0.0000 N   0  0  0  0  0  0  0  0  0  0  0  0
    6.6309   -2.7126    0.0000 C   0  0  0  0  0  0  0  0  0  0  0  0
    6.2091   -4.1521    0.0000 C   0  0  0  0  0  0  0  0  0  0  0  0
    5.3818   -5.4033    0.0000 C   0  0  0  0  0  0  0  0  0  0  0  0
    4.2224   -6.3550    0.0000 C   0  0  0  0  0  0  0  0  0  0  0  0
    2.8339   -6.9227    0.0000 C   0  0  0  0  0  0  0  0  0  0  0  0
    7.8801   -3.5430    0.0000 C   0  0  0  0  0  0  0  0  0  0  0  0
    7.9893   -2.0764    0.0000 C   0  0  0  0  0  0  0  0  0  0  0  0
    8.2987   -0.6087    0.0000 O   0  0  0  0  0  0  0  0  0  0  0  0
    9.2195   -2.9347    0.0000 N   0  0  0  0  0  0  0  0  0  0  0  0
   10.5779   -2.2985    0.0000 C   0  0  0  0  0  0  0  0  0  0  0  0
   11.6368   -1.2360    0.0000 C   0  0  0  0  0  0  0  0  0  0  0  0
   13.0863   -1.6218    0.0000 C   0  0  0  0  0  0  0  0  0  0  0  0
   14.1452   -0.5594    0.0000 C   0  0  0  0  0  0  0  0  0  0  0  0
   14.3165   -2.4801    0.0000 C   0  0  0  0  0  0  0  0  0  0  0  0
   11.8081   -3.1568    0.0000 C   0  0  0  0  0  0  0  0  0  0  0  0
   13.2339   -2.6909    0.0000 O   0  0  0  0  0  0  0  0  0  0  0  0
   11.6798   -4.6513    0.0000 O   0  0  0  0  0  0  0  0  0  0  0  0
  -14.9529    4.8381    0.0000 H   0  0  0  0  0  0  0  0  0  0  0  0
  -15.6211    2.3274    0.0000 H   0  0  0  0  0  0  0  0  0  0  0  0
  -12.9845    4.4986    0.0000 H   0  0  0  0  0  0  0  0  0  0  0  0
  -11.6186    3.1373    0.0000 H   0  0  0  0  0  0  0  0  0  0  0  0
  -14.2161    1.4226    0.0000 H   0  0  0  0  0  0  0  0  0  0  0  0
  -12.8503    0.0613    0.0000 H   0  0  0  0  0  0  0  0  0  0  0  0
  -11.9407   -1.3407    0.0000 H   0  0  0  0  0  0  0  0  0  0  0  0
  -10.0639   -2.0245    0.0000 H   0  0  0  0  0  0  0  0  0  0  0  0
   -9.8974    1.3629    0.0000 H   0  0  0  0  0  0  0  0  0  0  0  0
   -8.6724    2.1910    0.0000 H   0  0  0  0  0  0  0  0  0  0  0  0
   -7.9124    0.2709    0.0000 H   0  0  0  0  0  0  0  0  0  0  0  0
   -9.7562   -3.4827    0.0000 H   0  0  0  0  0  0  0  0  0  0  0  0
   -6.4685   -2.5146    0.0000 H   0  0  0  0  0  0  0  0  0  0  0  0
   -8.7907   -6.2981    0.0000 H   0  0  0  0  0  0  0  0  0  0  0  0
   -6.9289   -5.7958    0.0000 H   0  0  0  0  0  0  0  0  0  0  0  0
  -10.7250   -3.5499    0.0000 H   0  0  0  0  0  0  0  0  0  0  0  0
   -9.5066   -3.0552    0.0000 H   0  0  0  0  0  0  0  0  0  0  0  0
  -13.1759   -6.2908    0.0000 H   0  0  0  0  0  0  0  0  0  0  0  0
  -13.3472   -4.3701    0.0000 H   0  0  0  0  0  0  0  0  0  0  0  0
  -11.6559   -3.8010    0.0000 H   0  0  0  0  0  0  0  0  0  0  0  0
   -5.1560   -1.8086    0.0000 H   0  0  0  0  0  0  0  0  0  0  0  0
   -3.0354   -6.3167    0.0000 H   0  0  0  0  0  0  0  0  0  0  0  0
   -3.9529   -5.1672    0.0000 H   0  0  0  0  0  0  0  0  0  0  0  0
   -1.7461   -7.4791    0.0000 H   0  0  0  0  0  0  0  0  0  0  0  0
   -2.7804   -6.6779    0.0000 H   0  0  0  0  0  0  0  0  0  0  0  0
    0.1909   -8.2088    0.0000 H   0  0  0  0  0  0  0  0  0  0  0  0
   -1.2147   -7.7759    0.0000 H   0  0  0  0  0  0  0  0  0  0  0  0
    1.2490   -8.5532    0.0000 H   0  0  0  0  0  0  0  0  0  0  0  0
   -5.5587   -4.8364    0.0000 H   0  0  0  0  0  0  0  0  0  0  0  0
   -4.3926   -6.1957    0.0000 H   0  0  0  0  0  0  0  0  0  0  0  0
   -3.1832   -5.9392    0.0000 H   0  0  0  0  0  0  0  0  0  0  0  0
   -4.6237   -0.1962    0.0000 H   0  0  0  0  0  0  0  0  0  0  0  0
   -3.1547    2.1163    0.0000 H   0  0  0  0  0  0  0  0  0  0  0  0
   -5.4675    0.2609    0.0000 H   0  0  0  0  0  0  0  0  0  0  0  0
   -4.1733   -0.7365    0.0000 H   0  0  0  0  0  0  0  0  0  0  0  0
   -2.5338    3.5234    0.0000 H   0  0  0  0  0  0  0  0  0  0  0  0
   -3.9964    5.9545    0.0000 H   0  0  0  0  0  0  0  0  0  0  0  0
   -8.4962    6.0030    0.0000 H   0  0  0  0  0  0  0  0  0  0  0  0
   -8.5242    3.4051    0.0000 H   0  0  0  0  0  0  0  0  0  0  0  0
   -6.8892    0.7075    0.0000 H   0  0  0  0  0  0  0  0  0  0  0  0
   -0.8274    4.0131    0.0000 H   0  0  0  0  0  0  0  0  0  0  0  0
    1.8965    4.3065    0.0000 H   0  0  0  0  0  0  0  0  0  0  0  0
   -0.9961    4.9578    0.0000 H   0  0  0  0  0  0  0  0  0  0  0  0
   -0.9690    3.3242    0.0000 H   0  0  0  0  0  0  0  0  0  0  0  0
    3.5515    5.0960    0.0000 H   0  0  0  0  0  0  0  0  0  0  0  0
    3.6727    8.2040    0.0000 H   0  0  0  0  0  0  0  0  0  0  0  0
    1.4629   10.5315    0.0000 H   0  0  0  0  0  0  0  0  0  0  0  0
   -1.4911   11.0548    0.0000 H   0  0  0  0  0  0  0  0  0  0  0  0
   -3.4214    8.7582    0.0000 H   0  0  0  0  0  0  0  0  0  0  0  0
   -2.3976    5.9383    0.0000 H   0  0  0  0  0  0  0  0  0  0  0  0
    4.8306    3.6695    0.0000 H   0  0  0  0  0  0  0  0  0  0  0  0
    6.7816    1.5411    0.0000 H   0  0  0  0  0  0  0  0  0  0  0  0
    5.2836    4.3586    0.0000 H   0  0  0  0  0  0  0  0  0  0  0  0
    4.2037    3.3507    0.0000 H   0  0  0  0  0  0  0  0  0  0  0  0
    8.5475    3.0541    0.0000 H   0  0  0  0  0  0  0  0  0  0  0  0
    7.4233    1.8684    0.0000 H   0  0  0  0  0  0  0  0  0  0  0  0
    7.0712    6.2439    0.0000 H   0  0  0  0  0  0  0  0  0  0  0  0
    5.9470    5.0583    0.0000 H   0  0  0  0  0  0  0  0  0  0  0  0
   10.3573    5.1213    0.0000 H   0  0  0  0  0  0  0  0  0  0  0  0
    9.2109    3.7538    0.0000 H   0  0  0  0  0  0  0  0  0  0  0  0
   10.6476    7.0976    0.0000 H   0  0  0  0  0  0  0  0  0  0  0  0
    9.0391    8.1612    0.0000 H   0  0  0  0  0  0  0  0  0  0  0  0
    7.7346    6.9437    0.0000 H   0  0  0  0  0  0  0  0  0  0  0  0
    8.0488   -0.7897    0.0000 H   0  0  0  0  0  0  0  0  0  0  0  0
    7.7089   -4.1272    0.0000 H   0  0  0  0  0  0  0  0  0  0  0  0
    7.0093   -5.4208    0.0000 H   0  0  0  0  0  0  0  0  0  0  0  0
    6.8223   -5.8215    0.0000 H   0  0  0  0  0  0  0  0  0  0  0  0
    5.9460   -6.7931    0.0000 H   0  0  0  0  0  0  0  0  0  0  0  0
    5.4756   -7.1793    0.0000 H   0  0  0  0  0  0  0  0  0  0  0  0
    4.1688   -7.8540    0.0000 H   0  0  0  0  0  0  0  0  0  0  0  0
    3.1884   -8.3802    0.0000 H   0  0  0  0  0  0  0  0  0  0  0  0
    9.2309   -3.5174    0.0000 H   0  0  0  0  0  0  0  0  0  0  0  0
    8.3237   -5.0616    0.0000 H   0  0  0  0  0  0  0  0  0  0  0  0
    7.0880   -5.0231    0.0000 H   0  0  0  0  0  0  0  0  0  0  0  0
    9.2744   -4.4337    0.0000 H   0  0  0  0  0  0  0  0  0  0  0  0
    9.7154   -1.0712    0.0000 H   0  0  0  0  0  0  0  0  0  0  0  0
   12.0978    0.1913    0.0000 H   0  0  0  0  0  0  0  0  0  0  0  0
   10.4066   -0.3777    0.0000 H   0  0  0  0  0  0  0  0  0  0  0  0
   12.9843   -3.1183    0.0000 H   0  0  0  0  0  0  0  0  0  0  0  0
   15.6309   -0.7656    0.0000 H   0  0  0  0  0  0  0  0  0  0  0  0
   14.7768    0.8012    0.0000 H   0  0  0  0  0  0  0  0  0  0  0  0
   13.0288    0.4425    0.0000 H   0  0  0  0  0  0  0  0  0  0  0  0
   15.7423   -2.0142    0.0000 H   0  0  0  0  0  0  0  0  0  0  0  0
   15.1789   -3.7074    0.0000 H   0  0  0  0  0  0  0  0  0  0  0  0
   13.2576   -3.5426    0.0000 H   0  0  0  0  0  0  0  0  0  0  0  0
  1  2  1  0
  2  3  1  0
  3  4  1  0
  4  5  2  0
  4  6  1  0
  6  7  1  0
  7  8  1  0
  7  9  1  0
  9 10  2  0
  9 11  1  0
 11 12  1  0
 12 13  1  0
 13 14  1  0
 14 15  1  0
 15 16  1  0
 12 17  1  0
 17 18  2  0
 17 19  1  0
 20 19  1  6
 20 21  1  0
 21 22  1  0
 22 23  1  0
 23 24  1  0
 20 25  1  0
 20 26  1  0
 26 27  2  0
 26 28  1  0
 28 29  1  0
 29 30  1  0
 30 31  1  0
 31 32  2  0
 32 33  1  0
 33 34  2  0
 34 35  1  0
 34 36  1  0
 36 37  2  0
 29 38  1  0
 38 39  2  0
 38 40  1  0
 40 41  1  0
 41 42  1  0
 42 43  1  0
 43 44  2  0
 44 45  1  0
 45 46  1  0
 46 47  2  0
 47 48  1  0
 48 49  2  0
 49 50  1  0
 50 51  2  0
 41 52  1  0
 52 53  2  0
 52 54  1  0
 54 55  1  0
 55 56  1  0
 56 57  1  0
 57 58  1  0
 58 59  1  0
 59 60  1  0
 55 61  1  0
 61 62  2  0
 61 63  1  0
 63 64  1  0
 64 65  1  0
 65 66  1  0
 66 67  1  0
 67 68  1  0
 64 69  1  0
 64 70  1  6
 70 71  2  0
 70 72  1  0
 72 73  1  0
 73 74  1  0
 74 75  1  0
 75 76  1  0
 75 77  1  0
 73 78  1  0
 78 79  2  0
 78 80  1  0
 37 31  1  0
 51 43  1  0
 51 46  1  0
 24 68  2  0
  1 81  1  0
  1 82  1  0
  2 83  1  0
  2 84  1  0
  3 85  1  0
  3 86  1  0
  6 87  1  0
  7 88  1  1
  8 89  1  0
  8 90  1  0
  8 91  1  0
 11 92  1  0
 12 93  1  6
 13 94  1  0
 13 95  1  0
 14 96  1  0
 14 97  1  0
 16 98  1  0
 16 99  1  0
 16100  1  0
 19101  1  0
 21102  1  0
 21103  1  0
 22104  1  0
 22105  1  0
 23106  1  0
 23107  1  0
 24108  1  0
 25109  1  0
 25110  1  0
 25111  1  0
 28112  1  0
 29113  1  1
 30114  1  0
 30115  1  0
 32116  1  0
 33117  1  0
 35118  1  0
 36119  1  0
 37120  1  0
 40121  1  0
 41122  1  1
 42123  1  0
 42124  1  0
 44125  1  0
 45126  1  0
 47127  1  0
 48128  1  0
 49129  1  0
 50130  1  0
 54131  1  0
 55132  1  1
 56133  1  0
 56134  1  0
 57135  1  0
 57136  1  0
 58137  1  0
 58138  1  0
 59139  1  0
 59140  1  0
 60141  1  0
 60142  1  0
 60143  1  0
 63144  1  0
 65145  1  0
 65146  1  0
 66147  1  0
 66148  1  0
 67149  1  0
 67150  1  0
 68151  1  0
 69152  1  0
 69153  1  0
 69154  1  0
 72155  1  0
 73156  1  1
 74157  1  0
 74158  1  0
 75159  1  0
 76160  1  0
 76161  1  0
 76162  1  0
 77163  1  0
 77164  1  0
 77165  1  0
M  CHG  2  60   1  80  -1
M  END
