
     RDKit          2D

275282  0  0  0  0  0  0  0  0999 V2000
  -28.6980    0.8254    0.0000 C   0  0  0  0  0  0  0  0  0  0  0  0
  -29.9935    0.0693    0.0000 N   0  0  0  0  0  0  0  0  0  0  0  0
  -31.2961    0.8132    0.0000 C   0  0  0  0  0  0  0  0  0  0  0  0
  -31.3031    2.3132    0.0000 C   0  0  0  0  0  0  0  0  0  0  0  0
  -32.6056    3.0571    0.0000 C   0  0  0  0  0  0  0  0  0  0  0  0
  -33.9011    2.3010    0.0000 C   0  0  0  0  0  0  0  0  0  0  0  0
  -33.8941    0.8011    0.0000 C   0  0  0  0  0  0  0  0  0  0  0  0
  -32.5916    0.0571    0.0000 C   0  0  0  0  0  0  0  0  0  0  0  0
  -35.3185    0.3309    0.0000 C   0  0  0  0  0  0  0  0  0  0  0  0
  -36.2059    1.5403    0.0000 O   0  0  0  0  0  0  0  0  0  0  0  0
  -35.3299    2.7579    0.0000 C   0  0  0  0  0  0  0  0  0  0  0  0
  -35.8001    4.1823    0.0000 O   0  0  0  0  0  0  0  0  0  0  0  0
  -36.7843    0.0122    0.0000 C   0  0  0  0  0  0  0  0  0  0  0  0
  -37.2411   -1.4166    0.0000 C   0  0  0  0  0  0  0  0  0  0  0  0
  -38.7069   -1.7353    0.0000 C   0  0  0  0  0  0  0  0  0  0  0  0
  -39.7158   -0.6253    0.0000 C   0  0  0  0  0  0  0  0  0  0  0  0
  -39.2589    0.8034    0.0000 C   0  0  0  0  0  0  0  0  0  0  0  0
  -37.7932    1.1222    0.0000 C   0  0  0  0  0  0  0  0  0  0  0  0
  -41.1815   -0.9440    0.0000 O   0  0  0  0  0  0  0  0  0  0  0  0
  -36.2322   -2.5266    0.0000 O   0  0  0  0  0  0  0  0  0  0  0  0
  -34.7665   -2.2079    0.0000 C   0  0  0  0  0  0  0  0  0  0  0  0
  -34.3096   -0.7791    0.0000 C   0  0  0  0  0  0  0  0  0  0  0  0
  -33.0571   -1.1272    0.0000 C   0  0  0  0  0  0  0  0  0  0  0  0
  -32.5190   -1.7192    0.0000 C   0  0  0  0  0  0  0  0  0  0  0  0
  -32.7627   -2.4812    0.0000 C   0  0  0  0  0  0  0  0  0  0  0  0
  -33.5444   -2.6511    0.0000 C   0  0  0  0  0  0  0  0  0  0  0  0
  -31.2829   -4.1092    0.0000 O   0  0  0  0  0  0  0  0  0  0  0  0
  -28.7050    2.3253    0.0000 S   0  0  0  0  0  0  0  0  0  0  0  0
  -27.3955    0.0814    0.0000 N   0  0  0  0  0  0  0  0  0  0  0  0
  -26.1000    0.8375    0.0000 C   0  0  0  0  0  0  0  0  0  0  0  0
  -24.7975    0.0936    0.0000 C   0  0  0  0  0  0  0  0  0  0  0  0
  -23.5019    0.8496    0.0000 C   0  0  0  0  0  0  0  0  0  0  0  0
  -23.5089    2.3496    0.0000 O   0  0  0  0  0  0  0  0  0  0  0  0
  -22.1994    0.1057    0.0000 N   0  0  0  0  0  0  0  0  0  0  0  0
  -20.9039    0.8618    0.0000 C   0  0  0  0  0  0  0  0  0  0  0  0
  -19.9451    2.0153    0.0000 C   0  0  0  0  0  0  0  0  0  0  0  0
  -19.6014    0.1179    0.0000 C   0  0  0  0  0  0  0  0  0  0  0  0
  -19.5943   -1.3821    0.0000 O   0  0  0  0  0  0  0  0  0  0  0  0
  -18.3058    0.8739    0.0000 N   0  0  0  0  0  0  0  0  0  0  0  0
  -17.0033    0.1300    0.0000 C   0  0  0  0  0  0  0  0  0  0  0  0
  -16.0338   -1.0145    0.0000 C   0  0  0  0  0  0  0  0  0  0  0  0
  -16.5402   -2.4265    0.0000 O   0  0  0  0  0  0  0  0  0  0  0  0
  -15.7078    0.8861    0.0000 C   0  0  0  0  0  0  0  0  0  0  0  0
  -15.7148    2.3861    0.0000 O   0  0  0  0  0  0  0  0  0  0  0  0
  -14.4053    0.1422    0.0000 N   0  0  0  0  0  0  0  0  0  0  0  0
  -13.1097    0.8982    0.0000 C   0  0  0  0  0  0  0  0  0  0  0  0
  -12.1509    2.0518    0.0000 C   0  0  0  0  0  0  0  0  0  0  0  0
  -11.6445    3.4637    0.0000 O   0  0  0  0  0  0  0  0  0  0  0  0
  -10.6526    1.9803    0.0000 C   0  0  0  0  0  0  0  0  0  0  0  0
  -11.8072    0.1543    0.0000 C   0  0  0  0  0  0  0  0  0  0  0  0
  -11.8002   -1.3457    0.0000 O   0  0  0  0  0  0  0  0  0  0  0  0
  -10.5117    0.9104    0.0000 N   0  0  0  0  0  0  0  0  0  0  0  0
   -9.2092    0.1664    0.0000 C   0  0  0  0  0  0  0  0  0  0  0  0
   -8.2396   -0.9781    0.0000 C   0  0  0  0  0  0  0  0  0  0  0  0
   -8.7461   -2.3900    0.0000 C   0  0  0  0  0  0  0  0  0  0  0  0
   -7.7765   -3.5346    0.0000 C   0  0  0  0  0  0  0  0  0  0  0  0
   -9.7049   -3.5436    0.0000 C   0  0  0  0  0  0  0  0  0  0  0  0
   -7.9136    0.9225    0.0000 C   0  0  0  0  0  0  0  0  0  0  0  0
   -7.9207    2.4225    0.0000 O   0  0  0  0  0  0  0  0  0  0  0  0
   -6.6111    0.1786    0.0000 N   0  0  0  0  0  0  0  0  0  0  0  0
   -5.3156    0.9347    0.0000 C   0  0  0  0  0  0  0  0  0  0  0  0
   -4.3568    2.0882    0.0000 C   0  0  0  0  0  0  0  0  0  0  0  0
   -2.8784    1.8346    0.0000 C   0  0  0  0  0  0  0  0  0  0  0  0
   -2.3588    0.4275    0.0000 C   0  0  0  0  0  0  0  0  0  0  0  0
   -0.8804    0.1740    0.0000 C   0  0  0  0  0  0  0  0  0  0  0  0
    0.0784    1.3275    0.0000 C   0  0  0  0  0  0  0  0  0  0  0  0
   -0.4412    2.7346    0.0000 C   0  0  0  0  0  0  0  0  0  0  0  0
   -1.9196    2.9882    0.0000 C   0  0  0  0  0  0  0  0  0  0  0  0
   -4.0131    0.1907    0.0000 C   0  0  0  0  0  0  0  0  0  0  0  0
   -4.1890   -1.2989    0.0000 O   0  0  0  0  0  0  0  0  0  0  0  0
   -2.7176    0.9468    0.0000 N   0  0  0  0  0  0  0  0  0  0  0  0
   -1.4150    0.2029    0.0000 C   0  0  0  0  0  0  0  0  0  0  0  0
   -0.4455   -0.9417    0.0000 C   0  0  0  0  0  0  0  0  0  0  0  0
   -0.9519   -2.3536    0.0000 C   0  0  0  0  0  0  0  0  0  0  0  0
    0.0176   -3.4981    0.0000 C   0  0  0  0  0  0  0  0  0  0  0  0
   -0.4888   -4.9101    0.0000 O   0  0  0  0  0  0  0  0  0  0  0  0
    1.4936   -3.2308    0.0000 O   0  0  0  0  0  0  0  0  0  0  0  0
   -0.1195    0.9589    0.0000 C   0  0  0  0  0  0  0  0  0  0  0  0
    0.2366    2.4160    0.0000 O   0  0  0  0  0  0  0  0  0  0  0  0
    1.1830    0.2150    0.0000 N   0  0  0  0  0  0  0  0  0  0  0  0
    2.4785    0.9711    0.0000 C   0  0  0  0  0  0  0  0  0  0  0  0
    3.4373    2.1246    0.0000 C   0  0  0  0  0  0  0  0  0  0  0  0
    3.9438    3.5366    0.0000 O   0  0  0  0  0  0  0  0  0  0  0  0
    4.9356    2.0532    0.0000 C   0  0  0  0  0  0  0  0  0  0  0  0
    3.7811    0.2272    0.0000 C   0  0  0  0  0  0  0  0  0  0  0  0
    3.6052   -1.2625    0.0000 O   0  0  0  0  0  0  0  0  0  0  0  0
    5.0766    0.9832    0.0000 N   0  0  0  0  0  0  0  0  0  0  0  0
    6.3791    0.2393    0.0000 C   0  0  0  0  0  0  0  0  0  0  0  0
    7.3487   -0.9052    0.0000 C   0  0  0  0  0  0  0  0  0  0  0  0
    6.8422   -2.3172    0.0000 C   0  0  0  0  0  0  0  0  0  0  0  0
    5.3662   -2.5845    0.0000 C   0  0  0  0  0  0  0  0  0  0  0  0
    4.8598   -3.9965    0.0000 C   0  0  0  0  0  0  0  0  0  0  0  0
    5.8294   -5.1410    0.0000 C   0  0  0  0  0  0  0  0  0  0  0  0
    7.3053   -4.8736    0.0000 C   0  0  0  0  0  0  0  0  0  0  0  0
    7.8118   -3.4617    0.0000 C   0  0  0  0  0  0  0  0  0  0  0  0
    7.6746    0.9954    0.0000 C   0  0  0  0  0  0  0  0  0  0  0  0
    7.6676    2.4954    0.0000 O   0  0  0  0  0  0  0  0  0  0  0  0
    8.9772    0.2515    0.0000 N   0  0  0  0  0  0  0  0  0  0  0  0
   10.2727    1.0075    0.0000 C   0  0  0  0  0  0  0  0  0  0  0  0
   11.2315    2.1611    0.0000 C   0  0  0  0  0  0  0  0  0  0  0  0
   12.7099    1.9075    0.0000 C   0  0  0  0  0  0  0  0  0  0  0  0
   13.2295    0.5004    0.0000 C   0  0  0  0  0  0  0  0  0  0  0  0
   14.7079    0.2468    0.0000 C   0  0  0  0  0  0  0  0  0  0  0  0
   15.6667    1.4004    0.0000 C   0  0  0  0  0  0  0  0  0  0  0  0
   17.1451    1.1468    0.0000 O   0  0  0  0  0  0  0  0  0  0  0  0
   15.1471    2.8075    0.0000 C   0  0  0  0  0  0  0  0  0  0  0  0
   13.6687    3.0611    0.0000 C   0  0  0  0  0  0  0  0  0  0  0  0
   11.5752    0.2636    0.0000 C   0  0  0  0  0  0  0  0  0  0  0  0
   11.3993   -1.2261    0.0000 O   0  0  0  0  0  0  0  0  0  0  0  0
   12.8707    1.0197    0.0000 N   0  0  0  0  0  0  0  0  0  0  0  0
   14.1733    0.2757    0.0000 C   0  0  0  0  0  0  0  0  0  0  0  0
   15.1428   -0.8688    0.0000 C   0  0  0  0  0  0  0  0  0  0  0  0
   14.6364   -2.2807    0.0000 C   0  0  0  0  0  0  0  0  0  0  0  0
   15.6059   -3.4253    0.0000 C   0  0  0  0  0  0  0  0  0  0  0  0
   13.6776   -3.4343    0.0000 C   0  0  0  0  0  0  0  0  0  0  0  0
   15.4688    1.0318    0.0000 C   0  0  0  0  0  0  0  0  0  0  0  0
   15.8249    2.4889    0.0000 O   0  0  0  0  0  0  0  0  0  0  0  0
   16.7713    0.2879    0.0000 N   0  0  0  0  0  0  0  0  0  0  0  0
   18.0668    1.0440    0.0000 C   0  0  0  0  0  0  0  0  0  0  0  0
   19.3694    0.3000    0.0000 C   0  0  0  0  0  0  0  0  0  0  0  0
   19.3764   -1.2000    0.0000 O   0  0  0  0  0  0  0  0  0  0  0  0
   20.6649    1.0561    0.0000 N   0  0  0  0  0  0  0  0  0  0  0  0
   21.9674    0.3122    0.0000 C   0  0  0  0  0  0  0  0  0  0  0  0
   23.2629    1.0682    0.0000 C   0  0  0  0  0  0  0  0  0  0  0  0
   23.2559    2.5682    0.0000 O   0  0  0  0  0  0  0  0  0  0  0  0
   24.5655    0.3243    0.0000 N   0  0  0  0  0  0  0  0  0  0  0  0
   25.8610    1.0804    0.0000 C   0  0  0  0  0  0  0  0  0  0  0  0
   26.8198    2.2339    0.0000 C   0  0  0  0  0  0  0  0  0  0  0  0
   28.2982    1.9804    0.0000 C   0  0  0  0  0  0  0  0  0  0  0  0
   29.2570    3.1339    0.0000 C   0  0  0  0  0  0  0  0  0  0  0  0
   29.6007    1.2365    0.0000 C   0  0  0  0  0  0  0  0  0  0  0  0
   27.1635    0.3365    0.0000 C   0  0  0  0  0  0  0  0  0  0  0  0
   27.1705   -1.1635    0.0000 O   0  0  0  0  0  0  0  0  0  0  0  0
   28.4590    1.0925    0.0000 N   0  0  0  0  0  0  0  0  0  0  0  0
   29.7616    0.3486    0.0000 C   0  0  0  0  0  0  0  0  0  0  0  0
   30.7311   -0.7959    0.0000 C   0  0  0  0  0  0  0  0  0  0  0  0
   30.2247   -2.2079    0.0000 C   0  0  0  0  0  0  0  0  0  0  0  0
   31.1942   -3.3524    0.0000 C   0  0  0  0  0  0  0  0  0  0  0  0
   29.2659   -3.3614    0.0000 C   0  0  0  0  0  0  0  0  0  0  0  0
   31.0571    1.1047    0.0000 C   0  0  0  0  0  0  0  0  0  0  0  0
   31.2330    2.5943    0.0000 O   0  0  0  0  0  0  0  0  0  0  0  0
   32.3596    0.3608    0.0000 N   0  0  0  0  0  0  0  0  0  0  0  0
   33.6551    1.1168    0.0000 C   0  0  0  0  0  0  0  0  0  0  0  0
   34.9576    0.3729    0.0000 C   0  0  0  0  0  0  0  0  0  0  0  0
   36.2532    1.1290    0.0000 O   0  0  0  0  0  0  0  0  0  0  0  0
   34.9647   -1.1271    0.0000 O   0  0  0  0  0  0  0  0  0  0  0  0
  -29.8037   -1.4187    0.0000 H   0  0  0  0  0  0  0  0  0  0  0  0
  -30.0076    3.0693    0.0000 H   0  0  0  0  0  0  0  0  0  0  0  0
  -32.6126    4.5571    0.0000 H   0  0  0  0  0  0  0  0  0  0  0  0
  -32.2218   -1.3966    0.0000 H   0  0  0  0  0  0  0  0  0  0  0  0
  -39.1637   -3.1640    0.0000 H   0  0  0  0  0  0  0  0  0  0  0  0
  -40.2678    1.9135    0.0000 H   0  0  0  0  0  0  0  0  0  0  0  0
  -37.3363    2.5509    0.0000 H   0  0  0  0  0  0  0  0  0  0  0  0
  -42.1904    0.1660    0.0000 H   0  0  0  0  0  0  0  0  0  0  0  0
  -32.3870    0.9683    0.0000 H   0  0  0  0  0  0  0  0  0  0  0  0
  -30.3413   -1.4328    0.0000 H   0  0  0  0  0  0  0  0  0  0  0  0
  -34.2144   -4.7466    0.0000 H   0  0  0  0  0  0  0  0  0  0  0  0
  -31.7398   -5.5379    0.0000 H   0  0  0  0  0  0  0  0  0  0  0  0
  -27.3885   -1.4186    0.0000 H   0  0  0  0  0  0  0  0  0  0  0  0
  -25.1412    1.9911    0.0000 H   0  0  0  0  0  0  0  0  0  0  0  0
  -27.0695    1.9820    0.0000 H   0  0  0  0  0  0  0  0  0  0  0  0
  -23.8279   -1.0510    0.0000 H   0  0  0  0  0  0  0  0  0  0  0  0
  -25.7563   -1.0600    0.0000 H   0  0  0  0  0  0  0  0  0  0  0  0
  -22.1924   -1.3943    0.0000 H   0  0  0  0  0  0  0  0  0  0  0  0
  -21.8734    2.0063    0.0000 H   0  0  0  0  0  0  0  0  0  0  0  0
  -18.4740    2.3086    0.0000 H   0  0  0  0  0  0  0  0  0  0  0  0
  -19.4387    3.4273    0.0000 H   0  0  0  0  0  0  0  0  0  0  0  0
  -21.2476    2.7593    0.0000 H   0  0  0  0  0  0  0  0  0  0  0  0
  -18.1300    2.3636    0.0000 H   0  0  0  0  0  0  0  0  0  0  0  0
  -17.9621   -1.0236    0.0000 H   0  0  0  0  0  0  0  0  0  0  0  0
  -14.8316   -1.9117    0.0000 H   0  0  0  0  0  0  0  0  0  0  0  0
  -14.8243   -0.1273    0.0000 H   0  0  0  0  0  0  0  0  0  0  0  0
  -15.5707   -3.5710    0.0000 H   0  0  0  0  0  0  0  0  0  0  0  0
  -14.2155   -1.3458    0.0000 H   0  0  0  0  0  0  0  0  0  0  0  0
  -14.0793    2.0428    0.0000 H   0  0  0  0  0  0  0  0  0  0  0  0
  -13.4535    2.7957    0.0000 H   0  0  0  0  0  0  0  0  0  0  0  0
  -12.6141    4.6082    0.0000 H   0  0  0  0  0  0  0  0  0  0  0  0
   -9.7137    2.9518    0.0000 H   0  0  0  0  0  0  0  0  0  0  0  0
   -9.3700    1.0543    0.0000 H   0  0  0  0  0  0  0  0  0  0  0  0
  -10.4567    0.3138    0.0000 H   0  0  0  0  0  0  0  0  0  0  0  0
  -10.3358    2.4000    0.0000 H   0  0  0  0  0  0  0  0  0  0  0  0
  -10.3014   -0.8616    0.0000 H   0  0  0  0  0  0  0  0  0  0  0  0
   -6.9371   -1.7220    0.0000 H   0  0  0  0  0  0  0  0  0  0  0  0
   -7.0302   -0.0908    0.0000 H   0  0  0  0  0  0  0  0  0  0  0  0
  -10.1296   -1.8104    0.0000 H   0  0  0  0  0  0  0  0  0  0  0  0
   -8.1071   -4.9977    0.0000 H   0  0  0  0  0  0  0  0  0  0  0  0
   -6.4740   -4.2785    0.0000 H   0  0  0  0  0  0  0  0  0  0  0  0
   -6.6843   -2.5065    0.0000 H   0  0  0  0  0  0  0  0  0  0  0  0
   -9.3606   -5.0036    0.0000 H   0  0  0  0  0  0  0  0  0  0  0  0
  -11.0004   -4.2997    0.0000 H   0  0  0  0  0  0  0  0  0  0  0  0
  -10.6744   -2.3990    0.0000 H   0  0  0  0  0  0  0  0  0  0  0  0
   -6.4213   -1.3094    0.0000 H   0  0  0  0  0  0  0  0  0  0  0  0
   -6.2851    2.0792    0.0000 H   0  0  0  0  0  0  0  0  0  0  0  0
   -3.8504    3.5001    0.0000 H   0  0  0  0  0  0  0  0  0  0  0  0
   -5.6593    2.8321    0.0000 H   0  0  0  0  0  0  0  0  0  0  0  0
   -3.1698   -0.8343    0.0000 H   0  0  0  0  0  0  0  0  0  0  0  0
   -0.0357   -1.0656    0.0000 H   0  0  0  0  0  0  0  0  0  0  0  0
    1.5569    1.0740    0.0000 H   0  0  0  0  0  0  0  0  0  0  0  0
    0.5176    3.8882    0.0000 H   0  0  0  0  0  0  0  0  0  0  0  0
   -2.4392    4.3953    0.0000 H   0  0  0  0  0  0  0  0  0  0  0  0
   -2.3614    2.4039    0.0000 H   0  0  0  0  0  0  0  0  0  0  0  0
   -2.5073   -0.8252    0.0000 H   0  0  0  0  0  0  0  0  0  0  0  0
    0.7567   -1.8388    0.0000 H   0  0  0  0  0  0  0  0  0  0  0  0
    0.7640   -0.0544    0.0000 H   0  0  0  0  0  0  0  0  0  0  0  0
   -1.9107   -3.5072    0.0000 H   0  0  0  0  0  0  0  0  0  0  0  0
   -2.3354   -1.7740    0.0000 H   0  0  0  0  0  0  0  0  0  0  0  0
    2.4631   -4.3753    0.0000 H   0  0  0  0  0  0  0  0  0  0  0  0
    1.3728   -1.2729    0.0000 H   0  0  0  0  0  0  0  0  0  0  0  0
    1.5090    2.1156    0.0000 H   0  0  0  0  0  0  0  0  0  0  0  0
    2.1348    2.8686    0.0000 H   0  0  0  0  0  0  0  0  0  0  0  0
    5.3762    3.9819    0.0000 H   0  0  0  0  0  0  0  0  0  0  0  0
    6.0080    2.8992    0.0000 H   0  0  0  0  0  0  0  0  0  0  0  0
    6.2183    1.1272    0.0000 H   0  0  0  0  0  0  0  0  0  0  0  0
    5.1316    0.3867    0.0000 H   0  0  0  0  0  0  0  0  0  0  0  0
    5.2525    2.4729    0.0000 H   0  0  0  0  0  0  0  0  0  0  0  0
    5.4203   -0.9143    0.0000 H   0  0  0  0  0  0  0  0  0  0  0  0
    8.5508   -1.8024    0.0000 H   0  0  0  0  0  0  0  0  0  0  0  0
    8.5581   -0.0180    0.0000 H   0  0  0  0  0  0  0  0  0  0  0  0
    4.2644   -1.5667    0.0000 H   0  0  0  0  0  0  0  0  0  0  0  0
    3.3838   -4.2638    0.0000 H   0  0  0  0  0  0  0  0  0  0  0  0
    5.3229   -6.5529    0.0000 H   0  0  0  0  0  0  0  0  0  0  0  0
    8.2749   -6.0182    0.0000 H   0  0  0  0  0  0  0  0  0  0  0  0
    9.2877   -3.1943    0.0000 H   0  0  0  0  0  0  0  0  0  0  0  0
    9.1670   -1.2365    0.0000 H   0  0  0  0  0  0  0  0  0  0  0  0
    9.3031    2.1521    0.0000 H   0  0  0  0  0  0  0  0  0  0  0  0
   11.7379    3.5730    0.0000 H   0  0  0  0  0  0  0  0  0  0  0  0
    9.9290    2.9050    0.0000 H   0  0  0  0  0  0  0  0  0  0  0  0
   12.4185   -0.7614    0.0000 H   0  0  0  0  0  0  0  0  0  0  0  0
   15.5526   -0.9928    0.0000 H   0  0  0  0  0  0  0  0  0  0  0  0
   18.1039    2.3004    0.0000 H   0  0  0  0  0  0  0  0  0  0  0  0
   16.1059    3.9611    0.0000 H   0  0  0  0  0  0  0  0  0  0  0  0
   13.1491    4.4682    0.0000 H   0  0  0  0  0  0  0  0  0  0  0  0
   13.2269    2.4768    0.0000 H   0  0  0  0  0  0  0  0  0  0  0  0
   13.0810   -0.7523    0.0000 H   0  0  0  0  0  0  0  0  0  0  0  0
   16.4453   -1.6127    0.0000 H   0  0  0  0  0  0  0  0  0  0  0  0
   16.3522    0.0185    0.0000 H   0  0  0  0  0  0  0  0  0  0  0  0
   13.2529   -1.7011    0.0000 H   0  0  0  0  0  0  0  0  0  0  0  0
   15.2754   -4.8884    0.0000 H   0  0  0  0  0  0  0  0  0  0  0  0
   16.9084   -4.1692    0.0000 H   0  0  0  0  0  0  0  0  0  0  0  0
   16.6982   -2.3972    0.0000 H   0  0  0  0  0  0  0  0  0  0  0  0
   14.0218   -4.8943    0.0000 H   0  0  0  0  0  0  0  0  0  0  0  0
   12.3821   -4.1904    0.0000 H   0  0  0  0  0  0  0  0  0  0  0  0
   12.7080   -2.2897    0.0000 H   0  0  0  0  0  0  0  0  0  0  0  0
   16.9611   -1.2001    0.0000 H   0  0  0  0  0  0  0  0  0  0  0  0
   19.0256    2.1975    0.0000 H   0  0  0  0  0  0  0  0  0  0  0  0
   17.0973    2.1885    0.0000 H   0  0  0  0  0  0  0  0  0  0  0  0
   20.6579    2.5561    0.0000 H   0  0  0  0  0  0  0  0  0  0  0  0
   22.9369   -0.8324    0.0000 H   0  0  0  0  0  0  0  0  0  0  0  0
   21.0086   -0.8414    0.0000 H   0  0  0  0  0  0  0  0  0  0  0  0
   24.5725   -1.1757    0.0000 H   0  0  0  0  0  0  0  0  0  0  0  0
   24.8914    2.2249    0.0000 H   0  0  0  0  0  0  0  0  0  0  0  0
   27.1503    3.6971    0.0000 H   0  0  0  0  0  0  0  0  0  0  0  0
   25.5172    2.9779    0.0000 H   0  0  0  0  0  0  0  0  0  0  0  0
   28.5140    0.4960    0.0000 H   0  0  0  0  0  0  0  0  0  0  0  0
   30.7528    3.2457    0.0000 H   0  0  0  0  0  0  0  0  0  0  0  0
   29.7634    4.5459    0.0000 H   0  0  0  0  0  0  0  0  0  0  0  0
   28.0549    4.0311    0.0000 H   0  0  0  0  0  0  0  0  0  0  0  0
   29.9705   -0.2172    0.0000 H   0  0  0  0  0  0  0  0  0  0  0  0
   31.0718    1.5297    0.0000 H   0  0  0  0  0  0  0  0  0  0  0  0
   30.2755    2.5761    0.0000 H   0  0  0  0  0  0  0  0  0  0  0  0
   28.8152    2.5496    0.0000 H   0  0  0  0  0  0  0  0  0  0  0  0
   28.6693   -0.6795    0.0000 H   0  0  0  0  0  0  0  0  0  0  0  0
   32.0336   -1.5399    0.0000 H   0  0  0  0  0  0  0  0  0  0  0  0
   32.0397   -0.0627    0.0000 H   0  0  0  0  0  0  0  0  0  0  0  0
   28.8412   -1.6283    0.0000 H   0  0  0  0  0  0  0  0  0  0  0  0
   30.8636   -4.8155    0.0000 H   0  0  0  0  0  0  0  0  0  0  0  0
   32.4967   -4.0963    0.0000 H   0  0  0  0  0  0  0  0  0  0  0  0
   32.2865   -2.3243    0.0000 H   0  0  0  0  0  0  0  0  0  0  0  0
   29.6101   -4.8214    0.0000 H   0  0  0  0  0  0  0  0  0  0  0  0
   27.9703   -4.1175    0.0000 H   0  0  0  0  0  0  0  0  0  0  0  0
   28.2963   -2.2169    0.0000 H   0  0  0  0  0  0  0  0  0  0  0  0
   32.5494   -1.1272    0.0000 H   0  0  0  0  0  0  0  0  0  0  0  0
   34.6139    2.2704    0.0000 H   0  0  0  0  0  0  0  0  0  0  0  0
   32.6856    2.2614    0.0000 H   0  0  0  0  0  0  0  0  0  0  0  0
   36.2672   -1.8710    0.0000 H   0  0  0  0  0  0  0  0  0  0  0  0
  1  2  1  0
  2  3  1  0
  3  4  2  0
  4  5  1  0
  5  6  2  0
  6  7  1  0
  7  8  2  0
  7  9  1  0
  9 10  1  0
 10 11  1  0
 11 12  2  0
  9 13  1  0
 13 14  1  0
 14 15  2  0
 15 16  1  0
 16 17  2  0
 17 18  1  0
 16 19  1  0
 14 20  1  0
 20 21  1  0
 21 22  2  0
 22 23  1  0
 23 24  2  0
 24 25  1  0
 25 26  2  0
 25 27  1  0
  1 28  2  0
  1 29  1  0
 29 30  1  0
 30 31  1  0
 31 32  1  0
 32 33  2  0
 32 34  1  0
 34 35  1  0
 35 36  1  0
 35 37  1  0
 37 38  2  0
 37 39  1  0
 39 40  1  0
 40 41  1  0
 41 42  1  0
 40 43  1  0
 43 44  2  0
 43 45  1  0
 45 46  1  0
 46 47  1  0
 47 48  1  0
 47 49  1  0
 46 50  1  0
 50 51  2  0
 50 52  1  0
 52 53  1  0
 53 54  1  0
 54 55  1  0
 55 56  1  0
 55 57  1  0
 53 58  1  0
 58 59  2  0
 58 60  1  0
 60 61  1  0
 61 62  1  0
 62 63  1  0
 63 64  2  0
 64 65  1  0
 65 66  2  0
 66 67  1  0
 67 68  2  0
 61 69  1  0
 69 70  2  0
 69 71  1  0
 71 72  1  0
 72 73  1  0
 73 74  1  0
 74 75  1  0
 75 76  2  0
 75 77  1  0
 72 78  1  0
 78 79  2  0
 78 80  1  0
 80 81  1  0
 81 82  1  0
 82 83  1  0
 82 84  1  0
 81 85  1  0
 85 86  2  0
 85 87  1  0
 87 88  1  0
 88 89  1  0
 89 90  1  0
 90 91  2  0
 91 92  1  0
 92 93  2  0
 93 94  1  0
 94 95  2  0
 88 96  1  0
 96 97  2  0
 96 98  1  0
 98 99  1  0
 99100  1  0
100101  1  0
101102  2  0
102103  1  0
103104  2  0
104105  1  0
104106  1  0
106107  2  0
 99108  1  0
108109  2  0
108110  1  0
110111  1  0
111112  1  0
112113  1  0
113114  1  0
113115  1  0
111116  1  0
116117  2  0
116118  1  0
118119  1  0
119120  1  0
120121  2  0
120122  1  0
122123  1  0
123124  1  0
124125  2  0
124126  1  0
126127  1  0
127128  1  0
128129  1  0
129130  1  0
129131  1  0
127132  1  0
132133  2  0
132134  1  0
134135  1  0
135136  1  0
136137  1  0
137138  1  0
137139  1  0
135140  1  0
140141  2  0
140142  1  0
142143  1  0
143144  1  0
144145  2  0
144146  1  0
  8  3  1  0
 68 63  1  0
 95 90  1  0
107101  1  0
 11  6  1  0
 18 13  2  0
 22  9  1  0
 26 21  1  0
  2147  1  0
  4148  1  0
  5149  1  0
  8150  1  0
 15151  1  0
 17152  1  0
 18153  1  0
 19154  1  0
 23155  1  0
 24156  1  0
 26157  1  0
 27158  1  0
 29159  1  0
 30160  1  0
 30161  1  0
 31162  1  0
 31163  1  0
 34164  1  0
 35165  1  1
 36166  1  0
 36167  1  0
 36168  1  0
 39169  1  0
 40170  1  6
 41171  1  0
 41172  1  0
 42173  1  0
 45174  1  0
 46175  1  1
 47176  1  1
 48177  1  0
 49178  1  0
 49179  1  0
 49180  1  0
 52181  1  0
 53182  1  6
 54183  1  0
 54184  1  0
 55185  1  0
 56186  1  0
 56187  1  0
 56188  1  0
 57189  1  0
 57190  1  0
 57191  1  0
 60192  1  0
 61193  1  1
 62194  1  0
 62195  1  0
 64196  1  0
 65197  1  0
 66198  1  0
 67199  1  0
 68200  1  0
 71201  1  0
 72202  1  6
 73203  1  0
 73204  1  0
 74205  1  0
 74206  1  0
 77207  1  0
 80208  1  0
 81209  1  1
 82210  1  1
 83211  1  0
 84212  1  0
 84213  1  0
 84214  1  0
 87215  1  0
 88216  1  6
 89217  1  0
 89218  1  0
 91219  1  0
 92220  1  0
 93221  1  0
 94222  1  0
 95223  1  0
 98224  1  0
 99225  1  1
100226  1  0
100227  1  0
102228  1  0
103229  1  0
105230  1  0
106231  1  0
107232  1  0
110233  1  0
111234  1  6
112235  1  0
112236  1  0
113237  1  0
114238  1  0
114239  1  0
114240  1  0
115241  1  0
115242  1  0
115243  1  0
118244  1  0
119245  1  0
119246  1  0
122247  1  0
123248  1  0
123249  1  0
126250  1  0
127251  1  1
128252  1  0
128253  1  0
129254  1  0
130255  1  0
130256  1  0
130257  1  0
131258  1  0
131259  1  0
131260  1  0
134261  1  0
135262  1  6
136263  1  0
136264  1  0
137265  1  0
138266  1  0
138267  1  0
138268  1  0
139269  1  0
139270  1  0
139271  1  0
142272  1  0
143273  1  0
143274  1  0
146275  1  0
M  END
