
     RDKit          2D

355364  0  0  0  0  0  0  0  0999 V2000
  -28.7649   -0.2441    0.0000 C   0  0  0  0  0  0  0  0  0  0  0  0
  -30.0128   -1.0764    0.0000 N   0  0  0  0  0  0  0  0  0  0  0  0
  -31.3576   -0.4118    0.0000 C   0  0  0  0  0  0  0  0  0  0  0  0
  -31.4544    1.0850    0.0000 C   0  0  0  0  0  0  0  0  0  0  0  0
  -32.7991    1.7496    0.0000 C   0  0  0  0  0  0  0  0  0  0  0  0
  -34.0471    0.9173    0.0000 C   0  0  0  0  0  0  0  0  0  0  0  0
  -33.9502   -0.5795    0.0000 C   0  0  0  0  0  0  0  0  0  0  0  0
  -32.6055   -1.2441    0.0000 C   0  0  0  0  0  0  0  0  0  0  0  0
  -35.3439   -1.1342    0.0000 C   0  0  0  0  0  0  0  0  0  0  0  0
  -36.3021    0.0199    0.0000 O   0  0  0  0  0  0  0  0  0  0  0  0
  -35.5006    1.2878    0.0000 C   0  0  0  0  0  0  0  0  0  0  0  0
  -36.0552    2.6815    0.0000 O   0  0  0  0  0  0  0  0  0  0  0  0
  -36.7879   -1.5401    0.0000 C   0  0  0  0  0  0  0  0  0  0  0  0
  -37.1584   -2.9936    0.0000 C   0  0  0  0  0  0  0  0  0  0  0  0
  -38.6024   -3.3996    0.0000 C   0  0  0  0  0  0  0  0  0  0  0  0
  -39.6760   -2.3520    0.0000 C   0  0  0  0  0  0  0  0  0  0  0  0
  -39.3055   -0.8984    0.0000 C   0  0  0  0  0  0  0  0  0  0  0  0
  -37.8615   -0.4925    0.0000 C   0  0  0  0  0  0  0  0  0  0  0  0
  -41.1200   -2.7579    0.0000 O   0  0  0  0  0  0  0  0  0  0  0  0
  -36.0849   -4.0413    0.0000 O   0  0  0  0  0  0  0  0  0  0  0  0
  -34.6408   -3.6353    0.0000 C   0  0  0  0  0  0  0  0  0  0  0  0
  -34.2704   -2.1818    0.0000 C   0  0  0  0  0  0  0  0  0  0  0  0
  -32.9992   -2.4542    0.0000 C   0  0  0  0  0  0  0  0  0  0  0  0
  -32.4266   -3.0129    0.0000 C   0  0  0  0  0  0  0  0  0  0  0  0
  -32.6242   -3.7881    0.0000 C   0  0  0  0  0  0  0  0  0  0  0  0
  -33.3944   -4.0046    0.0000 C   0  0  0  0  0  0  0  0  0  0  0  0
  -31.0497   -5.3246    0.0000 O   0  0  0  0  0  0  0  0  0  0  0  0
  -28.8617    1.2527    0.0000 S   0  0  0  0  0  0  0  0  0  0  0  0
  -27.4202   -0.9087    0.0000 N   0  0  0  0  0  0  0  0  0  0  0  0
  -26.1723   -0.0764    0.0000 C   0  0  0  0  0  0  0  0  0  0  0  0
  -24.8275   -0.7410    0.0000 C   0  0  0  0  0  0  0  0  0  0  0  0
  -23.5796    0.0913    0.0000 C   0  0  0  0  0  0  0  0  0  0  0  0
  -23.6764    1.5882    0.0000 O   0  0  0  0  0  0  0  0  0  0  0  0
  -22.2349   -0.5733    0.0000 N   0  0  0  0  0  0  0  0  0  0  0  0
  -20.9869    0.2590    0.0000 C   0  0  0  0  0  0  0  0  0  0  0  0
  -20.0989    1.4679    0.0000 C   0  0  0  0  0  0  0  0  0  0  0  0
  -18.6080    1.3033    0.0000 C   0  0  0  0  0  0  0  0  0  0  0  0
  -17.7200    2.5122    0.0000 C   0  0  0  0  0  0  0  0  0  0  0  0
  -16.5051    2.5271    0.0000 O   0  0  0  0  0  0  0  0  0  0  0  0
  -18.3229    3.8857    0.0000 O   0  0  0  0  0  0  0  0  0  0  0  0
  -19.6422   -0.4056    0.0000 C   0  0  0  0  0  0  0  0  0  0  0  0
  -19.5454   -1.9025    0.0000 O   0  0  0  0  0  0  0  0  0  0  0  0
  -18.3943    0.4267    0.0000 N   0  0  0  0  0  0  0  0  0  0  0  0
  -17.0495   -0.2379    0.0000 C   0  0  0  0  0  0  0  0  0  0  0  0
  -16.0132   -1.3223    0.0000 C   0  0  0  0  0  0  0  0  0  0  0  0
  -16.4342   -2.7620    0.0000 C   0  0  0  0  0  0  0  0  0  0  0  0
  -15.3978   -3.8464    0.0000 C   0  0  0  0  0  0  0  0  0  0  0  0
  -15.8188   -5.2862    0.0000 N   0  0  0  0  0  0  0  0  0  0  0  0
  -14.7824   -6.3706    0.0000 C   0  0  0  0  0  0  0  0  0  0  0  0
  -15.2034   -7.8103    0.0000 N   0  0  0  0  0  0  0  0  0  0  0  0
  -13.3251   -6.0153    0.0000 N   0  0  0  0  0  0  0  0  0  0  0  0
  -15.8016    0.5944    0.0000 C   0  0  0  0  0  0  0  0  0  0  0  0
  -15.7317    1.8074    0.0000 O   0  0  0  0  0  0  0  0  0  0  0  0
  -14.4569   -0.0702    0.0000 N   0  0  0  0  0  0  0  0  0  0  0  0
  -13.2090    0.7621    0.0000 C   0  0  0  0  0  0  0  0  0  0  0  0
  -12.3210    1.9710    0.0000 C   0  0  0  0  0  0  0  0  0  0  0  0
  -10.8300    1.8065    0.0000 C   0  0  0  0  0  0  0  0  0  0  0  0
  -10.0868    0.5035    0.0000 C   0  0  0  0  0  0  0  0  0  0  0  0
   -8.6180    0.8077    0.0000 N   0  0  0  0  0  0  0  0  0  0  0  0
   -8.4534    2.2987    0.0000 C   0  0  0  0  0  0  0  0  0  0  0  0
   -7.2353    3.1740    0.0000 C   0  0  0  0  0  0  0  0  0  0  0  0
   -7.3843    4.6666    0.0000 C   0  0  0  0  0  0  0  0  0  0  0  0
   -8.7514    5.2838    0.0000 C   0  0  0  0  0  0  0  0  0  0  0  0
   -9.9695    4.4085    0.0000 C   0  0  0  0  0  0  0  0  0  0  0  0
   -9.8205    2.9159    0.0000 C   0  0  0  0  0  0  0  0  0  0  0  0
  -11.8642    0.0975    0.0000 C   0  0  0  0  0  0  0  0  0  0  0  0
  -11.7674   -1.3993    0.0000 O   0  0  0  0  0  0  0  0  0  0  0  0
  -10.6163    0.9298    0.0000 N   0  0  0  0  0  0  0  0  0  0  0  0
   -9.2716    0.2653    0.0000 C   0  0  0  0  0  0  0  0  0  0  0  0
   -8.2352   -0.8192    0.0000 C   0  0  0  0  0  0  0  0  0  0  0  0
   -8.6562   -2.2589    0.0000 C   0  0  0  0  0  0  0  0  0  0  0  0
   -7.6198   -3.3433    0.0000 C   0  0  0  0  0  0  0  0  0  0  0  0
   -8.0408   -4.7830    0.0000 N   0  0  0  0  0  0  0  0  0  0  0  0
   -7.0045   -5.8675    0.0000 C   0  0  0  0  0  0  0  0  0  0  0  0
   -7.4254   -7.3072    0.0000 N   0  0  0  0  0  0  0  0  0  0  0  0
   -5.5472   -5.5122    0.0000 N   0  0  0  0  0  0  0  0  0  0  0  0
   -8.0236    1.0975    0.0000 C   0  0  0  0  0  0  0  0  0  0  0  0
   -7.7554    2.5734    0.0000 O   0  0  0  0  0  0  0  0  0  0  0  0
   -6.6789    0.4330    0.0000 N   0  0  0  0  0  0  0  0  0  0  0  0
   -5.4310    1.2653    0.0000 C   0  0  0  0  0  0  0  0  0  0  0  0
   -4.5430    2.4742    0.0000 C   0  0  0  0  0  0  0  0  0  0  0  0
   -3.0520    2.3096    0.0000 C   0  0  0  0  0  0  0  0  0  0  0  0
   -2.1641    3.5185    0.0000 C   0  0  0  0  0  0  0  0  0  0  0  0
   -0.6731    3.3539    0.0000 N   0  0  0  0  0  0  0  0  0  0  0  0
    0.2149    4.5628    0.0000 C   0  0  0  0  0  0  0  0  0  0  0  0
    1.7058    4.3983    0.0000 N   0  0  0  0  0  0  0  0  0  0  0  0
   -0.3881    5.9363    0.0000 N   0  0  0  0  0  0  0  0  0  0  0  0
   -4.0862    0.6007    0.0000 C   0  0  0  0  0  0  0  0  0  0  0  0
   -3.9894   -0.8962    0.0000 O   0  0  0  0  0  0  0  0  0  0  0  0
   -2.8383    1.4330    0.0000 N   0  0  0  0  0  0  0  0  0  0  0  0
   -1.4936    0.7684    0.0000 C   0  0  0  0  0  0  0  0  0  0  0  0
   -0.4572   -0.3160    0.0000 C   0  0  0  0  0  0  0  0  0  0  0  0
   -0.8782   -1.7558    0.0000 C   0  0  0  0  0  0  0  0  0  0  0  0
    0.1581   -2.8402    0.0000 C   0  0  0  0  0  0  0  0  0  0  0  0
   -0.2628   -4.2799    0.0000 N   0  0  0  0  0  0  0  0  0  0  0  0
    0.7735   -5.3643    0.0000 C   0  0  0  0  0  0  0  0  0  0  0  0
    0.3525   -6.8041    0.0000 N   0  0  0  0  0  0  0  0  0  0  0  0
    2.2308   -5.0091    0.0000 N   0  0  0  0  0  0  0  0  0  0  0  0
   -0.2457    1.6007    0.0000 C   0  0  0  0  0  0  0  0  0  0  0  0
    0.0226    3.0765    0.0000 O   0  0  0  0  0  0  0  0  0  0  0  0
    1.0991    0.9361    0.0000 N   0  0  0  0  0  0  0  0  0  0  0  0
    2.3470    1.7684    0.0000 C   0  0  0  0  0  0  0  0  0  0  0  0
    3.2350    2.9773    0.0000 C   0  0  0  0  0  0  0  0  0  0  0  0
    4.7349    2.9957    0.0000 C   0  0  0  0  0  0  0  0  0  0  0  0
    3.6560    4.4170    0.0000 C   0  0  0  0  0  0  0  0  0  0  0  0
    5.0591    4.9473    0.0000 C   0  0  0  0  0  0  0  0  0  0  0  0
    3.6917    1.1038    0.0000 C   0  0  0  0  0  0  0  0  0  0  0  0
    3.6054   -0.3937    0.0000 O   0  0  0  0  0  0  0  0  0  0  0  0
    4.9396    1.9361    0.0000 N   0  0  0  0  0  0  0  0  0  0  0  0
    6.2844    1.2715    0.0000 C   0  0  0  0  0  0  0  0  0  0  0  0
    6.6759   -0.1765    0.0000 C   0  0  0  0  0  0  0  0  0  0  0  0
    7.4768   -1.4448    0.0000 C   0  0  0  0  0  0  0  0  0  0  0  0
    8.6160   -2.4206    0.0000 C   0  0  0  0  0  0  0  0  0  0  0  0
    9.9922   -3.0174    0.0000 C   0  0  0  0  0  0  0  0  0  0  0  0
    5.0181    0.4675    0.0000 C   0  0  0  0  0  0  0  0  0  0  0  0
    6.3371    2.7706    0.0000 C   0  0  0  0  0  0  0  0  0  0  0  0
    4.9072    3.2238    0.0000 O   0  0  0  0  0  0  0  0  0  0  0  0
    6.8293    4.1875    0.0000 N   0  0  0  0  0  0  0  0  0  0  0  0
    7.7173    5.3964    0.0000 C   0  0  0  0  0  0  0  0  0  0  0  0
    7.3984    6.8622    0.0000 C   0  0  0  0  0  0  0  0  0  0  0  0
    8.5084    7.8711    0.0000 C   0  0  0  0  0  0  0  0  0  0  0  0
    8.1895    9.3369    0.0000 C   0  0  0  0  0  0  0  0  0  0  0  0
    9.8168    8.6046    0.0000 C   0  0  0  0  0  0  0  0  0  0  0  0
    8.9222    6.2899    0.0000 C   0  0  0  0  0  0  0  0  0  0  0  0
    8.5597    7.7454    0.0000 O   0  0  0  0  0  0  0  0  0  0  0  0
   10.3369    6.7885    0.0000 N   0  0  0  0  0  0  0  0  0  0  0  0
   11.8357    6.8480    0.0000 C   0  0  0  0  0  0  0  0  0  0  0  0
   12.7828    8.0111    0.0000 C   0  0  0  0  0  0  0  0  0  0  0  0
   12.2491    9.4130    0.0000 S   0  0  0  0  0  0  0  0  0  0  0  0
   13.2855    6.4630    0.0000 C   0  0  0  0  0  0  0  0  0  0  0  0
   13.8822    7.8392    0.0000 O   0  0  0  0  0  0  0  0  0  0  0  0
   14.5573    5.6679    0.0000 N   0  0  0  0  0  0  0  0  0  0  0  0
   15.5383    4.5331    0.0000 C   0  0  0  0  0  0  0  0  0  0  0  0
   17.0383    4.5178    0.0000 C   0  0  0  0  0  0  0  0  0  0  0  0
   17.8015    5.8091    0.0000 C   0  0  0  0  0  0  0  0  0  0  0  0
   19.3014    5.7938    0.0000 C   0  0  0  0  0  0  0  0  0  0  0  0
   20.0646    7.0852    0.0000 N   0  0  0  0  0  0  0  0  0  0  0  0
   21.5645    7.0699    0.0000 C   0  0  0  0  0  0  0  0  0  0  0  0
   22.3278    8.3612    0.0000 N   0  0  0  0  0  0  0  0  0  0  0  0
   22.3012    5.7632    0.0000 N   0  0  0  0  0  0  0  0  0  0  0  0
   16.1413    3.1597    0.0000 C   0  0  0  0  0  0  0  0  0  0  0  0
   17.5893    3.5512    0.0000 O   0  0  0  0  0  0  0  0  0  0  0  0
   16.3126    1.6695    0.0000 N   0  0  0  0  0  0  0  0  0  0  0  0
   16.0371    0.1950    0.0000 C   0  0  0  0  0  0  0  0  0  0  0  0
   15.3392   -1.1328    0.0000 C   0  0  0  0  0  0  0  0  0  0  0  0
   14.2809   -2.1958    0.0000 C   0  0  0  0  0  0  0  0  0  0  0  0
   12.9563   -2.8997    0.0000 C   0  0  0  0  0  0  0  0  0  0  0  0
   11.4831   -3.1819    0.0000 C   0  0  0  0  0  0  0  0  0  0  0  0
   17.4944    0.5503    0.0000 C   0  0  0  0  0  0  0  0  0  0  0  0
   16.9603   -0.9872    0.0000 C   0  0  0  0  0  0  0  0  0  0  0  0
   16.7513   -2.4726    0.0000 O   0  0  0  0  0  0  0  0  0  0  0  0
   18.4457   -0.7788    0.0000 N   0  0  0  0  0  0  0  0  0  0  0  0
   19.3690   -1.9611    0.0000 C   0  0  0  0  0  0  0  0  0  0  0  0
   19.8322   -3.3877    0.0000 C   0  0  0  0  0  0  0  0  0  0  0  0
   18.8282   -4.5022    0.0000 C   0  0  0  0  0  0  0  0  0  0  0  0
   19.1397   -5.9695    0.0000 C   0  0  0  0  0  0  0  0  0  0  0  0
   17.8405   -6.7192    0.0000 N   0  0  0  0  0  0  0  0  0  0  0  0
   16.7260   -5.7153    0.0000 C   0  0  0  0  0  0  0  0  0  0  0  0
   17.3365   -4.3451    0.0000 N   0  0  0  0  0  0  0  0  0  0  0  0
   20.8544   -1.7526    0.0000 C   0  0  0  0  0  0  0  0  0  0  0  0
   21.4166   -0.3620    0.0000 O   0  0  0  0  0  0  0  0  0  0  0  0
   21.7776   -2.9349    0.0000 N   0  0  0  0  0  0  0  0  0  0  0  0
   23.2631   -2.7264    0.0000 C   0  0  0  0  0  0  0  0  0  0  0  0
   24.5877   -2.0225    0.0000 C   0  0  0  0  0  0  0  0  0  0  0  0
   25.8596   -2.8177    0.0000 C   0  0  0  0  0  0  0  0  0  0  0  0
   27.2505   -2.2561    0.0000 C   0  0  0  0  0  0  0  0  0  0  0  0
   28.2144   -3.4054    0.0000 N   0  0  0  0  0  0  0  0  0  0  0  0
   27.4192   -4.6773    0.0000 C   0  0  0  0  0  0  0  0  0  0  0  0
   25.9638   -4.3141    0.0000 N   0  0  0  0  0  0  0  0  0  0  0  0
   24.1863   -3.9087    0.0000 C   0  0  0  0  0  0  0  0  0  0  0  0
   23.6241   -5.2993    0.0000 O   0  0  0  0  0  0  0  0  0  0  0  0
   25.6718   -3.7003    0.0000 N   0  0  0  0  0  0  0  0  0  0  0  0
   26.5950   -4.8825    0.0000 C   0  0  0  0  0  0  0  0  0  0  0  0
   27.0582   -6.3092    0.0000 C   0  0  0  0  0  0  0  0  0  0  0  0
   26.0542   -7.4237    0.0000 O   0  0  0  0  0  0  0  0  0  0  0  0
   28.0804   -4.6741    0.0000 C   0  0  0  0  0  0  0  0  0  0  0  0
   28.9624   -3.4608    0.0000 O   0  0  0  0  0  0  0  0  0  0  0  0
   29.0036   -5.8563    0.0000 N   0  0  0  0  0  0  0  0  0  0  0  0
   30.4891   -5.6479    0.0000 C   0  0  0  0  0  0  0  0  0  0  0  0
   31.8137   -4.9440    0.0000 C   0  0  0  0  0  0  0  0  0  0  0  0
   32.8176   -3.8295    0.0000 O   0  0  0  0  0  0  0  0  0  0  0  0
   33.0856   -5.7391    0.0000 C   0  0  0  0  0  0  0  0  0  0  0  0
   31.4123   -6.8301    0.0000 C   0  0  0  0  0  0  0  0  0  0  0  0
   32.9121   -6.8043    0.0000 O   0  0  0  0  0  0  0  0  0  0  0  0
   30.8501   -8.2208    0.0000 O   0  0  0  0  0  0  0  0  0  0  0  0
  -29.7343   -2.5503    0.0000 H   0  0  0  0  0  0  0  0  0  0  0  0
  -30.2065    1.9173    0.0000 H   0  0  0  0  0  0  0  0  0  0  0  0
  -32.8960    3.2465    0.0000 H   0  0  0  0  0  0  0  0  0  0  0  0
  -32.1493   -2.6731    0.0000 H   0  0  0  0  0  0  0  0  0  0  0  0
  -38.9729   -4.8531    0.0000 H   0  0  0  0  0  0  0  0  0  0  0  0
  -40.3791    0.1492    0.0000 H   0  0  0  0  0  0  0  0  0  0  0  0
  -37.4910    0.9610    0.0000 H   0  0  0  0  0  0  0  0  0  0  0  0
  -42.1936   -1.7103    0.0000 H   0  0  0  0  0  0  0  0  0  0  0  0
  -32.4559   -0.3223    0.0000 H   0  0  0  0  0  0  0  0  0  0  0  0
  -30.2700   -2.5966    0.0000 H   0  0  0  0  0  0  0  0  0  0  0  0
  -33.9377   -6.1365    0.0000 H   0  0  0  0  0  0  0  0  0  0  0  0
  -31.4201   -6.7781    0.0000 H   0  0  0  0  0  0  0  0  0  0  0  0
  -27.3233   -2.4056    0.0000 H   0  0  0  0  0  0  0  0  0  0  0  0
  -25.2843    1.1325    0.0000 H   0  0  0  0  0  0  0  0  0  0  0  0
  -27.2086    1.0080    0.0000 H   0  0  0  0  0  0  0  0  0  0  0  0
  -23.7912   -1.8254    0.0000 H   0  0  0  0  0  0  0  0  0  0  0  0
  -25.7155   -1.9499    0.0000 H   0  0  0  0  0  0  0  0  0  0  0  0
  -22.1380   -2.0702    0.0000 H   0  0  0  0  0  0  0  0  0  0  0  0
  -22.0233    1.3434    0.0000 H   0  0  0  0  0  0  0  0  0  0  0  0
  -19.6780    2.9076    0.0000 H   0  0  0  0  0  0  0  0  0  0  0  0
  -21.4437    2.1325    0.0000 H   0  0  0  0  0  0  0  0  0  0  0  0
  -17.2633    0.6388    0.0000 H   0  0  0  0  0  0  0  0  0  0  0  0
  -18.3036   -0.1655    0.0000 H   0  0  0  0  0  0  0  0  0  0  0  0
  -17.4349    5.0946    0.0000 H   0  0  0  0  0  0  0  0  0  0  0  0
  -18.1260    1.9025    0.0000 H   0  0  0  0  0  0  0  0  0  0  0  0
  -18.0783   -1.3295    0.0000 H   0  0  0  0  0  0  0  0  0  0  0  0
  -14.6684   -1.9869    0.0000 H   0  0  0  0  0  0  0  0  0  0  0  0
  -14.8591   -0.3642    0.0000 H   0  0  0  0  0  0  0  0  0  0  0  0
  -17.3222   -3.9709    0.0000 H   0  0  0  0  0  0  0  0  0  0  0  0
  -17.8499   -2.2663    0.0000 H   0  0  0  0  0  0  0  0  0  0  0  0
  -14.0531   -4.5110    0.0000 H   0  0  0  0  0  0  0  0  0  0  0  0
  -14.3691   -2.7548    0.0000 H   0  0  0  0  0  0  0  0  0  0  0  0
  -17.2761   -5.6414    0.0000 H   0  0  0  0  0  0  0  0  0  0  0  0
  -14.1671   -8.8947    0.0000 H   0  0  0  0  0  0  0  0  0  0  0  0
  -12.2888   -7.0997    0.0000 H   0  0  0  0  0  0  0  0  0  0  0  0
  -12.9042   -4.5756    0.0000 H   0  0  0  0  0  0  0  0  0  0  0  0
  -14.1783   -1.5441    0.0000 H   0  0  0  0  0  0  0  0  0  0  0  0
  -14.2453    1.8466    0.0000 H   0  0  0  0  0  0  0  0  0  0  0  0
  -11.9000    3.4108    0.0000 H   0  0  0  0  0  0  0  0  0  0  0  0
  -13.6657    2.6356    0.0000 H   0  0  0  0  0  0  0  0  0  0  0  0
  -10.8661   -0.7782    0.0000 H   0  0  0  0  0  0  0  0  0  0  0  0
   -7.3937   -0.0590    0.0000 H   0  0  0  0  0  0  0  0  0  0  0  0
   -5.8682    2.5568    0.0000 H   0  0  0  0  0  0  0  0  0  0  0  0
   -6.1662    5.5419    0.0000 H   0  0  0  0  0  0  0  0  0  0  0  0
   -8.9004    6.7764    0.0000 H   0  0  0  0  0  0  0  0  0  0  0  0
  -11.3366    5.0258    0.0000 H   0  0  0  0  0  0  0  0  0  0  0  0
  -10.3480    2.4057    0.0000 H   0  0  0  0  0  0  0  0  0  0  0  0
  -10.1596   -0.9437    0.0000 H   0  0  0  0  0  0  0  0  0  0  0  0
   -6.8905   -1.4838    0.0000 H   0  0  0  0  0  0  0  0  0  0  0  0
   -6.9729   -0.0089    0.0000 H   0  0  0  0  0  0  0  0  0  0  0  0
   -9.5442   -3.4678    0.0000 H   0  0  0  0  0  0  0  0  0  0  0  0
  -10.0719   -1.7632    0.0000 H   0  0  0  0  0  0  0  0  0  0  0  0
   -6.2751   -4.0079    0.0000 H   0  0  0  0  0  0  0  0  0  0  0  0
   -6.5911   -2.2517    0.0000 H   0  0  0  0  0  0  0  0  0  0  0  0
   -9.4981   -5.1383    0.0000 H   0  0  0  0  0  0  0  0  0  0  0  0
   -6.3891   -8.3916    0.0000 H   0  0  0  0  0  0  0  0  0  0  0  0
   -4.5108   -6.5966    0.0000 H   0  0  0  0  0  0  0  0  0  0  0  0
   -5.1262   -4.0725    0.0000 H   0  0  0  0  0  0  0  0  0  0  0  0
   -6.4003   -1.0409    0.0000 H   0  0  0  0  0  0  0  0  0  0  0  0
   -6.5918    2.2153    0.0000 H   0  0  0  0  0  0  0  0  0  0  0  0
   -4.3007    3.9545    0.0000 H   0  0  0  0  0  0  0  0  0  0  0  0
   -5.7967    3.2977    0.0000 H   0  0  0  0  0  0  0  0  0  0  0  0
   -1.7073    1.6450    0.0000 H   0  0  0  0  0  0  0  0  0  0  0  0
   -2.7477    0.8408    0.0000 H   0  0  0  0  0  0  0  0  0  0  0  0
   -1.7431    4.9582    0.0000 H   0  0  0  0  0  0  0  0  0  0  0  0
   -3.4178    4.3420    0.0000 H   0  0  0  0  0  0  0  0  0  0  0  0
    0.2443    2.1672    0.0000 H   0  0  0  0  0  0  0  0  0  0  0  0
    2.5938    5.6072    0.0000 H   0  0  0  0  0  0  0  0  0  0  0  0
    0.4999    7.1452    0.0000 H   0  0  0  0  0  0  0  0  0  0  0  0
   -1.8790    6.1009    0.0000 H   0  0  0  0  0  0  0  0  0  0  0  0
   -2.5701    2.9088    0.0000 H   0  0  0  0  0  0  0  0  0  0  0  0
   -2.5223   -0.3233    0.0000 H   0  0  0  0  0  0  0  0  0  0  0  0
    0.8875   -0.9806    0.0000 H   0  0  0  0  0  0  0  0  0  0  0  0
    0.6969    0.6421    0.0000 H   0  0  0  0  0  0  0  0  0  0  0  0
   -1.7662   -2.9647    0.0000 H   0  0  0  0  0  0  0  0  0  0  0  0
   -2.2939   -1.2601    0.0000 H   0  0  0  0  0  0  0  0  0  0  0  0
    1.5029   -3.5048    0.0000 H   0  0  0  0  0  0  0  0  0  0  0  0
    1.1869   -1.7485    0.0000 H   0  0  0  0  0  0  0  0  0  0  0  0
   -1.7202   -4.6352    0.0000 H   0  0  0  0  0  0  0  0  0  0  0  0
    1.3889   -7.8885    0.0000 H   0  0  0  0  0  0  0  0  0  0  0  0
    3.2672   -6.0935    0.0000 H   0  0  0  0  0  0  0  0  0  0  0  0
    2.6518   -3.5693    0.0000 H   0  0  0  0  0  0  0  0  0  0  0  0
    1.3776   -0.5378    0.0000 H   0  0  0  0  0  0  0  0  0  0  0  0
    1.3106    2.8528    0.0000 H   0  0  0  0  0  0  0  0  0  0  0  0
    1.8193    3.4730    0.0000 H   0  0  0  0  0  0  0  0  0  0  0  0
    5.6363    4.0219    0.0000 H   0  0  0  0  0  0  0  0  0  0  0  0
    6.2361    2.4966    0.0000 H   0  0  0  0  0  0  0  0  0  0  0  0
    4.9152    1.3267    0.0000 H   0  0  0  0  0  0  0  0  0  0  0  0
    3.5591    5.9139    0.0000 H   0  0  0  0  0  0  0  0  0  0  0  0
    2.1962    4.7621    0.0000 H   0  0  0  0  0  0  0  0  0  0  0  0
    5.2141    6.2894    0.0000 H   0  0  0  0  0  0  0  0  0  0  0  0
    6.5997    4.9734    0.0000 H   0  0  0  0  0  0  0  0  0  0  0  0
    5.2101    3.2754    0.0000 H   0  0  0  0  0  0  0  0  0  0  0  0
    4.6611    3.4100    0.0000 H   0  0  0  0  0  0  0  0  0  0  0  0
    5.1770   -0.1201    0.0000 H   0  0  0  0  0  0  0  0  0  0  0  0
    5.8493   -1.4282    0.0000 H   0  0  0  0  0  0  0  0  0  0  0  0
    6.0859   -2.0064    0.0000 H   0  0  0  0  0  0  0  0  0  0  0  0
    6.8835   -2.8224    0.0000 H   0  0  0  0  0  0  0  0  0  0  0  0
    7.3457   -3.2184    0.0000 H   0  0  0  0  0  0  0  0  0  0  0  0
    8.6381   -3.9205    0.0000 H   0  0  0  0  0  0  0  0  0  0  0  0
    9.6072   -4.4671    0.0000 H   0  0  0  0  0  0  0  0  0  0  0  0
    4.9665   -1.1977    0.0000 H   0  0  0  0  0  0  0  0  0  0  0  0
    3.7995   -0.3340    0.0000 H   0  0  0  0  0  0  0  0  0  0  0  0
    4.0155    1.3232    0.0000 H   0  0  0  0  0  0  0  0  0  0  0  0
    5.7099    5.1860    0.0000 H   0  0  0  0  0  0  0  0  0  0  0  0
    6.2501    5.7086    0.0000 H   0  0  0  0  0  0  0  0  0  0  0  0
    6.4489    8.0233    0.0000 H   0  0  0  0  0  0  0  0  0  0  0  0
    5.9140    6.6464    0.0000 H   0  0  0  0  0  0  0  0  0  0  0  0
    9.5924    6.8344    0.0000 H   0  0  0  0  0  0  0  0  0  0  0  0
    9.1682   10.4736    0.0000 H   0  0  0  0  0  0  0  0  0  0  0  0
    7.3886   10.6051    0.0000 H   0  0  0  0  0  0  0  0  0  0  0  0
    6.7425    8.9418    0.0000 H   0  0  0  0  0  0  0  0  0  0  0  0
   10.2778    9.8904    0.0000 H   0  0  0  0  0  0  0  0  0  0  0  0
   11.3964    8.6923    0.0000 H   0  0  0  0  0  0  0  0  0  0  0  0
   10.5605    7.0946    0.0000 H   0  0  0  0  0  0  0  0  0  0  0  0
   10.2363    8.2851    0.0000 H   0  0  0  0  0  0  0  0  0  0  0  0
   11.3336    8.2615    0.0000 H   0  0  0  0  0  0  0  0  0  0  0  0
   14.0707    8.7802    0.0000 H   0  0  0  0  0  0  0  0  0  0  0  0
   14.0093    7.1475    0.0000 H   0  0  0  0  0  0  0  0  0  0  0  0
   13.1963   10.5761    0.0000 H   0  0  0  0  0  0  0  0  0  0  0  0
   15.5332    6.8070    0.0000 H   0  0  0  0  0  0  0  0  0  0  0  0
   15.9986    5.9608    0.0000 H   0  0  0  0  0  0  0  0  0  0  0  0
   18.3677    3.8232    0.0000 H   0  0  0  0  0  0  0  0  0  0  0  0
   17.1277    3.0205    0.0000 H   0  0  0  0  0  0  0  0  0  0  0  0
   18.0770    7.2836    0.0000 H   0  0  0  0  0  0  0  0  0  0  0  0
   16.4720    6.5038    0.0000 H   0  0  0  0  0  0  0  0  0  0  0  0
   20.7056    5.2665    0.0000 H   0  0  0  0  0  0  0  0  0  0  0  0
   19.2077    4.2968    0.0000 H   0  0  0  0  0  0  0  0  0  0  0  0
   19.3279    8.3918    0.0000 H   0  0  0  0  0  0  0  0  0  0  0  0
   23.8277    8.3459    0.0000 H   0  0  0  0  0  0  0  0  0  0  0  0
   23.8012    5.7479    0.0000 H   0  0  0  0  0  0  0  0  0  0  0  0
   21.5380    4.4719    0.0000 H   0  0  0  0  0  0  0  0  0  0  0  0
   17.8117    1.6168    0.0000 H   0  0  0  0  0  0  0  0  0  0  0  0
   15.8729   -2.5346    0.0000 H   0  0  0  0  0  0  0  0  0  0  0  0
   16.7702   -1.5824    0.0000 H   0  0  0  0  0  0  0  0  0  0  0  0
   14.5595   -3.6697    0.0000 H   0  0  0  0  0  0  0  0  0  0  0  0
   15.5158   -3.0473    0.0000 H   0  0  0  0  0  0  0  0  0  0  0  0
   12.6076   -4.3586    0.0000 H   0  0  0  0  0  0  0  0  0  0  0  0
   14.0220   -3.9554    0.0000 H   0  0  0  0  0  0  0  0  0  0  0  0
   11.5426   -4.6807    0.0000 H   0  0  0  0  0  0  0  0  0  0  0  0
   18.7623   -0.2512    0.0000 H   0  0  0  0  0  0  0  0  0  0  0  0
   18.6316    1.5285    0.0000 H   0  0  0  0  0  0  0  0  0  0  0  0
   17.2417    2.0288    0.0000 H   0  0  0  0  0  0  0  0  0  0  0  0
   19.1733    0.5329    0.0000 H   0  0  0  0  0  0  0  0  0  0  0  0
   18.0444   -2.6650    0.0000 H   0  0  0  0  0  0  0  0  0  0  0  0
   20.6044   -4.6737    0.0000 H   0  0  0  0  0  0  0  0  0  0  0  0
   21.2877   -3.0253    0.0000 H   0  0  0  0  0  0  0  0  0  0  0  0
   20.5099   -6.5799    0.0000 H   0  0  0  0  0  0  0  0  0  0  0  0
   17.6834   -8.2110    0.0000 H   0  0  0  0  0  0  0  0  0  0  0  0
   15.2587   -6.0268    0.0000 H   0  0  0  0  0  0  0  0  0  0  0  0
   21.3891   -4.3837    0.0000 H   0  0  0  0  0  0  0  0  0  0  0  0
   22.7999   -1.2998    0.0000 H   0  0  0  0  0  0  0  0  0  0  0  0
   25.5916   -0.9081    0.0000 H   0  0  0  0  0  0  0  0  0  0  0  0
   23.6645   -0.8403    0.0000 H   0  0  0  0  0  0  0  0  0  0  0  0
   27.6137   -0.8008    0.0000 H   0  0  0  0  0  0  0  0  0  0  0  0
   29.7108   -3.3011    0.0000 H   0  0  0  0  0  0  0  0  0  0  0  0
   28.1462   -5.9894    0.0000 H   0  0  0  0  0  0  0  0  0  0  0  0
   26.5538   -2.4870    0.0000 H   0  0  0  0  0  0  0  0  0  0  0  0
   25.2704   -5.5864    0.0000 H   0  0  0  0  0  0  0  0  0  0  0  0
   27.8304   -7.5951    0.0000 H   0  0  0  0  0  0  0  0  0  0  0  0
   28.5470   -6.1268    0.0000 H   0  0  0  0  0  0  0  0  0  0  0  0
   26.5174   -8.8504    0.0000 H   0  0  0  0  0  0  0  0  0  0  0  0
   28.6151   -7.3051    0.0000 H   0  0  0  0  0  0  0  0  0  0  0  0
   30.0259   -4.2212    0.0000 H   0  0  0  0  0  0  0  0  0  0  0  0
   30.8905   -3.7617    0.0000 H   0  0  0  0  0  0  0  0  0  0  0  0
   34.3119   -3.9605    0.0000 H   0  0  0  0  0  0  0  0  0  0  0  0
   34.4861   -5.2020    0.0000 H   0  0  0  0  0  0  0  0  0  0  0  0
   34.0088   -6.9214    0.0000 H   0  0  0  0  0  0  0  0  0  0  0  0
   32.5478   -7.1394    0.0000 H   0  0  0  0  0  0  0  0  0  0  0  0
   31.7733   -9.4030    0.0000 H   0  0  0  0  0  0  0  0  0  0  0  0
  1  2  1  0
  2  3  1  0
  3  4  2  0
  4  5  1  0
  5  6  2  0
  6  7  1  0
  7  8  2  0
  7  9  1  0
  9 10  1  0
 10 11  1  0
 11 12  2  0
  9 13  1  0
 13 14  1  0
 14 15  2  0
 15 16  1  0
 16 17  2  0
 17 18  1  0
 16 19  1  0
 14 20  1  0
 20 21  1  0
 21 22  2  0
 22 23  1  0
 23 24  2  0
 24 25  1  0
 25 26  2  0
 25 27  1  0
  1 28  2  0
  1 29  1  0
 29 30  1  0
 30 31  1  0
 31 32  1  0
 32 33  2  0
 32 34  1  0
 34 35  1  0
 35 36  1  0
 36 37  1  0
 37 38  1  0
 38 39  2  0
 38 40  1  0
 35 41  1  0
 41 42  2  0
 41 43  1  0
 43 44  1  0
 44 45  1  0
 45 46  1  0
 46 47  1  0
 47 48  1  0
 48 49  1  0
 49 50  2  3
 49 51  1  0
 44 52  1  0
 52 53  2  0
 52 54  1  0
 54 55  1  0
 55 56  1  0
 56 57  1  0
 57 58  2  0
 58 59  1  0
 59 60  1  0
 60 61  2  0
 61 62  1  0
 62 63  2  0
 63 64  1  0
 64 65  2  0
 55 66  1  0
 66 67  2  0
 66 68  1  0
 68 69  1  0
 69 70  1  0
 70 71  1  0
 71 72  1  0
 72 73  1  0
 73 74  1  0
 74 75  2  3
 74 76  1  0
 69 77  1  0
 77 78  2  0
 77 79  1  0
 79 80  1  0
 80 81  1  0
 81 82  1  0
 82 83  1  0
 83 84  1  0
 84 85  1  0
 85 86  2  3
 85 87  1  0
 80 88  1  0
 88 89  2  0
 88 90  1  0
 90 91  1  0
 91 92  1  0
 92 93  1  0
 93 94  1  0
 94 95  1  0
 95 96  1  0
 96 97  2  3
 96 98  1  0
 91 99  1  0
 99100  2  0
 99101  1  0
101102  1  0
102103  1  0
103104  1  0
103105  1  0
105106  1  0
102107  1  0
107108  2  0
107109  1  0
110109  1  6
110111  1  0
111112  1  0
112113  1  0
113114  1  0
110115  1  0
110116  1  0
116117  2  0
116118  1  0
118119  1  0
119120  1  0
120121  1  0
121122  1  0
121123  1  0
119124  1  0
124125  2  0
124126  1  0
126127  1  0
127128  1  0
128129  1  0
127130  1  0
130131  2  0
130132  1  0
132133  1  0
133134  1  0
134135  1  0
135136  1  0
136137  1  0
137138  1  0
138139  2  3
138140  1  0
133141  1  0
141142  2  0
141143  1  0
143144  1  0
144145  1  0
145146  1  0
146147  1  0
147148  1  0
144149  1  0
144150  1  6
150151  2  0
150152  1  0
152153  1  0
153154  1  0
154155  1  0
155156  2  0
156157  1  0
157158  1  0
158159  2  0
153160  1  0
160161  2  0
160162  1  0
162163  1  0
163164  1  0
164165  1  0
165166  2  0
166167  1  0
167168  1  0
168169  2  0
163170  1  0
170171  2  0
170172  1  0
172173  1  0
173174  1  0
174175  1  0
173176  1  0
176177  2  0
176178  1  0
178179  1  0
179180  1  0
180181  1  0
180182  1  0
179183  1  0
183184  2  0
183185  1  0
  8  3  1  0
 65 57  1  0
159155  1  0
169165  1  0
 11  6  1  0
 65 60  1  0
114148  2  0
 18 13  2  0
 22  9  1  0
 26 21  1  0
  2186  1  0
  4187  1  0
  5188  1  0
  8189  1  0
 15190  1  0
 17191  1  0
 18192  1  0
 19193  1  0
 23194  1  0
 24195  1  0
 26196  1  0
 27197  1  0
 29198  1  0
 30199  1  0
 30200  1  0
 31201  1  0
 31202  1  0
 34203  1  0
 35204  1  1
 36205  1  0
 36206  1  0
 37207  1  0
 37208  1  0
 40209  1  0
 43210  1  0
 44211  1  6
 45212  1  0
 45213  1  0
 46214  1  0
 46215  1  0
 47216  1  0
 47217  1  0
 48218  1  0
 50219  1  0
 51220  1  0
 51221  1  0
 54222  1  0
 55223  1  1
 56224  1  0
 56225  1  0
 58226  1  0
 59227  1  0
 61228  1  0
 62229  1  0
 63230  1  0
 64231  1  0
 68232  1  0
 69233  1  6
 70234  1  0
 70235  1  0
 71236  1  0
 71237  1  0
 72238  1  0
 72239  1  0
 73240  1  0
 75241  1  0
 76242  1  0
 76243  1  0
 79244  1  0
 80245  1  1
 81246  1  0
 81247  1  0
 82248  1  0
 82249  1  0
 83250  1  0
 83251  1  0
 84252  1  0
 86253  1  0
 87254  1  0
 87255  1  0
 90256  1  0
 91257  1  6
 92258  1  0
 92259  1  0
 93260  1  0
 93261  1  0
 94262  1  0
 94263  1  0
 95264  1  0
 97265  1  0
 98266  1  0
 98267  1  0
101268  1  0
102269  1  1
103270  1  1
104271  1  0
104272  1  0
104273  1  0
105274  1  0
105275  1  0
106276  1  0
106277  1  0
106278  1  0
109279  1  0
111280  1  0
111281  1  0
112282  1  0
112283  1  0
113284  1  0
113285  1  0
114286  1  0
115287  1  0
115288  1  0
115289  1  0
118290  1  0
119291  1  1
120292  1  0
120293  1  0
121294  1  0
122295  1  0
122296  1  0
122297  1  0
123298  1  0
123299  1  0
123300  1  0
126301  1  0
127302  1  1
128303  1  0
128304  1  0
129305  1  0
132306  1  0
133307  1  1
134308  1  0
134309  1  0
135310  1  0
135311  1  0
136312  1  0
136313  1  0
137314  1  0
139315  1  0
140316  1  0
140317  1  0
143318  1  0
145319  1  0
145320  1  0
146321  1  0
146322  1  0
147323  1  0
147324  1  0
148325  1  0
149326  1  0
149327  1  0
149328  1  0
152329  1  0
153330  1  6
154331  1  0
154332  1  0
156333  1  0
157334  1  0
158335  1  0
162336  1  0
163337  1  1
164338  1  0
164339  1  0
166340  1  0
167341  1  0
168342  1  0
172343  1  0
173344  1  6
174345  1  0
174346  1  0
175347  1  0
178348  1  0
179349  1  1
180350  1  1
181351  1  0
182352  1  0
182353  1  0
182354  1  0
185355  1  0
M  END
