
     RDKit          2D

269276  0  0  0  0  0  0  0  0999 V2000
   20.1091   -0.8763    0.0000 C   0  0  0  0  0  0  0  0  0  0  0  0
   21.4311   -0.1675    0.0000 N   0  0  0  0  0  0  0  0  0  0  0  0
   22.7059   -0.9579    0.0000 C   0  0  0  0  0  0  0  0  0  0  0  0
   22.6588   -2.4572    0.0000 C   0  0  0  0  0  0  0  0  0  0  0  0
   23.9336   -3.2476    0.0000 C   0  0  0  0  0  0  0  0  0  0  0  0
   25.2556   -2.5388    0.0000 C   0  0  0  0  0  0  0  0  0  0  0  0
   25.3027   -1.0395    0.0000 C   0  0  0  0  0  0  0  0  0  0  0  0
   24.0279   -0.2491    0.0000 C   0  0  0  0  0  0  0  0  0  0  0  0
   26.7431   -0.6211    0.0000 C   0  0  0  0  0  0  0  0  0  0  0  0
   27.5863   -1.8617    0.0000 O   0  0  0  0  0  0  0  0  0  0  0  0
   26.6669   -3.0469    0.0000 C   0  0  0  0  0  0  0  0  0  0  0  0
   27.0854   -4.4874    0.0000 O   0  0  0  0  0  0  0  0  0  0  0  0
   28.2194   -0.3554    0.0000 C   0  0  0  0  0  0  0  0  0  0  0  0
   28.7275    1.0559    0.0000 C   0  0  0  0  0  0  0  0  0  0  0  0
   30.2038    1.3215    0.0000 C   0  0  0  0  0  0  0  0  0  0  0  0
   31.1720    0.1758    0.0000 C   0  0  0  0  0  0  0  0  0  0  0  0
   30.6639   -1.2355    0.0000 C   0  0  0  0  0  0  0  0  0  0  0  0
   29.1876   -1.5011    0.0000 C   0  0  0  0  0  0  0  0  0  0  0  0
   32.6483    0.4414    0.0000 O   0  0  0  0  0  0  0  0  0  0  0  0
   27.7594    2.2016    0.0000 O   0  0  0  0  0  0  0  0  0  0  0  0
   26.2831    1.9360    0.0000 C   0  0  0  0  0  0  0  0  0  0  0  0
   25.7749    0.5246    0.0000 C   0  0  0  0  0  0  0  0  0  0  0  0
   24.5358    0.9176    0.0000 C   0  0  0  0  0  0  0  0  0  0  0  0
   24.0194    1.5287    0.0000 C   0  0  0  0  0  0  0  0  0  0  0  0
   24.2904    2.2814    0.0000 C   0  0  0  0  0  0  0  0  0  0  0  0
   25.0778    2.4230    0.0000 C   0  0  0  0  0  0  0  0  0  0  0  0
   22.8704    3.9617    0.0000 O   0  0  0  0  0  0  0  0  0  0  0  0
   20.0620   -2.3756    0.0000 S   0  0  0  0  0  0  0  0  0  0  0  0
   18.8343   -0.0859    0.0000 N   0  0  0  0  0  0  0  0  0  0  0  0
   17.5123   -0.7947    0.0000 C   0  0  0  0  0  0  0  0  0  0  0  0
   16.2375   -0.0043    0.0000 C   0  0  0  0  0  0  0  0  0  0  0  0
   14.9155   -0.7131    0.0000 C   0  0  0  0  0  0  0  0  0  0  0  0
   14.8684   -2.2123    0.0000 O   0  0  0  0  0  0  0  0  0  0  0  0
   13.6407    0.0774    0.0000 N   0  0  0  0  0  0  0  0  0  0  0  0
   12.3187   -0.6315    0.0000 C   0  0  0  0  0  0  0  0  0  0  0  0
   11.3189   -1.7497    0.0000 C   0  0  0  0  0  0  0  0  0  0  0  0
    9.8506   -1.4429    0.0000 C   0  0  0  0  0  0  0  0  0  0  0  0
    8.8508   -2.5611    0.0000 C   0  0  0  0  0  0  0  0  0  0  0  0
    7.3825   -2.2544    0.0000 N   0  0  0  0  0  0  0  0  0  0  0  0
    6.3827   -3.3726    0.0000 C   0  0  0  0  0  0  0  0  0  0  0  0
    4.9628   -2.8892    0.0000 N   0  0  0  0  0  0  0  0  0  0  0  0
    6.8512   -4.7976    0.0000 N   0  0  0  0  0  0  0  0  0  0  0  0
   11.0439    0.1590    0.0000 C   0  0  0  0  0  0  0  0  0  0  0  0
   11.0910    1.6582    0.0000 O   0  0  0  0  0  0  0  0  0  0  0  0
    9.7219   -0.5498    0.0000 N   0  0  0  0  0  0  0  0  0  0  0  0
    8.4471    0.2406    0.0000 C   0  0  0  0  0  0  0  0  0  0  0  0
    7.5195    1.4194    0.0000 C   0  0  0  0  0  0  0  0  0  0  0  0
    8.0765    2.8121    0.0000 C   0  0  0  0  0  0  0  0  0  0  0  0
    7.1489    3.9909    0.0000 C   0  0  0  0  0  0  0  0  0  0  0  0
    7.7060    5.3836    0.0000 N   0  0  0  0  0  0  0  0  0  0  0  0
    6.7784    6.5624    0.0000 C   0  0  0  0  0  0  0  0  0  0  0  0
    7.3354    7.9551    0.0000 N   0  0  0  0  0  0  0  0  0  0  0  0
    5.2937    6.3485    0.0000 N   0  0  0  0  0  0  0  0  0  0  0  0
    7.1251   -0.4682    0.0000 C   0  0  0  0  0  0  0  0  0  0  0  0
    6.8273   -1.5204    0.0000 O   0  0  0  0  0  0  0  0  0  0  0  0
    5.8503    0.3222    0.0000 N   0  0  0  0  0  0  0  0  0  0  0  0
    4.5283   -0.3866    0.0000 C   0  0  0  0  0  0  0  0  0  0  0  0
    3.5285   -1.5048    0.0000 C   0  0  0  0  0  0  0  0  0  0  0  0
    2.0602   -1.1981    0.0000 C   0  0  0  0  0  0  0  0  0  0  0  0
    1.0604   -2.3163    0.0000 C   0  0  0  0  0  0  0  0  0  0  0  0
    0.7854   -0.4076    0.0000 C   0  0  0  0  0  0  0  0  0  0  0  0
    3.2535    0.4038    0.0000 C   0  0  0  0  0  0  0  0  0  0  0  0
    3.4830    1.8862    0.0000 O   0  0  0  0  0  0  0  0  0  0  0  0
    1.9315   -0.3050    0.0000 N   0  0  0  0  0  0  0  0  0  0  0  0
    0.6567    0.4854    0.0000 C   0  0  0  0  0  0  0  0  0  0  0  0
   -0.2709    1.6642    0.0000 C   0  0  0  0  0  0  0  0  0  0  0  0
    0.2862    3.0570    0.0000 C   0  0  0  0  0  0  0  0  0  0  0  0
    1.7708    3.2709    0.0000 C   0  0  0  0  0  0  0  0  0  0  0  0
    2.3279    4.6636    0.0000 C   0  0  0  0  0  0  0  0  0  0  0  0
    1.4003    5.8424    0.0000 C   0  0  0  0  0  0  0  0  0  0  0  0
   -0.0844    5.6285    0.0000 C   0  0  0  0  0  0  0  0  0  0  0  0
   -0.6415    4.2357    0.0000 C   0  0  0  0  0  0  0  0  0  0  0  0
   -0.6652   -0.2234    0.0000 C   0  0  0  0  0  0  0  0  0  0  0  0
   -0.8948   -1.7057    0.0000 O   0  0  0  0  0  0  0  0  0  0  0  0
   -1.9401    0.5671    0.0000 N   0  0  0  0  0  0  0  0  0  0  0  0
   -3.2620   -0.1418    0.0000 C   0  0  0  0  0  0  0  0  0  0  0  0
   -4.2618   -1.2600    0.0000 C   0  0  0  0  0  0  0  0  0  0  0  0
   -5.7301   -0.9532    0.0000 C   0  0  0  0  0  0  0  0  0  0  0  0
   -6.7299   -2.0714    0.0000 C   0  0  0  0  0  0  0  0  0  0  0  0
   -8.1982   -1.7647    0.0000 N   0  0  0  0  0  0  0  0  0  0  0  0
   -9.1980   -2.8829    0.0000 C   0  0  0  0  0  0  0  0  0  0  0  0
  -10.6663   -2.5762    0.0000 N   0  0  0  0  0  0  0  0  0  0  0  0
   -9.0883   -4.3789    0.0000 N   0  0  0  0  0  0  0  0  0  0  0  0
   -4.5369    0.6487    0.0000 C   0  0  0  0  0  0  0  0  0  0  0  0
   -4.3074    2.1310    0.0000 O   0  0  0  0  0  0  0  0  0  0  0  0
   -5.8588   -0.0602    0.0000 N   0  0  0  0  0  0  0  0  0  0  0  0
   -7.1337    0.7303    0.0000 C   0  0  0  0  0  0  0  0  0  0  0  0
   -7.3846    2.2092    0.0000 C   0  0  0  0  0  0  0  0  0  0  0  0
   -8.0602    3.5484    0.0000 C   0  0  0  0  0  0  0  0  0  0  0  0
   -9.1006    4.6289    0.0000 C   0  0  0  0  0  0  0  0  0  0  0  0
  -10.4132    5.3549    0.0000 C   0  0  0  0  0  0  0  0  0  0  0  0
   -5.7961    1.4092    0.0000 C   0  0  0  0  0  0  0  0  0  0  0  0
   -7.3298   -0.7568    0.0000 C   0  0  0  0  0  0  0  0  0  0  0  0
   -6.6940   -1.2376    0.0000 O   0  0  0  0  0  0  0  0  0  0  0  0
   -7.9556   -2.1201    0.0000 N   0  0  0  0  0  0  0  0  0  0  0  0
   -8.9554   -3.2383    0.0000 C   0  0  0  0  0  0  0  0  0  0  0  0
   -8.7786   -4.7278    0.0000 C   0  0  0  0  0  0  0  0  0  0  0  0
   -7.4002   -5.3194    0.0000 C   0  0  0  0  0  0  0  0  0  0  0  0
   -7.2233   -6.8090    0.0000 N   0  0  0  0  0  0  0  0  0  0  0  0
   -6.1986   -4.4215    0.0000 O   0  0  0  0  0  0  0  0  0  0  0  0
  -10.2404   -4.0121    0.0000 C   0  0  0  0  0  0  0  0  0  0  0  0
   -9.8400   -5.4577    0.0000 O   0  0  0  0  0  0  0  0  0  0  0  0
  -11.6964   -4.3728    0.0000 N   0  0  0  0  0  0  0  0  0  0  0  0
  -13.1940   -4.2883    0.0000 C   0  0  0  0  0  0  0  0  0  0  0  0
  -14.2483   -5.3553    0.0000 C   0  0  0  0  0  0  0  0  0  0  0  0
  -13.8514   -6.8019    0.0000 C   0  0  0  0  0  0  0  0  0  0  0  0
  -14.9057   -7.8688    0.0000 C   0  0  0  0  0  0  0  0  0  0  0  0
  -14.5088   -9.3154    0.0000 C   0  0  0  0  0  0  0  0  0  0  0  0
  -13.0576   -9.6949    0.0000 C   0  0  0  0  0  0  0  0  0  0  0  0
  -12.0034   -8.6279    0.0000 C   0  0  0  0  0  0  0  0  0  0  0  0
  -12.4002   -7.1814    0.0000 C   0  0  0  0  0  0  0  0  0  0  0  0
  -14.6002   -3.7662    0.0000 C   0  0  0  0  0  0  0  0  0  0  0  0
  -15.3261   -5.0788    0.0000 O   0  0  0  0  0  0  0  0  0  0  0  0
  -15.7900   -2.8527    0.0000 N   0  0  0  0  0  0  0  0  0  0  0  0
  -16.6577   -1.6292    0.0000 C   0  0  0  0  0  0  0  0  0  0  0  0
  -18.1492   -1.4701    0.0000 C   0  0  0  0  0  0  0  0  0  0  0  0
  -19.0327   -2.6823    0.0000 C   0  0  0  0  0  0  0  0  0  0  0  0
  -20.5243   -2.5233    0.0000 C   0  0  0  0  0  0  0  0  0  0  0  0
  -19.4484   -4.1236    0.0000 C   0  0  0  0  0  0  0  0  0  0  0  0
  -17.1262   -0.2042    0.0000 C   0  0  0  0  0  0  0  0  0  0  0  0
  -18.6051   -0.4551    0.0000 O   0  0  0  0  0  0  0  0  0  0  0  0
  -17.1539    1.2955    0.0000 N   0  0  0  0  0  0  0  0  0  0  0  0
  -16.7382    2.7368    0.0000 C   0  0  0  0  0  0  0  0  0  0  0  0
  -15.9163    3.9915    0.0000 C   0  0  0  0  0  0  0  0  0  0  0  0
  -14.7610    4.9483    0.0000 C   0  0  0  0  0  0  0  0  0  0  0  0
  -13.3750    5.5219    0.0000 C   0  0  0  0  0  0  0  0  0  0  0  0
  -11.8815    5.6616    0.0000 C   0  0  0  0  0  0  0  0  0  0  0  0
  -18.2229    2.5229    0.0000 C   0  0  0  0  0  0  0  0  0  0  0  0
  -17.5439    4.0021    0.0000 C   0  0  0  0  0  0  0  0  0  0  0  0
  -17.1934    5.4606    0.0000 O   0  0  0  0  0  0  0  0  0  0  0  0
  -19.0425    3.9371    0.0000 N   0  0  0  0  0  0  0  0  0  0  0  0
  -19.8481    5.2023    0.0000 C   0  0  0  0  0  0  0  0  0  0  0  0
  -20.1724    6.6669    0.0000 C   0  0  0  0  0  0  0  0  0  0  0  0
  -20.9780    7.9322    0.0000 O   0  0  0  0  0  0  0  0  0  0  0  0
  -19.0662    7.6800    0.0000 C   0  0  0  0  0  0  0  0  0  0  0  0
  -21.3467    5.1373    0.0000 C   0  0  0  0  0  0  0  0  0  0  0  0
  -22.3005    6.2949    0.0000 O   0  0  0  0  0  0  0  0  0  0  0  0
  -22.0396    3.8070    0.0000 O   0  0  0  0  0  0  0  0  0  0  0  0
   21.2951    1.3263    0.0000 H   0  0  0  0  0  0  0  0  0  0  0  0
   21.3368   -3.1660    0.0000 H   0  0  0  0  0  0  0  0  0  0  0  0
   23.8865   -4.7469    0.0000 H   0  0  0  0  0  0  0  0  0  0  0  0
   23.7108    1.2170    0.0000 H   0  0  0  0  0  0  0  0  0  0  0  0
   30.7119    2.7328    0.0000 H   0  0  0  0  0  0  0  0  0  0  0  0
   31.6321   -2.3812    0.0000 H   0  0  0  0  0  0  0  0  0  0  0  0
   28.6795   -2.9125    0.0000 H   0  0  0  0  0  0  0  0  0  0  0  0
   33.6165   -0.7043    0.0000 H   0  0  0  0  0  0  0  0  0  0  0  0
   23.7905   -1.1523    0.0000 H   0  0  0  0  0  0  0  0  0  0  0  0
   21.8328    1.3210    0.0000 H   0  0  0  0  0  0  0  0  0  0  0  0
   25.8230    4.4930    0.0000 H   0  0  0  0  0  0  0  0  0  0  0  0
   23.3785    5.3730    0.0000 H   0  0  0  0  0  0  0  0  0  0  0  0
   18.8814    1.4134    0.0000 H   0  0  0  0  0  0  0  0  0  0  0  0
   16.5125   -1.9129    0.0000 H   0  0  0  0  0  0  0  0  0  0  0  0
   18.4399   -1.9735    0.0000 H   0  0  0  0  0  0  0  0  0  0  0  0
   15.3099    1.1745    0.0000 H   0  0  0  0  0  0  0  0  0  0  0  0
   17.2373    1.1140    0.0000 H   0  0  0  0  0  0  0  0  0  0  0  0
   13.6878    1.5766    0.0000 H   0  0  0  0  0  0  0  0  0  0  0  0
   13.2463   -1.8103    0.0000 H   0  0  0  0  0  0  0  0  0  0  0  0
   10.9358   -3.1999    0.0000 H   0  0  0  0  0  0  0  0  0  0  0  0
   12.5938   -2.5401    0.0000 H   0  0  0  0  0  0  0  0  0  0  0  0
    8.5758   -0.6525    0.0000 H   0  0  0  0  0  0  0  0  0  0  0  0
    9.6885    0.0483    0.0000 H   0  0  0  0  0  0  0  0  0  0  0  0
    8.2938   -3.9539    0.0000 H   0  0  0  0  0  0  0  0  0  0  0  0
   10.0198   -3.5011    0.0000 H   0  0  0  0  0  0  0  0  0  0  0  0
    6.5831   -0.9851    0.0000 H   0  0  0  0  0  0  0  0  0  0  0  0
    3.9146   -4.1841    0.0000 H   0  0  0  0  0  0  0  0  0  0  0  0
    4.6019   -1.5872    0.0000 H   0  0  0  0  0  0  0  0  0  0  0  0
    5.8514   -5.9158    0.0000 H   0  0  0  0  0  0  0  0  0  0  0  0
    8.3195   -5.1043    0.0000 H   0  0  0  0  0  0  0  0  0  0  0  0
    9.3134   -1.9932    0.0000 H   0  0  0  0  0  0  0  0  0  0  0  0
    9.5757    1.2286    0.0000 H   0  0  0  0  0  0  0  0  0  0  0  0
    6.2446    2.2098    0.0000 H   0  0  0  0  0  0  0  0  0  0  0  0
    6.2788    0.5763    0.0000 H   0  0  0  0  0  0  0  0  0  0  0  0
    9.0763    3.9303    0.0000 H   0  0  0  0  0  0  0  0  0  0  0  0
    9.4382    2.1830    0.0000 H   0  0  0  0  0  0  0  0  0  0  0  0
    5.8741    4.7813    0.0000 H   0  0  0  0  0  0  0  0  0  0  0  0
    6.0203    3.0029    0.0000 H   0  0  0  0  0  0  0  0  0  0  0  0
    9.1906    5.5976    0.0000 H   0  0  0  0  0  0  0  0  0  0  0  0
    6.4078    9.1339    0.0000 H   0  0  0  0  0  0  0  0  0  0  0  0
    8.8201    8.1691    0.0000 H   0  0  0  0  0  0  0  0  0  0  0  0
    4.3661    7.5273    0.0000 H   0  0  0  0  0  0  0  0  0  0  0  0
    4.7367    4.9557    0.0000 H   0  0  0  0  0  0  0  0  0  0  0  0
    5.7143    1.8160    0.0000 H   0  0  0  0  0  0  0  0  0  0  0  0
    5.4559   -1.5654    0.0000 H   0  0  0  0  0  0  0  0  0  0  0  0
    3.1454   -2.9551    0.0000 H   0  0  0  0  0  0  0  0  0  0  0  0
    4.9568   -1.9633    0.0000 H   0  0  0  0  0  0  0  0  0  0  0  0
    1.8981    0.2931    0.0000 H   0  0  0  0  0  0  0  0  0  0  0  0
   -0.4385   -2.3739    0.0000 H   0  0  0  0  0  0  0  0  0  0  0  0
    0.5034   -3.7090    0.0000 H   0  0  0  0  0  0  0  0  0  0  0  0
    2.2294   -3.2562    0.0000 H   0  0  0  0  0  0  0  0  0  0  0  0
    0.4683    1.0585    0.0000 H   0  0  0  0  0  0  0  0  0  0  0  0
   -0.6953   -0.6476    0.0000 H   0  0  0  0  0  0  0  0  0  0  0  0
    0.0627   -1.7221    0.0000 H   0  0  0  0  0  0  0  0  0  0  0  0
    1.5230   -1.7483    0.0000 H   0  0  0  0  0  0  0  0  0  0  0  0
    1.6565    1.6036    0.0000 H   0  0  0  0  0  0  0  0  0  0  0  0
   -1.4399    2.6042    0.0000 H   0  0  0  0  0  0  0  0  0  0  0  0
   -1.6051    0.9787    0.0000 H   0  0  0  0  0  0  0  0  0  0  0  0
    2.8352    2.2140    0.0000 H   0  0  0  0  0  0  0  0  0  0  0  0
    3.8125    4.8776    0.0000 H   0  0  0  0  0  0  0  0  0  0  0  0
    1.9573    7.2351    0.0000 H   0  0  0  0  0  0  0  0  0  0  0  0
   -1.0120    6.8073    0.0000 H   0  0  0  0  0  0  0  0  0  0  0  0
   -2.1261    4.0218    0.0000 H   0  0  0  0  0  0  0  0  0  0  0  0
   -2.0761    2.0609    0.0000 H   0  0  0  0  0  0  0  0  0  0  0  0
   -2.3344   -1.3206    0.0000 H   0  0  0  0  0  0  0  0  0  0  0  0
   -4.6450   -2.7102    0.0000 H   0  0  0  0  0  0  0  0  0  0  0  0
   -2.9870   -2.0504    0.0000 H   0  0  0  0  0  0  0  0  0  0  0  0
   -7.1584   -0.4948    0.0000 H   0  0  0  0  0  0  0  0  0  0  0  0
   -5.7093    0.5466    0.0000 H   0  0  0  0  0  0  0  0  0  0  0  0
   -6.9334   -3.5576    0.0000 H   0  0  0  0  0  0  0  0  0  0  0  0
   -5.5610   -3.0114    0.0000 H   0  0  0  0  0  0  0  0  0  0  0  0
   -8.6667   -0.3397    0.0000 H   0  0  0  0  0  0  0  0  0  0  0  0
  -11.9070   -3.4192    0.0000 H   0  0  0  0  0  0  0  0  0  0  0  0
  -11.1348   -1.1512    0.0000 H   0  0  0  0  0  0  0  0  0  0  0  0
   -9.5969   -5.4964    0.0000 H   0  0  0  0  0  0  0  0  0  0  0  0
   -7.2585   -4.1655    0.0000 H   0  0  0  0  0  0  0  0  0  0  0  0
   -6.0884   -1.5425    0.0000 H   0  0  0  0  0  0  0  0  0  0  0  0
   -5.8979    2.0093    0.0000 H   0  0  0  0  0  0  0  0  0  0  0  0
   -6.4417    3.3758    0.0000 H   0  0  0  0  0  0  0  0  0  0  0  0
   -6.6219    3.9741    0.0000 H   0  0  0  0  0  0  0  0  0  0  0  0
   -7.3375    4.8628    0.0000 H   0  0  0  0  0  0  0  0  0  0  0  0
   -7.7597    5.3013    0.0000 H   0  0  0  0  0  0  0  0  0  0  0  0
   -8.9788    6.1240    0.0000 H   0  0  0  0  0  0  0  0  0  0  0  0
   -9.8911    6.7610    0.0000 H   0  0  0  0  0  0  0  0  0  0  0  0
   -5.5851    3.0618    0.0000 H   0  0  0  0  0  0  0  0  0  0  0  0
   -4.5063    2.0902    0.0000 H   0  0  0  0  0  0  0  0  0  0  0  0
   -4.8802    0.4613    0.0000 H   0  0  0  0  0  0  0  0  0  0  0  0
   -6.8104   -3.0889    0.0000 H   0  0  0  0  0  0  0  0  0  0  0  0
   -7.5907   -3.8607    0.0000 H   0  0  0  0  0  0  0  0  0  0  0  0
   -9.1218   -6.1880    0.0000 H   0  0  0  0  0  0  0  0  0  0  0  0
  -10.2521   -5.0082    0.0000 H   0  0  0  0  0  0  0  0  0  0  0  0
   -5.8449   -7.4006    0.0000 H   0  0  0  0  0  0  0  0  0  0  0  0
   -8.4248   -7.7069    0.0000 H   0  0  0  0  0  0  0  0  0  0  0  0
  -11.3757   -5.8381    0.0000 H   0  0  0  0  0  0  0  0  0  0  0  0
  -12.6551   -5.6882    0.0000 H   0  0  0  0  0  0  0  0  0  0  0  0
  -15.6040   -5.9974    0.0000 H   0  0  0  0  0  0  0  0  0  0  0  0
  -15.3863   -4.3781    0.0000 H   0  0  0  0  0  0  0  0  0  0  0  0
  -16.3569   -7.4893    0.0000 H   0  0  0  0  0  0  0  0  0  0  0  0
  -15.5631  -10.3824    0.0000 H   0  0  0  0  0  0  0  0  0  0  0  0
  -12.6608  -11.1415    0.0000 H   0  0  0  0  0  0  0  0  0  0  0  0
  -10.5522   -9.0075    0.0000 H   0  0  0  0  0  0  0  0  0  0  0  0
  -11.2237   -6.2509    0.0000 H   0  0  0  0  0  0  0  0  0  0  0  0
  -16.8706   -3.8931    0.0000 H   0  0  0  0  0  0  0  0  0  0  0  0
  -17.2527   -3.0061    0.0000 H   0  0  0  0  0  0  0  0  0  0  0  0
  -19.4060   -0.6513    0.0000 H   0  0  0  0  0  0  0  0  0  0  0  0
  -18.0947    0.0289    0.0000 H   0  0  0  0  0  0  0  0  0  0  0  0
  -17.7760   -3.5012    0.0000 H   0  0  0  0  0  0  0  0  0  0  0  0
  -21.5490   -3.6188    0.0000 H   0  0  0  0  0  0  0  0  0  0  0  0
  -21.8715   -1.8637    0.0000 H   0  0  0  0  0  0  0  0  0  0  0  0
  -20.2874   -1.0421    0.0000 H   0  0  0  0  0  0  0  0  0  0  0  0
  -20.8495   -4.6591    0.0000 H   0  0  0  0  0  0  0  0  0  0  0  0
  -19.3460   -5.6201    0.0000 H   0  0  0  0  0  0  0  0  0  0  0  0
  -17.9568   -4.2826    0.0000 H   0  0  0  0  0  0  0  0  0  0  0  0
  -18.6410    1.4917    0.0000 H   0  0  0  0  0  0  0  0  0  0  0  0
  -16.3132    5.4381    0.0000 H   0  0  0  0  0  0  0  0  0  0  0  0
  -17.2976    4.5763    0.0000 H   0  0  0  0  0  0  0  0  0  0  0  0
  -14.8970    6.4421    0.0000 H   0  0  0  0  0  0  0  0  0  0  0  0
  -15.9085    5.9142    0.0000 H   0  0  0  0  0  0  0  0  0  0  0  0
  -12.8881    6.9407    0.0000 H   0  0  0  0  0  0  0  0  0  0  0  0
  -14.3346    6.6749    0.0000 H   0  0  0  0  0  0  0  0  0  0  0  0
  -11.7970    7.1592    0.0000 H   0  0  0  0  0  0  0  0  0  0  0  0
  -19.4082    3.4422    0.0000 H   0  0  0  0  0  0  0  0  0  0  0  0
  -19.4486    1.6582    0.0000 H   0  0  0  0  0  0  0  0  0  0  0  0
  -18.1131    1.0269    0.0000 H   0  0  0  0  0  0  0  0  0  0  0  0
  -19.8924    2.7011    0.0000 H   0  0  0  0  0  0  0  0  0  0  0  0
  -18.4025    5.6028    0.0000 H   0  0  0  0  0  0  0  0  0  0  0  0
  -21.6179    6.2664    0.0000 H   0  0  0  0  0  0  0  0  0  0  0  0
  -20.4524    9.3371    0.0000 H   0  0  0  0  0  0  0  0  0  0  0  0
  -19.2096    9.1731    0.0000 H   0  0  0  0  0  0  0  0  0  0  0  0
  -17.6802    8.2537    0.0000 H   0  0  0  0  0  0  0  0  0  0  0  0
  -18.1124    6.5223    0.0000 H   0  0  0  0  0  0  0  0  0  0  0  0
  1  2  1  0
  2  3  1  0
  3  4  2  0
  4  5  1  0
  5  6  2  0
  6  7  1  0
  7  8  2  0
  7  9  1  0
  9 10  1  0
 10 11  1  0
 11 12  2  0
  9 13  1  0
 13 14  1  0
 14 15  2  0
 15 16  1  0
 16 17  2  0
 17 18  1  0
 16 19  1  0
 14 20  1  0
 20 21  1  0
 21 22  2  0
 22 23  1  0
 23 24  2  0
 24 25  1  0
 25 26  2  0
 25 27  1  0
  1 28  2  0
  1 29  1  0
 29 30  1  0
 30 31  1  0
 31 32  1  0
 32 33  2  0
 32 34  1  0
 34 35  1  0
 35 36  1  0
 36 37  1  0
 37 38  1  0
 38 39  1  0
 39 40  1  0
 40 41  2  3
 40 42  1  0
 35 43  1  0
 43 44  2  0
 43 45  1  0
 45 46  1  0
 46 47  1  0
 47 48  1  0
 48 49  1  0
 49 50  1  0
 50 51  1  0
 51 52  2  3
 51 53  1  0
 46 54  1  0
 54 55  2  0
 54 56  1  0
 56 57  1  0
 57 58  1  0
 58 59  1  0
 59 60  1  0
 59 61  1  0
 57 62  1  0
 62 63  2  0
 62 64  1  0
 64 65  1  0
 65 66  1  0
 66 67  1  0
 67 68  2  0
 68 69  1  0
 69 70  2  0
 70 71  1  0
 71 72  2  0
 65 73  1  0
 73 74  2  0
 73 75  1  0
 75 76  1  0
 76 77  1  0
 77 78  1  0
 78 79  1  0
 79 80  1  0
 80 81  1  0
 81 82  2  3
 81 83  1  0
 76 84  1  0
 84 85  2  0
 84 86  1  0
 87 86  1  6
 87 88  1  0
 88 89  1  0
 89 90  1  0
 90 91  1  0
 87 92  1  0
 87 93  1  0
 93 94  2  0
 93 95  1  0
 95 96  1  0
 96 97  1  0
 97 98  1  0
 98 99  1  0
 98100  2  0
 96101  1  0
101102  2  0
101103  1  0
103104  1  0
104105  1  0
105106  1  0
106107  2  0
107108  1  0
108109  2  0
109110  1  0
110111  2  0
104112  1  0
112113  2  0
112114  1  0
114115  1  0
115116  1  0
116117  1  0
117118  1  0
117119  1  0
115120  1  0
120121  2  0
120122  1  0
122123  1  0
123124  1  0
124125  1  0
125126  1  0
126127  1  0
123128  1  0
123129  1  6
129130  2  0
129131  1  0
131132  1  0
132133  1  0
133134  1  0
133135  1  0
132136  1  0
136137  2  0
136138  1  0
  8  3  1  0
 72 67  1  0
111106  1  0
 11  6  1  0
 91127  2  0
 18 13  2  0
 22  9  1  0
 26 21  1  0
  2139  1  0
  4140  1  0
  5141  1  0
  8142  1  0
 15143  1  0
 17144  1  0
 18145  1  0
 19146  1  0
 23147  1  0
 24148  1  0
 26149  1  0
 27150  1  0
 29151  1  0
 30152  1  0
 30153  1  0
 31154  1  0
 31155  1  0
 34156  1  0
 35157  1  1
 36158  1  0
 36159  1  0
 37160  1  0
 37161  1  0
 38162  1  0
 38163  1  0
 39164  1  0
 41165  1  0
 41166  1  0
 42167  1  0
 42168  1  0
 45169  1  0
 46170  1  6
 47171  1  0
 47172  1  0
 48173  1  0
 48174  1  0
 49175  1  0
 49176  1  0
 50177  1  0
 52178  1  0
 52179  1  0
 53180  1  0
 53181  1  0
 56182  1  0
 57183  1  1
 58184  1  0
 58185  1  0
 59186  1  0
 60187  1  0
 60188  1  0
 60189  1  0
 61190  1  0
 61191  1  0
 61192  1  0
 64193  1  0
 65194  1  6
 66195  1  0
 66196  1  0
 68197  1  0
 69198  1  0
 70199  1  0
 71200  1  0
 72201  1  0
 75202  1  0
 76203  1  1
 77204  1  0
 77205  1  0
 78206  1  0
 78207  1  0
 79208  1  0
 79209  1  0
 80210  1  0
 82211  1  0
 82212  1  0
 83213  1  0
 83214  1  0
 86215  1  0
 88216  1  0
 88217  1  0
 89218  1  0
 89219  1  0
 90220  1  0
 90221  1  0
 91222  1  0
 92223  1  0
 92224  1  0
 92225  1  0
 95226  1  0
 96227  1  6
 97228  1  0
 97229  1  0
 99230  1  0
 99231  1  0
103232  1  0
104233  1  1
105234  1  0
105235  1  0
107236  1  0
108237  1  0
109238  1  0
110239  1  0
111240  1  0
114241  1  0
115242  1  1
116243  1  0
116244  1  0
117245  1  0
118246  1  0
118247  1  0
118248  1  0
119249  1  0
119250  1  0
119251  1  0
122252  1  0
124253  1  0
124254  1  0
125255  1  0
125256  1  0
126257  1  0
126258  1  0
127259  1  0
128260  1  0
128261  1  0
128262  1  0
131263  1  0
132264  1  6
133265  1  1
134266  1  0
135267  1  0
135268  1  0
135269  1  0
M  CHG  4  41   1  52   1  82   1 138  -1
M  END
