
     RDKit          2D

398403  0  0  0  0  0  0  0  0999 V2000
   12.8609  -11.6347    0.0000 C   0  0  0  0  0  0  0  0  0  0  0  0
   13.1622  -13.1041    0.0000 N   0  0  0  0  0  0  0  0  0  0  0  0
   12.0403  -14.0998    0.0000 C   0  0  0  0  0  0  0  0  0  0  0  0
   10.6171  -13.6260    0.0000 C   0  0  0  0  0  0  0  0  0  0  0  0
    9.4952  -14.6216    0.0000 C   0  0  0  0  0  0  0  0  0  0  0  0
    9.7964  -16.0910    0.0000 C   0  0  0  0  0  0  0  0  0  0  0  0
   11.2196  -16.5648    0.0000 C   0  0  0  0  0  0  0  0  0  0  0  0
   12.3416  -15.5692    0.0000 C   0  0  0  0  0  0  0  0  0  0  0  0
   11.2088  -18.0648    0.0000 C   0  0  0  0  0  0  0  0  0  0  0  0
    9.7789  -18.5180    0.0000 O   0  0  0  0  0  0  0  0  0  0  0  0
    8.9060  -17.2982    0.0000 C   0  0  0  0  0  0  0  0  0  0  0  0
    7.4061  -17.2873    0.0000 O   0  0  0  0  0  0  0  0  0  0  0  0
   11.0413  -19.5554    0.0000 C   0  0  0  0  0  0  0  0  0  0  0  0
   12.2484  -20.4458    0.0000 C   0  0  0  0  0  0  0  0  0  0  0  0
   12.0809  -21.9364    0.0000 C   0  0  0  0  0  0  0  0  0  0  0  0
   10.7062  -22.5366    0.0000 C   0  0  0  0  0  0  0  0  0  0  0  0
    9.4990  -21.6462    0.0000 C   0  0  0  0  0  0  0  0  0  0  0  0
    9.6666  -20.1556    0.0000 C   0  0  0  0  0  0  0  0  0  0  0  0
   10.5386  -24.0272    0.0000 O   0  0  0  0  0  0  0  0  0  0  0  0
   13.6231  -19.8456    0.0000 O   0  0  0  0  0  0  0  0  0  0  0  0
   13.7906  -18.3550    0.0000 C   0  0  0  0  0  0  0  0  0  0  0  0
   12.5835  -17.4646    0.0000 C   0  0  0  0  0  0  0  0  0  0  0  0
   13.3144  -16.3895    0.0000 C   0  0  0  0  0  0  0  0  0  0  0  0
   14.0475  -16.0694    0.0000 C   0  0  0  0  0  0  0  0  0  0  0  0
   14.6913  -16.5443    0.0000 C   0  0  0  0  0  0  0  0  0  0  0  0
   14.6020  -17.3393    0.0000 C   0  0  0  0  0  0  0  0  0  0  0  0
   16.7076  -15.6640    0.0000 O   0  0  0  0  0  0  0  0  0  0  0  0
   11.4377  -11.1609    0.0000 S   0  0  0  0  0  0  0  0  0  0  0  0
   13.9829  -10.6391    0.0000 N   0  0  0  0  0  0  0  0  0  0  0  0
   13.6816   -9.1696    0.0000 C   0  0  0  0  0  0  0  0  0  0  0  0
   14.8035   -8.1740    0.0000 C   0  0  0  0  0  0  0  0  0  0  0  0
   14.5022   -6.7046    0.0000 C   0  0  0  0  0  0  0  0  0  0  0  0
   13.1562   -6.6008    0.0000 O   0  0  0  0  0  0  0  0  0  0  0  0
   15.6242   -5.7090    0.0000 N   0  0  0  0  0  0  0  0  0  0  0  0
   15.3229   -4.2395    0.0000 C   0  0  0  0  0  0  0  0  0  0  0  0
   14.1401   -5.1620    0.0000 C   0  0  0  0  0  0  0  0  0  0  0  0
   12.8041   -5.8439    0.0000 C   0  0  0  0  0  0  0  0  0  0  0  0
   11.3631   -6.2607    0.0000 C   0  0  0  0  0  0  0  0  0  0  0  0
    9.8694   -6.3973    0.0000 C   0  0  0  0  0  0  0  0  0  0  0  0
    8.3767   -6.2487    0.0000 C   0  0  0  0  0  0  0  0  0  0  0  0
    6.9392   -5.8202    0.0000 C   0  0  0  0  0  0  0  0  0  0  0  0
    5.6087   -5.1275    0.0000 C   0  0  0  0  0  0  0  0  0  0  0  0
   16.7733   -4.6221    0.0000 C   0  0  0  0  0  0  0  0  0  0  0  0
   16.3098   -3.1099    0.0000 C   0  0  0  0  0  0  0  0  0  0  0  0
   17.6257   -3.8299    0.0000 O   0  0  0  0  0  0  0  0  0  0  0  0
   17.0650   -1.8139    0.0000 N   0  0  0  0  0  0  0  0  0  0  0  0
   17.5613   -0.3984    0.0000 C   0  0  0  0  0  0  0  0  0  0  0  0
   18.9883    0.0639    0.0000 C   0  0  0  0  0  0  0  0  0  0  0  0
   20.1022   -0.9407    0.0000 C   0  0  0  0  0  0  0  0  0  0  0  0
   21.5291   -0.4785    0.0000 C   0  0  0  0  0  0  0  0  0  0  0  0
   22.6430   -1.4831    0.0000 N   0  0  0  0  0  0  0  0  0  0  0  0
   24.0700   -1.0208    0.0000 C   0  0  0  0  0  0  0  0  0  0  0  0
   25.1838   -2.0255    0.0000 N   0  0  0  0  0  0  0  0  0  0  0  0
   24.3831    0.4461    0.0000 N   0  0  0  0  0  0  0  0  0  0  0  0
   17.7808    1.0855    0.0000 C   0  0  0  0  0  0  0  0  0  0  0  0
   19.2771    1.1912    0.0000 O   0  0  0  0  0  0  0  0  0  0  0  0
   17.7155    2.5841    0.0000 N   0  0  0  0  0  0  0  0  0  0  0  0
   17.3677    4.0432    0.0000 C   0  0  0  0  0  0  0  0  0  0  0  0
   18.3183    5.2036    0.0000 C   0  0  0  0  0  0  0  0  0  0  0  0
   19.7984    4.9606    0.0000 C   0  0  0  0  0  0  0  0  0  0  0  0
   20.7490    6.1210    0.0000 C   0  0  0  0  0  0  0  0  0  0  0  0
   22.2292    5.8780    0.0000 N   0  0  0  0  0  0  0  0  0  0  0  0
   23.1797    7.0384    0.0000 C   0  0  0  0  0  0  0  0  0  0  0  0
   24.6599    6.7954    0.0000 N   0  0  0  0  0  0  0  0  0  0  0  0
   22.6500    8.4418    0.0000 N   0  0  0  0  0  0  0  0  0  0  0  0
   16.7501    5.4102    0.0000 C   0  0  0  0  0  0  0  0  0  0  0  0
   17.9517    6.3081    0.0000 O   0  0  0  0  0  0  0  0  0  0  0  0
   15.8850    6.6355    0.0000 N   0  0  0  0  0  0  0  0  0  0  0  0
   14.8036    7.6750    0.0000 C   0  0  0  0  0  0  0  0  0  0  0  0
   14.9758    9.1651    0.0000 C   0  0  0  0  0  0  0  0  0  0  0  0
   16.3524    9.7609    0.0000 C   0  0  0  0  0  0  0  0  0  0  0  0
   16.5247   11.2510    0.0000 C   0  0  0  0  0  0  0  0  0  0  0  0
   17.9013   11.8468    0.0000 N   0  0  0  0  0  0  0  0  0  0  0  0
   15.3204   12.1452    0.0000 O   0  0  0  0  0  0  0  0  0  0  0  0
   13.5450    8.4911    0.0000 C   0  0  0  0  0  0  0  0  0  0  0  0
   14.0703    9.8961    0.0000 O   0  0  0  0  0  0  0  0  0  0  0  0
   12.1547    9.0542    0.0000 N   0  0  0  0  0  0  0  0  0  0  0  0
   10.6830    9.3440    0.0000 C   0  0  0  0  0  0  0  0  0  0  0  0
   10.0223   10.6907    0.0000 C   0  0  0  0  0  0  0  0  0  0  0  0
   10.8582   11.9362    0.0000 C   0  0  0  0  0  0  0  0  0  0  0  0
   10.1975   13.2828    0.0000 C   0  0  0  0  0  0  0  0  0  0  0  0
   11.0335   14.5283    0.0000 N   0  0  0  0  0  0  0  0  0  0  0  0
   10.3728   15.8750    0.0000 C   0  0  0  0  0  0  0  0  0  0  0  0
   11.2087   17.1205    0.0000 N   0  0  0  0  0  0  0  0  0  0  0  0
    8.8762   15.9762    0.0000 N   0  0  0  0  0  0  0  0  0  0  0  0
    9.1830    9.3501    0.0000 C   0  0  0  0  0  0  0  0  0  0  0  0
    8.8653   10.8161    0.0000 O   0  0  0  0  0  0  0  0  0  0  0  0
    7.7089    9.0721    0.0000 N   0  0  0  0  0  0  0  0  0  0  0  0
    6.3141    8.5203    0.0000 C   0  0  0  0  0  0  0  0  0  0  0  0
    5.0303    9.2960    0.0000 C   0  0  0  0  0  0  0  0  0  0  0  0
    5.0601   10.7957    0.0000 C   0  0  0  0  0  0  0  0  0  0  0  0
    3.7763   11.5714    0.0000 C   0  0  0  0  0  0  0  0  0  0  0  0
    3.8062   13.0711    0.0000 N   0  0  0  0  0  0  0  0  0  0  0  0
    2.5223   13.8468    0.0000 C   0  0  0  0  0  0  0  0  0  0  0  0
    2.5522   15.3465    0.0000 N   0  0  0  0  0  0  0  0  0  0  0  0
    1.2086   13.1228    0.0000 N   0  0  0  0  0  0  0  0  0  0  0  0
    5.0490    7.7144    0.0000 C   0  0  0  0  0  0  0  0  0  0  0  0
    3.9892    8.7760    0.0000 O   0  0  0  0  0  0  0  0  0  0  0  0
    3.9592    6.6837    0.0000 N   0  0  0  0  0  0  0  0  0  0  0  0
    3.0842    5.4654    0.0000 C   0  0  0  0  0  0  0  0  0  0  0  0
    1.5848    5.4238    0.0000 C   0  0  0  0  0  0  0  0  0  0  0  0
    0.7991    6.7016    0.0000 C   0  0  0  0  0  0  0  0  0  0  0  0
   -0.7003    6.6601    0.0000 C   0  0  0  0  0  0  0  0  0  0  0  0
   -1.4860    7.9378    0.0000 N   0  0  0  0  0  0  0  0  0  0  0  0
   -2.9854    7.8963    0.0000 C   0  0  0  0  0  0  0  0  0  0  0  0
   -3.7711    9.1741    0.0000 N   0  0  0  0  0  0  0  0  0  0  0  0
   -3.6992    6.5770    0.0000 N   0  0  0  0  0  0  0  0  0  0  0  0
    2.4556    4.1034    0.0000 C   0  0  0  0  0  0  0  0  0  0  0  0
    0.9901    4.4235    0.0000 O   0  0  0  0  0  0  0  0  0  0  0  0
    2.0961    2.6472    0.0000 N   0  0  0  0  0  0  0  0  0  0  0  0
    2.0186    1.1492    0.0000 C   0  0  0  0  0  0  0  0  0  0  0  0
    2.2261   -0.3364    0.0000 C   0  0  0  0  0  0  0  0  0  0  0  0
    2.7110   -1.7559    0.0000 C   0  0  0  0  0  0  0  0  0  0  0  0
    3.4557   -3.0579    0.0000 C   0  0  0  0  0  0  0  0  0  0  0  0
    4.4334   -4.1955    0.0000 C   0  0  0  0  0  0  0  0  0  0  0  0
    0.7108    1.8837    0.0000 C   0  0  0  0  0  0  0  0  0  0  0  0
    0.7797    0.3036    0.0000 C   0  0  0  0  0  0  0  0  0  0  0  0
    0.5272   -1.1750    0.0000 O   0  0  0  0  0  0  0  0  0  0  0  0
   -0.5721    0.9537    0.0000 N   0  0  0  0  0  0  0  0  0  0  0  0
   -1.8110    0.1081    0.0000 C   0  0  0  0  0  0  0  0  0  0  0  0
   -2.6860   -1.1102    0.0000 C   0  0  0  0  0  0  0  0  0  0  0  0
   -4.1787   -0.9616    0.0000 C   0  0  0  0  0  0  0  0  0  0  0  0
   -5.0537   -2.1799    0.0000 C   0  0  0  0  0  0  0  0  0  0  0  0
   -6.5463   -2.0313    0.0000 N   0  0  0  0  0  0  0  0  0  0  0  0
   -7.4213   -3.2497    0.0000 C   0  0  0  0  0  0  0  0  0  0  0  0
   -8.8847   -2.9202    0.0000 N   0  0  0  0  0  0  0  0  0  0  0  0
   -6.8037   -4.6166    0.0000 N   0  0  0  0  0  0  0  0  0  0  0  0
   -3.1628    0.7583    0.0000 C   0  0  0  0  0  0  0  0  0  0  0  0
   -3.2756    2.2540    0.0000 O   0  0  0  0  0  0  0  0  0  0  0  0
   -4.4017   -0.0873    0.0000 N   0  0  0  0  0  0  0  0  0  0  0  0
   -5.7535    0.5629    0.0000 C   0  0  0  0  0  0  0  0  0  0  0  0
   -6.8014    1.6361    0.0000 C   0  0  0  0  0  0  0  0  0  0  0  0
   -6.3959    3.0803    0.0000 C   0  0  0  0  0  0  0  0  0  0  0  0
   -7.4437    4.1536    0.0000 C   0  0  0  0  0  0  0  0  0  0  0  0
   -7.0382    5.5977    0.0000 N   0  0  0  0  0  0  0  0  0  0  0  0
   -8.8972    3.7827    0.0000 O   0  0  0  0  0  0  0  0  0  0  0  0
   -6.9925   -0.2827    0.0000 C   0  0  0  0  0  0  0  0  0  0  0  0
   -7.1765   -1.3606    0.0000 O   0  0  0  0  0  0  0  0  0  0  0  0
   -8.3442    0.3674    0.0000 N   0  0  0  0  0  0  0  0  0  0  0  0
   -9.5832   -0.4782    0.0000 C   0  0  0  0  0  0  0  0  0  0  0  0
  -10.4582   -1.6965    0.0000 C   0  0  0  0  0  0  0  0  0  0  0  0
  -11.9508   -1.5479    0.0000 C   0  0  0  0  0  0  0  0  0  0  0  0
  -12.8258   -2.7662    0.0000 C   0  0  0  0  0  0  0  0  0  0  0  0
  -14.3184   -2.6176    0.0000 N   0  0  0  0  0  0  0  0  0  0  0  0
  -15.1935   -3.8359    0.0000 C   0  0  0  0  0  0  0  0  0  0  0  0
  -16.6568   -3.5065    0.0000 N   0  0  0  0  0  0  0  0  0  0  0  0
  -14.5758   -5.2029    0.0000 N   0  0  0  0  0  0  0  0  0  0  0  0
  -10.9349    0.1720    0.0000 C   0  0  0  0  0  0  0  0  0  0  0  0
  -11.0478    1.6677    0.0000 O   0  0  0  0  0  0  0  0  0  0  0  0
  -12.1739   -0.6736    0.0000 N   0  0  0  0  0  0  0  0  0  0  0  0
  -13.5257   -0.0234    0.0000 C   0  0  0  0  0  0  0  0  0  0  0  0
  -14.5735    1.0498    0.0000 C   0  0  0  0  0  0  0  0  0  0  0  0
  -14.1680    2.4940    0.0000 C   0  0  0  0  0  0  0  0  0  0  0  0
  -15.2159    3.5673    0.0000 C   0  0  0  0  0  0  0  0  0  0  0  0
  -14.8103    5.0114    0.0000 N   0  0  0  0  0  0  0  0  0  0  0  0
  -15.8582    6.0847    0.0000 C   0  0  0  0  0  0  0  0  0  0  0  0
  -15.4527    7.5288    0.0000 N   0  0  0  0  0  0  0  0  0  0  0  0
  -17.3117    5.7138    0.0000 N   0  0  0  0  0  0  0  0  0  0  0  0
  -14.7646   -0.8690    0.0000 C   0  0  0  0  0  0  0  0  0  0  0  0
  -14.9486   -1.9469    0.0000 O   0  0  0  0  0  0  0  0  0  0  0  0
  -16.1164   -0.2189    0.0000 N   0  0  0  0  0  0  0  0  0  0  0  0
  -17.3553   -1.0645    0.0000 C   0  0  0  0  0  0  0  0  0  0  0  0
  -18.2303   -2.2828    0.0000 C   0  0  0  0  0  0  0  0  0  0  0  0
  -19.7230   -2.1342    0.0000 C   0  0  0  0  0  0  0  0  0  0  0  0
  -20.5980   -3.3525    0.0000 C   0  0  0  0  0  0  0  0  0  0  0  0
  -22.0906   -3.2039    0.0000 N   0  0  0  0  0  0  0  0  0  0  0  0
  -22.9656   -4.4222    0.0000 C   0  0  0  0  0  0  0  0  0  0  0  0
  -24.4290   -4.0928    0.0000 N   0  0  0  0  0  0  0  0  0  0  0  0
  -22.3480   -5.7892    0.0000 N   0  0  0  0  0  0  0  0  0  0  0  0
  -18.7071   -0.4143    0.0000 C   0  0  0  0  0  0  0  0  0  0  0  0
  -18.8199    1.0814    0.0000 O   0  0  0  0  0  0  0  0  0  0  0  0
  -19.9460   -1.2599    0.0000 N   0  0  0  0  0  0  0  0  0  0  0  0
  -21.2978   -0.6097    0.0000 C   0  0  0  0  0  0  0  0  0  0  0  0
  -22.3457    0.4635    0.0000 C   0  0  0  0  0  0  0  0  0  0  0  0
  -21.9401    1.9077    0.0000 C   0  0  0  0  0  0  0  0  0  0  0  0
  -22.9880    2.9810    0.0000 C   0  0  0  0  0  0  0  0  0  0  0  0
  -22.5825    4.4251    0.0000 N   0  0  0  0  0  0  0  0  0  0  0  0
  -23.6304    5.4984    0.0000 C   0  0  0  0  0  0  0  0  0  0  0  0
  -23.2248    6.9425    0.0000 N   0  0  0  0  0  0  0  0  0  0  0  0
  -25.0838    5.1275    0.0000 N   0  0  0  0  0  0  0  0  0  0  0  0
  -22.5367   -1.4553    0.0000 C   0  0  0  0  0  0  0  0  0  0  0  0
  -22.7208   -2.5332    0.0000 O   0  0  0  0  0  0  0  0  0  0  0  0
  -23.8885   -0.8052    0.0000 N   0  0  0  0  0  0  0  0  0  0  0  0
  -25.1275   -1.6508    0.0000 C   0  0  0  0  0  0  0  0  0  0  0  0
  -26.0025   -2.8691    0.0000 C   0  0  0  0  0  0  0  0  0  0  0  0
  -27.4951   -2.7205    0.0000 C   0  0  0  0  0  0  0  0  0  0  0  0
  -28.3701   -3.9388    0.0000 C   0  0  0  0  0  0  0  0  0  0  0  0
  -29.8627   -3.7902    0.0000 N   0  0  0  0  0  0  0  0  0  0  0  0
  -30.7377   -5.0085    0.0000 C   0  0  0  0  0  0  0  0  0  0  0  0
  -32.2304   -4.8599    0.0000 N   0  0  0  0  0  0  0  0  0  0  0  0
  -30.1201   -6.3755    0.0000 N   0  0  0  0  0  0  0  0  0  0  0  0
  -26.4792   -1.0006    0.0000 C   0  0  0  0  0  0  0  0  0  0  0  0
  -27.8120   -1.6889    0.0000 O   0  0  0  0  0  0  0  0  0  0  0  0
  -26.5921    0.4951    0.0000 O   0  0  0  0  0  0  0  0  0  0  0  0
   14.6326  -13.4009    0.0000 H   0  0  0  0  0  0  0  0  0  0  0  0
   10.3158  -12.1565    0.0000 H   0  0  0  0  0  0  0  0  0  0  0  0
    8.0720  -14.1478    0.0000 H   0  0  0  0  0  0  0  0  0  0  0  0
   13.3228  -15.6449    0.0000 H   0  0  0  0  0  0  0  0  0  0  0  0
   13.2880  -22.8268    0.0000 H   0  0  0  0  0  0  0  0  0  0  0  0
    8.1244  -22.2464    0.0000 H   0  0  0  0  0  0  0  0  0  0  0  0
    8.4595  -19.2652    0.0000 H   0  0  0  0  0  0  0  0  0  0  0  0
    9.1639  -24.6275    0.0000 H   0  0  0  0  0  0  0  0  0  0  0  0
   11.5439  -15.0836    0.0000 H   0  0  0  0  0  0  0  0  0  0  0  0
   14.4737  -13.9147    0.0000 H   0  0  0  0  0  0  0  0  0  0  0  0
   16.3725  -18.6452    0.0000 H   0  0  0  0  0  0  0  0  0  0  0  0
   17.9147  -16.5544    0.0000 H   0  0  0  0  0  0  0  0  0  0  0  0
   15.4061  -11.1129    0.0000 H   0  0  0  0  0  0  0  0  0  0  0  0
   12.2868   -9.7215    0.0000 H   0  0  0  0  0  0  0  0  0  0  0  0
   12.8959   -7.8919    0.0000 H   0  0  0  0  0  0  0  0  0  0  0  0
   15.5892   -9.4518    0.0000 H   0  0  0  0  0  0  0  0  0  0  0  0
   16.1983   -7.6222    0.0000 H   0  0  0  0  0  0  0  0  0  0  0  0
   16.9790   -6.3527    0.0000 H   0  0  0  0  0  0  0  0  0  0  0  0
   15.2944   -6.1199    0.0000 H   0  0  0  0  0  0  0  0  0  0  0  0
   13.9749   -6.6529    0.0000 H   0  0  0  0  0  0  0  0  0  0  0  0
   13.6078   -7.1104    0.0000 H   0  0  0  0  0  0  0  0  0  0  0  0
   12.5376   -7.3201    0.0000 H   0  0  0  0  0  0  0  0  0  0  0  0
   12.3764   -7.3667    0.0000 H   0  0  0  0  0  0  0  0  0  0  0  0
   10.9967   -7.7153    0.0000 H   0  0  0  0  0  0  0  0  0  0  0  0
   10.4934   -7.7613    0.0000 H   0  0  0  0  0  0  0  0  0  0  0  0
    9.2343   -7.7562    0.0000 H   0  0  0  0  0  0  0  0  0  0  0  0
    8.7314   -7.7061    0.0000 H   0  0  0  0  0  0  0  0  0  0  0  0
    7.4960   -7.4628    0.0000 H   0  0  0  0  0  0  0  0  0  0  0  0
    7.0116   -7.3185    0.0000 H   0  0  0  0  0  0  0  0  0  0  0  0
    5.7277   -6.7047    0.0000 H   0  0  0  0  0  0  0  0  0  0  0  0
    4.7927   -6.3861    0.0000 H   0  0  0  0  0  0  0  0  0  0  0  0
   17.3406   -6.0107    0.0000 H   0  0  0  0  0  0  0  0  0  0  0  0
   18.2726   -4.6687    0.0000 H   0  0  0  0  0  0  0  0  0  0  0  0
   17.2562   -3.2020    0.0000 H   0  0  0  0  0  0  0  0  0  0  0  0
   18.3401   -2.6038    0.0000 H   0  0  0  0  0  0  0  0  0  0  0  0
   18.4706   -1.5914    0.0000 H   0  0  0  0  0  0  0  0  0  0  0  0
   20.1711    0.9864    0.0000 H   0  0  0  0  0  0  0  0  0  0  0  0
   18.6268    1.5197    0.0000 H   0  0  0  0  0  0  0  0  0  0  0  0
   20.8052   -2.2658    0.0000 H   0  0  0  0  0  0  0  0  0  0  0  0
   19.1777   -2.1220    0.0000 H   0  0  0  0  0  0  0  0  0  0  0  0
   22.7120    0.4440    0.0000 H   0  0  0  0  0  0  0  0  0  0  0  0
   20.9928    0.9224    0.0000 H   0  0  0  0  0  0  0  0  0  0  0  0
   22.3299   -2.9501    0.0000 H   0  0  0  0  0  0  0  0  0  0  0  0
   26.6108   -1.5632    0.0000 H   0  0  0  0  0  0  0  0  0  0  0  0
   24.8707   -3.4924    0.0000 H   0  0  0  0  0  0  0  0  0  0  0  0
   25.8101    0.9084    0.0000 H   0  0  0  0  0  0  0  0  0  0  0  0
   23.2693    1.4508    0.0000 H   0  0  0  0  0  0  0  0  0  0  0  0
   19.2153    2.6089    0.0000 H   0  0  0  0  0  0  0  0  0  0  0  0
   18.7776    3.5311    0.0000 H   0  0  0  0  0  0  0  0  0  0  0  0
   18.8146    6.6191    0.0000 H   0  0  0  0  0  0  0  0  0  0  0  0
   17.2270    6.2328    0.0000 H   0  0  0  0  0  0  0  0  0  0  0  0
   21.1063    4.2260    0.0000 H   0  0  0  0  0  0  0  0  0  0  0  0
   19.6594    3.4671    0.0000 H   0  0  0  0  0  0  0  0  0  0  0  0
   21.2453    7.5365    0.0000 H   0  0  0  0  0  0  0  0  0  0  0  0
   19.5404    7.0095    0.0000 H   0  0  0  0  0  0  0  0  0  0  0  0
   22.7588    4.4746    0.0000 H   0  0  0  0  0  0  0  0  0  0  0  0
   25.6104    7.9558    0.0000 H   0  0  0  0  0  0  0  0  0  0  0  0
   25.1895    5.3920    0.0000 H   0  0  0  0  0  0  0  0  0  0  0  0
   23.6005    9.6022    0.0000 H   0  0  0  0  0  0  0  0  0  0  0  0
   21.1698    8.6848    0.0000 H   0  0  0  0  0  0  0  0  0  0  0  0
   17.1333    7.4673    0.0000 H   0  0  0  0  0  0  0  0  0  0  0  0
   16.2665    8.0065    0.0000 H   0  0  0  0  0  0  0  0  0  0  0  0
   14.8086   10.6557    0.0000 H   0  0  0  0  0  0  0  0  0  0  0  0
   13.5014    9.4410    0.0000 H   0  0  0  0  0  0  0  0  0  0  0  0
   17.8498    9.8500    0.0000 H   0  0  0  0  0  0  0  0  0  0  0  0
   17.0429    8.4293    0.0000 H   0  0  0  0  0  0  0  0  0  0  0  0
   18.0736   13.3369    0.0000 H   0  0  0  0  0  0  0  0  0  0  0  0
   19.1056   10.9526    0.0000 H   0  0  0  0  0  0  0  0  0  0  0  0
   12.7551   10.4288    0.0000 H   0  0  0  0  0  0  0  0  0  0  0  0
   11.7344   10.4138    0.0000 H   0  0  0  0  0  0  0  0  0  0  0  0
    8.9409   11.7302    0.0000 H   0  0  0  0  0  0  0  0  0  0  0  0
    8.6328   10.1256    0.0000 H   0  0  0  0  0  0  0  0  0  0  0  0
   12.0697   12.8206    0.0000 H   0  0  0  0  0  0  0  0  0  0  0  0
   12.1590   11.1892    0.0000 H   0  0  0  0  0  0  0  0  0  0  0  0
    9.1161   14.3223    0.0000 H   0  0  0  0  0  0  0  0  0  0  0  0
    8.8873   12.5526    0.0000 H   0  0  0  0  0  0  0  0  0  0  0  0
   12.5300   14.4271    0.0000 H   0  0  0  0  0  0  0  0  0  0  0  0
   10.5480   18.4672    0.0000 H   0  0  0  0  0  0  0  0  0  0  0  0
   12.7053   17.0193    0.0000 H   0  0  0  0  0  0  0  0  0  0  0  0
    8.2155   17.3228    0.0000 H   0  0  0  0  0  0  0  0  0  0  0  0
    8.0403   14.7307    0.0000 H   0  0  0  0  0  0  0  0  0  0  0  0
    7.4709   10.5531    0.0000 H   0  0  0  0  0  0  0  0  0  0  0  0
    6.6203    9.9887    0.0000 H   0  0  0  0  0  0  0  0  0  0  0  0
    3.5586    9.5858    0.0000 H   0  0  0  0  0  0  0  0  0  0  0  0
    4.1668    8.0694    0.0000 H   0  0  0  0  0  0  0  0  0  0  0  0
    5.6011   12.1947    0.0000 H   0  0  0  0  0  0  0  0  0  0  0  0
    6.5583   10.8706    0.0000 H   0  0  0  0  0  0  0  0  0  0  0  0
    2.3046   11.8612    0.0000 H   0  0  0  0  0  0  0  0  0  0  0  0
    3.0688   10.2487    0.0000 H   0  0  0  0  0  0  0  0  0  0  0  0
    5.1199   13.7951    0.0000 H   0  0  0  0  0  0  0  0  0  0  0  0
    1.2683   16.1222    0.0000 H   0  0  0  0  0  0  0  0  0  0  0  0
    3.8659   16.0705    0.0000 H   0  0  0  0  0  0  0  0  0  0  0  0
   -0.0753   13.8985    0.0000 H   0  0  0  0  0  0  0  0  0  0  0  0
    1.1787   11.6231    0.0000 H   0  0  0  0  0  0  0  0  0  0  0  0
    2.9583    7.8009    0.0000 H   0  0  0  0  0  0  0  0  0  0  0  0
    2.5479    6.8662    0.0000 H   0  0  0  0  0  0  0  0  0  0  0  0
    0.1900    4.8720    0.0000 H   0  0  0  0  0  0  0  0  0  0  0  0
    1.5215    3.9252    0.0000 H   0  0  0  0  0  0  0  0  0  0  0  0
    0.4978    8.1710    0.0000 H   0  0  0  0  0  0  0  0  0  0  0  0
    2.0189    7.5746    0.0000 H   0  0  0  0  0  0  0  0  0  0  0  0
   -2.0951    6.1082    0.0000 H   0  0  0  0  0  0  0  0  0  0  0  0
   -0.5804    5.1649    0.0000 H   0  0  0  0  0  0  0  0  0  0  0  0
   -0.7723    9.2571    0.0000 H   0  0  0  0  0  0  0  0  0  0  0  0
   -5.2705    9.1325    0.0000 H   0  0  0  0  0  0  0  0  0  0  0  0
   -3.0574   10.4934    0.0000 H   0  0  0  0  0  0  0  0  0  0  0  0
   -5.1824    6.3530    0.0000 H   0  0  0  0  0  0  0  0  0  0  0  0
   -2.9135    5.2992    0.0000 H   0  0  0  0  0  0  0  0  0  0  0  0
    0.6500    3.0459    0.0000 H   0  0  0  0  0  0  0  0  0  0  0  0
    1.1696   -1.4012    0.0000 H   0  0  0  0  0  0  0  0  0  0  0  0
    0.7305   -0.2211    0.0000 H   0  0  0  0  0  0  0  0  0  0  0  0
    1.7295   -2.8902    0.0000 H   0  0  0  0  0  0  0  0  0  0  0  0
    1.2206   -1.9257    0.0000 H   0  0  0  0  0  0  0  0  0  0  0  0
    2.8706   -4.4391    0.0000 H   0  0  0  0  0  0  0  0  0  0  0  0
    1.9804   -3.3289    0.0000 H   0  0  0  0  0  0  0  0  0  0  0  0
    3.3939   -5.2769    0.0000 H   0  0  0  0  0  0  0  0  0  0  0  0
   -0.7261    1.4533    0.0000 H   0  0  0  0  0  0  0  0  0  0  0  0
   -0.2669    3.0213    0.0000 H   0  0  0  0  0  0  0  0  0  0  0  0
    1.3523    3.2397    0.0000 H   0  0  0  0  0  0  0  0  0  0  0  0
   -0.8664    2.4246    0.0000 H   0  0  0  0  0  0  0  0  0  0  0  0
   -0.7631   -0.9651    0.0000 H   0  0  0  0  0  0  0  0  0  0  0  0
   -2.9125   -2.5930    0.0000 H   0  0  0  0  0  0  0  0  0  0  0  0
   -1.3343   -1.7604    0.0000 H   0  0  0  0  0  0  0  0  0  0  0  0
   -5.5304   -0.3114    0.0000 H   0  0  0  0  0  0  0  0  0  0  0  0
   -4.4987    0.5039    0.0000 H   0  0  0  0  0  0  0  0  0  0  0  0
   -5.4592   -3.6241    0.0000 H   0  0  0  0  0  0  0  0  0  0  0  0
   -3.7912   -2.9900    0.0000 H   0  0  0  0  0  0  0  0  0  0  0  0
   -7.4763   -0.8544    0.0000 H   0  0  0  0  0  0  0  0  0  0  0  0
   -9.7889   -4.3194    0.0000 H   0  0  0  0  0  0  0  0  0  0  0  0
   -9.3821   -1.6641    0.0000 H   0  0  0  0  0  0  0  0  0  0  0  0
   -7.6787   -5.8349    0.0000 H   0  0  0  0  0  0  0  0  0  0  0  0
   -5.3111   -4.7652    0.0000 H   0  0  0  0  0  0  0  0  0  0  0  0
   -4.6542   -1.5659    0.0000 H   0  0  0  0  0  0  0  0  0  0  0  0
   -4.7365    1.6655    0.0000 H   0  0  0  0  0  0  0  0  0  0  0  0
   -8.0638    2.4462    0.0000 H   0  0  0  0  0  0  0  0  0  0  0  0
   -7.9452    0.6657    0.0000 H   0  0  0  0  0  0  0  0  0  0  0  0
   -5.5208    4.2986    0.0000 H   0  0  0  0  0  0  0  0  0  0  0  0
   -4.9749    2.5997    0.0000 H   0  0  0  0  0  0  0  0  0  0  0  0
   -8.0861    6.6710    0.0000 H   0  0  0  0  0  0  0  0  0  0  0  0
   -5.5504    5.7886    0.0000 H   0  0  0  0  0  0  0  0  0  0  0  0
   -8.6385    1.8383    0.0000 H   0  0  0  0  0  0  0  0  0  0  0  0
   -8.5353   -1.5514    0.0000 H   0  0  0  0  0  0  0  0  0  0  0  0
  -10.6847   -3.1793    0.0000 H   0  0  0  0  0  0  0  0  0  0  0  0
   -8.9893   -2.0002    0.0000 H   0  0  0  0  0  0  0  0  0  0  0  0
  -13.3026   -0.8977    0.0000 H   0  0  0  0  0  0  0  0  0  0  0  0
  -12.2709   -0.0824    0.0000 H   0  0  0  0  0  0  0  0  0  0  0  0
  -13.2314   -4.2104    0.0000 H   0  0  0  0  0  0  0  0  0  0  0  0
  -11.5634   -3.5763    0.0000 H   0  0  0  0  0  0  0  0  0  0  0  0
  -15.2485   -1.4407    0.0000 H   0  0  0  0  0  0  0  0  0  0  0  0
  -17.5611   -4.9057    0.0000 H   0  0  0  0  0  0  0  0  0  0  0  0
  -17.1543   -2.2504    0.0000 H   0  0  0  0  0  0  0  0  0  0  0  0
  -15.4509   -6.4212    0.0000 H   0  0  0  0  0  0  0  0  0  0  0  0
  -13.0832   -5.3515    0.0000 H   0  0  0  0  0  0  0  0  0  0  0  0
  -12.4263   -2.1522    0.0000 H   0  0  0  0  0  0  0  0  0  0  0  0
  -12.5087    1.0792    0.0000 H   0  0  0  0  0  0  0  0  0  0  0  0
  -15.9253    1.7000    0.0000 H   0  0  0  0  0  0  0  0  0  0  0  0
  -15.7174    0.0794    0.0000 H   0  0  0  0  0  0  0  0  0  0  0  0
  -13.2930    3.7123    0.0000 H   0  0  0  0  0  0  0  0  0  0  0  0
  -12.7471    2.0134    0.0000 H   0  0  0  0  0  0  0  0  0  0  0  0
  -16.5677    4.2174    0.0000 H   0  0  0  0  0  0  0  0  0  0  0  0
  -16.2329    2.4647    0.0000 H   0  0  0  0  0  0  0  0  0  0  0  0
  -13.3569    5.3823    0.0000 H   0  0  0  0  0  0  0  0  0  0  0  0
  -16.5006    8.6021    0.0000 H   0  0  0  0  0  0  0  0  0  0  0  0
  -13.9992    7.8997    0.0000 H   0  0  0  0  0  0  0  0  0  0  0  0
  -18.3595    6.7871    0.0000 H   0  0  0  0  0  0  0  0  0  0  0  0
  -17.7172    4.2697    0.0000 H   0  0  0  0  0  0  0  0  0  0  0  0
  -16.4107    1.2520    0.0000 H   0  0  0  0  0  0  0  0  0  0  0  0
  -16.3074   -2.1377    0.0000 H   0  0  0  0  0  0  0  0  0  0  0  0
  -18.4568   -3.7656    0.0000 H   0  0  0  0  0  0  0  0  0  0  0  0
  -16.7614   -2.5865    0.0000 H   0  0  0  0  0  0  0  0  0  0  0  0
  -21.0747   -1.4840    0.0000 H   0  0  0  0  0  0  0  0  0  0  0  0
  -20.0430   -0.6687    0.0000 H   0  0  0  0  0  0  0  0  0  0  0  0
  -21.0035   -4.7967    0.0000 H   0  0  0  0  0  0  0  0  0  0  0  0
  -19.3355   -4.1626    0.0000 H   0  0  0  0  0  0  0  0  0  0  0  0
  -23.0206   -2.0270    0.0000 H   0  0  0  0  0  0  0  0  0  0  0  0
  -25.3332   -5.4920    0.0000 H   0  0  0  0  0  0  0  0  0  0  0  0
  -24.9264   -2.8367    0.0000 H   0  0  0  0  0  0  0  0  0  0  0  0
  -23.2230   -7.0075    0.0000 H   0  0  0  0  0  0  0  0  0  0  0  0
  -20.8554   -5.9378    0.0000 H   0  0  0  0  0  0  0  0  0  0  0  0
  -20.1985   -2.7385    0.0000 H   0  0  0  0  0  0  0  0  0  0  0  0
  -20.2808    0.4929    0.0000 H   0  0  0  0  0  0  0  0  0  0  0  0
  -23.6975    1.1137    0.0000 H   0  0  0  0  0  0  0  0  0  0  0  0
  -23.4895   -0.5069    0.0000 H   0  0  0  0  0  0  0  0  0  0  0  0
  -21.0651    3.1260    0.0000 H   0  0  0  0  0  0  0  0  0  0  0  0
  -20.5192    1.4271    0.0000 H   0  0  0  0  0  0  0  0  0  0  0  0
  -24.3398    3.6311    0.0000 H   0  0  0  0  0  0  0  0  0  0  0  0
  -24.0050    1.8784    0.0000 H   0  0  0  0  0  0  0  0  0  0  0  0
  -21.1290    4.7960    0.0000 H   0  0  0  0  0  0  0  0  0  0  0  0
  -24.2727    8.0158    0.0000 H   0  0  0  0  0  0  0  0  0  0  0  0
  -21.7714    7.3134    0.0000 H   0  0  0  0  0  0  0  0  0  0  0  0
  -26.1317    6.2008    0.0000 H   0  0  0  0  0  0  0  0  0  0  0  0
  -25.4893    3.6834    0.0000 H   0  0  0  0  0  0  0  0  0  0  0  0
  -24.1828    0.6657    0.0000 H   0  0  0  0  0  0  0  0  0  0  0  0
  -24.0796   -2.7240    0.0000 H   0  0  0  0  0  0  0  0  0  0  0  0
  -26.2290   -4.3519    0.0000 H   0  0  0  0  0  0  0  0  0  0  0  0
  -24.5336   -3.1728    0.0000 H   0  0  0  0  0  0  0  0  0  0  0  0
  -28.8469   -2.0703    0.0000 H   0  0  0  0  0  0  0  0  0  0  0  0
  -27.6341   -1.2269    0.0000 H   0  0  0  0  0  0  0  0  0  0  0  0
  -28.7757   -5.3830    0.0000 H   0  0  0  0  0  0  0  0  0  0  0  0
  -27.1077   -4.7489    0.0000 H   0  0  0  0  0  0  0  0  0  0  0  0
  -30.4803   -2.4233    0.0000 H   0  0  0  0  0  0  0  0  0  0  0  0
  -33.1054   -6.0783    0.0000 H   0  0  0  0  0  0  0  0  0  0  0  0
  -32.8480   -3.4930    0.0000 H   0  0  0  0  0  0  0  0  0  0  0  0
  -30.9952   -7.5938    0.0000 H   0  0  0  0  0  0  0  0  0  0  0  0
  -28.6275   -6.5241    0.0000 H   0  0  0  0  0  0  0  0  0  0  0  0
  1  2  1  0
  2  3  1  0
  3  4  2  0
  4  5  1  0
  5  6  2  0
  6  7  1  0
  7  8  2  0
  7  9  1  0
  9 10  1  0
 10 11  1  0
 11 12  2  0
  9 13  1  0
 13 14  1  0
 14 15  2  0
 15 16  1  0
 16 17  2  0
 17 18  1  0
 16 19  1  0
 14 20  1  0
 20 21  1  0
 21 22  2  0
 22 23  1  0
 23 24  2  0
 24 25  1  0
 25 26  2  0
 25 27  1  0
  1 28  2  0
  1 29  1  0
 29 30  1  0
 30 31  1  0
 31 32  1  0
 32 33  2  0
 32 34  1  0
 35 34  1  6
 35 36  1  0
 36 37  1  0
 37 38  1  0
 38 39  1  0
 39 40  1  0
 40 41  1  0
 41 42  1  0
 35 43  1  0
 35 44  1  0
 44 45  2  0
 44 46  1  0
 46 47  1  0
 47 48  1  0
 48 49  1  0
 49 50  1  0
 50 51  1  0
 51 52  1  0
 52 53  2  3
 52 54  1  0
 47 55  1  0
 55 56  2  0
 55 57  1  0
 57 58  1  0
 58 59  1  0
 59 60  1  0
 60 61  1  0
 61 62  1  0
 62 63  1  0
 63 64  2  3
 63 65  1  0
 58 66  1  0
 66 67  2  0
 66 68  1  0
 68 69  1  0
 69 70  1  0
 70 71  1  0
 71 72  1  0
 72 73  1  0
 72 74  2  0
 69 75  1  0
 75 76  2  0
 75 77  1  0
 77 78  1  0
 78 79  1  0
 79 80  1  0
 80 81  1  0
 81 82  1  0
 82 83  1  0
 83 84  2  3
 83 85  1  0
 78 86  1  0
 86 87  2  0
 86 88  1  0
 88 89  1  0
 89 90  1  0
 90 91  1  0
 91 92  1  0
 92 93  1  0
 93 94  1  0
 94 95  2  3
 94 96  1  0
 89 97  1  0
 97 98  2  0
 97 99  1  0
 99100  1  0
100101  1  0
101102  1  0
102103  1  0
103104  1  0
104105  1  0
105106  2  3
105107  1  0
100108  1  0
108109  2  0
108110  1  0
110111  1  0
111112  1  0
112113  1  0
113114  1  0
114115  1  0
111116  1  0
111117  1  1
117118  2  0
117119  1  0
119120  1  0
120121  1  0
121122  1  0
122123  1  0
123124  1  0
124125  1  0
125126  2  3
125127  1  0
120128  1  0
128129  2  0
128130  1  0
130131  1  0
131132  1  0
132133  1  0
133134  1  0
134135  1  0
134136  2  0
131137  1  0
137138  2  0
137139  1  0
139140  1  0
140141  1  0
141142  1  0
142143  1  0
143144  1  0
144145  1  0
145146  2  3
145147  1  0
140148  1  0
148149  2  0
148150  1  0
150151  1  0
151152  1  0
152153  1  0
153154  1  0
154155  1  0
155156  1  0
156157  2  3
156158  1  0
151159  1  0
159160  2  0
159161  1  0
161162  1  0
162163  1  0
163164  1  0
164165  1  0
165166  1  0
166167  1  0
167168  2  3
167169  1  0
162170  1  0
170171  2  0
170172  1  0
172173  1  0
173174  1  0
174175  1  0
175176  1  0
176177  1  0
177178  1  0
178179  2  3
178180  1  0
173181  1  0
181182  2  0
181183  1  0
183184  1  0
184185  1  0
185186  1  0
186187  1  0
187188  1  0
188189  1  0
189190  2  3
189191  1  0
184192  1  0
192193  2  0
192194  1  0
  8  3  1  0
 11  6  1  0
 42115  2  0
 18 13  2  0
 22  9  1  0
 26 21  1  0
  2195  1  0
  4196  1  0
  5197  1  0
  8198  1  0
 15199  1  0
 17200  1  0
 18201  1  0
 19202  1  0
 23203  1  0
 24204  1  0
 26205  1  0
 27206  1  0
 29207  1  0
 30208  1  0
 30209  1  0
 31210  1  0
 31211  1  0
 34212  1  0
 36213  1  0
 36214  1  0
 37215  1  0
 37216  1  0
 38217  1  0
 38218  1  0
 39219  1  0
 39220  1  0
 40221  1  0
 40222  1  0
 41223  1  0
 41224  1  0
 42225  1  0
 43226  1  0
 43227  1  0
 43228  1  0
 46229  1  0
 47230  1  6
 48231  1  0
 48232  1  0
 49233  1  0
 49234  1  0
 50235  1  0
 50236  1  0
 51237  1  0
 53238  1  0
 53239  1  0
 54240  1  0
 54241  1  0
 57242  1  0
 58243  1  6
 59244  1  0
 59245  1  0
 60246  1  0
 60247  1  0
 61248  1  0
 61249  1  0
 62250  1  0
 64251  1  0
 64252  1  0
 65253  1  0
 65254  1  0
 68255  1  0
 69256  1  6
 70257  1  0
 70258  1  0
 71259  1  0
 71260  1  0
 73261  1  0
 73262  1  0
 77263  1  0
 78264  1  6
 79265  1  0
 79266  1  0
 80267  1  0
 80268  1  0
 81269  1  0
 81270  1  0
 82271  1  0
 84272  1  0
 84273  1  0
 85274  1  0
 85275  1  0
 88276  1  0
 89277  1  6
 90278  1  0
 90279  1  0
 91280  1  0
 91281  1  0
 92282  1  0
 92283  1  0
 93284  1  0
 95285  1  0
 95286  1  0
 96287  1  0
 96288  1  0
 99289  1  0
100290  1  6
101291  1  0
101292  1  0
102293  1  0
102294  1  0
103295  1  0
103296  1  0
104297  1  0
106298  1  0
106299  1  0
107300  1  0
107301  1  0
110302  1  0
112303  1  0
112304  1  0
113305  1  0
113306  1  0
114307  1  0
114308  1  0
115309  1  0
116310  1  0
116311  1  0
116312  1  0
119313  1  0
120314  1  1
121315  1  0
121316  1  0
122317  1  0
122318  1  0
123319  1  0
123320  1  0
124321  1  0
126322  1  0
126323  1  0
127324  1  0
127325  1  0
130326  1  0
131327  1  6
132328  1  0
132329  1  0
133330  1  0
133331  1  0
135332  1  0
135333  1  0
139334  1  0
140335  1  1
141336  1  0
141337  1  0
142338  1  0
142339  1  0
143340  1  0
143341  1  0
144342  1  0
146343  1  0
146344  1  0
147345  1  0
147346  1  0
150347  1  0
151348  1  6
152349  1  0
152350  1  0
153351  1  0
153352  1  0
154353  1  0
154354  1  0
155355  1  0
157356  1  0
157357  1  0
158358  1  0
158359  1  0
161360  1  0
162361  1  1
163362  1  0
163363  1  0
164364  1  0
164365  1  0
165366  1  0
165367  1  0
166368  1  0
168369  1  0
168370  1  0
169371  1  0
169372  1  0
172373  1  0
173374  1  6
174375  1  0
174376  1  0
175377  1  0
175378  1  0
176379  1  0
176380  1  0
177381  1  0
179382  1  0
179383  1  0
180384  1  0
180385  1  0
183386  1  0
184387  1  1
185388  1  0
185389  1  0
186390  1  0
186391  1  0
187392  1  0
187393  1  0
188394  1  0
190395  1  0
190396  1  0
191397  1  0
191398  1  0
M  CHG  8  53   1  64   1  84   1  95   1 106   1 126   1 146   1 157   1
M  CHG  4 168   1 179   1 190   1 194  -1
M  END
