
     RDKit          2D

309315  0  0  0  0  0  0  0  0999 V2000
   18.0730   -5.2072    0.0000 C   0  0  0  0  0  0  0  0  0  0  0  0
   19.5693   -5.1015    0.0000 N   0  0  0  0  0  0  0  0  0  0  0  0
   20.4090   -6.3445    0.0000 C   0  0  0  0  0  0  0  0  0  0  0  0
   19.7524   -7.6931    0.0000 C   0  0  0  0  0  0  0  0  0  0  0  0
   20.5920   -8.9361    0.0000 C   0  0  0  0  0  0  0  0  0  0  0  0
   22.0883   -8.8304    0.0000 C   0  0  0  0  0  0  0  0  0  0  0  0
   22.7449   -7.4818    0.0000 C   0  0  0  0  0  0  0  0  0  0  0  0
   21.9052   -6.2388    0.0000 C   0  0  0  0  0  0  0  0  0  0  0  0
   24.2305   -7.6895    0.0000 C   0  0  0  0  0  0  0  0  0  0  0  0
   24.4920   -9.1665    0.0000 O   0  0  0  0  0  0  0  0  0  0  0  0
   23.1680   -9.8716    0.0000 C   0  0  0  0  0  0  0  0  0  0  0  0
   22.9603  -11.3572    0.0000 O   0  0  0  0  0  0  0  0  0  0  0  0
   25.6862   -8.0513    0.0000 C   0  0  0  0  0  0  0  0  0  0  0  0
   26.7274   -6.9716    0.0000 C   0  0  0  0  0  0  0  0  0  0  0  0
   28.1831   -7.3334    0.0000 C   0  0  0  0  0  0  0  0  0  0  0  0
   28.5976   -8.7750    0.0000 C   0  0  0  0  0  0  0  0  0  0  0  0
   27.5563   -9.8548    0.0000 C   0  0  0  0  0  0  0  0  0  0  0  0
   26.1006   -9.4929    0.0000 C   0  0  0  0  0  0  0  0  0  0  0  0
   30.0533   -9.1369    0.0000 O   0  0  0  0  0  0  0  0  0  0  0  0
   26.3129   -5.5300    0.0000 O   0  0  0  0  0  0  0  0  0  0  0  0
   24.8572   -5.1681    0.0000 C   0  0  0  0  0  0  0  0  0  0  0  0
   23.8160   -6.2479    0.0000 C   0  0  0  0  0  0  0  0  0  0  0  0
   22.8462   -5.3821    0.0000 C   0  0  0  0  0  0  0  0  0  0  0  0
   22.6251   -4.6133    0.0000 C   0  0  0  0  0  0  0  0  0  0  0  0
   23.1804   -4.0374    0.0000 C   0  0  0  0  0  0  0  0  0  0  0  0
   23.9568   -4.2304    0.0000 C   0  0  0  0  0  0  0  0  0  0  0  0
   22.5726   -1.9231    0.0000 O   0  0  0  0  0  0  0  0  0  0  0  0
   17.4164   -6.5559    0.0000 S   0  0  0  0  0  0  0  0  0  0  0  0
   17.2334   -3.9642    0.0000 N   0  0  0  0  0  0  0  0  0  0  0  0
   15.7371   -4.0699    0.0000 C   0  0  0  0  0  0  0  0  0  0  0  0
   14.8974   -2.8270    0.0000 C   0  0  0  0  0  0  0  0  0  0  0  0
   13.4011   -2.9327    0.0000 C   0  0  0  0  0  0  0  0  0  0  0  0
   13.2360   -3.7125    0.0000 O   0  0  0  0  0  0  0  0  0  0  0  0
   12.5615   -1.6897    0.0000 N   0  0  0  0  0  0  0  0  0  0  0  0
   11.0652   -1.7954    0.0000 C   0  0  0  0  0  0  0  0  0  0  0  0
   11.4291   -3.2506    0.0000 C   0  0  0  0  0  0  0  0  0  0  0  0
   12.8713   -3.6630    0.0000 C   0  0  0  0  0  0  0  0  0  0  0  0
   13.2352   -5.1182    0.0000 C   0  0  0  0  0  0  0  0  0  0  0  0
   14.6774   -5.5306    0.0000 C   0  0  0  0  0  0  0  0  0  0  0  0
   15.0413   -6.9858    0.0000 N   0  0  0  0  0  0  0  0  0  0  0  0
    9.6230   -1.3830    0.0000 C   0  0  0  0  0  0  0  0  0  0  0  0
    8.6799   -2.5494    0.0000 O   0  0  0  0  0  0  0  0  0  0  0  0
    9.2591    0.0722    0.0000 N   0  0  0  0  0  0  0  0  0  0  0  0
    7.8169    0.4847    0.0000 C   0  0  0  0  0  0  0  0  0  0  0  0
    7.6612   -1.0072    0.0000 C   0  0  0  0  0  0  0  0  0  0  0  0
    8.7589   -2.0295    0.0000 C   0  0  0  0  0  0  0  0  0  0  0  0
    6.6028    1.3655    0.0000 C   0  0  0  0  0  0  0  0  0  0  0  0
    5.4215    0.4411    0.0000 O   0  0  0  0  0  0  0  0  0  0  0  0
    6.7585    2.8574    0.0000 N   0  0  0  0  0  0  0  0  0  0  0  0
    5.5444    3.7382    0.0000 C   0  0  0  0  0  0  0  0  0  0  0  0
    5.2943    2.2592    0.0000 C   0  0  0  0  0  0  0  0  0  0  0  0
    4.7689    0.8542    0.0000 C   0  0  0  0  0  0  0  0  0  0  0  0
    3.9871   -0.4259    0.0000 C   0  0  0  0  0  0  0  0  0  0  0  0
    2.9771   -1.5350    0.0000 C   0  0  0  0  0  0  0  0  0  0  0  0
    1.7755   -2.4328    0.0000 C   0  0  0  0  0  0  0  0  0  0  0  0
    0.4257   -3.0870    0.0000 C   0  0  0  0  0  0  0  0  0  0  0  0
   -1.0235   -3.4740    0.0000 C   0  0  0  0  0  0  0  0  0  0  0  0
    6.8727    4.4349    0.0000 C   0  0  0  0  0  0  0  0  0  0  0  0
    5.5100    5.2378    0.0000 C   0  0  0  0  0  0  0  0  0  0  0  0
    6.9669    5.5948    0.0000 O   0  0  0  0  0  0  0  0  0  0  0  0
    5.1924    6.7038    0.0000 N   0  0  0  0  0  0  0  0  0  0  0  0
    4.6032    8.0832    0.0000 C   0  0  0  0  0  0  0  0  0  0  0  0
    5.3440    9.3875    0.0000 C   0  0  0  0  0  0  0  0  0  0  0  0
    6.8341    9.2152    0.0000 C   0  0  0  0  0  0  0  0  0  0  0  0
    5.5940   10.8665    0.0000 C   0  0  0  0  0  0  0  0  0  0  0  0
    6.9999   11.3895    0.0000 C   0  0  0  0  0  0  0  0  0  0  0  0
    3.7635    9.3262    0.0000 C   0  0  0  0  0  0  0  0  0  0  0  0
    4.9210   10.2802    0.0000 O   0  0  0  0  0  0  0  0  0  0  0  0
    2.7038   10.3878    0.0000 N   0  0  0  0  0  0  0  0  0  0  0  0
    1.4623   11.2296    0.0000 C   0  0  0  0  0  0  0  0  0  0  0  0
    1.3804   12.7274    0.0000 C   0  0  0  0  0  0  0  0  0  0  0  0
    2.6365   13.5472    0.0000 C   0  0  0  0  0  0  0  0  0  0  0  0
    2.5545   15.0450    0.0000 C   0  0  0  0  0  0  0  0  0  0  0  0
    4.0973   13.8880    0.0000 C   0  0  0  0  0  0  0  0  0  0  0  0
    0.0839   11.8213    0.0000 C   0  0  0  0  0  0  0  0  0  0  0  0
    0.3644   13.2949    0.0000 O   0  0  0  0  0  0  0  0  0  0  0  0
   -1.3815   12.1415    0.0000 N   0  0  0  0  0  0  0  0  0  0  0  0
   -2.8811   12.1785    0.0000 C   0  0  0  0  0  0  0  0  0  0  0  0
   -3.7597   13.3942    0.0000 C   0  0  0  0  0  0  0  0  0  0  0  0
   -3.1463   14.7630    0.0000 C   0  0  0  0  0  0  0  0  0  0  0  0
   -4.0249   15.9787    0.0000 C   0  0  0  0  0  0  0  0  0  0  0  0
   -3.4115   17.3475    0.0000 C   0  0  0  0  0  0  0  0  0  0  0  0
   -4.2901   18.5632    0.0000 N   0  0  0  0  0  0  0  0  0  0  0  0
   -4.3605   11.9310    0.0000 C   0  0  0  0  0  0  0  0  0  0  0  0
   -4.9212   13.3223    0.0000 O   0  0  0  0  0  0  0  0  0  0  0  0
   -5.7664   11.4081    0.0000 N   0  0  0  0  0  0  0  0  0  0  0  0
   -7.0479   10.6285    0.0000 C   0  0  0  0  0  0  0  0  0  0  0  0
   -8.4444   11.1761    0.0000 C   0  0  0  0  0  0  0  0  0  0  0  0
   -8.6683   12.6593    0.0000 C   0  0  0  0  0  0  0  0  0  0  0  0
  -10.0647   13.2070    0.0000 C   0  0  0  0  0  0  0  0  0  0  0  0
  -10.2887   14.6902    0.0000 C   0  0  0  0  0  0  0  0  0  0  0  0
  -11.6851   15.2378    0.0000 N   0  0  0  0  0  0  0  0  0  0  0  0
   -8.1587    9.6205    0.0000 C   0  0  0  0  0  0  0  0  0  0  0  0
   -9.3826   10.4877    0.0000 O   0  0  0  0  0  0  0  0  0  0  0  0
   -9.0587    8.4205    0.0000 N   0  0  0  0  0  0  0  0  0  0  0  0
   -9.7153    7.0718    0.0000 C   0  0  0  0  0  0  0  0  0  0  0  0
  -11.1861    6.7775    0.0000 C   0  0  0  0  0  0  0  0  0  0  0  0
  -10.1048    5.6233    0.0000 C   0  0  0  0  0  0  0  0  0  0  0  0
  -11.6033    5.6912    0.0000 O   0  0  0  0  0  0  0  0  0  0  0  0
  -10.2131    4.1272    0.0000 N   0  0  0  0  0  0  0  0  0  0  0  0
  -10.0364    2.6376    0.0000 C   0  0  0  0  0  0  0  0  0  0  0  0
  -11.1146    1.5949    0.0000 C   0  0  0  0  0  0  0  0  0  0  0  0
  -11.9307    0.3363    0.0000 O   0  0  0  0  0  0  0  0  0  0  0  0
  -12.5568    2.0073    0.0000 C   0  0  0  0  0  0  0  0  0  0  0  0
   -9.5809    1.2084    0.0000 C   0  0  0  0  0  0  0  0  0  0  0  0
  -10.8782    0.4554    0.0000 O   0  0  0  0  0  0  0  0  0  0  0  0
   -8.8632   -0.1087    0.0000 N   0  0  0  0  0  0  0  0  0  0  0  0
   -7.9092   -1.2662    0.0000 C   0  0  0  0  0  0  0  0  0  0  0  0
   -6.7533   -2.2223    0.0000 C   0  0  0  0  0  0  0  0  0  0  0  0
   -5.4374   -2.9423    0.0000 C   0  0  0  0  0  0  0  0  0  0  0  0
   -4.0091   -3.4003    0.0000 C   0  0  0  0  0  0  0  0  0  0  0  0
   -2.5198   -3.5797    0.0000 C   0  0  0  0  0  0  0  0  0  0  0  0
   -9.3699   -1.6070    0.0000 C   0  0  0  0  0  0  0  0  0  0  0  0
   -8.2525   -2.7264    0.0000 C   0  0  0  0  0  0  0  0  0  0  0  0
   -7.4407   -3.9877    0.0000 O   0  0  0  0  0  0  0  0  0  0  0  0
   -9.6887   -3.1591    0.0000 N   0  0  0  0  0  0  0  0  0  0  0  0
  -10.0321   -4.6193    0.0000 C   0  0  0  0  0  0  0  0  0  0  0  0
   -9.8553   -6.1089    0.0000 C   0  0  0  0  0  0  0  0  0  0  0  0
  -11.0569   -7.0067    0.0000 C   0  0  0  0  0  0  0  0  0  0  0  0
  -12.4353   -6.4150    0.0000 C   0  0  0  0  0  0  0  0  0  0  0  0
  -13.6369   -7.3129    0.0000 C   0  0  0  0  0  0  0  0  0  0  0  0
  -13.4601   -8.8024    0.0000 C   0  0  0  0  0  0  0  0  0  0  0  0
  -14.6617   -9.7003    0.0000 O   0  0  0  0  0  0  0  0  0  0  0  0
  -12.0817   -9.3941    0.0000 C   0  0  0  0  0  0  0  0  0  0  0  0
  -10.8801   -8.4963    0.0000 C   0  0  0  0  0  0  0  0  0  0  0  0
  -11.4683   -5.0521    0.0000 C   0  0  0  0  0  0  0  0  0  0  0  0
  -12.4278   -3.8991    0.0000 O   0  0  0  0  0  0  0  0  0  0  0  0
  -11.8116   -6.5122    0.0000 N   0  0  0  0  0  0  0  0  0  0  0  0
  -13.2479   -6.9450    0.0000 C   0  0  0  0  0  0  0  0  0  0  0  0
  -14.7455   -6.8604    0.0000 C   0  0  0  0  0  0  0  0  0  0  0  0
  -15.2528   -5.4488    0.0000 C   0  0  0  0  0  0  0  0  0  0  0  0
  -16.1817   -7.2931    0.0000 C   0  0  0  0  0  0  0  0  0  0  0  0
  -17.2746   -6.2657    0.0000 C   0  0  0  0  0  0  0  0  0  0  0  0
  -13.5912   -8.4051    0.0000 C   0  0  0  0  0  0  0  0  0  0  0  0
  -12.7794   -9.6665    0.0000 O   0  0  0  0  0  0  0  0  0  0  0  0
  -15.0274   -8.8379    0.0000 N   0  0  0  0  0  0  0  0  0  0  0  0
  -15.3708  -10.2981    0.0000 C   0  0  0  0  0  0  0  0  0  0  0  0
  -15.1940  -11.7876    0.0000 C   0  0  0  0  0  0  0  0  0  0  0  0
  -16.3956  -12.6855    0.0000 C   0  0  0  0  0  0  0  0  0  0  0  0
  -16.2189  -14.1750    0.0000 C   0  0  0  0  0  0  0  0  0  0  0  0
  -17.8318  -13.1182    0.0000 C   0  0  0  0  0  0  0  0  0  0  0  0
  -16.8070  -10.7308    0.0000 C   0  0  0  0  0  0  0  0  0  0  0  0
  -17.8999   -9.7034    0.0000 O   0  0  0  0  0  0  0  0  0  0  0  0
  -17.1504  -12.1910    0.0000 N   0  0  0  0  0  0  0  0  0  0  0  0
  -18.5866  -12.6237    0.0000 C   0  0  0  0  0  0  0  0  0  0  0  0
  -20.0842  -12.5391    0.0000 C   0  0  0  0  0  0  0  0  0  0  0  0
  -20.7598  -11.1999    0.0000 O   0  0  0  0  0  0  0  0  0  0  0  0
  -18.9299  -14.0839    0.0000 C   0  0  0  0  0  0  0  0  0  0  0  0
  -20.3027  -14.6885    0.0000 O   0  0  0  0  0  0  0  0  0  0  0  0
  -17.9704  -15.2369    0.0000 O   0  0  0  0  0  0  0  0  0  0  0  0
   20.0566   -3.6829    0.0000 H   0  0  0  0  0  0  0  0  0  0  0  0
   18.2561   -7.7988    0.0000 H   0  0  0  0  0  0  0  0  0  0  0  0
   19.9354  -10.2848    0.0000 H   0  0  0  0  0  0  0  0  0  0  0  0
   22.2160   -4.7713    0.0000 H   0  0  0  0  0  0  0  0  0  0  0  0
   29.2243   -6.2537    0.0000 H   0  0  0  0  0  0  0  0  0  0  0  0
   27.9708  -11.2964    0.0000 H   0  0  0  0  0  0  0  0  0  0  0  0
   25.0594  -10.5727    0.0000 H   0  0  0  0  0  0  0  0  0  0  0  0
   30.4677  -10.5785    0.0000 H   0  0  0  0  0  0  0  0  0  0  0  0
   21.3191   -6.9658    0.0000 H   0  0  0  0  0  0  0  0  0  0  0  0
   20.5451   -3.9078    0.0000 H   0  0  0  0  0  0  0  0  0  0  0  0
   25.4840   -2.6468    0.0000 H   0  0  0  0  0  0  0  0  0  0  0  0
   23.6138   -0.8433    0.0000 H   0  0  0  0  0  0  0  0  0  0  0  0
   17.8900   -2.6156    0.0000 H   0  0  0  0  0  0  0  0  0  0  0  0
   16.2757   -5.4699    0.0000 H   0  0  0  0  0  0  0  0  0  0  0  0
   14.3029   -4.5095    0.0000 H   0  0  0  0  0  0  0  0  0  0  0  0
   16.2673   -2.2159    0.0000 H   0  0  0  0  0  0  0  0  0  0  0  0
   14.5335   -1.3718    0.0000 H   0  0  0  0  0  0  0  0  0  0  0  0
   13.2181   -0.3411    0.0000 H   0  0  0  0  0  0  0  0  0  0  0  0
   11.2209   -0.3035    0.0000 H   0  0  0  0  0  0  0  0  0  0  0  0
   11.0927   -4.7124    0.0000 H   0  0  0  0  0  0  0  0  0  0  0  0
    9.9328   -3.3563    0.0000 H   0  0  0  0  0  0  0  0  0  0  0  0
   14.3435   -3.3757    0.0000 H   0  0  0  0  0  0  0  0  0  0  0  0
   13.3834   -2.2531    0.0000 H   0  0  0  0  0  0  0  0  0  0  0  0
   13.0795   -6.6101    0.0000 H   0  0  0  0  0  0  0  0  0  0  0  0
   11.7630   -5.4055    0.0000 H   0  0  0  0  0  0  0  0  0  0  0  0
   16.1754   -5.6081    0.0000 H   0  0  0  0  0  0  0  0  0  0  0  0
   14.8331   -4.0388    0.0000 H   0  0  0  0  0  0  0  0  0  0  0  0
   16.4835   -7.3983    0.0000 H   0  0  0  0  0  0  0  0  0  0  0  0
   13.9630   -8.0286    0.0000 H   0  0  0  0  0  0  0  0  0  0  0  0
   10.3374    1.1150    0.0000 H   0  0  0  0  0  0  0  0  0  0  0  0
    8.4735    1.8333    0.0000 H   0  0  0  0  0  0  0  0  0  0  0  0
    7.0046   -2.3559    0.0000 H   0  0  0  0  0  0  0  0  0  0  0  0
    6.2190   -0.5948    0.0000 H   0  0  0  0  0  0  0  0  0  0  0  0
    8.7196   -3.3799    0.0000 H   0  0  0  0  0  0  0  0  0  0  0  0
   10.3175   -2.3005    0.0000 H   0  0  0  0  0  0  0  0  0  0  0  0
    9.8695   -0.7707    0.0000 H   0  0  0  0  0  0  0  0  0  0  0  0
    8.1927    3.2969    0.0000 H   0  0  0  0  0  0  0  0  0  0  0  0
    6.7926    2.3315    0.0000 H   0  0  0  0  0  0  0  0  0  0  0  0
    6.1787    1.0477    0.0000 H   0  0  0  0  0  0  0  0  0  0  0  0
    6.2168    0.4623    0.0000 H   0  0  0  0  0  0  0  0  0  0  0  0
    5.5687   -0.4148    0.0000 H   0  0  0  0  0  0  0  0  0  0  0  0
    5.4812   -0.5580    0.0000 H   0  0  0  0  0  0  0  0  0  0  0  0
    4.6985   -1.7464    0.0000 H   0  0  0  0  0  0  0  0  0  0  0  0
    4.3582   -2.1201    0.0000 H   0  0  0  0  0  0  0  0  0  0  0  0
    3.4258   -2.9663    0.0000 H   0  0  0  0  0  0  0  0  0  0  0  0
    3.0209   -3.2688    0.0000 H   0  0  0  0  0  0  0  0  0  0  0  0
    1.9452   -3.9232    0.0000 H   0  0  0  0  0  0  0  0  0  0  0  0
    1.4904   -4.1436    0.0000 H   0  0  0  0  0  0  0  0  0  0  0  0
    0.1288   -4.5574    0.0000 H   0  0  0  0  0  0  0  0  0  0  0  0
   -0.7761   -4.9534    0.0000 H   0  0  0  0  0  0  0  0  0  0  0  0
    8.2286    3.7934    0.0000 H   0  0  0  0  0  0  0  0  0  0  0  0
    8.0104    5.4126    0.0000 H   0  0  0  0  0  0  0  0  0  0  0  0
    6.2704    5.8087    0.0000 H   0  0  0  0  0  0  0  0  0  0  0  0
    6.6665    6.9817    0.0000 H   0  0  0  0  0  0  0  0  0  0  0  0
    6.0793    7.8167    0.0000 H   0  0  0  0  0  0  0  0  0  0  0  0
    4.0946   10.2176    0.0000 H   0  0  0  0  0  0  0  0  0  0  0  0
    7.7605   10.5998    0.0000 H   0  0  0  0  0  0  0  0  0  0  0  0
    8.2571    8.8950    0.0000 H   0  0  0  0  0  0  0  0  0  0  0  0
    6.9592    7.9025    0.0000 H   0  0  0  0  0  0  0  0  0  0  0  0
    5.3232   12.3419    0.0000 H   0  0  0  0  0  0  0  0  0  0  0  0
    4.1040   11.0389    0.0000 H   0  0  0  0  0  0  0  0  0  0  0  0
    7.2500   12.8685    0.0000 H   0  0  0  0  0  0  0  0  0  0  0  0
    8.4999   11.4001    0.0000 H   0  0  0  0  0  0  0  0  0  0  0  0
    7.6198   10.0235    0.0000 H   0  0  0  0  0  0  0  0  0  0  0  0
    3.6598   11.5436    0.0000 H   0  0  0  0  0  0  0  0  0  0  0  0
    2.8482   11.8035    0.0000 H   0  0  0  0  0  0  0  0  0  0  0  0
    0.7911   14.1068    0.0000 H   0  0  0  0  0  0  0  0  0  0  0  0
   -0.1195   12.7502    0.0000 H   0  0  0  0  0  0  0  0  0  0  0  0
    3.5420   12.3514    0.0000 H   0  0  0  0  0  0  0  0  0  0  0  0
    3.7014   16.0118    0.0000 H   0  0  0  0  0  0  0  0  0  0  0  0
    1.9653   16.4244    0.0000 H   0  0  0  0  0  0  0  0  0  0  0  0
    1.0631   14.8848    0.0000 H   0  0  0  0  0  0  0  0  0  0  0  0
    4.7043   15.2597    0.0000 H   0  0  0  0  0  0  0  0  0  0  0  0
    5.5865   13.7086    0.0000 H   0  0  0  0  0  0  0  0  0  0  0  0
    4.1792   12.3902    0.0000 H   0  0  0  0  0  0  0  0  0  0  0  0
   -1.0219   13.5977    0.0000 H   0  0  0  0  0  0  0  0  0  0  0  0
   -2.0254   13.4105    0.0000 H   0  0  0  0  0  0  0  0  0  0  0  0
   -5.0012   14.2360    0.0000 H   0  0  0  0  0  0  0  0  0  0  0  0
   -5.0338   12.6025    0.0000 H   0  0  0  0  0  0  0  0  0  0  0  0
   -1.9782   15.7040    0.0000 H   0  0  0  0  0  0  0  0  0  0  0  0
   -1.7380   14.2465    0.0000 H   0  0  0  0  0  0  0  0  0  0  0  0
   -5.2664   16.8205    0.0000 H   0  0  0  0  0  0  0  0  0  0  0  0
   -5.1930   15.0376    0.0000 H   0  0  0  0  0  0  0  0  0  0  0  0
   -2.3668   18.4239    0.0000 H   0  0  0  0  0  0  0  0  0  0  0  0
   -2.0766   16.6632    0.0000 H   0  0  0  0  0  0  0  0  0  0  0  0
   -3.6767   19.9320    0.0000 H   0  0  0  0  0  0  0  0  0  0  0  0
   -5.7823   18.4101    0.0000 H   0  0  0  0  0  0  0  0  0  0  0  0
   -6.2512   12.8276    0.0000 H   0  0  0  0  0  0  0  0  0  0  0  0
   -6.9942   12.1275    0.0000 H   0  0  0  0  0  0  0  0  0  0  0  0
   -9.9439   11.2132    0.0000 H   0  0  0  0  0  0  0  0  0  0  0  0
   -9.0882    9.8213    0.0000 H   0  0  0  0  0  0  0  0  0  0  0  0
   -8.1944   14.0825    0.0000 H   0  0  0  0  0  0  0  0  0  0  0  0
   -7.2044   12.9863    0.0000 H   0  0  0  0  0  0  0  0  0  0  0  0
  -11.5643   13.2440    0.0000 H   0  0  0  0  0  0  0  0  0  0  0  0
  -10.5386   11.7838    0.0000 H   0  0  0  0  0  0  0  0  0  0  0  0
   -9.9918   16.1605    0.0000 H   0  0  0  0  0  0  0  0  0  0  0  0
   -8.7958   14.8362    0.0000 H   0  0  0  0  0  0  0  0  0  0  0  0
  -11.9091   16.7210    0.0000 H   0  0  0  0  0  0  0  0  0  0  0  0
  -12.8576   14.3023    0.0000 H   0  0  0  0  0  0  0  0  0  0  0  0
  -10.3388    9.2023    0.0000 H   0  0  0  0  0  0  0  0  0  0  0  0
  -10.6321    8.2590    0.0000 H   0  0  0  0  0  0  0  0  0  0  0  0
  -12.1764    7.9042    0.0000 H   0  0  0  0  0  0  0  0  0  0  0  0
  -12.5531    6.1600    0.0000 H   0  0  0  0  0  0  0  0  0  0  0  0
  -10.9953    5.2897    0.0000 H   0  0  0  0  0  0  0  0  0  0  0  0
  -11.7057    4.2758    0.0000 H   0  0  0  0  0  0  0  0  0  0  0  0
  -11.3776    3.3092    0.0000 H   0  0  0  0  0  0  0  0  0  0  0  0
  -10.1497    0.4464    0.0000 H   0  0  0  0  0  0  0  0  0  0  0  0
  -13.2337   -0.0210    0.0000 H   0  0  0  0  0  0  0  0  0  0  0  0
  -13.7542    1.1038    0.0000 H   0  0  0  0  0  0  0  0  0  0  0  0
  -13.7710    2.8881    0.0000 H   0  0  0  0  0  0  0  0  0  0  0  0
  -12.2461    3.4748    0.0000 H   0  0  0  0  0  0  0  0  0  0  0  0
  -10.1992   -0.7906    0.0000 H   0  0  0  0  0  0  0  0  0  0  0  0
   -6.8141   -3.7210    0.0000 H   0  0  0  0  0  0  0  0  0  0  0  0
   -7.9346   -3.1467    0.0000 H   0  0  0  0  0  0  0  0  0  0  0  0
   -5.3960   -4.4417    0.0000 H   0  0  0  0  0  0  0  0  0  0  0  0
   -6.4225   -4.0736    0.0000 H   0  0  0  0  0  0  0  0  0  0  0  0
   -3.5085   -4.8143    0.0000 H   0  0  0  0  0  0  0  0  0  0  0  0
   -4.9147   -4.5960    0.0000 H   0  0  0  0  0  0  0  0  0  0  0  0
   -2.5568   -5.0792    0.0000 H   0  0  0  0  0  0  0  0  0  0  0  0
  -10.1396   -2.8945    0.0000 H   0  0  0  0  0  0  0  0  0  0  0  0
  -10.8592   -1.4276    0.0000 H   0  0  0  0  0  0  0  0  0  0  0  0
   -9.8119   -0.1736    0.0000 H   0  0  0  0  0  0  0  0  0  0  0  0
  -10.8987   -2.2726    0.0000 H   0  0  0  0  0  0  0  0  0  0  0  0
   -8.5345   -4.7039    0.0000 H   0  0  0  0  0  0  0  0  0  0  0  0
   -9.1797   -7.4481    0.0000 H   0  0  0  0  0  0  0  0  0  0  0  0
   -8.4191   -5.6761    0.0000 H   0  0  0  0  0  0  0  0  0  0  0  0
  -12.7923   -4.9581    0.0000 H   0  0  0  0  0  0  0  0  0  0  0  0
  -15.1175   -7.0723    0.0000 H   0  0  0  0  0  0  0  0  0  0  0  0
  -14.3047  -11.1572    0.0000 H   0  0  0  0  0  0  0  0  0  0  0  0
  -11.9050  -10.8837    0.0000 H   0  0  0  0  0  0  0  0  0  0  0  0
   -9.5018   -9.0880    0.0000 H   0  0  0  0  0  0  0  0  0  0  0  0
  -10.9999   -7.7736    0.0000 H   0  0  0  0  0  0  0  0  0  0  0  0
  -13.2417   -5.4450    0.0000 H   0  0  0  0  0  0  0  0  0  0  0  0
  -14.9344   -8.3484    0.0000 H   0  0  0  0  0  0  0  0  0  0  0  0
  -16.9047   -5.2336    0.0000 H   0  0  0  0  0  0  0  0  0  0  0  0
  -15.5978   -4.0316    0.0000 H   0  0  0  0  0  0  0  0  0  0  0  0
  -14.0483   -4.9166    0.0000 H   0  0  0  0  0  0  0  0  0  0  0  0
  -17.3833   -8.1910    0.0000 H   0  0  0  0  0  0  0  0  0  0  0  0
  -15.8503   -8.7561    0.0000 H   0  0  0  0  0  0  0  0  0  0  0  0
  -18.7108   -6.6984    0.0000 H   0  0  0  0  0  0  0  0  0  0  0  0
  -17.9501   -4.9264    0.0000 H   0  0  0  0  0  0  0  0  0  0  0  0
  -16.3259   -5.1038    0.0000 H   0  0  0  0  0  0  0  0  0  0  0  0
  -16.3364   -8.1054    0.0000 H   0  0  0  0  0  0  0  0  0  0  0  0
  -13.8732  -10.3826    0.0000 H   0  0  0  0  0  0  0  0  0  0  0  0
  -14.3602  -13.0345    0.0000 H   0  0  0  0  0  0  0  0  0  0  0  0
  -13.7158  -11.5332    0.0000 H   0  0  0  0  0  0  0  0  0  0  0  0
  -17.6209  -11.8203    0.0000 H   0  0  0  0  0  0  0  0  0  0  0  0
  -17.1675  -15.3369    0.0000 H   0  0  0  0  0  0  0  0  0  0  0  0
  -15.5433  -15.5143    0.0000 H   0  0  0  0  0  0  0  0  0  0  0  0
  -14.7406  -13.9206    0.0000 H   0  0  0  0  0  0  0  0  0  0  0  0
  -19.1409  -12.3858    0.0000 H   0  0  0  0  0  0  0  0  0  0  0  0
  -18.6318  -14.3871    0.0000 H   0  0  0  0  0  0  0  0  0  0  0  0
  -17.3246  -14.5298    0.0000 H   0  0  0  0  0  0  0  0  0  0  0  0
  -16.3386  -13.4523    0.0000 H   0  0  0  0  0  0  0  0  0  0  0  0
  -18.7633  -11.1342    0.0000 H   0  0  0  0  0  0  0  0  0  0  0  0
  -21.5204  -12.9719    0.0000 H   0  0  0  0  0  0  0  0  0  0  0  0
  -20.2731  -14.0272    0.0000 H   0  0  0  0  0  0  0  0  0  0  0  0
  -22.2574  -11.1153    0.0000 H   0  0  0  0  0  0  0  0  0  0  0  0
  -18.1804  -16.5715    0.0000 H   0  0  0  0  0  0  0  0  0  0  0  0
  1  2  1  0
  2  3  1  0
  3  4  2  0
  4  5  1  0
  5  6  2  0
  6  7  1  0
  7  8  2  0
  7  9  1  0
  9 10  1  0
 10 11  1  0
 11 12  2  0
  9 13  1  0
 13 14  1  0
 14 15  2  0
 15 16  1  0
 16 17  2  0
 17 18  1  0
 16 19  1  0
 14 20  1  0
 20 21  1  0
 21 22  2  0
 22 23  1  0
 23 24  2  0
 24 25  1  0
 25 26  2  0
 25 27  1  0
  1 28  2  0
  1 29  1  0
 29 30  1  0
 30 31  1  0
 31 32  1  0
 32 33  2  0
 32 34  1  0
 34 35  1  0
 35 36  1  0
 36 37  1  0
 37 38  1  0
 38 39  1  0
 39 40  1  0
 35 41  1  0
 41 42  2  0
 41 43  1  0
 43 44  1  0
 44 45  1  0
 45 46  1  0
 44 47  1  0
 47 48  2  0
 47 49  1  0
 50 49  1  6
 50 51  1  0
 51 52  1  0
 52 53  1  0
 53 54  1  0
 54 55  1  0
 55 56  1  0
 56 57  1  0
 50 58  1  0
 50 59  1  0
 59 60  2  0
 59 61  1  0
 61 62  1  0
 62 63  1  0
 63 64  1  0
 63 65  1  0
 65 66  1  0
 62 67  1  0
 67 68  2  0
 67 69  1  0
 69 70  1  0
 70 71  1  0
 71 72  1  0
 72 73  1  0
 72 74  1  0
 70 75  1  0
 75 76  2  0
 75 77  1  0
 77 78  1  0
 78 79  1  0
 79 80  1  0
 80 81  1  0
 81 82  1  0
 82 83  1  0
 78 84  1  0
 84 85  2  0
 84 86  1  0
 86 87  1  0
 87 88  1  0
 88 89  1  0
 89 90  1  0
 90 91  1  0
 91 92  1  0
 87 93  1  0
 93 94  2  0
 93 95  1  0
 95 96  1  0
 96 97  1  0
 96 98  1  0
 98 99  2  0
 98100  1  0
100101  1  0
101102  1  0
102103  1  0
102104  1  0
101105  1  0
105106  2  0
105107  1  0
107108  1  0
108109  1  0
109110  1  0
110111  1  0
111112  1  0
108113  1  0
108114  1  1
114115  2  0
114116  1  0
116117  1  0
117118  1  0
118119  1  0
119120  2  0
120121  1  0
121122  2  0
122123  1  0
122124  1  0
124125  2  0
117126  1  0
126127  2  0
126128  1  0
128129  1  0
129130  1  0
130131  1  0
130132  1  0
132133  1  0
129134  1  0
134135  2  0
134136  1  0
136137  1  0
137138  1  0
138139  1  0
139140  1  0
139141  1  0
137142  1  0
142143  2  0
142144  1  0
144145  1  0
145146  1  0
146147  1  0
145148  1  0
148149  2  0
148150  1  0
  8  3  1  0
125119  1  0
 11  6  1  0
 57112  2  0
 18 13  2  0
 22  9  1  0
 26 21  1  0
  2151  1  0
  4152  1  0
  5153  1  0
  8154  1  0
 15155  1  0
 17156  1  0
 18157  1  0
 19158  1  0
 23159  1  0
 24160  1  0
 26161  1  0
 27162  1  0
 29163  1  0
 30164  1  0
 30165  1  0
 31166  1  0
 31167  1  0
 34168  1  0
 35169  1  1
 36170  1  0
 36171  1  0
 37172  1  0
 37173  1  0
 38174  1  0
 38175  1  0
 39176  1  0
 39177  1  0
 40178  1  0
 40179  1  0
 43180  1  0
 44181  1  1
 45182  1  0
 45183  1  0
 46184  1  0
 46185  1  0
 46186  1  0
 49187  1  0
 51188  1  0
 51189  1  0
 52190  1  0
 52191  1  0
 53192  1  0
 53193  1  0
 54194  1  0
 54195  1  0
 55196  1  0
 55197  1  0
 56198  1  0
 56199  1  0
 57200  1  0
 58201  1  0
 58202  1  0
 58203  1  0
 61204  1  0
 62205  1  6
 63206  1  1
 64207  1  0
 64208  1  0
 64209  1  0
 65210  1  0
 65211  1  0
 66212  1  0
 66213  1  0
 66214  1  0
 69215  1  0
 70216  1  6
 71217  1  0
 71218  1  0
 72219  1  0
 73220  1  0
 73221  1  0
 73222  1  0
 74223  1  0
 74224  1  0
 74225  1  0
 77226  1  0
 78227  1  6
 79228  1  0
 79229  1  0
 80230  1  0
 80231  1  0
 81232  1  0
 81233  1  0
 82234  1  0
 82235  1  0
 83236  1  0
 83237  1  0
 86238  1  0
 87239  1  6
 88240  1  0
 88241  1  0
 89242  1  0
 89243  1  0
 90244  1  0
 90245  1  0
 91246  1  0
 91247  1  0
 92248  1  0
 92249  1  0
 95250  1  0
 96251  1  6
 97252  1  0
 97253  1  0
 97254  1  0
100255  1  0
101256  1  6
102257  1  1
103258  1  0
104259  1  0
104260  1  0
104261  1  0
107262  1  0
109263  1  0
109264  1  0
110265  1  0
110266  1  0
111267  1  0
111268  1  0
112269  1  0
113270  1  0
113271  1  0
113272  1  0
116273  1  0
117274  1  1
118275  1  0
118276  1  0
120277  1  0
121278  1  0
123279  1  0
124280  1  0
125281  1  0
128282  1  0
129283  1  6
130284  1  1
131285  1  0
131286  1  0
131287  1  0
132288  1  0
132289  1  0
133290  1  0
133291  1  0
133292  1  0
136293  1  0
137294  1  1
138295  1  0
138296  1  0
139297  1  0
140298  1  0
140299  1  0
140300  1  0
141301  1  0
141302  1  0
141303  1  0
144304  1  0
145305  1  6
146306  1  0
146307  1  0
147308  1  0
150309  1  0
M  END
