
     RDKit          2D

273279  0  0  0  0  0  0  0  0999 V2000
   22.8611    4.3826    0.0000 N   0  0  0  0  0  0  0  0  0  0  0  0
   21.3665    4.2558    0.0000 C   0  0  0  0  0  0  0  0  0  0  0  0
   20.5093    5.4868    0.0000 C   0  0  0  0  0  0  0  0  0  0  0  0
   19.0147    5.3600    0.0000 C   0  0  0  0  0  0  0  0  0  0  0  0
   18.3772    4.0022    0.0000 O   0  0  0  0  0  0  0  0  0  0  0  0
   18.1576    6.5910    0.0000 N   0  0  0  0  0  0  0  0  0  0  0  0
   16.6630    6.4642    0.0000 C   0  0  0  0  0  0  0  0  0  0  0  0
   16.7976    7.9581    0.0000 C   0  0  0  0  0  0  0  0  0  0  0  0
   15.3018    5.8338    0.0000 C   0  0  0  0  0  0  0  0  0  0  0  0
   14.1898    6.8405    0.0000 O   0  0  0  0  0  0  0  0  0  0  0  0
   15.1672    4.3399    0.0000 N   0  0  0  0  0  0  0  0  0  0  0  0
   13.8060    3.7095    0.0000 C   0  0  0  0  0  0  0  0  0  0  0  0
   12.4328    4.3130    0.0000 C   0  0  0  0  0  0  0  0  0  0  0  0
   10.9426    4.4849    0.0000 C   0  0  0  0  0  0  0  0  0  0  0  0
    9.4681    4.2099    0.0000 C   0  0  0  0  0  0  0  0  0  0  0  0
    8.1401    3.5125    0.0000 C   0  0  0  0  0  0  0  0  0  0  0  0
   13.9742    5.2001    0.0000 C   0  0  0  0  0  0  0  0  0  0  0  0
   14.9404    2.7281    0.0000 C   0  0  0  0  0  0  0  0  0  0  0  0
   16.1903    3.5574    0.0000 O   0  0  0  0  0  0  0  0  0  0  0  0
   15.7351    1.4559    0.0000 N   0  0  0  0  0  0  0  0  0  0  0  0
   16.1195    0.0060    0.0000 C   0  0  0  0  0  0  0  0  0  0  0  0
   17.2830    0.9528    0.0000 C   0  0  0  0  0  0  0  0  0  0  0  0
   18.6846    0.4185    0.0000 O   0  0  0  0  0  0  0  0  0  0  0  0
   16.0595   -1.4928    0.0000 C   0  0  0  0  0  0  0  0  0  0  0  0
   17.5326   -1.7755    0.0000 O   0  0  0  0  0  0  0  0  0  0  0  0
   15.5603   -2.9073    0.0000 N   0  0  0  0  0  0  0  0  0  0  0  0
   14.6664   -4.1118    0.0000 C   0  0  0  0  0  0  0  0  0  0  0  0
   16.1320   -4.4312    0.0000 C   0  0  0  0  0  0  0  0  0  0  0  0
   16.5882   -5.8602    0.0000 O   0  0  0  0  0  0  0  0  0  0  0  0
   13.4572   -4.9994    0.0000 C   0  0  0  0  0  0  0  0  0  0  0  0
   14.1546   -6.3274    0.0000 O   0  0  0  0  0  0  0  0  0  0  0  0
   12.0401   -5.4911    0.0000 N   0  0  0  0  0  0  0  0  0  0  0  0
   10.5410   -5.5432    0.0000 C   0  0  0  0  0  0  0  0  0  0  0  0
   11.2051   -6.8882    0.0000 C   0  0  0  0  0  0  0  0  0  0  0  0
   10.3723   -8.1358    0.0000 C   0  0  0  0  0  0  0  0  0  0  0  0
    8.8755   -8.0384    0.0000 C   0  0  0  0  0  0  0  0  0  0  0  0
    8.0427   -9.2860    0.0000 C   0  0  0  0  0  0  0  0  0  0  0  0
    8.7068  -10.6310    0.0000 C   0  0  0  0  0  0  0  0  0  0  0  0
   10.2036  -10.7284    0.0000 C   0  0  0  0  0  0  0  0  0  0  0  0
   11.0364   -9.4808    0.0000 C   0  0  0  0  0  0  0  0  0  0  0  0
    9.0931   -5.1512    0.0000 C   0  0  0  0  0  0  0  0  0  0  0  0
    8.3268   -6.4406    0.0000 O   0  0  0  0  0  0  0  0  0  0  0  0
    7.8251   -4.3498    0.0000 N   0  0  0  0  0  0  0  0  0  0  0  0
    6.8497   -3.2102    0.0000 C   0  0  0  0  0  0  0  0  0  0  0  0
    6.2535   -1.8338    0.0000 C   0  0  0  0  0  0  0  0  0  0  0  0
    6.0895   -0.3428    0.0000 C   0  0  0  0  0  0  0  0  0  0  0  0
    6.3722    1.1303    0.0000 C   0  0  0  0  0  0  0  0  0  0  0  0
    7.0766    2.4546    0.0000 C   0  0  0  0  0  0  0  0  0  0  0  0
    5.3583   -3.3706    0.0000 C   0  0  0  0  0  0  0  0  0  0  0  0
    6.2122   -4.5680    0.0000 C   0  0  0  0  0  0  0  0  0  0  0  0
    6.9129   -5.8943    0.0000 O   0  0  0  0  0  0  0  0  0  0  0  0
    4.7176   -4.6948    0.0000 N   0  0  0  0  0  0  0  0  0  0  0  0
    4.0801   -6.0526    0.0000 C   0  0  0  0  0  0  0  0  0  0  0  0
    3.9454   -7.5465    0.0000 C   0  0  0  0  0  0  0  0  0  0  0  0
    5.1718   -8.4101    0.0000 C   0  0  0  0  0  0  0  0  0  0  0  0
    5.0372   -9.9041    0.0000 O   0  0  0  0  0  0  0  0  0  0  0  0
    6.5330   -7.7798    0.0000 O   0  0  0  0  0  0  0  0  0  0  0  0
    2.5854   -6.1794    0.0000 C   0  0  0  0  0  0  0  0  0  0  0  0
    1.9479   -7.5372    0.0000 O   0  0  0  0  0  0  0  0  0  0  0  0
    1.7283   -4.9484    0.0000 N   0  0  0  0  0  0  0  0  0  0  0  0
    0.2337   -5.0752    0.0000 C   0  0  0  0  0  0  0  0  0  0  0  0
   -1.1275   -5.7056    0.0000 C   0  0  0  0  0  0  0  0  0  0  0  0
   -1.2621   -7.1995    0.0000 C   0  0  0  0  0  0  0  0  0  0  0  0
   -2.6233   -7.8298    0.0000 C   0  0  0  0  0  0  0  0  0  0  0  0
   -2.7579   -9.3238    0.0000 C   0  0  0  0  0  0  0  0  0  0  0  0
   -1.5315  -10.1874    0.0000 C   0  0  0  0  0  0  0  0  0  0  0  0
   -0.1703   -9.5570    0.0000 C   0  0  0  0  0  0  0  0  0  0  0  0
   -0.0357   -8.0631    0.0000 C   0  0  0  0  0  0  0  0  0  0  0  0
   -0.6235   -3.8442    0.0000 C   0  0  0  0  0  0  0  0  0  0  0  0
   -2.1181   -3.9710    0.0000 O   0  0  0  0  0  0  0  0  0  0  0  0
    0.0140   -2.4864    0.0000 N   0  0  0  0  0  0  0  0  0  0  0  0
   -0.8431   -1.2554    0.0000 C   0  0  0  0  0  0  0  0  0  0  0  0
   -2.0695   -0.3918    0.0000 C   0  0  0  0  0  0  0  0  0  0  0  0
   -3.4307   -1.0222    0.0000 C   0  0  0  0  0  0  0  0  0  0  0  0
   -3.5653   -2.5161    0.0000 C   0  0  0  0  0  0  0  0  0  0  0  0
   -4.9265   -3.1465    0.0000 C   0  0  0  0  0  0  0  0  0  0  0  0
   -6.1529   -2.2829    0.0000 C   0  0  0  0  0  0  0  0  0  0  0  0
   -6.0182   -0.7889    0.0000 C   0  0  0  0  0  0  0  0  0  0  0  0
   -4.6571   -0.1586    0.0000 C   0  0  0  0  0  0  0  0  0  0  0  0
   -0.2056    0.1023    0.0000 C   0  0  0  0  0  0  0  0  0  0  0  0
    1.2891    0.2291    0.0000 O   0  0  0  0  0  0  0  0  0  0  0  0
   -1.0627    1.3333    0.0000 N   0  0  0  0  0  0  0  0  0  0  0  0
   -0.4252    2.6911    0.0000 C   0  0  0  0  0  0  0  0  0  0  0  0
    0.6383    3.7490    0.0000 C   0  0  0  0  0  0  0  0  0  0  0  0
    0.2538    5.1989    0.0000 C   0  0  0  0  0  0  0  0  0  0  0  0
    1.2009    6.3621    0.0000 C   0  0  0  0  0  0  0  0  0  0  0  0
    0.3873    7.6223    0.0000 N   0  0  0  0  0  0  0  0  0  0  0  0
   -1.0627    7.2379    0.0000 C   0  0  0  0  0  0  0  0  0  0  0  0
   -1.1451    5.7401    0.0000 N   0  0  0  0  0  0  0  0  0  0  0  0
   -1.2823    3.9221    0.0000 C   0  0  0  0  0  0  0  0  0  0  0  0
   -1.1111    4.7911    0.0000 O   0  0  0  0  0  0  0  0  0  0  0  0
   -2.7769    3.7953    0.0000 N   0  0  0  0  0  0  0  0  0  0  0  0
   -3.6341    5.0263    0.0000 C   0  0  0  0  0  0  0  0  0  0  0  0
   -4.0185    6.4762    0.0000 C   0  0  0  0  0  0  0  0  0  0  0  0
   -3.8838    7.9702    0.0000 O   0  0  0  0  0  0  0  0  0  0  0  0
   -5.4078    7.0418    0.0000 C   0  0  0  0  0  0  0  0  0  0  0  0
   -5.1287    4.8995    0.0000 C   0  0  0  0  0  0  0  0  0  0  0  0
   -5.7662    3.5417    0.0000 O   0  0  0  0  0  0  0  0  0  0  0  0
   -5.9858    6.1305    0.0000 N   0  0  0  0  0  0  0  0  0  0  0  0
   -7.4805    6.0037    0.0000 C   0  0  0  0  0  0  0  0  0  0  0  0
   -8.8416    5.3734    0.0000 C   0  0  0  0  0  0  0  0  0  0  0  0
  -10.2406    5.9145    0.0000 C   0  0  0  0  0  0  0  0  0  0  0  0
   -8.3376    7.2347    0.0000 C   0  0  0  0  0  0  0  0  0  0  0  0
   -7.7001    8.5925    0.0000 O   0  0  0  0  0  0  0  0  0  0  0  0
   -9.8322    7.1079    0.0000 N   0  0  0  0  0  0  0  0  0  0  0  0
  -10.8133    8.2425    0.0000 C   0  0  0  0  0  0  0  0  0  0  0  0
  -12.1956    7.6601    0.0000 C   0  0  0  0  0  0  0  0  0  0  0  0
  -12.0688    6.1655    0.0000 C   0  0  0  0  0  0  0  0  0  0  0  0
  -10.6082    5.8242    0.0000 C   0  0  0  0  0  0  0  0  0  0  0  0
  -11.1002    4.4072    0.0000 C   0  0  0  0  0  0  0  0  0  0  0  0
   -9.9881    3.4006    0.0000 O   0  0  0  0  0  0  0  0  0  0  0  0
  -12.5734    4.1249    0.0000 N   0  0  0  0  0  0  0  0  0  0  0  0
  -13.0655    2.7079    0.0000 C   0  0  0  0  0  0  0  0  0  0  0  0
  -13.0433    1.2080    0.0000 C   0  0  0  0  0  0  0  0  0  0  0  0
  -11.7333    0.4774    0.0000 C   0  0  0  0  0  0  0  0  0  0  0  0
  -10.4455    1.2465    0.0000 C   0  0  0  0  0  0  0  0  0  0  0  0
   -9.1355    0.5159    0.0000 C   0  0  0  0  0  0  0  0  0  0  0  0
   -9.1133   -0.9840    0.0000 C   0  0  0  0  0  0  0  0  0  0  0  0
   -7.8033   -1.7146    0.0000 O   0  0  0  0  0  0  0  0  0  0  0  0
  -10.4010   -1.7531    0.0000 C   0  0  0  0  0  0  0  0  0  0  0  0
  -11.7111   -1.0225    0.0000 C   0  0  0  0  0  0  0  0  0  0  0  0
  -14.5387    2.4255    0.0000 C   0  0  0  0  0  0  0  0  0  0  0  0
  -15.5198    3.5602    0.0000 O   0  0  0  0  0  0  0  0  0  0  0  0
  -15.0308    1.0086    0.0000 N   0  0  0  0  0  0  0  0  0  0  0  0
  -16.5040    0.7262    0.0000 C   0  0  0  0  0  0  0  0  0  0  0  0
  -17.9849    0.9648    0.0000 C   0  0  0  0  0  0  0  0  0  0  0  0
  -18.9319   -0.1985    0.0000 C   0  0  0  0  0  0  0  0  0  0  0  0
  -20.4129    0.0401    0.0000 C   0  0  0  0  0  0  0  0  0  0  0  0
  -21.4946   -0.9990    0.0000 C   0  0  0  0  0  0  0  0  0  0  0  0
  -16.9961   -0.6908    0.0000 C   0  0  0  0  0  0  0  0  0  0  0  0
  -16.0150   -1.8254    0.0000 O   0  0  0  0  0  0  0  0  0  0  0  0
  -18.4693   -0.9731    0.0000 N   0  0  0  0  0  0  0  0  0  0  0  0
  -18.9613   -2.3901    0.0000 C   0  0  0  0  0  0  0  0  0  0  0  0
  -18.9391   -3.8899    0.0000 C   0  0  0  0  0  0  0  0  0  0  0  0
  -17.6291   -4.6206    0.0000 C   0  0  0  0  0  0  0  0  0  0  0  0
  -17.6069   -6.1204    0.0000 C   0  0  0  0  0  0  0  0  0  0  0  0
  -16.1482   -4.8591    0.0000 C   0  0  0  0  0  0  0  0  0  0  0  0
  -20.4345   -2.6724    0.0000 C   0  0  0  0  0  0  0  0  0  0  0  0
  -21.0957   -4.0189    0.0000 O   0  0  0  0  0  0  0  0  0  0  0  0
  -21.5466   -1.6658    0.0000 O   0  0  0  0  0  0  0  0  0  0  0  0
   23.7182    3.1516    0.0000 H   0  0  0  0  0  0  0  0  0  0  0  0
   23.4986    5.7404    0.0000 H   0  0  0  0  0  0  0  0  0  0  0  0
   21.7509    2.8059    0.0000 H   0  0  0  0  0  0  0  0  0  0  0  0
   20.0053    3.6254    0.0000 H   0  0  0  0  0  0  0  0  0  0  0  0
   21.8705    6.1171    0.0000 H   0  0  0  0  0  0  0  0  0  0  0  0
   20.1249    6.9367    0.0000 H   0  0  0  0  0  0  0  0  0  0  0  0
   18.9558    7.8609    0.0000 H   0  0  0  0  0  0  0  0  0  0  0  0
   17.0474    5.0143    0.0000 H   0  0  0  0  0  0  0  0  0  0  0  0
   18.0718    8.7497    0.0000 H   0  0  0  0  0  0  0  0  0  0  0  0
   16.4132    9.4080    0.0000 H   0  0  0  0  0  0  0  0  0  0  0  0
   15.3030    7.8313    0.0000 H   0  0  0  0  0  0  0  0  0  0  0  0
   16.4897    3.6322    0.0000 H   0  0  0  0  0  0  0  0  0  0  0  0
   11.9766    5.7419    0.0000 H   0  0  0  0  0  0  0  0  0  0  0  0
   13.4170    5.4450    0.0000 H   0  0  0  0  0  0  0  0  0  0  0  0
   10.2420    5.8112    0.0000 H   0  0  0  0  0  0  0  0  0  0  0  0
   11.5495    5.8566    0.0000 H   0  0  0  0  0  0  0  0  0  0  0  0
    8.2862    5.1336    0.0000 H   0  0  0  0  0  0  0  0  0  0  0  0
    9.6436    5.6996    0.0000 H   0  0  0  0  0  0  0  0  0  0  0  0
    7.2525    4.7217    0.0000 H   0  0  0  0  0  0  0  0  0  0  0  0
   14.8631    6.2175    0.0000 H   0  0  0  0  0  0  0  0  0  0  0  0
   13.0974    6.5168    0.0000 H   0  0  0  0  0  0  0  0  0  0  0  0
   12.3316    5.5463    0.0000 H   0  0  0  0  0  0  0  0  0  0  0  0
   17.1115    2.0522    0.0000 H   0  0  0  0  0  0  0  0  0  0  0  0
   17.4610   -0.6651    0.0000 H   0  0  0  0  0  0  0  0  0  0  0  0
   18.0525    2.2403    0.0000 H   0  0  0  0  0  0  0  0  0  0  0  0
   16.4198    2.1795    0.0000 H   0  0  0  0  0  0  0  0  0  0  0  0
   19.8481    1.3652    0.0000 H   0  0  0  0  0  0  0  0  0  0  0  0
   16.8847   -3.6117    0.0000 H   0  0  0  0  0  0  0  0  0  0  0  0
   14.9781   -5.5791    0.0000 H   0  0  0  0  0  0  0  0  0  0  0  0
   17.6185   -4.2301    0.0000 H   0  0  0  0  0  0  0  0  0  0  0  0
   16.5530   -2.9915    0.0000 H   0  0  0  0  0  0  0  0  0  0  0  0
   18.0538   -6.1795    0.0000 H   0  0  0  0  0  0  0  0  0  0  0  0
   12.3150   -6.9656    0.0000 H   0  0  0  0  0  0  0  0  0  0  0  0
    9.5881   -6.7017    0.0000 H   0  0  0  0  0  0  0  0  0  0  0  0
   12.2891   -7.9249    0.0000 H   0  0  0  0  0  0  0  0  0  0  0  0
   12.5931   -6.3196    0.0000 H   0  0  0  0  0  0  0  0  0  0  0  0
    8.0524   -6.7844    0.0000 H   0  0  0  0  0  0  0  0  0  0  0  0
    6.5459   -9.1886    0.0000 H   0  0  0  0  0  0  0  0  0  0  0  0
    7.8740  -11.8786    0.0000 H   0  0  0  0  0  0  0  0  0  0  0  0
   10.8677  -12.0734    0.0000 H   0  0  0  0  0  0  0  0  0  0  0  0
   12.5332   -9.5782    0.0000 H   0  0  0  0  0  0  0  0  0  0  0  0
    6.9893   -5.5953    0.0000 H   0  0  0  0  0  0  0  0  0  0  0  0
    5.1164   -2.8121    0.0000 H   0  0  0  0  0  0  0  0  0  0  0  0
    4.8270   -1.3701    0.0000 H   0  0  0  0  0  0  0  0  0  0  0  0
    4.7145   -0.9424    0.0000 H   0  0  0  0  0  0  0  0  0  0  0  0
    4.7669    0.3648    0.0000 H   0  0  0  0  0  0  0  0  0  0  0  0
    4.8816    0.9626    0.0000 H   0  0  0  0  0  0  0  0  0  0  0  0
    5.4548    2.3170    0.0000 H   0  0  0  0  0  0  0  0  0  0  0  0
    5.8721    3.3485    0.0000 H   0  0  0  0  0  0  0  0  0  0  0  0
    4.3362   -4.2541    0.0000 H   0  0  0  0  0  0  0  0  0  0  0  0
    4.0462   -2.4868    0.0000 H   0  0  0  0  0  0  0  0  0  0  0  0
    5.0208   -1.7262    0.0000 H   0  0  0  0  0  0  0  0  0  0  0  0
    3.7168   -3.5775    0.0000 H   0  0  0  0  0  0  0  0  0  0  0  0
    5.5279   -6.4446    0.0000 H   0  0  0  0  0  0  0  0  0  0  0  0
    3.3079   -8.9043    0.0000 H   0  0  0  0  0  0  0  0  0  0  0  0
    2.4605   -7.3339    0.0000 H   0  0  0  0  0  0  0  0  0  0  0  0
    2.3658   -3.5906    0.0000 H   0  0  0  0  0  0  0  0  0  0  0  0
    0.6181   -6.5251    0.0000 H   0  0  0  0  0  0  0  0  0  0  0  0
   -2.6221   -5.8324    0.0000 H   0  0  0  0  0  0  0  0  0  0  0  0
   -1.6857   -4.3133    0.0000 H   0  0  0  0  0  0  0  0  0  0  0  0
   -3.8497   -6.9662    0.0000 H   0  0  0  0  0  0  0  0  0  0  0  0
   -4.1191   -9.9541    0.0000 H   0  0  0  0  0  0  0  0  0  0  0  0
   -1.6661  -11.6813    0.0000 H   0  0  0  0  0  0  0  0  0  0  0  0
    1.0561  -10.4206    0.0000 H   0  0  0  0  0  0  0  0  0  0  0  0
    1.3921   -7.6034    0.0000 H   0  0  0  0  0  0  0  0  0  0  0  0
    1.5087   -2.3596    0.0000 H   0  0  0  0  0  0  0  0  0  0  0  0
   -1.9065   -2.3133    0.0000 H   0  0  0  0  0  0  0  0  0  0  0  0
   -3.0703    0.7255    0.0000 H   0  0  0  0  0  0  0  0  0  0  0  0
   -1.2937    0.8919    0.0000 H   0  0  0  0  0  0  0  0  0  0  0  0
   -2.4533   -3.5228    0.0000 H   0  0  0  0  0  0  0  0  0  0  0  0
   -5.0611   -4.6404    0.0000 H   0  0  0  0  0  0  0  0  0  0  0  0
   -7.4271   -3.0744    0.0000 H   0  0  0  0  0  0  0  0  0  0  0  0
   -7.2447    0.0747    0.0000 H   0  0  0  0  0  0  0  0  0  0  0  0
   -4.5225    1.3354    0.0000 H   0  0  0  0  0  0  0  0  0  0  0  0
   -2.5616    1.3897    0.0000 H   0  0  0  0  0  0  0  0  0  0  0  0
    0.8013    1.8275    0.0000 H   0  0  0  0  0  0  0  0  0  0  0  0
    1.9994    4.3793    0.0000 H   0  0  0  0  0  0  0  0  0  0  0  0
    1.4954    2.5180    0.0000 H   0  0  0  0  0  0  0  0  0  0  0  0
    2.6986    6.2797    0.0000 H   0  0  0  0  0  0  0  0  0  0  0  0
    0.9285    9.0212    0.0000 H   0  0  0  0  0  0  0  0  0  0  0  0
   -2.1018    8.3196    0.0000 H   0  0  0  0  0  0  0  0  0  0  0  0
   -3.4145    2.4375    0.0000 H   0  0  0  0  0  0  0  0  0  0  0  0
   -2.2729    5.6567    0.0000 H   0  0  0  0  0  0  0  0  0  0  0  0
   -2.5239    6.6030    0.0000 H   0  0  0  0  0  0  0  0  0  0  0  0
   -2.6097    8.7617    0.0000 H   0  0  0  0  0  0  0  0  0  0  0  0
   -5.8508    8.3182    0.0000 H   0  0  0  0  0  0  0  0  0  0  0  0
   -6.9610    6.7415    0.0000 H   0  0  0  0  0  0  0  0  0  0  0  0
   -6.2867    5.6125    0.0000 H   0  0  0  0  0  0  0  0  0  0  0  0
   -5.5186    7.5559    0.0000 H   0  0  0  0  0  0  0  0  0  0  0  0
   -7.0960    4.5538    0.0000 H   0  0  0  0  0  0  0  0  0  0  0  0
   -9.9050    4.3155    0.0000 H   0  0  0  0  0  0  0  0  0  0  0  0
   -7.9845    4.1424    0.0000 H   0  0  0  0  0  0  0  0  0  0  0  0
  -11.4292    5.6066    0.0000 H   0  0  0  0  0  0  0  0  0  0  0  0
  -11.2807    7.2561    0.0000 H   0  0  0  0  0  0  0  0  0  0  0  0
   -9.7975    7.7136    0.0000 H   0  0  0  0  0  0  0  0  0  0  0  0
   -9.5823    9.0997    0.0000 H   0  0  0  0  0  0  0  0  0  0  0  0
  -11.5371    9.5564    0.0000 H   0  0  0  0  0  0  0  0  0  0  0  0
  -12.6304    9.0957    0.0000 H   0  0  0  0  0  0  0  0  0  0  0  0
  -13.6688    7.3778    0.0000 H   0  0  0  0  0  0  0  0  0  0  0  0
  -13.5685    6.1956    0.0000 H   0  0  0  0  0  0  0  0  0  0  0  0
  -12.6101    4.7665    0.0000 H   0  0  0  0  0  0  0  0  0  0  0  0
   -9.4450    4.8771    0.0000 H   0  0  0  0  0  0  0  0  0  0  0  0
  -13.5545    5.2595    0.0000 H   0  0  0  0  0  0  0  0  0  0  0  0
  -11.5846    2.4693    0.0000 H   0  0  0  0  0  0  0  0  0  0  0  0
  -13.3590   -0.2584    0.0000 H   0  0  0  0  0  0  0  0  0  0  0  0
  -14.5379    1.0812    0.0000 H   0  0  0  0  0  0  0  0  0  0  0  0
  -10.2847    2.7379    0.0000 H   0  0  0  0  0  0  0  0  0  0  0  0
   -7.8477    1.2850    0.0000 H   0  0  0  0  0  0  0  0  0  0  0  0
   -7.9640   -3.2060    0.0000 H   0  0  0  0  0  0  0  0  0  0  0  0
  -10.3788   -3.2530    0.0000 H   0  0  0  0  0  0  0  0  0  0  0  0
  -12.9988   -1.7916    0.0000 H   0  0  0  0  0  0  0  0  0  0  0  0
  -14.1953   -0.2372    0.0000 H   0  0  0  0  0  0  0  0  0  0  0  0
  -16.5262    2.2261    0.0000 H   0  0  0  0  0  0  0  0  0  0  0  0
  -19.1961    1.8497    0.0000 H   0  0  0  0  0  0  0  0  0  0  0  0
  -17.4928    2.3818    0.0000 H   0  0  0  0  0  0  0  0  0  0  0  0
  -19.2476   -1.6649    0.0000 H   0  0  0  0  0  0  0  0  0  0  0  0
  -18.1184   -1.4587    0.0000 H   0  0  0  0  0  0  0  0  0  0  0  0
  -21.7229    0.7708    0.0000 H   0  0  0  0  0  0  0  0  0  0  0  0
  -20.0972    1.5065    0.0000 H   0  0  0  0  0  0  0  0  0  0  0  0
  -22.8408   -0.8846    0.0000 H   0  0  0  0  0  0  0  0  0  0  0  0
  -21.8520   -2.5401    0.0000 H   0  0  0  0  0  0  0  0  0  0  0  0
  -20.1649   -2.0235    0.0000 H   0  0  0  0  0  0  0  0  0  0  0  0
  -19.6958   -0.1096    0.0000 H   0  0  0  0  0  0  0  0  0  0  0  0
  -17.4624   -2.4463    0.0000 H   0  0  0  0  0  0  0  0  0  0  0  0
  -19.6003   -5.2364    0.0000 H   0  0  0  0  0  0  0  0  0  0  0  0
  -20.4381   -3.8337    0.0000 H   0  0  0  0  0  0  0  0  0  0  0  0
  -16.9680   -3.2742    0.0000 H   0  0  0  0  0  0  0  0  0  0  0  0
  -16.3957   -7.0053    0.0000 H   0  0  0  0  0  0  0  0  0  0  0  0
  -18.0990   -7.5374    0.0000 H   0  0  0  0  0  0  0  0  0  0  0  0
  -19.1058   -6.0642    0.0000 H   0  0  0  0  0  0  0  0  0  0  0  0
  -15.4474   -6.1854    0.0000 H   0  0  0  0  0  0  0  0  0  0  0  0
  -14.6750   -4.5768    0.0000 H   0  0  0  0  0  0  0  0  0  0  0  0
  -16.1704   -3.3593    0.0000 H   0  0  0  0  0  0  0  0  0  0  0  0
  1  2  1  0
  2  3  1  0
  3  4  1  0
  4  5  2  0
  4  6  1  0
  6  7  1  0
  7  8  1  0
  7  9  1  0
  9 10  2  0
  9 11  1  0
 12 11  1  6
 12 13  1  0
 13 14  1  0
 14 15  1  0
 15 16  1  0
 12 17  1  0
 12 18  1  0
 18 19  2  0
 18 20  1  0
 20 21  1  0
 21 22  1  0
 22 23  1  0
 21 24  1  0
 24 25  2  0
 24 26  1  0
 26 27  1  0
 27 28  1  0
 28 29  1  0
 27 30  1  0
 30 31  2  0
 30 32  1  0
 32 33  1  0
 33 34  1  0
 34 35  1  0
 35 36  2  0
 36 37  1  0
 37 38  2  0
 38 39  1  0
 39 40  2  0
 33 41  1  0
 41 42  2  0
 41 43  1  0
 43 44  1  0
 44 45  1  0
 45 46  1  0
 46 47  1  0
 47 48  1  0
 44 49  1  0
 44 50  1  6
 50 51  2  0
 50 52  1  0
 52 53  1  0
 53 54  1  0
 54 55  1  0
 55 56  2  0
 55 57  1  0
 53 58  1  0
 58 59  2  0
 58 60  1  0
 60 61  1  0
 61 62  1  0
 62 63  1  0
 63 64  2  0
 64 65  1  0
 65 66  2  0
 66 67  1  0
 67 68  2  0
 61 69  1  0
 69 70  2  0
 69 71  1  0
 71 72  1  0
 72 73  1  0
 73 74  1  0
 74 75  2  0
 75 76  1  0
 76 77  2  0
 77 78  1  0
 78 79  2  0
 72 80  1  0
 80 81  2  0
 80 82  1  0
 82 83  1  0
 83 84  1  0
 84 85  1  0
 85 86  2  0
 86 87  1  0
 87 88  1  0
 88 89  2  0
 83 90  1  0
 90 91  2  0
 90 92  1  0
 92 93  1  0
 93 94  1  0
 94 95  1  0
 94 96  1  0
 93 97  1  0
 97 98  2  0
 97 99  1  0
 99100  1  0
100101  1  0
101102  1  0
100103  1  0
103104  2  0
103105  1  0
105106  1  0
106107  1  0
107108  1  0
108109  1  0
109110  1  0
110111  2  0
110112  1  0
112113  1  0
113114  1  0
114115  1  0
115116  2  0
116117  1  0
117118  2  0
118119  1  0
118120  1  0
120121  2  0
113122  1  0
122123  2  0
122124  1  0
124125  1  0
125126  1  0
126127  1  0
127128  1  0
128129  1  0
125130  1  0
130131  2  0
130132  1  0
132133  1  0
133134  1  0
134135  1  0
135136  1  0
135137  1  0
133138  1  0
138139  2  0
138140  1  0
 40 35  1  0
 68 63  1  0
 79 74  1  0
 89 85  1  0
109105  1  0
121115  1  0
 16 48  2  0
  1141  1  0
  1142  1  0
  2143  1  0
  2144  1  0
  3145  1  0
  3146  1  0
  6147  1  0
  7148  1  6
  8149  1  0
  8150  1  0
  8151  1  0
 11152  1  0
 13153  1  0
 13154  1  0
 14155  1  0
 14156  1  0
 15157  1  0
 15158  1  0
 16159  1  0
 17160  1  0
 17161  1  0
 17162  1  0
 20163  1  0
 21164  1  1
 22165  1  0
 22166  1  0
 23167  1  0
 26168  1  0
 27169  1  1
 28170  1  0
 28171  1  0
 29172  1  0
 32173  1  0
 33174  1  1
 34175  1  0
 34176  1  0
 36177  1  0
 37178  1  0
 38179  1  0
 39180  1  0
 40181  1  0
 43182  1  0
 45183  1  0
 45184  1  0
 46185  1  0
 46186  1  0
 47187  1  0
 47188  1  0
 48189  1  0
 49190  1  0
 49191  1  0
 49192  1  0
 52193  1  0
 53194  1  1
 54195  1  0
 54196  1  0
 60197  1  0
 61198  1  1
 62199  1  0
 62200  1  0
 64201  1  0
 65202  1  0
 66203  1  0
 67204  1  0
 68205  1  0
 71206  1  0
 72207  1  1
 73208  1  0
 73209  1  0
 75210  1  0
 76211  1  0
 77212  1  0
 78213  1  0
 79214  1  0
 82215  1  0
 83216  1  6
 84217  1  0
 84218  1  0
 86219  1  0
 87220  1  0
 88221  1  0
 92222  1  0
 93223  1  6
 94224  1  6
 95225  1  0
 96226  1  0
 96227  1  0
 96228  1  0
 99229  1  0
100230  1  1
101231  1  0
101232  1  0
102233  1  0
102234  1  0
102235  1  0
106236  1  0
106237  1  0
107238  1  0
107239  1  0
108240  1  0
108241  1  0
109242  1  0
112243  1  0
113244  1  1
114245  1  0
114246  1  0
116247  1  0
117248  1  0
119249  1  0
120250  1  0
121251  1  0
124252  1  0
125253  1  1
126254  1  0
126255  1  0
127256  1  0
127257  1  0
128258  1  0
128259  1  0
129260  1  0
129261  1  0
129262  1  0
132263  1  0
133264  1  1
134265  1  0
134266  1  0
135267  1  0
136268  1  0
136269  1  0
136270  1  0
137271  1  0
137272  1  0
137273  1  0
M  CHG  2  57  -1 140  -1
M  END
