
     RDKit          2D

329335  0  0  0  0  0  0  0  0999 V2000
  -26.1137    0.7865    0.0000 C   0  0  0  0  0  0  0  0  0  0  0  0
  -27.4050    0.0233    0.0000 N   0  0  0  0  0  0  0  0  0  0  0  0
  -28.7116    0.7601    0.0000 C   0  0  0  0  0  0  0  0  0  0  0  0
  -28.7269    2.2600    0.0000 C   0  0  0  0  0  0  0  0  0  0  0  0
  -30.0335    2.9967    0.0000 C   0  0  0  0  0  0  0  0  0  0  0  0
  -31.3248    2.2335    0.0000 C   0  0  0  0  0  0  0  0  0  0  0  0
  -31.3095    0.7336    0.0000 C   0  0  0  0  0  0  0  0  0  0  0  0
  -30.0029   -0.0031    0.0000 C   0  0  0  0  0  0  0  0  0  0  0  0
  -32.7313    0.2556    0.0000 C   0  0  0  0  0  0  0  0  0  0  0  0
  -33.6253    1.4601    0.0000 O   0  0  0  0  0  0  0  0  0  0  0  0
  -32.7560    2.6825    0.0000 C   0  0  0  0  0  0  0  0  0  0  0  0
  -33.2341    4.1043    0.0000 O   0  0  0  0  0  0  0  0  0  0  0  0
  -34.1953   -0.0712    0.0000 C   0  0  0  0  0  0  0  0  0  0  0  0
  -34.6443   -1.5024    0.0000 C   0  0  0  0  0  0  0  0  0  0  0  0
  -36.1083   -1.8292    0.0000 C   0  0  0  0  0  0  0  0  0  0  0  0
  -37.1233   -0.7247    0.0000 C   0  0  0  0  0  0  0  0  0  0  0  0
  -36.6743    0.7065    0.0000 C   0  0  0  0  0  0  0  0  0  0  0  0
  -35.2103    1.0333    0.0000 C   0  0  0  0  0  0  0  0  0  0  0  0
  -38.5872   -1.0515    0.0000 O   0  0  0  0  0  0  0  0  0  0  0  0
  -33.6293   -2.6069    0.0000 O   0  0  0  0  0  0  0  0  0  0  0  0
  -32.1653   -2.2801    0.0000 C   0  0  0  0  0  0  0  0  0  0  0  0
  -31.7163   -0.8488    0.0000 C   0  0  0  0  0  0  0  0  0  0  0  0
  -30.4619   -1.1900    0.0000 C   0  0  0  0  0  0  0  0  0  0  0  0
  -29.9206   -1.7790    0.0000 C   0  0  0  0  0  0  0  0  0  0  0  0
  -30.1600   -2.5423    0.0000 C   0  0  0  0  0  0  0  0  0  0  0  0
  -30.9408   -2.7166    0.0000 C   0  0  0  0  0  0  0  0  0  0  0  0
  -28.6714   -4.1622    0.0000 O   0  0  0  0  0  0  0  0  0  0  0  0
  -26.1289    2.2864    0.0000 S   0  0  0  0  0  0  0  0  0  0  0  0
  -24.8071    0.0498    0.0000 N   0  0  0  0  0  0  0  0  0  0  0  0
  -23.5157    0.8129    0.0000 C   0  0  0  0  0  0  0  0  0  0  0  0
  -22.2091    0.0762    0.0000 C   0  0  0  0  0  0  0  0  0  0  0  0
  -20.9178    0.8394    0.0000 C   0  0  0  0  0  0  0  0  0  0  0  0
  -20.9330    2.3393    0.0000 O   0  0  0  0  0  0  0  0  0  0  0  0
  -19.6112    0.1026    0.0000 N   0  0  0  0  0  0  0  0  0  0  0  0
  -18.3198    0.8658    0.0000 C   0  0  0  0  0  0  0  0  0  0  0  0
  -17.3674    2.0246    0.0000 C   0  0  0  0  0  0  0  0  0  0  0  0
  -15.8876    1.7792    0.0000 C   0  0  0  0  0  0  0  0  0  0  0  0
  -14.9352    2.9380    0.0000 C   0  0  0  0  0  0  0  0  0  0  0  0
  -13.4554    2.6926    0.0000 N   0  0  0  0  0  0  0  0  0  0  0  0
  -12.5029    3.8514    0.0000 C   0  0  0  0  0  0  0  0  0  0  0  0
  -11.0641    3.4275    0.0000 N   0  0  0  0  0  0  0  0  0  0  0  0
  -13.0303    5.2557    0.0000 N   0  0  0  0  0  0  0  0  0  0  0  0
  -17.0132    0.1291    0.0000 C   0  0  0  0  0  0  0  0  0  0  0  0
  -16.9980   -1.3708    0.0000 O   0  0  0  0  0  0  0  0  0  0  0  0
  -15.7219    0.8923    0.0000 N   0  0  0  0  0  0  0  0  0  0  0  0
  -14.4153    0.1555    0.0000 C   0  0  0  0  0  0  0  0  0  0  0  0
  -13.4395   -0.9837    0.0000 C   0  0  0  0  0  0  0  0  0  0  0  0
  -13.9381   -2.3984    0.0000 C   0  0  0  0  0  0  0  0  0  0  0  0
  -12.9623   -3.5376    0.0000 C   0  0  0  0  0  0  0  0  0  0  0  0
  -13.4610   -4.9522    0.0000 N   0  0  0  0  0  0  0  0  0  0  0  0
  -12.4851   -6.0914    0.0000 C   0  0  0  0  0  0  0  0  0  0  0  0
  -12.9838   -7.5061    0.0000 N   0  0  0  0  0  0  0  0  0  0  0  0
  -11.0106   -5.8159    0.0000 N   0  0  0  0  0  0  0  0  0  0  0  0
  -13.1240    0.9187    0.0000 C   0  0  0  0  0  0  0  0  0  0  0  0
  -12.8702    1.9823    0.0000 O   0  0  0  0  0  0  0  0  0  0  0  0
  -11.8173    0.1820    0.0000 N   0  0  0  0  0  0  0  0  0  0  0  0
  -10.5260    0.9451    0.0000 C   0  0  0  0  0  0  0  0  0  0  0  0
   -9.5736    2.1040    0.0000 C   0  0  0  0  0  0  0  0  0  0  0  0
   -8.0938    1.8585    0.0000 C   0  0  0  0  0  0  0  0  0  0  0  0
   -7.1413    3.0174    0.0000 C   0  0  0  0  0  0  0  0  0  0  0  0
   -5.6616    2.7719    0.0000 N   0  0  0  0  0  0  0  0  0  0  0  0
   -4.7091    3.9307    0.0000 C   0  0  0  0  0  0  0  0  0  0  0  0
   -3.2703    3.5068    0.0000 N   0  0  0  0  0  0  0  0  0  0  0  0
   -5.2365    5.3350    0.0000 N   0  0  0  0  0  0  0  0  0  0  0  0
   -9.2194    0.2084    0.0000 C   0  0  0  0  0  0  0  0  0  0  0  0
   -9.2041   -1.2915    0.0000 O   0  0  0  0  0  0  0  0  0  0  0  0
   -7.9281    0.9716    0.0000 N   0  0  0  0  0  0  0  0  0  0  0  0
   -6.6215    0.2348    0.0000 C   0  0  0  0  0  0  0  0  0  0  0  0
   -5.6456   -0.9044    0.0000 C   0  0  0  0  0  0  0  0  0  0  0  0
   -6.1443   -2.3190    0.0000 C   0  0  0  0  0  0  0  0  0  0  0  0
   -5.1685   -3.4582    0.0000 C   0  0  0  0  0  0  0  0  0  0  0  0
   -5.6671   -4.8729    0.0000 N   0  0  0  0  0  0  0  0  0  0  0  0
   -4.6913   -6.0121    0.0000 C   0  0  0  0  0  0  0  0  0  0  0  0
   -5.1900   -7.4268    0.0000 N   0  0  0  0  0  0  0  0  0  0  0  0
   -3.2168   -5.7366    0.0000 N   0  0  0  0  0  0  0  0  0  0  0  0
   -5.3301    0.9980    0.0000 C   0  0  0  0  0  0  0  0  0  0  0  0
   -5.0763    2.0617    0.0000 O   0  0  0  0  0  0  0  0  0  0  0  0
   -4.0235    0.2613    0.0000 N   0  0  0  0  0  0  0  0  0  0  0  0
   -2.7322    1.0245    0.0000 C   0  0  0  0  0  0  0  0  0  0  0  0
   -1.7797    2.1833    0.0000 C   0  0  0  0  0  0  0  0  0  0  0  0
   -0.3000    1.9379    0.0000 C   0  0  0  0  0  0  0  0  0  0  0  0
    0.6525    3.0967    0.0000 C   0  0  0  0  0  0  0  0  0  0  0  0
    2.1323    2.8512    0.0000 N   0  0  0  0  0  0  0  0  0  0  0  0
    3.0847    4.0101    0.0000 C   0  0  0  0  0  0  0  0  0  0  0  0
    4.5235    3.5861    0.0000 N   0  0  0  0  0  0  0  0  0  0  0  0
    2.5574    5.4143    0.0000 N   0  0  0  0  0  0  0  0  0  0  0  0
   -1.4256    0.2877    0.0000 C   0  0  0  0  0  0  0  0  0  0  0  0
   -1.4103   -1.2122    0.0000 O   0  0  0  0  0  0  0  0  0  0  0  0
   -0.1342    1.0509    0.0000 N   0  0  0  0  0  0  0  0  0  0  0  0
    1.1724    0.3142    0.0000 C   0  0  0  0  0  0  0  0  0  0  0  0
    2.1482   -0.8250    0.0000 C   0  0  0  0  0  0  0  0  0  0  0  0
    1.6495   -2.2397    0.0000 C   0  0  0  0  0  0  0  0  0  0  0  0
    2.6254   -3.3789    0.0000 C   0  0  0  0  0  0  0  0  0  0  0  0
    2.1267   -4.7936    0.0000 N   0  0  0  0  0  0  0  0  0  0  0  0
    3.1025   -5.9328    0.0000 C   0  0  0  0  0  0  0  0  0  0  0  0
    2.6039   -7.3475    0.0000 N   0  0  0  0  0  0  0  0  0  0  0  0
    4.5770   -5.6573    0.0000 N   0  0  0  0  0  0  0  0  0  0  0  0
    2.4637    1.0773    0.0000 C   0  0  0  0  0  0  0  0  0  0  0  0
    2.7175    2.1410    0.0000 O   0  0  0  0  0  0  0  0  0  0  0  0
    3.7703    0.3406    0.0000 N   0  0  0  0  0  0  0  0  0  0  0  0
    5.0616    1.1038    0.0000 C   0  0  0  0  0  0  0  0  0  0  0  0
    6.0141    2.2626    0.0000 C   0  0  0  0  0  0  0  0  0  0  0  0
    7.4939    2.0172    0.0000 C   0  0  0  0  0  0  0  0  0  0  0  0
    8.4463    3.1760    0.0000 C   0  0  0  0  0  0  0  0  0  0  0  0
    9.9261    2.9306    0.0000 N   0  0  0  0  0  0  0  0  0  0  0  0
   10.8785    4.0894    0.0000 C   0  0  0  0  0  0  0  0  0  0  0  0
   12.3174    3.6654    0.0000 N   0  0  0  0  0  0  0  0  0  0  0  0
   10.3512    5.4936    0.0000 N   0  0  0  0  0  0  0  0  0  0  0  0
    6.3682    0.3670    0.0000 C   0  0  0  0  0  0  0  0  0  0  0  0
    6.3835   -1.1329    0.0000 O   0  0  0  0  0  0  0  0  0  0  0  0
    7.6596    1.1302    0.0000 N   0  0  0  0  0  0  0  0  0  0  0  0
    8.9662    0.3935    0.0000 C   0  0  0  0  0  0  0  0  0  0  0  0
    9.9420   -0.7457    0.0000 C   0  0  0  0  0  0  0  0  0  0  0  0
    9.4434   -2.1604    0.0000 C   0  0  0  0  0  0  0  0  0  0  0  0
   10.4192   -3.2996    0.0000 C   0  0  0  0  0  0  0  0  0  0  0  0
    9.9205   -4.7143    0.0000 N   0  0  0  0  0  0  0  0  0  0  0  0
   10.8963   -5.8535    0.0000 C   0  0  0  0  0  0  0  0  0  0  0  0
   10.3977   -7.2682    0.0000 N   0  0  0  0  0  0  0  0  0  0  0  0
   12.3708   -5.5780    0.0000 N   0  0  0  0  0  0  0  0  0  0  0  0
   10.2575    1.1567    0.0000 C   0  0  0  0  0  0  0  0  0  0  0  0
   10.5113    2.2203    0.0000 O   0  0  0  0  0  0  0  0  0  0  0  0
   11.5641    0.4199    0.0000 N   0  0  0  0  0  0  0  0  0  0  0  0
   12.8555    1.1831    0.0000 C   0  0  0  0  0  0  0  0  0  0  0  0
   13.8079    2.3419    0.0000 C   0  0  0  0  0  0  0  0  0  0  0  0
   15.2877    2.0965    0.0000 C   0  0  0  0  0  0  0  0  0  0  0  0
   15.9589    0.7551    0.0000 C   0  0  0  0  0  0  0  0  0  0  0  0
   17.4421    0.9789    0.0000 N   0  0  0  0  0  0  0  0  0  0  0  0
   17.6876    2.4587    0.0000 C   0  0  0  0  0  0  0  0  0  0  0  0
   18.9515    3.2665    0.0000 C   0  0  0  0  0  0  0  0  0  0  0  0
   18.8839    4.7650    0.0000 C   0  0  0  0  0  0  0  0  0  0  0  0
   17.5524    5.4557    0.0000 C   0  0  0  0  0  0  0  0  0  0  0  0
   16.2884    4.6479    0.0000 C   0  0  0  0  0  0  0  0  0  0  0  0
   16.3560    3.1494    0.0000 C   0  0  0  0  0  0  0  0  0  0  0  0
   14.1621    0.4464    0.0000 C   0  0  0  0  0  0  0  0  0  0  0  0
   14.1773   -1.0536    0.0000 O   0  0  0  0  0  0  0  0  0  0  0  0
   15.4534    1.2095    0.0000 N   0  0  0  0  0  0  0  0  0  0  0  0
   16.7600    0.4728    0.0000 C   0  0  0  0  0  0  0  0  0  0  0  0
   17.7358   -0.6664    0.0000 C   0  0  0  0  0  0  0  0  0  0  0  0
   17.2372   -2.0811    0.0000 C   0  0  0  0  0  0  0  0  0  0  0  0
   18.2130   -3.2203    0.0000 C   0  0  0  0  0  0  0  0  0  0  0  0
   17.7143   -4.6350    0.0000 N   0  0  0  0  0  0  0  0  0  0  0  0
   18.6902   -5.7742    0.0000 C   0  0  0  0  0  0  0  0  0  0  0  0
   18.1915   -7.1889    0.0000 N   0  0  0  0  0  0  0  0  0  0  0  0
   20.1647   -5.4987    0.0000 N   0  0  0  0  0  0  0  0  0  0  0  0
   18.0513    1.2360    0.0000 C   0  0  0  0  0  0  0  0  0  0  0  0
   18.3995    2.6950    0.0000 O   0  0  0  0  0  0  0  0  0  0  0  0
   19.3580    0.4992    0.0000 N   0  0  0  0  0  0  0  0  0  0  0  0
   20.6493    1.2624    0.0000 C   0  0  0  0  0  0  0  0  0  0  0  0
   21.6017    2.4212    0.0000 C   0  0  0  0  0  0  0  0  0  0  0  0
   23.0815    2.1758    0.0000 C   0  0  0  0  0  0  0  0  0  0  0  0
   24.0340    3.3346    0.0000 C   0  0  0  0  0  0  0  0  0  0  0  0
   25.5137    3.0892    0.0000 N   0  0  0  0  0  0  0  0  0  0  0  0
   26.4662    4.2480    0.0000 C   0  0  0  0  0  0  0  0  0  0  0  0
   27.9460    4.0026    0.0000 N   0  0  0  0  0  0  0  0  0  0  0  0
   25.9388    5.6523    0.0000 N   0  0  0  0  0  0  0  0  0  0  0  0
   21.9559    0.5257    0.0000 C   0  0  0  0  0  0  0  0  0  0  0  0
   21.9712   -0.9742    0.0000 O   0  0  0  0  0  0  0  0  0  0  0  0
   23.2472    1.2889    0.0000 N   0  0  0  0  0  0  0  0  0  0  0  0
   24.5538    0.5521    0.0000 C   0  0  0  0  0  0  0  0  0  0  0  0
   25.5297   -0.5871    0.0000 C   0  0  0  0  0  0  0  0  0  0  0  0
   25.0310   -2.0018    0.0000 C   0  0  0  0  0  0  0  0  0  0  0  0
   26.0068   -3.1410    0.0000 C   0  0  0  0  0  0  0  0  0  0  0  0
   25.5082   -4.5556    0.0000 N   0  0  0  0  0  0  0  0  0  0  0  0
   26.4840   -5.6948    0.0000 C   0  0  0  0  0  0  0  0  0  0  0  0
   25.9853   -7.1095    0.0000 N   0  0  0  0  0  0  0  0  0  0  0  0
   27.9585   -5.4194    0.0000 N   0  0  0  0  0  0  0  0  0  0  0  0
   25.8452    1.3153    0.0000 C   0  0  0  0  0  0  0  0  0  0  0  0
   27.2318    0.7433    0.0000 O   0  0  0  0  0  0  0  0  0  0  0  0
   26.1933    2.7743    0.0000 O   0  0  0  0  0  0  0  0  0  0  0  0
  -27.2070   -1.4636    0.0000 H   0  0  0  0  0  0  0  0  0  0  0  0
  -27.4355    3.0232    0.0000 H   0  0  0  0  0  0  0  0  0  0  0  0
  -30.0487    4.4967    0.0000 H   0  0  0  0  0  0  0  0  0  0  0  0
  -29.6252   -1.4548    0.0000 H   0  0  0  0  0  0  0  0  0  0  0  0
  -36.5572   -3.2604    0.0000 H   0  0  0  0  0  0  0  0  0  0  0  0
  -37.6893    1.8109    0.0000 H   0  0  0  0  0  0  0  0  0  0  0  0
  -34.7613    2.4645    0.0000 H   0  0  0  0  0  0  0  0  0  0  0  0
  -39.6022    0.0529    0.0000 H   0  0  0  0  0  0  0  0  0  0  0  0
  -29.8034    0.9092    0.0000 H   0  0  0  0  0  0  0  0  0  0  0  0
  -27.7445   -1.4806    0.0000 H   0  0  0  0  0  0  0  0  0  0  0  0
  -31.5993   -4.8157    0.0000 H   0  0  0  0  0  0  0  0  0  0  0  0
  -29.1204   -5.5934    0.0000 H   0  0  0  0  0  0  0  0  0  0  0  0
  -24.7918   -1.4502    0.0000 H   0  0  0  0  0  0  0  0  0  0  0  0
  -22.5633    1.9718    0.0000 H   0  0  0  0  0  0  0  0  0  0  0  0
  -24.4915    1.9521    0.0000 H   0  0  0  0  0  0  0  0  0  0  0  0
  -21.2333   -1.0630    0.0000 H   0  0  0  0  0  0  0  0  0  0  0  0
  -23.1616   -1.0826    0.0000 H   0  0  0  0  0  0  0  0  0  0  0  0
  -19.5959   -1.3973    0.0000 H   0  0  0  0  0  0  0  0  0  0  0  0
  -19.2957    2.0050    0.0000 H   0  0  0  0  0  0  0  0  0  0  0  0
  -17.0449    3.4896    0.0000 H   0  0  0  0  0  0  0  0  0  0  0  0
  -18.6740    2.7614    0.0000 H   0  0  0  0  0  0  0  0  0  0  0  0
  -14.5810    1.0425    0.0000 H   0  0  0  0  0  0  0  0  0  0  0  0
  -15.6636    0.2960    0.0000 H   0  0  0  0  0  0  0  0  0  0  0  0
  -14.4365    4.3527    0.0000 H   0  0  0  0  0  0  0  0  0  0  0  0
  -16.1422    3.8286    0.0000 H   0  0  0  0  0  0  0  0  0  0  0  0
  -12.6039    1.4577    0.0000 H   0  0  0  0  0  0  0  0  0  0  0  0
  -10.0707    4.7648    0.0000 H   0  0  0  0  0  0  0  0  0  0  0  0
  -12.0779    6.4145    0.0000 H   0  0  0  0  0  0  0  0  0  0  0  0
  -14.5101    5.5011    0.0000 H   0  0  0  0  0  0  0  0  0  0  0  0
  -15.3738    2.3513    0.0000 H   0  0  0  0  0  0  0  0  0  0  0  0
  -15.5019   -0.8786    0.0000 H   0  0  0  0  0  0  0  0  0  0  0  0
  -12.1329   -1.7204    0.0000 H   0  0  0  0  0  0  0  0  0  0  0  0
  -12.2349   -0.0898    0.0000 H   0  0  0  0  0  0  0  0  0  0  0  0
  -14.8906   -3.5572    0.0000 H   0  0  0  0  0  0  0  0  0  0  0  0
  -15.3248   -1.8264    0.0000 H   0  0  0  0  0  0  0  0  0  0  0  0
  -11.6557   -4.2743    0.0000 H   0  0  0  0  0  0  0  0  0  0  0  0
  -11.8757   -2.5035    0.0000 H   0  0  0  0  0  0  0  0  0  0  0  0
  -14.9354   -5.2277    0.0000 H   0  0  0  0  0  0  0  0  0  0  0  0
  -12.0080   -8.6453    0.0000 H   0  0  0  0  0  0  0  0  0  0  0  0
  -10.0348   -6.9551    0.0000 H   0  0  0  0  0  0  0  0  0  0  0  0
  -10.5120   -4.4013    0.0000 H   0  0  0  0  0  0  0  0  0  0  0  0
  -11.6194   -1.3049    0.0000 H   0  0  0  0  0  0  0  0  0  0  0  0
  -11.5018    2.0843    0.0000 H   0  0  0  0  0  0  0  0  0  0  0  0
   -9.2511    3.5689    0.0000 H   0  0  0  0  0  0  0  0  0  0  0  0
  -10.9602    2.6759    0.0000 H   0  0  0  0  0  0  0  0  0  0  0  0
   -6.7872    1.1218    0.0000 H   0  0  0  0  0  0  0  0  0  0  0  0
   -7.8698    0.3754    0.0000 H   0  0  0  0  0  0  0  0  0  0  0  0
   -6.6427    4.4320    0.0000 H   0  0  0  0  0  0  0  0  0  0  0  0
   -8.3484    3.9079    0.0000 H   0  0  0  0  0  0  0  0  0  0  0  0
   -4.8101    1.5370    0.0000 H   0  0  0  0  0  0  0  0  0  0  0  0
   -2.2769    4.8441    0.0000 H   0  0  0  0  0  0  0  0  0  0  0  0
   -4.2840    6.4938    0.0000 H   0  0  0  0  0  0  0  0  0  0  0  0
   -6.7163    5.5804    0.0000 H   0  0  0  0  0  0  0  0  0  0  0  0
   -7.5799    2.4306    0.0000 H   0  0  0  0  0  0  0  0  0  0  0  0
   -7.7081   -0.7992    0.0000 H   0  0  0  0  0  0  0  0  0  0  0  0
   -4.3390   -1.6411    0.0000 H   0  0  0  0  0  0  0  0  0  0  0  0
   -4.4411   -0.0104    0.0000 H   0  0  0  0  0  0  0  0  0  0  0  0
   -7.0967   -3.4779    0.0000 H   0  0  0  0  0  0  0  0  0  0  0  0
   -7.5310   -1.7471    0.0000 H   0  0  0  0  0  0  0  0  0  0  0  0
   -3.8619   -4.1950    0.0000 H   0  0  0  0  0  0  0  0  0  0  0  0
   -4.0819   -2.4242    0.0000 H   0  0  0  0  0  0  0  0  0  0  0  0
   -7.1416   -5.1484    0.0000 H   0  0  0  0  0  0  0  0  0  0  0  0
   -4.2141   -8.5660    0.0000 H   0  0  0  0  0  0  0  0  0  0  0  0
   -2.2410   -6.8758    0.0000 H   0  0  0  0  0  0  0  0  0  0  0  0
   -2.7182   -4.3219    0.0000 H   0  0  0  0  0  0  0  0  0  0  0  0
   -3.8255   -1.2256    0.0000 H   0  0  0  0  0  0  0  0  0  0  0  0
   -3.7080    2.1637    0.0000 H   0  0  0  0  0  0  0  0  0  0  0  0
   -1.4573    3.6482    0.0000 H   0  0  0  0  0  0  0  0  0  0  0  0
   -3.1664    2.7553    0.0000 H   0  0  0  0  0  0  0  0  0  0  0  0
    1.0066    1.2011    0.0000 H   0  0  0  0  0  0  0  0  0  0  0  0
   -0.0759    0.4547    0.0000 H   0  0  0  0  0  0  0  0  0  0  0  0
    1.1511    4.5114    0.0000 H   0  0  0  0  0  0  0  0  0  0  0  0
   -0.5546    3.9872    0.0000 H   0  0  0  0  0  0  0  0  0  0  0  0
    2.9837    1.6163    0.0000 H   0  0  0  0  0  0  0  0  0  0  0  0
    5.5169    4.9235    0.0000 H   0  0  0  0  0  0  0  0  0  0  0  0
    3.5098    6.5731    0.0000 H   0  0  0  0  0  0  0  0  0  0  0  0
    1.0776    5.6597    0.0000 H   0  0  0  0  0  0  0  0  0  0  0  0
    0.2139    2.5099    0.0000 H   0  0  0  0  0  0  0  0  0  0  0  0
    0.0858   -0.7199    0.0000 H   0  0  0  0  0  0  0  0  0  0  0  0
    3.4548   -1.5618    0.0000 H   0  0  0  0  0  0  0  0  0  0  0  0
    3.3527    0.0689    0.0000 H   0  0  0  0  0  0  0  0  0  0  0  0
    0.6971   -3.3985    0.0000 H   0  0  0  0  0  0  0  0  0  0  0  0
    0.2629   -1.6677    0.0000 H   0  0  0  0  0  0  0  0  0  0  0  0
    3.9320   -4.1157    0.0000 H   0  0  0  0  0  0  0  0  0  0  0  0
    3.7119   -2.3448    0.0000 H   0  0  0  0  0  0  0  0  0  0  0  0
    0.6522   -5.0691    0.0000 H   0  0  0  0  0  0  0  0  0  0  0  0
    3.5797   -8.4867    0.0000 H   0  0  0  0  0  0  0  0  0  0  0  0
    5.5528   -6.7965    0.0000 H   0  0  0  0  0  0  0  0  0  0  0  0
    5.0757   -4.2426    0.0000 H   0  0  0  0  0  0  0  0  0  0  0  0
    3.9683   -1.1463    0.0000 H   0  0  0  0  0  0  0  0  0  0  0  0
    4.0858    2.2430    0.0000 H   0  0  0  0  0  0  0  0  0  0  0  0
    6.3366    3.7275    0.0000 H   0  0  0  0  0  0  0  0  0  0  0  0
    4.6274    2.8346    0.0000 H   0  0  0  0  0  0  0  0  0  0  0  0
    8.8005    1.2804    0.0000 H   0  0  0  0  0  0  0  0  0  0  0  0
    7.7179    0.5340    0.0000 H   0  0  0  0  0  0  0  0  0  0  0  0
    8.9450    4.5907    0.0000 H   0  0  0  0  0  0  0  0  0  0  0  0
    7.2392    4.0665    0.0000 H   0  0  0  0  0  0  0  0  0  0  0  0
   10.7776    1.6957    0.0000 H   0  0  0  0  0  0  0  0  0  0  0  0
   13.3107    5.0028    0.0000 H   0  0  0  0  0  0  0  0  0  0  0  0
   11.3036    6.6524    0.0000 H   0  0  0  0  0  0  0  0  0  0  0  0
    8.8714    5.7391    0.0000 H   0  0  0  0  0  0  0  0  0  0  0  0
    8.0077    2.5893    0.0000 H   0  0  0  0  0  0  0  0  0  0  0  0
    7.8796   -0.6406    0.0000 H   0  0  0  0  0  0  0  0  0  0  0  0
   11.2486   -1.4825    0.0000 H   0  0  0  0  0  0  0  0  0  0  0  0
   11.1465    0.1482    0.0000 H   0  0  0  0  0  0  0  0  0  0  0  0
    8.4909   -3.3192    0.0000 H   0  0  0  0  0  0  0  0  0  0  0  0
    8.0567   -1.5884    0.0000 H   0  0  0  0  0  0  0  0  0  0  0  0
   11.7258   -4.0363    0.0000 H   0  0  0  0  0  0  0  0  0  0  0  0
   11.5058   -2.2655    0.0000 H   0  0  0  0  0  0  0  0  0  0  0  0
    8.4460   -4.9898    0.0000 H   0  0  0  0  0  0  0  0  0  0  0  0
   11.3735   -8.4074    0.0000 H   0  0  0  0  0  0  0  0  0  0  0  0
   13.3467   -6.7172    0.0000 H   0  0  0  0  0  0  0  0  0  0  0  0
   12.8695   -4.1633    0.0000 H   0  0  0  0  0  0  0  0  0  0  0  0
   11.7621   -1.0670    0.0000 H   0  0  0  0  0  0  0  0  0  0  0  0
   11.8796    2.3223    0.0000 H   0  0  0  0  0  0  0  0  0  0  0  0
   14.3066    3.7566    0.0000 H   0  0  0  0  0  0  0  0  0  0  0  0
   12.4212    2.9139    0.0000 H   0  0  0  0  0  0  0  0  0  0  0  0
   15.1111   -0.4823    0.0000 H   0  0  0  0  0  0  0  0  0  0  0  0
   18.6174    0.0469    0.0000 H   0  0  0  0  0  0  0  0  0  0  0  0
   20.2830    2.5758    0.0000 H   0  0  0  0  0  0  0  0  0  0  0  0
   20.1478    5.5728    0.0000 H   0  0  0  0  0  0  0  0  0  0  0  0
   17.4848    6.9541    0.0000 H   0  0  0  0  0  0  0  0  0  0  0  0
   14.9569    5.3386    0.0000 H   0  0  0  0  0  0  0  0  0  0  0  0
   15.8015    2.6686    0.0000 H   0  0  0  0  0  0  0  0  0  0  0  0
   15.8076   -0.6860    0.0000 H   0  0  0  0  0  0  0  0  0  0  0  0
   19.0424   -1.4031    0.0000 H   0  0  0  0  0  0  0  0  0  0  0  0
   19.0404    0.0740    0.0000 H   0  0  0  0  0  0  0  0  0  0  0  0
   16.2847   -3.2399    0.0000 H   0  0  0  0  0  0  0  0  0  0  0  0
   15.8505   -1.5091    0.0000 H   0  0  0  0  0  0  0  0  0  0  0  0
   19.5196   -3.9570    0.0000 H   0  0  0  0  0  0  0  0  0  0  0  0
   19.2996   -2.1862    0.0000 H   0  0  0  0  0  0  0  0  0  0  0  0
   16.2399   -4.9105    0.0000 H   0  0  0  0  0  0  0  0  0  0  0  0
   19.1673   -8.3280    0.0000 H   0  0  0  0  0  0  0  0  0  0  0  0
   21.1405   -6.6379    0.0000 H   0  0  0  0  0  0  0  0  0  0  0  0
   20.6633   -4.0840    0.0000 H   0  0  0  0  0  0  0  0  0  0  0  0
   19.5559   -0.9876    0.0000 H   0  0  0  0  0  0  0  0  0  0  0  0
   19.5419    2.2742    0.0000 H   0  0  0  0  0  0  0  0  0  0  0  0
   21.9242    3.8862    0.0000 H   0  0  0  0  0  0  0  0  0  0  0  0
   20.3947    3.3118    0.0000 H   0  0  0  0  0  0  0  0  0  0  0  0
   24.3881    1.4391    0.0000 H   0  0  0  0  0  0  0  0  0  0  0  0
   23.3055    0.6926    0.0000 H   0  0  0  0  0  0  0  0  0  0  0  0
   24.5326    4.7493    0.0000 H   0  0  0  0  0  0  0  0  0  0  0  0
   22.8269    4.2251    0.0000 H   0  0  0  0  0  0  0  0  0  0  0  0
   26.3652    1.8543    0.0000 H   0  0  0  0  0  0  0  0  0  0  0  0
   28.8984    5.1614    0.0000 H   0  0  0  0  0  0  0  0  0  0  0  0
   26.8913    6.8111    0.0000 H   0  0  0  0  0  0  0  0  0  0  0  0
   24.4590    5.8977    0.0000 H   0  0  0  0  0  0  0  0  0  0  0  0
   23.5954    2.7479    0.0000 H   0  0  0  0  0  0  0  0  0  0  0  0
   23.4672   -0.4820    0.0000 H   0  0  0  0  0  0  0  0  0  0  0  0
   26.9163   -1.1591    0.0000 H   0  0  0  0  0  0  0  0  0  0  0  0
   26.6163    0.4470    0.0000 H   0  0  0  0  0  0  0  0  0  0  0  0
   24.0786   -3.1606    0.0000 H   0  0  0  0  0  0  0  0  0  0  0  0
   23.6443   -1.4298    0.0000 H   0  0  0  0  0  0  0  0  0  0  0  0
   27.3134   -3.8777    0.0000 H   0  0  0  0  0  0  0  0  0  0  0  0
   27.0934   -2.1069    0.0000 H   0  0  0  0  0  0  0  0  0  0  0  0
   24.0337   -4.8311    0.0000 H   0  0  0  0  0  0  0  0  0  0  0  0
   26.9612   -8.2487    0.0000 H   0  0  0  0  0  0  0  0  0  0  0  0
   28.9343   -6.5585    0.0000 H   0  0  0  0  0  0  0  0  0  0  0  0
   28.4571   -4.0047    0.0000 H   0  0  0  0  0  0  0  0  0  0  0  0
   27.1212    3.5784    0.0000 H   0  0  0  0  0  0  0  0  0  0  0  0
  1  2  1  0
  2  3  1  0
  3  4  2  0
  4  5  1  0
  5  6  2  0
  6  7  1  0
  7  8  2  0
  7  9  1  0
  9 10  1  0
 10 11  1  0
 11 12  2  0
  9 13  1  0
 13 14  1  0
 14 15  2  0
 15 16  1  0
 16 17  2  0
 17 18  1  0
 16 19  1  0
 14 20  1  0
 20 21  1  0
 21 22  2  0
 22 23  1  0
 23 24  2  0
 24 25  1  0
 25 26  2  0
 25 27  1  0
  1 28  2  0
  1 29  1  0
 29 30  1  0
 30 31  1  0
 31 32  1  0
 32 33  2  0
 32 34  1  0
 34 35  1  0
 35 36  1  0
 36 37  1  0
 37 38  1  0
 38 39  1  0
 39 40  1  0
 40 41  2  3
 40 42  1  0
 35 43  1  0
 43 44  2  0
 43 45  1  0
 45 46  1  0
 46 47  1  0
 47 48  1  0
 48 49  1  0
 49 50  1  0
 50 51  1  0
 51 52  2  3
 51 53  1  0
 46 54  1  0
 54 55  2  0
 54 56  1  0
 56 57  1  0
 57 58  1  0
 58 59  1  0
 59 60  1  0
 60 61  1  0
 61 62  1  0
 62 63  2  3
 62 64  1  0
 57 65  1  0
 65 66  2  0
 65 67  1  0
 67 68  1  0
 68 69  1  0
 69 70  1  0
 70 71  1  0
 71 72  1  0
 72 73  1  0
 73 74  2  3
 73 75  1  0
 68 76  1  0
 76 77  2  0
 76 78  1  0
 78 79  1  0
 79 80  1  0
 80 81  1  0
 81 82  1  0
 82 83  1  0
 83 84  1  0
 84 85  2  3
 84 86  1  0
 79 87  1  0
 87 88  2  0
 87 89  1  0
 89 90  1  0
 90 91  1  0
 91 92  1  0
 92 93  1  0
 93 94  1  0
 94 95  1  0
 95 96  2  3
 95 97  1  0
 90 98  1  0
 98 99  2  0
 98100  1  0
100101  1  0
101102  1  0
102103  1  0
103104  1  0
104105  1  0
105106  1  0
106107  2  3
106108  1  0
101109  1  0
109110  2  0
109111  1  0
111112  1  0
112113  1  0
113114  1  0
114115  1  0
115116  1  0
116117  1  0
117118  2  3
117119  1  0
112120  1  0
120121  2  0
120122  1  0
122123  1  0
123124  1  0
124125  1  0
125126  2  0
126127  1  0
127128  1  0
128129  2  0
129130  1  0
130131  2  0
131132  1  0
132133  2  0
123134  1  0
134135  2  0
134136  1  0
136137  1  0
137138  1  0
138139  1  0
139140  1  0
140141  1  0
141142  1  0
142143  2  3
142144  1  0
137145  1  0
145146  2  0
145147  1  0
147148  1  0
148149  1  0
149150  1  0
150151  1  0
151152  1  0
152153  1  0
153154  2  3
153155  1  0
148156  1  0
156157  2  0
156158  1  0
158159  1  0
159160  1  0
160161  1  0
161162  1  0
162163  1  0
163164  1  0
164165  2  3
164166  1  0
159167  1  0
167168  2  0
167169  1  0
  8  3  1  0
133125  1  0
 11  6  1  0
133128  1  0
 18 13  2  0
 22  9  1  0
 26 21  1  0
  2170  1  0
  4171  1  0
  5172  1  0
  8173  1  0
 15174  1  0
 17175  1  0
 18176  1  0
 19177  1  0
 23178  1  0
 24179  1  0
 26180  1  0
 27181  1  0
 29182  1  0
 30183  1  0
 30184  1  0
 31185  1  0
 31186  1  0
 34187  1  0
 35188  1  1
 36189  1  0
 36190  1  0
 37191  1  0
 37192  1  0
 38193  1  0
 38194  1  0
 39195  1  0
 41196  1  0
 42197  1  0
 42198  1  0
 45199  1  0
 46200  1  6
 47201  1  0
 47202  1  0
 48203  1  0
 48204  1  0
 49205  1  0
 49206  1  0
 50207  1  0
 52208  1  0
 53209  1  0
 53210  1  0
 56211  1  0
 57212  1  1
 58213  1  0
 58214  1  0
 59215  1  0
 59216  1  0
 60217  1  0
 60218  1  0
 61219  1  0
 63220  1  0
 64221  1  0
 64222  1  0
 67223  1  0
 68224  1  6
 69225  1  0
 69226  1  0
 70227  1  0
 70228  1  0
 71229  1  0
 71230  1  0
 72231  1  0
 74232  1  0
 75233  1  0
 75234  1  0
 78235  1  0
 79236  1  1
 80237  1  0
 80238  1  0
 81239  1  0
 81240  1  0
 82241  1  0
 82242  1  0
 83243  1  0
 85244  1  0
 86245  1  0
 86246  1  0
 89247  1  0
 90248  1  6
 91249  1  0
 91250  1  0
 92251  1  0
 92252  1  0
 93253  1  0
 93254  1  0
 94255  1  0
 96256  1  0
 97257  1  0
 97258  1  0
100259  1  0
101260  1  1
102261  1  0
102262  1  0
103263  1  0
103264  1  0
104265  1  0
104266  1  0
105267  1  0
107268  1  0
108269  1  0
108270  1  0
111271  1  0
112272  1  6
113273  1  0
113274  1  0
114275  1  0
114276  1  0
115277  1  0
115278  1  0
116279  1  0
118280  1  0
119281  1  0
119282  1  0
122283  1  0
123284  1  1
124285  1  0
124286  1  0
126287  1  0
127288  1  0
129289  1  0
130290  1  0
131291  1  0
132292  1  0
136293  1  0
137294  1  6
138295  1  0
138296  1  0
139297  1  0
139298  1  0
140299  1  0
140300  1  0
141301  1  0
143302  1  0
144303  1  0
144304  1  0
147305  1  0
148306  1  1
149307  1  0
149308  1  0
150309  1  0
150310  1  0
151311  1  0
151312  1  0
152313  1  0
154314  1  0
155315  1  0
155316  1  0
158317  1  0
159318  1  6
160319  1  0
160320  1  0
161321  1  0
161322  1  0
162323  1  0
162324  1  0
163325  1  0
165326  1  0
166327  1  0
166328  1  0
169329  1  0
M  END
